
     RDKit          3D

 36 38  0  0  0  0  0  0  0  0999 V2000
    6.8033   -1.0137   21.7190 C   0  0  0  0  0  0  0  0  0  0  0  0
    6.7924    0.5348   21.7088 C   0  0  0  0  0  0  0  0  0  0  0  0
    8.1560    1.0855   21.8717 N   0  0  0  0  0  0  0  0  0  0  0  0
    9.2312    0.4743   22.4564 C   0  0  0  0  0  0  0  0  0  0  0  0
    9.1651   -0.6168   23.0050 O   0  0  0  0  0  0  0  0  0  0  0  0
   10.6036    1.2105   22.3245 C   0  0  0  0  0  0  0  0  0  0  0  0
   10.6836    2.5285   22.4239 N   0  0  0  0  0  0  0  0  0  0  0  0
   11.8945    3.1143   22.6228 C   0  0  0  0  0  0  0  0  0  0  0  0
   13.0648    2.4061   22.7074 C   0  0  0  0  0  0  0  0  0  0  0  0
   13.0229    1.0263   22.4420 C   0  0  0  0  0  0  0  0  0  0  0  0
   14.1640    0.2968   22.4771 N   0  0  0  0  0  0  0  0  0  0  0  0
   14.0810   -0.9279   22.0337 C   0  0  0  0  0  0  0  0  0  0  0  0
   12.9942   -1.5347   21.5011 N   0  0  0  0  0  0  0  0  0  0  0  0
   11.8683   -0.8592   21.5537 C   0  0  0  0  0  0  0  0  0  0  0  0
   11.7857    0.4345   22.1108 C   0  0  0  0  0  0  0  0  0  0  0  0
   10.9725   -1.3330   21.1427 H   0  0  0  0  0  0  0  0  0  0  0  0
   14.9871   -1.5271   22.0627 H   0  0  0  0  0  0  0  0  0  0  0  0
   14.0154    2.8761   22.9132 H   0  0  0  0  0  0  0  0  0  0  0  0
   11.8769    4.1946   22.7425 H   0  0  0  0  0  0  0  0  0  0  0  0
    8.3380    2.0353   21.5637 H   0  0  0  0  0  0  0  0  0  0  0  0
    5.6787    0.9931   23.1796 C   0  0  0  0  0  0  0  0  0  0  0  0
    4.7791    1.8059   22.9850 O   0  0  0  0  0  0  0  0  0  0  0  0
    6.0278    0.3900   24.1882 O   0  0  0  0  0  1  0  0  0  0  0  0
    6.3143    1.0317   20.3560 C   0  0  0  0  0  0  0  0  0  0  0  0
    5.0767    1.6451   20.1221 C   0  0  0  0  0  0  0  0  0  0  0  0
    4.7238    1.9682   18.8081 C   0  0  0  0  0  0  0  0  0  0  0  0
    5.6044    1.6603   17.7687 C   0  0  0  0  0  0  0  0  0  0  0  0
    6.7833    1.0483   17.9599 N   0  0  0  0  0  0  0  0  0  0  0  0
    7.1234    0.7731   19.2216 C   0  0  0  0  0  0  0  0  0  0  0  0
    8.1077    0.3255   19.3532 H   0  0  0  0  0  0  0  0  0  0  0  0
    5.3682    1.9084   16.7372 H   0  0  0  0  0  0  0  0  0  0  0  0
    3.7976    2.4900   18.5980 H   0  0  0  0  0  0  0  0  0  0  0  0
    4.4395    1.8669   20.9759 H   0  0  0  0  0  0  0  0  0  0  0  0
    6.8927   -1.3618   22.7471 H   0  0  0  0  0  0  0  0  0  0  0  0
    7.6595   -1.3999   21.1567 H   0  0  0  0  0  0  0  0  0  0  0  0
    5.8830   -1.4180   21.2821 H   0  0  0  0  0  0  0  0  0  0  0  0
  1  2  1  0
  2  3  1  0
  3  4  1  0
  4  5  2  0
  4  6  1  0
  6  7  2  0
  7  8  1  0
  8  9  2  0
  9 10  1  0
 10 11  2  0
 11 12  1  0
 12 13  2  0
 13 14  1  0
 14 15  2  0
 14 16  1  0
 12 17  1  0
  9 18  1  0
  8 19  1  0
  3 20  1  0
  2 21  1  0
 21 22  2  0
 21 23  1  0
  2 24  1  0
 24 25  2  0
 25 26  1  0
 26 27  2  0
 27 28  1  0
 28 29  2  0
 29 30  1  0
 27 31  1  0
 26 32  1  0
 25 33  1  0
  1 34  1  0
  1 35  1  0
  1 36  1  0
 15  6  1  0
 29 24  1  0
 15 10  1  0
M  CHG  1  23  -1
M  END
>  <cnnaffinity>  (1) 
5.74726

>  <plip>  (1) 
-0.10714285714285714

>  <filename>  (1) 
[H][c]1[n][c]([H])[c]2[c]([C](=[O])[N]([H])[C]([C](=[O])[O-])([c]3[c]([H])[n][c]([H])[c]([H])[c]3[H])[C]([H])([H])[H])[n][c]([H])[c]([H])[c]2[n]1

>  <combo1>  (1) 
-0.6368499482298877

$$$$
