
     RDKit          3D

 38 41  0  0  0  0  0  0  0  0999 V2000
    8.2753    1.2266   22.2947 C   0  0  0  0  0  0  0  0  0  0  0  0
    7.5926   -0.0503   22.2165 N   0  0  0  0  0  0  0  0  0  0  0  0
    7.0005   -0.6452   23.2900 C   0  0  0  0  0  0  0  0  0  0  0  0
    6.9165   -0.1729   24.4032 O   0  0  0  0  0  0  0  0  0  0  0  0
    6.4930   -1.8956   22.8785 N   0  0  0  0  0  0  0  0  0  0  0  0
    5.7160   -2.7652   23.7211 C   0  0  0  0  0  0  0  0  0  0  0  0
    4.5820   -3.4880   23.1815 C   0  0  0  0  0  0  0  0  0  0  0  0
    3.7597   -4.1993   23.9069 N   0  0  0  0  0  0  0  0  0  0  0  0
    4.0223   -4.3080   25.2503 C   0  0  0  0  0  0  0  0  0  0  0  0
    3.1651   -5.1013   26.0730 C   0  0  0  0  0  0  0  0  0  0  0  0
    2.0723   -5.6405   25.5191 F   0  0  0  0  0  0  0  0  0  0  0  0
    3.4297   -5.3218   27.4016 C   0  0  0  0  0  0  0  0  0  0  0  0
    4.5642   -4.7119   27.9991 C   0  0  0  0  0  0  0  0  0  0  0  0
    5.3936   -3.8941   27.2675 C   0  0  0  0  0  0  0  0  0  0  0  0
    5.1438   -3.6720   25.8804 C   0  0  0  0  0  0  0  0  0  0  0  0
    5.9751   -2.8412   25.0701 C   0  0  0  0  0  0  0  0  0  0  0  0
    6.7735   -2.2577   25.5228 H   0  0  0  0  0  0  0  0  0  0  0  0
    6.2513   -3.4141   27.7300 H   0  0  0  0  0  0  0  0  0  0  0  0
    4.7606   -4.8962   29.0518 H   0  0  0  0  0  0  0  0  0  0  0  0
    2.7586   -5.9597   27.9653 H   0  0  0  0  0  0  0  0  0  0  0  0
    4.3794   -3.4062   22.1144 H   0  0  0  0  0  0  0  0  0  0  0  0
    6.6407   -2.0289   21.5029 C   0  0  0  0  0  0  0  0  0  0  0  0
    6.2926   -2.9716   20.8360 O   0  0  0  0  0  0  0  0  0  0  0  0
    7.3798   -0.7855   20.9902 C   0  0  0  0  0  0  0  0  0  0  0  0
    6.6447    0.0115   19.9025 C   0  0  0  0  0  0  0  0  0  0  0  0
    5.4225    0.6623   20.1304 C   0  0  0  0  0  0  0  0  0  0  0  0
    4.8111    1.3188   19.0579 C   0  0  0  0  0  0  0  0  0  0  0  0
    5.4352    1.3194   17.8056 C   0  0  0  0  0  0  0  0  0  0  0  0
    6.6068    0.7117   17.5698 N   0  0  0  0  0  0  0  0  0  0  0  0
    7.1821    0.0869   18.6054 C   0  0  0  0  0  0  0  0  0  0  0  0
    8.1289   -0.4034   18.3831 H   0  0  0  0  0  0  0  0  0  0  0  0
    4.9763    1.8271   16.9569 H   0  0  0  0  0  0  0  0  0  0  0  0
    3.8698    1.8416   19.1779 H   0  0  0  0  0  0  0  0  0  0  0  0
    4.9642    0.6827   21.1227 H   0  0  0  0  0  0  0  0  0  0  0  0
    8.3379   -1.1388   20.5743 H   0  0  0  0  0  0  0  0  0  0  0  0
    7.5895    2.0211   22.6075 H   0  0  0  0  0  0  0  0  0  0  0  0
    8.6751    1.4712   21.3065 H   0  0  0  0  0  0  0  0  0  0  0  0
    9.1090    1.1842   23.0031 H   0  0  0  0  0  0  0  0  0  0  0  0
  1  2  1  0
  2  3  1  0
  3  4  2  0
  3  5  1  0
  5  6  1  0
  6  7  2  0
  7  8  1  0
  8  9  2  0
  9 10  1  0
 10 11  1  0
 10 12  2  0
 12 13  1  0
 13 14  2  0
 14 15  1  0
 15 16  2  0
 16 17  1  0
 14 18  1  0
 13 19  1  0
 12 20  1  0
  7 21  1  0
  5 22  1  0
 22 23  2  0
 22 24  1  0
 24 25  1  0
 25 26  2  0
 26 27  1  0
 27 28  2  0
 28 29  1  0
 29 30  2  0
 30 31  1  0
 28 32  1  0
 27 33  1  0
 26 34  1  0
 24 35  1  0
  1 36  1  0
  1 37  1  0
  1 38  1  0
 24  2  1  0
 30 25  1  0
 16  6  1  0
 15  9  1  0
M  END
>  <cnnaffinity>  (1) 
5.45784

>  <plip>  (1) 
-0.07142857142857142

>  <filename>  (1) 
[H][c]1[n][c]([H])[c]([C]2([H])[C](=[O])[N]([c]3[c]([H])[n][c]4[c]([F])[c]([H])[c]([H])[c]([H])[c]4[c]3[H])[C](=[O])[N]2[C]([H])([H])[H])[c]([H])[c]1[H]

>  <combo1>  (1) 
-0.38637682316731814

$$$$
