
     RDKit          3D

 33 34  0  0  0  0  0  0  0  0999 V2000
    4.9357    1.8096   16.9675 H   0  0  0  0  0  0  0  0  0  0  0  0
    5.4101    1.2989   17.8058 C   0  0  0  0  0  0  0  0  0  0  0  0
    6.5617    0.6626   17.5421 N   0  0  0  0  0  0  0  0  0  0  0  0
    7.1591    0.0390   18.5645 C   0  0  0  0  0  0  0  0  0  0  0  0
    8.0941   -0.4615   18.3216 H   0  0  0  0  0  0  0  0  0  0  0  0
    6.6649   -0.0059   19.8866 C   0  0  0  0  0  0  0  0  0  0  0  0
    7.4080   -0.7413   21.0009 C   0  0  1  0  0  0  0  0  0  0  0  0
    8.3681   -1.0831   20.5972 H   0  0  0  0  0  0  0  0  0  0  0  0
    7.8133    0.1366   22.1987 C   0  0  0  0  0  0  0  0  0  0  0  0
    8.6005    1.0399   22.1624 O   0  0  0  0  0  0  0  0  0  0  0  0
    7.1928   -0.3811   23.3516 N   0  0  0  0  0  0  0  0  0  0  0  0
    7.3948    0.1765   24.6413 N   0  0  0  0  0  0  0  0  0  0  0  0
    7.1725   -0.4481   25.4093 H   0  0  0  0  0  0  0  0  0  0  0  0
    7.0496    1.5053   24.9665 C   0  0  0  0  0  0  0  0  0  0  0  0
    6.6519    2.3485   24.2029 O   0  0  0  0  0  0  0  0  0  0  0  0
    7.2638    1.6925   26.3223 N   0  0  0  0  0  0  0  0  0  0  0  0
    7.9784    1.0370   26.5994 H   0  0  0  0  0  0  0  0  0  0  0  0
    7.5057    3.0533   26.8155 C   0  0  0  0  0  0  0  0  0  0  0  0
    7.6108    2.9801   27.9039 H   0  0  0  0  0  0  0  0  0  0  0  0
    6.6223    3.6696   26.6091 H   0  0  0  0  0  0  0  0  0  0  0  0
    8.7243    3.6988   26.1702 C   0  0  0  0  0  0  0  0  0  0  0  0
    8.9599    4.6501   26.6494 H   0  0  0  0  0  0  0  0  0  0  0  0
    8.5054    3.8809   25.1149 H   0  0  0  0  0  0  0  0  0  0  0  0
    9.5991    3.0447   26.2200 H   0  0  0  0  0  0  0  0  0  0  0  0
    6.6678   -1.6492   23.1216 C   0  0  0  0  0  0  0  0  0  0  0  0
    6.2985   -2.4157   23.9815 O   0  0  0  0  0  0  0  0  0  0  0  0
    6.6484   -1.9063   21.6402 C   0  0  0  0  0  0  0  0  0  0  0  0
    7.1158   -2.8739   21.4513 H   0  0  0  0  0  0  0  0  0  0  0  0
    5.5994   -1.9875   21.3398 H   0  0  0  0  0  0  0  0  0  0  0  0
    5.4578    0.6636   20.1326 C   0  0  0  0  0  0  0  0  0  0  0  0
    5.0197    0.6861   21.1353 H   0  0  0  0  0  0  0  0  0  0  0  0
    4.8187    1.3183   19.0738 C   0  0  0  0  0  0  0  0  0  0  0  0
    3.8839    1.8516   19.2152 H   0  0  0  0  0  0  0  0  0  0  0  0
  1  2  1  0
  2  3  2  0
  3  4  1  0
  4  5  1  0
  4  6  2  0
  6  7  1  0
  7  8  1  6
  7  9  1  0
  9 10  2  0
  9 11  1  0
 11 12  1  0
 12 13  1  0
 12 14  1  0
 14 15  2  0
 14 16  1  0
 16 17  1  0
 16 18  1  0
 18 19  1  0
 18 20  1  0
 18 21  1  0
 21 22  1  0
 21 23  1  0
 21 24  1  0
 11 25  1  0
 25 26  2  0
 25 27  1  0
 27 28  1  0
 27 29  1  0
  6 30  1  0
 30 31  1  0
 30 32  2  0
 32 33  1  0
 32  2  1  0
 27  7  1  0
M  END
>  <cnnaffinity>  (1) 
4.4776

>  <plip>  (1) 
-0.14285714285714285

>  <filename>  (1) 
[H][c]1[n][c]([H])[c]([C@@]2([H])[C](=[O])[N]([N]([H])[C](=[O])[N]([H])[C]([H])([H])[C]([H])([H])[H])[C](=[O])[C]2([H])[H])[c]([H])[c]1[H]

>  <combo1>  (1) 
-0.8129784595931946

$$$$
