
     RDKit          3D

 26 28  0  0  0  0  0  0  0  0999 V2000
   11.4090    3.1044   21.1402 H   0  0  0  0  0  0  0  0  0  0  0  0
   10.5383    2.4953   21.3726 C   0  0  0  0  0  0  0  0  0  0  0  0
    9.4617    2.9374   22.0803 N   0  0  0  0  0  0  0  0  0  0  0  0
    8.6663    1.8964   22.1115 C   0  0  0  0  0  0  0  0  0  0  0  0
    7.7039    1.8743   22.6126 H   0  0  0  0  0  0  0  0  0  0  0  0
    9.2444    0.8549   21.4508 N   0  0  0  0  0  0  0  0  0  0  0  0
    8.8392   -0.5284   21.2208 C   0  0  1  0  0  0  0  0  0  0  0  0
    9.4842   -0.8989   20.4203 H   0  0  0  0  0  0  0  0  0  0  0  0
    9.0491   -1.4477   22.4391 C   0  0  0  0  0  0  0  0  0  0  0  0
   10.0726   -1.7886   22.9649 O   0  0  0  0  0  0  0  0  0  0  0  0
    7.8115   -1.8969   22.7808 N   0  0  0  0  0  0  0  0  0  0  0  0
    7.6709   -2.6380   23.4441 H   0  0  0  0  0  0  0  0  0  0  0  0
    6.8722   -1.6688   21.8029 C   0  0  0  0  0  0  0  0  0  0  0  0
    5.8265   -2.2583   21.7328 O   0  0  0  0  0  0  0  0  0  0  0  0
    7.4177   -0.7148   20.9366 N   0  0  0  0  0  0  0  0  0  0  0  0
    6.7182   -0.0758   19.8690 C   0  0  0  0  0  0  0  0  0  0  0  0
    7.2496    0.0543   18.5614 C   0  0  0  0  0  0  0  0  0  0  0  0
    8.2124   -0.3916   18.3221 H   0  0  0  0  0  0  0  0  0  0  0  0
    6.6350    0.7064   17.5666 N   0  0  0  0  0  0  0  0  0  0  0  0
    5.4603    1.2937   17.8441 C   0  0  0  0  0  0  0  0  0  0  0  0
    4.9772    1.8185   17.0239 H   0  0  0  0  0  0  0  0  0  0  0  0
    4.8472    1.2342   19.1026 C   0  0  0  0  0  0  0  0  0  0  0  0
    3.9126    1.7646   19.2727 H   0  0  0  0  0  0  0  0  0  0  0  0
    5.4763    0.5252   20.1303 C   0  0  0  0  0  0  0  0  0  0  0  0
    5.0340    0.4544   21.1269 H   0  0  0  0  0  0  0  0  0  0  0  0
   10.4510    1.2401   20.9851 N   0  0  0  0  0  0  0  0  0  0  0  0
  1  2  1  0
  2  3  1  0
  3  4  2  0
  4  5  1  0
  4  6  1  0
  6  7  1  0
  7  8  1  6
  7  9  1  0
  9 10  2  0
  9 11  1  0
 11 12  1  0
 11 13  1  0
 13 14  2  0
 13 15  1  0
 15 16  1  0
 16 17  2  0
 17 18  1  0
 17 19  1  0
 19 20  2  0
 20 21  1  0
 20 22  1  0
 22 23  1  0
 22 24  2  0
 24 25  1  0
  6 26  1  0
 26  2  2  0
 15  7  1  0
 24 16  1  0
M  END
>  <cnnaffinity>  (1) 
4.66939

>  <plip>  (1) 
-0.06896551724137931

>  <filename>  (1) 
[H][c]1[n][c]([H])[n]([C@@]2([H])[C](=[O])[N]([H])[C](=[O])[N]2[c]2[c]([H])[n][c]([H])[c]([H])[c]2[H])[n]1

>  <combo1>  (1) 
-0.43954195439481236

$$$$
