
     RDKit          3D

 43 45  0  0  0  0  0  0  0  0999 V2000
    9.0280   -3.3689   22.2763 C   0  0  0  0  0  0  0  0  0  0  0  0
    8.3339   -2.1239   22.0772 N   0  0  0  0  0  0  0  0  0  0  0  0
    8.0997   -1.1669   22.9964 C   0  0  0  0  0  0  0  0  0  0  0  0
    7.4022   -0.1587   22.3517 C   0  0  0  0  0  0  0  0  0  0  0  0
    6.9380    1.1483   22.8845 C   0  0  0  0  0  0  0  0  0  0  0  0
    8.0375    1.5717   23.8228 N   0  0  0  0  0  4  0  0  0  0  0  0
    7.8773    2.7953   24.6414 C   0  0  0  0  0  0  0  0  0  0  0  0
    7.0603    2.6398   25.9374 C   0  0  2  0  0  0  0  0  0  0  0  0
    5.6171    2.1908   25.7549 C   0  0  0  0  0  0  0  0  0  0  0  0
    4.8648    2.6697   26.9868 C   0  0  2  0  0  0  0  0  0  0  0  0
    3.5431    2.9837   26.6618 F   0  0  0  0  0  0  0  0  0  0  0  0
    5.6357    3.9198   27.4529 C   0  0  0  0  0  0  0  0  0  0  0  0
    6.8503    4.0012   26.5705 N   0  0  0  0  0  4  0  0  0  0  0  0
    6.5930    4.6369   25.7565 H   0  0  0  0  0  0  0  0  0  0  0  0
    7.6887    4.3925   27.0401 H   0  0  0  0  0  0  0  0  0  0  0  0
    5.9037    3.8471   28.5083 H   0  0  0  0  0  0  0  0  0  0  0  0
    4.9803    4.7845   27.3287 H   0  0  0  0  0  0  0  0  0  0  0  0
    4.8077    1.9145   27.7793 H   0  0  0  0  0  0  0  0  0  0  0  0
    5.1915    2.7147   24.8881 H   0  0  0  0  0  0  0  0  0  0  0  0
    5.5075    1.1171   25.5841 H   0  0  0  0  0  0  0  0  0  0  0  0
    7.6025    1.9730   26.6190 H   0  0  0  0  0  0  0  0  0  0  0  0
    8.8628    3.1901   24.9074 H   0  0  0  0  0  0  0  0  0  0  0  0
    7.3606    3.5768   24.0690 H   0  0  0  0  0  0  0  0  0  0  0  0
    8.1901    0.7200   24.4068 H   0  0  0  0  0  0  0  0  0  0  0  0
    8.8728    1.6207   23.1975 H   0  0  0  0  0  0  0  0  0  0  0  0
    5.9885    1.0663   23.4256 H   0  0  0  0  0  0  0  0  0  0  0  0
    6.7907    1.8976   22.1010 H   0  0  0  0  0  0  0  0  0  0  0  0
    7.2510   -0.6392   21.0193 C   0  0  0  0  0  0  0  0  0  0  0  0
    6.5530    0.0212   19.9177 C   0  0  0  0  0  0  0  0  0  0  0  0
    5.3221    0.6819   20.0684 C   0  0  0  0  0  0  0  0  0  0  0  0
    4.7789    1.3450   18.9715 C   0  0  0  0  0  0  0  0  0  0  0  0
    5.4820    1.3274   17.7633 C   0  0  0  0  0  0  0  0  0  0  0  0
    6.6442    0.6775   17.5966 N   0  0  0  0  0  0  0  0  0  0  0  0
    7.1509    0.0289   18.6465 C   0  0  0  0  0  0  0  0  0  0  0  0
    8.0876   -0.5022   18.4829 H   0  0  0  0  0  0  0  0  0  0  0  0
    5.0787    1.8296   16.8852 H   0  0  0  0  0  0  0  0  0  0  0  0
    3.8353    1.8723   19.0390 H   0  0  0  0  0  0  0  0  0  0  0  0
    4.8039    0.6715   21.0311 H   0  0  0  0  0  0  0  0  0  0  0  0
    7.8753   -1.8035   20.8639 N   0  0  0  0  0  0  0  0  0  0  0  0
    8.4516   -1.3415   24.0123 H   0  0  0  0  0  0  0  0  0  0  0  0
    8.6940   -4.0514   21.4979 H   0  0  0  0  0  0  0  0  0  0  0  0
   10.1105   -3.2322   22.2147 H   0  0  0  0  0  0  0  0  0  0  0  0
    8.7810   -3.7830   23.2558 H   0  0  0  0  0  0  0  0  0  0  0  0
  1  2  1  0
  2  3  1  0
  3  4  2  0
  4  5  1  0
  5  6  1  0
  6  7  1  0
  7  8  1  0
  8  9  1  0
  9 10  1  0
 10 11  1  0
 10 12  1  0
 12 13  1  0
 13 14  1  0
 13 15  1  0
 12 16  1  0
 12 17  1  0
 10 18  1  1
  9 19  1  0
  9 20  1  0
  8 21  1  1
  7 22  1  0
  7 23  1  0
  6 24  1  0
  6 25  1  0
  5 26  1  0
  5 27  1  0
  4 28  1  0
 28 29  1  0
 29 30  2  0
 30 31  1  0
 31 32  2  0
 32 33  1  0
 33 34  2  0
 34 35  1  0
 32 36  1  0
 31 37  1  0
 30 38  1  0
 28 39  2  0
  3 40  1  0
  1 41  1  0
  1 42  1  0
  1 43  1  0
 39  2  1  0
 13  8  1  0
 34 29  1  0
M  CHG  2   6   1  13   1
M  END
>  <cnnaffinity>  (1) 
4.56475

>  <plip>  (1) 
-0.03571428571428571

>  <filename>  (1) 
[H][c]1[n][c]([H])[c](-[c]2[n][n]([C]([H])([H])[H])[c]([H])[c]2[C]([H])([H])[N+]([H])([H])[C]([H])([H])[C@]2([H])[C]([H])([H])[C@]([H])([F])[C]([H])([H])[N+]2([H])[H])[c]([H])[c]1[H]

>  <combo1>  (1) 
-0.1865034694405194

$$$$
