
     RDKit          3D

 40 43  0  0  0  0  0  0  0  0999 V2000
    5.3617   -3.4008   22.7277 O   0  0  0  0  0  0  0  0  0  0  0  0
    6.0439   -2.8642   23.5794 C   0  0  0  0  0  0  0  0  0  0  0  0
    5.6290   -2.5123   24.9553 C   0  0  0  0  0  0  0  0  0  0  0  0
    4.3455   -2.6515   25.4983 C   0  0  0  0  0  0  0  0  0  0  0  0
    4.1434   -2.3097   26.8308 C   0  0  0  0  0  0  0  0  0  0  0  0
    5.2108   -1.8275   27.6068 C   0  0  0  0  0  0  0  0  0  0  0  0
    6.4915   -1.6732   27.0710 C   0  0  0  0  0  0  0  0  0  0  0  0
    6.6774   -2.0314   25.7306 C   0  0  0  0  0  0  0  0  0  0  0  0
    8.1471   -1.9611   24.7458 S   0  0  0  0  0  0  0  0  0  0  0  0
    9.1047   -2.9827   25.1316 O   0  0  0  0  0  0  0  0  0  0  0  0
    8.5721   -0.5866   24.5724 O   0  0  0  0  0  0  0  0  0  0  0  0
    7.3552   -2.5168   23.3774 N   0  0  0  0  0  0  0  0  0  0  0  0
    8.1498   -3.0294   22.2631 C   0  0  0  0  0  0  0  0  0  0  0  0
    9.1245   -1.9857   21.7796 C   0  0  0  0  0  0  0  0  0  0  0  0
   10.4997   -2.1307   21.9945 C   0  0  0  0  0  0  0  0  0  0  0  0
   11.3994   -1.0957   21.7140 C   0  0  0  0  0  0  0  0  0  0  0  0
   10.9052    0.1123   21.2154 C   0  0  0  0  0  0  0  0  0  0  0  0
    9.5484    0.2470   20.9015 C   0  0  0  0  0  0  0  0  0  0  0  0
    8.6670   -0.8051   21.1636 C   0  0  0  0  0  0  0  0  0  0  0  0
    7.3122   -0.7288   20.9127 O   0  0  0  0  0  0  0  0  0  0  0  0
    6.7479   -0.0214   19.8813 C   0  0  0  0  0  0  0  0  0  0  0  0
    5.5331    0.6117   20.1624 C   0  0  0  0  0  0  0  0  0  0  0  0
    4.8761    1.2743   19.1244 C   0  0  0  0  0  0  0  0  0  0  0  0
    5.4456    1.2763   17.8459 C   0  0  0  0  0  0  0  0  0  0  0  0
    6.6005    0.6520   17.5667 N   0  0  0  0  0  0  0  0  0  0  0  0
    7.2399    0.0192   18.5628 C   0  0  0  0  0  0  0  0  0  0  0  0
    8.1779   -0.4742   18.3036 H   0  0  0  0  0  0  0  0  0  0  0  0
    4.9564    1.7914   17.0204 H   0  0  0  0  0  0  0  0  0  0  0  0
    3.9378    1.7870   19.2946 H   0  0  0  0  0  0  0  0  0  0  0  0
    5.1426    0.5714   21.1786 H   0  0  0  0  0  0  0  0  0  0  0  0
    9.1729    1.1445   20.4244 H   0  0  0  0  0  0  0  0  0  0  0  0
   11.5602    0.9592   21.0236 H   0  0  0  0  0  0  0  0  0  0  0  0
   12.4627   -1.2629   21.8692 H   0  0  0  0  0  0  0  0  0  0  0  0
   10.8640   -3.0682   22.4158 H   0  0  0  0  0  0  0  0  0  0  0  0
    8.6845   -3.9414   22.5705 H   0  0  0  0  0  0  0  0  0  0  0  0
    7.4416   -3.3074   21.4735 H   0  0  0  0  0  0  0  0  0  0  0  0
    7.2911   -1.2808   27.6944 H   0  0  0  0  0  0  0  0  0  0  0  0
    5.0398   -1.5721   28.6466 H   0  0  0  0  0  0  0  0  0  0  0  0
    3.1572   -2.4239   27.2722 H   0  0  0  0  0  0  0  0  0  0  0  0
    3.5449   -3.0198   24.8650 H   0  0  0  0  0  0  0  0  0  0  0  0
  1  2  2  0
  2  3  1  0
  3  4  2  0
  4  5  1  0
  5  6  2  0
  6  7  1  0
  7  8  2  0
  8  9  1  0
  9 10  2  0
  9 11  2  0
  9 12  1  0
 12 13  1  0
 13 14  1  0
 14 15  2  0
 15 16  1  0
 16 17  2  0
 17 18  1  0
 18 19  2  0
 19 20  1  0
 20 21  1  0
 21 22  2  0
 22 23  1  0
 23 24  2  0
 24 25  1  0
 25 26  2  0
 26 27  1  0
 24 28  1  0
 23 29  1  0
 22 30  1  0
 18 31  1  0
 17 32  1  0
 16 33  1  0
 15 34  1  0
 13 35  1  0
 13 36  1  0
  7 37  1  0
  6 38  1  0
  5 39  1  0
  4 40  1  0
 12  2  1  0
 19 14  1  0
 26 21  1  0
  8  3  1  0
M  END
>  <cnnaffinity>  (1) 
5.72438

>  <plip>  (1) 
-0.10714285714285714

>  <filename>  (1) 
[H][c]1[n][c]([H])[c]([O][c]2[c]([H])[c]([H])[c]([H])[c]([H])[c]2[C]([H])([H])[N]2[C](=[O])[c]3[c]([H])[c]([H])[c]([H])[c]([H])[c]3[S]2(=[O])=[O])[c]([H])[c]1[H]

>  <combo1>  (1) 
-0.5579783264568664

$$$$
