
     RDKit          3D

 38 40  0  0  0  0  0  0  0  0999 V2000
    5.1087    1.8296   17.1320 H   0  0  0  0  0  0  0  0  0  0  0  0
    5.5851    1.2213   17.8975 C   0  0  0  0  0  0  0  0  0  0  0  0
    6.7448    0.6361   17.5585 N   0  0  0  0  0  0  0  0  0  0  0  0
    7.3780   -0.0749   18.5054 C   0  0  0  0  0  0  0  0  0  0  0  0
    8.3185   -0.5318   18.2028 H   0  0  0  0  0  0  0  0  0  0  0  0
    6.9121   -0.2589   19.8386 C   0  0  0  0  0  0  0  0  0  0  0  0
    7.6316   -0.9850   20.7959 N   0  0  0  0  0  0  0  0  0  0  0  0
    9.0765   -1.1520   20.6689 C   0  0  0  0  0  0  0  0  0  0  0  0
    9.5611   -0.1930   20.4254 H   0  0  0  0  0  0  0  0  0  0  0  0
    9.2902   -1.8537   19.8597 H   0  0  0  0  0  0  0  0  0  0  0  0
    9.5458   -1.7049   22.0213 C   0  0  0  0  0  0  0  0  0  0  0  0
   10.4876   -1.2376   22.3210 H   0  0  0  0  0  0  0  0  0  0  0  0
    9.7109   -2.7824   21.9546 H   0  0  0  0  0  0  0  0  0  0  0  0
    8.3993   -1.4235   22.9984 C   0  0  0  0  0  0  0  0  0  0  0  0
    8.6053   -0.5690   23.6427 H   0  0  0  0  0  0  0  0  0  0  0  0
    8.1871   -2.2753   23.6490 H   0  0  0  0  0  0  0  0  0  0  0  0
    7.1756   -1.0715   22.1481 C   0  0  2  0  0  0  0  0  0  0  0  0
    6.7904   -0.0982   22.4867 H   0  0  0  0  0  0  0  0  0  0  0  0
    6.0999   -2.0077   22.3252 N   0  0  0  0  0  0  0  0  0  0  0  0
    5.1835   -1.6170   22.1536 H   0  0  0  0  0  0  0  0  0  0  0  0
    5.8409   -3.3451   21.4022 S   0  0  0  0  0  0  0  0  0  0  0  0
    6.2582   -3.2510   20.0264 O   0  0  0  0  0  0  0  0  0  0  0  0
    4.4315   -3.5274   21.7076 O   0  0  0  0  0  0  0  0  0  0  0  0
    6.7748   -4.5670   22.2568 C   0  0  0  0  0  0  0  0  0  0  0  0
    7.7743   -5.3116   21.6160 C   0  0  0  0  0  0  0  0  0  0  0  0
    7.8963   -5.3025   20.5347 H   0  0  0  0  0  0  0  0  0  0  0  0
    8.6286   -6.0879   22.3949 C   0  0  0  0  0  0  0  0  0  0  0  0
    9.4528   -6.6215   21.9321 H   0  0  0  0  0  0  0  0  0  0  0  0
    8.4673   -6.1601   23.7803 C   0  0  0  0  0  0  0  0  0  0  0  0
    9.1887   -6.7074   24.3783 H   0  0  0  0  0  0  0  0  0  0  0  0
    7.3806   -5.5147   24.3841 C   0  0  0  0  0  0  0  0  0  0  0  0
    7.2266   -5.6042   25.4539 H   0  0  0  0  0  0  0  0  0  0  0  0
    6.5117   -4.7381   23.6258 C   0  0  0  0  0  0  0  0  0  0  0  0
    5.6466   -4.2720   24.1039 H   0  0  0  0  0  0  0  0  0  0  0  0
    5.6649    0.3287   20.1398 C   0  0  0  0  0  0  0  0  0  0  0  0
    5.2226    0.2119   21.1259 H   0  0  0  0  0  0  0  0  0  0  0  0
    5.0107    1.0902   19.1655 C   0  0  0  0  0  0  0  0  0  0  0  0
    4.0871    1.6113   19.3974 H   0  0  0  0  0  0  0  0  0  0  0  0
  1  2  1  0
  2  3  2  0
  3  4  1  0
  4  5  1  0
  4  6  2  0
  6  7  1  0
  7  8  1  0
  8  9  1  0
  8 10  1  0
  8 11  1  0
 11 12  1  0
 11 13  1  0
 11 14  1  0
 14 15  1  0
 14 16  1  0
 14 17  1  0
 17 18  1  1
 17 19  1  0
 19 20  1  0
 19 21  1  0
 21 22  2  0
 21 23  2  0
 21 24  1  0
 24 25  2  0
 25 26  1  0
 25 27  1  0
 27 28  1  0
 27 29  2  0
 29 30  1  0
 29 31  1  0
 31 32  1  0
 31 33  2  0
 33 34  1  0
  6 35  1  0
 35 36  1  0
 35 37  2  0
 37 38  1  0
 37  2  1  0
 17  7  1  0
 33 24  1  0
M  END
>  <cnnaffinity>  (1) 
4.92136

>  <plip>  (1) 
-0.1724137931034483

>  <filename>  (1) 
[H][c]1[n][c]([H])[c]([N]2[C]([H])([H])[C]([H])([H])[C]([H])([H])[C@]2([H])[N]([H])[S](=[O])(=[O])[c]2[c]([H])[c]([H])[c]([H])[c]([H])[c]2[H])[c]([H])[c]1[H]

>  <combo1>  (1) 
-0.9322640113425935

$$$$
