
     RDKit          3D

 24 24  0  0  0  0  0  0  0  0999 V2000
    4.9821    1.7583   17.0333 H   0  0  0  0  0  0  0  0  0  0  0  0
    5.4359    1.2587   17.8832 C   0  0  0  0  0  0  0  0  0  0  0  0
    6.6017    0.6302   17.6447 N   0  0  0  0  0  0  0  0  0  0  0  0
    7.1902    0.0195   18.6789 C   0  0  0  0  0  0  0  0  0  0  0  0
    8.1405   -0.4678   18.4723 H   0  0  0  0  0  0  0  0  0  0  0  0
    6.6623   -0.0215   19.9847 C   0  0  0  0  0  0  0  0  0  0  0  0
    7.4299   -0.7323   20.9560 N   0  0  0  0  0  0  0  0  0  0  0  0
    6.9241   -0.7488   22.1042 N   0  0  0  0  0  0  0  0  0  0  0  0
    7.6560   -1.4242   22.9824 N   0  0  0  0  0  0  0  0  0  0  0  0
    8.5236   -1.8052   22.6203 H   0  0  0  0  0  0  0  0  0  0  0  0
    7.1916   -1.5142   24.3547 C   0  0  0  0  0  0  0  0  0  0  0  0
    7.0578   -0.4992   24.7642 H   0  0  0  0  0  0  0  0  0  0  0  0
    6.1898   -1.9739   24.3661 H   0  0  0  0  0  0  0  0  0  0  0  0
    8.1378   -2.3135   25.2602 C   0  0  0  0  0  0  0  0  0  0  0  0
    9.1311   -1.8438   25.2402 H   0  0  0  0  0  0  0  0  0  0  0  0
    8.2661   -3.3205   24.8397 H   0  0  0  0  0  0  0  0  0  0  0  0
    7.6402   -2.4165   26.7152 C   0  0  0  0  0  0  0  0  0  0  0  0
    8.3317   -2.9941   27.3424 H   0  0  0  0  0  0  0  0  0  0  0  0
    6.6603   -2.9099   26.7753 H   0  0  0  0  0  0  0  0  0  0  0  0
    7.5321   -1.4264   27.1795 H   0  0  0  0  0  0  0  0  0  0  0  0
    5.4397    0.6359   20.2135 C   0  0  0  0  0  0  0  0  0  0  0  0
    5.0051    0.6297   21.2125 H   0  0  0  0  0  0  0  0  0  0  0  0
    4.8234    1.2852   19.1421 C   0  0  0  0  0  0  0  0  0  0  0  0
    3.8896    1.8218   19.2743 H   0  0  0  0  0  0  0  0  0  0  0  0
  1  2  1  0
  2  3  2  0
  3  4  1  0
  4  5  1  0
  4  6  2  0
  6  7  1  0
  7  8  2  3
  8  9  1  0
  9 10  1  0
  9 11  1  0
 11 12  1  0
 11 13  1  0
 11 14  1  0
 14 15  1  0
 14 16  1  0
 14 17  1  0
 17 18  1  0
 17 19  1  0
 17 20  1  0
  6 21  1  0
 21 22  1  0
 21 23  2  0
 23 24  1  0
 23  2  1  0
M  END
>  <cnnaffinity>  (1) 
3.85832

>  <plip>  (1) 
-0.03571428571428571

>  <filename>  (1) 
[H][c]1[n][c]([H])[c]([N]=[N][N]([H])[C]([H])([H])[C]([H])([H])[C]([H])([H])[H])[c]([H])[c]1[H]

>  <combo1>  (1) 
-0.27971391221336406

$$$$
