
     RDKit          3D

 36 38  0  0  0  0  0  0  0  0999 V2000
    7.3791   -2.7472   25.7903 C   0  0  0  0  0  0  0  0  0  0  0  0
    5.9975   -3.1322   25.3182 C   0  0  0  0  0  0  0  0  0  0  0  0
    5.0796   -3.6390   26.2412 C   0  0  0  0  0  0  0  0  0  0  0  0
    3.8248   -4.0953   25.8295 C   0  0  0  0  0  0  0  0  0  0  0  0
    3.4915   -4.0828   24.4708 C   0  0  0  0  0  0  0  0  0  0  0  0
    1.8097   -4.7661   23.8802 Br  0  0  0  0  0  0  0  0  0  0  0  0
    4.3873   -3.5358   23.5488 C   0  0  0  0  0  0  0  0  0  0  0  0
    5.6123   -3.0137   23.9659 C   0  0  0  0  0  0  0  0  0  0  0  0
    6.3970   -2.3007   23.0533 N   0  0  0  0  0  0  0  0  0  0  0  0
    6.2669   -2.2865   21.6850 C   0  0  0  0  0  0  0  0  0  0  0  0
    5.5774   -3.0846   21.0601 O   0  0  0  0  0  0  0  0  0  0  0  0
    7.1221   -1.1690   21.0588 C   0  0  0  0  0  0  0  0  0  0  0  0
    6.4795   -0.3091   19.9856 C   0  0  0  0  0  0  0  0  0  0  0  0
    5.2953    0.4032   20.1986 C   0  0  0  0  0  0  0  0  0  0  0  0
    4.8380    1.2171   19.1593 C   0  0  0  0  0  0  0  0  0  0  0  0
    5.5437    1.2816   17.9519 C   0  0  0  0  0  0  0  0  0  0  0  0
    6.6724    0.5849   17.7379 N   0  0  0  0  0  0  0  0  0  0  0  0
    7.1274   -0.1803   18.7439 C   0  0  0  0  0  0  0  0  0  0  0  0
    8.0481   -0.7360   18.5929 H   0  0  0  0  0  0  0  0  0  0  0  0
    5.1715    1.9213   17.1578 H   0  0  0  0  0  0  0  0  0  0  0  0
    3.9509    1.8286   19.2783 H   0  0  0  0  0  0  0  0  0  0  0  0
    4.7659    0.3507   21.1499 H   0  0  0  0  0  0  0  0  0  0  0  0
    7.4346   -0.4140   22.2636 N   0  0  0  0  0  0  0  0  0  0  0  0
    8.0515    0.9066   22.3531 C   0  0  0  0  0  0  0  0  0  0  0  0
    7.3072    1.6513   22.6583 H   0  0  0  0  0  0  0  0  0  0  0  0
    8.8522    0.8945   23.1024 H   0  0  0  0  0  0  0  0  0  0  0  0
    8.4850    1.2148   21.3955 H   0  0  0  0  0  0  0  0  0  0  0  0
    6.9776   -1.1043   23.3714 C   0  0  0  0  0  0  0  0  0  0  0  0
    7.0286   -0.6305   24.4943 O   0  0  0  0  0  0  0  0  0  0  0  0
    8.0297   -1.6303   20.6575 H   0  0  0  0  0  0  0  0  0  0  0  0
    4.1288   -3.4641   22.4967 H   0  0  0  0  0  0  0  0  0  0  0  0
    3.1288   -4.4890   26.5636 H   0  0  0  0  0  0  0  0  0  0  0  0
    5.3330   -3.6716   27.2934 H   0  0  0  0  0  0  0  0  0  0  0  0
    8.0576   -2.7311   24.9315 H   0  0  0  0  0  0  0  0  0  0  0  0
    7.7588   -3.4787   26.5147 H   0  0  0  0  0  0  0  0  0  0  0  0
    7.3685   -1.7582   26.2619 H   0  0  0  0  0  0  0  0  0  0  0  0
  1  2  1  0
  2  3  2  0
  3  4  1  0
  4  5  2  0
  5  6  1  0
  5  7  1  0
  7  8  2  0
  8  9  1  0
  9 10  1  0
 10 11  2  0
 10 12  1  0
 12 13  1  0
 13 14  2  0
 14 15  1  0
 15 16  2  0
 16 17  1  0
 17 18  2  0
 18 19  1  0
 16 20  1  0
 15 21  1  0
 14 22  1  0
 12 23  1  0
 23 24  1  0
 24 25  1  0
 24 26  1  0
 24 27  1  0
 23 28  1  0
 28 29  2  0
 12 30  1  0
  7 31  1  0
  4 32  1  0
  3 33  1  0
  1 34  1  0
  1 35  1  0
  1 36  1  0
  8  2  1  0
 28  9  1  0
 18 13  1  0
M  END
>  <cnnaffinity>  (1) 
5.17332

>  <plip>  (1) 
-0.034482758620689655

>  <filename>  (1) 
[H][c]1[n][c]([H])[c]([C]2([H])[C](=[O])[N]([c]3[c]([H])[c]([Br])[c]([H])[c]([H])[c]3[C]([H])([H])[H])[C](=[O])[N]2[C]([H])([H])[H])[c]([H])[c]1[H]

>  <combo1>  (1) 
-0.1650794902872541

$$$$
