
     RDKit          3D

 33 35  0  0  0  0  0  0  0  0999 V2000
    6.7215   -2.0129   21.3374 C   0  0  0  0  0  0  0  0  0  0  0  0
    7.4221   -0.7151   20.9623 C   0  0  2  0  0  0  0  0  0  0  0  0
    7.5938    0.0388   22.1894 N   0  0  0  0  0  0  0  0  0  0  0  0
    8.3575    1.1548   22.3066 C   0  0  0  0  0  0  0  0  0  0  0  0
    9.1877    1.3792   21.2945 N   0  0  0  0  0  0  0  0  0  0  0  0
   10.0198    2.4453   21.3698 C   0  0  0  0  0  0  0  0  0  0  0  0
   10.0477    3.3330   22.4111 C   0  0  0  0  0  0  0  0  0  0  0  0
    9.1671    3.1473   23.5155 C   0  0  0  0  0  0  0  0  0  0  0  0
    9.1566    4.0187   24.6374 C   0  0  0  0  0  0  0  0  0  0  0  0
    8.3601    3.7035   25.7108 C   0  0  0  0  0  0  0  0  0  0  0  0
    7.5437    2.5450   25.6521 C   0  0  0  0  0  0  0  0  0  0  0  0
    7.4825    1.7374   24.6068 N   0  0  0  0  0  0  0  0  0  0  0  0
    8.2920    2.0194   23.5314 C   0  0  0  0  0  0  0  0  0  0  0  0
    6.9294    2.2913   26.5157 H   0  0  0  0  0  0  0  0  0  0  0  0
    8.3614    4.3135   26.6028 H   0  0  0  0  0  0  0  0  0  0  0  0
    9.7895    4.9034   24.6240 H   0  0  0  0  0  0  0  0  0  0  0  0
   10.7388    4.1663   22.3821 H   0  0  0  0  0  0  0  0  0  0  0  0
   10.6936    2.5558   20.5241 H   0  0  0  0  0  0  0  0  0  0  0  0
    6.9264   -0.1121   22.9280 H   0  0  0  0  0  0  0  0  0  0  0  0
    6.6658    0.0563   19.8919 C   0  0  0  0  0  0  0  0  0  0  0  0
    5.4412    0.7043   20.1228 C   0  0  0  0  0  0  0  0  0  0  0  0
    4.8071    1.3361   19.0518 C   0  0  0  0  0  0  0  0  0  0  0  0
    5.4107    1.3037   17.7895 C   0  0  0  0  0  0  0  0  0  0  0  0
    6.5727    0.6813   17.5447 N   0  0  0  0  0  0  0  0  0  0  0  0
    7.1707    0.0857   18.5855 C   0  0  0  0  0  0  0  0  0  0  0  0
    8.1108   -0.4180   18.3562 H   0  0  0  0  0  0  0  0  0  0  0  0
    4.9426    1.7982   16.9403 H   0  0  0  0  0  0  0  0  0  0  0  0
    3.8622    1.8517   19.1778 H   0  0  0  0  0  0  0  0  0  0  0  0
    4.9844    0.7200   21.1169 H   0  0  0  0  0  0  0  0  0  0  0  0
    8.4298   -0.9260   20.5742 H   0  0  0  0  0  0  0  0  0  0  0  0
    7.2843   -2.5175   22.1290 H   0  0  0  0  0  0  0  0  0  0  0  0
    6.6388   -2.6877   20.4824 H   0  0  0  0  0  0  0  0  0  0  0  0
    5.7079   -1.7964   21.6991 H   0  0  0  0  0  0  0  0  0  0  0  0
  1  2  1  0
  2  3  1  0
  3  4  1  0
  4  5  2  0
  5  6  1  0
  6  7  2  0
  7  8  1  0
  8  9  2  0
  9 10  1  0
 10 11  2  0
 11 12  1  0
 12 13  2  0
 11 14  1  0
 10 15  1  0
  9 16  1  0
  7 17  1  0
  6 18  1  0
  3 19  1  0
  2 20  1  0
 20 21  2  0
 21 22  1  0
 22 23  2  0
 23 24  1  0
 24 25  2  0
 25 26  1  0
 23 27  1  0
 22 28  1  0
 21 29  1  0
  2 30  1  6
  1 31  1  0
  1 32  1  0
  1 33  1  0
 13  4  1  0
 25 20  1  0
 13  8  1  0
M  END
>  <cnnaffinity>  (1) 
4.98904

>  <plip>  (1) 
-0.14285714285714285

>  <filename>  (1) 
[H][c]1[n][c]([H])[c]([C@@]([H])([N]([H])[c]2[n][c]([H])[c]([H])[c]3[c]([H])[c]([H])[c]([H])[n][c]23)[C]([H])([H])[H])[c]([H])[c]1[H]

>  <combo1>  (1) 
-0.949135388159778

$$$$
