
     RDKit          3D

 48 51  0  0  0  0  0  0  0  0999 V2000
    4.9775    1.7621   16.9587 H   0  0  0  0  0  0  0  0  0  0  0  0
    5.4307    1.2836   17.8254 C   0  0  0  0  0  0  0  0  0  0  0  0
    6.6023    0.6690   17.6190 N   0  0  0  0  0  0  0  0  0  0  0  0
    7.1987    0.1017   18.6803 C   0  0  0  0  0  0  0  0  0  0  0  0
    8.1820   -0.3154   18.4749 H   0  0  0  0  0  0  0  0  0  0  0  0
    6.6589    0.0591   19.9790 C   0  0  0  0  0  0  0  0  0  0  0  0
    7.4337   -0.5776   21.1538 C   0  0  2  0  0  0  0  0  0  0  0  0
    8.1300    0.4924   21.8573 N   0  0  0  0  0  0  0  0  0  0  0  0
    7.7434    0.8589   22.7069 H   0  0  0  0  0  0  0  0  0  0  0  0
    9.1370    1.1653   21.2455 C   0  0  0  0  0  0  0  0  0  0  0  0
    9.5616    0.8207   20.1524 O   0  0  0  0  0  0  0  0  0  0  0  0
    9.7315    2.3331   22.0085 C   0  0  0  0  0  0  0  0  0  0  0  0
   10.4944    2.7091   21.3209 H   0  0  0  0  0  0  0  0  0  0  0  0
    8.7195    3.4732   22.2744 C   0  0  0  0  0  0  0  0  0  0  0  0
    7.8685    3.0938   22.8568 H   0  0  0  0  0  0  0  0  0  0  0  0
    8.3029    3.8335   21.3303 H   0  0  0  0  0  0  0  0  0  0  0  0
    9.3568    4.6415   23.0375 C   0  0  0  0  0  0  0  0  0  0  0  0
   10.1158    5.1254   22.4057 H   0  0  0  0  0  0  0  0  0  0  0  0
    8.5927    5.4030   23.2429 H   0  0  0  0  0  0  0  0  0  0  0  0
   10.0286    4.1655   24.3337 C   0  0  0  0  0  0  0  0  0  0  0  0
    9.2597    3.7701   25.0152 H   0  0  0  0  0  0  0  0  0  0  0  0
   10.4948    5.0136   24.8491 H   0  0  0  0  0  0  0  0  0  0  0  0
   11.0690    3.0722   24.0365 C   0  0  0  0  0  0  0  0  0  0  0  0
   11.5580    2.7119   24.9476 H   0  0  0  0  0  0  0  0  0  0  0  0
   11.8627    3.5021   23.4075 H   0  0  0  0  0  0  0  0  0  0  0  0
   10.4416    1.8817   23.3052 C   0  0  0  0  0  0  0  0  0  0  0  0
   11.2087    1.1302   23.0767 H   0  0  0  0  0  0  0  0  0  0  0  0
    9.7181    1.3929   23.9739 H   0  0  0  0  0  0  0  0  0  0  0  0
    8.4697   -1.6986   20.7811 C   0  0  0  0  0  0  0  0  0  0  0  0
    9.4739   -1.4075   21.1212 H   0  0  0  0  0  0  0  0  0  0  0  0
    8.5291   -1.7908   19.7113 H   0  0  0  0  0  0  0  0  0  0  0  0
    8.0212   -2.9492   21.5678 C   0  0  2  0  0  0  0  0  0  0  0  0
    8.8188   -3.6916   21.6554 H   0  0  0  0  0  0  0  0  0  0  0  0
    6.6859   -3.5169   21.0523 C   0  0  0  0  0  0  0  0  0  0  0  0
    6.6835   -3.7826   19.9927 H   0  0  0  0  0  0  0  0  0  0  0  0
    6.4345   -4.4279   21.6090 H   0  0  0  0  0  0  0  0  0  0  0  0
    5.6851   -2.3747   21.3765 C   0  0  0  0  0  0  0  0  0  0  0  0
    5.3490   -1.9133   20.4450 H   0  0  0  0  0  0  0  0  0  0  0  0
    4.8080   -2.7189   21.9319 H   0  0  0  0  0  0  0  0  0  0  0  0
    6.5542   -1.3663   22.1710 C   0  0  1  0  0  0  0  0  0  0  0  0
    6.0387   -0.6739   22.8401 H   0  0  0  0  0  0  0  0  0  0  0  0
    7.5507   -2.3030   22.8827 C   0  0  0  0  0  0  0  0  0  0  0  0
    7.0664   -3.0054   23.5799 H   0  0  0  0  0  0  0  0  0  0  0  0
    8.3582   -1.7790   23.4131 H   0  0  0  0  0  0  0  0  0  0  0  0
    5.4313    0.7184   20.1661 C   0  0  0  0  0  0  0  0  0  0  0  0
    4.9583    0.7482   21.1493 H   0  0  0  0  0  0  0  0  0  0  0  0
    4.8091    1.3330   19.0758 C   0  0  0  0  0  0  0  0  0  0  0  0
    3.8637    1.8522   19.1844 H   0  0  0  0  0  0  0  0  0  0  0  0
  1  2  1  0
  2  3  2  0
  3  4  1  0
  4  5  1  0
  4  6  2  0
  6  7  1  0
  7  8  1  1
  8  9  1  0
  8 10  1  0
 10 11  2  0
 10 12  1  0
 12 13  1  0
 12 14  1  0
 14 15  1  0
 14 16  1  0
 14 17  1  0
 17 18  1  0
 17 19  1  0
 17 20  1  0
 20 21  1  0
 20 22  1  0
 20 23  1  0
 23 24  1  0
 23 25  1  0
 23 26  1  0
 26 27  1  0
 26 28  1  0
  7 29  1  0
 29 30  1  0
 29 31  1  0
 29 32  1  0
 32 33  1  1
 32 34  1  0
 34 35  1  0
 34 36  1  0
 34 37  1  0
 37 38  1  0
 37 39  1  0
 37 40  1  0
 40 41  1  1
 40 42  1  0
 42 43  1  0
 42 44  1  0
  6 45  1  0
 45 46  1  0
 45 47  2  0
 47 48  1  0
 47  2  1  0
 40  7  1  0
 26 12  1  0
 42 32  1  0
M  END
>  <cnnaffinity>  (1) 
5.81974

>  <plip>  (1) 
-0.06896551724137931

>  <filename>  (1) 
[H][c]1[n][c]([H])[c]([C@]2([N]([H])[C](=[O])[C]3([H])[C]([H])([H])[C]([H])([H])[C]([H])([H])[C]([H])([H])[C]3([H])[H])[C]([H])([H])[C@]3([H])[C]([H])([H])[C]([H])([H])[C@@]2([H])[C]3([H])[H])[c]([H])[c]1[H]

>  <combo1>  (1) 
-0.44830320824575803

$$$$
