
     RDKit          3D

 41 42  0  0  0  0  0  0  0  0999 V2000
    9.6152   -2.3911   25.3611 O   0  0  0  0  0  0  0  0  0  0  0  0
    9.9264   -3.5676   25.4616 C   0  0  0  0  0  0  0  0  0  0  0  0
   10.0557   -4.4383   24.2534 C   0  0  0  0  0  0  0  0  0  0  0  0
    8.6575   -4.9565   23.8694 C   0  0  0  0  0  0  0  0  0  0  0  0
    7.5964   -3.9544   24.2811 N   0  0  0  0  0  4  0  0  0  0  0  0
    6.8182   -3.4406   23.1266 C   0  0  0  0  0  0  0  0  0  0  0  0
    7.6018   -2.2935   22.4979 C   0  0  0  0  0  0  0  0  0  0  0  0
    6.8909   -1.7357   21.2850 C   0  0  0  0  0  0  0  0  0  0  0  0
    5.9584   -2.2984   20.7488 O   0  0  0  0  0  0  0  0  0  0  0  0
    7.4440   -0.5672   20.7960 N   0  0  0  0  0  0  0  0  0  0  0  0
    6.7880    0.2239   19.7926 C   0  0  0  0  0  0  0  0  0  0  0  0
    5.5940    0.8922   20.0906 C   0  0  0  0  0  0  0  0  0  0  0  0
    4.9479    1.5925   19.0645 C   0  0  0  0  0  0  0  0  0  0  0  0
    5.5063    1.5811   17.7836 C   0  0  0  0  0  0  0  0  0  0  0  0
    6.6580    0.9559   17.4837 N   0  0  0  0  0  0  0  0  0  0  0  0
    7.2869    0.3130   18.4784 C   0  0  0  0  0  0  0  0  0  0  0  0
    8.2269   -0.1891   18.2489 H   0  0  0  0  0  0  0  0  0  0  0  0
    5.0155    2.1050   16.9640 H   0  0  0  0  0  0  0  0  0  0  0  0
    4.0282    2.1372   19.2486 H   0  0  0  0  0  0  0  0  0  0  0  0
    5.1797    0.8516   21.0973 H   0  0  0  0  0  0  0  0  0  0  0  0
    7.9893   -0.0454   21.4646 H   0  0  0  0  0  0  0  0  0  0  0  0
    7.7540   -1.5045   23.2458 H   0  0  0  0  0  0  0  0  0  0  0  0
    8.6078   -2.6153   22.1866 H   0  0  0  0  0  0  0  0  0  0  0  0
    5.8381   -3.0731   23.4575 H   0  0  0  0  0  0  0  0  0  0  0  0
    6.6250   -4.2398   22.4008 H   0  0  0  0  0  0  0  0  0  0  0  0
    6.7713   -4.5120   25.4060 C   0  0  0  0  0  0  0  0  0  0  0  0
    7.4446   -4.3824   26.7830 C   0  0  0  0  0  0  0  0  0  0  0  0
    8.8206   -5.0478   27.0009 C   0  0  0  0  0  0  0  0  0  0  0  0
    9.9744   -4.1720   26.7041 N   0  0  0  0  0  0  0  0  0  0  0  0
    9.9762   -3.3669   27.3199 H   0  0  0  0  0  0  0  0  0  0  0  0
    8.9062   -5.9734   26.4226 H   0  0  0  0  0  0  0  0  0  0  0  0
    8.9382   -5.3525   28.0478 H   0  0  0  0  0  0  0  0  0  0  0  0
    6.7505   -4.8029   27.5190 H   0  0  0  0  0  0  0  0  0  0  0  0
    7.5434   -3.3150   27.0210 H   0  0  0  0  0  0  0  0  0  0  0  0
    6.5323   -5.5642   25.1881 H   0  0  0  0  0  0  0  0  0  0  0  0
    5.8081   -3.9832   25.4323 H   0  0  0  0  0  0  0  0  0  0  0  0
    8.0937   -3.1246   24.6584 H   0  0  0  0  0  0  0  0  0  0  0  0
    8.4356   -5.9138   24.3525 H   0  0  0  0  0  0  0  0  0  0  0  0
    8.5877   -5.1463   22.7912 H   0  0  0  0  0  0  0  0  0  0  0  0
   10.4534   -3.8092   23.4504 H   0  0  0  0  0  0  0  0  0  0  0  0
   10.7482   -5.2510   24.4698 H   0  0  0  0  0  0  0  0  0  0  0  0
  1  2  2  0
  2  3  1  0
  3  4  1  0
  4  5  1  0
  5  6  1  0
  6  7  1  0
  7  8  1  0
  8  9  2  0
  8 10  1  0
 10 11  1  0
 11 12  2  0
 12 13  1  0
 13 14  2  0
 14 15  1  0
 15 16  2  0
 16 17  1  0
 14 18  1  0
 13 19  1  0
 12 20  1  0
 10 21  1  0
  7 22  1  0
  7 23  1  0
  6 24  1  0
  6 25  1  0
  5 26  1  0
 26 27  1  0
 27 28  1  0
 28 29  1  0
 29 30  1  0
 28 31  1  0
 28 32  1  0
 27 33  1  0
 27 34  1  0
 26 35  1  0
 26 36  1  0
  5 37  1  0
  4 38  1  0
  4 39  1  0
  3 40  1  0
  3 41  1  0
 29  2  1  0
 16 11  1  0
M  CHG  1   5   1
M  END
>  <cnnaffinity>  (1) 
4.61002

>  <plip>  (1) 
-0.10344827586206896

>  <filename>  (1) 
[H][c]1[n][c]([H])[c]([N]([H])[C](=[O])[C]([H])([H])[C]([H])([H])[N+]2([H])[C]([H])([H])[C]([H])([H])[C](=[O])[N]([H])[C]([H])([H])[C]([H])([H])[C]2([H])[H])[c]([H])[c]1[H]

>  <combo1>  (1) 
-0.5731651459413871

$$$$
