
     RDKit          3D

 35 36  0  0  0  0  0  0  0  0999 V2000
    9.3018   -2.0522   25.3727 O   0  0  0  0  0  0  0  0  0  0  0  0
    8.9726   -0.9347   25.0047 C   0  0  0  0  0  0  0  0  0  0  0  0
    9.5319    0.2851   25.7082 C   0  0  0  0  0  0  0  0  0  0  0  0
   10.6592    0.9002   24.9325 C   0  0  0  0  0  0  0  0  0  0  0  0
   11.9242    0.3120   24.9826 C   0  0  0  0  0  0  0  0  0  0  0  0
   13.0033    0.8846   24.2962 C   0  0  0  0  0  0  0  0  0  0  0  0
   12.8301    2.0765   23.5808 C   0  0  0  0  0  0  0  0  0  0  0  0
   13.8774    2.6420   22.9308 F   0  0  0  0  0  0  0  0  0  0  0  0
   11.5629    2.6764   23.5446 C   0  0  0  0  0  0  0  0  0  0  0  0
   11.2944    4.3465   22.6613 Br  0  0  0  0  0  0  0  0  0  0  0  0
   10.4775    2.0684   24.1850 C   0  0  0  0  0  0  0  0  0  0  0  0
    9.4996    2.5304   24.0963 H   0  0  0  0  0  0  0  0  0  0  0  0
   13.9789    0.4073   24.3119 H   0  0  0  0  0  0  0  0  0  0  0  0
   12.0628   -0.6058   25.5432 H   0  0  0  0  0  0  0  0  0  0  0  0
    9.9003   -0.0036   26.6914 H   0  0  0  0  0  0  0  0  0  0  0  0
    8.7378    1.0140   25.8576 H   0  0  0  0  0  0  0  0  0  0  0  0
    8.0827   -0.7660   23.9561 N   0  0  0  0  0  0  0  0  0  0  0  0
    7.5728   -1.8802   23.1133 C   0  0  0  0  0  0  0  0  0  0  0  0
    6.8485   -1.5273   21.7831 C   0  0  0  0  0  0  0  0  0  0  0  0
    5.7623   -2.0387   21.5360 O   0  0  0  0  0  0  0  0  0  0  0  0
    7.4388   -0.7036   20.8281 N   0  0  0  0  0  0  0  0  0  0  0  0
    6.7365   -0.0555   19.7834 C   0  0  0  0  0  0  0  0  0  0  0  0
    5.4984    0.5252   20.0513 C   0  0  0  0  0  0  0  0  0  0  0  0
    4.8461    1.2292   19.0317 C   0  0  0  0  0  0  0  0  0  0  0  0
    5.4257    1.3168   17.7610 C   0  0  0  0  0  0  0  0  0  0  0  0
    6.6096    0.7475   17.4774 N   0  0  0  0  0  0  0  0  0  0  0  0
    7.2497    0.0921   18.4722 C   0  0  0  0  0  0  0  0  0  0  0  0
    8.2082   -0.3571   18.2437 H   0  0  0  0  0  0  0  0  0  0  0  0
    4.9089    1.8698   16.9815 H   0  0  0  0  0  0  0  0  0  0  0  0
    3.9022    1.7293   19.2127 H   0  0  0  0  0  0  0  0  0  0  0  0
    5.0725    0.4647   21.0491 H   0  0  0  0  0  0  0  0  0  0  0  0
    8.3989   -0.4232   20.9974 H   0  0  0  0  0  0  0  0  0  0  0  0
    6.8917   -2.4930   23.7106 H   0  0  0  0  0  0  0  0  0  0  0  0
    8.4175   -2.5230   22.8581 H   0  0  0  0  0  0  0  0  0  0  0  0
    7.7953    0.1949   23.7747 H   0  0  0  0  0  0  0  0  0  0  0  0
  1  2  2  0
  2  3  1  0
  3  4  1  0
  4  5  2  0
  5  6  1  0
  6  7  2  0
  7  8  1  0
  7  9  1  0
  9 10  1  0
  9 11  2  0
 11 12  1  0
  6 13  1  0
  5 14  1  0
  3 15  1  0
  3 16  1  0
  2 17  1  0
 17 18  1  0
 18 19  1  0
 19 20  2  0
 19 21  1  0
 21 22  1  0
 22 23  2  0
 23 24  1  0
 24 25  2  0
 25 26  1  0
 26 27  2  0
 27 28  1  0
 25 29  1  0
 24 30  1  0
 23 31  1  0
 21 32  1  0
 18 33  1  0
 18 34  1  0
 17 35  1  0
 11  4  1  0
 27 22  1  0
M  END
>  <cnnaffinity>  (1) 
5.26748

>  <plip>  (1) 
-0.06666666666666667

>  <filename>  (1) 
[H][c]1[n][c]([H])[c]([N]([H])[C](=[O])[C]([H])([H])[N]([H])[C](=[O])[C]([H])([H])[c]2[c]([H])[c]([H])[c]([F])[c]([Br])[c]2[H])[c]([H])[c]1[H]

>  <combo1>  (1) 
-0.3196567659169041

$$$$
