
     RDKit          3D

 44 47  0  0  0  0  0  0  0  0999 V2000
    4.2580   -2.7531   28.7427 F   0  0  0  0  0  0  0  0  0  0  0  0
    4.7551   -2.9818   27.5186 C   0  0  0  0  0  0  0  0  0  0  0  0
    5.0835   -1.9214   26.6870 C   0  0  0  0  0  0  0  0  0  0  0  0
    5.5957   -2.2240   25.4216 C   0  0  0  0  0  0  0  0  0  0  0  0
    5.7671   -3.5650   25.0159 C   0  0  0  0  0  0  0  0  0  0  0  0
    6.3435   -3.8906   23.6089 C   0  0  0  0  0  0  0  0  0  0  0  0
    6.4977   -5.1732   23.2798 N   0  0  0  0  0  0  0  0  0  0  0  0
    6.9956   -5.4532   22.0783 C   0  0  0  0  0  0  0  0  0  0  0  0
    7.3507   -4.4992   21.1657 C   0  0  0  0  0  0  0  0  0  0  0  0
    7.1611   -3.1781   21.5864 C   0  0  0  0  0  0  0  0  0  0  0  0
    7.4701   -2.1620   20.7595 N   0  0  0  0  0  0  0  0  0  0  0  0
    7.3807   -0.7449   21.0116 C   0  0  0  0  0  0  0  0  0  0  0  0
    6.6441   -0.0343   19.9050 C   0  0  0  0  0  0  0  0  0  0  0  0
    5.4414    0.6443   20.1567 C   0  0  0  0  0  0  0  0  0  0  0  0
    4.8081    1.3114   19.1074 C   0  0  0  0  0  0  0  0  0  0  0  0
    5.4057    1.2880   17.8432 C   0  0  0  0  0  0  0  0  0  0  0  0
    6.5679    0.6689   17.5879 N   0  0  0  0  0  0  0  0  0  0  0  0
    7.1667    0.0336   18.6075 C   0  0  0  0  0  0  0  0  0  0  0  0
    8.1251   -0.4279   18.3641 H   0  0  0  0  0  0  0  0  0  0  0  0
    4.9243    1.7778   16.9983 H   0  0  0  0  0  0  0  0  0  0  0  0
    3.8757    1.8444   19.2564 H   0  0  0  0  0  0  0  0  0  0  0  0
    5.0062    0.6344   21.1602 H   0  0  0  0  0  0  0  0  0  0  0  0
    8.7695   -0.1224   21.2623 C   0  0  0  0  0  0  0  0  0  0  0  0
    8.7410    1.3690   21.6389 C   0  0  0  0  0  0  0  0  0  0  0  0
    9.9794    1.5364   22.5272 C   0  0  0  0  0  0  0  0  0  0  0  0
   10.3545    0.2382   22.9695 O   0  0  0  0  0  0  0  0  0  0  0  0
    9.4801   -0.7521   22.4609 C   0  0  0  0  0  0  0  0  0  0  0  0
    8.7501   -1.0557   23.2311 H   0  0  0  0  0  0  0  0  0  0  0  0
   10.0652   -1.6381   22.1894 H   0  0  0  0  0  0  0  0  0  0  0  0
    9.7821    2.1781   23.3982 H   0  0  0  0  0  0  0  0  0  0  0  0
   10.8236    1.9710   21.9740 H   0  0  0  0  0  0  0  0  0  0  0  0
    7.8298    1.6101   22.1998 H   0  0  0  0  0  0  0  0  0  0  0  0
    8.7718    2.0355   20.7720 H   0  0  0  0  0  0  0  0  0  0  0  0
    9.4092   -0.2487   20.3766 H   0  0  0  0  0  0  0  0  0  0  0  0
    6.7998   -0.6380   21.9328 H   0  0  0  0  0  0  0  0  0  0  0  0
    7.8719   -2.4199   19.8858 H   0  0  0  0  0  0  0  0  0  0  0  0
    6.6658   -2.8721   22.7893 N   0  0  0  0  0  0  0  0  0  0  0  0
    7.7382   -4.7792   20.2017 H   0  0  0  0  0  0  0  0  0  0  0  0
    7.1021   -6.5193   21.8673 H   0  0  0  0  0  0  0  0  0  0  0  0
    5.4277   -4.5752   25.8638 N   0  0  0  0  0  0  0  0  0  0  0  0
    4.9426   -4.2954   27.0723 C   0  0  0  0  0  0  0  0  0  0  0  0
    4.6855   -5.1328   27.7223 H   0  0  0  0  0  0  0  0  0  0  0  0
    5.8563   -1.4139   24.7546 H   0  0  0  0  0  0  0  0  0  0  0  0
    4.9386   -0.8984   27.0320 H   0  0  0  0  0  0  0  0  0  0  0  0
  1  2  1  0
  2  3  2  0
  3  4  1  0
  4  5  2  0
  5  6  1  0
  6  7  2  0
  7  8  1  0
  8  9  2  0
  9 10  1  0
 10 11  1  0
 11 12  1  0
 12 13  1  0
 13 14  2  0
 14 15  1  0
 15 16  2  0
 16 17  1  0
 17 18  2  0
 18 19  1  0
 16 20  1  0
 15 21  1  0
 14 22  1  0
 12 23  1  0
 23 24  1  0
 24 25  1  0
 25 26  1  0
 26 27  1  0
 27 28  1  0
 27 29  1  0
 25 30  1  0
 25 31  1  0
 24 32  1  0
 24 33  1  0
 23 34  1  0
 12 35  1  0
 11 36  1  0
 10 37  2  0
  9 38  1  0
  8 39  1  0
  5 40  1  0
 40 41  2  0
 41 42  1  0
  4 43  1  0
  3 44  1  0
 41  2  1  0
 37  6  1  0
 18 13  1  0
 27 23  1  0
M  END
>  <cnnaffinity>  (1) 
5.67167

>  <plip>  (1) 
-0.03571428571428571

>  <filename>  (1) 
[H][c]1[n][c](-[c]2[n][c]([H])[c]([F])[c]([H])[c]2[H])[n][c]([N]([H])[C]([H])([c]2[c]([H])[n][c]([H])[c]([H])[c]2[H])[C]2([H])[C]([H])([H])[O][C]([H])([H])[C]2([H])[H])[c]1[H]

>  <combo1>  (1) 
-0.19215356646521897

$$$$
