
     RDKit          3D

 36 39  0  0  0  0  0  0  0  0999 V2000
    4.9245    1.7904   17.0027 H   0  0  0  0  0  0  0  0  0  0  0  0
    5.3987    1.2875   17.8427 C   0  0  0  0  0  0  0  0  0  0  0  0
    6.5550    0.6636   17.5665 N   0  0  0  0  0  0  0  0  0  0  0  0
    7.1854    0.0579   18.5783 C   0  0  0  0  0  0  0  0  0  0  0  0
    8.1364   -0.4193   18.3559 H   0  0  0  0  0  0  0  0  0  0  0  0
    6.6849    0.0154   19.8992 C   0  0  0  0  0  0  0  0  0  0  0  0
    7.3982   -0.6385   20.9618 N   0  0  0  0  0  0  0  0  0  0  0  0
    8.7478   -0.4612   21.2452 C   0  0  0  0  0  0  0  0  0  0  0  0
    9.5197    0.1657   20.5608 O   0  0  0  0  0  0  0  0  0  0  0  0
    9.0995   -1.1947   22.5162 C   0  0  0  0  0  0  0  0  0  0  0  0
    9.5503   -0.4721   23.2036 H   0  0  0  0  0  0  0  0  0  0  0  0
    9.8700   -1.9354   22.2796 H   0  0  0  0  0  0  0  0  0  0  0  0
    7.7753   -1.8068   23.0070 C   0  0  1  0  0  0  0  0  0  0  0  0
    7.8001   -2.9027   23.0325 H   0  0  0  0  0  0  0  0  0  0  0  0
    7.3382   -1.3331   24.3913 C   0  0  0  0  0  0  0  0  0  0  0  0
    7.2918   -2.2305   25.4440 C   0  0  0  0  0  0  0  0  0  0  0  0
    7.5475   -3.2715   25.2574 H   0  0  0  0  0  0  0  0  0  0  0  0
    6.9318   -1.8303   26.7531 C   0  0  0  0  0  0  0  0  0  0  0  0
    6.9012   -2.5770   27.5413 H   0  0  0  0  0  0  0  0  0  0  0  0
    6.6178   -0.5195   27.0245 C   0  0  0  0  0  0  0  0  0  0  0  0
    6.3308   -0.1964   28.0221 H   0  0  0  0  0  0  0  0  0  0  0  0
    6.6606    0.4488   25.9856 C   0  0  0  0  0  0  0  0  0  0  0  0
    6.3424    1.8253   26.1952 C   0  0  0  0  0  0  0  0  0  0  0  0
    6.0511    2.1496   27.1953 H   0  0  0  0  0  0  0  0  0  0  0  0
    6.4138    2.6877   25.1306 C   0  0  0  0  0  0  0  0  0  0  0  0
    6.1823    3.7407   25.2282 H   0  0  0  0  0  0  0  0  0  0  0  0
    6.8048    2.1933   23.8546 C   0  0  0  0  0  0  0  0  0  0  0  0
    6.8567    2.8789   23.0090 H   0  0  0  0  0  0  0  0  0  0  0  0
    7.1104    0.9403   23.6140 N   0  0  0  0  0  0  0  0  0  0  0  0
    7.0362    0.0445   24.6598 C   0  0  0  0  0  0  0  0  0  0  0  0
    6.7994   -1.5264   21.8506 C   0  0  0  0  0  0  0  0  0  0  0  0
    5.7416   -2.0755   21.6648 O   0  0  0  0  0  0  0  0  0  0  0  0
    5.4642    0.6377   20.1688 C   0  0  0  0  0  0  0  0  0  0  0  0
    5.0529    0.6001   21.1786 H   0  0  0  0  0  0  0  0  0  0  0  0
    4.8211    1.3007   19.1168 C   0  0  0  0  0  0  0  0  0  0  0  0
    3.8898    1.8302   19.2680 H   0  0  0  0  0  0  0  0  0  0  0  0
  1  2  1  0
  2  3  2  0
  3  4  1  0
  4  5  1  0
  4  6  2  0
  6  7  1  0
  7  8  1  0
  8  9  2  0
  8 10  1  0
 10 11  1  0
 10 12  1  0
 10 13  1  0
 13 14  1  1
 13 15  1  0
 15 16  2  0
 16 17  1  0
 16 18  1  0
 18 19  1  0
 18 20  2  0
 20 21  1  0
 20 22  1  0
 22 23  2  0
 23 24  1  0
 23 25  1  0
 25 26  1  0
 25 27  2  0
 27 28  1  0
 27 29  1  0
 29 30  2  0
 13 31  1  0
 31 32  2  0
  6 33  1  0
 33 34  1  0
 33 35  2  0
 35 36  1  0
 35  2  1  0
 31  7  1  0
 30 15  1  0
 30 22  1  0
M  END
>  <cnnaffinity>  (1) 
5.32381

>  <plip>  (1) 
-0.10714285714285714

>  <filename>  (1) 
[H][c]1[n][c]([H])[c]([N]2[C](=[O])[C]([H])([H])[C@@]([H])([c]3[c]([H])[c]([H])[c]([H])[c]4[c]([H])[c]([H])[c]([H])[n][c]34)[C]2=[O])[c]([H])[c]1[H]

>  <combo1>  (1) 
-0.6268477007149899

$$$$
