
     RDKit          3D

 27 27  0  0  0  0  0  0  0  0999 V2000
    5.0981   -2.6308   17.6895 H   0  0  0  0  0  0  0  0  0  0  0  0
    5.2685   -2.5442   18.7588 C   0  0  0  0  0  0  0  0  0  0  0  0
    5.1102   -1.5627   19.2132 H   0  0  0  0  0  0  0  0  0  0  0  0
    5.6543   -3.5747   19.4998 C   0  0  0  0  0  0  0  0  0  0  0  0
    5.7956   -4.5467   19.0267 H   0  0  0  0  0  0  0  0  0  0  0  0
    5.8261   -3.5387   20.9999 C   0  0  0  0  0  0  0  0  0  0  0  0
    4.8953   -3.8928   21.4598 H   0  0  0  0  0  0  0  0  0  0  0  0
    6.6230   -4.2300   21.3237 H   0  0  0  0  0  0  0  0  0  0  0  0
    6.0109   -2.2501   21.5503 O   0  0  0  0  0  0  0  0  0  0  0  0
    7.3368   -1.7316   21.5209 C   0  0  0  0  0  0  0  0  0  0  0  0
    7.8925   -2.0304   22.4200 H   0  0  0  0  0  0  0  0  0  0  0  0
    7.8981   -2.0917   20.6442 H   0  0  0  0  0  0  0  0  0  0  0  0
    7.3127   -0.1958   21.4830 C   0  0  2  0  0  0  0  0  0  0  0  0
    6.7185    0.1257   22.3460 H   0  0  0  0  0  0  0  0  0  0  0  0
    6.6593    0.3373   20.2294 C   0  0  0  0  0  0  0  0  0  0  0  0
    7.2899    0.2041   18.9852 C   0  0  0  0  0  0  0  0  0  0  0  0
    8.2445   -0.3221   18.8984 H   0  0  0  0  0  0  0  0  0  0  0  0
    6.7608    0.6194   17.8288 N   0  0  0  0  0  0  0  0  0  0  0  0
    5.5566    1.2131   17.8831 C   0  0  0  0  0  0  0  0  0  0  0  0
    5.1568    1.5626   16.9355 H   0  0  0  0  0  0  0  0  0  0  0  0
    4.8300    1.3803   19.0678 C   0  0  0  0  0  0  0  0  0  0  0  0
    3.8630    1.8742   19.0423 H   0  0  0  0  0  0  0  0  0  0  0  0
    5.3891    0.9311   20.2622 C   0  0  0  0  0  0  0  0  0  0  0  0
    4.8551    1.0252   21.2128 H   0  0  0  0  0  0  0  0  0  0  0  0
    8.6683    0.3362   21.6605 N   0  0  0  0  0  0  0  0  0  0  0  0
    8.6163    1.3559   21.6314 H   0  0  0  0  0  0  0  0  0  0  0  0
    9.2337    0.0788   20.8573 H   0  0  0  0  0  0  0  0  0  0  0  0
  1  2  1  0
  2  3  1  0
  2  4  2  3
  4  5  1  0
  4  6  1  0
  6  7  1  0
  6  8  1  0
  6  9  1  0
  9 10  1  0
 10 11  1  0
 10 12  1  0
 10 13  1  0
 13 14  1  1
 13 15  1  0
 15 16  2  0
 16 17  1  0
 16 18  1  0
 18 19  2  0
 19 20  1  0
 19 21  1  0
 21 22  1  0
 21 23  2  0
 23 24  1  0
 13 25  1  0
 25 26  1  0
 25 27  1  0
 23 15  1  0
M  END
>  <cnnaffinity>  (1) 
3.49813

>  <plip>  (1) 
-0.10714285714285714

>  <filename>  (1) 
[H][C]([H])=[C]([H])[C]([H])([H])[O][C]([H])([H])[C@]([H])([c]1[c]([H])[n][c]([H])[c]([H])[c]1[H])[N]([H])[H]

>  <combo1>  (1) 
-0.7009465833630559

$$$$
