
     RDKit          3D

 46 48  0  0  0  0  0  0  0  0999 V2000
    2.1572   -6.7937   24.3588 C   0  0  0  0  0  0  0  0  0  0  0  0
    2.7206   -5.5994   24.8855 O   0  0  0  0  0  0  0  0  0  0  0  0
    3.7291   -4.9774   24.2494 C   0  0  0  0  0  0  0  0  0  0  0  0
    4.1953   -3.8190   24.8846 C   0  0  0  0  0  0  0  0  0  0  0  0
    5.2296   -3.1301   24.2839 C   0  0  0  0  0  0  0  0  0  0  0  0
    5.7590   -3.6054   23.0689 C   0  0  0  0  0  0  0  0  0  0  0  0
    6.9194   -2.8973   22.4333 C   0  0  0  0  0  0  0  0  0  0  0  0
    6.4123   -1.8436   21.5472 N   0  0  0  0  0  4  0  0  0  0  0  0
    7.3642   -0.7215   21.0906 C   0  0  0  0  0  0  0  0  0  0  0  0
    6.6279   -0.0581   19.9372 C   0  0  0  0  0  0  0  0  0  0  0  0
    5.4107    0.6194   20.1592 C   0  0  0  0  0  0  0  0  0  0  0  0
    4.7905    1.2871   19.1044 C   0  0  0  0  0  0  0  0  0  0  0  0
    5.4044    1.2725   17.8469 C   0  0  0  0  0  0  0  0  0  0  0  0
    6.5571    0.6369   17.6032 N   0  0  0  0  0  0  0  0  0  0  0  0
    7.1456    0.0070   18.6290 C   0  0  0  0  0  0  0  0  0  0  0  0
    8.1062   -0.4453   18.3893 H   0  0  0  0  0  0  0  0  0  0  0  0
    4.9541    1.7940   17.0050 H   0  0  0  0  0  0  0  0  0  0  0  0
    3.8710    1.8494   19.2485 H   0  0  0  0  0  0  0  0  0  0  0  0
    4.9677    0.6644   21.1585 H   0  0  0  0  0  0  0  0  0  0  0  0
    7.7032    0.2974   22.2080 C   0  0  0  0  0  0  0  0  0  0  0  0
    9.0547    0.9328   21.8059 C   0  0  0  0  0  0  0  0  0  0  0  0
    9.6960   -0.0578   20.8097 C   0  0  0  0  0  0  0  0  0  0  0  0
    8.7643   -1.2679   20.7608 C   0  0  0  0  0  0  0  0  0  0  0  0
    8.7961   -1.7795   19.8024 H   0  0  0  0  0  0  0  0  0  0  0  0
    9.0358   -1.9929   21.5318 H   0  0  0  0  0  0  0  0  0  0  0  0
    9.6963    0.3921   19.8163 H   0  0  0  0  0  0  0  0  0  0  0  0
   10.7268   -0.3396   21.0486 H   0  0  0  0  0  0  0  0  0  0  0  0
    9.6815    1.1315   22.6826 H   0  0  0  0  0  0  0  0  0  0  0  0
    8.9014    1.8998   21.3139 H   0  0  0  0  0  0  0  0  0  0  0  0
    6.9101    1.0412   22.3412 H   0  0  0  0  0  0  0  0  0  0  0  0
    7.8073   -0.2523   23.1493 H   0  0  0  0  0  0  0  0  0  0  0  0
    5.6126   -1.3857   22.0579 H   0  0  0  0  0  0  0  0  0  0  0  0
    6.0271   -2.2471   20.6573 H   0  0  0  0  0  0  0  0  0  0  0  0
    7.5285   -2.4606   23.2365 H   0  0  0  0  0  0  0  0  0  0  0  0
    7.5677   -3.6028   21.8985 H   0  0  0  0  0  0  0  0  0  0  0  0
    5.2214   -4.7859   22.5307 C   0  0  0  0  0  0  0  0  0  0  0  0
    5.7623   -5.4036   21.2738 C   0  0  0  0  0  0  0  0  0  0  0  0
    5.7862   -4.6591   20.4670 H   0  0  0  0  0  0  0  0  0  0  0  0
    5.1422   -6.2532   20.9748 H   0  0  0  0  0  0  0  0  0  0  0  0
    6.7915   -5.7542   21.4330 H   0  0  0  0  0  0  0  0  0  0  0  0
    4.2075   -5.4516   23.1097 N   0  0  0  0  0  0  0  0  0  0  0  0
    5.6329   -2.2212   24.7387 H   0  0  0  0  0  0  0  0  0  0  0  0
    3.7115   -3.5387   25.8092 H   0  0  0  0  0  0  0  0  0  0  0  0
    1.3731   -7.0524   25.0757 H   0  0  0  0  0  0  0  0  0  0  0  0
    1.7325   -6.6305   23.3598 H   0  0  0  0  0  0  0  0  0  0  0  0
    2.9039   -7.5958   24.2944 H   0  0  0  0  0  0  0  0  0  0  0  0
  1  2  1  0
  2  3  1  0
  3  4  2  0
  4  5  1  0
  5  6  2  0
  6  7  1  0
  7  8  1  0
  8  9  1  0
  9 10  1  0
 10 11  2  0
 11 12  1  0
 12 13  2  0
 13 14  1  0
 14 15  2  0
 15 16  1  0
 13 17  1  0
 12 18  1  0
 11 19  1  0
  9 20  1  0
 20 21  1  0
 21 22  1  0
 22 23  1  0
 23 24  1  0
 23 25  1  0
 22 26  1  0
 22 27  1  0
 21 28  1  0
 21 29  1  0
 20 30  1  0
 20 31  1  0
  8 32  1  0
  8 33  1  0
  7 34  1  0
  7 35  1  0
  6 36  1  0
 36 37  1  0
 37 38  1  0
 37 39  1  0
 37 40  1  0
 36 41  2  0
  5 42  1  0
  4 43  1  0
  1 44  1  0
  1 45  1  0
  1 46  1  0
 41  3  1  0
 23  9  1  0
 15 10  1  0
M  CHG  1   8   1
M  END
>  <cnnaffinity>  (1) 
5.02962

>  <plip>  (1) 
-0.06896551724137931

>  <filename>  (1) 
[H][c]1[n][c]([H])[c]([C]2([N+]([H])([H])[C]([H])([H])[c]3[c]([C]([H])([H])[H])[n][c]([O][C]([H])([H])[H])[c]([H])[c]3[H])[C]([H])([H])[C]([H])([H])[C]([H])([H])[C]2([H])[H])[c]([H])[c]1[H]

>  <combo1>  (1) 
-0.387465059065923

$$$$
