
     RDKit          3D

 24 26  0  0  0  0  0  0  0  0999 V2000
    8.9230   -3.1973   22.0013 H   0  0  0  0  0  0  0  0  0  0  0  0
    8.4138   -2.2434   21.9666 C   0  0  0  0  0  0  0  0  0  0  0  0
    8.1863   -1.4111   22.9305 N   0  0  0  0  0  0  0  0  0  0  0  0
    7.5309   -0.3777   22.2947 C   0  0  0  0  0  0  0  0  0  0  0  0
    7.2039    0.8149   22.9296 N   0  0  0  0  0  0  0  0  0  0  0  0
    6.8980    0.9659   24.2596 C   0  0  0  0  0  0  0  0  0  0  0  0
    6.8468    0.1351   24.9561 H   0  0  0  0  0  0  0  0  0  0  0  0
    6.6759    2.2140   24.5603 N   0  0  0  0  0  0  0  0  0  0  0  0
    6.8490    2.9250   23.3944 C   0  0  0  0  0  0  0  0  0  0  0  0
    6.7503    4.0040   23.3665 H   0  0  0  0  0  0  0  0  0  0  0  0
    7.1717    2.0897   22.3693 C   0  0  0  0  0  0  0  0  0  0  0  0
    7.3986    2.2861   21.3301 H   0  0  0  0  0  0  0  0  0  0  0  0
    7.3490   -0.6748   20.9662 C   0  0  0  0  0  0  0  0  0  0  0  0
    6.6443   -0.0120   19.8832 C   0  0  0  0  0  0  0  0  0  0  0  0
    7.1668    0.0424   18.5763 C   0  0  0  0  0  0  0  0  0  0  0  0
    8.1212   -0.4310   18.3573 H   0  0  0  0  0  0  0  0  0  0  0  0
    6.5682    0.6787   17.5666 N   0  0  0  0  0  0  0  0  0  0  0  0
    5.4038    1.2938   17.8361 C   0  0  0  0  0  0  0  0  0  0  0  0
    4.9209    1.7850   16.9957 H   0  0  0  0  0  0  0  0  0  0  0  0
    4.8002    1.3085   19.0989 C   0  0  0  0  0  0  0  0  0  0  0  0
    3.8720    1.8441   19.2553 H   0  0  0  0  0  0  0  0  0  0  0  0
    5.4305    0.6452   20.1479 C   0  0  0  0  0  0  0  0  0  0  0  0
    5.0175    0.6441   21.1614 H   0  0  0  0  0  0  0  0  0  0  0  0
    7.9586   -1.8772   20.7562 O   0  0  0  0  0  0  0  0  0  0  0  0
  1  2  1  0
  2  3  2  0
  3  4  1  0
  4  5  1  0
  5  6  1  0
  6  7  1  0
  6  8  2  0
  8  9  1  0
  9 10  1  0
  9 11  2  0
 11 12  1  0
  4 13  2  0
 13 14  1  0
 14 15  2  0
 15 16  1  0
 15 17  1  0
 17 18  2  0
 18 19  1  0
 18 20  1  0
 20 21  1  0
 20 22  2  0
 22 23  1  0
 13 24  1  0
 24  2  1  0
 11  5  1  0
 22 14  1  0
M  END
>  <cnnaffinity>  (1) 
4.5939

>  <plip>  (1) 
-0.0

>  <filename>  (1) 
[H][c]1[n][c](-[n]2[c]([H])[n][c]([H])[c]2[H])[c](-[c]2[c]([H])[n][c]([H])[c]([H])[c]2[H])[o]1

>  <combo1>  (1) 
-7.215897310236932e-06

$$$$
