
     RDKit          3D

 33 35  0  0  0  0  0  0  0  0999 V2000
    9.9022    0.1949   20.4707 O   0  0  0  0  0  0  0  0  0  0  0  0
    9.3848    0.7101   21.4478 C   0  0  0  0  0  0  0  0  0  0  0  0
    9.9890    1.7575   22.2723 C   0  0  0  0  0  0  0  0  0  0  0  0
    9.3239    2.2498   23.3497 C   0  0  0  0  0  0  0  0  0  0  0  0
    8.0044    1.7576   23.6595 C   0  0  0  0  0  0  0  0  0  0  0  0
    7.2066    2.2961   24.7968 C   0  0  0  0  0  0  0  0  0  0  0  0
    5.8270    2.5246   24.6552 C   0  0  0  0  0  0  0  0  0  0  0  0
    5.0678    3.0488   25.7029 C   0  0  0  0  0  0  0  0  0  0  0  0
    5.6797    3.3510   26.9253 C   0  0  0  0  0  0  0  0  0  0  0  0
    7.0485    3.1322   27.0981 C   0  0  0  0  0  0  0  0  0  0  0  0
    7.7848    2.6103   26.0363 C   0  0  0  0  0  0  0  0  0  0  0  0
    9.1021    2.4071   26.2313 F   0  0  0  0  0  0  0  0  0  0  0  0
    7.5647    3.3521   28.0261 H   0  0  0  0  0  0  0  0  0  0  0  0
    5.0898    3.7491   27.7467 H   0  0  0  0  0  0  0  0  0  0  0  0
    4.0031    3.2042   25.5656 H   0  0  0  0  0  0  0  0  0  0  0  0
    5.3624    2.2893   23.7001 H   0  0  0  0  0  0  0  0  0  0  0  0
    7.4174    0.8434   22.9104 N   0  0  0  0  0  0  0  0  0  0  0  0
    8.1129    0.3003   21.8863 N   0  0  0  0  0  0  0  0  0  0  0  0
    7.3921   -0.6652   21.0339 C   0  0  0  0  0  0  0  0  0  0  0  0
    6.6575    0.0122   19.9005 C   0  0  0  0  0  0  0  0  0  0  0  0
    5.4396    0.6514   20.1469 C   0  0  0  0  0  0  0  0  0  0  0  0
    4.8011    1.3101   19.0968 C   0  0  0  0  0  0  0  0  0  0  0  0
    5.3973    1.2935   17.8321 C   0  0  0  0  0  0  0  0  0  0  0  0
    6.5594    0.6778   17.5710 N   0  0  0  0  0  0  0  0  0  0  0  0
    7.1700    0.0635   18.5944 C   0  0  0  0  0  0  0  0  0  0  0  0
    8.1229   -0.4160   18.3643 H   0  0  0  0  0  0  0  0  0  0  0  0
    4.9196    1.7907   16.9884 H   0  0  0  0  0  0  0  0  0  0  0  0
    3.8720    1.8435   19.2476 H   0  0  0  0  0  0  0  0  0  0  0  0
    5.0183    0.6339   21.1548 H   0  0  0  0  0  0  0  0  0  0  0  0
    6.6954   -1.1972   21.6903 H   0  0  0  0  0  0  0  0  0  0  0  0
    8.1325   -1.3728   20.6493 H   0  0  0  0  0  0  0  0  0  0  0  0
    9.7404    3.0243   23.9865 H   0  0  0  0  0  0  0  0  0  0  0  0
   10.9842    2.0630   21.9732 H   0  0  0  0  0  0  0  0  0  0  0  0
  1  2  2  0
  2  3  1  0
  3  4  2  0
  4  5  1  0
  5  6  1  0
  6  7  2  0
  7  8  1  0
  8  9  2  0
  9 10  1  0
 10 11  2  0
 11 12  1  0
 10 13  1  0
  9 14  1  0
  8 15  1  0
  7 16  1  0
  5 17  2  0
 17 18  1  0
 18 19  1  0
 19 20  1  0
 20 21  2  0
 21 22  1  0
 22 23  2  0
 23 24  1  0
 24 25  2  0
 25 26  1  0
 23 27  1  0
 22 28  1  0
 21 29  1  0
 19 30  1  0
 19 31  1  0
  4 32  1  0
  3 33  1  0
 18  2  1  0
 25 20  1  0
 11  6  1  0
M  END
>  <cnnaffinity>  (1) 
4.7895

>  <plip>  (1) 
-0.03571428571428571

>  <filename>  (1) 
[H][c]1[n][c]([H])[c]([C]([H])([H])[n]2[n][c](-[c]3[c]([H])[c]([H])[c]([H])[c]([H])[c]3[F])[c]([H])[c]([H])[c]2=[O])[c]([H])[c]1[H]

>  <combo1>  (1) 
-0.20270133009654512

$$$$
