
     RDKit          3D

 29 31  0  0  0  0  0  0  0  0999 V2000
    4.9000    1.7766   17.0009 H   0  0  0  0  0  0  0  0  0  0  0  0
    5.3700    1.3196   17.8092 C   0  0  0  0  0  0  0  0  0  0  0  0
    6.5512    0.7082   17.5386 N   0  0  0  0  0  0  0  0  0  0  0  0
    7.1423    0.0675   18.5484 C   0  0  0  0  0  0  0  0  0  0  0  0
    8.1034   -0.4115   18.2950 H   0  0  0  0  0  0  0  0  0  0  0  0
    6.2829    0.1443   19.5650 C   0  0  0  0  0  0  0  0  0  0  0  0
    7.9973   -0.7958   21.3762 N   0  0  0  0  0  0  0  0  0  0  0  0
    6.3589   -0.3325   22.2461 H   0  0  0  0  0  0  0  0  0  0  0  0
    9.5374   -1.2998   21.0766 C   0  0  0  0  0  0  0  0  0  0  0  0
    8.1544   -1.8174   21.9187 N   0  0  0  0  0  0  0  0  0  0  0  0
    7.0720   -2.2061   19.3391 H   0  0  0  0  0  0  0  0  0  0  0  0
    6.8951   -3.9419   20.9624 C   0  0  0  0  0  0  0  0  0  0  0  0
    7.2264   -4.0532   21.9984 H   0  0  0  0  0  0  0  0  0  0  0  0
    5.7168   -3.4663   20.4925 C   0  0  0  0  0  0  0  0  0  0  0  0
    5.5213   -2.8687   19.6089 H   0  0  0  0  0  0  0  0  0  0  0  0
    4.9208   -3.5760   21.2569 H   0  0  0  0  0  0  0  0  0  0  0  0
    6.4834   -4.8299   20.1577 C   0  0  0  0  0  0  0  0  0  0  0  0
    6.7585   -4.9552   19.1570 H   0  0  0  0  0  0  0  0  0  0  0  0
    6.2179   -5.6438   20.8104 H   0  0  0  0  0  0  0  0  0  0  0  0
    9.6458   -1.5315   21.1340 C   0  0  0  0  0  0  0  0  0  0  0  0
   10.1664   -2.5894   21.5954 H   0  0  0  0  0  0  0  0  0  0  0  0
    8.9224   -0.4917   22.8364 H   0  0  0  0  0  0  0  0  0  0  0  0
    9.5390   -1.2979   21.0802 C   0  0  0  0  0  0  0  0  0  0  0  0
    9.3044   -1.1366   21.6163 H   0  0  0  0  0  0  0  0  0  0  0  0
   10.0708   -0.2203   20.4455 H   0  0  0  0  0  0  0  0  0  0  0  0
    5.3674    0.6875   20.2078 C   0  0  0  0  0  0  0  0  0  0  0  0
    4.9814    0.6386   21.1747 H   0  0  0  0  0  0  0  0  0  0  0  0
    4.7871    1.3298   19.0796 C   0  0  0  0  0  0  0  0  0  0  0  0
    3.8688    1.8485   19.2655 H   0  0  0  0  0  0  0  0  0  0  0  0
  1  2  1  0
  2  3  2  0
  3  4  1  0
  4  5  1  0
  4  6  2  0
  6  7  1  0
  7  8  1  0
  7  9  1  0
  9 10  1  0
 10 11  1  0
 10 12  1  0
 12 13  1  0
 12 14  1  0
 14 15  1  0
 14 16  1  0
 14 17  1  0
 17 18  1  0
 17 19  1  0
  9 20  1  0
 20 21  1  0
 20 22  1  0
 20 23  1  0
 23 24  1  0
 23 25  1  0
  6 26  1  0
 26 27  1  0
 26 28  2  0
 28 29  1  0
 28  2  1  0
 23  9  1  0
 17 12  1  0
M  END
>  <cnnaffinity>  (1) 
4.00897

>  <plip>  (1) 
-0.034482758620689655

>  <filename>  (1) 
[H][c]1[n][c]([H])[c]([N]([H])[C]2([N]([H])[C]3([H])[C]([H])([H])[C]3([H])[H])[C]([H])([H])[C]2([H])[H])[c]([H])[c]1[H]

>  <combo1>  (1) 
-0.2434726196623132

$$$$
