
     RDKit          3D

 22 23  0  0  0  0  0  0  0  0999 V2000
    5.5291   -2.0925   20.2387 H   0  0  0  0  0  0  0  0  0  0  0  0
    5.9274   -2.6397   21.0006 N   0  0  0  0  0  0  0  0  0  0  0  0
    6.9082   -1.9574   21.4229 C   0  0  0  0  0  0  0  0  0  0  0  0
    7.9829   -2.4846   22.7247 S   0  0  0  0  0  0  0  0  0  0  0  0
    8.9320   -1.0384   22.5658 C   0  0  0  0  0  0  0  0  0  0  0  0
    9.7820   -0.8496   23.2067 H   0  0  0  0  0  0  0  0  0  0  0  0
    8.4653   -0.2046   21.6267 C   0  0  0  0  0  0  0  0  0  0  0  0
    9.0362    1.1425   21.3105 C   0  0  0  0  0  0  0  0  0  0  0  0
    9.0401    1.3095   20.2389 H   0  0  0  0  0  0  0  0  0  0  0  0
   10.0532    1.2391   21.6876 H   0  0  0  0  0  0  0  0  0  0  0  0
    8.1078    2.5141   22.0103 Cl  0  0  0  0  0  0  0  0  0  0  0  0
    7.3516   -0.7094   20.9361 N   0  0  0  0  0  0  0  0  0  0  0  0
    6.6551   -0.0069   19.8862 C   0  0  0  0  0  0  0  0  0  0  0  0
    7.1631    0.0648   18.5713 C   0  0  0  0  0  0  0  0  0  0  0  0
    8.1065   -0.4293   18.3422 H   0  0  0  0  0  0  0  0  0  0  0  0
    6.5454    0.6854   17.5563 N   0  0  0  0  0  0  0  0  0  0  0  0
    5.3840    1.3058   17.8187 C   0  0  0  0  0  0  0  0  0  0  0  0
    4.9090    1.8082   16.9760 H   0  0  0  0  0  0  0  0  0  0  0  0
    4.8033    1.3197   19.0907 C   0  0  0  0  0  0  0  0  0  0  0  0
    3.8694    1.8458   19.2450 H   0  0  0  0  0  0  0  0  0  0  0  0
    5.4441    0.6490   20.1432 C   0  0  0  0  0  0  0  0  0  0  0  0
    5.0417    0.6105   21.1538 H   0  0  0  0  0  0  0  0  0  0  0  0
  1  2  1  0
  2  3  2  3
  3  4  1  0
  4  5  1  0
  5  6  1  0
  5  7  2  0
  7  8  1  0
  8  9  1  0
  8 10  1  0
  8 11  1  0
  7 12  1  0
 12 13  1  0
 13 14  2  0
 14 15  1  0
 14 16  1  0
 16 17  2  0
 17 18  1  0
 17 19  1  0
 19 20  1  0
 19 21  2  0
 21 22  1  0
 12  3  1  0
 21 13  1  0
M  END
>  <cnnaffinity>  (1) 
4.55977

>  <plip>  (1) 
-0.07142857142857142

>  <filename>  (1) 
[H][N]=[c]1[s][c]([H])[c]([C]([H])([H])[Cl])[n]1-[c]1[c]([H])[n][c]([H])[c]([H])[c]1[H]

>  <combo1>  (1) 
-0.4810103160819143

$$$$
