
     RDKit          3D

 34 36  0  0  0  0  0  0  0  0999 V2000
    8.7094   -0.5889   21.0338 C   0  0  0  0  0  0  0  0  0  0  0  0
    7.3697   -0.6082   20.9151 C   0  0  0  0  0  0  0  0  0  0  0  0
    6.6593    0.0993   19.8090 C   0  0  0  0  0  0  0  0  0  0  0  0
    5.4248    0.7441   20.0077 C   0  0  0  0  0  0  0  0  0  0  0  0
    4.8022    1.3937   18.9398 C   0  0  0  0  0  0  0  0  0  0  0  0
    5.4282    1.3780   17.6934 C   0  0  0  0  0  0  0  0  0  0  0  0
    6.5974    0.7579   17.4638 N   0  0  0  0  0  0  0  0  0  0  0  0
    7.1858    0.1421   18.4971 C   0  0  0  0  0  0  0  0  0  0  0  0
    8.1172   -0.3777   18.2621 H   0  0  0  0  0  0  0  0  0  0  0  0
    4.9706    1.8736   16.8394 H   0  0  0  0  0  0  0  0  0  0  0  0
    3.8492    1.8976   19.0605 H   0  0  0  0  0  0  0  0  0  0  0  0
    4.9654    0.7509   20.9935 H   0  0  0  0  0  0  0  0  0  0  0  0
    6.5061   -1.3183   21.9609 C   0  0  0  0  0  0  0  0  0  0  0  0
    7.3035   -2.4295   22.6637 N   0  0  0  0  0  4  0  0  0  0  0  0
    6.6071   -3.2963   23.7089 C   0  0  0  0  0  0  0  0  0  0  0  0
    7.4247   -4.5053   24.1420 C   0  0  0  0  0  0  0  0  0  0  0  0
    7.9327   -5.3487   23.2619 N   0  0  0  0  0  0  0  0  0  0  0  0
    8.5651   -6.2453   24.0585 N   0  0  0  0  0  0  0  0  0  0  0  0
    8.3965   -5.9296   25.3523 C   0  0  0  0  0  0  0  0  0  0  0  0
    7.6796   -4.8262   25.4415 N   0  0  0  0  0  0  0  0  0  0  0  0
    8.7963   -6.5046   26.1844 H   0  0  0  0  0  0  0  0  0  0  0  0
    9.0129   -7.0577   23.6687 H   0  0  0  0  0  0  0  0  0  0  0  0
    6.4220   -2.7216   24.6201 H   0  0  0  0  0  0  0  0  0  0  0  0
    5.6501   -3.6547   23.3206 H   0  0  0  0  0  0  0  0  0  0  0  0
    8.5751   -1.8004   23.2421 C   0  0  0  0  0  0  0  0  0  0  0  0
    9.4680   -1.3736   22.0861 C   0  0  0  0  0  0  0  0  0  0  0  0
    9.9077   -2.2641   21.6171 H   0  0  0  0  0  0  0  0  0  0  0  0
   10.3031   -0.7838   22.4794 H   0  0  0  0  0  0  0  0  0  0  0  0
    9.0691   -2.5136   23.9047 H   0  0  0  0  0  0  0  0  0  0  0  0
    8.2851   -0.9310   23.8429 H   0  0  0  0  0  0  0  0  0  0  0  0
    7.6068   -3.0683   21.8836 H   0  0  0  0  0  0  0  0  0  0  0  0
    5.6092   -1.7264   21.4944 H   0  0  0  0  0  0  0  0  0  0  0  0
    6.1822   -0.5893   22.7125 H   0  0  0  0  0  0  0  0  0  0  0  0
    9.3134   -0.0004   20.3384 H   0  0  0  0  0  0  0  0  0  0  0  0
  1  2  2  0
  2  3  1  0
  3  4  2  0
  4  5  1  0
  5  6  2  0
  6  7  1  0
  7  8  2  0
  8  9  1  0
  6 10  1  0
  5 11  1  0
  4 12  1  0
  2 13  1  0
 13 14  1  0
 14 15  1  0
 15 16  1  0
 16 17  2  0
 17 18  1  0
 18 19  1  0
 19 20  2  0
 19 21  1  0
 18 22  1  0
 15 23  1  0
 15 24  1  0
 14 25  1  0
 25 26  1  0
 26 27  1  0
 26 28  1  0
 25 29  1  0
 25 30  1  0
 14 31  1  0
 13 32  1  0
 13 33  1  0
  1 34  1  0
 26  1  1  0
  8  3  1  0
 20 16  1  0
M  CHG  1  14   1
M  END
>  <cnnaffinity>  (1) 
4.84573

>  <plip>  (1) 
-0.10344827586206896

>  <filename>  (1) 
[H][C]1=[C]([c]2[c]([H])[n][c]([H])[c]([H])[c]2[H])[C]([H])([H])[N+]([H])([C]([H])([H])[c]2[n][c]([H])[n]([H])[n]2)[C]([H])([H])[C]1([H])[H]

>  <combo1>  (1) 
-0.6895996712051473

$$$$
