
     RDKit          3D

 39 40  0  0  0  0  0  0  0  0999 V2000
    6.6937    3.7905   24.7390 C   0  0  0  0  0  0  0  0  0  0  0  0
    8.1051    4.3018   24.5233 C   0  0  0  0  0  0  0  0  0  0  0  0
    8.8738    4.6930   25.6287 C   0  0  0  0  0  0  0  0  0  0  0  0
   10.1620    5.2139   25.4864 C   0  0  0  0  0  0  0  0  0  0  0  0
   10.7135    5.3472   24.2156 C   0  0  0  0  0  0  0  0  0  0  0  0
    9.9546    4.9787   23.1034 C   0  0  0  0  0  0  0  0  0  0  0  0
    8.6702    4.4246   23.2277 C   0  0  0  0  0  0  0  0  0  0  0  0
    7.8897    3.9843   21.9890 C   0  0  0  0  0  0  0  0  0  0  0  0
    8.3976    2.7206   21.2837 C   0  0  0  0  0  0  0  0  0  0  0  0
    8.2711    1.5070   22.1911 N   0  0  0  0  0  4  0  0  0  0  0  0
    8.6047    0.1809   21.5563 C   0  0  0  0  0  0  0  0  0  0  0  0
    7.4325   -0.6576   20.9770 C   0  0  0  0  0  0  0  0  0  0  0  0
    6.6258   -1.0322   22.0200 F   0  0  0  0  0  0  0  0  0  0  0  0
    8.0378   -1.8020   20.5321 F   0  0  0  0  0  0  0  0  0  0  0  0
    6.6139   -0.0216   19.8768 C   0  0  0  0  0  0  0  0  0  0  0  0
    5.3966    0.6382   20.1178 C   0  0  0  0  0  0  0  0  0  0  0  0
    4.7911    1.3125   19.0574 C   0  0  0  0  0  0  0  0  0  0  0  0
    5.4154    1.3018   17.8058 C   0  0  0  0  0  0  0  0  0  0  0  0
    6.5633    0.6557   17.5610 N   0  0  0  0  0  0  0  0  0  0  0  0
    7.1421    0.0093   18.5782 C   0  0  0  0  0  0  0  0  0  0  0  0
    8.0773   -0.4956   18.3411 H   0  0  0  0  0  0  0  0  0  0  0  0
    4.9812    1.8457   16.9703 H   0  0  0  0  0  0  0  0  0  0  0  0
    3.8682    1.8630   19.1938 H   0  0  0  0  0  0  0  0  0  0  0  0
    4.9507    0.6389   21.1166 H   0  0  0  0  0  0  0  0  0  0  0  0
    9.2938    0.3101   20.7206 H   0  0  0  0  0  0  0  0  0  0  0  0
    9.0764   -0.4881   22.2739 H   0  0  0  0  0  0  0  0  0  0  0  0
    7.2671    1.4681   22.5019 H   0  0  0  0  0  0  0  0  0  0  0  0
    8.8407    1.7417   23.0471 H   0  0  0  0  0  0  0  0  0  0  0  0
    9.4377    2.8597   20.9685 H   0  0  0  0  0  0  0  0  0  0  0  0
    7.8152    2.5111   20.3793 H   0  0  0  0  0  0  0  0  0  0  0  0
    6.8327    3.8409   22.2374 H   0  0  0  0  0  0  0  0  0  0  0  0
    7.9008    4.8057   21.2616 H   0  0  0  0  0  0  0  0  0  0  0  0
   10.3554    5.1915   22.1267 H   0  0  0  0  0  0  0  0  0  0  0  0
   11.7187    5.7443   24.0904 H   0  0  0  0  0  0  0  0  0  0  0  0
   10.7315    5.5227   26.3612 H   0  0  0  0  0  0  0  0  0  0  0  0
    8.4432    4.5991   26.6219 H   0  0  0  0  0  0  0  0  0  0  0  0
    5.9524    4.4448   24.2611 H   0  0  0  0  0  0  0  0  0  0  0  0
    6.4398    3.7289   25.8025 H   0  0  0  0  0  0  0  0  0  0  0  0
    6.5661    2.7856   24.3162 H   0  0  0  0  0  0  0  0  0  0  0  0
  1  2  1  0
  2  3  2  0
  3  4  1  0
  4  5  2  0
  5  6  1  0
  6  7  2  0
  7  8  1  0
  8  9  1  0
  9 10  1  0
 10 11  1  0
 11 12  1  0
 12 13  1  0
 12 14  1  0
 12 15  1  0
 15 16  2  0
 16 17  1  0
 17 18  2  0
 18 19  1  0
 19 20  2  0
 20 21  1  0
 18 22  1  0
 17 23  1  0
 16 24  1  0
 11 25  1  0
 11 26  1  0
 10 27  1  0
 10 28  1  0
  9 29  1  0
  9 30  1  0
  8 31  1  0
  8 32  1  0
  6 33  1  0
  5 34  1  0
  4 35  1  0
  3 36  1  0
  1 37  1  0
  1 38  1  0
  1 39  1  0
  7  2  1  0
 20 15  1  0
M  CHG  1  10   1
M  END
>  <cnnaffinity>  (1) 
4.48481

>  <plip>  (1) 
-0.10344827586206896

>  <filename>  (1) 
[H][c]1[n][c]([H])[c]([C]([F])([F])[C]([H])([H])[N+]([H])([H])[C]([H])([H])[C]([H])([H])[c]2[c]([H])[c]([H])[c]([H])[c]([H])[c]2[C]([H])([H])[H])[c]([H])[c]1[H]

>  <combo1>  (1) 
-0.5576178550709078

$$$$
