
     RDKit          3D

 28 29  0  0  0  0  0  0  0  0999 V2000
    8.6078   -3.2237   21.2798 H   0  0  0  0  0  0  0  0  0  0  0  0
    8.2288   -3.3145   22.2914 C   0  0  0  0  0  0  0  0  0  0  0  0
    7.2408   -2.5199   22.7055 C   0  0  0  0  0  0  0  0  0  0  0  0
    6.7038   -1.5151   21.8539 N   0  0  0  0  0  0  0  0  0  0  0  0
    5.7030   -1.4101   21.8224 H   0  0  0  0  0  0  0  0  0  0  0  0
    7.4052   -0.6977   21.0223 C   0  0  0  0  0  0  0  0  0  0  0  0
    9.0240   -0.4115   21.1641 S   0  0  0  0  0  0  0  0  0  0  0  0
    6.6014   -0.0409   19.9518 C   0  0  0  0  0  0  0  0  0  0  0  0
    7.1492    0.0232   18.6563 C   0  0  0  0  0  0  0  0  0  0  0  0
    8.1113   -0.4244   18.4157 H   0  0  0  0  0  0  0  0  0  0  0  0
    6.5670    0.6515   17.6296 N   0  0  0  0  0  0  0  0  0  0  0  0
    5.4062    1.2799   17.8598 C   0  0  0  0  0  0  0  0  0  0  0  0
    4.9503    1.7763   17.0022 H   0  0  0  0  0  0  0  0  0  0  0  0
    4.7926    1.3037   19.1151 C   0  0  0  0  0  0  0  0  0  0  0  0
    3.8720    1.8515   19.2471 H   0  0  0  0  0  0  0  0  0  0  0  0
    5.3886    0.6233   20.1787 C   0  0  0  0  0  0  0  0  0  0  0  0
    4.9583    0.6681   21.1811 H   0  0  0  0  0  0  0  0  0  0  0  0
    6.6260   -2.6665   24.0870 C   0  0  0  0  0  0  0  0  0  0  0  0
    6.4046   -1.6877   24.5196 H   0  0  0  0  0  0  0  0  0  0  0  0
    5.6729   -3.2059   23.9930 H   0  0  0  0  0  0  0  0  0  0  0  0
    7.5427   -3.4768   25.0285 C   0  0  0  0  0  0  0  0  0  0  0  0
    7.0028   -3.7909   25.9264 H   0  0  0  0  0  0  0  0  0  0  0  0
    8.3942   -2.8749   25.3696 H   0  0  0  0  0  0  0  0  0  0  0  0
    8.0952   -4.6601   24.3782 N   0  0  0  0  0  0  0  0  0  0  0  0
    7.3184   -5.2182   24.0371 H   0  0  0  0  0  0  0  0  0  0  0  0
    8.9008   -4.2904   23.2213 C   0  0  0  0  0  0  0  0  0  0  0  0
    9.8594   -3.8777   23.5737 H   0  0  0  0  0  0  0  0  0  0  0  0
    9.1390   -5.2035   22.6744 H   0  0  0  0  0  0  0  0  0  0  0  0
  1  2  1  0
  2  3  2  0
  3  4  1  0
  4  5  1  0
  4  6  1  0
  6  7  2  0
  6  8  1  0
  8  9  2  0
  9 10  1  0
  9 11  1  0
 11 12  2  0
 12 13  1  0
 12 14  1  0
 14 15  1  0
 14 16  2  0
 16 17  1  0
  3 18  1  0
 18 19  1  0
 18 20  1  0
 18 21  1  0
 21 22  1  0
 21 23  1  0
 21 24  1  0
 24 25  1  0
 24 26  1  0
 26 27  1  0
 26 28  1  0
 26  2  1  0
 16  8  1  0
M  END
>  <cnnaffinity>  (1) 
4.3731

>  <plip>  (1) 
-0.03571428571428571

>  <filename>  (1) 
[H][C]1=[C]([N]([H])[C](=[S])[c]2[c]([H])[n][c]([H])[c]([H])[c]2[H])[C]([H])([H])[C]([H])([H])[N]([H])[C]1([H])[H]

>  <combo1>  (1) 
-0.23738088615683642

$$$$
