
     RDKit          3D

 42 45  0  0  0  0  0  0  0  0999 V2000
    4.0177   -3.1950   26.9008 C   0  0  0  0  0  0  0  0  0  0  0  0
    4.8959   -2.3651   26.1614 O   0  0  0  0  0  0  0  0  0  0  0  0
    4.5354   -1.0731   25.8770 C   0  0  0  0  0  0  0  0  0  0  0  0
    3.3799   -0.4545   26.3820 C   0  0  0  0  0  0  0  0  0  0  0  0
    3.1000    0.8895   26.0887 C   0  0  0  0  0  0  0  0  0  0  0  0
    3.9831    1.6218   25.3011 C   0  0  0  0  0  0  0  0  0  0  0  0
    5.1254    1.0075   24.7721 C   0  0  0  0  0  0  0  0  0  0  0  0
    5.4100   -0.3357   25.0171 C   0  0  0  0  0  0  0  0  0  0  0  0
    6.5785   -0.9224   24.4739 N   0  0  0  0  0  0  0  0  0  0  0  0
    7.1450   -0.8255   23.2345 C   0  0  0  0  0  0  0  0  0  0  0  0
    6.5179   -0.1704   22.2652 N   0  0  0  0  0  0  0  0  0  0  0  0
    7.0592   -0.2472   21.0460 C   0  0  0  0  0  0  0  0  0  0  0  0
    6.3553    0.3685   19.9057 C   0  0  0  0  0  0  0  0  0  0  0  0
    5.1145    1.0151   19.9886 C   0  0  0  0  0  0  0  0  0  0  0  0
    4.5570    1.5259   18.8175 C   0  0  0  0  0  0  0  0  0  0  0  0
    5.2550    1.3839   17.6158 C   0  0  0  0  0  0  0  0  0  0  0  0
    6.4367    0.7636   17.5203 N   0  0  0  0  0  0  0  0  0  0  0  0
    6.9636    0.2766   18.6443 C   0  0  0  0  0  0  0  0  0  0  0  0
    7.9253   -0.2105   18.5348 H   0  0  0  0  0  0  0  0  0  0  0  0
    4.8587    1.7785   16.6850 H   0  0  0  0  0  0  0  0  0  0  0  0
    3.5999    2.0356   18.8169 H   0  0  0  0  0  0  0  0  0  0  0  0
    4.6048    1.1050   20.9480 H   0  0  0  0  0  0  0  0  0  0  0  0
    8.1994   -0.8562   20.7406 N   0  0  0  0  0  0  0  0  0  0  0  0
    8.8340   -1.4266   21.7499 C   0  0  0  0  0  0  0  0  0  0  0  0
    8.3765   -1.4614   23.0436 C   0  0  0  0  0  0  0  0  0  0  0  0
    9.3792   -2.1431   23.9496 C   0  0  0  0  0  0  0  0  0  0  0  0
   10.3751   -2.7878   22.9429 C   0  0  0  0  0  0  0  0  0  0  0  0
   10.1611   -2.0787   21.5850 C   0  0  0  0  0  0  0  0  0  0  0  0
   10.1249   -2.7328   20.7099 H   0  0  0  0  0  0  0  0  0  0  0  0
   10.9006   -1.2950   21.3789 H   0  0  0  0  0  0  0  0  0  0  0  0
   10.1192   -3.8443   22.8652 H   0  0  0  0  0  0  0  0  0  0  0  0
   11.4135   -2.7276   23.2723 H   0  0  0  0  0  0  0  0  0  0  0  0
    8.9025   -2.9014   24.5863 H   0  0  0  0  0  0  0  0  0  0  0  0
    9.8835   -1.4340   24.6218 H   0  0  0  0  0  0  0  0  0  0  0  0
    6.9247   -1.7138   24.9894 H   0  0  0  0  0  0  0  0  0  0  0  0
    5.8315    1.5495   24.1518 H   0  0  0  0  0  0  0  0  0  0  0  0
    3.7937    2.6695   25.0859 H   0  0  0  0  0  0  0  0  0  0  0  0
    2.1976    1.3549   26.4827 H   0  0  0  0  0  0  0  0  0  0  0  0
    2.6983   -1.0182   27.0083 H   0  0  0  0  0  0  0  0  0  0  0  0
    3.0541   -3.3245   26.3916 H   0  0  0  0  0  0  0  0  0  0  0  0
    3.8404   -2.8107   27.9134 H   0  0  0  0  0  0  0  0  0  0  0  0
    4.5082   -4.1649   26.9779 H   0  0  0  0  0  0  0  0  0  0  0  0
  1  2  1  0
  2  3  1  0
  3  4  2  0
  4  5  1  0
  5  6  2  0
  6  7  1  0
  7  8  2  0
  8  9  1  0
  9 10  1  0
 10 11  2  0
 11 12  1  0
 12 13  1  0
 13 14  2  0
 14 15  1  0
 15 16  2  0
 16 17  1  0
 17 18  2  0
 18 19  1  0
 16 20  1  0
 15 21  1  0
 14 22  1  0
 12 23  2  0
 23 24  1  0
 24 25  2  0
 25 26  1  0
 26 27  1  0
 27 28  1  0
 28 29  1  0
 28 30  1  0
 27 31  1  0
 27 32  1  0
 26 33  1  0
 26 34  1  0
  9 35  1  0
  7 36  1  0
  6 37  1  0
  5 38  1  0
  4 39  1  0
  1 40  1  0
  1 41  1  0
  1 42  1  0
  8  3  1  0
 25 10  1  0
 18 13  1  0
 28 24  1  0
M  END
>  <cnnaffinity>  (1) 
5.58061

>  <plip>  (1) 
-0.0

>  <filename>  (1) 
[H][c]1[n][c]([H])[c](-[c]2[n][c]([N]([H])[c]3[c]([H])[c]([H])[c]([H])[c]([H])[c]3[O][C]([H])([H])[H])[c]3[c]([n]2)[C]([H])([H])[C]([H])([H])[C]3([H])[H])[c]([H])[c]1[H]

>  <combo1>  (1) 
-5.842714157086922e-06

$$$$
