
     RDKit          3D

 29 31  0  0  0  0  0  0  0  0999 V2000
    6.7373   -0.3448   27.8218 H   0  0  0  0  0  0  0  0  0  0  0  0
    6.9483   -0.6969   26.8179 C   0  0  0  0  0  0  0  0  0  0  0  0
    7.1970   -2.0123   26.6798 N   0  0  0  0  0  0  0  0  0  0  0  0
    7.4388   -2.4189   25.4239 C   0  0  0  0  0  0  0  0  0  0  0  0
    7.6631   -3.4696   25.2845 H   0  0  0  0  0  0  0  0  0  0  0  0
    7.4327   -1.5395   24.3088 C   0  0  0  0  0  0  0  0  0  0  0  0
    7.8096   -1.9843   22.9177 C   0  0  1  0  0  0  0  0  0  0  0  0
    7.7528   -3.0738   22.8905 H   0  0  0  0  0  0  0  0  0  0  0  0
    6.7922   -1.5303   21.8769 C   0  0  0  0  0  0  0  0  0  0  0  0
    5.6923   -2.0016   21.7452 O   0  0  0  0  0  0  0  0  0  0  0  0
    7.3910   -0.6421   20.9879 N   0  0  0  0  0  0  0  0  0  0  0  0
    6.6829    0.0140   19.9116 C   0  0  0  0  0  0  0  0  0  0  0  0
    7.1851    0.0573   18.5889 C   0  0  0  0  0  0  0  0  0  0  0  0
    8.1343   -0.4207   18.3607 H   0  0  0  0  0  0  0  0  0  0  0  0
    6.5578    0.6651   17.5750 N   0  0  0  0  0  0  0  0  0  0  0  0
    5.4000    1.2886   17.8439 C   0  0  0  0  0  0  0  0  0  0  0  0
    4.9228    1.7867   17.0020 H   0  0  0  0  0  0  0  0  0  0  0  0
    4.8217    1.3018   19.1156 C   0  0  0  0  0  0  0  0  0  0  0  0
    3.8912    1.8309   19.2657 H   0  0  0  0  0  0  0  0  0  0  0  0
    5.4591    0.6371   20.1698 C   0  0  0  0  0  0  0  0  0  0  0  0
    5.0332    0.6013   21.1715 H   0  0  0  0  0  0  0  0  0  0  0  0
    8.7686   -0.5722   21.1986 C   0  0  0  0  0  0  0  0  0  0  0  0
    9.5331    0.0704   20.5242 O   0  0  0  0  0  0  0  0  0  0  0  0
    9.1463   -1.4353   22.3887 C   0  0  0  0  0  0  0  0  0  0  0  0
    9.6917   -0.8007   23.0961 H   0  0  0  0  0  0  0  0  0  0  0  0
    9.8335   -2.2146   22.0448 H   0  0  0  0  0  0  0  0  0  0  0  0
    7.1821   -0.2300   24.4618 N   0  0  0  0  0  0  0  0  0  0  0  0
    6.9465    0.1820   25.7239 C   0  0  0  0  0  0  0  0  0  0  0  0
    6.7565    1.2374   25.8678 H   0  0  0  0  0  0  0  0  0  0  0  0
  1  2  1  0
  2  3  2  0
  3  4  1  0
  4  5  1  0
  4  6  2  0
  6  7  1  0
  7  8  1  1
  7  9  1  0
  9 10  2  0
  9 11  1  0
 11 12  1  0
 12 13  2  0
 13 14  1  0
 13 15  1  0
 15 16  2  0
 16 17  1  0
 16 18  1  0
 18 19  1  0
 18 20  2  0
 20 21  1  0
 11 22  1  0
 22 23  2  0
 22 24  1  0
 24 25  1  0
 24 26  1  0
  6 27  1  0
 27 28  2  0
 28 29  1  0
 28  2  1  0
 24  7  1  0
 20 12  1  0
M  END
>  <cnnaffinity>  (1) 
4.94784

>  <plip>  (1) 
-0.10714285714285714

>  <filename>  (1) 
[H][c]1[n][c]([H])[c]([C@@]2([H])[C](=[O])[N]([c]3[c]([H])[n][c]([H])[c]([H])[c]3[H])[C](=[O])[C]2([H])[H])[n][c]1[H]

>  <combo1>  (1) 
-0.6950216969528746

$$$$
