
     RDKit          3D

 40 43  0  0  0  0  0  0  0  0999 V2000
    4.9038    1.7215   17.0579 H   0  0  0  0  0  0  0  0  0  0  0  0
    5.4732    1.2164   17.8334 C   0  0  0  0  0  0  0  0  0  0  0  0
    6.6275    0.6373   17.4501 N   0  0  0  0  0  0  0  0  0  0  0  0
    7.3665    0.0432   18.3969 C   0  0  0  0  0  0  0  0  0  0  0  0
    8.2822   -0.4409   18.0532 H   0  0  0  0  0  0  0  0  0  0  0  0
    7.0383    0.0116   19.7819 C   0  0  0  0  0  0  0  0  0  0  0  0
    7.9158   -0.5135   20.7420 N   0  0  0  0  0  0  0  0  0  0  0  0
    8.3126   -1.4167   20.5227 H   0  0  0  0  0  0  0  0  0  0  0  0
    7.7860   -0.2482   22.1722 C   0  0  0  0  0  0  0  0  0  0  0  0
    7.9850    1.2362   22.4453 C   0  0  1  0  0  0  0  0  0  0  0  0
    8.8095    1.6198   21.8384 H   0  0  0  0  0  0  0  0  0  0  0  0
    6.8947    2.2552   22.6744 C   0  0  0  0  0  0  0  0  0  0  0  0
    5.8695    1.9133   22.7701 H   0  0  0  0  0  0  0  0  0  0  0  0
    6.9772    3.2077   22.1493 H   0  0  0  0  0  0  0  0  0  0  0  0
    7.8501    1.9121   23.7896 C   0  0  2  0  0  0  0  0  0  0  0  0
    7.4074    1.3626   24.6255 H   0  0  0  0  0  0  0  0  0  0  0  0
    8.9453    2.8749   24.1729 C   0  0  0  0  0  0  0  0  0  0  0  0
    8.6661    4.1824   24.6056 C   0  0  0  0  0  0  0  0  0  0  0  0
    7.6290    4.4612   24.7881 H   0  0  0  0  0  0  0  0  0  0  0  0
    9.6961    5.1226   24.7440 C   0  0  0  0  0  0  0  0  0  0  0  0
    9.4593    6.1377   25.0542 H   0  0  0  0  0  0  0  0  0  0  0  0
   11.0179    4.7686   24.4458 C   0  0  0  0  0  0  0  0  0  0  0  0
   11.8095    5.5129   24.4931 H   0  0  0  0  0  0  0  0  0  0  0  0
   11.3149    3.4516   24.0823 C   0  0  0  0  0  0  0  0  0  0  0  0
   12.3332    3.1529   23.8472 H   0  0  0  0  0  0  0  0  0  0  0  0
   10.2876    2.5129   23.9747 C   0  0  0  0  0  0  0  0  0  0  0  0
   10.5170    1.4843   23.7089 H   0  0  0  0  0  0  0  0  0  0  0  0
    6.5785   -0.9118   22.8799 C   0  0  0  0  0  0  0  0  0  0  0  0
    5.9308   -0.2089   23.4086 H   0  0  0  0  0  0  0  0  0  0  0  0
    6.0048   -1.5107   22.1702 H   0  0  0  0  0  0  0  0  0  0  0  0
    7.5151   -1.7168   23.8048 C   0  0  0  0  0  0  0  0  0  0  0  0
    7.3808   -2.8023   23.8259 H   0  0  0  0  0  0  0  0  0  0  0  0
    7.4878   -1.3560   24.8381 H   0  0  0  0  0  0  0  0  0  0  0  0
    8.7157   -1.1956   22.9730 C   0  0  0  0  0  0  0  0  0  0  0  0
    9.5328   -0.7134   23.5132 H   0  0  0  0  0  0  0  0  0  0  0  0
    9.1578   -1.9641   22.3319 H   0  0  0  0  0  0  0  0  0  0  0  0
    5.7904    0.5573   20.1332 C   0  0  0  0  0  0  0  0  0  0  0  0
    5.4605    0.4958   21.1648 H   0  0  0  0  0  0  0  0  0  0  0  0
    5.0058    1.1747   19.1513 C   0  0  0  0  0  0  0  0  0  0  0  0
    4.0515    1.6290   19.4022 H   0  0  0  0  0  0  0  0  0  0  0  0
  1  2  1  0
  2  3  2  0
  3  4  1  0
  4  5  1  0
  4  6  2  0
  6  7  1  0
  7  8  1  0
  7  9  1  0
  9 10  1  0
 10 11  1  6
 10 12  1  0
 12 13  1  0
 12 14  1  0
 12 15  1  0
 15 16  1  1
 15 17  1  0
 17 18  2  0
 18 19  1  0
 18 20  1  0
 20 21  1  0
 20 22  2  0
 22 23  1  0
 22 24  1  0
 24 25  1  0
 24 26  2  0
 26 27  1  0
  9 28  1  0
 28 29  1  0
 28 30  1  0
 28 31  1  0
 31 32  1  0
 31 33  1  0
 31 34  1  0
 34 35  1  0
 34 36  1  0
  6 37  1  0
 37 38  1  0
 37 39  2  0
 39 40  1  0
 39  2  1  0
 34  9  1  0
 15 10  1  0
 26 17  1  0
M  END
>  <cnnaffinity>  (1) 
5.19303

>  <plip>  (1) 
-0.10344827586206896

>  <filename>  (1) 
[H][c]1[n][c]([H])[c]([N]([H])[C]2([C@@]3([H])[C]([H])([H])[C@]3([H])[c]3[c]([H])[c]([H])[c]([H])[c]([H])[c]3[H])[C]([H])([H])[C]([H])([H])[C]2([H])[H])[c]([H])[c]1[H]

>  <combo1>  (1) 
-0.6773410194725614

$$$$
