
     RDKit          3D

 31 33  0  0  0  0  0  0  0  0999 V2000
    4.9362    1.8346   16.9632 H   0  0  0  0  0  0  0  0  0  0  0  0
    5.4098    1.3323   17.8036 C   0  0  0  0  0  0  0  0  0  0  0  0
    6.5727    0.7133   17.5417 N   0  0  0  0  0  0  0  0  0  0  0  0
    7.1747    0.0687   18.5490 C   0  0  0  0  0  0  0  0  0  0  0  0
    8.1256   -0.4161   18.3206 H   0  0  0  0  0  0  0  0  0  0  0  0
    6.6353   -0.0161   19.8480 C   0  0  0  0  0  0  0  0  0  0  0  0
    7.3244   -0.7137   20.9081 N   0  0  0  0  0  0  0  0  0  0  0  0
    8.5831   -0.2738   21.2756 C   0  0  0  0  0  0  0  0  0  0  0  0
    8.9561    0.5856   20.7233 H   0  0  0  0  0  0  0  0  0  0  0  0
    9.3209   -0.8671   22.2651 C   0  0  0  0  0  0  0  0  0  0  0  0
   10.7071   -0.3693   22.5646 C   0  0  0  0  0  0  0  0  0  0  0  0
   11.8468   -1.1912   22.4934 C   0  0  0  0  0  0  0  0  0  0  0  0
   11.7002   -2.4996   22.2298 F   0  0  0  0  0  0  0  0  0  0  0  0
   13.1503   -0.7418   22.6949 C   0  0  0  0  0  0  0  0  0  0  0  0
   13.9457   -1.4589   22.5281 H   0  0  0  0  0  0  0  0  0  0  0  0
   13.3601    0.5750   23.0969 C   0  0  0  0  0  0  0  0  0  0  0  0
   14.3540    0.9362   23.3432 H   0  0  0  0  0  0  0  0  0  0  0  0
   12.2718    1.4425   23.1978 C   0  0  0  0  0  0  0  0  0  0  0  0
   12.3723    2.4645   23.5355 H   0  0  0  0  0  0  0  0  0  0  0  0
   10.9980    0.9715   22.8837 C   0  0  0  0  0  0  0  0  0  0  0  0
    9.9960    1.8659   22.9463 F   0  0  0  0  0  0  0  0  0  0  0  0
    8.7401   -1.9779   22.9677 C   0  0  0  0  0  0  0  0  0  0  0  0
    9.3108   -2.4843   23.7523 H   0  0  0  0  0  0  0  0  0  0  0  0
    7.4817   -2.3947   22.6610 C   0  0  0  0  0  0  0  0  0  0  0  0
    6.9818   -3.2076   23.1679 H   0  0  0  0  0  0  0  0  0  0  0  0
    6.6828   -1.8083   21.5937 C   0  0  0  0  0  0  0  0  0  0  0  0
    5.5817   -2.2316   21.2826 O   0  0  0  0  0  0  0  0  0  0  0  0
    5.4250    0.6370   20.1095 C   0  0  0  0  0  0  0  0  0  0  0  0
    5.0092    0.6137   21.1158 H   0  0  0  0  0  0  0  0  0  0  0  0
    4.8055    1.3265   19.0639 C   0  0  0  0  0  0  0  0  0  0  0  0
    3.8728    1.8583   19.2118 H   0  0  0  0  0  0  0  0  0  0  0  0
  1  2  1  0
  2  3  2  0
  3  4  1  0
  4  5  1  0
  4  6  2  0
  6  7  1  0
  7  8  1  0
  8  9  1  0
  8 10  2  0
 10 11  1  0
 11 12  2  0
 12 13  1  0
 12 14  1  0
 14 15  1  0
 14 16  2  0
 16 17  1  0
 16 18  1  0
 18 19  1  0
 18 20  2  0
 20 21  1  0
 10 22  1  0
 22 23  1  0
 22 24  2  0
 24 25  1  0
 24 26  1  0
 26 27  2  0
  6 28  1  0
 28 29  1  0
 28 30  2  0
 30 31  1  0
 30  2  1  0
 26  7  1  0
 20 11  1  0
M  END
>  <cnnaffinity>  (1) 
5.17769

>  <plip>  (1) 
-0.07142857142857142

>  <filename>  (1) 
[H][c]1[n][c]([H])[c](-[n]2[c]([H])[c](-[c]3[c]([F])[c]([H])[c]([H])[c]([H])[c]3[F])[c]([H])[c]([H])[c]2=[O])[c]([H])[c]1[H]

>  <combo1>  (1) 
-0.4336739779196642

$$$$
