
     RDKit          3D

 41 45  0  0  0  0  0  0  0  0999 V2000
    4.8029    1.2976   19.0797 C   0  0  0  0  0  0  0  0  0  0  0  0
    5.4244    1.2886   17.8258 C   0  0  0  0  0  0  0  0  0  0  0  0
    6.5873    0.6614   17.5904 N   0  0  0  0  0  0  0  0  0  0  0  0
    7.1676    0.0405   18.6254 C   0  0  0  0  0  0  0  0  0  0  0  0
    6.6395   -0.0119   19.9306 C   0  0  0  0  0  0  0  0  0  0  0  0
    7.3668   -0.7246   21.0516 C   0  0  0  0  0  0  0  0  0  0  0  0
    7.0287   -2.1814   21.2803 C   0  0  0  0  0  0  0  0  0  0  0  0
    7.9175   -3.1358   21.1841 N   0  0  0  0  0  0  0  0  0  0  0  0
    7.2230   -4.2707   21.5559 O   0  0  0  0  0  0  0  0  0  0  0  0
    5.9861   -3.8877   21.8900 C   0  0  0  0  0  0  0  0  0  0  0  0
    5.1106   -4.9422   22.5306 C   0  0  2  0  0  0  0  0  0  0  0  0
    3.6798   -4.4236   22.8183 C   0  0  0  0  0  0  0  0  0  0  0  0
    2.8448   -5.3305   23.7510 C   0  0  0  0  0  0  0  0  0  0  0  0
    3.6904   -5.7677   24.9618 C   0  0  1  0  0  0  0  0  0  0  0  0
    4.8926   -6.5837   24.4723 C   0  0  0  0  0  0  0  0  0  0  0  0
    5.7446   -5.4518   23.8776 C   0  0  2  0  0  0  0  0  0  0  0  0
    5.5792   -4.3818   24.9882 C   0  0  0  0  0  0  0  0  0  0  0  0
    4.3044   -4.6351   25.5983 O   0  0  0  0  0  0  0  0  0  0  0  0
    5.5844   -3.3557   24.5864 H   0  0  0  0  0  0  0  0  0  0  0  0
    6.3709   -4.4458   25.7450 H   0  0  0  0  0  0  0  0  0  0  0  0
    6.7924   -5.7421   23.7254 H   0  0  0  0  0  0  0  0  0  0  0  0
    4.6304   -7.3748   23.7564 H   0  0  0  0  0  0  0  0  0  0  0  0
    5.4009   -7.0347   25.3328 H   0  0  0  0  0  0  0  0  0  0  0  0
    3.0702   -6.2654   25.7195 H   0  0  0  0  0  0  0  0  0  0  0  0
    2.4757   -6.2322   23.2375 H   0  0  0  0  0  0  0  0  0  0  0  0
    1.9565   -4.7900   24.0962 H   0  0  0  0  0  0  0  0  0  0  0  0
    3.7974   -3.4561   23.3272 H   0  0  0  0  0  0  0  0  0  0  0  0
    3.1428   -4.2615   21.8898 H   0  0  0  0  0  0  0  0  0  0  0  0
    5.0699   -5.7872   21.8324 H   0  0  0  0  0  0  0  0  0  0  0  0
    5.7844   -2.6153   21.6846 N   0  0  0  0  0  0  0  0  0  0  0  0
    7.7568    0.1084   22.2794 C   0  0  0  0  0  0  0  0  0  0  0  0
    8.8011   -0.3141   21.2947 C   0  0  0  0  0  0  0  0  0  0  0  0
    9.4814   -1.1063   21.6002 H   0  0  0  0  0  0  0  0  0  0  0  0
    9.2259    0.4497   20.6448 H   0  0  0  0  0  0  0  0  0  0  0  0
    7.7350   -0.3708   23.2565 H   0  0  0  0  0  0  0  0  0  0  0  0
    7.4756    1.1628   22.2951 H   0  0  0  0  0  0  0  0  0  0  0  0
    5.4200    0.6391   20.1467 C   0  0  0  0  0  0  0  0  0  0  0  0
    4.9743    0.6240   21.1440 H   0  0  0  0  0  0  0  0  0  0  0  0
    8.1092   -0.4641   18.4108 H   0  0  0  0  0  0  0  0  0  0  0  0
    4.9744    1.8049   16.9774 H   0  0  0  0  0  0  0  0  0  0  0  0
    3.8619    1.8208   19.2047 H   0  0  0  0  0  0  0  0  0  0  0  0
  1  2  2  0
  2  3  1  0
  3  4  2  0
  4  5  1  0
  5  6  1  0
  6  7  1  0
  7  8  2  0
  8  9  1  0
  9 10  1  0
 10 11  1  0
 11 12  1  0
 12 13  1  0
 13 14  1  0
 14 15  1  0
 15 16  1  0
 16 17  1  0
 17 18  1  0
 17 19  1  0
 17 20  1  0
 16 21  1  6
 15 22  1  0
 15 23  1  0
 14 24  1  1
 13 25  1  0
 13 26  1  0
 12 27  1  0
 12 28  1  0
 11 29  1  6
 10 30  2  0
  6 31  1  0
 31 32  1  0
 32 33  1  0
 32 34  1  0
 31 35  1  0
 31 36  1  0
  5 37  2  0
 37 38  1  0
  4 39  1  0
  2 40  1  0
  1 41  1  0
 37  1  1  0
 32  6  1  0
 30  7  1  0
 16 11  1  0
 18 14  1  0
M  END
>  <cnnaffinity>  (1) 
5.33985

>  <plip>  (1) 
-0.06666666666666667

>  <filename>  (1) 
[H][c]1[n][c]([H])[c]([C]2([c]3[n][o][c]([C@]4([H])[C]([H])([H])[C]([H])([H])[C@]5([H])[O][C]([H])([H])[C@@]4([H])[C]5([H])[H])[n]3)[C]([H])([H])[C]2([H])[H])[c]([H])[c]1[H]

>  <combo1>  (1) 
-0.39905882247436886

$$$$
