
     RDKit          3D

 36 39  0  0  0  0  0  0  0  0999 V2000
   14.5859    5.6279   21.5909 Cl  0  0  0  0  0  0  0  0  0  0  0  0
   13.5076    4.6741   22.5666 C   0  0  0  0  0  0  0  0  0  0  0  0
   13.7674    3.3162   22.7632 C   0  0  0  0  0  0  0  0  0  0  0  0
   12.8454    2.5396   23.4694 C   0  0  0  0  0  0  0  0  0  0  0  0
   11.6874    3.1225   24.0112 C   0  0  0  0  0  0  0  0  0  0  0  0
   10.5043    2.1286   24.8861 S   0  0  0  0  0  0  0  0  0  0  0  0
    9.2887    1.8102   23.5660 C   0  0  0  0  0  0  0  0  0  0  0  0
    8.1199    0.9531   24.0791 C   0  0  0  0  0  0  0  0  0  0  0  0
    7.0285    0.8052   22.9916 C   0  0  0  0  0  0  0  0  0  0  0  0
    7.5179   -0.2840   22.1627 N   0  0  0  0  0  0  0  0  0  0  0  0
    8.3308   -1.1941   22.7597 C   0  0  0  0  0  0  0  0  0  0  0  0
    8.7273   -2.1112   21.9241 N   0  0  0  0  0  0  0  0  0  0  0  0
    8.1597   -1.7835   20.7080 N   0  0  0  0  0  0  0  0  0  0  0  0
    7.4385   -0.7013   20.8668 C   0  0  0  0  0  0  0  0  0  0  0  0
    6.6546   -0.0067   19.8470 C   0  0  0  0  0  0  0  0  0  0  0  0
    5.4380    0.6419   20.1048 C   0  0  0  0  0  0  0  0  0  0  0  0
    4.8106    1.3085   19.0550 C   0  0  0  0  0  0  0  0  0  0  0  0
    5.4182    1.3087   17.7946 C   0  0  0  0  0  0  0  0  0  0  0  0
    6.5643    0.6627   17.5302 N   0  0  0  0  0  0  0  0  0  0  0  0
    7.1539    0.0150   18.5372 C   0  0  0  0  0  0  0  0  0  0  0  0
    8.0757   -0.5146   18.3051 H   0  0  0  0  0  0  0  0  0  0  0  0
    4.9632    1.8417   16.9609 H   0  0  0  0  0  0  0  0  0  0  0  0
    3.8782    1.8380   19.2021 H   0  0  0  0  0  0  0  0  0  0  0  0
    4.9879    0.6221   21.0995 H   0  0  0  0  0  0  0  0  0  0  0  0
    8.6616   -0.7865   24.4295 S   0  0  0  0  0  0  0  0  0  0  0  0
    6.0608    0.5460   23.4427 H   0  0  0  0  0  0  0  0  0  0  0  0
    6.9053    1.7237   22.4075 H   0  0  0  0  0  0  0  0  0  0  0  0
    7.6997    1.3726   24.9959 H   0  0  0  0  0  0  0  0  0  0  0  0
    9.7842    1.2879   22.7395 H   0  0  0  0  0  0  0  0  0  0  0  0
    8.9089    2.7681   23.1909 H   0  0  0  0  0  0  0  0  0  0  0  0
   11.4631    4.4989   23.8499 C   0  0  0  0  0  0  0  0  0  0  0  0
   12.3665    5.2704   23.1119 C   0  0  0  0  0  0  0  0  0  0  0  0
   12.1692    6.3140   22.9343 H   0  0  0  0  0  0  0  0  0  0  0  0
   10.5623    4.9609   24.2546 H   0  0  0  0  0  0  0  0  0  0  0  0
   13.0108    1.4677   23.5610 H   0  0  0  0  0  0  0  0  0  0  0  0
   14.6798    2.8763   22.3779 H   0  0  0  0  0  0  0  0  0  0  0  0
  1  2  1  0
  2  3  2  0
  3  4  1  0
  4  5  2  0
  5  6  1  0
  6  7  1  0
  7  8  1  0
  8  9  1  0
  9 10  1  0
 10 11  1  0
 11 12  2  0
 12 13  1  0
 13 14  2  0
 14 15  1  0
 15 16  2  0
 16 17  1  0
 17 18  2  0
 18 19  1  0
 19 20  2  0
 20 21  1  0
 18 22  1  0
 17 23  1  0
 16 24  1  0
 11 25  1  0
  9 26  1  0
  9 27  1  0
  8 28  1  0
  7 29  1  0
  7 30  1  0
  5 31  1  0
 31 32  2  0
 32 33  1  0
 31 34  1  0
  4 35  1  0
  3 36  1  0
 32  2  1  0
 25  8  1  0
 14 10  1  0
 20 15  1  0
M  END
>  <cnnaffinity>  (1) 
5.77641

>  <plip>  (1) 
-0.06666666666666667

>  <filename>  (1) 
[H][c]1[n][c]([H])[c](-[c]2[n][n][c]3[n]2[C]([H])([H])[C]([H])([C]([H])([H])[S][c]2[c]([H])[c]([H])[c]([Cl])[c]([H])[c]2[H])[S]3)[c]([H])[c]1[H]

>  <combo1>  (1) 
-0.3556842479576241

$$$$
