
     RDKit          3D

 36 38  0  0  0  0  0  0  0  0999 V2000
    6.5258    2.8968   22.7170 Cl  0  0  0  0  0  0  0  0  0  0  0  0
    7.8635    4.0057   22.7526 C   0  0  0  0  0  0  0  0  0  0  0  0
    7.5916    5.3659   22.8715 C   0  0  0  0  0  0  0  0  0  0  0  0
    8.6781    6.2361   22.8749 C   0  0  0  0  0  0  0  0  0  0  0  0
    9.9520    5.8371   22.7922 N   0  0  0  0  0  0  0  0  0  0  0  0
   10.1758    4.5251   22.6915 C   0  0  0  0  0  0  0  0  0  0  0  0
    9.1815    3.5361   22.6690 C   0  0  0  0  0  0  0  0  0  0  0  0
    9.5688    2.0909   22.5471 C   0  0  0  0  0  0  0  0  0  0  0  0
    9.4491    1.7452   21.0793 N   0  0  0  0  0  4  0  0  0  0  0  0
    9.8102    0.3444   20.7648 C   0  0  0  0  0  0  0  0  0  0  0  0
    8.7565   -0.5239   21.3867 C   0  0  0  0  0  0  0  0  0  0  0  0
    8.8838   -1.3722   22.4648 C   0  0  0  0  0  0  0  0  0  0  0  0
    7.6466   -1.8702   22.7016 N   0  0  0  0  0  0  0  0  0  0  0  0
    6.7189   -1.4028   21.8568 N   0  0  0  0  0  0  0  0  0  0  0  0
    7.3708   -0.5711   21.0487 C   0  0  0  0  0  0  0  0  0  0  0  0
    6.6500    0.1009   19.9572 C   0  0  0  0  0  0  0  0  0  0  0  0
    5.4006    0.7148   20.1537 C   0  0  0  0  0  0  0  0  0  0  0  0
    4.7963    1.3442   19.0696 C   0  0  0  0  0  0  0  0  0  0  0  0
    5.4366    1.3087   17.8271 C   0  0  0  0  0  0  0  0  0  0  0  0
    6.5990    0.6702   17.6112 N   0  0  0  0  0  0  0  0  0  0  0  0
    7.1777    0.0778   18.6608 C   0  0  0  0  0  0  0  0  0  0  0  0
    8.1073   -0.4566   18.4605 H   0  0  0  0  0  0  0  0  0  0  0  0
    4.9992    1.8180   16.9718 H   0  0  0  0  0  0  0  0  0  0  0  0
    3.8558    1.8752   19.1764 H   0  0  0  0  0  0  0  0  0  0  0  0
    4.9186    0.6829   21.1324 H   0  0  0  0  0  0  0  0  0  0  0  0
    7.3711   -2.5236   23.4186 H   0  0  0  0  0  0  0  0  0  0  0  0
    9.7398   -1.6274   23.0771 H   0  0  0  0  0  0  0  0  0  0  0  0
   10.8191    0.0779   21.1188 H   0  0  0  0  0  0  0  0  0  0  0  0
    9.8176    0.1926   19.6877 H   0  0  0  0  0  0  0  0  0  0  0  0
    8.4125    1.7961   20.8946 H   0  0  0  0  0  0  0  0  0  0  0  0
    9.9270    2.5251   20.5798 H   0  0  0  0  0  0  0  0  0  0  0  0
    8.9035    1.4349   23.1172 H   0  0  0  0  0  0  0  0  0  0  0  0
   10.5910    1.9277   22.9130 H   0  0  0  0  0  0  0  0  0  0  0  0
   11.2210    4.2303   22.5990 H   0  0  0  0  0  0  0  0  0  0  0  0
    8.5176    7.3071   22.9640 H   0  0  0  0  0  0  0  0  0  0  0  0
    6.5738    5.7273   22.9640 H   0  0  0  0  0  0  0  0  0  0  0  0
  1  2  1  0
  2  3  2  0
  3  4  1  0
  4  5  2  0
  5  6  1  0
  6  7  2  0
  7  8  1  0
  8  9  1  0
  9 10  1  0
 10 11  1  0
 11 12  2  0
 12 13  1  0
 13 14  1  0
 14 15  2  0
 15 16  1  0
 16 17  2  0
 17 18  1  0
 18 19  2  0
 19 20  1  0
 20 21  2  0
 21 22  1  0
 19 23  1  0
 18 24  1  0
 17 25  1  0
 13 26  1  0
 12 27  1  0
 10 28  1  0
 10 29  1  0
  9 30  1  0
  9 31  1  0
  8 32  1  0
  8 33  1  0
  6 34  1  0
  4 35  1  0
  3 36  1  0
  7  2  1  0
 15 11  1  0
 21 16  1  0
M  CHG  1   9   1
M  END
>  <cnnaffinity>  (1) 
5.27354

>  <plip>  (1) 
-0.10714285714285714

>  <filename>  (1) 
[H][c]1[n][c]([H])[c](-[c]2[n][n]([H])[c]([H])[c]2[C]([H])([H])[N+]([H])([H])[C]([H])([H])[c]2[c]([H])[n][c]([H])[c]([H])[c]2[Cl])[c]([H])[c]1[H]

>  <combo1>  (1) 
-0.6261889008844359

$$$$
