
     RDKit          3D

 39 41  0  0  0  0  0  0  0  0999 V2000
    9.6660   -0.0746   20.9543 C   0  0  0  0  0  0  0  0  0  0  0  0
    8.5517   -1.1237   20.9666 C   0  0  0  0  0  0  0  0  0  0  0  0
    7.2493   -0.5397   21.0205 O   0  0  0  0  0  0  0  0  0  0  0  0
    6.6819    0.0309   19.9244 C   0  0  0  0  0  0  0  0  0  0  0  0
    5.4495    0.6705   20.1389 C   0  0  0  0  0  0  0  0  0  0  0  0
    4.8385    1.3067   19.0606 C   0  0  0  0  0  0  0  0  0  0  0  0
    5.4600    1.2749   17.8051 C   0  0  0  0  0  0  0  0  0  0  0  0
    6.6154    0.6362   17.5824 N   0  0  0  0  0  0  0  0  0  0  0  0
    7.2102    0.0258   18.6184 C   0  0  0  0  0  0  0  0  0  0  0  0
    8.1464   -0.4847   18.3972 H   0  0  0  0  0  0  0  0  0  0  0  0
    5.0143    1.7719   16.9471 H   0  0  0  0  0  0  0  0  0  0  0  0
    3.8993    1.8362   19.1766 H   0  0  0  0  0  0  0  0  0  0  0  0
    5.0202    0.6560   21.1417 H   0  0  0  0  0  0  0  0  0  0  0  0
    8.7376   -2.1275   22.1232 C   0  0  0  0  0  0  0  0  0  0  0  0
    9.6283   -2.9367   22.0280 O   0  0  0  0  0  0  0  0  0  0  0  0
    7.8695   -2.0993   23.2439 N   0  0  0  0  0  0  0  0  0  0  0  0
    7.4337   -0.8432   23.8732 C   0  0  0  0  0  0  0  0  0  0  0  0
    7.6909   -0.8346   24.9405 H   0  0  0  0  0  0  0  0  0  0  0  0
    6.3462   -0.7212   23.7856 H   0  0  0  0  0  0  0  0  0  0  0  0
    7.9240    0.0014   23.3922 H   0  0  0  0  0  0  0  0  0  0  0  0
    7.2272   -3.2880   23.5746 C   0  0  0  0  0  0  0  0  0  0  0  0
    6.3628   -3.3641   24.7653 C   0  0  0  0  0  0  0  0  0  0  0  0
    5.6534   -4.4236   25.0814 N   0  0  0  0  0  0  0  0  0  0  0  0
    5.7594   -5.4879   24.2027 C   0  0  0  0  0  0  0  0  0  0  0  0
    4.9670   -6.6423   24.4078 C   0  0  0  0  0  0  0  0  0  0  0  0
    5.0819   -7.7054   23.5388 C   0  0  0  0  0  0  0  0  0  0  0  0
    6.0401   -7.6942   22.4896 C   0  0  0  0  0  0  0  0  0  0  0  0
    6.7831   -6.5641   22.2325 C   0  0  0  0  0  0  0  0  0  0  0  0
    6.6462   -5.4288   23.0669 C   0  0  0  0  0  0  0  0  0  0  0  0
    7.3743   -4.3127   22.7579 N   0  0  0  0  0  0  0  0  0  0  0  0
    7.4729   -6.4914   21.3984 H   0  0  0  0  0  0  0  0  0  0  0  0
    6.2118   -8.5883   21.8953 H   0  0  0  0  0  0  0  0  0  0  0  0
    4.4086   -8.5453   23.6360 H   0  0  0  0  0  0  0  0  0  0  0  0
    4.2994   -6.6491   25.2651 H   0  0  0  0  0  0  0  0  0  0  0  0
    6.2679   -2.4994   25.4117 H   0  0  0  0  0  0  0  0  0  0  0  0
    8.6353   -1.7579   20.0729 H   0  0  0  0  0  0  0  0  0  0  0  0
   10.6356   -0.5776   20.8766 H   0  0  0  0  0  0  0  0  0  0  0  0
    9.6518    0.5247   21.8708 H   0  0  0  0  0  0  0  0  0  0  0  0
    9.5585    0.6024   20.1027 H   0  0  0  0  0  0  0  0  0  0  0  0
  1  2  1  0
  2  3  1  0
  3  4  1  0
  4  5  2  0
  5  6  1  0
  6  7  2  0
  7  8  1  0
  8  9  2  0
  9 10  1  0
  7 11  1  0
  6 12  1  0
  5 13  1  0
  2 14  1  0
 14 15  2  0
 14 16  1  0
 16 17  1  0
 17 18  1  0
 17 19  1  0
 17 20  1  0
 16 21  1  0
 21 22  2  0
 22 23  1  0
 23 24  2  0
 24 25  1  0
 25 26  2  0
 26 27  1  0
 27 28  2  0
 28 29  1  0
 29 30  2  0
 28 31  1  0
 27 32  1  0
 26 33  1  0
 25 34  1  0
 22 35  1  0
  2 36  1  0
  1 37  1  0
  1 38  1  0
  1 39  1  0
  9  4  1  0
 30 21  1  0
 29 24  1  0
M  END
>  <cnnaffinity>  (1) 
5.62554

>  <plip>  (1) 
-0.06666666666666667

>  <filename>  (1) 
[H][c]1[n][c]2[c]([H])[c]([H])[c]([H])[c]([H])[c]2[n][c]1[N]([C](=[O])[C]([H])([O][c]1[c]([H])[n][c]([H])[c]([H])[c]1[H])[C]([H])([H])[H])[C]([H])([H])[H]

>  <combo1>  (1) 
-0.40543424325665434

$$$$
