
     RDKit          3D

 27 29  0  0  0  0  0  0  0  0999 V2000
    4.9134    1.7771   17.0000 H   0  0  0  0  0  0  0  0  0  0  0  0
    5.4021    1.2934   17.8431 C   0  0  0  0  0  0  0  0  0  0  0  0
    6.5645    0.6737   17.5820 N   0  0  0  0  0  0  0  0  0  0  0  0
    7.1730    0.0527   18.5983 C   0  0  0  0  0  0  0  0  0  0  0  0
    8.1241   -0.4269   18.3828 H   0  0  0  0  0  0  0  0  0  0  0  0
    6.6431   -0.0098   19.8993 C   0  0  0  0  0  0  0  0  0  0  0  0
    7.3289   -0.7159   20.9415 N   0  0  0  0  0  0  0  0  0  0  0  0
    6.5593   -1.6061   21.6506 N   0  0  0  0  0  0  0  0  0  0  0  0
    7.1397   -2.2853   22.6157 C   0  0  0  0  0  0  0  0  0  0  0  0
    6.3271   -3.2528   23.3589 C   0  0  0  0  0  0  0  0  0  0  0  0
    5.0150   -3.4948   23.1194 C   0  0  0  0  0  0  0  0  0  0  0  0
    4.3279   -3.0776   22.3935 H   0  0  0  0  0  0  0  0  0  0  0  0
    4.5510   -4.4380   23.9733 O   0  0  0  0  0  0  0  0  0  0  0  0
    5.5890   -4.8016   24.7771 C   0  0  0  0  0  0  0  0  0  0  0  0
    5.4027   -5.5541   25.5314 H   0  0  0  0  0  0  0  0  0  0  0  0
    6.7019   -4.1149   24.4513 C   0  0  0  0  0  0  0  0  0  0  0  0
    7.6682   -4.2029   24.9257 H   0  0  0  0  0  0  0  0  0  0  0  0
    8.5299   -2.1036   22.9626 C   0  0  0  0  0  0  0  0  0  0  0  0
    8.9689   -2.6853   23.7731 H   0  0  0  0  0  0  0  0  0  0  0  0
    9.2792   -1.2012   22.2820 C   0  0  0  0  0  0  0  0  0  0  0  0
   10.3236   -0.9973   22.4840 H   0  0  0  0  0  0  0  0  0  0  0  0
    8.7175   -0.4000   21.2028 C   0  0  0  0  0  0  0  0  0  0  0  0
    9.3314    0.4374   20.5640 O   0  0  0  0  0  0  0  0  0  0  0  0
    5.4363    0.6437   20.1653 C   0  0  0  0  0  0  0  0  0  0  0  0
    5.0163    0.6075   21.1710 H   0  0  0  0  0  0  0  0  0  0  0  0
    4.8087    1.3159   19.1122 C   0  0  0  0  0  0  0  0  0  0  0  0
    3.8731    1.8460   19.2650 H   0  0  0  0  0  0  0  0  0  0  0  0
  1  2  1  0
  2  3  2  0
  3  4  1  0
  4  5  1  0
  4  6  2  0
  6  7  1  0
  7  8  1  0
  8  9  2  0
  9 10  1  0
 10 11  2  0
 11 12  1  0
 11 13  1  0
 13 14  1  0
 14 15  1  0
 14 16  2  0
 16 17  1  0
  9 18  1  0
 18 19  1  0
 18 20  2  0
 20 21  1  0
 20 22  1  0
 22 23  2  0
  6 24  1  0
 24 25  1  0
 24 26  2  0
 26 27  1  0
 26  2  1  0
 22  7  1  0
 16 10  1  0
M  END
>  <cnnaffinity>  (1) 
4.78959

>  <plip>  (1) 
-0.07142857142857142

>  <filename>  (1) 
[H][c]1[n][c]([H])[c](-[n]2[n][c](-[c]3[c]([H])[o][c]([H])[c]3[H])[c]([H])[c]([H])[c]2=[O])[c]([H])[c]1[H]

>  <combo1>  (1) 
-0.47667913901392417

$$$$
