
     RDKit          3D

 32 34  0  0  0  0  0  0  0  0999 V2000
    6.8966   -2.1019   21.1820 C   0  0  0  0  0  0  0  0  0  0  0  0
    7.1098   -0.5833   21.1867 C   0  0  0  0  0  0  0  0  0  0  0  0
    8.5290   -0.3131   21.2591 N   0  0  0  0  0  0  0  0  0  0  0  0
    9.1145    0.8725   21.6701 C   0  0  0  0  0  0  0  0  0  0  0  0
    8.3256    2.0001   22.0116 C   0  0  0  0  0  0  0  0  0  0  0  0
    8.9012    3.1919   22.4268 C   0  0  0  0  0  0  0  0  0  0  0  0
   10.3028    3.2787   22.4890 C   0  0  0  0  0  0  0  0  0  0  0  0
   11.2540    4.6835   22.8685 S   0  0  0  0  0  0  0  0  0  0  0  0
   12.7240    3.7992   22.6032 C   0  0  0  0  0  0  0  0  0  0  0  0
   12.5133    2.5012   22.2872 C   0  0  0  0  0  0  0  0  0  0  0  0
   11.1125    2.1640   22.1834 C   0  0  0  0  0  0  0  0  0  0  0  0
   10.5047    0.9533   21.7838 C   0  0  0  0  0  0  0  0  0  0  0  0
   11.1029    0.0695   21.5816 H   0  0  0  0  0  0  0  0  0  0  0  0
   13.3110    1.7839   22.1388 H   0  0  0  0  0  0  0  0  0  0  0  0
   13.6673    4.3270   22.6871 H   0  0  0  0  0  0  0  0  0  0  0  0
    8.2834    4.0426   22.7024 H   0  0  0  0  0  0  0  0  0  0  0  0
    7.2496    1.9239   21.9202 H   0  0  0  0  0  0  0  0  0  0  0  0
    9.1407   -0.9784   20.8203 H   0  0  0  0  0  0  0  0  0  0  0  0
    6.4506    0.1176   19.9995 C   0  0  0  0  0  0  0  0  0  0  0  0
    5.2229    0.7920   20.1077 C   0  0  0  0  0  0  0  0  0  0  0  0
    4.6731    1.3977   18.9736 C   0  0  0  0  0  0  0  0  0  0  0  0
    5.3737    1.3223   17.7664 C   0  0  0  0  0  0  0  0  0  0  0  0
    6.5460    0.6850   17.6404 N   0  0  0  0  0  0  0  0  0  0  0  0
    7.0632    0.1120   18.7359 C   0  0  0  0  0  0  0  0  0  0  0  0
    8.0251   -0.3757   18.5818 H   0  0  0  0  0  0  0  0  0  0  0  0
    4.9816    1.7850   16.8613 H   0  0  0  0  0  0  0  0  0  0  0  0
    3.7353    1.9419   19.0111 H   0  0  0  0  0  0  0  0  0  0  0  0
    4.7077    0.8625   21.0682 H   0  0  0  0  0  0  0  0  0  0  0  0
    6.6410   -0.1854   22.0987 H   0  0  0  0  0  0  0  0  0  0  0  0
    7.0450   -2.5123   20.1808 H   0  0  0  0  0  0  0  0  0  0  0  0
    5.8862   -2.3702   21.5093 H   0  0  0  0  0  0  0  0  0  0  0  0
    7.6042   -2.5930   21.8582 H   0  0  0  0  0  0  0  0  0  0  0  0
  1  2  1  0
  2  3  1  0
  3  4  1  0
  4  5  2  0
  5  6  1  0
  6  7  2  0
  7  8  1  0
  8  9  1  0
  9 10  2  0
 10 11  1  0
 11 12  2  0
 12 13  1  0
 10 14  1  0
  9 15  1  0
  6 16  1  0
  5 17  1  0
  3 18  1  0
  2 19  1  0
 19 20  2  0
 20 21  1  0
 21 22  2  0
 22 23  1  0
 23 24  2  0
 24 25  1  0
 22 26  1  0
 21 27  1  0
 20 28  1  0
  2 29  1  0
  1 30  1  0
  1 31  1  0
  1 32  1  0
 12  4  1  0
 24 19  1  0
 11  7  1  0
M  END
>  <cnnaffinity>  (1) 
5.07033

>  <plip>  (1) 
-0.034482758620689655

>  <filename>  (1) 
[H][c]1[n][c]([H])[c]([C]([H])([N]([H])[c]2[c]([H])[c]([H])[c]3[s][c]([H])[c]([H])[c]3[c]2[H])[C]([H])([H])[H])[c]([H])[c]1[H]

>  <combo1>  (1) 
-0.22912452202177155

$$$$
