
     RDKit          3D

 32 34  0  0  0  0  0  0  0  0999 V2000
    8.7580   -0.0831   21.2866 C   0  0  0  0  0  0  0  0  0  0  0  0
    7.3746   -0.7351   21.1023 C   0  0  0  0  0  0  0  0  0  0  0  0
    7.4333   -2.1616   20.8698 N   0  0  0  0  0  0  0  0  0  0  0  0
    7.7493   -3.1268   21.8016 C   0  0  0  0  0  0  0  0  0  0  0  0
    7.8358   -4.4739   21.3694 C   0  0  0  0  0  0  0  0  0  0  0  0
    8.2592   -5.4855   22.2423 C   0  0  0  0  0  0  0  0  0  0  0  0
    8.5124   -5.1502   23.5624 C   0  0  0  0  0  0  0  0  0  0  0  0
    8.8885   -5.8442   24.7072 N   0  0  0  0  0  0  0  0  0  0  0  0
    8.8546   -5.0091   25.7981 C   0  0  0  0  0  0  0  0  0  0  0  0
    9.0828   -5.2689   26.9434 O   0  0  0  0  0  0  0  0  0  0  0  0
    8.4893   -3.7622   25.3442 O   0  0  0  0  0  0  0  0  0  0  0  0
    8.3052   -3.8388   23.9959 C   0  0  0  0  0  0  0  0  0  0  0  0
    7.9621   -2.8025   23.1586 C   0  0  0  0  0  0  0  0  0  0  0  0
    7.8416   -1.8035   23.5544 H   0  0  0  0  0  0  0  0  0  0  0  0
    9.1857   -6.7912   24.8385 H   0  0  0  0  0  0  0  0  0  0  0  0
    8.3810   -6.5095   21.9193 H   0  0  0  0  0  0  0  0  0  0  0  0
    7.5285   -4.7162   20.3537 H   0  0  0  0  0  0  0  0  0  0  0  0
    7.4615   -2.4592   19.9082 H   0  0  0  0  0  0  0  0  0  0  0  0
    6.6248   -0.0932   19.9562 C   0  0  0  0  0  0  0  0  0  0  0  0
    5.4280    0.6052   20.1530 C   0  0  0  0  0  0  0  0  0  0  0  0
    4.8500    1.2739   19.0712 C   0  0  0  0  0  0  0  0  0  0  0  0
    5.4906    1.2224   17.8278 C   0  0  0  0  0  0  0  0  0  0  0  0
    6.6175    0.5258   17.6107 N   0  0  0  0  0  0  0  0  0  0  0  0
    7.1524   -0.1192   18.6582 C   0  0  0  0  0  0  0  0  0  0  0  0
    8.0685   -0.6712   18.4425 H   0  0  0  0  0  0  0  0  0  0  0  0
    5.0648    1.7392   16.9659 H   0  0  0  0  0  0  0  0  0  0  0  0
    3.9250    1.8321   19.1801 H   0  0  0  0  0  0  0  0  0  0  0  0
    4.9580    0.6230   21.1397 H   0  0  0  0  0  0  0  0  0  0  0  0
    6.7894   -0.5649   22.0232 H   0  0  0  0  0  0  0  0  0  0  0  0
    8.6314    0.9853   21.4936 H   0  0  0  0  0  0  0  0  0  0  0  0
    9.3850   -0.1771   20.3902 H   0  0  0  0  0  0  0  0  0  0  0  0
    9.2916   -0.5468   22.1201 H   0  0  0  0  0  0  0  0  0  0  0  0
  1  2  1  0
  2  3  1  0
  3  4  1  0
  4  5  2  0
  5  6  1  0
  6  7  2  0
  7  8  1  0
  8  9  1  0
  9 10  2  0
  9 11  1  0
 11 12  1  0
 12 13  2  0
 13 14  1  0
  8 15  1  0
  6 16  1  0
  5 17  1  0
  3 18  1  0
  2 19  1  0
 19 20  2  0
 20 21  1  0
 21 22  2  0
 22 23  1  0
 23 24  2  0
 24 25  1  0
 22 26  1  0
 21 27  1  0
 20 28  1  0
  2 29  1  0
  1 30  1  0
  1 31  1  0
  1 32  1  0
 13  4  1  0
 24 19  1  0
 12  7  1  0
M  END
>  <cnnaffinity>  (1) 
5.00887

>  <plip>  (1) 
-0.13793103448275862

>  <filename>  (1) 
[H][c]1[n][c]([H])[c]([C]([H])([N]([H])[c]2[c]([H])[c]([H])[c]3[c]([o][c](=[O])[n]3[H])[c]2[H])[C]([H])([H])[H])[c]([H])[c]1[H]

>  <combo1>  (1) 
-0.9021293479758

$$$$
