
     RDKit          3D

 29 31  0  0  0  0  0  0  0  0999 V2000
    5.4729   -3.1950   17.4445 H   0  0  0  0  0  0  0  0  0  0  0  0
    5.5798   -3.3092   18.5199 C   0  0  0  0  0  0  0  0  0  0  0  0
    6.0032   -4.4439   19.1626 N   0  0  0  0  0  0  0  0  0  0  0  0
    6.0853   -4.0479   20.4119 C   0  0  0  0  0  0  0  0  0  0  0  0
    6.3718   -4.6537   21.2672 H   0  0  0  0  0  0  0  0  0  0  0  0
    5.6803   -2.7720   20.5294 N   0  0  0  0  0  0  0  0  0  0  0  0
    5.7186   -1.8862   21.6742 C   0  0  0  0  0  0  0  0  0  0  0  0
    4.9809   -1.1167   21.4474 H   0  0  0  0  0  0  0  0  0  0  0  0
    5.4010   -2.4604   22.5564 H   0  0  0  0  0  0  0  0  0  0  0  0
    6.9928   -1.2666   21.9408 N   0  0  0  0  0  0  0  0  0  0  0  0
    7.6399   -0.4723   21.0007 C   0  0  0  0  0  0  0  0  0  0  0  0
    6.8918    0.2786   19.9904 C   0  0  0  0  0  0  0  0  0  0  0  0
    7.3966    0.1980   18.6932 C   0  0  0  0  0  0  0  0  0  0  0  0
    8.3732   -0.2584   18.5235 H   0  0  0  0  0  0  0  0  0  0  0  0
    6.7400    0.6484   17.6222 N   0  0  0  0  0  0  0  0  0  0  0  0
    5.5517    1.2401   17.8267 C   0  0  0  0  0  0  0  0  0  0  0  0
    5.0369    1.5887   16.9345 H   0  0  0  0  0  0  0  0  0  0  0  0
    5.0020    1.4461   19.0949 C   0  0  0  0  0  0  0  0  0  0  0  0
    4.0516    1.9556   19.1973 H   0  0  0  0  0  0  0  0  0  0  0  0
    5.6968    0.9751   20.2106 C   0  0  0  0  0  0  0  0  0  0  0  0
    5.3183    1.1471   21.2213 H   0  0  0  0  0  0  0  0  0  0  0  0
    8.9179   -0.4803   21.0480 N   0  0  0  0  0  0  0  0  0  0  0  0
    9.3020   -1.2984   22.1958 C   0  0  0  0  0  0  0  0  0  0  0  0
    9.7168   -0.6434   22.9758 H   0  0  0  0  0  0  0  0  0  0  0  0
   10.0806   -2.0071   21.8888 H   0  0  0  0  0  0  0  0  0  0  0  0
    8.0155   -2.0103   22.6702 C   0  0  0  0  0  0  0  0  0  0  0  0
    7.8442   -1.9547   23.7515 H   0  0  0  0  0  0  0  0  0  0  0  0
    8.0168   -3.0775   22.3963 H   0  0  0  0  0  0  0  0  0  0  0  0
    5.3261   -2.3010   19.3143 N   0  0  0  0  0  0  0  0  0  0  0  0
  1  2  1  0
  2  3  1  0
  3  4  2  0
  4  5  1  0
  4  6  1  0
  6  7  1  0
  7  8  1  0
  7  9  1  0
  7 10  1  0
 10 11  1  0
 11 12  1  0
 12 13  2  0
 13 14  1  0
 13 15  1  0
 15 16  2  0
 16 17  1  0
 16 18  1  0
 18 19  1  0
 18 20  2  0
 20 21  1  0
 11 22  2  0
 22 23  1  0
 23 24  1  0
 23 25  1  0
 23 26  1  0
 26 27  1  0
 26 28  1  0
  6 29  1  0
 29  2  2  0
 26 10  1  0
 20 12  1  0
M  END
>  <cnnaffinity>  (1) 
4.45024

>  <plip>  (1) 
-0.1724137931034483

>  <filename>  (1) 
[H][c]1[n][c]([H])[n]([C]([H])([H])[N]2[C]([c]3[c]([H])[n][c]([H])[c]([H])[c]3[H])=[N][C]([H])([H])[C]2([H])[H])[n]1

>  <combo1>  (1) 
-1.1204855867248602

$$$$
