
     RDKit          3D

 39 42  0  0  0  0  0  0  0  0999 V2000
   11.8994    1.5262   21.8966 N   0  0  0  0  0  0  0  0  0  0  0  0
   11.0644    2.4507   22.4577 C   0  0  0  0  0  0  0  0  0  0  0  0
   11.7059    3.4093   23.1376 N   0  0  0  0  0  0  0  0  0  0  0  0
   10.9255    4.3560   23.6959 C   0  0  0  0  0  0  0  0  0  0  0  0
    9.5211    4.3293   23.6377 C   0  0  0  0  0  0  0  0  0  0  0  0
    8.8624    3.3242   23.0290 N   0  0  0  0  0  0  0  0  0  0  0  0
    9.6359    2.4058   22.4023 C   0  0  0  0  0  0  0  0  0  0  0  0
    9.1099    1.2826   21.5726 C   0  0  0  0  0  0  0  0  0  0  0  0
    9.6301    1.0079   20.4878 O   0  0  0  0  0  0  0  0  0  0  0  0
    8.0789    0.5250   22.0773 N   0  0  0  0  0  0  0  0  0  0  0  0
    7.8425    0.2755   23.5026 C   0  0  0  0  0  0  0  0  0  0  0  0
    6.7394   -0.7945   23.5455 C   0  0  0  0  0  0  0  0  0  0  0  0
    6.6232   -1.3667   22.1313 C   0  0  2  0  0  0  0  0  0  0  0  0
    7.5533   -2.5544   21.7773 C   0  0  0  0  0  0  0  0  0  0  0  0
    8.3497   -1.6295   20.8316 C   0  0  0  0  0  0  0  0  0  0  0  0
    7.4321   -0.4416   21.1965 C   0  0  2  0  0  0  0  0  0  0  0  0
    6.6827    0.2118   20.0495 C   0  0  0  0  0  0  0  0  0  0  0  0
    5.4187    0.8023   20.1992 C   0  0  0  0  0  0  0  0  0  0  0  0
    4.7963    1.3598   19.0808 C   0  0  0  0  0  0  0  0  0  0  0  0
    5.4561    1.3144   17.8470 C   0  0  0  0  0  0  0  0  0  0  0  0
    6.6793    0.7916   17.6856 N   0  0  0  0  0  0  0  0  0  0  0  0
    7.2724    0.2895   18.7751 C   0  0  0  0  0  0  0  0  0  0  0  0
    8.2851   -0.0837   18.6345 H   0  0  0  0  0  0  0  0  0  0  0  0
    4.9975    1.7248   16.9511 H   0  0  0  0  0  0  0  0  0  0  0  0
    3.8189    1.8253   19.1434 H   0  0  0  0  0  0  0  0  0  0  0  0
    4.9295    0.8332   21.1759 H   0  0  0  0  0  0  0  0  0  0  0  0
    8.2558   -1.8400   19.7782 H   0  0  0  0  0  0  0  0  0  0  0  0
    9.4012   -1.4733   21.0812 H   0  0  0  0  0  0  0  0  0  0  0  0
    8.1189   -2.9370   22.6327 H   0  0  0  0  0  0  0  0  0  0  0  0
    7.0567   -3.3990   21.2899 H   0  0  0  0  0  0  0  0  0  0  0  0
    5.6049   -1.5480   21.7871 H   0  0  0  0  0  0  0  0  0  0  0  0
    5.8085   -0.3249   23.8678 H   0  0  0  0  0  0  0  0  0  0  0  0
    6.9700   -1.5799   24.2728 H   0  0  0  0  0  0  0  0  0  0  0  0
    8.7671   -0.0569   23.9988 H   0  0  0  0  0  0  0  0  0  0  0  0
    7.5362    1.2062   23.9856 H   0  0  0  0  0  0  0  0  0  0  0  0
    8.9056    5.1003   24.0821 H   0  0  0  0  0  0  0  0  0  0  0  0
   11.4315    5.1785   24.1960 H   0  0  0  0  0  0  0  0  0  0  0  0
   12.8353    1.8966   21.9797 H   0  0  0  0  0  0  0  0  0  0  0  0
   11.5882    1.2204   20.9813 H   0  0  0  0  0  0  0  0  0  0  0  0
  1  2  1  0
  2  3  2  0
  3  4  1  0
  4  5  2  0
  5  6  1  0
  6  7  2  0
  7  8  1  0
  8  9  2  0
  8 10  1  0
 10 11  1  0
 11 12  1  0
 12 13  1  0
 13 14  1  0
 14 15  1  0
 15 16  1  0
 16 17  1  6
 17 18  2  0
 18 19  1  0
 19 20  2  0
 20 21  1  0
 21 22  2  0
 22 23  1  0
 20 24  1  0
 19 25  1  0
 18 26  1  0
 15 27  1  0
 15 28  1  0
 14 29  1  0
 14 30  1  0
 13 31  1  6
 12 32  1  0
 12 33  1  0
 11 34  1  0
 11 35  1  0
  5 36  1  0
  4 37  1  0
  1 38  1  0
  1 39  1  0
  7  2  1  0
 16 10  1  0
 22 17  1  0
 16 13  1  0
M  END
>  <cnnaffinity>  (1) 
5.62535

>  <plip>  (1) 
-0.07142857142857142

>  <filename>  (1) 
[H][c]1[n][c]([C](=[O])[N]2[C]([H])([H])[C]([H])([H])[C@]3([H])[C]([H])([H])[C]([H])([H])[C@]23[c]2[c]([H])[n][c]([H])[c]([H])[c]2[H])[c]([N]([H])[H])[n][c]1[H]

>  <combo1>  (1) 
-0.45349151423044465

$$$$
