
     RDKit          3D

 40 43  0  0  0  0  0  0  0  0999 V2000
    9.7654   -4.1739   27.5403 O   0  0  0  0  0  0  0  0  0  0  0  0
    9.1375   -3.9379   26.5280 C   0  0  0  0  0  0  0  0  0  0  0  0
    9.1348   -2.6381   26.0855 N   0  0  0  0  0  0  0  0  0  0  0  0
    9.0308   -2.2638   24.7210 C   0  0  0  0  0  0  0  0  0  0  0  0
   10.0236   -2.7145   23.8215 C   0  0  0  0  0  0  0  0  0  0  0  0
    9.9298   -2.4455   22.4599 C   0  0  0  0  0  0  0  0  0  0  0  0
    8.8156   -1.7147   22.0352 C   0  0  0  0  0  0  0  0  0  0  0  0
    8.3872   -1.2918   20.7950 N   0  0  0  0  0  0  0  0  0  0  0  0
    7.2453   -0.5480   20.9995 C   0  0  0  0  0  0  0  0  0  0  0  0
    6.5451    0.0971   19.8915 C   0  0  0  0  0  0  0  0  0  0  0  0
    5.3141    0.7554   20.0599 C   0  0  0  0  0  0  0  0  0  0  0  0
    4.7494    1.3796   18.9504 C   0  0  0  0  0  0  0  0  0  0  0  0
    5.4175    1.3166   17.7215 C   0  0  0  0  0  0  0  0  0  0  0  0
    6.5799    0.6692   17.5427 N   0  0  0  0  0  0  0  0  0  0  0  0
    7.1189    0.0887   18.6136 C   0  0  0  0  0  0  0  0  0  0  0  0
    8.0779   -0.3942   18.4351 H   0  0  0  0  0  0  0  0  0  0  0  0
    5.0089    1.8113   16.8448 H   0  0  0  0  0  0  0  0  0  0  0  0
    3.8217    1.9364   19.0281 H   0  0  0  0  0  0  0  0  0  0  0  0
    4.8298    0.7748   21.0392 H   0  0  0  0  0  0  0  0  0  0  0  0
    6.9071   -0.4678   22.2562 N   0  0  0  0  0  0  0  0  0  0  0  0
    7.8546   -1.2030   22.9326 C   0  0  0  0  0  0  0  0  0  0  0  0
    7.9523   -1.5004   24.2999 C   0  0  0  0  0  0  0  0  0  0  0  0
    7.2017   -1.1676   25.0063 H   0  0  0  0  0  0  0  0  0  0  0  0
    8.6437   -1.7020   19.9159 H   0  0  0  0  0  0  0  0  0  0  0  0
   10.6823   -2.7879   21.7597 H   0  0  0  0  0  0  0  0  0  0  0  0
   10.8488   -3.2945   24.2295 H   0  0  0  0  0  0  0  0  0  0  0  0
    9.8209   -2.1574   26.6506 H   0  0  0  0  0  0  0  0  0  0  0  0
    8.3407   -5.0140   25.7515 C   0  0  0  0  0  0  0  0  0  0  0  0
    6.6458   -4.5971   25.2068 S   0  0  0  0  0  0  0  0  0  0  0  0
    5.8337   -4.4149   26.8228 C   0  0  0  0  0  0  0  0  0  0  0  0
    5.9634   -5.6338   27.7497 C   0  0  0  0  0  0  0  0  0  0  0  0
    7.3934   -6.0893   28.0853 C   0  0  0  0  0  0  0  0  0  0  0  0
    8.3596   -6.5797   26.6293 S   0  0  0  0  0  0  0  0  0  0  0  0
    7.9766   -5.3361   28.6259 H   0  0  0  0  0  0  0  0  0  0  0  0
    7.3732   -6.9884   28.7113 H   0  0  0  0  0  0  0  0  0  0  0  0
    5.4264   -6.4823   27.3084 H   0  0  0  0  0  0  0  0  0  0  0  0
    5.4495   -5.3766   28.6848 H   0  0  0  0  0  0  0  0  0  0  0  0
    4.7747   -4.2297   26.5883 H   0  0  0  0  0  0  0  0  0  0  0  0
    6.2135   -3.5000   27.2949 H   0  0  0  0  0  0  0  0  0  0  0  0
    8.8830   -5.2055   24.8232 H   0  0  0  0  0  0  0  0  0  0  0  0
  1  2  2  0
  2  3  1  0
  3  4  1  0
  4  5  2  0
  5  6  1  0
  6  7  2  0
  7  8  1  0
  8  9  1  0
  9 10  1  0
 10 11  2  0
 11 12  1  0
 12 13  2  0
 13 14  1  0
 14 15  2  0
 15 16  1  0
 13 17  1  0
 12 18  1  0
 11 19  1  0
  9 20  2  0
 20 21  1  0
 21 22  2  0
 22 23  1  0
  8 24  1  0
  6 25  1  0
  5 26  1  0
  3 27  1  0
  2 28  1  0
 28 29  1  0
 29 30  1  0
 30 31  1  0
 31 32  1  0
 32 33  1  0
 32 34  1  0
 32 35  1  0
 31 36  1  0
 31 37  1  0
 30 38  1  0
 30 39  1  0
 28 40  1  0
 22  4  1  0
 33 28  1  0
 21  7  1  0
 15 10  1  0
M  END
>  <cnnaffinity>  (1) 
5.55942

>  <plip>  (1) 
-0.034482758620689655

>  <filename>  (1) 
[H][c]1[n][c]([H])[c](-[c]2[n][c]3[c]([H])[c]([N]([H])[C](=[O])[C]4([H])[S][C]([H])([H])[C]([H])([H])[C]([H])([H])[S]4)[c]([H])[c]([H])[c]3[n]2[H])[c]([H])[c]1[H]

>  <combo1>  (1) 
-0.1792585736777366

$$$$
