
     RDKit          3D

 23 24  0  0  0  0  0  0  0  0999 V2000
   11.1619   -4.0753   24.1313 H   0  0  0  0  0  0  0  0  0  0  0  0
   10.5938   -3.4465   23.4501 C   0  0  0  0  0  0  0  0  0  0  0  0
    9.2573   -3.6483   23.3735 N   0  0  0  0  0  0  0  0  0  0  0  0
    8.5886   -2.8796   22.5058 C   0  0  0  0  0  0  0  0  0  0  0  0
    7.5234   -3.0620   22.3764 H   0  0  0  0  0  0  0  0  0  0  0  0
    9.2594   -1.8817   21.7349 C   0  0  0  0  0  0  0  0  0  0  0  0
    8.6686   -1.0222   20.8174 N   0  0  0  0  0  0  0  0  0  0  0  0
    9.3457   -0.2676   20.7050 H   0  0  0  0  0  0  0  0  0  0  0  0
    7.3277   -0.6719   20.9468 N   0  0  0  0  0  0  0  0  0  0  0  0
    6.8422   -0.6962   21.8396 H   0  0  0  0  0  0  0  0  0  0  0  0
    6.7006   -0.0244   19.9027 C   0  0  0  0  0  0  0  0  0  0  0  0
    7.2162    0.0284   18.5848 C   0  0  0  0  0  0  0  0  0  0  0  0
    8.1572   -0.4742   18.3566 H   0  0  0  0  0  0  0  0  0  0  0  0
    6.6037    0.6647   17.5763 N   0  0  0  0  0  0  0  0  0  0  0  0
    5.4405    1.2848   17.8438 C   0  0  0  0  0  0  0  0  0  0  0  0
    4.9626    1.7899   17.0089 H   0  0  0  0  0  0  0  0  0  0  0  0
    4.8423    1.2830   19.1116 C   0  0  0  0  0  0  0  0  0  0  0  0
    3.9011    1.8041   19.2679 H   0  0  0  0  0  0  0  0  0  0  0  0
    5.4740    0.6154   20.1559 C   0  0  0  0  0  0  0  0  0  0  0  0
    5.0590    0.5973   21.1658 H   0  0  0  0  0  0  0  0  0  0  0  0
   10.5820   -1.6742   21.8146 N   0  0  0  0  0  0  0  0  0  0  0  0
   11.2413   -2.4899   22.6522 C   0  0  0  0  0  0  0  0  0  0  0  0
   12.3212   -2.3784   22.6673 H   0  0  0  0  0  0  0  0  0  0  0  0
  1  2  1  0
  2  3  2  0
  3  4  1  0
  4  5  1  0
  4  6  2  0
  6  7  1  0
  7  8  1  0
  7  9  1  0
  9 10  1  0
  9 11  1  0
 11 12  2  0
 12 13  1  0
 12 14  1  0
 14 15  2  0
 15 16  1  0
 15 17  1  0
 17 18  1  0
 17 19  2  0
 19 20  1  0
  6 21  1  0
 21 22  2  0
 22 23  1  0
 22  2  1  0
 19 11  1  0
M  END
>  <cnnaffinity>  (1) 
4.68361

>  <plip>  (1) 
-0.10714285714285714

>  <filename>  (1) 
[H][c]1[n][c]([H])[c]([N]([H])[N]([H])[c]2[c]([H])[n][c]([H])[c]([H])[c]2[H])[n][c]1[H]

>  <combo1>  (1) 
-0.8935172254857521

$$$$
