
     RDKit          3D

 18 18  0  0  0  0  0  0  0  0999 V2000
   10.9918   -0.6513   22.0814 H   0  0  0  0  0  0  0  0  0  0  0  0
   10.6059   -1.1734   22.8731 N   0  0  0  0  0  0  0  0  0  0  0  0
    9.4114   -1.3418   22.8500 N   0  0  0  0  0  4  0  0  0  0  0  0
    8.2848   -1.6296   23.0287 N   0  0  0  0  0  0  0  0  0  0  0  0
    6.8847   -1.0319   22.3370 S   0  0  0  0  0  0  0  0  0  0  0  0
    6.3985    0.1299   23.0464 O   0  0  0  0  0  0  0  0  0  0  0  0
    6.0500   -2.1535   22.0353 O   0  0  0  0  0  0  0  0  0  0  0  0
    7.6050   -0.5031   20.9469 O   0  0  0  0  0  0  0  0  0  0  0  0
    6.8068    0.0599   19.9467 C   0  0  0  0  0  0  0  0  0  0  0  0
    7.2847    0.0445   18.6213 C   0  0  0  0  0  0  0  0  0  0  0  0
    8.2238   -0.4656   18.4046 H   0  0  0  0  0  0  0  0  0  0  0  0
    6.6243    0.6233   17.6090 N   0  0  0  0  0  0  0  0  0  0  0  0
    5.4617    1.2405   17.8876 C   0  0  0  0  0  0  0  0  0  0  0  0
    4.9642    1.7409   17.0581 H   0  0  0  0  0  0  0  0  0  0  0  0
    4.8956    1.2589   19.1650 C   0  0  0  0  0  0  0  0  0  0  0  0
    3.9449    1.7528   19.3285 H   0  0  0  0  0  0  0  0  0  0  0  0
    5.5735    0.6507   20.2255 C   0  0  0  0  0  0  0  0  0  0  0  0
    5.1702    0.6295   21.2350 H   0  0  0  0  0  0  0  0  0  0  0  0
  1  2  1  0
  2  3  2  0
  3  4  2  0
  4  5  1  0
  5  6  2  0
  5  7  2  0
  5  8  1  0
  8  9  1  0
  9 10  2  0
 10 11  1  0
 10 12  1  0
 12 13  2  0
 13 14  1  0
 13 15  1  0
 15 16  1  0
 15 17  2  0
 17 18  1  0
 17  9  1  0
M  CHG  1   3   1
M  END
>  <cnnaffinity>  (1) 
3.9927

>  <plip>  (1) 
-0.10344827586206896

>  <filename>  (1) 
[H][N]=[N+]=[N][S](=[O])(=[O])[O][c]1[c]([H])[n][c]([H])[c]([H])[c]1[H]

>  <combo1>  (1) 
-0.6843350233604933

$$$$
