
     RDKit          3D

 34 37  0  0  0  0  0  0  0  0999 V2000
    4.8443    1.3005   19.0891 C   0  0  0  0  0  0  0  0  0  0  0  0
    5.4463    1.2750   17.8276 C   0  0  0  0  0  0  0  0  0  0  0  0
    6.6070    0.6419   17.5835 N   0  0  0  0  0  0  0  0  0  0  0  0
    7.2134    0.0291   18.6033 C   0  0  0  0  0  0  0  0  0  0  0  0
    6.6883    0.0019   19.9035 C   0  0  0  0  0  0  0  0  0  0  0  0
    7.3984   -0.6925   20.9128 N   0  0  0  0  0  0  0  0  0  0  0  0
    6.8859   -1.2244   22.0458 C   0  0  0  0  0  0  0  0  0  0  0  0
    7.9056   -1.8126   22.7673 C   0  0  0  0  0  0  0  0  0  0  0  0
    7.7955   -2.4862   24.0844 C   0  0  0  0  0  0  0  0  0  0  0  0
    8.8452   -3.2715   24.6190 C   0  0  0  0  0  0  0  0  0  0  0  0
    8.7364   -3.8881   25.8687 C   0  0  0  0  0  0  0  0  0  0  0  0
    7.5534   -3.7365   26.5930 C   0  0  0  0  0  0  0  0  0  0  0  0
    7.2626   -4.1978   27.8591 N   0  0  0  0  0  0  0  0  0  0  0  0
    5.8268   -4.1028   28.1168 C   0  0  0  0  0  0  0  0  0  0  0  0
    5.3429   -3.0556   27.0772 C   0  0  0  0  0  0  0  0  0  0  0  0
    6.4769   -2.9939   26.0760 C   0  0  0  0  0  0  0  0  0  0  0  0
    6.6114   -2.3560   24.8507 C   0  0  0  0  0  0  0  0  0  0  0  0
    5.8113   -1.7200   24.4744 H   0  0  0  0  0  0  0  0  0  0  0  0
    5.1692   -2.0775   27.5353 H   0  0  0  0  0  0  0  0  0  0  0  0
    4.3984   -3.3504   26.6175 H   0  0  0  0  0  0  0  0  0  0  0  0
    5.3319   -5.0745   27.9490 H   0  0  0  0  0  0  0  0  0  0  0  0
    5.6428   -3.7820   29.1547 H   0  0  0  0  0  0  0  0  0  0  0  0
    7.7694   -4.9775   28.2429 H   0  0  0  0  0  0  0  0  0  0  0  0
    9.5409   -4.4877   26.2847 H   0  0  0  0  0  0  0  0  0  0  0  0
    9.7600   -3.4174   24.0504 H   0  0  0  0  0  0  0  0  0  0  0  0
    9.0345   -1.5808   21.9243 C   0  0  0  0  0  0  0  0  0  0  0  0
    8.7232   -0.9244   20.8202 N   0  0  0  0  0  0  0  0  0  0  0  0
   10.0710   -1.8615   22.0686 H   0  0  0  0  0  0  0  0  0  0  0  0
    5.8280   -1.1670   22.2187 H   0  0  0  0  0  0  0  0  0  0  0  0
    5.4728    0.6582   20.1562 C   0  0  0  0  0  0  0  0  0  0  0  0
    5.0464    0.7028   21.1597 H   0  0  0  0  0  0  0  0  0  0  0  0
    8.1612   -0.4651   18.4012 H   0  0  0  0  0  0  0  0  0  0  0  0
    4.9861    1.7820   16.9830 H   0  0  0  0  0  0  0  0  0  0  0  0
    3.9051    1.8236   19.2291 H   0  0  0  0  0  0  0  0  0  0  0  0
  1  2  2  0
  2  3  1  0
  3  4  2  0
  4  5  1  0
  5  6  1  0
  6  7  1  0
  7  8  2  0
  8  9  1  0
  9 10  2  0
 10 11  1  0
 11 12  2  0
 12 13  1  0
 13 14  1  0
 14 15  1  0
 15 16  1  0
 16 17  2  0
 17 18  1  0
 15 19  1  0
 15 20  1  0
 14 21  1  0
 14 22  1  0
 13 23  1  0
 11 24  1  0
 10 25  1  0
  8 26  1  0
 26 27  2  0
 26 28  1  0
  7 29  1  0
  5 30  2  0
 30 31  1  0
  4 32  1  0
  2 33  1  0
  1 34  1  0
 30  1  1  0
 27  6  1  0
 17  9  1  0
 16 12  1  0
M  END
>  <cnnaffinity>  (1) 
5.11902

>  <plip>  (1) 
-0.03571428571428571

>  <filename>  (1) 
[H][c]1[n][c]([H])[c](-[n]2[n][c]([H])[c](-[c]3[c]([H])[c]([H])[c]4[c]([c]3[H])[C]([H])([H])[C]([H])([H])[N]4[H])[c]2[H])[c]([H])[c]1[H]

>  <combo1>  (1) 
-0.23231794585810353

$$$$
