
     RDKit          3D

 39 40  0  0  0  0  0  0  0  0999 V2000
   12.2978    2.0507   22.6328 F   0  0  0  0  0  0  0  0  0  0  0  0
   11.4153    2.8101   21.8718 C   0  0  0  0  0  0  0  0  0  0  0  0
   10.1331    3.0801   22.6517 C   0  0  0  0  0  0  0  0  0  0  0  0
    9.2699    1.8417   22.9257 C   0  0  0  0  0  0  0  0  0  0  0  0
    8.8649    1.1195   21.6520 C   0  0  0  0  0  0  0  0  0  0  0  0
    7.8684    0.0990   21.9768 N   0  0  0  0  0  4  0  0  0  0  0  0
    7.4268   -0.7819   20.8782 C   0  0  0  0  0  0  0  0  0  0  0  0
    6.6494    0.0175   19.8507 C   0  0  0  0  0  0  0  0  0  0  0  0
    5.4354    0.6805   20.1001 C   0  0  0  0  0  0  0  0  0  0  0  0
    4.8195    1.3524   19.0401 C   0  0  0  0  0  0  0  0  0  0  0  0
    5.4334    1.3637   17.7843 C   0  0  0  0  0  0  0  0  0  0  0  0
    6.6009    0.7585   17.5338 N   0  0  0  0  0  0  0  0  0  0  0  0
    7.1780    0.1150   18.5569 C   0  0  0  0  0  0  0  0  0  0  0  0
    8.1284   -0.3661   18.3392 H   0  0  0  0  0  0  0  0  0  0  0  0
    4.9658    1.8803   16.9435 H   0  0  0  0  0  0  0  0  0  0  0  0
    3.8864    1.8897   19.1774 H   0  0  0  0  0  0  0  0  0  0  0  0
    4.9692    0.6805   21.0902 H   0  0  0  0  0  0  0  0  0  0  0  0
    6.6366   -1.8967   21.5401 C   0  0  0  0  0  0  0  0  0  0  0  0
    6.1282   -3.0334   20.6267 C   0  0  0  0  0  0  0  0  0  0  0  0
    6.9544   -4.0621   21.4360 C   0  0  0  0  0  0  0  0  0  0  0  0
    7.4058   -2.9394   22.3997 C   0  0  0  0  0  0  0  0  0  0  0  0
    6.9794   -3.0279   23.4033 H   0  0  0  0  0  0  0  0  0  0  0  0
    8.4953   -2.8151   22.4879 H   0  0  0  0  0  0  0  0  0  0  0  0
    6.3670   -4.8708   21.8889 H   0  0  0  0  0  0  0  0  0  0  0  0
    7.7809   -4.5030   20.8698 H   0  0  0  0  0  0  0  0  0  0  0  0
    5.0478   -3.1825   20.6879 H   0  0  0  0  0  0  0  0  0  0  0  0
    6.3918   -2.9279   19.5667 H   0  0  0  0  0  0  0  0  0  0  0  0
    5.8362   -1.4276   22.1187 H   0  0  0  0  0  0  0  0  0  0  0  0
    8.2978   -1.2163   20.3689 H   0  0  0  0  0  0  0  0  0  0  0  0
    8.1955   -0.5174   22.7519 H   0  0  0  0  0  0  0  0  0  0  0  0
    6.9878    0.5903   22.2836 H   0  0  0  0  0  0  0  0  0  0  0  0
    8.4646    1.8223   20.9058 H   0  0  0  0  0  0  0  0  0  0  0  0
    9.7525    0.6726   21.1816 H   0  0  0  0  0  0  0  0  0  0  0  0
    8.3620    2.1500   23.4639 H   0  0  0  0  0  0  0  0  0  0  0  0
    9.8221    1.1479   23.5694 H   0  0  0  0  0  0  0  0  0  0  0  0
    9.5263    3.7885   22.0723 H   0  0  0  0  0  0  0  0  0  0  0  0
   10.3888    3.5928   23.5905 H   0  0  0  0  0  0  0  0  0  0  0  0
   11.9105    3.7516   21.5987 H   0  0  0  0  0  0  0  0  0  0  0  0
   11.2044    2.2476   20.9502 H   0  0  0  0  0  0  0  0  0  0  0  0
  1  2  1  0
  2  3  1  0
  3  4  1  0
  4  5  1  0
  5  6  1  0
  6  7  1  0
  7  8  1  0
  8  9  2  0
  9 10  1  0
 10 11  2  0
 11 12  1  0
 12 13  2  0
 13 14  1  0
 11 15  1  0
 10 16  1  0
  9 17  1  0
  7 18  1  0
 18 19  1  0
 19 20  1  0
 20 21  1  0
 21 22  1  0
 21 23  1  0
 20 24  1  0
 20 25  1  0
 19 26  1  0
 19 27  1  0
 18 28  1  0
  7 29  1  0
  6 30  1  0
  6 31  1  0
  5 32  1  0
  5 33  1  0
  4 34  1  0
  4 35  1  0
  3 36  1  0
  3 37  1  0
  2 38  1  0
  2 39  1  0
 13  8  1  0
 21 18  1  0
M  CHG  1   6   1
M  END
>  <cnnaffinity>  (1) 
4.46702

>  <plip>  (1) 
-0.07142857142857142

>  <filename>  (1) 
[H][c]1[n][c]([H])[c]([C]([H])([C]2([H])[C]([H])([H])[C]([H])([H])[C]2([H])[H])[N+]([H])([H])[C]([H])([H])[C]([H])([H])[C]([H])([H])[C]([H])([H])[F])[c]([H])[c]1[H]

>  <combo1>  (1) 
-0.4481196713924166

$$$$
