
     RDKit          3D

 26 28  0  0  0  0  0  0  0  0999 V2000
    5.0639    1.8176   16.7850 H   0  0  0  0  0  0  0  0  0  0  0  0
    5.4497    1.3434   17.6836 C   0  0  0  0  0  0  0  0  0  0  0  0
    6.6082    0.6821   17.5393 N   0  0  0  0  0  0  0  0  0  0  0  0
    7.1106    0.0720   18.6167 C   0  0  0  0  0  0  0  0  0  0  0  0
    8.0483   -0.4596   18.4653 H   0  0  0  0  0  0  0  0  0  0  0  0
    6.4852    0.1027   19.8708 C   0  0  0  0  0  0  0  0  0  0  0  0
    7.0682   -0.5900   21.0109 C   0  0  0  0  0  0  0  0  0  0  0  0
    6.6592   -0.5804   22.2389 N   0  0  0  0  0  0  0  0  0  0  0  0
    7.5370   -1.3801   22.9523 N   0  0  0  0  0  0  0  0  0  0  0  0
    8.3931   -1.8313   22.1034 C   0  0  0  0  0  0  0  0  0  0  0  0
    9.6236   -2.6584   22.3402 C   0  0  2  0  0  0  0  0  0  0  0  0
   10.0256   -2.8199   21.3423 H   0  0  0  0  0  0  0  0  0  0  0  0
    9.4436   -3.9281   23.0441 N   0  0  0  0  0  0  0  0  0  0  0  0
    9.9309   -3.7324   24.2004 C   0  0  0  0  0  0  0  0  0  0  0  0
    9.8668   -4.6114   25.2204 N   0  0  0  0  0  0  0  0  0  0  0  0
   10.5515   -4.3927   25.9182 H   0  0  0  0  0  0  0  0  0  0  0  0
    9.9113   -5.5385   24.8353 H   0  0  0  0  0  0  0  0  0  0  0  0
   10.5499   -2.5790   24.4838 O   0  0  0  0  0  0  0  0  0  0  0  0
   10.6348   -1.8811   23.2279 C   0  0  0  0  0  0  0  0  0  0  0  0
   10.4142   -0.8178   23.3923 H   0  0  0  0  0  0  0  0  0  0  0  0
   11.6447   -1.9806   22.8146 H   0  0  0  0  0  0  0  0  0  0  0  0
    8.1765   -1.3522   20.8442 O   0  0  0  0  0  0  0  0  0  0  0  0
    5.2841    0.8105   20.0181 C   0  0  0  0  0  0  0  0  0  0  0  0
    4.8066    0.8626   21.0004 H   0  0  0  0  0  0  0  0  0  0  0  0
    4.7491    1.4276   18.8928 C   0  0  0  0  0  0  0  0  0  0  0  0
    3.8092    1.9641   18.9373 H   0  0  0  0  0  0  0  0  0  0  0  0
  1  2  1  0
  2  3  2  0
  3  4  1  0
  4  5  1  0
  4  6  2  0
  6  7  1  0
  7  8  2  0
  8  9  1  0
  9 10  2  0
 10 11  1  0
 11 12  1  6
 11 13  1  0
 13 14  2  0
 14 15  1  0
 15 16  1  0
 15 17  1  0
 14 18  1  0
 18 19  1  0
 19 20  1  0
 19 21  1  0
 10 22  1  0
  6 23  1  0
 23 24  1  0
 23 25  2  0
 25 26  1  0
 25  2  1  0
 22  7  1  0
 19 11  1  0
M  END
>  <cnnaffinity>  (1) 
4.67455

>  <plip>  (1) 
-0.07142857142857142

>  <filename>  (1) 
[H][c]1[n][c]([H])[c](-[c]2[n][n][c]([C@]3([H])[N]=[C]([N]([H])[H])[O][C]3([H])[H])[o]2)[c]([H])[c]1[H]

>  <combo1>  (1) 
-0.481365004536079

$$$$
