
     RDKit          3D

 41 43  0  0  0  0  0  0  0  0999 V2000
    3.7115   -7.3202   23.6332 C   0  0  0  0  0  0  0  0  0  0  0  0
    4.5271   -6.0623   23.4301 C   0  0  0  0  0  0  0  0  0  0  0  0
    5.8977   -6.0136   23.0740 C   0  0  0  0  0  0  0  0  0  0  0  0
    6.5562   -4.8531   22.8934 N   0  0  0  0  0  0  0  0  0  0  0  0
    5.8617   -3.7121   23.0938 C   0  0  0  0  0  0  0  0  0  0  0  0
    6.5805   -2.3940   22.9108 C   0  0  0  0  0  0  0  0  0  0  0  0
    6.3952   -1.7661   21.5797 N   0  0  0  0  0  4  0  0  0  0  0  0
    7.3849   -0.6455   21.1221 C   0  0  0  0  0  0  0  0  0  0  0  0
    6.6308   -0.0467   19.9515 C   0  0  0  0  0  0  0  0  0  0  0  0
    5.3996    0.6050   20.1572 C   0  0  0  0  0  0  0  0  0  0  0  0
    4.7986    1.2748   19.0917 C   0  0  0  0  0  0  0  0  0  0  0  0
    5.4229    1.2519   17.8396 C   0  0  0  0  0  0  0  0  0  0  0  0
    6.5546    0.5818   17.6022 N   0  0  0  0  0  0  0  0  0  0  0  0
    7.1303   -0.0446   18.6392 C   0  0  0  0  0  0  0  0  0  0  0  0
    8.0610   -0.5535   18.4073 H   0  0  0  0  0  0  0  0  0  0  0  0
    4.9950    1.7969   16.9985 H   0  0  0  0  0  0  0  0  0  0  0  0
    3.8652    1.8113   19.2100 H   0  0  0  0  0  0  0  0  0  0  0  0
    4.9334    0.6240   21.1473 H   0  0  0  0  0  0  0  0  0  0  0  0
    8.7917   -1.1744   20.8056 C   0  0  0  0  0  0  0  0  0  0  0  0
    9.6749    0.0889   20.7813 C   0  0  0  0  0  0  0  0  0  0  0  0
    8.9940    1.0866   21.7514 C   0  0  0  0  0  0  0  0  0  0  0  0
    7.7087    0.3820   22.2271 C   0  0  0  0  0  0  0  0  0  0  0  0
    6.8828    1.0723   22.4247 H   0  0  0  0  0  0  0  0  0  0  0  0
    7.9080   -0.1683   23.1528 H   0  0  0  0  0  0  0  0  0  0  0  0
    9.6191    1.3652   22.6071 H   0  0  0  0  0  0  0  0  0  0  0  0
    8.7475    2.0130   21.2181 H   0  0  0  0  0  0  0  0  0  0  0  0
    9.6511    0.5182   19.7749 H   0  0  0  0  0  0  0  0  0  0  0  0
   10.7200   -0.1337   21.0272 H   0  0  0  0  0  0  0  0  0  0  0  0
    8.8322   -1.7364   19.8733 H   0  0  0  0  0  0  0  0  0  0  0  0
    9.1039   -1.8571   21.6059 H   0  0  0  0  0  0  0  0  0  0  0  0
    5.4746   -1.2777   21.5171 H   0  0  0  0  0  0  0  0  0  0  0  0
    6.4725   -2.4742   20.8023 H   0  0  0  0  0  0  0  0  0  0  0  0
    6.2500   -1.7222   23.7139 H   0  0  0  0  0  0  0  0  0  0  0  0
    7.6337   -2.6289   23.0902 H   0  0  0  0  0  0  0  0  0  0  0  0
    4.5198   -3.7609   23.4882 C   0  0  0  0  0  0  0  0  0  0  0  0
    3.8507   -4.9155   23.6229 N   0  0  0  0  0  0  0  0  0  0  0  0
    3.9616   -2.8624   23.7289 H   0  0  0  0  0  0  0  0  0  0  0  0
    6.4790   -6.9235   22.9459 H   0  0  0  0  0  0  0  0  0  0  0  0
    4.2885   -8.1321   24.0920 H   0  0  0  0  0  0  0  0  0  0  0  0
    2.8640   -7.0548   24.2782 H   0  0  0  0  0  0  0  0  0  0  0  0
    3.2937   -7.6792   22.6850 H   0  0  0  0  0  0  0  0  0  0  0  0
  1  2  1  0
  2  3  2  0
  3  4  1  0
  4  5  2  0
  5  6  1  0
  6  7  1  0
  7  8  1  0
  8  9  1  0
  9 10  2  0
 10 11  1  0
 11 12  2  0
 12 13  1  0
 13 14  2  0
 14 15  1  0
 12 16  1  0
 11 17  1  0
 10 18  1  0
  8 19  1  0
 19 20  1  0
 20 21  1  0
 21 22  1  0
 22 23  1  0
 22 24  1  0
 21 25  1  0
 21 26  1  0
 20 27  1  0
 20 28  1  0
 19 29  1  0
 19 30  1  0
  7 31  1  0
  7 32  1  0
  6 33  1  0
  6 34  1  0
  5 35  1  0
 35 36  2  0
 35 37  1  0
  3 38  1  0
  1 39  1  0
  1 40  1  0
  1 41  1  0
 36  2  1  0
 22  8  1  0
 14  9  1  0
M  CHG  1   7   1
M  END
>  <cnnaffinity>  (1) 
4.68757

>  <plip>  (1) 
-0.10714285714285714

>  <filename>  (1) 
[H][c]1[n][c]([C]([H])([H])[N+]([H])([H])[C]2([c]3[c]([H])[n][c]([H])[c]([H])[c]3[H])[C]([H])([H])[C]([H])([H])[C]([H])([H])[C]2([H])[H])[c]([H])[n][c]1[C]([H])([H])[H]

>  <combo1>  (1) 
-0.6214944919505898

$$$$
