
     RDKit          3D

 31 33  0  0  0  0  0  0  0  0999 V2000
    4.7124   -5.7357   24.4087 H   0  0  0  0  0  0  0  0  0  0  0  0
    5.0277   -5.5158   23.3907 C   0  0  0  0  0  0  0  0  0  0  0  0
    5.4859   -4.2857   23.1764 N   0  0  0  0  0  0  0  0  0  0  0  0
    5.8670   -3.9936   21.9327 C   0  0  0  0  0  0  0  0  0  0  0  0
    6.1896   -2.6599   21.8359 N   0  0  0  0  0  0  0  0  0  0  0  0
    6.4997   -2.4761   22.7850 H   0  0  0  0  0  0  0  0  0  0  0  0
    7.1580   -2.2057   20.9040 C   0  0  2  0  0  0  0  0  0  0  0  0
    6.9145   -2.4992   19.8672 H   0  0  0  0  0  0  0  0  0  0  0  0
    8.4204   -2.6498   21.3825 N   0  0  0  0  0  0  0  0  0  0  0  0
    8.7509   -3.5762   21.2234 H   0  0  0  0  0  0  0  0  0  0  0  0
    9.3767   -1.6913   21.2269 C   0  0  0  0  0  0  0  0  0  0  0  0
   10.5510   -1.8831   21.3431 O   0  0  0  0  0  0  0  0  0  0  0  0
    8.7931   -0.5036   20.9016 O   0  0  0  0  0  0  0  0  0  0  0  0
    7.3684   -0.6603   20.9609 C   0  0  1  0  0  0  0  0  0  0  0  0
    7.0254   -0.3309   21.9524 H   0  0  0  0  0  0  0  0  0  0  0  0
    6.6759    0.1044   19.8747 C   0  0  0  0  0  0  0  0  0  0  0  0
    7.2072    0.1438   18.5758 C   0  0  0  0  0  0  0  0  0  0  0  0
    8.1586   -0.3445   18.3610 H   0  0  0  0  0  0  0  0  0  0  0  0
    6.5935    0.7346   17.5460 N   0  0  0  0  0  0  0  0  0  0  0  0
    5.4169    1.3329   17.7872 C   0  0  0  0  0  0  0  0  0  0  0  0
    4.9515    1.8191   16.9333 H   0  0  0  0  0  0  0  0  0  0  0  0
    4.7950    1.3395   19.0383 C   0  0  0  0  0  0  0  0  0  0  0  0
    3.8451    1.8443   19.1614 H   0  0  0  0  0  0  0  0  0  0  0  0
    5.4320    0.7074   20.1049 C   0  0  0  0  0  0  0  0  0  0  0  0
    4.9765    0.6827   21.0975 H   0  0  0  0  0  0  0  0  0  0  0  0
    5.9241   -4.9198   20.8801 C   0  0  0  0  0  0  0  0  0  0  0  0
    6.3653   -4.6186   19.9360 H   0  0  0  0  0  0  0  0  0  0  0  0
    5.4217   -6.1978   21.1188 C   0  0  0  0  0  0  0  0  0  0  0  0
    5.3887   -6.9404   20.3204 H   0  0  0  0  0  0  0  0  0  0  0  0
    4.9495   -6.4990   22.4066 C   0  0  0  0  0  0  0  0  0  0  0  0
    4.5124   -7.4526   22.6715 H   0  0  0  0  0  0  0  0  0  0  0  0
  1  2  1  0
  2  3  2  0
  3  4  1  0
  4  5  1  0
  5  6  1  0
  5  7  1  0
  7  8  1  6
  7  9  1  0
  9 10  1  0
  9 11  1  0
 11 12  2  0
 11 13  1  0
 13 14  1  0
 14 15  1  1
 14 16  1  0
 16 17  2  0
 17 18  1  0
 17 19  1  0
 19 20  2  0
 20 21  1  0
 20 22  1  0
 22 23  1  0
 22 24  2  0
 24 25  1  0
  4 26  2  0
 26 27  1  0
 26 28  1  0
 28 29  1  0
 28 30  2  0
 30 31  1  0
 30  2  1  0
 14  7  1  0
 24 16  1  0
M  END
>  <cnnaffinity>  (1) 
4.84161

>  <plip>  (1) 
-0.06666666666666667

>  <filename>  (1) 
[H][c]1[n][c]([N]([H])[C@]2([H])[N]([H])[C](=[O])[O][C@@]2([H])[c]2[c]([H])[n][c]([H])[c]([H])[c]2[H])[c]([H])[c]([H])[c]1[H]

>  <combo1>  (1) 
-0.41984404164959455

$$$$
