
     RDKit          3D

 27 28  0  0  0  0  0  0  0  0999 V2000
    4.9320    1.8241   16.9845 H   0  0  0  0  0  0  0  0  0  0  0  0
    5.4074    1.3141   17.8197 C   0  0  0  0  0  0  0  0  0  0  0  0
    6.5713    0.7026   17.5475 N   0  0  0  0  0  0  0  0  0  0  0  0
    7.1831    0.0654   18.5550 C   0  0  0  0  0  0  0  0  0  0  0  0
    8.1278   -0.4290   18.3345 H   0  0  0  0  0  0  0  0  0  0  0  0
    6.6679   -0.0395   19.8698 C   0  0  0  0  0  0  0  0  0  0  0  0
    7.3812   -0.8010   20.8640 N   0  0  0  0  0  0  0  0  0  0  0  0
    8.7696   -0.4278   21.1626 C   0  0  0  0  0  0  0  0  0  0  0  0
    8.8879    0.6630   21.1735 H   0  0  0  0  0  0  0  0  0  0  0  0
    9.4372   -0.8659   20.4079 H   0  0  0  0  0  0  0  0  0  0  0  0
    9.0773   -0.7974   22.1435 H   0  0  0  0  0  0  0  0  0  0  0  0
    6.5469   -1.6712   22.0574 S   0  0  0  0  0  0  0  0  0  0  0  0
    5.3165   -2.1627   21.4693 O   0  0  0  0  0  0  0  0  0  0  0  0
    6.6041   -0.8675   23.2652 O   0  0  0  0  0  0  0  0  0  0  0  0
    7.5854   -3.1702   22.3267 C   0  0  0  0  0  0  0  0  0  0  0  0
    7.8476   -4.0991   21.4723 N   0  0  0  0  0  0  0  0  0  0  0  0
    8.5266   -5.0852   22.1643 N   0  0  0  0  0  0  0  0  0  0  0  0
    8.6462   -4.6786   23.3857 C   0  0  0  0  0  0  0  0  0  0  0  0
    9.2197   -5.3082   24.5990 C   0  0  0  0  0  0  0  0  0  0  0  0
   10.2342   -5.6704   24.4419 H   0  0  0  0  0  0  0  0  0  0  0  0
    9.2245   -4.5582   25.3897 H   0  0  0  0  0  0  0  0  0  0  0  0
    8.5935   -6.1462   24.9202 H   0  0  0  0  0  0  0  0  0  0  0  0
    8.0639   -3.4651   23.5645 O   0  0  0  0  0  0  0  0  0  0  0  0
    5.4583    0.6290   20.1361 C   0  0  0  0  0  0  0  0  0  0  0  0
    5.0307    0.6219   21.1383 H   0  0  0  0  0  0  0  0  0  0  0  0
    4.8182    1.3082   19.0887 C   0  0  0  0  0  0  0  0  0  0  0  0
    3.8830    1.8373   19.2499 H   0  0  0  0  0  0  0  0  0  0  0  0
  1  2  1  0
  2  3  2  0
  3  4  1  0
  4  5  1  0
  4  6  2  0
  6  7  1  0
  7  8  1  0
  8  9  1  0
  8 10  1  0
  8 11  1  0
  7 12  1  0
 12 13  2  0
 12 14  2  0
 12 15  1  0
 15 16  2  0
 16 17  1  0
 17 18  2  0
 18 19  1  0
 19 20  1  0
 19 21  1  0
 19 22  1  0
 18 23  1  0
  6 24  1  0
 24 25  1  0
 24 26  2  0
 26 27  1  0
 26  2  1  0
 23 15  1  0
M  END
>  <cnnaffinity>  (1) 
4.35724

>  <plip>  (1) 
-0.10344827586206896

>  <filename>  (1) 
[H][c]1[n][c]([H])[c]([N]([C]([H])([H])[H])[S](=[O])(=[O])[c]2[n][n][c]([C]([H])([H])[H])[o]2)[c]([H])[c]1[H]

>  <combo1>  (1) 
-0.5909036231910592

$$$$
