
     RDKit          3D

 35 37  0  0  0  0  0  0  0  0999 V2000
    9.1602   -5.3695   28.0752 Br  0  0  0  0  0  0  0  0  0  0  0  0
    8.0297   -4.3455   26.9612 C   0  0  0  0  0  0  0  0  0  0  0  0
    6.6552   -4.5853   26.9455 C   0  0  0  0  0  0  0  0  0  0  0  0
    5.8484   -3.9043   26.0331 C   0  0  0  0  0  0  0  0  0  0  0  0
    6.4221   -2.9787   25.1532 C   0  0  0  0  0  0  0  0  0  0  0  0
    7.7993   -2.7220   25.1825 C   0  0  0  0  0  0  0  0  0  0  0  0
    8.4168   -1.7442   24.2235 C   0  0  0  0  0  0  0  0  0  0  0  0
    8.8244   -2.4634   22.9443 C   0  0  0  0  0  0  0  0  0  0  0  0
    9.3730   -1.4909   21.9979 N   0  0  0  0  0  0  0  0  0  0  0  0
   10.6912   -1.1274   21.8788 C   0  0  0  0  0  0  0  0  0  0  0  0
   10.7997   -0.1849   20.9873 N   0  0  0  0  0  0  0  0  0  0  0  0
    9.5456    0.0763   20.4853 N   0  0  0  0  0  0  0  0  0  0  0  0
    8.6948   -0.6943   21.1082 C   0  0  0  0  0  0  0  0  0  0  0  0
    7.3192   -0.6962   20.9389 N   0  0  0  0  0  0  0  0  0  0  0  0
    6.6648   -0.0003   19.8996 C   0  0  0  0  0  0  0  0  0  0  0  0
    5.4478    0.6280   20.1608 C   0  0  0  0  0  0  0  0  0  0  0  0
    4.8207    1.2989   19.1015 C   0  0  0  0  0  0  0  0  0  0  0  0
    5.3981    1.2999   17.8194 C   0  0  0  0  0  0  0  0  0  0  0  0
    6.5675    0.6912   17.5466 N   0  0  0  0  0  0  0  0  0  0  0  0
    7.1865    0.0750   18.5787 C   0  0  0  0  0  0  0  0  0  0  0  0
    8.1279   -0.4308   18.3974 H   0  0  0  0  0  0  0  0  0  0  0  0
    4.8803    1.8053   17.0109 H   0  0  0  0  0  0  0  0  0  0  0  0
    3.8885    1.8277   19.2605 H   0  0  0  0  0  0  0  0  0  0  0  0
    5.0254    0.6135   21.1679 H   0  0  0  0  0  0  0  0  0  0  0  0
    6.7776   -1.0860   21.7080 H   0  0  0  0  0  0  0  0  0  0  0  0
   11.5230   -1.5443   22.4406 H   0  0  0  0  0  0  0  0  0  0  0  0
    7.9654   -2.9764   22.5052 H   0  0  0  0  0  0  0  0  0  0  0  0
    9.5752   -3.2254   23.1679 H   0  0  0  0  0  0  0  0  0  0  0  0
    7.7009   -0.9522   23.9924 H   0  0  0  0  0  0  0  0  0  0  0  0
    9.2920   -1.2729   24.6798 H   0  0  0  0  0  0  0  0  0  0  0  0
    8.5976   -3.4080   26.1002 C   0  0  0  0  0  0  0  0  0  0  0  0
    9.6694   -3.2414   26.1364 H   0  0  0  0  0  0  0  0  0  0  0  0
    5.7946   -2.4551   24.4409 H   0  0  0  0  0  0  0  0  0  0  0  0
    4.7828   -4.1037   26.0011 H   0  0  0  0  0  0  0  0  0  0  0  0
    6.2293   -5.3163   27.6274 H   0  0  0  0  0  0  0  0  0  0  0  0
  1  2  1  0
  2  3  2  0
  3  4  1  0
  4  5  2  0
  5  6  1  0
  6  7  1  0
  7  8  1  0
  8  9  1  0
  9 10  1  0
 10 11  2  0
 11 12  1  0
 12 13  2  0
 13 14  1  0
 14 15  1  0
 15 16  2  0
 16 17  1  0
 17 18  2  0
 18 19  1  0
 19 20  2  0
 20 21  1  0
 18 22  1  0
 17 23  1  0
 16 24  1  0
 14 25  1  0
 10 26  1  0
  8 27  1  0
  8 28  1  0
  7 29  1  0
  7 30  1  0
  6 31  2  0
 31 32  1  0
  5 33  1  0
  4 34  1  0
  3 35  1  0
 31  2  1  0
 13  9  1  0
 20 15  1  0
M  END
>  <cnnaffinity>  (1) 
5.34834

>  <plip>  (1) 
-0.10344827586206896

>  <filename>  (1) 
[H][c]1[n][c]([H])[c]([N]([H])[c]2[n][n][c]([H])[n]2[C]([H])([H])[C]([H])([H])[c]2[c]([H])[c]([H])[c]([H])[c]([Br])[c]2[H])[c]([H])[c]1[H]

>  <combo1>  (1) 
-0.5357842669759089

$$$$
