
     RDKit          3D

 31 32  0  0  0  0  0  0  0  0999 V2000
    8.4694   -4.4351   22.8517 F   0  0  0  0  0  0  0  0  0  0  0  0
    8.2180   -3.7095   21.7074 C   0  0  0  0  0  0  0  0  0  0  0  0
    7.6489   -2.3657   22.0792 C   0  0  0  0  0  0  0  0  0  0  0  0
    7.4722   -1.5629   20.8484 N   0  0  0  0  0  4  0  0  0  0  0  0
    7.1304   -0.1042   21.1080 C   0  0  0  0  0  0  0  0  0  0  0  0
    6.4466    0.3539   19.8380 C   0  0  0  0  0  0  0  0  0  0  0  0
    5.2022    1.0011   19.9329 C   0  0  0  0  0  0  0  0  0  0  0  0
    4.6261    1.5436   18.7848 C   0  0  0  0  0  0  0  0  0  0  0  0
    5.3063    1.4084   17.5711 C   0  0  0  0  0  0  0  0  0  0  0  0
    6.4471    0.7169   17.4450 N   0  0  0  0  0  0  0  0  0  0  0  0
    6.9758    0.1722   18.5509 C   0  0  0  0  0  0  0  0  0  0  0  0
    7.8681   -0.4322   18.3773 H   0  0  0  0  0  0  0  0  0  0  0  0
    4.9131    1.8577   16.6606 H   0  0  0  0  0  0  0  0  0  0  0  0
    3.6800    2.0699   18.8147 H   0  0  0  0  0  0  0  0  0  0  0  0
    4.6887    1.0617   20.8951 H   0  0  0  0  0  0  0  0  0  0  0  0
    8.2489    0.7678   21.7718 C   0  0  0  0  0  0  0  0  0  0  0  0
    9.3902    1.2372   21.1211 C   0  0  0  0  0  0  0  0  0  0  0  0
   10.2924    1.9693   21.8926 C   0  0  0  0  0  0  0  0  0  0  0  0
   10.1182    2.1988   23.1910 N   0  0  0  0  0  0  0  0  0  0  0  0
    8.9966    1.7077   23.7225 C   0  0  0  0  0  0  0  0  0  0  0  0
    8.0619    1.0143   23.0859 N   0  0  0  0  0  0  0  0  0  0  0  0
    8.8409    1.8820   24.7869 H   0  0  0  0  0  0  0  0  0  0  0  0
   11.2063    2.3712   21.4550 H   0  0  0  0  0  0  0  0  0  0  0  0
    9.5879    0.9898   20.0900 H   0  0  0  0  0  0  0  0  0  0  0  0
    6.3991   -0.1095   21.9138 H   0  0  0  0  0  0  0  0  0  0  0  0
    8.3533   -1.5606   20.2704 H   0  0  0  0  0  0  0  0  0  0  0  0
    6.7027   -1.9376   20.2340 H   0  0  0  0  0  0  0  0  0  0  0  0
    8.3307   -1.8703   22.7807 H   0  0  0  0  0  0  0  0  0  0  0  0
    6.7075   -2.5105   22.6305 H   0  0  0  0  0  0  0  0  0  0  0  0
    7.5073   -4.2627   21.0884 H   0  0  0  0  0  0  0  0  0  0  0  0
    9.1427   -3.5545   21.1427 H   0  0  0  0  0  0  0  0  0  0  0  0
  1  2  1  0
  2  3  1  0
  3  4  1  0
  4  5  1  0
  5  6  1  0
  6  7  2  0
  7  8  1  0
  8  9  2  0
  9 10  1  0
 10 11  2  0
 11 12  1  0
  9 13  1  0
  8 14  1  0
  7 15  1  0
  5 16  1  0
 16 17  2  0
 17 18  1  0
 18 19  2  0
 19 20  1  0
 20 21  2  0
 20 22  1  0
 18 23  1  0
 17 24  1  0
  5 25  1  0
  4 26  1  0
  4 27  1  0
  3 28  1  0
  3 29  1  0
  2 30  1  0
  2 31  1  0
 11  6  1  0
 21 16  1  0
M  CHG  1   4   1
M  END
>  <cnnaffinity>  (1) 
4.55777

>  <plip>  (1) 
-0.07142857142857142

>  <filename>  (1) 
[H][c]1[n][c]([H])[c]([H])[c]([C]([H])([c]2[c]([H])[n][c]([H])[c]([H])[c]2[H])[N+]([H])([H])[C]([H])([H])[C]([H])([H])[F])[n]1

>  <combo1>  (1) 
-0.4652048413140707

$$$$
