
     RDKit          3D

 35 37  0  0  0  0  0  0  0  0999 V2000
    8.7343   -0.6124   21.0809 C   0  0  0  0  0  0  0  0  0  0  0  0
    7.4059   -0.6717   20.9300 C   0  0  0  0  0  0  0  0  0  0  0  0
    6.6684    0.0481   19.8461 C   0  0  0  0  0  0  0  0  0  0  0  0
    5.4353    0.6914   20.0715 C   0  0  0  0  0  0  0  0  0  0  0  0
    4.8066    1.3482   19.0129 C   0  0  0  0  0  0  0  0  0  0  0  0
    5.4087    1.3450   17.7515 C   0  0  0  0  0  0  0  0  0  0  0  0
    6.5695    0.7177   17.4992 N   0  0  0  0  0  0  0  0  0  0  0  0
    7.1703    0.1059   18.5264 C   0  0  0  0  0  0  0  0  0  0  0  0
    8.0978   -0.4085   18.2842 H   0  0  0  0  0  0  0  0  0  0  0  0
    4.9364    1.8537   16.9115 H   0  0  0  0  0  0  0  0  0  0  0  0
    3.8610    1.8622   19.1480 H   0  0  0  0  0  0  0  0  0  0  0  0
    4.9755    0.6937   21.0631 H   0  0  0  0  0  0  0  0  0  0  0  0
    6.5358   -1.4418   21.9230 C   0  0  0  0  0  0  0  0  0  0  0  0
    7.2846   -2.5096   22.6936 N   0  0  0  0  0  4  0  0  0  0  0  0
    6.4769   -3.2426   23.7421 C   0  0  0  0  0  0  0  0  0  0  0  0
    7.2894   -4.4296   24.1619 C   0  0  0  0  0  0  0  0  0  0  0  0
    7.8536   -4.7006   25.3858 C   0  0  0  0  0  0  0  0  0  0  0  0
    8.6109   -5.8139   25.2109 N   0  0  0  0  0  0  0  0  0  0  0  0
    8.5642   -6.2884   23.9592 N   0  0  0  0  0  0  0  0  0  0  0  0
    7.7654   -5.4496   23.3131 C   0  0  0  0  0  0  0  0  0  0  0  0
    7.5513   -5.5983   22.2577 H   0  0  0  0  0  0  0  0  0  0  0  0
    9.1922   -6.2860   25.8919 H   0  0  0  0  0  0  0  0  0  0  0  0
    7.8134   -4.1549   26.3237 H   0  0  0  0  0  0  0  0  0  0  0  0
    5.5039   -3.5390   23.3292 H   0  0  0  0  0  0  0  0  0  0  0  0
    6.2728   -2.5899   24.6011 H   0  0  0  0  0  0  0  0  0  0  0  0
    8.5821   -1.8955   23.2716 C   0  0  0  0  0  0  0  0  0  0  0  0
    9.4737   -1.4119   22.1339 C   0  0  0  0  0  0  0  0  0  0  0  0
   10.2641   -0.8020   22.5765 H   0  0  0  0  0  0  0  0  0  0  0  0
    9.9748   -2.2632   21.6600 H   0  0  0  0  0  0  0  0  0  0  0  0
    9.0750   -2.6619   23.8759 H   0  0  0  0  0  0  0  0  0  0  0  0
    8.2959   -1.0561   23.9157 H   0  0  0  0  0  0  0  0  0  0  0  0
    7.5788   -3.2705   22.0415 H   0  0  0  0  0  0  0  0  0  0  0  0
    6.1124   -0.7233   22.6406 H   0  0  0  0  0  0  0  0  0  0  0  0
    5.7080   -1.8981   21.3784 H   0  0  0  0  0  0  0  0  0  0  0  0
    9.3320    0.0371   20.4388 H   0  0  0  0  0  0  0  0  0  0  0  0
  1  2  2  0
  2  3  1  0
  3  4  2  0
  4  5  1  0
  5  6  2  0
  6  7  1  0
  7  8  2  0
  8  9  1  0
  6 10  1  0
  5 11  1  0
  4 12  1  0
  2 13  1  0
 13 14  1  0
 14 15  1  0
 15 16  1  0
 16 17  2  0
 17 18  1  0
 18 19  1  0
 19 20  2  0
 20 21  1  0
 18 22  1  0
 17 23  1  0
 15 24  1  0
 15 25  1  0
 14 26  1  0
 26 27  1  0
 27 28  1  0
 27 29  1  0
 26 30  1  0
 26 31  1  0
 14 32  1  0
 13 33  1  0
 13 34  1  0
  1 35  1  0
 27  1  1  0
  8  3  1  0
 20 16  1  0
M  CHG  1  14   1
M  END
>  <cnnaffinity>  (1) 
5.02439

>  <plip>  (1) 
-0.10714285714285714

>  <filename>  (1) 
[H][C]1=[C]([c]2[c]([H])[n][c]([H])[c]([H])[c]2[H])[C]([H])([H])[N+]([H])([C]([H])([H])[c]2[c]([H])[n][n]([H])[c]2[H])[C]([H])([H])[C]1([H])[H]

>  <combo1>  (1) 
-0.7435935156101077

$$$$
