
     RDKit          3D

 23 24  0  0  0  0  0  0  0  0999 V2000
    4.9340    1.7800   17.0138 H   0  0  0  0  0  0  0  0  0  0  0  0
    5.4145    1.2789   17.8495 C   0  0  0  0  0  0  0  0  0  0  0  0
    6.5770    0.6610   17.5815 N   0  0  0  0  0  0  0  0  0  0  0  0
    7.1969    0.0387   18.5906 C   0  0  0  0  0  0  0  0  0  0  0  0
    8.1435   -0.4482   18.3693 H   0  0  0  0  0  0  0  0  0  0  0  0
    6.6913   -0.0103   19.9097 C   0  0  0  0  0  0  0  0  0  0  0  0
    7.3166   -0.6577   21.0222 N   0  0  0  0  0  0  0  0  0  0  0  0
    8.4003   -1.2087   20.7540 N   0  0  0  0  0  0  0  0  0  0  0  0
    8.9916   -1.9535   21.9141 C   0  0  2  0  0  0  0  0  0  0  0  0
    9.8547   -2.4448   21.4694 H   0  0  0  0  0  0  0  0  0  0  0  0
    8.1479   -2.9784   22.5254 N   0  0  0  0  0  0  0  0  0  0  0  0
    8.0220   -2.5818   23.7303 C   0  0  0  0  0  0  0  0  0  0  0  0
    7.2431   -3.2019   24.6011 N   0  0  0  0  0  0  0  0  0  0  0  0
    6.7810   -3.9932   24.2024 H   0  0  0  0  0  0  0  0  0  0  0  0
    7.2076   -2.8692   25.5388 H   0  0  0  0  0  0  0  0  0  0  0  0
    8.6813   -1.5137   24.1961 O   0  0  0  0  0  0  0  0  0  0  0  0
    9.4133   -1.0092   23.0571 C   0  0  0  0  0  0  0  0  0  0  0  0
   10.4863   -1.0620   23.2639 H   0  0  0  0  0  0  0  0  0  0  0  0
    9.1296    0.0313   22.8628 H   0  0  0  0  0  0  0  0  0  0  0  0
    5.4719    0.6277   20.1695 C   0  0  0  0  0  0  0  0  0  0  0  0
    5.0657    0.5952   21.1805 H   0  0  0  0  0  0  0  0  0  0  0  0
    4.8270    1.2886   19.1229 C   0  0  0  0  0  0  0  0  0  0  0  0
    3.8950    1.8215   19.2742 H   0  0  0  0  0  0  0  0  0  0  0  0
  1  2  1  0
  2  3  2  0
  3  4  1  0
  4  5  1  0
  4  6  2  0
  6  7  1  0
  7  8  2  3
  8  9  1  0
  9 10  1  6
  9 11  1  0
 11 12  2  0
 12 13  1  0
 13 14  1  0
 13 15  1  0
 12 16  1  0
 16 17  1  0
 17 18  1  0
 17 19  1  0
  6 20  1  0
 20 21  1  0
 20 22  2  0
 22 23  1  0
 22  2  1  0
 17  9  1  0
M  END
>  <cnnaffinity>  (1) 
4.13898

>  <plip>  (1) 
-0.06666666666666667

>  <filename>  (1) 
[H][c]1[n][c]([H])[c]([N]=[N][C@]2([H])[N]=[C]([N]([H])[H])[O][C]2([H])[H])[c]([H])[c]1[H]

>  <combo1>  (1) 
-0.481068094884428

$$$$
