
     RDKit          3D

 28 29  0  0  0  0  0  0  0  0999 V2000
    5.5455   -1.9759   20.2264 H   0  0  0  0  0  0  0  0  0  0  0  0
    5.8841   -2.5679   20.9861 N   0  0  0  0  0  0  0  0  0  0  0  0
    6.8818   -1.9313   21.4566 C   0  0  0  0  0  0  0  0  0  0  0  0
    7.9085   -2.5096   22.7729 S   0  0  0  0  0  0  0  0  0  0  0  0
    8.9325   -1.1120   22.6484 C   0  0  0  0  0  0  0  0  0  0  0  0
    9.7891   -0.9996   23.2950 H   0  0  0  0  0  0  0  0  0  0  0  0
    8.5342   -0.2759   21.6787 C   0  0  0  0  0  0  0  0  0  0  0  0
    9.0686    1.0847   21.4001 C   0  0  0  0  0  0  0  0  0  0  0  0
    9.9950    1.2475   21.9493 H   0  0  0  0  0  0  0  0  0  0  0  0
    9.2301    1.2007   20.3310 H   0  0  0  0  0  0  0  0  0  0  0  0
    8.0121    2.0737   21.8355 C   0  0  0  0  0  0  0  0  0  0  0  0
    7.2243    2.6057   21.0967 O   0  0  0  0  0  0  0  0  0  0  0  0
    8.0348    2.2668   23.1685 O   0  0  0  0  0  0  0  0  0  0  0  0
    7.1343    3.2702   23.6786 C   0  0  0  0  0  0  0  0  0  0  0  0
    7.5095    4.2756   23.4507 H   0  0  0  0  0  0  0  0  0  0  0  0
    7.0871    3.1242   24.7587 H   0  0  0  0  0  0  0  0  0  0  0  0
    6.1420    3.1528   23.2299 H   0  0  0  0  0  0  0  0  0  0  0  0
    7.3840   -0.6957   20.9942 N   0  0  0  0  0  0  0  0  0  0  0  0
    6.6988   -0.0029   19.9135 C   0  0  0  0  0  0  0  0  0  0  0  0
    7.1999    0.0431   18.5927 C   0  0  0  0  0  0  0  0  0  0  0  0
    8.1304   -0.4696   18.3542 H   0  0  0  0  0  0  0  0  0  0  0  0
    6.5812    0.6565   17.5696 N   0  0  0  0  0  0  0  0  0  0  0  0
    5.4195    1.2766   17.8338 C   0  0  0  0  0  0  0  0  0  0  0  0
    4.9421    1.7941   17.0037 H   0  0  0  0  0  0  0  0  0  0  0  0
    4.8277    1.2800   19.1005 C   0  0  0  0  0  0  0  0  0  0  0  0
    3.8984    1.8140   19.2577 H   0  0  0  0  0  0  0  0  0  0  0  0
    5.4642    0.6147   20.1569 C   0  0  0  0  0  0  0  0  0  0  0  0
    5.0718    0.6355   21.1748 H   0  0  0  0  0  0  0  0  0  0  0  0
  1  2  1  0
  2  3  2  3
  3  4  1  0
  4  5  1  0
  5  6  1  0
  5  7  2  0
  7  8  1  0
  8  9  1  0
  8 10  1  0
  8 11  1  0
 11 12  2  0
 11 13  1  0
 13 14  1  0
 14 15  1  0
 14 16  1  0
 14 17  1  0
  7 18  1  0
 18 19  1  0
 19 20  2  0
 20 21  1  0
 20 22  1  0
 22 23  2  0
 23 24  1  0
 23 25  1  0
 25 26  1  0
 25 27  2  0
 27 28  1  0
 18  3  1  0
 27 19  1  0
M  END
>  <cnnaffinity>  (1) 
4.63869

>  <plip>  (1) 
-0.10714285714285714

>  <filename>  (1) 
[H][N]=[c]1[s][c]([H])[c]([C]([H])([H])[C](=[O])[O][C]([H])([H])[H])[n]1-[c]1[c]([H])[n][c]([H])[c]([H])[c]1[H]

>  <combo1>  (1) 
-0.664544014119818

$$$$
