
     RDKit          3D

 38 42  0  0  0  0  0  0  0  0999 V2000
    4.9207    1.7753   17.0022 H   0  0  0  0  0  0  0  0  0  0  0  0
    5.4040    1.2891   17.8461 C   0  0  0  0  0  0  0  0  0  0  0  0
    6.5682    0.6744   17.5867 N   0  0  0  0  0  0  0  0  0  0  0  0
    7.1750    0.0598   18.6038 C   0  0  0  0  0  0  0  0  0  0  0  0
    8.1218   -0.4305   18.3853 H   0  0  0  0  0  0  0  0  0  0  0  0
    6.6502    0.0150   19.9035 C   0  0  0  0  0  0  0  0  0  0  0  0
    7.4040   -0.7029   20.9230 C   0  0  0  0  0  0  0  0  0  0  0  0
    8.5255   -1.3337   20.7941 N   0  0  0  0  0  0  0  0  0  0  0  0
    8.8250   -1.8534   22.0382 N   0  0  0  0  0  0  0  0  0  0  0  0
    7.8650   -1.5028   22.8357 C   0  0  0  0  0  0  0  0  0  0  0  0
    7.7597   -1.8270   24.2925 C   0  0  0  0  0  0  0  0  0  0  0  0
    6.4903   -1.4659   25.0161 C   0  0  0  0  0  0  0  0  0  0  0  0
    6.3914   -0.3230   25.7808 C   0  0  0  0  0  0  0  0  0  0  0  0
    7.2510    0.3391   25.8546 H   0  0  0  0  0  0  0  0  0  0  0  0
    5.2904    0.0822   26.4745 N   0  0  0  0  0  0  0  0  0  0  0  0
    4.2269   -0.6871   26.4033 C   0  0  0  0  0  0  0  0  0  0  0  0
    3.3415   -0.3727   26.9555 H   0  0  0  0  0  0  0  0  0  0  0  0
    4.1545   -1.8937   25.6467 C   0  0  0  0  0  0  0  0  0  0  0  0
    2.9642   -2.6839   25.5721 C   0  0  0  0  0  0  0  0  0  0  0  0
    2.0794   -2.3722   26.1281 H   0  0  0  0  0  0  0  0  0  0  0  0
    2.9369   -3.8207   24.8021 C   0  0  0  0  0  0  0  0  0  0  0  0
    2.0343   -4.4260   24.7445 H   0  0  0  0  0  0  0  0  0  0  0  0
    4.0884   -4.2212   24.0696 C   0  0  0  0  0  0  0  0  0  0  0  0
    4.0536   -5.1198   23.4602 H   0  0  0  0  0  0  0  0  0  0  0  0
    5.2469   -3.4794   24.1289 C   0  0  0  0  0  0  0  0  0  0  0  0
    6.1219   -3.7759   23.5558 H   0  0  0  0  0  0  0  0  0  0  0  0
    5.3175   -2.2948   24.9235 C   0  0  0  0  0  0  0  0  0  0  0  0
    9.0620   -1.7586   25.0811 C   0  0  0  0  0  0  0  0  0  0  0  0
    9.0049   -1.4399   26.1185 H   0  0  0  0  0  0  0  0  0  0  0  0
    9.9511   -1.4500   24.5401 H   0  0  0  0  0  0  0  0  0  0  0  0
    8.4948   -3.0878   24.7531 C   0  0  0  0  0  0  0  0  0  0  0  0
    8.0400   -3.6469   25.5658 H   0  0  0  0  0  0  0  0  0  0  0  0
    9.0029   -3.6670   23.9869 H   0  0  0  0  0  0  0  0  0  0  0  0
    6.9257   -0.7645   22.1911 O   0  0  0  0  0  0  0  0  0  0  0  0
    5.4300    0.6562   20.1681 C   0  0  0  0  0  0  0  0  0  0  0  0
    4.9943    0.6383   21.1702 H   0  0  0  0  0  0  0  0  0  0  0  0
    4.8030    1.3107   19.1111 C   0  0  0  0  0  0  0  0  0  0  0  0
    3.8714    1.8453   19.2588 H   0  0  0  0  0  0  0  0  0  0  0  0
  1  2  1  0
  2  3  2  0
  3  4  1  0
  4  5  1  0
  4  6  2  0
  6  7  1  0
  7  8  2  0
  8  9  1  0
  9 10  2  0
 10 11  1  0
 11 12  1  0
 12 13  2  0
 13 14  1  0
 13 15  1  0
 15 16  2  0
 16 17  1  0
 16 18  1  0
 18 19  2  0
 19 20  1  0
 19 21  1  0
 21 22  1  0
 21 23  2  0
 23 24  1  0
 23 25  1  0
 25 26  1  0
 25 27  2  0
 11 28  1  0
 28 29  1  0
 28 30  1  0
 28 31  1  0
 31 32  1  0
 31 33  1  0
 10 34  1  0
  6 35  1  0
 35 36  1  0
 35 37  2  0
 37 38  1  0
 37  2  1  0
 34  7  1  0
 31 11  1  0
 27 12  1  0
 27 18  1  0
M  END
>  <cnnaffinity>  (1) 
5.73992

>  <plip>  (1) 
-0.0

>  <filename>  (1) 
[H][c]1[n][c]([H])[c](-[c]2[n][n][c]([C]3([c]4[c]([H])[n][c]([H])[c]5[c]([H])[c]([H])[c]([H])[c]([H])[c]45)[C]([H])([H])[C]3([H])[H])[o]2)[c]([H])[c]1[H]

>  <combo1>  (1) 
-6.086587688379332e-06

$$$$
