
     RDKit          3D

 26 28  0  0  0  0  0  0  0  0999 V2000
    4.9578    1.8070   16.9761 H   0  0  0  0  0  0  0  0  0  0  0  0
    5.4300    1.2843   17.8090 C   0  0  0  0  0  0  0  0  0  0  0  0
    6.5870    0.6604   17.5377 N   0  0  0  0  0  0  0  0  0  0  0  0
    7.2051    0.0349   18.5458 C   0  0  0  0  0  0  0  0  0  0  0  0
    8.1116   -0.5076   18.2813 H   0  0  0  0  0  0  0  0  0  0  0  0
    6.7294   -0.0085   19.8677 C   0  0  0  0  0  0  0  0  0  0  0  0
    7.4736   -0.7186   20.9277 C   0  0  0  0  0  0  0  0  0  0  0  0
    7.0418   -1.6686   21.8305 C   0  0  0  0  0  0  0  0  0  0  0  0
    5.6902   -2.3169   21.7445 C   0  0  0  0  0  0  0  0  0  0  0  0
    5.3974   -2.8489   22.6536 H   0  0  0  0  0  0  0  0  0  0  0  0
    4.9578   -1.5454   21.5060 H   0  0  0  0  0  0  0  0  0  0  0  0
    5.6408   -3.2370   20.5914 C   0  0  0  0  0  0  0  0  0  0  0  0
    5.8862   -4.5198   20.5399 N   0  0  0  0  0  0  0  0  0  0  0  0
    5.7555   -4.8673   19.2446 N   0  0  0  0  0  0  0  0  0  0  0  0
    5.4410   -3.8491   18.5230 N   0  0  0  0  0  0  0  0  0  0  0  0
    5.3690   -2.8179   19.3490 N   0  0  0  0  0  0  0  0  0  0  0  0
    5.1985   -1.8903   18.9969 H   0  0  0  0  0  0  0  0  0  0  0  0
    8.1784   -1.9988   22.5938 C   0  0  0  0  0  0  0  0  0  0  0  0
    8.2672   -2.7319   23.3908 H   0  0  0  0  0  0  0  0  0  0  0  0
    9.2418   -1.3026   22.2067 N   0  0  0  0  0  0  0  0  0  0  0  0
    8.7938   -0.5463   21.1892 N   0  0  0  0  0  0  0  0  0  0  0  0
    9.3862    0.1491   20.7580 H   0  0  0  0  0  0  0  0  0  0  0  0
    5.5056    0.6347   20.1258 C   0  0  0  0  0  0  0  0  0  0  0  0
    5.0897    0.6307   21.1339 H   0  0  0  0  0  0  0  0  0  0  0  0
    4.8506    1.2886   19.0793 C   0  0  0  0  0  0  0  0  0  0  0  0
    3.9183    1.8138   19.2435 H   0  0  0  0  0  0  0  0  0  0  0  0
  1  2  1  0
  2  3  2  0
  3  4  1  0
  4  5  1  0
  4  6  2  0
  6  7  1  0
  7  8  2  0
  8  9  1  0
  9 10  1  0
  9 11  1  0
  9 12  1  0
 12 13  2  0
 13 14  1  0
 14 15  2  0
 15 16  1  0
 16 17  1  0
  8 18  1  0
 18 19  1  0
 18 20  2  0
 20 21  1  0
 21 22  1  0
  6 23  1  0
 23 24  1  0
 23 25  2  0
 25 26  1  0
 25  2  1  0
 21  7  1  0
 16 12  1  0
M  END
>  <cnnaffinity>  (1) 
5.05926

>  <plip>  (1) 
-0.13333333333333333

>  <filename>  (1) 
[H][c]1[n][c]([H])[c](-[c]2[c]([C]([H])([H])[c]3[n][n][n][n]3[H])[c]([H])[n][n]2[H])[c]([H])[c]1[H]

>  <combo1>  (1) 
-0.9895480810276768

$$$$
