
     RDKit          3D

 26 26  0  0  0  0  0  0  0  0999 V2000
   11.3271    4.8471   21.6345 H   0  0  0  0  0  0  0  0  0  0  0  0
   11.7560    4.2298   22.2445 O   0  0  0  0  0  0  0  0  0  0  0  0
   11.3041    2.9377   21.8652 C   0  0  0  0  0  0  0  0  0  0  0  0
   12.0013    2.2225   22.3160 H   0  0  0  0  0  0  0  0  0  0  0  0
   11.3629    2.8213   20.7757 H   0  0  0  0  0  0  0  0  0  0  0  0
    9.8640    2.6542   22.3324 C   0  0  0  0  0  0  0  0  0  0  0  0
    9.2459    3.5274   22.0687 H   0  0  0  0  0  0  0  0  0  0  0  0
    9.8643    2.6035   23.4358 H   0  0  0  0  0  0  0  0  0  0  0  0
    9.2631    1.4951   21.7176 N   0  0  0  0  0  0  0  0  0  0  0  0
    8.5539    1.6342   21.0164 H   0  0  0  0  0  0  0  0  0  0  0  0
    9.6193    0.1516   22.0246 C   0  0  0  0  0  0  0  0  0  0  0  0
   10.7115    0.0420   22.1129 H   0  0  0  0  0  0  0  0  0  0  0  0
    9.1765   -0.2277   22.9649 H   0  0  0  0  0  0  0  0  0  0  0  0
    9.1113   -0.9462   20.6585 S   0  0  0  0  0  0  0  0  0  0  0  0
    7.3454   -0.8409   20.8536 C   0  0  0  0  0  0  0  0  0  0  0  0
    6.6000   -1.5649   22.0992 S   0  0  0  0  0  0  0  0  0  0  0  0
    6.6362   -0.0644   19.8120 C   0  0  0  0  0  0  0  0  0  0  0  0
    7.1837    0.0170   18.5219 C   0  0  0  0  0  0  0  0  0  0  0  0
    8.1256   -0.4831   18.2943 H   0  0  0  0  0  0  0  0  0  0  0  0
    6.6333    0.7018   17.5207 N   0  0  0  0  0  0  0  0  0  0  0  0
    5.4904    1.3534   17.7837 C   0  0  0  0  0  0  0  0  0  0  0  0
    5.0642    1.9095   16.9523 H   0  0  0  0  0  0  0  0  0  0  0  0
    4.8503    1.3296   19.0245 C   0  0  0  0  0  0  0  0  0  0  0  0
    3.9253    1.8808   19.1665 H   0  0  0  0  0  0  0  0  0  0  0  0
    5.4210    0.6003   20.0682 C   0  0  0  0  0  0  0  0  0  0  0  0
    4.9513    0.5477   21.0511 H   0  0  0  0  0  0  0  0  0  0  0  0
  1  2  1  0
  2  3  1  0
  3  4  1  0
  3  5  1  0
  3  6  1  0
  6  7  1  0
  6  8  1  0
  6  9  1  0
  9 10  1  0
  9 11  1  0
 11 12  1  0
 11 13  1  0
 11 14  1  0
 14 15  1  0
 15 16  2  0
 15 17  1  0
 17 18  2  0
 18 19  1  0
 18 20  1  0
 20 21  2  0
 21 22  1  0
 21 23  1  0
 23 24  1  0
 23 25  2  0
 25 26  1  0
 25 17  1  0
M  END
>  <cnnaffinity>  (1) 
3.95315

>  <plip>  (1) 
-0.10714285714285714

>  <filename>  (1) 
[H][O][C]([H])([H])[C]([H])([H])[N]([H])[C]([H])([H])[S][C](=[S])[c]1[c]([H])[n][c]([H])[c]([H])[c]1[H]

>  <combo1>  (1) 
-0.6183003064325817

$$$$
