
     RDKit          3D

 32 34  0  0  0  0  0  0  0  0999 V2000
    6.0363   -6.9126   23.4075 H   0  0  0  0  0  0  0  0  0  0  0  0
    6.3554   -5.9937   23.8983 C   0  0  0  0  0  0  0  0  0  0  0  0
    6.6567   -4.9892   23.0673 N   0  0  0  0  0  0  0  0  0  0  0  0
    7.1021   -3.8435   23.6067 C   0  0  0  0  0  0  0  0  0  0  0  0
    7.4606   -2.7309   22.6614 C   0  0  0  0  0  0  0  0  0  0  0  0
    7.0912   -2.9699   21.6614 H   0  0  0  0  0  0  0  0  0  0  0  0
    6.9956   -1.7938   22.9968 H   0  0  0  0  0  0  0  0  0  0  0  0
    8.9045   -2.5800   22.6260 O   0  0  0  0  0  0  0  0  0  0  0  0
    9.3313   -1.5719   21.8348 C   0  0  0  0  0  0  0  0  0  0  0  0
    8.7065   -0.6170   21.0549 C   0  0  0  0  0  0  0  0  0  0  0  0
    7.3336   -0.5201   20.9156 O   0  0  0  0  0  0  0  0  0  0  0  0
    6.7134    0.0860   19.8535 C   0  0  0  0  0  0  0  0  0  0  0  0
    7.1962    0.0564   18.5358 C   0  0  0  0  0  0  0  0  0  0  0  0
    8.1098   -0.4872   18.2986 H   0  0  0  0  0  0  0  0  0  0  0  0
    6.5715    0.6636   17.5154 N   0  0  0  0  0  0  0  0  0  0  0  0
    5.4227    1.3074   17.7704 C   0  0  0  0  0  0  0  0  0  0  0  0
    4.9524    1.8185   16.9325 H   0  0  0  0  0  0  0  0  0  0  0  0
    4.8311    1.3312   19.0395 C   0  0  0  0  0  0  0  0  0  0  0  0
    3.8906    1.8526   19.1860 H   0  0  0  0  0  0  0  0  0  0  0  0
    5.4779    0.6987   20.1026 C   0  0  0  0  0  0  0  0  0  0  0  0
    5.0516    0.6690   21.1049 H   0  0  0  0  0  0  0  0  0  0  0  0
    9.7500    0.2131   20.6163 C   0  0  0  0  0  0  0  0  0  0  0  0
    9.6754    1.0917   20.0058 H   0  0  0  0  0  0  0  0  0  0  0  0
   10.9323   -0.2048   21.0437 N   0  0  0  0  0  0  0  0  0  0  0  0
   10.6490   -1.3012   21.7742 N   0  0  0  0  0  0  0  0  0  0  0  0
   11.3933   -1.8240   22.2066 H   0  0  0  0  0  0  0  0  0  0  0  0
    7.2390   -3.6496   24.9895 C   0  0  0  0  0  0  0  0  0  0  0  0
    7.5948   -2.6974   25.3798 H   0  0  0  0  0  0  0  0  0  0  0  0
    6.9056   -4.6999   25.8471 C   0  0  0  0  0  0  0  0  0  0  0  0
    6.9840   -4.5781   26.9264 H   0  0  0  0  0  0  0  0  0  0  0  0
    6.4605   -5.9006   25.2908 C   0  0  0  0  0  0  0  0  0  0  0  0
    6.2263   -6.7551   25.9200 H   0  0  0  0  0  0  0  0  0  0  0  0
  1  2  1  0
  2  3  2  0
  3  4  1  0
  4  5  1  0
  5  6  1  0
  5  7  1  0
  5  8  1  0
  8  9  1  0
  9 10  2  0
 10 11  1  0
 11 12  1  0
 12 13  2  0
 13 14  1  0
 13 15  1  0
 15 16  2  0
 16 17  1  0
 16 18  1  0
 18 19  1  0
 18 20  2  0
 20 21  1  0
 10 22  1  0
 22 23  1  0
 22 24  2  0
 24 25  1  0
 25 26  1  0
  4 27  2  0
 27 28  1  0
 27 29  1  0
 29 30  1  0
 29 31  2  0
 31 32  1  0
 31  2  1  0
 25  9  1  0
 20 12  1  0
M  END
>  <cnnaffinity>  (1) 
5.11788

>  <plip>  (1) 
-0.10344827586206896

>  <filename>  (1) 
[H][c]1[n][c]([C]([H])([H])[O][c]2[c]([O][c]3[c]([H])[n][c]([H])[c]([H])[c]3[H])[c]([H])[n][n]2[H])[c]([H])[c]([H])[c]1[H]

>  <combo1>  (1) 
-0.6578248545887637

$$$$
