
     RDKit          3D

 23 24  0  0  0  0  0  0  0  0999 V2000
    4.9227    1.7773   16.9988 H   0  0  0  0  0  0  0  0  0  0  0  0
    5.4068    1.2920   17.8426 C   0  0  0  0  0  0  0  0  0  0  0  0
    6.5714    0.6773   17.5874 N   0  0  0  0  0  0  0  0  0  0  0  0
    7.1710    0.0541   18.6063 C   0  0  0  0  0  0  0  0  0  0  0  0
    8.1187   -0.4311   18.3753 H   0  0  0  0  0  0  0  0  0  0  0  0
    6.6349   -0.0026   19.8977 C   0  0  0  0  0  0  0  0  0  0  0  0
    7.4227   -0.6426   21.0060 C   0  0  0  0  0  0  0  0  0  0  0  0
    6.5643   -1.1688   21.9348 F   0  0  0  0  0  0  0  0  0  0  0  0
    8.1244   -1.7130   20.5180 F   0  0  0  0  0  0  0  0  0  0  0  0
    8.3784    0.3222   21.6612 C   0  0  0  0  0  0  0  0  0  0  0  0
    7.9430    1.1412   22.7105 C   0  0  0  0  0  0  0  0  0  0  0  0
    6.9375    1.0511   23.1118 H   0  0  0  0  0  0  0  0  0  0  0  0
    8.7216    2.0667   23.2837 N   0  0  0  0  0  0  0  0  0  0  0  0
    9.9641    2.2251   22.8112 C   0  0  0  0  0  0  0  0  0  0  0  0
   10.5989    2.9661   23.2868 H   0  0  0  0  0  0  0  0  0  0  0  0
   10.4600    1.4706   21.7423 C   0  0  0  0  0  0  0  0  0  0  0  0
   11.7086    1.6691   21.3025 F   0  0  0  0  0  0  0  0  0  0  0  0
    9.6696    0.5068   21.1397 C   0  0  0  0  0  0  0  0  0  0  0  0
   10.0474   -0.0842   20.3092 H   0  0  0  0  0  0  0  0  0  0  0  0
    5.4259    0.6534   20.1596 C   0  0  0  0  0  0  0  0  0  0  0  0
    4.9895    0.6375   21.1619 H   0  0  0  0  0  0  0  0  0  0  0  0
    4.8048    1.3145   19.1057 C   0  0  0  0  0  0  0  0  0  0  0  0
    3.8730    1.8458   19.2580 H   0  0  0  0  0  0  0  0  0  0  0  0
  1  2  1  0
  2  3  2  0
  3  4  1  0
  4  5  1  0
  4  6  2  0
  6  7  1  0
  7  8  1  0
  7  9  1  0
  7 10  1  0
 10 11  2  0
 11 12  1  0
 11 13  1  0
 13 14  2  0
 14 15  1  0
 14 16  1  0
 16 17  1  0
 16 18  2  0
 18 19  1  0
  6 20  1  0
 20 21  1  0
 20 22  2  0
 22 23  1  0
 22  2  1  0
 18 10  1  0
M  END
>  <cnnaffinity>  (1) 
4.54791

>  <plip>  (1) 
-0.034482758620689655

>  <filename>  (1) 
[H][c]1[n][c]([H])[c]([C]([F])([F])[c]2[c]([H])[n][c]([H])[c]([F])[c]2[H])[c]([H])[c]1[H]

>  <combo1>  (1) 
-0.23317718663696008

$$$$
