
     RDKit          3D

 31 33  0  0  0  0  0  0  0  0999 V2000
    4.9776    1.7159   16.9760 H   0  0  0  0  0  0  0  0  0  0  0  0
    5.4532    1.2060   17.8107 C   0  0  0  0  0  0  0  0  0  0  0  0
    6.6057    0.5715   17.5375 N   0  0  0  0  0  0  0  0  0  0  0  0
    7.2509   -0.0124   18.5555 C   0  0  0  0  0  0  0  0  0  0  0  0
    8.1792   -0.5249   18.3112 H   0  0  0  0  0  0  0  0  0  0  0  0
    6.7861    0.0090   19.8947 C   0  0  0  0  0  0  0  0  0  0  0  0
    7.5466   -0.5136   20.9761 N   0  0  0  0  0  0  0  0  0  0  0  0
    8.8378   -0.1052   21.2940 C   0  0  0  0  0  0  0  0  0  0  0  0
    9.5366    0.6579   20.6734 O   0  0  0  0  0  0  0  0  0  0  0  0
    9.2032   -0.8108   22.4540 N   0  0  0  0  0  0  0  0  0  0  0  0
   10.3868   -0.5325   23.1706 N   0  0  0  0  0  0  0  0  0  0  0  0
   10.3815   -0.9146   24.1131 H   0  0  0  0  0  0  0  0  0  0  0  0
   11.6260   -0.7254   22.5358 C   0  0  0  0  0  0  0  0  0  0  0  0
   12.7201   -0.0548   23.0775 C   0  0  0  0  0  0  0  0  0  0  0  0
   12.5702    0.5708   23.9454 H   0  0  0  0  0  0  0  0  0  0  0  0
   13.9522   -0.2002   22.4529 C   0  0  0  0  0  0  0  0  0  0  0  0
   14.8187    0.3304   22.8456 H   0  0  0  0  0  0  0  0  0  0  0  0
   14.1643   -1.0027   21.4014 N   0  0  0  0  0  0  0  0  0  0  0  0
   13.1068   -1.6652   20.9161 C   0  0  0  0  0  0  0  0  0  0  0  0
   13.2802   -2.2935   20.0427 H   0  0  0  0  0  0  0  0  0  0  0  0
   11.8202   -1.5438   21.4302 C   0  0  0  0  0  0  0  0  0  0  0  0
   10.9724   -2.0517   21.0005 H   0  0  0  0  0  0  0  0  0  0  0  0
    8.2167   -1.6985   22.8463 C   0  0  0  0  0  0  0  0  0  0  0  0
    8.3007   -2.5335   23.7166 O   0  0  0  0  0  0  0  0  0  0  0  0
    7.0106   -1.3728   22.0104 C   0  0  0  0  0  0  0  0  0  0  0  0
    6.5386   -2.2806   21.6313 H   0  0  0  0  0  0  0  0  0  0  0  0
    6.3047   -0.8664   22.6817 H   0  0  0  0  0  0  0  0  0  0  0  0
    5.5367    0.5932   20.1391 C   0  0  0  0  0  0  0  0  0  0  0  0
    5.1122    0.5594   21.1425 H   0  0  0  0  0  0  0  0  0  0  0  0
    4.8723    1.2260   19.0835 C   0  0  0  0  0  0  0  0  0  0  0  0
    3.9348    1.7509   19.2390 H   0  0  0  0  0  0  0  0  0  0  0  0
  1  2  1  0
  2  3  2  0
  3  4  1  0
  4  5  1  0
  4  6  2  0
  6  7  1  0
  7  8  1  0
  8  9  2  0
  8 10  1  0
 10 11  1  0
 11 12  1  0
 11 13  1  0
 13 14  2  0
 14 15  1  0
 14 16  1  0
 16 17  1  0
 16 18  2  0
 18 19  1  0
 19 20  1  0
 19 21  2  0
 21 22  1  0
 10 23  1  0
 23 24  2  0
 23 25  1  0
 25 26  1  0
 25 27  1  0
  6 28  1  0
 28 29  1  0
 28 30  2  0
 30 31  1  0
 30  2  1  0
 25  7  1  0
 21 13  1  0
M  END
>  <cnnaffinity>  (1) 
5.60044

>  <plip>  (1) 
-0.07142857142857142

>  <filename>  (1) 
[H][c]1[n][c]([H])[c]([N]2[C](=[O])[N]([N]([H])[c]3[c]([H])[c]([H])[n][c]([H])[c]3[H])[C](=[O])[C]2([H])[H])[c]([H])[c]1[H]

>  <combo1>  (1) 
-0.49521588301373193

$$$$
