
     RDKit          3D

 32 34  0  0  0  0  0  0  0  0999 V2000
    5.1231    1.4876   16.8668 H   0  0  0  0  0  0  0  0  0  0  0  0
    5.5276    1.1592   17.8229 C   0  0  0  0  0  0  0  0  0  0  0  0
    6.7485    0.6031   17.7854 N   0  0  0  0  0  0  0  0  0  0  0  0
    7.2699    0.1685   18.9457 C   0  0  0  0  0  0  0  0  0  0  0  0
    8.2614   -0.2732   18.8900 H   0  0  0  0  0  0  0  0  0  0  0  0
    6.6179    0.2479   20.2038 C   0  0  0  0  0  0  0  0  0  0  0  0
    7.1747   -0.2448   21.4004 N   0  0  0  0  0  0  0  0  0  0  0  0
    6.5196   -0.3028   22.1843 H   0  0  0  0  0  0  0  0  0  0  0  0
    8.2341   -1.1657   21.3549 N   0  0  0  0  0  0  0  0  0  0  0  0
    8.8487   -1.1167   22.1650 H   0  0  0  0  0  0  0  0  0  0  0  0
    7.9520   -2.5424   21.0205 C   0  0  0  0  0  0  0  0  0  0  0  0
    8.9072   -3.0266   20.7851 H   0  0  0  0  0  0  0  0  0  0  0  0
    7.2934   -2.5599   20.1497 H   0  0  0  0  0  0  0  0  0  0  0  0
    7.2969   -3.2837   22.0621 N   0  0  0  0  0  0  0  0  0  0  0  0
    7.9089   -3.6556   23.2430 C   0  0  0  0  0  0  0  0  0  0  0  0
    9.0999   -3.5487   23.4249 O   0  0  0  0  0  0  0  0  0  0  0  0
    6.8087   -4.1540   24.1420 C   0  0  0  0  0  0  0  0  0  0  0  0
    6.8045   -4.6152   25.4681 C   0  0  0  0  0  0  0  0  0  0  0  0
    7.7269   -4.7789   26.0242 H   0  0  0  0  0  0  0  0  0  0  0  0
    5.5666   -4.8507   26.0833 C   0  0  0  0  0  0  0  0  0  0  0  0
    5.5292   -5.1541   27.1300 H   0  0  0  0  0  0  0  0  0  0  0  0
    4.3587   -4.6630   25.3777 C   0  0  0  0  0  0  0  0  0  0  0  0
    3.4072   -4.8477   25.8751 H   0  0  0  0  0  0  0  0  0  0  0  0
    4.3690   -4.2268   24.0495 C   0  0  0  0  0  0  0  0  0  0  0  0
    3.4382   -4.0695   23.5121 H   0  0  0  0  0  0  0  0  0  0  0  0
    5.6053   -3.9823   23.4461 C   0  0  0  0  0  0  0  0  0  0  0  0
    5.9248   -3.4379   22.0948 C   0  0  0  0  0  0  0  0  0  0  0  0
    5.1898   -3.2040   21.1625 O   0  0  0  0  0  0  0  0  0  0  0  0
    5.3617    0.8948   20.2192 C   0  0  0  0  0  0  0  0  0  0  0  0
    4.8384    1.0579   21.1646 H   0  0  0  0  0  0  0  0  0  0  0  0
    4.8040    1.3338   19.0091 C   0  0  0  0  0  0  0  0  0  0  0  0
    3.8366    1.8344   18.9661 H   0  0  0  0  0  0  0  0  0  0  0  0
  1  2  1  0
  2  3  2  0
  3  4  1  0
  4  5  1  0
  4  6  2  0
  6  7  1  0
  7  8  1  0
  7  9  1  0
  9 10  1  0
  9 11  1  0
 11 12  1  0
 11 13  1  0
 11 14  1  0
 14 15  1  0
 15 16  2  0
 15 17  1  0
 17 18  2  0
 18 19  1  0
 18 20  1  0
 20 21  1  0
 20 22  2  0
 22 23  1  0
 22 24  1  0
 24 25  1  0
 24 26  2  0
 26 27  1  0
 27 28  2  0
  6 29  1  0
 29 30  1  0
 29 31  2  0
 31 32  1  0
 31  2  1  0
 27 14  1  0
 26 17  1  0
M  END
>  <cnnaffinity>  (1) 
4.74307

>  <plip>  (1) 
-0.10344827586206896

>  <filename>  (1) 
[H][c]1[n][c]([H])[c]([N]([H])[N]([H])[C]([H])([H])[N]2[C](=[O])[c]3[c]([H])[c]([H])[c]([H])[c]([H])[c]3[C]2=[O])[c]([H])[c]1[H]

>  <combo1>  (1) 
-0.6096487868129631

$$$$
