
     RDKit          3D

 34 34  0  0  0  0  0  0  0  0999 V2000
    6.0481   -4.0289   23.2140 C   0  0  0  0  0  0  0  0  0  0  0  0
    7.1701   -3.2054   23.6851 N   0  0  0  0  0  0  0  0  0  0  0  0
    7.8939   -3.6586   24.8810 C   0  0  0  0  0  0  0  0  0  0  0  0
    9.0086   -4.6599   24.5323 C   0  0  0  0  0  0  0  0  0  0  0  0
    9.9348   -5.0281   25.6986 C   0  0  0  0  0  0  0  0  0  0  0  0
    9.1883   -5.8318   26.7450 N   0  0  0  0  0  4  0  0  0  0  0  0
    8.4787   -5.2315   27.2021 H   0  0  0  0  0  0  0  0  0  0  0  0
    9.8047   -6.2295   27.4793 H   0  0  0  0  0  0  0  0  0  0  0  0
    8.6955   -6.6223   26.2879 H   0  0  0  0  0  0  0  0  0  0  0  0
   10.7898   -5.6047   25.3337 H   0  0  0  0  0  0  0  0  0  0  0  0
   10.3353   -4.1138   26.1517 H   0  0  0  0  0  0  0  0  0  0  0  0
    8.5595   -5.5699   24.1065 H   0  0  0  0  0  0  0  0  0  0  0  0
    9.6253   -4.2084   23.7477 H   0  0  0  0  0  0  0  0  0  0  0  0
    7.1513   -4.0928   25.5693 H   0  0  0  0  0  0  0  0  0  0  0  0
    8.3307   -2.7734   25.3624 H   0  0  0  0  0  0  0  0  0  0  0  0
    7.7256   -2.1713   22.9681 C   0  0  0  0  0  0  0  0  0  0  0  0
    8.8449   -1.7375   23.2313 O   0  0  0  0  0  0  0  0  0  0  0  0
    6.9486   -1.5457   21.8287 C   0  0  0  0  0  0  0  0  0  0  0  0
    7.4565   -0.6953   20.9301 C   0  0  0  0  0  0  0  0  0  0  0  0
    6.6820    0.0250   19.8934 C   0  0  0  0  0  0  0  0  0  0  0  0
    5.4493    0.6515   20.1400 C   0  0  0  0  0  0  0  0  0  0  0  0
    4.8046    1.3136   19.0915 C   0  0  0  0  0  0  0  0  0  0  0  0
    5.3920    1.3037   17.8240 C   0  0  0  0  0  0  0  0  0  0  0  0
    6.5573    0.6908   17.5599 N   0  0  0  0  0  0  0  0  0  0  0  0
    7.1785    0.0851   18.5749 C   0  0  0  0  0  0  0  0  0  0  0  0
    8.1255   -0.3972   18.3338 H   0  0  0  0  0  0  0  0  0  0  0  0
    4.9181    1.8047   16.9785 H   0  0  0  0  0  0  0  0  0  0  0  0
    3.8734    1.8455   19.2361 H   0  0  0  0  0  0  0  0  0  0  0  0
    5.0139    0.6257   21.1364 H   0  0  0  0  0  0  0  0  0  0  0  0
    8.5428   -0.5840   20.9323 H   0  0  0  0  0  0  0  0  0  0  0  0
    5.6544   -1.9340   21.7041 F   0  0  0  0  0  0  0  0  0  0  0  0
    5.0794   -3.5352   23.3560 H   0  0  0  0  0  0  0  0  0  0  0  0
    6.0495   -4.9724   23.7735 H   0  0  0  0  0  0  0  0  0  0  0  0
    6.1545   -4.2633   22.1489 H   0  0  0  0  0  0  0  0  0  0  0  0
  1  2  1  0
  2  3  1  0
  3  4  1  0
  4  5  1  0
  5  6  1  0
  6  7  1  0
  6  8  1  0
  6  9  1  0
  5 10  1  0
  5 11  1  0
  4 12  1  0
  4 13  1  0
  3 14  1  0
  3 15  1  0
  2 16  1  0
 16 17  2  0
 16 18  1  0
 18 19  2  3
 19 20  1  0
 20 21  2  0
 21 22  1  0
 22 23  2  0
 23 24  1  0
 24 25  2  0
 25 26  1  0
 23 27  1  0
 22 28  1  0
 21 29  1  0
 19 30  1  0
 18 31  1  0
  1 32  1  0
  1 33  1  0
  1 34  1  0
 25 20  1  0
M  CHG  1   6   1
M  END
>  <cnnaffinity>  (1) 
4.53275

>  <plip>  (1) 
-0.10714285714285714

>  <filename>  (1) 
[H][C](=[C]([F])[C](=[O])[N]([C]([H])([H])[H])[C]([H])([H])[C]([H])([H])[C]([H])([H])[N+]([H])([H])[H])[c]1[c]([H])[n][c]([H])[c]([H])[c]1[H]

>  <combo1>  (1) 
-0.679368190206007

$$$$
