
     RDKit          3D

 29 31  0  0  0  0  0  0  0  0999 V2000
    4.8104    1.3037   19.1008 C   0  0  0  0  0  0  0  0  0  0  0  0
    5.3916    1.2970   17.8271 C   0  0  0  0  0  0  0  0  0  0  0  0
    6.5513    0.6790   17.5600 N   0  0  0  0  0  0  0  0  0  0  0  0
    7.1675    0.0601   18.5756 C   0  0  0  0  0  0  0  0  0  0  0  0
    6.6682    0.0037   19.9146 C   0  0  0  0  0  0  0  0  0  0  0  0
    7.3163   -0.6198   20.9602 N   0  0  0  0  0  0  0  0  0  0  0  0
    8.5936   -1.2877   20.8173 C   0  0  0  0  0  0  0  0  0  0  0  0
    9.0160   -1.9241   22.1059 C   0  0  0  0  0  0  0  0  0  0  0  0
    9.9475   -1.5135   22.9948 C   0  0  0  0  0  0  0  0  0  0  0  0
   10.0435   -2.3419   24.0803 O   0  0  0  0  0  0  0  0  0  0  0  0
    9.1293   -3.3331   23.8836 C   0  0  0  0  0  0  0  0  0  0  0  0
    8.8451   -4.3905   24.7577 C   0  0  0  0  0  0  0  0  0  0  0  0
    7.8616   -5.2917   24.3501 C   0  0  0  0  0  0  0  0  0  0  0  0
    7.1907   -5.1452   23.1166 C   0  0  0  0  0  0  0  0  0  0  0  0
    7.4841   -4.0809   22.2673 C   0  0  0  0  0  0  0  0  0  0  0  0
    8.4626   -3.1479   22.6635 C   0  0  0  0  0  0  0  0  0  0  0  0
    6.9587   -3.9578   21.3222 H   0  0  0  0  0  0  0  0  0  0  0  0
    6.4241   -5.8697   22.8411 H   0  0  0  0  0  0  0  0  0  0  0  0
    7.6009   -6.1234   25.0016 H   0  0  0  0  0  0  0  0  0  0  0  0
    9.3645   -4.4862   25.7056 H   0  0  0  0  0  0  0  0  0  0  0  0
   10.6182   -0.6622   23.0022 H   0  0  0  0  0  0  0  0  0  0  0  0
    9.3561   -0.5918   20.4254 H   0  0  0  0  0  0  0  0  0  0  0  0
    8.4962   -2.0680   20.0620 H   0  0  0  0  0  0  0  0  0  0  0  0
    6.8762   -0.6159   21.8718 H   0  0  0  0  0  0  0  0  0  0  0  0
    5.4392    0.6488   20.1595 C   0  0  0  0  0  0  0  0  0  0  0  0
    5.0237    0.6303   21.1671 H   0  0  0  0  0  0  0  0  0  0  0  0
    8.1185   -0.4107   18.3263 H   0  0  0  0  0  0  0  0  0  0  0  0
    4.9232    1.8052   16.9904 H   0  0  0  0  0  0  0  0  0  0  0  0
    3.8808    1.8316   19.2547 H   0  0  0  0  0  0  0  0  0  0  0  0
  1  2  2  0
  2  3  1  0
  3  4  2  0
  4  5  1  0
  5  6  1  0
  6  7  1  0
  7  8  1  0
  8  9  2  0
  9 10  1  0
 10 11  1  0
 11 12  2  0
 12 13  1  0
 13 14  2  0
 14 15  1  0
 15 16  2  0
 15 17  1  0
 14 18  1  0
 13 19  1  0
 12 20  1  0
  9 21  1  0
  7 22  1  0
  7 23  1  0
  6 24  1  0
  5 25  2  0
 25 26  1  0
  4 27  1  0
  2 28  1  0
  1 29  1  0
 25  1  1  0
 16  8  1  0
 16 11  1  0
M  END
>  <cnnaffinity>  (1) 
4.69246

>  <plip>  (1) 
-0.10714285714285714

>  <filename>  (1) 
[H][c]1[n][c]([H])[c]([N]([H])[C]([H])([H])[c]2[c]([H])[o][c]3[c]([H])[c]([H])[c]([H])[c]([H])[c]23)[c]([H])[c]1[H]

>  <combo1>  (1) 
-0.7472826865905525

$$$$
