
     RDKit          3D

 29 31  0  0  0  0  0  0  0  0999 V2000
    5.5320    2.9917   26.6086 H   0  0  0  0  0  0  0  0  0  0  0  0
    5.7008    2.0902   26.3074 O   0  0  0  0  0  0  0  0  0  0  0  0
    6.2250    2.1715   25.0570 C   0  0  0  0  0  0  0  0  0  0  0  0
    6.3743    3.4056   24.4193 C   0  0  0  0  0  0  0  0  0  0  0  0
    6.0755    4.3240   24.9213 H   0  0  0  0  0  0  0  0  0  0  0  0
    6.9123    3.4462   23.1319 C   0  0  0  0  0  0  0  0  0  0  0  0
    7.0221    4.3937   22.6212 H   0  0  0  0  0  0  0  0  0  0  0  0
    7.2915    2.2714   22.4820 C   0  0  0  0  0  0  0  0  0  0  0  0
    7.6976    2.3050   21.4782 H   0  0  0  0  0  0  0  0  0  0  0  0
    7.1285    1.0321   23.1125 C   0  0  0  0  0  0  0  0  0  0  0  0
    7.5089   -0.2038   22.4041 C   0  0  0  0  0  0  0  0  0  0  0  0
    7.3153   -0.6659   21.0968 C   0  0  0  0  0  0  0  0  0  0  0  0
    6.6487    0.0315   19.9638 C   0  0  0  0  0  0  0  0  0  0  0  0
    7.1806    0.0726   18.6493 C   0  0  0  0  0  0  0  0  0  0  0  0
    8.1324   -0.4103   18.4355 H   0  0  0  0  0  0  0  0  0  0  0  0
    6.6023    0.6882   17.6071 N   0  0  0  0  0  0  0  0  0  0  0  0
    5.4275    1.2970   17.8294 C   0  0  0  0  0  0  0  0  0  0  0  0
    4.9559    1.7789   16.9720 H   0  0  0  0  0  0  0  0  0  0  0  0
    4.8065    1.3194   19.0804 C   0  0  0  0  0  0  0  0  0  0  0  0
    3.8541    1.8189   19.1944 H   0  0  0  0  0  0  0  0  0  0  0  0
    5.4291    0.6927   20.1627 C   0  0  0  0  0  0  0  0  0  0  0  0
    4.9911    0.7209   21.1609 H   0  0  0  0  0  0  0  0  0  0  0  0
    7.8492   -1.9813   21.1388 C   0  0  0  0  0  0  0  0  0  0  0  0
    7.8217   -2.7564   20.4041 H   0  0  0  0  0  0  0  0  0  0  0  0
    8.3547   -2.2988   22.3161 N   0  0  0  0  0  0  0  0  0  0  0  0
    8.1345   -1.2122   23.0598 N   0  0  0  0  0  0  0  0  0  0  0  0
    8.4465   -1.1954   24.0184 H   0  0  0  0  0  0  0  0  0  0  0  0
    6.6057    0.9903   24.4191 C   0  0  0  0  0  0  0  0  0  0  0  0
    6.4587    0.0485   24.9373 H   0  0  0  0  0  0  0  0  0  0  0  0
  1  2  1  0
  2  3  1  0
  3  4  2  0
  4  5  1  0
  4  6  1  0
  6  7  1  0
  6  8  2  0
  8  9  1  0
  8 10  1  0
 10 11  1  0
 11 12  2  0
 12 13  1  0
 13 14  2  0
 14 15  1  0
 14 16  1  0
 16 17  2  0
 17 18  1  0
 17 19  1  0
 19 20  1  0
 19 21  2  0
 21 22  1  0
 12 23  1  0
 23 24  1  0
 23 25  2  0
 25 26  1  0
 26 27  1  0
 10 28  2  0
 28 29  1  0
 28  3  1  0
 26 11  1  0
 21 13  1  0
M  END
>  <cnnaffinity>  (1) 
4.70554

>  <plip>  (1) 
-0.034482758620689655

>  <filename>  (1) 
[H][O][c]1[c]([H])[c]([H])[c]([H])[c](-[c]2[c](-[c]3[c]([H])[n][c]([H])[c]([H])[c]3[H])[c]([H])[n][n]2[H])[c]1[H]

>  <combo1>  (1) 
-0.22796177502788753

$$$$
