
     RDKit          3D

 28 29  0  0  0  0  0  0  0  0999 V2000
    9.8832   -4.8791   27.6563 H   0  0  0  0  0  0  0  0  0  0  0  0
    9.1507   -4.3864   27.2420 O   0  0  0  0  0  0  0  0  0  0  0  0
    9.7825   -4.2094   26.0659 C   0  0  0  0  0  0  0  0  0  0  0  0
   10.9067   -4.6574   25.9736 O   0  0  0  0  0  0  0  0  0  0  0  0
    9.0480   -3.4950   24.9940 C   0  0  0  0  0  0  0  0  0  0  0  0
    9.6988   -3.2329   23.7697 C   0  0  0  0  0  0  0  0  0  0  0  0
   10.7316   -3.5433   23.6247 H   0  0  0  0  0  0  0  0  0  0  0  0
    9.0141   -2.5797   22.7511 C   0  0  0  0  0  0  0  0  0  0  0  0
    9.5063   -2.4003   21.7968 H   0  0  0  0  0  0  0  0  0  0  0  0
    7.6654   -2.2017   22.9194 C   0  0  0  0  0  0  0  0  0  0  0  0
    6.9443   -1.5418   21.8110 C   0  0  0  0  0  0  0  0  0  0  0  0
    5.6451   -1.9066   21.7125 F   0  0  0  0  0  0  0  0  0  0  0  0
    7.4500   -0.6950   20.9066 C   0  0  0  0  0  0  0  0  0  0  0  0
    8.5225   -0.5256   20.9287 H   0  0  0  0  0  0  0  0  0  0  0  0
    6.6893    0.0385   19.8659 C   0  0  0  0  0  0  0  0  0  0  0  0
    7.1886    0.1053   18.5500 C   0  0  0  0  0  0  0  0  0  0  0  0
    8.1311   -0.3815   18.3043 H   0  0  0  0  0  0  0  0  0  0  0  0
    6.5613    0.7060   17.5349 N   0  0  0  0  0  0  0  0  0  0  0  0
    5.3937    1.3131   17.8097 C   0  0  0  0  0  0  0  0  0  0  0  0
    4.9080    1.8142   16.9750 H   0  0  0  0  0  0  0  0  0  0  0  0
    4.8035    1.3193   19.0762 C   0  0  0  0  0  0  0  0  0  0  0  0
    3.8642    1.8414   19.2301 H   0  0  0  0  0  0  0  0  0  0  0  0
    5.4566    0.6586   20.1206 C   0  0  0  0  0  0  0  0  0  0  0  0
    5.0240    0.6190   21.1184 H   0  0  0  0  0  0  0  0  0  0  0  0
    7.0230   -2.4527   24.1495 C   0  0  0  0  0  0  0  0  0  0  0  0
    5.9878   -2.1545   24.2988 H   0  0  0  0  0  0  0  0  0  0  0  0
    7.7136   -3.0904   25.1740 C   0  0  0  0  0  0  0  0  0  0  0  0
    7.2270   -3.2925   26.1225 H   0  0  0  0  0  0  0  0  0  0  0  0
  1  2  1  0
  2  3  1  0
  3  4  2  0
  3  5  1  0
  5  6  2  0
  6  7  1  0
  6  8  1  0
  8  9  1  0
  8 10  2  0
 10 11  1  0
 11 12  1  0
 11 13  2  3
 13 14  1  0
 13 15  1  0
 15 16  2  0
 16 17  1  0
 16 18  1  0
 18 19  2  0
 19 20  1  0
 19 21  1  0
 21 22  1  0
 21 23  2  0
 23 24  1  0
 10 25  1  0
 25 26  1  0
 25 27  2  0
 27 28  1  0
 27  5  1  0
 23 15  1  0
M  END
>  <cnnaffinity>  (1) 
4.56745

>  <plip>  (1) 
-0.034482758620689655

>  <filename>  (1) 
[H][O][C](=[O])[c]1[c]([H])[c]([H])[c]([C]([F])=[C]([H])[c]2[c]([H])[n][c]([H])[c]([H])[c]2[H])[c]([H])[c]1[H]

>  <combo1>  (1) 
-0.21583651042956592

$$$$
