
     RDKit          3D

 41 43  0  0  0  0  0  0  0  0999 V2000
    8.8210    1.7085   21.0739 O   0  0  0  0  0  0  0  0  0  0  0  0
    8.3212    1.3127   22.1401 C   0  0  0  0  0  0  0  0  0  0  0  0
    7.5715    0.1984   22.1933 N   0  0  0  0  0  0  0  0  0  0  0  0
    7.3225   -0.6633   21.0630 C   0  0  0  0  0  0  0  0  0  0  0  0
    6.6033    0.0821   19.9462 C   0  0  0  0  0  0  0  0  0  0  0  0
    5.3783    0.7363   20.1372 C   0  0  0  0  0  0  0  0  0  0  0  0
    4.7706    1.3556   19.0400 C   0  0  0  0  0  0  0  0  0  0  0  0
    5.4132    1.3092   17.7971 C   0  0  0  0  0  0  0  0  0  0  0  0
    6.5874    0.6947   17.5897 N   0  0  0  0  0  0  0  0  0  0  0  0
    7.1529    0.1086   18.6574 C   0  0  0  0  0  0  0  0  0  0  0  0
    8.1048   -0.3933   18.4706 H   0  0  0  0  0  0  0  0  0  0  0  0
    4.9618    1.7824   16.9260 H   0  0  0  0  0  0  0  0  0  0  0  0
    3.8272    1.8832   19.1362 H   0  0  0  0  0  0  0  0  0  0  0  0
    4.9161    0.7711   21.1271 H   0  0  0  0  0  0  0  0  0  0  0  0
    6.5655   -1.9195   21.5508 C   0  0  0  0  0  0  0  0  0  0  0  0
    6.1279   -2.8318   20.4003 C   0  0  0  0  0  0  0  0  0  0  0  0
    6.2059   -4.2878   20.8860 C   0  0  0  0  0  0  0  0  0  0  0  0
    6.8539   -4.2567   22.2872 C   0  0  0  0  0  0  0  0  0  0  0  0
    7.3562   -2.8225   22.5157 C   0  0  0  0  0  0  0  0  0  0  0  0
    7.2358   -2.5214   23.5616 H   0  0  0  0  0  0  0  0  0  0  0  0
    8.4275   -2.7561   22.3011 H   0  0  0  0  0  0  0  0  0  0  0  0
    6.1221   -4.5464   23.0466 H   0  0  0  0  0  0  0  0  0  0  0  0
    7.6777   -4.9691   22.3716 H   0  0  0  0  0  0  0  0  0  0  0  0
    6.8071   -4.8846   20.1943 H   0  0  0  0  0  0  0  0  0  0  0  0
    5.2162   -4.7522   20.9203 H   0  0  0  0  0  0  0  0  0  0  0  0
    6.7913   -2.6477   19.5641 H   0  0  0  0  0  0  0  0  0  0  0  0
    5.1530   -2.5551   20.0029 H   0  0  0  0  0  0  0  0  0  0  0  0
    5.6695   -1.5694   22.0547 H   0  0  0  0  0  0  0  0  0  0  0  0
    8.2872   -0.9957   20.6520 H   0  0  0  0  0  0  0  0  0  0  0  0
    7.2368   -0.0791   23.1046 H   0  0  0  0  0  0  0  0  0  0  0  0
    8.4989    2.0644   23.4518 C   0  0  0  0  0  0  0  0  0  0  0  0
    8.3272    1.4466   24.6526 N   0  0  0  0  0  0  0  0  0  0  0  0
    8.5385    2.1529   25.7657 C   0  0  0  0  0  0  0  0  0  0  0  0
    8.8934    3.5134   25.7429 C   0  0  0  0  0  0  0  0  0  0  0  0
    9.0242    4.1673   24.5211 C   0  0  0  0  0  0  0  0  0  0  0  0
    8.8333    3.4377   23.3339 C   0  0  0  0  0  0  0  0  0  0  0  0
    8.9583    4.0755   22.1669 O   0  0  0  0  0  0  0  0  0  0  0  0
    9.0346    3.3887   21.4528 H   0  0  0  0  0  0  0  0  0  0  0  0
    9.2860    5.2200   24.4399 H   0  0  0  0  0  0  0  0  0  0  0  0
    9.0610    4.0447   26.6734 H   0  0  0  0  0  0  0  0  0  0  0  0
    8.4012    1.6422   26.7152 H   0  0  0  0  0  0  0  0  0  0  0  0
  1  2  2  0
  2  3  1  0
  3  4  1  0
  4  5  1  0
  5  6  2  0
  6  7  1  0
  7  8  2  0
  8  9  1  0
  9 10  2  0
 10 11  1  0
  8 12  1  0
  7 13  1  0
  6 14  1  0
  4 15  1  0
 15 16  1  0
 16 17  1  0
 17 18  1  0
 18 19  1  0
 19 20  1  0
 19 21  1  0
 18 22  1  0
 18 23  1  0
 17 24  1  0
 17 25  1  0
 16 26  1  0
 16 27  1  0
 15 28  1  0
  4 29  1  0
  3 30  1  0
  2 31  1  0
 31 32  2  0
 32 33  1  0
 33 34  2  0
 34 35  1  0
 35 36  2  0
 36 37  1  0
 37 38  1  0
 35 39  1  0
 34 40  1  0
 33 41  1  0
 10  5  1  0
 19 15  1  0
 36 31  1  0
M  END
>  <cnnaffinity>  (1) 
4.75646

>  <plip>  (1) 
-0.14285714285714285

>  <filename>  (1) 
[H][O][c]1[c]([C](=[O])[N]([H])[C]([H])([c]2[c]([H])[n][c]([H])[c]([H])[c]2[H])[C]2([H])[C]([H])([H])[C]([H])([H])[C]([H])([H])[C]2([H])[H])[n][c]([H])[c]([H])[c]1[H]

>  <combo1>  (1) 
-0.7617017037984354

$$$$
