
     RDKit          3D

 25 25  0  0  0  0  0  0  0  0999 V2000
    5.0582    1.7850   16.8563 H   0  0  0  0  0  0  0  0  0  0  0  0
    5.4427    1.3013   17.7511 C   0  0  0  0  0  0  0  0  0  0  0  0
    6.6111    0.6557   17.6150 N   0  0  0  0  0  0  0  0  0  0  0  0
    7.1019    0.0526   18.7069 C   0  0  0  0  0  0  0  0  0  0  0  0
    8.0266   -0.5042   18.5797 H   0  0  0  0  0  0  0  0  0  0  0  0
    6.4697    0.0652   19.9574 C   0  0  0  0  0  0  0  0  0  0  0  0
    7.3165   -0.6668   21.3504 S   0  0  0  0  0  0  0  0  0  0  0  0
    8.4716    0.4941   21.6050 N   0  0  0  0  0  0  0  0  0  0  0  0
    8.4177    1.1864   22.3287 H   0  0  0  0  0  0  0  0  0  0  0  0
    9.6986    0.6314   20.9165 C   0  0  0  0  0  0  0  0  0  0  0  0
   10.3128   -0.2746   21.0047 H   0  0  0  0  0  0  0  0  0  0  0  0
    9.5505    0.7898   19.8356 H   0  0  0  0  0  0  0  0  0  0  0  0
   10.2512    1.7681   21.6064 N   0  0  0  0  0  0  0  0  0  0  0  0
    9.7026    2.5740   21.3326 H   0  0  0  0  0  0  0  0  0  0  0  0
   11.6856    2.0024   21.5457 C   0  0  0  0  0  0  0  0  0  0  0  0
   11.8954    2.9883   21.9862 H   0  0  0  0  0  0  0  0  0  0  0  0
   12.1025    2.0314   20.5201 H   0  0  0  0  0  0  0  0  0  0  0  0
   12.4181    0.9512   22.3854 C   0  0  0  0  0  0  0  0  0  0  0  0
   12.1886    1.0973   23.4443 H   0  0  0  0  0  0  0  0  0  0  0  0
   12.0943   -0.0654   22.1392 H   0  0  0  0  0  0  0  0  0  0  0  0
   13.5078    0.9855   22.2547 H   0  0  0  0  0  0  0  0  0  0  0  0
    5.2418    0.7173   20.0845 C   0  0  0  0  0  0  0  0  0  0  0  0
    4.7264    0.7281   21.0457 H   0  0  0  0  0  0  0  0  0  0  0  0
    4.7183    1.3537   18.9511 C   0  0  0  0  0  0  0  0  0  0  0  0
    3.7769    1.8910   18.9907 H   0  0  0  0  0  0  0  0  0  0  0  0
  1  2  1  0
  2  3  2  0
  3  4  1  0
  4  5  1  0
  4  6  2  0
  6  7  1  0
  7  8  1  0
  8  9  1  0
  8 10  1  0
 10 11  1  0
 10 12  1  0
 10 13  1  0
 13 14  1  0
 13 15  1  0
 15 16  1  0
 15 17  1  0
 15 18  1  0
 18 19  1  0
 18 20  1  0
 18 21  1  0
  6 22  1  0
 22 23  1  0
 22 24  2  0
 24 25  1  0
 24  2  1  0
M  END
>  <cnnaffinity>  (1) 
3.54061

>  <plip>  (1) 
-0.07142857142857142

>  <filename>  (1) 
[H][c]1[n][c]([H])[c]([S][N]([H])[C]([H])([H])[N]([H])[C]([H])([H])[C]([H])([H])[H])[c]([H])[c]1[H]

>  <combo1>  (1) 
-0.4599532851115129

$$$$
