
     RDKit          3D

 25 26  0  0  0  0  0  0  0  0999 V2000
   10.2304   -3.8679   23.5521 H   0  0  0  0  0  0  0  0  0  0  0  0
    9.1748   -3.5955   23.6104 C   0  0  0  0  0  0  0  0  0  0  0  0
    8.5829   -2.9976   22.5692 N   0  0  0  0  0  0  0  0  0  0  0  0
    7.2825   -2.6737   22.6617 C   0  0  0  0  0  0  0  0  0  0  0  0
    6.5731   -1.9540   21.5321 C   0  0  2  0  0  0  0  0  0  0  0  0
    5.6719   -1.5395   21.9636 H   0  0  0  0  0  0  0  0  0  0  0  0
    5.9947   -3.2391   20.1167 Br  0  0  0  0  0  0  0  0  0  0  0  0
    7.3758   -0.7770   20.9619 C   0  0  0  0  0  0  0  0  0  0  0  0
    8.3303   -1.1579   20.5937 H   0  0  0  0  0  0  0  0  0  0  0  0
    7.5969   -0.0505   21.7558 H   0  0  0  0  0  0  0  0  0  0  0  0
    6.6322   -0.0643   19.8547 C   0  0  0  0  0  0  0  0  0  0  0  0
    7.1540   -0.0095   18.5517 C   0  0  0  0  0  0  0  0  0  0  0  0
    8.1035   -0.4962   18.3436 H   0  0  0  0  0  0  0  0  0  0  0  0
    6.5602    0.6497   17.5396 N   0  0  0  0  0  0  0  0  0  0  0  0
    5.4113    1.2958   17.8019 C   0  0  0  0  0  0  0  0  0  0  0  0
    4.9236    1.8511   17.0063 H   0  0  0  0  0  0  0  0  0  0  0  0
    4.8207    1.2821   19.0698 C   0  0  0  0  0  0  0  0  0  0  0  0
    3.9044    1.8356   19.2324 H   0  0  0  0  0  0  0  0  0  0  0  0
    5.4273    0.5922   20.1183 C   0  0  0  0  0  0  0  0  0  0  0  0
    4.9950    0.5826   21.1168 H   0  0  0  0  0  0  0  0  0  0  0  0
    6.5493   -2.9441   23.7494 N   0  0  0  0  0  0  0  0  0  0  0  0
    7.1221   -3.5351   24.7975 C   0  0  0  0  0  0  0  0  0  0  0  0
    6.5259   -3.7474   25.6864 H   0  0  0  0  0  0  0  0  0  0  0  0
    8.4627   -3.8767   24.7652 C   0  0  0  0  0  0  0  0  0  0  0  0
    8.9366   -4.3538   25.6161 H   0  0  0  0  0  0  0  0  0  0  0  0
  1  2  1  0
  2  3  2  0
  3  4  1  0
  4  5  1  0
  5  6  1  1
  5  7  1  0
  5  8  1  0
  8  9  1  0
  8 10  1  0
  8 11  1  0
 11 12  2  0
 12 13  1  0
 12 14  1  0
 14 15  2  0
 15 16  1  0
 15 17  1  0
 17 18  1  0
 17 19  2  0
 19 20  1  0
  4 21  2  0
 21 22  1  0
 22 23  1  0
 22 24  2  0
 24 25  1  0
 24  2  1  0
 19 11  1  0
M  END
>  <cnnaffinity>  (1) 
4.27348

>  <plip>  (1) 
-0.0

>  <filename>  (1) 
[H][c]1[n][c]([C@]([H])([Br])[C]([H])([H])[c]2[c]([H])[n][c]([H])[c]([H])[c]2[H])[n][c]([H])[c]1[H]

>  <combo1>  (1) 
-5.393234037290282e-06

$$$$
