
     RDKit          3D

 46 49  0  0  0  0  0  0  0  0999 V2000
    4.9141    1.7829   16.9953 H   0  0  0  0  0  0  0  0  0  0  0  0
    5.4002    1.2939   17.8360 C   0  0  0  0  0  0  0  0  0  0  0  0
    6.5603    0.6720   17.5741 N   0  0  0  0  0  0  0  0  0  0  0  0
    7.1628    0.0582   18.5995 C   0  0  0  0  0  0  0  0  0  0  0  0
    8.1153   -0.4260   18.3719 H   0  0  0  0  0  0  0  0  0  0  0  0
    6.6511    0.0033   19.9101 C   0  0  0  0  0  0  0  0  0  0  0  0
    7.3468   -0.7540   20.9699 C   0  0  0  0  0  0  0  0  0  0  0  0
    8.4797   -0.2766   21.5563 C   0  0  0  0  0  0  0  0  0  0  0  0
    9.1554    1.0241   21.1867 C   0  0  0  0  0  0  0  0  0  0  0  0
    8.8682    1.2934   20.1672 H   0  0  0  0  0  0  0  0  0  0  0  0
   10.2409    0.8515   21.1613 H   0  0  0  0  0  0  0  0  0  0  0  0
    8.8712    2.2418   22.0997 C   0  0  0  0  0  0  0  0  0  0  0  0
    9.2730    3.1189   21.5690 H   0  0  0  0  0  0  0  0  0  0  0  0
    7.3660    2.5183   22.3032 C   0  0  0  0  0  0  0  0  0  0  0  0
    6.8958    1.6451   22.7768 H   0  0  0  0  0  0  0  0  0  0  0  0
    6.8689    2.6457   21.3321 H   0  0  0  0  0  0  0  0  0  0  0  0
    7.1218    3.7555   23.1781 C   0  0  0  0  0  0  0  0  0  0  0  0
    6.0478    3.8910   23.3549 H   0  0  0  0  0  0  0  0  0  0  0  0
    7.4594    4.6477   22.6325 H   0  0  0  0  0  0  0  0  0  0  0  0
    7.8756    3.6736   24.5112 C   0  0  0  0  0  0  0  0  0  0  0  0
    7.7189    4.5865   25.0987 H   0  0  0  0  0  0  0  0  0  0  0  0
    7.4621    2.8464   25.1054 H   0  0  0  0  0  0  0  0  0  0  0  0
    9.3725    3.4275   24.2937 C   0  0  0  0  0  0  0  0  0  0  0  0
    9.8832    3.3326   25.2558 H   0  0  0  0  0  0  0  0  0  0  0  0
    9.8126    4.2986   23.7883 H   0  0  0  0  0  0  0  0  0  0  0  0
    9.6185    2.1745   23.4448 C   0  0  0  0  0  0  0  0  0  0  0  0
   10.6957    2.0502   23.2657 H   0  0  0  0  0  0  0  0  0  0  0  0
    9.2950    1.2934   24.0132 H   0  0  0  0  0  0  0  0  0  0  0  0
    9.1041   -1.0949   22.6653 C   0  0  2  0  0  0  0  0  0  0  0  0
   10.0938   -0.7043   22.9211 H   0  0  0  0  0  0  0  0  0  0  0  0
    9.2722   -2.8204   22.0909 S   0  0  0  0  0  0  0  0  0  0  0  0
    7.4686   -2.9616   22.2814 C   0  0  2  0  0  0  0  0  0  0  0  0
    7.1868   -4.0177   22.2066 H   0  0  0  0  0  0  0  0  0  0  0  0
    6.7733   -2.1480   21.1806 C   0  0  0  0  0  0  0  0  0  0  0  0
    6.8319   -2.6938   20.2293 H   0  0  0  0  0  0  0  0  0  0  0  0
    5.6990   -2.0661   21.4041 H   0  0  0  0  0  0  0  0  0  0  0  0
    7.2071   -2.3951   23.6824 C   0  0  0  0  0  0  0  0  0  0  0  0
    7.3790   -3.1799   24.4248 H   0  0  0  0  0  0  0  0  0  0  0  0
    6.1632   -2.0809   23.7749 H   0  0  0  0  0  0  0  0  0  0  0  0
    8.1834   -1.2187   23.9075 C   0  0  0  0  0  0  0  0  0  0  0  0
    8.8000   -1.4060   24.7919 H   0  0  0  0  0  0  0  0  0  0  0  0
    7.6400   -0.2835   24.0862 H   0  0  0  0  0  0  0  0  0  0  0  0
    5.4254    0.6417   20.1552 C   0  0  0  0  0  0  0  0  0  0  0  0
    5.0080    0.6363   21.1662 H   0  0  0  0  0  0  0  0  0  0  0  0
    4.8029    1.3130   19.1036 C   0  0  0  0  0  0  0  0  0  0  0  0
    3.8705    1.8462   19.2581 H   0  0  0  0  0  0  0  0  0  0  0  0
  1  2  1  0
  2  3  2  0
  3  4  1  0
  4  5  1  0
  4  6  2  0
  6  7  1  0
  7  8  2  0
  8  9  1  0
  9 10  1  0
  9 11  1  0
  9 12  1  0
 12 13  1  0
 12 14  1  0
 14 15  1  0
 14 16  1  0
 14 17  1  0
 17 18  1  0
 17 19  1  0
 17 20  1  0
 20 21  1  0
 20 22  1  0
 20 23  1  0
 23 24  1  0
 23 25  1  0
 23 26  1  0
 26 27  1  0
 26 28  1  0
  8 29  1  0
 29 30  1  1
 29 31  1  0
 31 32  1  0
 32 33  1  1
 32 34  1  0
 34 35  1  0
 34 36  1  0
 32 37  1  0
 37 38  1  0
 37 39  1  0
 37 40  1  0
 40 41  1  0
 40 42  1  0
  6 43  1  0
 43 44  1  0
 43 45  2  0
 45 46  1  0
 45  2  1  0
 34  7  1  0
 26 12  1  0
 40 29  1  0
M  END
>  <cnnaffinity>  (1) 
5.92436

>  <plip>  (1) 
-0.07142857142857142

>  <filename>  (1) 
[H][c]1[n][c]([H])[c]([C]2=[C]([C]([H])([H])[C]3([H])[C]([H])([H])[C]([H])([H])[C]([H])([H])[C]([H])([H])[C]3([H])[H])[C@]3([H])[S][C@]([H])([C]2([H])[H])[C]([H])([H])[C]3([H])[H])[c]([H])[c]1[H]

>  <combo1>  (1) 
-0.4709989898464703

$$$$
