
     RDKit          3D

 32 34  0  0  0  0  0  0  0  0999 V2000
    4.9136    1.8544   16.8779 H   0  0  0  0  0  0  0  0  0  0  0  0
    5.3808    1.3183   17.7024 C   0  0  0  0  0  0  0  0  0  0  0  0
    6.5083    0.6443   17.4124 N   0  0  0  0  0  0  0  0  0  0  0  0
    7.1127   -0.0122   18.4093 C   0  0  0  0  0  0  0  0  0  0  0  0
    8.0518   -0.5191   18.1837 H   0  0  0  0  0  0  0  0  0  0  0  0
    6.6078   -0.0649   19.7187 C   0  0  0  0  0  0  0  0  0  0  0  0
    7.3784   -0.7171   20.6541 O   0  0  0  0  0  0  0  0  0  0  0  0
    6.8718   -1.6662   21.5073 C   0  0  0  0  0  0  0  0  0  0  0  0
    5.9024   -2.6762   21.3183 C   0  0  0  0  0  0  0  0  0  0  0  0
    5.2882   -2.8922   20.4533 H   0  0  0  0  0  0  0  0  0  0  0  0
    5.8449   -3.4637   22.3924 N   0  0  0  0  0  0  0  0  0  0  0  0
    6.7454   -2.9661   23.2437 N   0  0  0  0  0  0  0  0  0  0  0  0
    6.9586   -3.4096   24.1258 H   0  0  0  0  0  0  0  0  0  0  0  0
    7.4250   -1.8926   22.7597 C   0  0  0  0  0  0  0  0  0  0  0  0
    8.5432   -1.2185   23.4474 C   0  0  0  0  0  0  0  0  0  0  0  0
    9.3916   -1.8527   24.4081 C   0  0  0  0  0  0  0  0  0  0  0  0
    9.0293   -3.0794   24.8454 O   0  0  0  0  0  0  0  0  0  0  0  0
   10.0407   -3.9886   25.2915 C   0  0  0  0  0  0  0  0  0  0  0  0
   10.4103   -3.7333   26.2847 H   0  0  0  0  0  0  0  0  0  0  0  0
   10.8795   -4.0081   24.5926 H   0  0  0  0  0  0  0  0  0  0  0  0
    9.5836   -4.9780   25.3321 H   0  0  0  0  0  0  0  0  0  0  0  0
   10.5094   -1.3207   24.8715 N   0  0  0  0  0  0  0  0  0  0  0  0
   10.8220   -0.0767   24.4955 C   0  0  0  0  0  0  0  0  0  0  0  0
   11.7649    0.3097   24.8759 H   0  0  0  0  0  0  0  0  0  0  0  0
   10.0280    0.6774   23.6462 C   0  0  0  0  0  0  0  0  0  0  0  0
   10.3106    1.6889   23.3886 H   0  0  0  0  0  0  0  0  0  0  0  0
    8.8934    0.0854   23.0877 C   0  0  0  0  0  0  0  0  0  0  0  0
    8.3002    0.6118   22.3405 H   0  0  0  0  0  0  0  0  0  0  0  0
    5.4403    0.6406   20.0255 C   0  0  0  0  0  0  0  0  0  0  0  0
    5.0522    0.6536   21.0451 H   0  0  0  0  0  0  0  0  0  0  0  0
    4.8215    1.3468   18.9839 C   0  0  0  0  0  0  0  0  0  0  0  0
    3.9269    1.9325   19.1606 H   0  0  0  0  0  0  0  0  0  0  0  0
  1  2  1  0
  2  3  2  0
  3  4  1  0
  4  5  1  0
  4  6  2  0
  6  7  1  0
  7  8  1  0
  8  9  1  0
  9 10  1  0
  9 11  2  0
 11 12  1  0
 12 13  1  0
 12 14  1  0
 14 15  1  0
 15 16  2  0
 16 17  1  0
 17 18  1  0
 18 19  1  0
 18 20  1  0
 18 21  1  0
 16 22  1  0
 22 23  2  0
 23 24  1  0
 23 25  1  0
 25 26  1  0
 25 27  2  0
 27 28  1  0
  6 29  1  0
 29 30  1  0
 29 31  2  0
 31 32  1  0
 31  2  1  0
 14  8  2  0
 27 15  1  0
M  END
>  <cnnaffinity>  (1) 
5.11155

>  <plip>  (1) 
-0.10714285714285714

>  <filename>  (1) 
[H][c]1[n][c]([H])[c]([O][c]2[c]([H])[n][n]([H])[c]2-[c]2[c]([O][C]([H])([H])[H])[n][c]([H])[c]([H])[c]2[H])[c]([H])[c]1[H]

>  <combo1>  (1) 
-0.6804759171258598

$$$$
