
     RDKit          3D

 32 34  0  0  0  0  0  0  0  0999 V2000
    4.7366    1.4203   18.9419 C   0  0  0  0  0  0  0  0  0  0  0  0
    5.4211    1.4617   17.7242 C   0  0  0  0  0  0  0  0  0  0  0  0
    6.5763    0.8115   17.5079 N   0  0  0  0  0  0  0  0  0  0  0  0
    7.0763    0.0881   18.5140 C   0  0  0  0  0  0  0  0  0  0  0  0
    6.4368   -0.0843   19.7512 C   0  0  0  0  0  0  0  0  0  0  0  0
    7.0911   -0.9251   20.8109 C   0  0  0  0  0  0  0  0  0  0  0  0
    8.0674    0.0084   21.4293 N   0  0  0  0  0  4  0  0  0  0  0  0
    8.9639   -0.4317   22.5315 C   0  0  0  0  0  0  0  0  0  0  0  0
    8.2354   -0.5079   23.8933 C   0  0  0  0  0  0  0  0  0  0  0  0
    9.1872   -0.9597   25.0234 C   0  0  0  0  0  0  0  0  0  0  0  0
   10.4943   -0.2432   24.9546 C   0  0  0  0  0  0  0  0  0  0  0  0
   11.4743   -0.1944   25.8160 N   0  0  0  0  0  0  0  0  0  0  0  0
   12.4854    0.4599   25.1998 N   0  0  0  0  0  0  0  0  0  0  0  0
   12.1422    0.8274   24.0155 N   0  0  0  0  0  0  0  0  0  0  0  0
   10.8901    0.3916   23.8359 N   0  0  0  0  0  0  0  0  0  0  0  0
   10.1316    0.5737   22.6035 C   0  0  0  0  0  0  0  0  0  0  0  0
   10.8161    0.4586   21.7586 H   0  0  0  0  0  0  0  0  0  0  0  0
    9.7360    1.5955   22.5778 H   0  0  0  0  0  0  0  0  0  0  0  0
    9.4052   -2.0322   24.9303 H   0  0  0  0  0  0  0  0  0  0  0  0
    8.7680   -0.8204   26.0235 H   0  0  0  0  0  0  0  0  0  0  0  0
    7.8168    0.4827   24.1142 H   0  0  0  0  0  0  0  0  0  0  0  0
    7.3857   -1.1957   23.8317 H   0  0  0  0  0  0  0  0  0  0  0  0
    9.3721   -1.4278   22.3105 H   0  0  0  0  0  0  0  0  0  0  0  0
    8.6163    0.3908   20.6293 H   0  0  0  0  0  0  0  0  0  0  0  0
    7.4850    0.8187   21.7685 H   0  0  0  0  0  0  0  0  0  0  0  0
    7.5935   -1.7999   20.3760 H   0  0  0  0  0  0  0  0  0  0  0  0
    6.3535   -1.2950   21.5351 H   0  0  0  0  0  0  0  0  0  0  0  0
    5.2593    0.6434   19.9771 C   0  0  0  0  0  0  0  0  0  0  0  0
    4.7838    0.6298   20.9612 H   0  0  0  0  0  0  0  0  0  0  0  0
    8.0438   -0.3807   18.3145 H   0  0  0  0  0  0  0  0  0  0  0  0
    5.0293    2.0335   16.8840 H   0  0  0  0  0  0  0  0  0  0  0  0
    3.8280    2.0037   19.0653 H   0  0  0  0  0  0  0  0  0  0  0  0
  1  2  2  0
  2  3  1  0
  3  4  2  0
  4  5  1  0
  5  6  1  0
  6  7  1  0
  7  8  1  0
  8  9  1  0
  9 10  1  0
 10 11  1  0
 11 12  2  0
 12 13  1  0
 13 14  2  0
 14 15  1  0
 15 16  1  0
 16 17  1  0
 16 18  1  0
 10 19  1  0
 10 20  1  0
  9 21  1  0
  9 22  1  0
  8 23  1  0
  7 24  1  0
  7 25  1  0
  6 26  1  0
  6 27  1  0
  5 28  2  0
 28 29  1  0
  4 30  1  0
  2 31  1  0
  1 32  1  0
 28  1  1  0
 16  8  1  0
 15 11  1  0
M  CHG  1   7   1
M  END
>  <cnnaffinity>  (1) 
4.66152

>  <plip>  (1) 
-0.03571428571428571

>  <filename>  (1) 
[H][c]1[n][c]([H])[c]([C]([H])([H])[N+]([H])([H])[C]2([H])[C]([H])([H])[n]3[n][n][n][c]3[C]([H])([H])[C]2([H])[H])[c]([H])[c]1[H]

>  <combo1>  (1) 
-0.23994104933905946

$$$$
