
     RDKit          3D

 36 37  0  0  0  0  0  0  0  0999 V2000
   10.6210   -0.0011   24.7182 O   0  0  0  0  0  0  0  0  0  0  0  0
    9.4513    0.3285   24.6714 C   0  0  0  0  0  0  0  0  0  0  0  0
    8.3203   -0.7334   24.5274 C   0  0  0  0  0  0  0  0  0  0  0  0
    7.9148   -1.0885   23.1560 N   0  0  0  0  0  0  0  0  0  0  0  0
    7.1084   -0.2820   22.3889 C   0  0  0  0  0  0  0  0  0  0  0  0
    6.4920    0.6565   22.8565 O   0  0  0  0  0  0  0  0  0  0  0  0
    7.1474   -0.6738   21.0536 N   0  0  0  0  0  0  0  0  0  0  0  0
    6.5749   -0.0013   19.9398 C   0  0  0  0  0  0  0  0  0  0  0  0
    5.3934    0.7392   20.0789 C   0  0  0  0  0  0  0  0  0  0  0  0
    4.8553    1.3559   18.9420 C   0  0  0  0  0  0  0  0  0  0  0  0
    5.5054    1.2293   17.7114 C   0  0  0  0  0  0  0  0  0  0  0  0
    6.6314    0.5122   17.5541 N   0  0  0  0  0  0  0  0  0  0  0  0
    7.1402   -0.0846   18.6398 C   0  0  0  0  0  0  0  0  0  0  0  0
    8.0513   -0.6586   18.4729 H   0  0  0  0  0  0  0  0  0  0  0  0
    5.1102    1.7169   16.8214 H   0  0  0  0  0  0  0  0  0  0  0  0
    3.9517    1.9532   19.0053 H   0  0  0  0  0  0  0  0  0  0  0  0
    4.9410    0.8230   21.0638 H   0  0  0  0  0  0  0  0  0  0  0  0
    7.9560   -1.2417   20.8676 H   0  0  0  0  0  0  0  0  0  0  0  0
    8.2615   -1.9259   22.7204 H   0  0  0  0  0  0  0  0  0  0  0  0
    7.4446   -0.3753   25.0791 H   0  0  0  0  0  0  0  0  0  0  0  0
    8.6966   -1.6276   25.0320 H   0  0  0  0  0  0  0  0  0  0  0  0
    9.0214    1.6257   24.7310 N   0  0  0  0  0  0  0  0  0  0  0  0
    9.7994    2.7756   24.5105 C   0  0  0  0  0  0  0  0  0  0  0  0
   10.9327    2.6900   23.6913 C   0  0  0  0  0  0  0  0  0  0  0  0
   11.7173    3.8141   23.4392 C   0  0  0  0  0  0  0  0  0  0  0  0
   11.3892    5.0471   24.0111 C   0  0  0  0  0  0  0  0  0  0  0  0
   10.2716    5.1578   24.8320 C   0  0  0  0  0  0  0  0  0  0  0  0
    9.4611    4.0287   25.0693 C   0  0  0  0  0  0  0  0  0  0  0  0
    8.2665    4.2063   25.9070 N   0  0  0  0  0  4  0  0  0  0  0  0
    8.2625    5.1155   26.7194 O   0  0  0  0  0  0  0  0  0  0  0  0
    7.3124    3.4487   25.7460 O   0  0  0  0  0  1  0  0  0  0  0  0
   10.0161    6.1059   25.2966 H   0  0  0  0  0  0  0  0  0  0  0  0
   12.0038    5.9184   23.8046 H   0  0  0  0  0  0  0  0  0  0  0  0
   12.5884    3.7198   22.7978 H   0  0  0  0  0  0  0  0  0  0  0  0
   11.1651    1.7297   23.2561 H   0  0  0  0  0  0  0  0  0  0  0  0
    8.0284    1.7811   24.7886 H   0  0  0  0  0  0  0  0  0  0  0  0
  1  2  2  0
  2  3  1  0
  3  4  1  0
  4  5  1  0
  5  6  2  0
  5  7  1  0
  7  8  1  0
  8  9  2  0
  9 10  1  0
 10 11  2  0
 11 12  1  0
 12 13  2  0
 13 14  1  0
 11 15  1  0
 10 16  1  0
  9 17  1  0
  7 18  1  0
  4 19  1  0
  3 20  1  0
  3 21  1  0
  2 22  1  0
 22 23  1  0
 23 24  2  0
 24 25  1  0
 25 26  2  0
 26 27  1  0
 27 28  2  0
 28 29  1  0
 29 30  2  0
 29 31  1  0
 27 32  1  0
 26 33  1  0
 25 34  1  0
 24 35  1  0
 22 36  1  0
 13  8  1  0
 28 23  1  0
M  CHG  2  29   1  31  -1
M  END
>  <cnnaffinity>  (1) 
4.87481

>  <plip>  (1) 
-0.14285714285714285

>  <filename>  (1) 
[H][c]1[n][c]([H])[c]([N]([H])[C](=[O])[N]([H])[C]([H])([H])[C](=[O])[N]([H])[c]2[c]([H])[c]([H])[c]([H])[c]([H])[c]2[N+](=[O])[O-])[c]([H])[c]1[H]

>  <combo1>  (1) 
-0.7362572418441794

$$$$
