
     RDKit          3D

 23 24  0  0  0  0  0  0  0  0999 V2000
    5.9328   -0.9912   22.2885 H   0  0  0  0  0  0  0  0  0  0  0  0
    6.9798   -1.0872   21.9841 C   0  0  0  0  0  0  0  0  0  0  0  0
    7.4553   -0.6848   20.8709 N   0  0  0  0  0  0  0  0  0  0  0  0
    6.6642   -0.0051   19.9181 C   0  0  0  0  0  0  0  0  0  0  0  0
    7.1736    0.0582   18.5981 C   0  0  0  0  0  0  0  0  0  0  0  0
    8.1229   -0.4324   18.3998 H   0  0  0  0  0  0  0  0  0  0  0  0
    6.5653    0.6732   17.5822 N   0  0  0  0  0  0  0  0  0  0  0  0
    5.3973    1.2915   17.8427 C   0  0  0  0  0  0  0  0  0  0  0  0
    4.9205    1.7842   16.9983 H   0  0  0  0  0  0  0  0  0  0  0  0
    4.8103    1.3032   19.1104 C   0  0  0  0  0  0  0  0  0  0  0  0
    3.8795    1.8372   19.2622 H   0  0  0  0  0  0  0  0  0  0  0  0
    5.4429    0.6389   20.1696 C   0  0  0  0  0  0  0  0  0  0  0  0
    5.0120    0.6387   21.1703 H   0  0  0  0  0  0  0  0  0  0  0  0
    7.8574   -1.7673   22.9289 C   0  0  0  0  0  0  0  0  0  0  0  0
    8.8941   -1.8727   22.6186 H   0  0  0  0  0  0  0  0  0  0  0  0
    7.4850   -2.2554   24.1249 C   0  0  0  0  0  0  0  0  0  0  0  0
    5.8693   -2.1906   24.8272 S   0  0  0  0  0  0  0  0  0  0  0  0
    6.4151   -3.0417   26.3080 C   0  0  0  0  0  0  0  0  0  0  0  0
    5.7451   -3.3328   27.2553 O   0  0  0  0  0  0  0  0  0  0  0  0
    7.7464   -3.3234   26.2013 N   0  0  0  0  0  0  0  0  0  0  0  0
    8.2138   -3.8062   26.9439 H   0  0  0  0  0  0  0  0  0  0  0  0
    8.4326   -2.9535   25.0801 C   0  0  0  0  0  0  0  0  0  0  0  0
    9.6069   -3.1758   24.9285 O   0  0  0  0  0  0  0  0  0  0  0  0
  1  2  1  0
  2  3  2  3
  3  4  1  0
  4  5  2  0
  5  6  1  0
  5  7  1  0
  7  8  2  0
  8  9  1  0
  8 10  1  0
 10 11  1  0
 10 12  2  0
 12 13  1  0
  2 14  1  0
 14 15  1  0
 14 16  2  3
 16 17  1  0
 17 18  1  0
 18 19  2  0
 18 20  1  0
 20 21  1  0
 20 22  1  0
 22 23  2  0
 12  4  1  0
 22 16  1  0
M  END
>  <cnnaffinity>  (1) 
4.2865

>  <plip>  (1) 
-0.0

>  <filename>  (1) 
[H][C](=[N][c]1[c]([H])[n][c]([H])[c]([H])[c]1[H])[C]([H])=[C]1[S][C](=[O])[N]([H])[C]1=[O]

>  <combo1>  (1) 
-6.125706674898109e-06

$$$$
