
     RDKit          3D

 27 29  0  0  0  0  0  0  0  0999 V2000
    4.8445    1.2708   19.1254 C   0  0  0  0  0  0  0  0  0  0  0  0
    5.4517    1.2847   17.8667 C   0  0  0  0  0  0  0  0  0  0  0  0
    6.6044    0.6448   17.5989 N   0  0  0  0  0  0  0  0  0  0  0  0
    7.1935   -0.0227   18.5972 C   0  0  0  0  0  0  0  0  0  0  0  0
    6.6439   -0.1006   19.8900 C   0  0  0  0  0  0  0  0  0  0  0  0
    7.3771   -0.7739   20.8542 O   0  0  0  0  0  0  0  0  0  0  0  0
    6.8368   -1.6105   21.7712 C   0  0  0  0  0  0  0  0  0  0  0  0
    7.5709   -1.7317   22.9457 C   0  0  0  0  0  0  0  0  0  0  0  0
    7.0966   -2.6674   23.8396 C   0  0  0  0  0  0  0  0  0  0  0  0
    7.7553   -2.9157   25.1332 C   0  0  0  0  0  0  0  0  0  0  0  0
    8.9254   -2.4101   25.6539 C   0  0  0  0  0  0  0  0  0  0  0  0
    9.1651   -2.8827   26.9708 C   0  0  0  0  0  0  0  0  0  0  0  0
    8.2046   -3.7407   27.4254 C   0  0  0  0  0  0  0  0  0  0  0  0
    6.9781   -3.9884   26.2560 S   0  0  0  0  0  0  0  0  0  0  0  0
    8.1457   -4.2311   28.3910 H   0  0  0  0  0  0  0  0  0  0  0  0
   10.0241   -2.5680   27.5451 H   0  0  0  0  0  0  0  0  0  0  0  0
    9.6315   -1.7353   25.1628 H   0  0  0  0  0  0  0  0  0  0  0  0
    5.9969   -3.4021   23.5635 N   0  0  0  0  0  0  0  0  0  0  0  0
    5.3917   -3.1822   22.4171 C   0  0  0  0  0  0  0  0  0  0  0  0
    5.7562   -2.3034   21.4784 N   0  0  0  0  0  0  0  0  0  0  0  0
    4.4899   -3.7646   22.2256 H   0  0  0  0  0  0  0  0  0  0  0  0
    8.4615   -1.1383   23.0869 H   0  0  0  0  0  0  0  0  0  0  0  0
    5.4437    0.5532   20.1683 C   0  0  0  0  0  0  0  0  0  0  0  0
    4.9971    0.5003   21.1614 H   0  0  0  0  0  0  0  0  0  0  0  0
    8.1389   -0.5252   18.3879 H   0  0  0  0  0  0  0  0  0  0  0  0
    4.9988    1.8194   17.0353 H   0  0  0  0  0  0  0  0  0  0  0  0
    3.9212    1.8177   19.2794 H   0  0  0  0  0  0  0  0  0  0  0  0
  1  2  2  0
  2  3  1  0
  3  4  2  0
  4  5  1  0
  5  6  1  0
  6  7  1  0
  7  8  2  0
  8  9  1  0
  9 10  1  0
 10 11  2  0
 11 12  1  0
 12 13  2  0
 13 14  1  0
 13 15  1  0
 12 16  1  0
 11 17  1  0
  9 18  2  0
 18 19  1  0
 19 20  2  0
 19 21  1  0
  8 22  1  0
  5 23  2  0
 23 24  1  0
  4 25  1  0
  2 26  1  0
  1 27  1  0
 23  1  1  0
 20  7  1  0
 14 10  1  0
M  END
>  <cnnaffinity>  (1) 
4.97285

>  <plip>  (1) 
-0.06896551724137931

>  <filename>  (1) 
[H][c]1[n][c]([O][c]2[c]([H])[n][c]([H])[c]([H])[c]2[H])[c]([H])[c](-[c]2[s][c]([H])[c]([H])[c]2[H])[n]1

>  <combo1>  (1) 
-0.44777710634698387

$$$$
