
     RDKit          3D

 33 35  0  0  0  0  0  0  0  0999 V2000
    7.0257   -2.1359   21.2577 O   0  0  0  0  0  0  0  0  0  0  0  0
    7.5440   -0.7818   21.2292 S   0  0  0  0  0  0  0  0  0  0  0  0
    8.9519   -0.5696   20.9605 O   0  0  0  0  0  0  0  0  0  0  0  0
    6.6092    0.1154   20.0640 C   0  0  0  0  0  0  0  0  0  0  0  0
    5.3823    0.7535   20.2593 C   0  0  0  0  0  0  0  0  0  0  0  0
    4.8059    1.3350   19.1321 C   0  0  0  0  0  0  0  0  0  0  0  0
    5.4677    1.2492   17.9034 C   0  0  0  0  0  0  0  0  0  0  0  0
    6.6357    0.6121   17.7399 N   0  0  0  0  0  0  0  0  0  0  0  0
    7.1900    0.0514   18.8079 C   0  0  0  0  0  0  0  0  0  0  0  0
    8.1372   -0.4624   18.6529 H   0  0  0  0  0  0  0  0  0  0  0  0
    5.0445    1.7045   17.0078 H   0  0  0  0  0  0  0  0  0  0  0  0
    3.8567    1.8515   19.1818 H   0  0  0  0  0  0  0  0  0  0  0  0
    4.8869    0.8061   21.2319 H   0  0  0  0  0  0  0  0  0  0  0  0
    7.1287   -0.0470   22.6560 N   0  0  0  0  0  0  0  0  0  0  0  0
    6.7067   -0.9435   23.7540 C   0  0  0  0  0  0  0  0  0  0  0  0
    5.9243   -0.0886   24.7457 C   0  0  0  0  0  0  0  0  0  0  0  0
    6.8898    0.8897   25.4064 C   0  0  0  0  0  0  0  0  0  0  0  0
    7.6124    1.6904   24.3390 C   0  0  0  0  0  0  0  0  0  0  0  0
    8.1633    2.9353   24.6810 C   0  0  0  0  0  0  0  0  0  0  0  0
    8.8235    3.7111   23.7324 C   0  0  0  0  0  0  0  0  0  0  0  0
    8.9329    3.2117   22.4380 C   0  0  0  0  0  0  0  0  0  0  0  0
    8.4013    1.9844   22.0587 C   0  0  0  0  0  0  0  0  0  0  0  0
    7.7363    1.1997   23.0099 C   0  0  0  0  0  0  0  0  0  0  0  0
    8.5316    1.6590   21.0349 H   0  0  0  0  0  0  0  0  0  0  0  0
    9.4599    3.7807   21.7113 H   0  0  0  0  0  0  0  0  0  0  0  0
    9.2367    4.6866   23.9826 H   0  0  0  0  0  0  0  0  0  0  0  0
    8.0543    3.3018   25.6991 H   0  0  0  0  0  0  0  0  0  0  0  0
    6.3813    1.5565   26.1149 H   0  0  0  0  0  0  0  0  0  0  0  0
    7.6257    0.3235   25.9965 H   0  0  0  0  0  0  0  0  0  0  0  0
    5.1520    0.4724   24.2033 H   0  0  0  0  0  0  0  0  0  0  0  0
    5.4107   -0.7147   25.4728 H   0  0  0  0  0  0  0  0  0  0  0  0
    7.6103   -1.3685   24.2365 H   0  0  0  0  0  0  0  0  0  0  0  0
    6.1033   -1.7665   23.3619 H   0  0  0  0  0  0  0  0  0  0  0  0
  1  2  2  0
  2  3  2  0
  2  4  1  0
  4  5  2  0
  5  6  1  0
  6  7  2  0
  7  8  1  0
  8  9  2  0
  9 10  1  0
  7 11  1  0
  6 12  1  0
  5 13  1  0
  2 14  1  0
 14 15  1  0
 15 16  1  0
 16 17  1  0
 17 18  1  0
 18 19  2  0
 19 20  1  0
 20 21  2  0
 21 22  1  0
 22 23  2  0
 22 24  1  0
 21 25  1  0
 20 26  1  0
 19 27  1  0
 17 28  1  0
 17 29  1  0
 16 30  1  0
 16 31  1  0
 15 32  1  0
 15 33  1  0
  9  4  1  0
 23 14  1  0
 23 18  1  0
M  END
>  <cnnaffinity>  (1) 
4.78877

>  <plip>  (1) 
-0.03571428571428571

>  <filename>  (1) 
[H][c]1[n][c]([H])[c]([S](=[O])(=[O])[N]2[c]3[c]([H])[c]([H])[c]([H])[c]([H])[c]3[C]([H])([H])[C]([H])([H])[C]2([H])[H])[c]([H])[c]1[H]

>  <combo1>  (1) 
-0.20780100481753525

$$$$
