
     RDKit          3D

 36 37  0  0  0  0  0  0  0  0999 V2000
    6.6504   -0.7617   22.3536 C   0  0  0  0  0  0  0  0  0  0  0  0
    7.4948   -0.5508   21.1124 C   0  0  0  0  0  0  0  0  0  0  0  0
    7.9992   -1.9055   20.6575 C   0  0  0  0  0  0  0  0  0  0  0  0
    7.1844   -2.4629   20.1964 H   0  0  0  0  0  0  0  0  0  0  0  0
    8.8005   -1.7575   19.9290 H   0  0  0  0  0  0  0  0  0  0  0  0
    8.3892   -2.4882   21.5009 H   0  0  0  0  0  0  0  0  0  0  0  0
    8.6580    0.2624   21.3740 N   0  0  0  0  0  4  0  0  0  0  0  0
    9.5017   -0.3489   22.4114 C   0  0  0  0  0  0  0  0  0  0  0  0
   10.7127    0.4904   22.5741 C   0  0  0  0  0  0  0  0  0  0  0  0
   11.9592   -0.0090   22.1686 C   0  0  0  0  0  0  0  0  0  0  0  0
   13.1105    0.7577   22.3616 C   0  0  0  0  0  0  0  0  0  0  0  0
   13.0114    2.0140   22.9662 C   0  0  0  0  0  0  0  0  0  0  0  0
   11.7626    2.5320   23.3434 C   0  0  0  0  0  0  0  0  0  0  0  0
   11.6253    4.3071   24.0498 Br  0  0  0  0  0  0  0  0  0  0  0  0
   10.6112    1.7562   23.1655 C   0  0  0  0  0  0  0  0  0  0  0  0
    9.4036    2.2305   23.5582 F   0  0  0  0  0  0  0  0  0  0  0  0
   13.9157    2.5923   23.1238 H   0  0  0  0  0  0  0  0  0  0  0  0
   14.0813    0.3942   22.0233 H   0  0  0  0  0  0  0  0  0  0  0  0
   12.0287   -0.9916   21.7081 H   0  0  0  0  0  0  0  0  0  0  0  0
    9.7899   -1.3684   22.1212 H   0  0  0  0  0  0  0  0  0  0  0  0
    8.9520   -0.4125   23.3589 H   0  0  0  0  0  0  0  0  0  0  0  0
    9.1869    0.3314   20.5082 H   0  0  0  0  0  0  0  0  0  0  0  0
    8.3660    1.1939   21.6627 H   0  0  0  0  0  0  0  0  0  0  0  0
    6.7473    0.1364   20.0166 C   0  0  0  0  0  0  0  0  0  0  0  0
    5.5028    0.7475   20.2133 C   0  0  0  0  0  0  0  0  0  0  0  0
    4.8820    1.3266   19.1098 C   0  0  0  0  0  0  0  0  0  0  0  0
    5.5130    1.2920   17.8633 C   0  0  0  0  0  0  0  0  0  0  0  0
    6.7063    0.7027   17.6761 N   0  0  0  0  0  0  0  0  0  0  0  0
    7.3029    0.1400   18.7375 C   0  0  0  0  0  0  0  0  0  0  0  0
    8.2537   -0.3558   18.5878 H   0  0  0  0  0  0  0  0  0  0  0  0
    5.0192    1.7518   17.0122 H   0  0  0  0  0  0  0  0  0  0  0  0
    3.9161    1.8069   19.2095 H   0  0  0  0  0  0  0  0  0  0  0  0
    5.0299    0.7675   21.1949 H   0  0  0  0  0  0  0  0  0  0  0  0
    5.8267   -1.4262   22.0845 H   0  0  0  0  0  0  0  0  0  0  0  0
    6.2605    0.1879   22.7276 H   0  0  0  0  0  0  0  0  0  0  0  0
    7.2374   -1.2301   23.1491 H   0  0  0  0  0  0  0  0  0  0  0  0
  1  2  1  0
  2  3  1  0
  3  4  1  0
  3  5  1  0
  3  6  1  0
  2  7  1  0
  7  8  1  0
  8  9  1  0
  9 10  2  0
 10 11  1  0
 11 12  2  0
 12 13  1  0
 13 14  1  0
 13 15  2  0
 15 16  1  0
 12 17  1  0
 11 18  1  0
 10 19  1  0
  8 20  1  0
  8 21  1  0
  7 22  1  0
  7 23  1  0
  2 24  1  0
 24 25  2  0
 25 26  1  0
 26 27  2  0
 27 28  1  0
 28 29  2  0
 29 30  1  0
 27 31  1  0
 26 32  1  0
 25 33  1  0
  1 34  1  0
  1 35  1  0
  1 36  1  0
 15  9  1  0
 29 24  1  0
M  CHG  1   7   1
M  END
>  <cnnaffinity>  (1) 
4.81914

>  <plip>  (1) 
-0.07142857142857142

>  <filename>  (1) 
[H][c]1[n][c]([H])[c]([C]([C]([H])([H])[H])([C]([H])([H])[H])[N+]([H])([H])[C]([H])([H])[c]2[c]([H])[c]([H])[c]([H])[c]([Br])[c]2[F])[c]([H])[c]1[H]

>  <combo1>  (1) 
-0.3539031838905072

$$$$
