
     RDKit          3D

 48 51  0  0  0  0  0  0  0  0999 V2000
    7.2274   -0.8627   25.8949 F   0  0  0  0  0  0  0  0  0  0  0  0
    6.1148   -1.3052   26.5063 C   0  0  0  0  0  0  0  0  0  0  0  0
    5.8192   -0.7679   27.7566 C   0  0  0  0  0  0  0  0  0  0  0  0
    4.6676   -1.1891   28.4286 C   0  0  0  0  0  0  0  0  0  0  0  0
    3.8258   -2.1359   27.8382 C   0  0  0  0  0  0  0  0  0  0  0  0
    4.1444   -2.6605   26.5892 C   0  0  0  0  0  0  0  0  0  0  0  0
    5.3030   -2.2736   25.8829 C   0  0  0  0  0  0  0  0  0  0  0  0
    5.5871   -2.8770   24.5775 C   0  0  0  0  0  0  0  0  0  0  0  0
    4.8359   -3.6982   23.7837 C   0  0  0  0  0  0  0  0  0  0  0  0
    5.5929   -3.9425   22.6029 C   0  0  0  0  0  0  0  0  0  0  0  0
    6.7528   -3.2526   22.7451 C   0  0  0  0  0  0  0  0  0  0  0  0
    7.8749   -3.0431   21.7639 C   0  0  0  0  0  0  0  0  0  0  0  0
    7.5048   -2.1100   20.6421 N   0  0  0  0  0  4  0  0  0  0  0  0
    7.3312   -0.6413   21.0618 C   0  0  0  0  0  0  0  0  0  0  0  0
    6.6015   -0.0054   19.9091 C   0  0  0  0  0  0  0  0  0  0  0  0
    5.3858    0.6577   20.1217 C   0  0  0  0  0  0  0  0  0  0  0  0
    4.7761    1.3157   19.0534 C   0  0  0  0  0  0  0  0  0  0  0  0
    5.4018    1.2818   17.8046 C   0  0  0  0  0  0  0  0  0  0  0  0
    6.5498    0.6287   17.5693 N   0  0  0  0  0  0  0  0  0  0  0  0
    7.1279    0.0056   18.6053 C   0  0  0  0  0  0  0  0  0  0  0  0
    8.0778   -0.4767   18.3611 H   0  0  0  0  0  0  0  0  0  0  0  0
    4.9666    1.8128   16.9601 H   0  0  0  0  0  0  0  0  0  0  0  0
    3.8540    1.8720   19.1863 H   0  0  0  0  0  0  0  0  0  0  0  0
    4.9428    0.6645   21.1200 H   0  0  0  0  0  0  0  0  0  0  0  0
    8.6511    0.0605   21.4146 C   0  0  0  0  0  0  0  0  0  0  0  0
    9.0639    0.1413   22.9071 C   0  0  0  0  0  0  0  0  0  0  0  0
   10.6107    0.1689   22.8356 C   0  0  0  0  0  0  0  0  0  0  0  0
   10.9482    0.2055   21.4568 O   0  0  0  0  0  0  0  0  0  0  0  0
    9.9308   -0.5138   20.7995 C   0  0  0  0  0  0  0  0  0  0  0  0
   10.0760   -1.5939   20.9783 H   0  0  0  0  0  0  0  0  0  0  0  0
    9.9995   -0.3667   19.7234 H   0  0  0  0  0  0  0  0  0  0  0  0
   11.0260   -0.7439   23.2980 H   0  0  0  0  0  0  0  0  0  0  0  0
   11.0550    1.0585   23.2928 H   0  0  0  0  0  0  0  0  0  0  0  0
    8.6423    1.0268   23.3924 H   0  0  0  0  0  0  0  0  0  0  0  0
    8.7152   -0.7124   23.4973 H   0  0  0  0  0  0  0  0  0  0  0  0
    8.5763    1.0957   21.0536 H   0  0  0  0  0  0  0  0  0  0  0  0
    6.6831   -0.6502   21.9453 H   0  0  0  0  0  0  0  0  0  0  0  0
    8.1909   -2.0740   19.8692 H   0  0  0  0  0  0  0  0  0  0  0  0
    6.5858   -2.3728   20.2120 H   0  0  0  0  0  0  0  0  0  0  0  0
    8.7144   -2.6366   22.3353 H   0  0  0  0  0  0  0  0  0  0  0  0
    8.1871   -4.0141   21.3659 H   0  0  0  0  0  0  0  0  0  0  0  0
    6.7700   -2.6175   23.9498 O   0  0  0  0  0  0  0  0  0  0  0  0
    5.3360   -4.5445   21.7396 H   0  0  0  0  0  0  0  0  0  0  0  0
    3.8424   -4.0524   24.0158 H   0  0  0  0  0  0  0  0  0  0  0  0
    3.4739   -3.4006   26.1617 H   0  0  0  0  0  0  0  0  0  0  0  0
    2.9280   -2.4712   28.3495 H   0  0  0  0  0  0  0  0  0  0  0  0
    4.4288   -0.7837   29.4071 H   0  0  0  0  0  0  0  0  0  0  0  0
    6.4972   -0.0348   28.1802 H   0  0  0  0  0  0  0  0  0  0  0  0
  1  2  1  0
  2  3  2  0
  3  4  1  0
  4  5  2  0
  5  6  1  0
  6  7  2  0
  7  8  1  0
  8  9  2  0
  9 10  1  0
 10 11  2  0
 11 12  1  0
 12 13  1  0
 13 14  1  0
 14 15  1  0
 15 16  2  0
 16 17  1  0
 17 18  2  0
 18 19  1  0
 19 20  2  0
 20 21  1  0
 18 22  1  0
 17 23  1  0
 16 24  1  0
 14 25  1  0
 25 26  1  0
 26 27  1  0
 27 28  1  0
 28 29  1  0
 29 30  1  0
 29 31  1  0
 27 32  1  0
 27 33  1  0
 26 34  1  0
 26 35  1  0
 25 36  1  0
 14 37  1  0
 13 38  1  0
 13 39  1  0
 12 40  1  0
 12 41  1  0
 11 42  1  0
 10 43  1  0
  9 44  1  0
  6 45  1  0
  5 46  1  0
  4 47  1  0
  3 48  1  0
  7  2  1  0
 42  8  1  0
 20 15  1  0
 29 25  1  0
M  CHG  1  13   1
M  END
>  <cnnaffinity>  (1) 
5.42596

>  <plip>  (1) 
-0.03333333333333333

>  <filename>  (1) 
[H][c]1[n][c]([H])[c]([C]([H])([C]2([H])[C]([H])([H])[O][C]([H])([H])[C]2([H])[H])[N+]([H])([H])[C]([H])([H])[c]2[o][c](-[c]3[c]([H])[c]([H])[c]([H])[c]([H])[c]3[F])[c]([H])[c]2[H])[c]([H])[c]1[H]

>  <combo1>  (1) 
-0.17058727917571728

$$$$
