
     RDKit          3D

 30 32  0  0  0  0  0  0  0  0999 V2000
    4.9133    1.7850   16.9956 H   0  0  0  0  0  0  0  0  0  0  0  0
    5.3970    1.2965   17.8383 C   0  0  0  0  0  0  0  0  0  0  0  0
    6.5615    0.6808   17.5733 N   0  0  0  0  0  0  0  0  0  0  0  0
    7.1723    0.0588   18.5917 C   0  0  0  0  0  0  0  0  0  0  0  0
    8.1207   -0.4292   18.3755 H   0  0  0  0  0  0  0  0  0  0  0  0
    6.6621   -0.0178   19.9137 C   0  0  0  0  0  0  0  0  0  0  0  0
    7.3265   -0.7206   20.9286 N   0  0  0  0  0  0  0  0  0  0  0  0
    6.7678   -1.1164   21.6799 H   0  0  0  0  0  0  0  0  0  0  0  0
    8.7065   -0.6931   21.1430 C   0  0  0  0  0  0  0  0  0  0  0  0
    9.6848    0.2096   20.6625 C   0  0  0  0  0  0  0  0  0  0  0  0
    9.5118    1.0302   19.9910 H   0  0  0  0  0  0  0  0  0  0  0  0
   10.8956   -0.0581   21.1383 N   0  0  0  0  0  0  0  0  0  0  0  0
   10.6974   -1.1355   21.9133 N   0  0  0  0  0  0  0  0  0  0  0  0
   11.4859   -1.5114   22.4143 H   0  0  0  0  0  0  0  0  0  0  0  0
    9.4116   -1.5653   21.9492 C   0  0  0  0  0  0  0  0  0  0  0  0
    8.9135   -2.6525   22.8410 C   0  0  0  0  0  0  0  0  0  0  0  0
    8.0429   -3.1175   22.3691 H   0  0  0  0  0  0  0  0  0  0  0  0
    9.6830   -3.4313   22.9380 H   0  0  0  0  0  0  0  0  0  0  0  0
    8.5604   -2.1015   24.2015 C   0  0  0  0  0  0  0  0  0  0  0  0
    6.9924   -1.5222   24.6197 S   0  0  0  0  0  0  0  0  0  0  0  0
    7.5375   -1.0382   26.1864 C   0  0  0  0  0  0  0  0  0  0  0  0
    6.8406   -0.6029   26.8879 H   0  0  0  0  0  0  0  0  0  0  0  0
    8.8678   -1.2697   26.3632 C   0  0  0  0  0  0  0  0  0  0  0  0
    9.4160   -1.0215   27.2708 H   0  0  0  0  0  0  0  0  0  0  0  0
    9.4476   -1.8690   25.2013 C   0  0  0  0  0  0  0  0  0  0  0  0
   10.4885   -2.1091   25.0355 H   0  0  0  0  0  0  0  0  0  0  0  0
    5.4423    0.6300   20.1649 C   0  0  0  0  0  0  0  0  0  0  0  0
    5.0186    0.6227   21.1711 H   0  0  0  0  0  0  0  0  0  0  0  0
    4.8129    1.3046   19.1106 C   0  0  0  0  0  0  0  0  0  0  0  0
    3.8820    1.8377   19.2647 H   0  0  0  0  0  0  0  0  0  0  0  0
  1  2  1  0
  2  3  2  0
  3  4  1  0
  4  5  1  0
  4  6  2  0
  6  7  1  0
  7  8  1  0
  7  9  1  0
  9 10  1  0
 10 11  1  0
 10 12  2  0
 12 13  1  0
 13 14  1  0
 13 15  1  0
 15 16  1  0
 16 17  1  0
 16 18  1  0
 16 19  1  0
 19 20  1  0
 20 21  1  0
 21 22  1  0
 21 23  2  0
 23 24  1  0
 23 25  1  0
 25 26  1  0
  6 27  1  0
 27 28  1  0
 27 29  2  0
 29 30  1  0
 29  2  1  0
 15  9  2  0
 25 19  2  0
M  END
>  <cnnaffinity>  (1) 
5.57062

>  <plip>  (1) 
-0.10344827586206896

>  <filename>  (1) 
[H][c]1[n][c]([H])[c]([N]([H])[c]2[c]([H])[n][n]([H])[c]2[C]([H])([H])[c]2[s][c]([H])[c]([H])[c]2[H])[c]([H])[c]1[H]

>  <combo1>  (1) 
-0.7493752090147471

$$$$
