
     RDKit          3D

 35 36  0  0  0  0  0  0  0  0999 V2000
    9.3175   -1.9885   25.4161 O   0  0  0  0  0  0  0  0  0  0  0  0
    8.9031   -0.8870   25.0822 C   0  0  0  0  0  0  0  0  0  0  0  0
    9.3445    0.3562   25.8380 C   0  0  0  0  0  0  0  0  0  0  0  0
   10.4311    1.0298   25.0559 C   0  0  0  0  0  0  0  0  0  0  0  0
   11.7430    0.5780   25.1778 C   0  0  0  0  0  0  0  0  0  0  0  0
   12.7827    1.1988   24.4754 C   0  0  0  0  0  0  0  0  0  0  0  0
   12.4956    2.2699   23.6184 C   0  0  0  0  0  0  0  0  0  0  0  0
   13.8929    3.2166   22.7275 Br  0  0  0  0  0  0  0  0  0  0  0  0
   11.1671    2.6742   23.4312 C   0  0  0  0  0  0  0  0  0  0  0  0
   10.8716    3.6675   22.5610 F   0  0  0  0  0  0  0  0  0  0  0  0
   10.1411    2.0593   24.1569 C   0  0  0  0  0  0  0  0  0  0  0  0
    9.1169    2.3894   24.0135 H   0  0  0  0  0  0  0  0  0  0  0  0
   13.8062    0.8551   24.5993 H   0  0  0  0  0  0  0  0  0  0  0  0
   11.9316   -0.2642   25.8302 H   0  0  0  0  0  0  0  0  0  0  0  0
    9.7122    0.0741   26.8286 H   0  0  0  0  0  0  0  0  0  0  0  0
    8.5027    1.0408   25.9710 H   0  0  0  0  0  0  0  0  0  0  0  0
    8.0424   -0.7280   24.0054 N   0  0  0  0  0  0  0  0  0  0  0  0
    7.5862   -1.8418   23.1173 C   0  0  0  0  0  0  0  0  0  0  0  0
    6.7879   -1.4677   21.8440 C   0  0  0  0  0  0  0  0  0  0  0  0
    5.7095   -2.0025   21.5836 O   0  0  0  0  0  0  0  0  0  0  0  0
    7.3874   -0.6489   20.8995 N   0  0  0  0  0  0  0  0  0  0  0  0
    6.6966   -0.0025   19.8616 C   0  0  0  0  0  0  0  0  0  0  0  0
    5.4738    0.6084   20.1290 C   0  0  0  0  0  0  0  0  0  0  0  0
    4.8245    1.2789   19.0869 C   0  0  0  0  0  0  0  0  0  0  0  0
    5.3948    1.3016   17.8078 C   0  0  0  0  0  0  0  0  0  0  0  0
    6.5674    0.6976   17.5312 N   0  0  0  0  0  0  0  0  0  0  0  0
    7.2009    0.0725   18.5479 C   0  0  0  0  0  0  0  0  0  0  0  0
    8.1498   -0.4156   18.3626 H   0  0  0  0  0  0  0  0  0  0  0  0
    4.8758    1.8327   17.0144 H   0  0  0  0  0  0  0  0  0  0  0  0
    3.8921    1.8072   19.2552 H   0  0  0  0  0  0  0  0  0  0  0  0
    5.0560    0.5860   21.1319 H   0  0  0  0  0  0  0  0  0  0  0  0
    8.4035   -0.6193   20.9082 H   0  0  0  0  0  0  0  0  0  0  0  0
    6.9742   -2.5399   23.6952 H   0  0  0  0  0  0  0  0  0  0  0  0
    8.4719   -2.3879   22.7765 H   0  0  0  0  0  0  0  0  0  0  0  0
    7.7393    0.2322   23.8345 H   0  0  0  0  0  0  0  0  0  0  0  0
  1  2  2  0
  2  3  1  0
  3  4  1  0
  4  5  2  0
  5  6  1  0
  6  7  2  0
  7  8  1  0
  7  9  1  0
  9 10  1  0
  9 11  2  0
 11 12  1  0
  6 13  1  0
  5 14  1  0
  3 15  1  0
  3 16  1  0
  2 17  1  0
 17 18  1  0
 18 19  1  0
 19 20  2  0
 19 21  1  0
 21 22  1  0
 22 23  2  0
 23 24  1  0
 24 25  2  0
 25 26  1  0
 26 27  2  0
 27 28  1  0
 25 29  1  0
 24 30  1  0
 23 31  1  0
 21 32  1  0
 18 33  1  0
 18 34  1  0
 17 35  1  0
 11  4  1  0
 27 22  1  0
M  END
>  <cnnaffinity>  (1) 
5.21687

>  <plip>  (1) 
-0.06666666666666667

>  <filename>  (1) 
[H][c]1[n][c]([H])[c]([N]([H])[C](=[O])[C]([H])([H])[N]([H])[C](=[O])[C]([H])([H])[c]2[c]([H])[c]([H])[c]([Br])[c]([F])[c]2[H])[c]([H])[c]1[H]

>  <combo1>  (1) 
-0.31658550054464746

$$$$
