
     RDKit          3D

 36 39  0  0  0  0  0  0  0  0999 V2000
    4.9175    1.8349   16.9484 H   0  0  0  0  0  0  0  0  0  0  0  0
    5.3885    1.3206   17.7837 C   0  0  0  0  0  0  0  0  0  0  0  0
    6.5421    0.6873   17.5171 N   0  0  0  0  0  0  0  0  0  0  0  0
    7.1499    0.0648   18.5387 C   0  0  0  0  0  0  0  0  0  0  0  0
    8.0878   -0.4392   18.3047 H   0  0  0  0  0  0  0  0  0  0  0  0
    6.6626    0.0226   19.8641 C   0  0  0  0  0  0  0  0  0  0  0  0
    7.3832   -0.7112   20.9469 C   0  0  0  0  0  0  0  0  0  0  0  0
    8.5292   -0.2404   21.5248 C   0  0  0  0  0  0  0  0  0  0  0  0
    9.0935    0.9673   21.1687 N   0  0  0  0  0  0  0  0  0  0  0  0
    8.4821    1.5843   20.6518 H   0  0  0  0  0  0  0  0  0  0  0  0
   10.1882    1.5788   21.8416 C   0  0  0  0  0  0  0  0  0  0  0  0
   11.1708    1.1687   21.6007 H   0  0  0  0  0  0  0  0  0  0  0  0
   10.0067    2.1047   23.2465 C   0  0  0  0  0  0  0  0  0  0  0  0
    9.0413    1.9313   23.7182 H   0  0  0  0  0  0  0  0  0  0  0  0
   10.8667    2.0805   23.9102 H   0  0  0  0  0  0  0  0  0  0  0  0
   10.0765    3.0377   22.0715 C   0  0  0  0  0  0  0  0  0  0  0  0
   10.9725    3.6342   21.9288 H   0  0  0  0  0  0  0  0  0  0  0  0
    9.1526    3.5167   21.7466 H   0  0  0  0  0  0  0  0  0  0  0  0
    9.1971   -0.9939   22.6631 C   0  0  2  0  0  0  0  0  0  0  0  0
   10.2203   -0.6371   22.8049 H   0  0  0  0  0  0  0  0  0  0  0  0
    9.2504   -2.7803   22.3059 S   0  0  0  0  0  0  0  0  0  0  0  0
    7.4425   -2.7583   22.5239 C   0  0  2  0  0  0  0  0  0  0  0  0
    7.0911   -3.7936   22.5887 H   0  0  0  0  0  0  0  0  0  0  0  0
    6.7903   -2.0521   21.3142 C   0  0  0  0  0  0  0  0  0  0  0  0
    6.8465   -2.7116   20.4371 H   0  0  0  0  0  0  0  0  0  0  0  0
    5.7168   -1.9256   21.5129 H   0  0  0  0  0  0  0  0  0  0  0  0
    7.2412   -1.9930   23.8509 C   0  0  0  0  0  0  0  0  0  0  0  0
    7.3234   -2.6903   24.6901 H   0  0  0  0  0  0  0  0  0  0  0  0
    6.2435   -1.5442   23.8858 H   0  0  0  0  0  0  0  0  0  0  0  0
    8.3502   -0.9136   23.9600 C   0  0  0  0  0  0  0  0  0  0  0  0
    7.9366    0.0913   24.1100 H   0  0  0  0  0  0  0  0  0  0  0  0
    8.9990   -1.1099   24.8184 H   0  0  0  0  0  0  0  0  0  0  0  0
    5.4280    0.6600   20.0998 C   0  0  0  0  0  0  0  0  0  0  0  0
    4.9976    0.6404   21.1029 H   0  0  0  0  0  0  0  0  0  0  0  0
    4.7939    1.3282   19.0509 C   0  0  0  0  0  0  0  0  0  0  0  0
    3.8582    1.8563   19.1974 H   0  0  0  0  0  0  0  0  0  0  0  0
  1  2  1  0
  2  3  2  0
  3  4  1  0
  4  5  1  0
  4  6  2  0
  6  7  1  0
  7  8  2  0
  8  9  1  0
  9 10  1  0
  9 11  1  0
 11 12  1  0
 11 13  1  0
 13 14  1  0
 13 15  1  0
 13 16  1  0
 16 17  1  0
 16 18  1  0
  8 19  1  0
 19 20  1  1
 19 21  1  0
 21 22  1  0
 22 23  1  1
 22 24  1  0
 24 25  1  0
 24 26  1  0
 22 27  1  0
 27 28  1  0
 27 29  1  0
 27 30  1  0
 30 31  1  0
 30 32  1  0
  6 33  1  0
 33 34  1  0
 33 35  2  0
 35 36  1  0
 35  2  1  0
 24  7  1  0
 16 11  1  0
 30 19  1  0
M  END
>  <cnnaffinity>  (1) 
4.85021

>  <plip>  (1) 
-0.10714285714285714

>  <filename>  (1) 
[H][c]1[n][c]([H])[c]([C]2=[C]([N]([H])[C]3([H])[C]([H])([H])[C]3([H])[H])[C@]3([H])[S][C@]([H])([C]2([H])[H])[C]([H])([H])[C]3([H])[H])[c]([H])[c]1[H]

>  <combo1>  (1) 
-0.6703888916532593

$$$$
