
     RDKit          3D

 30 32  0  0  0  0  0  0  0  0999 V2000
    4.9602    1.8517   16.9655 H   0  0  0  0  0  0  0  0  0  0  0  0
    5.4287    1.3285   17.7946 C   0  0  0  0  0  0  0  0  0  0  0  0
    6.5975    0.7199   17.5271 N   0  0  0  0  0  0  0  0  0  0  0  0
    7.1930    0.0783   18.5390 C   0  0  0  0  0  0  0  0  0  0  0  0
    8.1408   -0.4112   18.3226 H   0  0  0  0  0  0  0  0  0  0  0  0
    6.6555   -0.0191   19.8376 C   0  0  0  0  0  0  0  0  0  0  0  0
    7.3540   -0.7216   20.8873 N   0  0  0  0  0  0  0  0  0  0  0  0
    8.6017   -0.2664   21.2351 C   0  0  0  0  0  0  0  0  0  0  0  0
    8.9789    0.5651   20.6484 H   0  0  0  0  0  0  0  0  0  0  0  0
    9.3269   -0.8047   22.2625 C   0  0  0  0  0  0  0  0  0  0  0  0
   10.6344   -0.1914   22.5387 C   0  0  0  0  0  0  0  0  0  0  0  0
   11.2715    0.5229   21.6900 N   0  0  0  0  0  0  0  0  0  0  0  0
   12.4919    0.9943   22.3461 C   0  0  0  0  0  0  0  0  0  0  0  0
   13.3700    0.8175   21.7216 H   0  0  0  0  0  0  0  0  0  0  0  0
   12.4229    2.0744   22.5396 H   0  0  0  0  0  0  0  0  0  0  0  0
   12.6032    0.1612   23.6276 C   0  0  0  0  0  0  0  0  0  0  0  0
   13.3105   -0.6566   23.4543 H   0  0  0  0  0  0  0  0  0  0  0  0
   12.9451    0.7430   24.4835 H   0  0  0  0  0  0  0  0  0  0  0  0
   11.2302   -0.3251   23.7907 N   0  0  0  0  0  0  0  0  0  0  0  0
   11.1448   -1.2567   24.1542 H   0  0  0  0  0  0  0  0  0  0  0  0
    8.7795   -1.9196   22.9708 C   0  0  0  0  0  0  0  0  0  0  0  0
    9.3360   -2.4195   23.7684 H   0  0  0  0  0  0  0  0  0  0  0  0
    7.5441   -2.3856   22.6499 C   0  0  0  0  0  0  0  0  0  0  0  0
    7.0699   -3.2041   23.1659 H   0  0  0  0  0  0  0  0  0  0  0  0
    6.7295   -1.8135   21.5889 C   0  0  0  0  0  0  0  0  0  0  0  0
    5.6274   -2.2380   21.2852 O   0  0  0  0  0  0  0  0  0  0  0  0
    5.4460    0.6301   20.1057 C   0  0  0  0  0  0  0  0  0  0  0  0
    5.0226    0.5945   21.1092 H   0  0  0  0  0  0  0  0  0  0  0  0
    4.8244    1.3167   19.0577 C   0  0  0  0  0  0  0  0  0  0  0  0
    3.8920    1.8504   19.2143 H   0  0  0  0  0  0  0  0  0  0  0  0
  1  2  1  0
  2  3  2  0
  3  4  1  0
  4  5  1  0
  4  6  2  0
  6  7  1  0
  7  8  1  0
  8  9  1  0
  8 10  2  0
 10 11  1  0
 11 12  2  0
 12 13  1  0
 13 14  1  0
 13 15  1  0
 13 16  1  0
 16 17  1  0
 16 18  1  0
 16 19  1  0
 19 20  1  0
 10 21  1  0
 21 22  1  0
 21 23  2  0
 23 24  1  0
 23 25  1  0
 25 26  2  0
  6 27  1  0
 27 28  1  0
 27 29  2  0
 29 30  1  0
 29  2  1  0
 25  7  1  0
 19 11  1  0
M  END
>  <cnnaffinity>  (1) 
4.40614

>  <plip>  (1) 
-0.10344827586206896

>  <filename>  (1) 
[H][c]1[n][c]([H])[c](-[n]2[c]([H])[c]([C]3=[N][C]([H])([H])[C]([H])([H])[N]3[H])[c]([H])[c]([H])[c]2=[O])[c]([H])[c]1[H]

>  <combo1>  (1) 
-0.6323652205013006

$$$$
