
     RDKit          3D

 23 23  0  0  0  0  0  0  0  0999 V2000
    6.4081   -3.4700   26.7506 H   0  0  0  0  0  0  0  0  0  0  0  0
    6.9534   -3.9558   26.1046 O   0  0  0  0  0  0  0  0  0  0  0  0
    7.3475   -3.0326   25.1366 N   0  0  0  0  0  0  0  0  0  0  0  0
    8.3249   -3.1525   24.9160 H   0  0  0  0  0  0  0  0  0  0  0  0
    6.5611   -2.7532   24.0147 C   0  0  0  0  0  0  0  0  0  0  0  0
    5.3738   -2.9945   23.9314 O   0  0  0  0  0  0  0  0  0  0  0  0
    7.3504   -2.0240   22.9998 C   0  0  0  0  0  0  0  0  0  0  0  0
    8.4162   -1.9328   23.1619 H   0  0  0  0  0  0  0  0  0  0  0  0
    6.7470   -1.4337   21.9602 C   0  0  0  0  0  0  0  0  0  0  0  0
    5.6695   -1.5234   21.8302 H   0  0  0  0  0  0  0  0  0  0  0  0
    7.3381   -0.6718   20.9747 N   0  0  0  0  0  0  0  0  0  0  0  0
    8.7223   -0.6832   20.8668 O   0  0  0  0  0  0  0  0  0  0  0  0
    9.0062    0.0983   21.3716 H   0  0  0  0  0  0  0  0  0  0  0  0
    6.6431   -0.0145   19.9295 C   0  0  0  0  0  0  0  0  0  0  0  0
    7.1802    0.0425   18.6252 C   0  0  0  0  0  0  0  0  0  0  0  0
    8.1364   -0.4293   18.4200 H   0  0  0  0  0  0  0  0  0  0  0  0
    6.5809    0.6615   17.6007 N   0  0  0  0  0  0  0  0  0  0  0  0
    5.4143    1.2846   17.8375 C   0  0  0  0  0  0  0  0  0  0  0  0
    4.9676    1.7916   16.9848 H   0  0  0  0  0  0  0  0  0  0  0  0
    4.7958    1.3009   19.0921 C   0  0  0  0  0  0  0  0  0  0  0  0
    3.8638    1.8453   19.2253 H   0  0  0  0  0  0  0  0  0  0  0  0
    5.4151    0.6376   20.1568 C   0  0  0  0  0  0  0  0  0  0  0  0
    4.9883    0.6635   21.1588 H   0  0  0  0  0  0  0  0  0  0  0  0
  1  2  1  0
  2  3  1  0
  3  4  1  0
  3  5  1  0
  5  6  2  0
  5  7  1  0
  7  8  1  0
  7  9  2  3
  9 10  1  0
  9 11  1  0
 11 12  1  0
 12 13  1  0
 11 14  1  0
 14 15  2  0
 15 16  1  0
 15 17  1  0
 17 18  2  0
 18 19  1  0
 18 20  1  0
 20 21  1  0
 20 22  2  0
 22 23  1  0
 22 14  1  0
M  END
>  <cnnaffinity>  (1) 
3.79003

>  <plip>  (1) 
-0.0

>  <filename>  (1) 
[H][O][N]([H])[C](=[O])[C]([H])=[C]([H])[N]([O][H])[c]1[c]([H])[n][c]([H])[c]([H])[c]1[H]

>  <combo1>  (1) 
-6.472775278634546e-06

$$$$
