
     RDKit          3D

 40 41  0  0  0  0  0  0  0  0999 V2000
   11.7303    8.1101   26.3373 F   0  0  0  0  0  0  0  0  0  0  0  0
   12.2770    6.9349   25.9563 C   0  0  0  0  0  0  0  0  0  0  0  0
   13.0366    7.1820   24.8825 F   0  0  0  0  0  0  0  0  0  0  0  0
   13.1028    6.5579   26.9504 F   0  0  0  0  0  0  0  0  0  0  0  0
   11.1710    5.8832   25.6761 C   0  0  0  0  0  0  0  0  0  0  0  0
    9.9392    5.9350   26.3566 C   0  0  0  0  0  0  0  0  0  0  0  0
    8.9638    4.9828   26.0373 C   0  0  0  0  0  0  0  0  0  0  0  0
    9.2367    4.0328   25.0652 C   0  0  0  0  0  0  0  0  0  0  0  0
   10.5151    4.0272   24.4950 C   0  0  0  0  0  0  0  0  0  0  0  0
   10.9620    3.0997   23.6236 N   0  0  0  0  0  0  0  0  0  0  0  0
   10.2811    1.9041   23.2129 C   0  0  0  0  0  0  0  0  0  0  0  0
    9.1568    2.2099   22.2105 C   0  0  0  0  0  0  0  0  0  0  0  0
    8.0434    1.1759   22.1892 C   0  0  0  0  0  0  0  0  0  0  0  0
    8.4678   -0.0182   21.3706 N   0  0  0  0  0  4  0  0  0  0  0  0
    7.3327   -0.8817   20.9590 C   0  0  0  0  0  0  0  0  0  0  0  0
    6.6118   -0.1518   19.8545 C   0  0  0  0  0  0  0  0  0  0  0  0
    5.4047    0.5248   20.0653 C   0  0  0  0  0  0  0  0  0  0  0  0
    4.8666    1.2839   19.0214 C   0  0  0  0  0  0  0  0  0  0  0  0
    5.5509    1.3268   17.8039 C   0  0  0  0  0  0  0  0  0  0  0  0
    6.7048    0.6781   17.5826 N   0  0  0  0  0  0  0  0  0  0  0  0
    7.2216   -0.0245   18.5970 C   0  0  0  0  0  0  0  0  0  0  0  0
    8.1643   -0.5304   18.3780 H   0  0  0  0  0  0  0  0  0  0  0  0
    5.1521    1.8987   16.9680 H   0  0  0  0  0  0  0  0  0  0  0  0
    3.9534    1.8564   19.1448 H   0  0  0  0  0  0  0  0  0  0  0  0
    4.9226    0.4816   21.0454 H   0  0  0  0  0  0  0  0  0  0  0  0
    7.6926   -1.8566   20.6220 H   0  0  0  0  0  0  0  0  0  0  0  0
    6.6498   -1.0532   21.8008 H   0  0  0  0  0  0  0  0  0  0  0  0
    8.8712    0.3668   20.4822 H   0  0  0  0  0  0  0  0  0  0  0  0
    9.2059   -0.5207   21.9055 H   0  0  0  0  0  0  0  0  0  0  0  0
    7.1269    1.5840   21.7583 H   0  0  0  0  0  0  0  0  0  0  0  0
    7.7615    0.8706   23.2089 H   0  0  0  0  0  0  0  0  0  0  0  0
    8.7164    3.1787   22.4636 H   0  0  0  0  0  0  0  0  0  0  0  0
    9.5877    2.3520   21.2099 H   0  0  0  0  0  0  0  0  0  0  0  0
    9.8682    1.3775   24.0919 H   0  0  0  0  0  0  0  0  0  0  0  0
   11.0294    1.2286   22.7847 H   0  0  0  0  0  0  0  0  0  0  0  0
   11.9173    3.3407   23.4261 H   0  0  0  0  0  0  0  0  0  0  0  0
   11.4622    4.9222   24.7884 N   0  0  0  0  0  0  0  0  0  0  0  0
    8.5365    3.2883   24.7282 H   0  0  0  0  0  0  0  0  0  0  0  0
    7.9829    5.0067   26.5116 H   0  0  0  0  0  0  0  0  0  0  0  0
    9.7283    6.6781   27.1130 H   0  0  0  0  0  0  0  0  0  0  0  0
  1  2  1  0
  2  3  1  0
  2  4  1  0
  2  5  1  0
  5  6  2  0
  6  7  1  0
  7  8  2  0
  8  9  1  0
  9 10  1  0
 10 11  1  0
 11 12  1  0
 12 13  1  0
 13 14  1  0
 14 15  1  0
 15 16  1  0
 16 17  2  0
 17 18  1  0
 18 19  2  0
 19 20  1  0
 20 21  2  0
 21 22  1  0
 19 23  1  0
 18 24  1  0
 17 25  1  0
 15 26  1  0
 15 27  1  0
 14 28  1  0
 14 29  1  0
 13 30  1  0
 13 31  1  0
 12 32  1  0
 12 33  1  0
 11 34  1  0
 11 35  1  0
 10 36  1  0
  9 37  2  0
  8 38  1  0
  7 39  1  0
  6 40  1  0
 37  5  1  0
 21 16  1  0
M  CHG  1  14   1
M  END
>  <cnnaffinity>  (1) 
4.73154

>  <plip>  (1) 
-0.10714285714285714

>  <filename>  (1) 
[H][c]1[n][c]([H])[c]([C]([H])([H])[N+]([H])([H])[C]([H])([H])[C]([H])([H])[C]([H])([H])[N]([H])[c]2[n][c]([C]([F])([F])[F])[c]([H])[c]([H])[c]2[H])[c]([H])[c]1[H]

>  <combo1>  (1) 
-0.5427778519600412

$$$$
