
     RDKit          3D

 23 25  0  0  0  0  0  0  0  0999 V2000
   13.1052   -2.6617   22.1946 H   0  0  0  0  0  0  0  0  0  0  0  0
   12.0813   -2.6655   22.5423 C   0  0  0  0  0  0  0  0  0  0  0  0
   11.5689   -3.4124   23.4650 N   0  0  0  0  0  0  0  0  0  0  0  0
   10.2410   -3.0778   23.4763 C   0  0  0  0  0  0  0  0  0  0  0  0
    9.5289   -3.5599   24.1394 H   0  0  0  0  0  0  0  0  0  0  0  0
   10.0122   -2.1360   22.5315 C   0  0  0  0  0  0  0  0  0  0  0  0
    8.7569   -1.5725   22.0949 C   0  0  0  0  0  0  0  0  0  0  0  0
    8.5271   -1.0180   20.8794 N   0  0  0  0  0  0  0  0  0  0  0  0
    7.2540   -0.6880   20.9335 C   0  0  0  0  0  0  0  0  0  0  0  0
    6.5329    0.0235   19.8843 C   0  0  0  0  0  0  0  0  0  0  0  0
    7.1140    0.0634   18.6070 C   0  0  0  0  0  0  0  0  0  0  0  0
    8.0666   -0.4331   18.4343 H   0  0  0  0  0  0  0  0  0  0  0  0
    6.5628    0.6869   17.5620 N   0  0  0  0  0  0  0  0  0  0  0  0
    5.4001    1.3269   17.7627 C   0  0  0  0  0  0  0  0  0  0  0  0
    4.9694    1.8329   16.8978 H   0  0  0  0  0  0  0  0  0  0  0  0
    4.7536    1.3651   19.0055 C   0  0  0  0  0  0  0  0  0  0  0  0
    3.8211    1.9068   19.1065 H   0  0  0  0  0  0  0  0  0  0  0  0
    5.3309    0.7119   20.0906 C   0  0  0  0  0  0  0  0  0  0  0  0
    4.8684    0.7710   21.0798 H   0  0  0  0  0  0  0  0  0  0  0  0
    6.7379   -1.0644   22.1202 N   0  0  0  0  0  0  0  0  0  0  0  0
    5.8042   -0.9206   22.4790 H   0  0  0  0  0  0  0  0  0  0  0  0
    7.6900   -1.6357   22.8836 N   0  0  0  0  0  0  0  0  0  0  0  0
   11.2127   -1.8503   21.9262 O   0  0  0  0  0  0  0  0  0  0  0  0
  1  2  1  0
  2  3  2  0
  3  4  1  0
  4  5  1  0
  4  6  2  0
  6  7  1  0
  7  8  1  0
  8  9  2  0
  9 10  1  0
 10 11  2  0
 11 12  1  0
 11 13  1  0
 13 14  2  0
 14 15  1  0
 14 16  1  0
 16 17  1  0
 16 18  2  0
 18 19  1  0
  9 20  1  0
 20 21  1  0
 20 22  1  0
  6 23  1  0
 23  2  1  0
 22  7  2  0
 18 10  1  0
M  END
>  <cnnaffinity>  (1) 
4.92208

>  <plip>  (1) 
-0.10714285714285714

>  <filename>  (1) 
[H][c]1[n][c]([H])[c](-[c]2[n][c](-[c]3[c]([H])[n][c]([H])[c]([H])[c]3[H])[n]([H])[n]2)[o]1

>  <combo1>  (1) 
-0.8245242562315732

$$$$
