
     RDKit          3D

 46 48  0  0  0  0  0  0  0  0999 V2000
    9.4392   -0.2571   26.2744 C   0  0  0  0  0  0  0  0  0  0  0  0
   10.1866    0.0362   25.1170 O   0  0  0  0  0  0  0  0  0  0  0  0
    9.4576    0.6076   24.0477 C   0  0  0  0  0  0  0  0  0  0  0  0
    8.8054   -0.4506   23.1472 C   0  0  0  0  0  0  0  0  0  0  0  0
    7.9100    0.1754   22.0609 C   0  0  0  0  0  0  0  0  0  0  0  0
    7.2386   -0.8134   21.0852 C   0  0  0  0  0  0  0  0  0  0  0  0
    6.3719   -1.7452   21.7826 N   0  0  0  0  0  0  0  0  0  0  0  0
    6.2315   -3.0436   21.4064 C   0  0  0  0  0  0  0  0  0  0  0  0
    6.5296   -3.4556   20.3047 O   0  0  0  0  0  0  0  0  0  0  0  0
    5.6706   -3.9593   22.4600 C   0  0  0  0  0  0  0  0  0  0  0  0
    6.2367   -3.6837   23.8199 C   0  0  0  0  0  0  0  0  0  0  0  0
    5.3947   -3.2769   24.7167 N   0  0  0  0  0  0  0  0  0  0  0  0
    6.1216   -3.0763   26.2090 S   0  0  0  0  0  0  0  0  0  0  0  0
    7.6956   -3.5329   25.6529 C   0  0  0  0  0  0  0  0  0  0  0  0
    8.8965   -3.6417   26.3723 C   0  0  0  0  0  0  0  0  0  0  0  0
   10.0566   -3.9325   25.6645 C   0  0  0  0  0  0  0  0  0  0  0  0
   10.0431   -4.0786   24.2653 C   0  0  0  0  0  0  0  0  0  0  0  0
    8.8435   -4.0395   23.5620 C   0  0  0  0  0  0  0  0  0  0  0  0
    7.6326   -3.7929   24.2627 C   0  0  0  0  0  0  0  0  0  0  0  0
    8.8255   -4.1891   22.4851 H   0  0  0  0  0  0  0  0  0  0  0  0
   10.9988   -4.2074   23.7629 H   0  0  0  0  0  0  0  0  0  0  0  0
   10.9952   -4.0798   26.1783 H   0  0  0  0  0  0  0  0  0  0  0  0
    8.9001   -3.5044   27.4500 H   0  0  0  0  0  0  0  0  0  0  0  0
    4.5946   -3.7749   22.5126 H   0  0  0  0  0  0  0  0  0  0  0  0
    5.8421   -4.9874   22.1323 H   0  0  0  0  0  0  0  0  0  0  0  0
    6.0370   -1.4966   22.7015 H   0  0  0  0  0  0  0  0  0  0  0  0
    6.5144   -0.0930   19.9569 C   0  0  0  0  0  0  0  0  0  0  0  0
    5.3217    0.6209   20.1366 C   0  0  0  0  0  0  0  0  0  0  0  0
    4.7843    1.3211   19.0538 C   0  0  0  0  0  0  0  0  0  0  0  0
    5.4518    1.2876   17.8250 C   0  0  0  0  0  0  0  0  0  0  0  0
    6.5873    0.6007   17.6264 N   0  0  0  0  0  0  0  0  0  0  0  0
    7.0863   -0.0679   18.6748 C   0  0  0  0  0  0  0  0  0  0  0  0
    8.0076   -0.6220   18.4838 H   0  0  0  0  0  0  0  0  0  0  0  0
    5.0538    1.8282   16.9658 H   0  0  0  0  0  0  0  0  0  0  0  0
    3.8655    1.8891   19.1479 H   0  0  0  0  0  0  0  0  0  0  0  0
    4.8157    0.6173   21.1038 H   0  0  0  0  0  0  0  0  0  0  0  0
    8.0197   -1.4171   20.6044 H   0  0  0  0  0  0  0  0  0  0  0  0
    8.5074    0.8688   21.4526 H   0  0  0  0  0  0  0  0  0  0  0  0
    7.1237    0.7866   22.5347 H   0  0  0  0  0  0  0  0  0  0  0  0
    9.6106   -1.0499   22.6983 H   0  0  0  0  0  0  0  0  0  0  0  0
    8.2256   -1.1468   23.7675 H   0  0  0  0  0  0  0  0  0  0  0  0
   10.1909    1.1850   23.4710 H   0  0  0  0  0  0  0  0  0  0  0  0
    8.7060    1.3296   24.4147 H   0  0  0  0  0  0  0  0  0  0  0  0
    8.5380   -0.8483   26.0572 H   0  0  0  0  0  0  0  0  0  0  0  0
    9.1361    0.6557   26.8130 H   0  0  0  0  0  0  0  0  0  0  0  0
   10.0785   -0.8538   26.9318 H   0  0  0  0  0  0  0  0  0  0  0  0
  1  2  1  0
  2  3  1  0
  3  4  1  0
  4  5  1  0
  5  6  1  0
  6  7  1  0
  7  8  1  0
  8  9  2  0
  8 10  1  0
 10 11  1  0
 11 12  2  0
 12 13  1  0
 13 14  1  0
 14 15  2  0
 15 16  1  0
 16 17  2  0
 17 18  1  0
 18 19  2  0
 18 20  1  0
 17 21  1  0
 16 22  1  0
 15 23  1  0
 10 24  1  0
 10 25  1  0
  7 26  1  0
  6 27  1  0
 27 28  2  0
 28 29  1  0
 29 30  2  0
 30 31  1  0
 31 32  2  0
 32 33  1  0
 30 34  1  0
 29 35  1  0
 28 36  1  0
  6 37  1  0
  5 38  1  0
  5 39  1  0
  4 40  1  0
  4 41  1  0
  3 42  1  0
  3 43  1  0
  1 44  1  0
  1 45  1  0
  1 46  1  0
 19 11  1  0
 32 27  1  0
 19 14  1  0
M  END
>  <cnnaffinity>  (1) 
5.67554

>  <plip>  (1) 
-0.10714285714285714

>  <filename>  (1) 
[H][c]1[n][c]([H])[c]([C]([H])([N]([H])[C](=[O])[C]([H])([H])[c]2[n][s][c]3[c]([H])[c]([H])[c]([H])[c]([H])[c]23)[C]([H])([H])[C]([H])([H])[C]([H])([H])[O][C]([H])([H])[H])[c]([H])[c]1[H]

>  <combo1>  (1) 
-0.570236162815419

$$$$
