
     RDKit          3D

 30 32  0  0  0  0  0  0  0  0999 V2000
    4.7881    1.3398   19.0339 C   0  0  0  0  0  0  0  0  0  0  0  0
    5.4062    1.3305   17.7821 C   0  0  0  0  0  0  0  0  0  0  0  0
    6.5635    0.6955   17.5397 N   0  0  0  0  0  0  0  0  0  0  0  0
    7.1401    0.0580   18.5681 C   0  0  0  0  0  0  0  0  0  0  0  0
    6.6104    0.0036   19.8689 C   0  0  0  0  0  0  0  0  0  0  0  0
    7.2778   -0.7480   20.9905 C   0  0  0  0  0  0  0  0  0  0  0  0
    8.3080    0.4132   21.9955 S   0  0  0  0  0  0  0  0  0  0  0  0
    9.1194   -0.7403   23.0612 C   0  0  0  0  0  0  0  0  0  0  0  0
    8.8188   -0.9775   24.3197 N   0  0  0  0  0  0  0  0  0  0  0  0
    9.5902   -2.0234   24.6948 N   0  0  0  0  0  0  0  0  0  0  0  0
   10.3574   -2.4025   23.7434 N   0  0  0  0  0  0  0  0  0  0  0  0
   10.0858   -1.6117   22.6887 N   0  0  0  0  0  0  0  0  0  0  0  0
   11.0283   -1.5271   21.5767 C   0  0  0  0  0  0  0  0  0  0  0  0
   11.9802   -0.4016   21.8011 C   0  0  0  0  0  0  0  0  0  0  0  0
   13.2060   -0.3084   22.3766 C   0  0  0  0  0  0  0  0  0  0  0  0
   13.4907    1.0978   22.4585 C   0  0  0  0  0  0  0  0  0  0  0  0
   12.4212    1.7329   21.9219 C   0  0  0  0  0  0  0  0  0  0  0  0
   11.4974    0.8329   21.5079 O   0  0  0  0  0  0  0  0  0  0  0  0
   12.1681    2.7700   21.7539 H   0  0  0  0  0  0  0  0  0  0  0  0
   14.3548    1.5641   22.9095 H   0  0  0  0  0  0  0  0  0  0  0  0
   13.8359   -1.1299   22.7016 H   0  0  0  0  0  0  0  0  0  0  0  0
   11.5482   -2.4806   21.5369 H   0  0  0  0  0  0  0  0  0  0  0  0
   10.4625   -1.3647   20.6565 H   0  0  0  0  0  0  0  0  0  0  0  0
    7.9174   -1.5525   20.6076 H   0  0  0  0  0  0  0  0  0  0  0  0
    6.5204   -1.1975   21.6448 H   0  0  0  0  0  0  0  0  0  0  0  0
    5.3967    0.6679   20.0928 C   0  0  0  0  0  0  0  0  0  0  0  0
    4.9396    0.6570   21.0851 H   0  0  0  0  0  0  0  0  0  0  0  0
    8.0744   -0.4522   18.3323 H   0  0  0  0  0  0  0  0  0  0  0  0
    4.9536    1.8523   16.9394 H   0  0  0  0  0  0  0  0  0  0  0  0
    3.8564    1.8742   19.1714 H   0  0  0  0  0  0  0  0  0  0  0  0
  1  2  2  0
  2  3  1  0
  3  4  2  0
  4  5  1  0
  5  6  1  0
  6  7  1  0
  7  8  1  0
  8  9  2  0
  9 10  1  0
 10 11  2  0
 11 12  1  0
 12 13  1  0
 13 14  1  0
 14 15  2  0
 15 16  1  0
 16 17  2  0
 17 18  1  0
 17 19  1  0
 16 20  1  0
 15 21  1  0
 13 22  1  0
 13 23  1  0
  6 24  1  0
  6 25  1  0
  5 26  2  0
 26 27  1  0
  4 28  1  0
  2 29  1  0
  1 30  1  0
 26  1  1  0
 12  8  1  0
 18 14  1  0
M  END
>  <cnnaffinity>  (1) 
5.29116

>  <plip>  (1) 
-0.07142857142857142

>  <filename>  (1) 
[H][c]1[n][c]([H])[c]([C]([H])([H])[S][c]2[n][n][n][n]2[C]([H])([H])[c]2[o][c]([H])[c]([H])[c]2[H])[c]([H])[c]1[H]

>  <combo1>  (1) 
-0.4609232367801962

$$$$
