
     RDKit          3D

 26 28  0  0  0  0  0  0  0  0999 V2000
    9.6834    0.1226   20.5993 C   0  0  0  0  0  0  0  0  0  0  0  0
    8.6351   -0.6228   21.2478 N   0  0  0  0  0  0  0  0  0  0  0  0
    8.9316   -1.4058   22.2908 N   0  0  0  0  0  0  0  0  0  0  0  0
    7.7508   -1.9114   22.6231 C   0  0  0  0  0  0  0  0  0  0  0  0
    7.5360   -2.8301   23.7548 C   0  0  0  0  0  0  0  0  0  0  0  0
    8.4659   -3.2747   24.5631 N   0  0  0  0  0  0  0  0  0  0  0  0
    7.8759   -4.0973   25.4744 N   0  0  0  0  0  0  0  0  0  0  0  0
    6.5971   -4.1445   25.2123 C   0  0  0  0  0  0  0  0  0  0  0  0
    6.3212   -3.3665   24.1332 N   0  0  0  0  0  0  0  0  0  0  0  0
    5.4246   -3.1927   23.7093 H   0  0  0  0  0  0  0  0  0  0  0  0
    5.8681   -4.7203   25.7696 H   0  0  0  0  0  0  0  0  0  0  0  0
    6.7260   -1.4984   21.8306 N   0  0  0  0  0  0  0  0  0  0  0  0
    7.3138   -0.7005   20.9626 C   0  0  0  0  0  0  0  0  0  0  0  0
    6.6425    0.0247   19.8934 C   0  0  0  0  0  0  0  0  0  0  0  0
    5.4218    0.6599   20.1530 C   0  0  0  0  0  0  0  0  0  0  0  0
    4.8013    1.3204   19.0983 C   0  0  0  0  0  0  0  0  0  0  0  0
    5.4024    1.2966   17.8348 C   0  0  0  0  0  0  0  0  0  0  0  0
    6.5636    0.6767   17.5743 N   0  0  0  0  0  0  0  0  0  0  0  0
    7.1668    0.0649   18.5953 C   0  0  0  0  0  0  0  0  0  0  0  0
    8.1105   -0.4298   18.3666 H   0  0  0  0  0  0  0  0  0  0  0  0
    4.9226    1.7826   16.9915 H   0  0  0  0  0  0  0  0  0  0  0  0
    3.8698    1.8486   19.2506 H   0  0  0  0  0  0  0  0  0  0  0  0
    4.9975    0.6257   21.1626 H   0  0  0  0  0  0  0  0  0  0  0  0
    9.2864    1.0726   20.2457 H   0  0  0  0  0  0  0  0  0  0  0  0
   10.0678   -0.4653   19.7658 H   0  0  0  0  0  0  0  0  0  0  0  0
   10.4782    0.3054   21.3214 H   0  0  0  0  0  0  0  0  0  0  0  0
  1  2  1  0
  2  3  1  0
  3  4  2  0
  4  5  1  0
  5  6  2  0
  6  7  1  0
  7  8  2  0
  8  9  1  0
  9 10  1  0
  8 11  1  0
  4 12  1  0
 12 13  2  0
 13 14  1  0
 14 15  2  0
 15 16  1  0
 16 17  2  0
 17 18  1  0
 18 19  2  0
 19 20  1  0
 17 21  1  0
 16 22  1  0
 15 23  1  0
  1 24  1  0
  1 25  1  0
  1 26  1  0
 13  2  1  0
 19 14  1  0
  9  5  1  0
M  END
>  <cnnaffinity>  (1) 
4.59224

>  <plip>  (1) 
-0.07142857142857142

>  <filename>  (1) 
[H][c]1[n][c]([H])[c](-[c]2[n][c](-[c]3[n][n][c]([H])[n]3[H])[n][n]2[C]([H])([H])[H])[c]([H])[c]1[H]

>  <combo1>  (1) 
-0.4811801542001206

$$$$
