
     RDKit          3D

 23 24  0  0  0  0  0  0  0  0999 V2000
    9.1848   -1.0539   20.5515 H   0  0  0  0  0  0  0  0  0  0  0  0
    8.3561   -1.5663   20.5783 O   0  0  0  0  0  0  0  0  0  0  0  0
    7.3428   -0.6857   20.9354 N   0  0  0  0  0  0  0  0  0  0  0  0
    6.6757   -0.0108   19.9182 C   0  0  0  0  0  0  0  0  0  0  0  0
    7.1840    0.0531   18.5944 C   0  0  0  0  0  0  0  0  0  0  0  0
    8.1260   -0.4353   18.3674 H   0  0  0  0  0  0  0  0  0  0  0  0
    6.5725    0.6780   17.5807 N   0  0  0  0  0  0  0  0  0  0  0  0
    5.4042    1.2905   17.8434 C   0  0  0  0  0  0  0  0  0  0  0  0
    4.9114    1.7764   17.0014 H   0  0  0  0  0  0  0  0  0  0  0  0
    4.8132    1.3035   19.1143 C   0  0  0  0  0  0  0  0  0  0  0  0
    3.8777    1.8394   19.2663 H   0  0  0  0  0  0  0  0  0  0  0  0
    5.4509    0.6447   20.1712 C   0  0  0  0  0  0  0  0  0  0  0  0
    5.0147    0.6355   21.1716 H   0  0  0  0  0  0  0  0  0  0  0  0
    7.1100   -0.4624   22.3491 C   0  0  0  0  0  0  0  0  0  0  0  0
    6.0790   -0.7287   22.5873 H   0  0  0  0  0  0  0  0  0  0  0  0
    7.7698   -1.1281   22.9094 H   0  0  0  0  0  0  0  0  0  0  0  0
    7.3546    0.9146   22.7549 N   0  0  0  0  0  0  0  0  0  0  0  0
    6.4252    1.7063   23.3416 N   0  0  0  0  0  0  0  0  0  0  0  0
    7.0821    2.8431   23.4945 C   0  0  0  0  0  0  0  0  0  0  0  0
    6.6285    3.7041   23.9630 H   0  0  0  0  0  0  0  0  0  0  0  0
    8.3638    2.8328   23.0384 N   0  0  0  0  0  0  0  0  0  0  0  0
    8.4917    1.6140   22.5654 C   0  0  0  0  0  0  0  0  0  0  0  0
    9.3846    1.2005   22.1084 H   0  0  0  0  0  0  0  0  0  0  0  0
  1  2  1  0
  2  3  1  0
  3  4  1  0
  4  5  2  0
  5  6  1  0
  5  7  1  0
  7  8  2  0
  8  9  1  0
  8 10  1  0
 10 11  1  0
 10 12  2  0
 12 13  1  0
  3 14  1  0
 14 15  1  0
 14 16  1  0
 14 17  1  0
 17 18  1  0
 18 19  2  0
 19 20  1  0
 19 21  1  0
 21 22  2  0
 22 23  1  0
 12  4  1  0
 22 17  1  0
M  END
>  <cnnaffinity>  (1) 
4.10475

>  <plip>  (1) 
-0.03333333333333333

>  <filename>  (1) 
[H][O][N]([c]1[c]([H])[n][c]([H])[c]([H])[c]1[H])[C]([H])([H])[n]1[n][c]([H])[n][c]1[H]

>  <combo1>  (1) 
-0.23854479394402198

$$$$
