
     RDKit          3D

 34 34  0  0  0  0  0  0  0  0999 V2000
    8.3411    1.4520   29.6047 N   0  0  0  0  0  4  0  0  0  0  0  0
    7.8505    1.9242   28.2412 C   0  0  0  0  0  0  0  0  0  0  0  0
    7.3808    0.7587   27.3519 C   0  0  0  0  0  0  0  0  0  0  0  0
    7.1449    1.2458   26.0378 O   0  0  0  0  0  0  0  0  0  0  0  0
    8.1794    1.0878   25.0821 C   0  0  0  0  0  0  0  0  0  0  0  0
    8.0735   -0.2738   24.3752 C   0  0  0  0  0  0  0  0  0  0  0  0
    9.2947   -0.5290   23.0505 S   0  0  0  0  0  0  0  0  0  0  0  0
    8.4109    0.2278   21.6478 C   0  0  0  0  0  0  0  0  0  0  0  0
    7.4037   -0.7043   20.9504 C   0  0  0  0  0  0  0  0  0  0  0  0
    6.6362   -0.0092   19.8423 C   0  0  0  0  0  0  0  0  0  0  0  0
    5.4240    0.6532   20.0795 C   0  0  0  0  0  0  0  0  0  0  0  0
    4.8018    1.3329   19.0295 C   0  0  0  0  0  0  0  0  0  0  0  0
    5.4023    1.3329   17.7683 C   0  0  0  0  0  0  0  0  0  0  0  0
    6.5504    0.6919   17.5101 N   0  0  0  0  0  0  0  0  0  0  0  0
    7.1394    0.0459   18.5283 C   0  0  0  0  0  0  0  0  0  0  0  0
    8.0695   -0.4636   18.2785 H   0  0  0  0  0  0  0  0  0  0  0  0
    4.9472    1.8674   16.9334 H   0  0  0  0  0  0  0  0  0  0  0  0
    3.8719    1.8683   19.1714 H   0  0  0  0  0  0  0  0  0  0  0  0
    4.9666    0.6402   21.0740 H   0  0  0  0  0  0  0  0  0  0  0  0
    6.6993   -1.0898   21.7007 H   0  0  0  0  0  0  0  0  0  0  0  0
    7.9395   -1.5750   20.5514 H   0  0  0  0  0  0  0  0  0  0  0  0
    9.1808    0.5541   20.9414 H   0  0  0  0  0  0  0  0  0  0  0  0
    7.9085    1.1339   22.0087 H   0  0  0  0  0  0  0  0  0  0  0  0
    8.2030   -1.0936   25.0912 H   0  0  0  0  0  0  0  0  0  0  0  0
    7.0650   -0.3797   23.9554 H   0  0  0  0  0  0  0  0  0  0  0  0
    8.0474    1.8966   24.3517 H   0  0  0  0  0  0  0  0  0  0  0  0
    9.1799    1.2032   25.5362 H   0  0  0  0  0  0  0  0  0  0  0  0
    8.1090   -0.0783   27.3652 H   0  0  0  0  0  0  0  0  0  0  0  0
    6.4134    0.3727   27.7042 H   0  0  0  0  0  0  0  0  0  0  0  0
    7.0295    2.6389   28.3617 H   0  0  0  0  0  0  0  0  0  0  0  0
    8.6599    2.4493   27.7210 H   0  0  0  0  0  0  0  0  0  0  0  0
    7.5798    1.0855   30.2083 H   0  0  0  0  0  0  0  0  0  0  0  0
    8.8317    2.1925   30.1119 H   0  0  0  0  0  0  0  0  0  0  0  0
    9.0603    0.7138   29.4719 H   0  0  0  0  0  0  0  0  0  0  0  0
  1  2  1  0
  2  3  1  0
  3  4  1  0
  4  5  1  0
  5  6  1  0
  6  7  1  0
  7  8  1  0
  8  9  1  0
  9 10  1  0
 10 11  2  0
 11 12  1  0
 12 13  2  0
 13 14  1  0
 14 15  2  0
 15 16  1  0
 13 17  1  0
 12 18  1  0
 11 19  1  0
  9 20  1  0
  9 21  1  0
  8 22  1  0
  8 23  1  0
  6 24  1  0
  6 25  1  0
  5 26  1  0
  5 27  1  0
  3 28  1  0
  3 29  1  0
  2 30  1  0
  2 31  1  0
  1 32  1  0
  1 33  1  0
  1 34  1  0
 15 10  1  0
M  CHG  1   1   1
M  END
>  <cnnaffinity>  (1) 
3.80615

>  <plip>  (1) 
-0.06896551724137931

>  <filename>  (1) 
[H][c]1[n][c]([H])[c]([C]([H])([H])[C]([H])([H])[S][C]([H])([H])[C]([H])([H])[O][C]([H])([H])[C]([H])([H])[N+]([H])([H])[H])[c]([H])[c]1[H]

>  <combo1>  (1) 
-0.3848539546406919

$$$$
