
     RDKit          3D

 30 32  0  0  0  0  0  0  0  0999 V2000
    4.9266    1.7807   16.9932 H   0  0  0  0  0  0  0  0  0  0  0  0
    5.4025    1.2903   17.8375 C   0  0  0  0  0  0  0  0  0  0  0  0
    6.5672    0.6717   17.5854 N   0  0  0  0  0  0  0  0  0  0  0  0
    7.1748    0.0618   18.6085 C   0  0  0  0  0  0  0  0  0  0  0  0
    8.1238   -0.4206   18.3832 H   0  0  0  0  0  0  0  0  0  0  0  0
    6.6483    0.0079   19.9106 C   0  0  0  0  0  0  0  0  0  0  0  0
    7.4003   -0.7052   20.9362 C   0  0  0  0  0  0  0  0  0  0  0  0
    8.6653   -1.0499   20.8627 N   0  0  0  0  0  0  0  0  0  0  0  0
    8.9600   -1.6795   22.0274 C   0  0  0  0  0  0  0  0  0  0  0  0
    9.9528   -2.0604   22.2323 H   0  0  0  0  0  0  0  0  0  0  0  0
    7.8626   -1.7526   22.8405 C   0  0  0  0  0  0  0  0  0  0  0  0
    7.7346   -2.3630   24.1601 C   0  0  0  0  0  0  0  0  0  0  0  0
    8.8419   -2.9688   24.6263 N   0  0  0  0  0  0  0  0  0  0  0  0
    8.7642   -3.5680   25.8129 C   0  0  0  0  0  0  0  0  0  0  0  0
    9.9906   -4.2474   26.3391 C   0  0  0  0  0  0  0  0  0  0  0  0
    9.8235   -5.3099   26.5346 H   0  0  0  0  0  0  0  0  0  0  0  0
   10.8522   -4.1304   25.6746 H   0  0  0  0  0  0  0  0  0  0  0  0
   10.1664   -3.8158   27.3220 H   0  0  0  0  0  0  0  0  0  0  0  0
    7.6058   -3.5484   26.6109 C   0  0  0  0  0  0  0  0  0  0  0  0
    7.6295   -4.0314   27.5803 H   0  0  0  0  0  0  0  0  0  0  0  0
    6.4581   -2.9259   26.1341 C   0  0  0  0  0  0  0  0  0  0  0  0
    5.5324   -2.9085   26.7141 H   0  0  0  0  0  0  0  0  0  0  0  0
    6.5301   -2.3251   24.8782 C   0  0  0  0  0  0  0  0  0  0  0  0
    5.6705   -1.8259   24.4551 H   0  0  0  0  0  0  0  0  0  0  0  0
    6.8619   -1.1066   22.1185 N   0  0  0  0  0  0  0  0  0  0  0  0
    5.8903   -0.9954   22.3497 H   0  0  0  0  0  0  0  0  0  0  0  0
    5.4241    0.6562   20.1568 C   0  0  0  0  0  0  0  0  0  0  0  0
    4.9827    0.6607   21.1582 H   0  0  0  0  0  0  0  0  0  0  0  0
    4.8008    1.3135   19.1010 C   0  0  0  0  0  0  0  0  0  0  0  0
    3.8703    1.8455   19.2532 H   0  0  0  0  0  0  0  0  0  0  0  0
  1  2  1  0
  2  3  2  0
  3  4  1  0
  4  5  1  0
  4  6  2  0
  6  7  1  0
  7  8  2  0
  8  9  1  0
  9 10  1  0
  9 11  2  0
 11 12  1  0
 12 13  2  0
 13 14  1  0
 14 15  1  0
 15 16  1  0
 15 17  1  0
 15 18  1  0
 14 19  2  0
 19 20  1  0
 19 21  1  0
 21 22  1  0
 21 23  2  0
 23 24  1  0
 11 25  1  0
 25 26  1  0
  6 27  1  0
 27 28  1  0
 27 29  2  0
 29 30  1  0
 29  2  1  0
 25  7  1  0
 23 12  1  0
M  END
>  <cnnaffinity>  (1) 
5.07029

>  <plip>  (1) 
-0.07142857142857142

>  <filename>  (1) 
[H][c]1[n][c]([H])[c](-[c]2[n][c]([H])[c](-[c]3[n][c]([C]([H])([H])[H])[c]([H])[c]([H])[c]3[H])[n]2[H])[c]([H])[c]1[H]

>  <combo1>  (1) 
-0.5109286115346772

$$$$
