
     RDKit          3D

 41 44  0  0  0  0  0  0  0  0999 V2000
    9.6141   -0.6059   27.4855 C   0  0  0  0  0  0  0  0  0  0  0  0
    8.5955   -0.7010   26.5127 O   0  0  0  0  0  0  0  0  0  0  0  0
    7.9936    0.4307   26.0480 C   0  0  0  0  0  0  0  0  0  0  0  0
    8.5664    1.7080   26.1451 C   0  0  0  0  0  0  0  0  0  0  0  0
    7.8769    2.8401   25.7012 C   0  0  0  0  0  0  0  0  0  0  0  0
    6.6031    2.7140   25.1541 C   0  0  0  0  0  0  0  0  0  0  0  0
    6.0691    1.4316   24.9788 C   0  0  0  0  0  0  0  0  0  0  0  0
    6.7625    0.2843   25.3760 C   0  0  0  0  0  0  0  0  0  0  0  0
    6.2022   -1.3212   24.7777 S   0  0  0  0  0  0  0  0  0  0  0  0
    7.0682   -1.2359   23.2157 C   0  0  0  0  0  0  0  0  0  0  0  0
    6.4084   -0.6995   22.1897 N   0  0  0  0  0  0  0  0  0  0  0  0
    7.0814   -0.5118   21.0552 C   0  0  0  0  0  0  0  0  0  0  0  0
    6.3811    0.1341   19.9338 C   0  0  0  0  0  0  0  0  0  0  0  0
    5.1455    0.7976   20.0203 C   0  0  0  0  0  0  0  0  0  0  0  0
    4.6669    1.4122   18.8667 C   0  0  0  0  0  0  0  0  0  0  0  0
    5.4070    1.3243   17.6805 C   0  0  0  0  0  0  0  0  0  0  0  0
    6.5636    0.6576   17.5788 N   0  0  0  0  0  0  0  0  0  0  0  0
    7.0269    0.0868   18.6890 C   0  0  0  0  0  0  0  0  0  0  0  0
    7.9672   -0.4472   18.6089 H   0  0  0  0  0  0  0  0  0  0  0  0
    5.0585    1.8105   16.7745 H   0  0  0  0  0  0  0  0  0  0  0  0
    3.7388    1.9723   18.8682 H   0  0  0  0  0  0  0  0  0  0  0  0
    4.5761    0.8312   20.9552 H   0  0  0  0  0  0  0  0  0  0  0  0
    8.3472   -0.8804   20.8424 N   0  0  0  0  0  0  0  0  0  0  0  0
    8.9625   -1.4504   21.8632 C   0  0  0  0  0  0  0  0  0  0  0  0
    8.3997   -1.6257   23.1239 C   0  0  0  0  0  0  0  0  0  0  0  0
    9.4349   -2.2131   24.0566 C   0  0  0  0  0  0  0  0  0  0  0  0
   10.3807   -2.9195   23.0673 C   0  0  0  0  0  0  0  0  0  0  0  0
   10.3425   -2.0238   21.8120 C   0  0  0  0  0  0  0  0  0  0  0  0
   11.0971   -1.2313   21.8684 H   0  0  0  0  0  0  0  0  0  0  0  0
   10.4769   -2.5271   20.8578 H   0  0  0  0  0  0  0  0  0  0  0  0
   11.3872   -3.0793   23.4597 H   0  0  0  0  0  0  0  0  0  0  0  0
    9.9653   -3.9068   22.8489 H   0  0  0  0  0  0  0  0  0  0  0  0
    9.0310   -2.8613   24.8385 H   0  0  0  0  0  0  0  0  0  0  0  0
    9.9748   -1.3978   24.5559 H   0  0  0  0  0  0  0  0  0  0  0  0
    5.1369    1.2971   24.4383 H   0  0  0  0  0  0  0  0  0  0  0  0
    6.0449    3.5953   24.8416 H   0  0  0  0  0  0  0  0  0  0  0  0
    8.3488    3.8167   25.7908 H   0  0  0  0  0  0  0  0  0  0  0  0
    9.5577    1.7905   26.5629 H   0  0  0  0  0  0  0  0  0  0  0  0
    9.2420   -0.1050   28.3880 H   0  0  0  0  0  0  0  0  0  0  0  0
    9.8776   -1.6349   27.7233 H   0  0  0  0  0  0  0  0  0  0  0  0
   10.5026   -0.0826   27.1019 H   0  0  0  0  0  0  0  0  0  0  0  0
  1  2  1  0
  2  3  1  0
  3  4  2  0
  4  5  1  0
  5  6  2  0
  6  7  1  0
  7  8  2  0
  8  9  1  0
  9 10  1  0
 10 11  2  0
 11 12  1  0
 12 13  1  0
 13 14  2  0
 14 15  1  0
 15 16  2  0
 16 17  1  0
 17 18  2  0
 18 19  1  0
 16 20  1  0
 15 21  1  0
 14 22  1  0
 12 23  2  0
 23 24  1  0
 24 25  2  0
 25 26  1  0
 26 27  1  0
 27 28  1  0
 28 29  1  0
 28 30  1  0
 27 31  1  0
 27 32  1  0
 26 33  1  0
 26 34  1  0
  7 35  1  0
  6 36  1  0
  5 37  1  0
  4 38  1  0
  1 39  1  0
  1 40  1  0
  1 41  1  0
  8  3  1  0
 25 10  1  0
 18 13  1  0
 28 24  1  0
M  END
>  <cnnaffinity>  (1) 
5.51974

>  <plip>  (1) 
-0.03571428571428571

>  <filename>  (1) 
[H][c]1[n][c]([H])[c](-[c]2[n][c]([S][c]3[c]([H])[c]([H])[c]([H])[c]([H])[c]3[O][C]([H])([H])[H])[c]3[c]([n]2)[C]([H])([H])[C]([H])([H])[C]3([H])[H])[c]([H])[c]1[H]

>  <combo1>  (1) 
-0.19590018387092017

$$$$
