
     RDKit          3D

 34 37  0  0  0  0  0  0  0  0999 V2000
    4.9032    1.8731   17.0764 H   0  0  0  0  0  0  0  0  0  0  0  0
    5.4077    1.2886   17.8424 C   0  0  0  0  0  0  0  0  0  0  0  0
    6.5419    0.6749   17.4690 N   0  0  0  0  0  0  0  0  0  0  0  0
    7.2087   -0.0229   18.3945 C   0  0  0  0  0  0  0  0  0  0  0  0
    8.1421   -0.4866   18.0836 H   0  0  0  0  0  0  0  0  0  0  0  0
    6.7586   -0.1603   19.7273 C   0  0  0  0  0  0  0  0  0  0  0  0
    7.4994   -0.8677   20.7370 N   0  0  0  0  0  0  0  0  0  0  0  0
    8.8055   -0.5603   21.1218 C   0  0  0  0  0  0  0  0  0  0  0  0
    9.5720    0.1420   20.5206 O   0  0  0  0  0  0  0  0  0  0  0  0
    9.0111   -1.2983   22.4636 C   0  0  0  0  0  0  0  0  0  0  0  0
    9.9736   -1.3440   23.1699 O   0  0  0  0  0  0  0  0  0  0  0  0
    7.7752   -1.8655   22.7224 N   0  0  0  0  0  0  0  0  0  0  0  0
    7.5403   -2.8339   23.7000 C   0  0  0  0  0  0  0  0  0  0  0  0
    8.4954   -3.6974   23.8209 N   0  0  0  0  0  0  0  0  0  0  0  0
    8.3919   -4.5741   24.8566 C   0  0  0  0  0  0  0  0  0  0  0  0
    9.4893   -5.4472   25.0544 C   0  0  0  0  0  0  0  0  0  0  0  0
   10.3115   -5.3401   24.3551 H   0  0  0  0  0  0  0  0  0  0  0  0
    9.4817   -6.3238   26.1110 C   0  0  0  0  0  0  0  0  0  0  0  0
   10.3313   -6.9813   26.2713 H   0  0  0  0  0  0  0  0  0  0  0  0
    8.3735   -6.3613   27.0046 C   0  0  0  0  0  0  0  0  0  0  0  0
    8.3748   -7.0546   27.8381 H   0  0  0  0  0  0  0  0  0  0  0  0
    7.2908   -5.5316   26.8287 C   0  0  0  0  0  0  0  0  0  0  0  0
    6.4472   -5.5575   27.5120 H   0  0  0  0  0  0  0  0  0  0  0  0
    7.2709   -4.6115   25.7486 C   0  0  0  0  0  0  0  0  0  0  0  0
    6.2048   -3.6919   25.4956 C   0  0  0  0  0  0  0  0  0  0  0  0
    5.3140   -3.7147   26.1249 H   0  0  0  0  0  0  0  0  0  0  0  0
    6.3335   -2.8089   24.4486 C   0  0  0  0  0  0  0  0  0  0  0  0
    5.5671   -2.1110   24.1497 H   0  0  0  0  0  0  0  0  0  0  0  0
    6.9055   -1.7087   21.6772 C   0  0  0  0  0  0  0  0  0  0  0  0
    5.8208   -2.2197   21.6073 O   0  0  0  0  0  0  0  0  0  0  0  0
    5.5544    0.4431   20.0915 C   0  0  0  0  0  0  0  0  0  0  0  0
    5.1785    0.3045   21.1044 H   0  0  0  0  0  0  0  0  0  0  0  0
    4.8777    1.1998   19.1333 C   0  0  0  0  0  0  0  0  0  0  0  0
    3.9593    1.7191   19.3756 H   0  0  0  0  0  0  0  0  0  0  0  0
  1  2  1  0
  2  3  2  0
  3  4  1  0
  4  5  1  0
  4  6  2  0
  6  7  1  0
  7  8  1  0
  8  9  2  0
  8 10  1  0
 10 11  2  0
 10 12  1  0
 12 13  1  0
 13 14  2  0
 14 15  1  0
 15 16  2  0
 16 17  1  0
 16 18  1  0
 18 19  1  0
 18 20  2  0
 20 21  1  0
 20 22  1  0
 22 23  1  0
 22 24  2  0
 24 25  1  0
 25 26  1  0
 25 27  2  0
 27 28  1  0
 12 29  1  0
 29 30  2  0
  6 31  1  0
 31 32  1  0
 31 33  2  0
 33 34  1  0
 33  2  1  0
 29  7  1  0
 27 13  1  0
 24 15  1  0
M  END
>  <cnnaffinity>  (1) 
4.91186

>  <plip>  (1) 
-0.14285714285714285

>  <filename>  (1) 
[H][c]1[n][c]([H])[c]([N]2[C](=[O])[C](=[O])[N]([c]3[n][c]4[c]([H])[c]([H])[c]([H])[c]([H])[c]4[c]([H])[c]3[H])[C]2=[O])[c]([H])[c]1[H]

>  <combo1>  (1) 
-0.7348538299363326

$$$$
