
     RDKit          3D

 37 39  0  0  0  0  0  0  0  0999 V2000
    4.9163    1.8173   16.9693 H   0  0  0  0  0  0  0  0  0  0  0  0
    5.3910    1.3081   17.8045 C   0  0  0  0  0  0  0  0  0  0  0  0
    6.5506    0.6891   17.5379 N   0  0  0  0  0  0  0  0  0  0  0  0
    7.1606    0.0690   18.5564 C   0  0  0  0  0  0  0  0  0  0  0  0
    8.1102   -0.4140   18.3195 H   0  0  0  0  0  0  0  0  0  0  0  0
    6.6642    0.0124   19.8694 C   0  0  0  0  0  0  0  0  0  0  0  0
    7.4172   -0.7182   20.9659 C   0  0  2  0  0  0  0  0  0  0  0  0
    8.3472   -1.1278   20.5396 H   0  0  0  0  0  0  0  0  0  0  0  0
    6.6055   -1.9143   21.5048 C   0  0  0  0  0  0  0  0  0  0  0  0
    5.6429   -1.5423   21.8691 H   0  0  0  0  0  0  0  0  0  0  0  0
    6.3676   -2.6001   20.6826 H   0  0  0  0  0  0  0  0  0  0  0  0
    7.3435   -2.6534   22.6253 C   0  0  0  0  0  0  0  0  0  0  0  0
    6.7167   -3.4649   23.0176 H   0  0  0  0  0  0  0  0  0  0  0  0
    8.2424   -3.1328   22.2126 H   0  0  0  0  0  0  0  0  0  0  0  0
    7.7750   -1.7064   23.7667 C   0  0  1  0  0  0  0  0  0  0  0  0
    6.8637   -1.2967   24.2373 H   0  0  0  0  0  0  0  0  0  0  0  0
    8.5450   -2.4303   24.8924 C   0  0  2  0  0  0  0  0  0  0  0  0
    8.9010   -1.6522   25.5850 H   0  0  0  0  0  0  0  0  0  0  0  0
    9.7225   -3.1805   24.4490 N   0  0  0  0  0  0  0  0  0  0  0  0
    9.5535   -4.3569   24.8851 C   0  0  0  0  0  0  0  0  0  0  0  0
   10.4792   -5.3395   24.7825 N   0  0  0  0  0  0  0  0  0  0  0  0
   11.0394   -5.0979   23.9838 H   0  0  0  0  0  0  0  0  0  0  0  0
   10.0205   -6.2245   24.7399 H   0  0  0  0  0  0  0  0  0  0  0  0
    8.4098   -4.7168   25.4832 O   0  0  0  0  0  0  0  0  0  0  0  0
    7.7009   -3.4741   25.6735 C   0  0  0  0  0  0  0  0  0  0  0  0
    7.6763   -3.2534   26.7449 H   0  0  0  0  0  0  0  0  0  0  0  0
    6.6746   -3.5949   25.3064 H   0  0  0  0  0  0  0  0  0  0  0  0
    8.5878   -0.5144   23.2171 C   0  0  0  0  0  0  0  0  0  0  0  0
    8.8309    0.1787   24.0341 H   0  0  0  0  0  0  0  0  0  0  0  0
    9.5487   -0.8883   22.8321 H   0  0  0  0  0  0  0  0  0  0  0  0
    7.8338    0.2324   22.1102 C   0  0  0  0  0  0  0  0  0  0  0  0
    8.4497    1.0465   21.7073 H   0  0  0  0  0  0  0  0  0  0  0  0
    6.9358    0.7076   22.5341 H   0  0  0  0  0  0  0  0  0  0  0  0
    5.4430    0.6600   20.1170 C   0  0  0  0  0  0  0  0  0  0  0  0
    5.0044    0.6561   21.1183 H   0  0  0  0  0  0  0  0  0  0  0  0
    4.7974    1.3192   19.0707 C   0  0  0  0  0  0  0  0  0  0  0  0
    3.8628    1.8482   19.2265 H   0  0  0  0  0  0  0  0  0  0  0  0
  1  2  1  0
  2  3  2  0
  3  4  1  0
  4  5  1  0
  4  6  2  0
  6  7  1  0
  7  8  1  6
  7  9  1  0
  9 10  1  0
  9 11  1  0
  9 12  1  0
 12 13  1  0
 12 14  1  0
 12 15  1  0
 15 16  1  1
 15 17  1  0
 17 18  1  1
 17 19  1  0
 19 20  2  0
 20 21  1  0
 21 22  1  0
 21 23  1  0
 20 24  1  0
 24 25  1  0
 25 26  1  0
 25 27  1  0
 15 28  1  0
 28 29  1  0
 28 30  1  0
 28 31  1  0
 31 32  1  0
 31 33  1  0
  6 34  1  0
 34 35  1  0
 34 36  2  0
 36 37  1  0
 36  2  1  0
 31  7  1  0
 25 17  1  0
M  END
>  <cnnaffinity>  (1) 
5.01453

>  <plip>  (1) 
-0.07142857142857142

>  <filename>  (1) 
[H][c]1[n][c]([H])[c]([C@]2([H])[C]([H])([H])[C]([H])([H])[C@@]([H])([C@]3([H])[N]=[C]([N]([H])[H])[O][C]3([H])[H])[C]([H])([H])[C]2([H])[H])[c]([H])[c]1[H]

>  <combo1>  (1) 
-0.4866731264870882

$$$$
