
     RDKit          3D

 39 42  0  0  0  0  0  0  0  0999 V2000
    4.9140    1.7867   16.9877 H   0  0  0  0  0  0  0  0  0  0  0  0
    5.3933    1.2978   17.8318 C   0  0  0  0  0  0  0  0  0  0  0  0
    6.5546    0.6756   17.5739 N   0  0  0  0  0  0  0  0  0  0  0  0
    7.1621    0.0568   18.5890 C   0  0  0  0  0  0  0  0  0  0  0  0
    8.1170   -0.4180   18.3871 H   0  0  0  0  0  0  0  0  0  0  0  0
    6.6362   -0.0033   19.8925 C   0  0  0  0  0  0  0  0  0  0  0  0
    7.3528   -0.6785   20.9055 N   0  0  0  0  0  0  0  0  0  0  0  0
    8.7519   -0.6463   21.1415 C   0  0  0  0  0  0  0  0  0  0  0  0
    9.5693   -0.0410   20.4693 O   0  0  0  0  0  0  0  0  0  0  0  0
    8.9134   -1.4699   22.3083 C   0  0  0  0  0  0  0  0  0  0  0  0
    9.8744   -1.6788   22.7243 H   0  0  0  0  0  0  0  0  0  0  0  0
    7.6989   -1.9213   22.7231 C   0  0  0  0  0  0  0  0  0  0  0  0
    7.3792   -2.7924   23.8732 C   0  0  0  0  0  0  0  0  0  0  0  0
    8.3078   -2.9004   24.9239 C   0  0  0  0  0  0  0  0  0  0  0  0
    9.2342   -2.3318   24.8799 H   0  0  0  0  0  0  0  0  0  0  0  0
    8.0426   -3.7182   26.0200 C   0  0  0  0  0  0  0  0  0  0  0  0
    8.7699   -3.7982   26.8219 H   0  0  0  0  0  0  0  0  0  0  0  0
    6.8490   -4.4404   26.0737 C   0  0  0  0  0  0  0  0  0  0  0  0
    6.6362   -5.0649   26.9346 H   0  0  0  0  0  0  0  0  0  0  0  0
    5.9027   -4.3541   25.0354 C   0  0  0  0  0  0  0  0  0  0  0  0
    4.6250   -5.1193   25.0934 C   0  0  0  0  0  0  0  0  0  0  0  0
    4.6100   -6.4462   25.5567 C   0  0  0  0  0  0  0  0  0  0  0  0
    5.5449   -6.9108   25.8635 H   0  0  0  0  0  0  0  0  0  0  0  0
    3.4168   -7.1686   25.6123 C   0  0  0  0  0  0  0  0  0  0  0  0
    3.4252   -8.1898   25.9856 H   0  0  0  0  0  0  0  0  0  0  0  0
    2.2175   -6.5699   25.2087 C   0  0  0  0  0  0  0  0  0  0  0  0
    1.2877   -7.1300   25.2569 H   0  0  0  0  0  0  0  0  0  0  0  0
    2.2175   -5.2480   24.7458 C   0  0  0  0  0  0  0  0  0  0  0  0
    1.2908   -4.7782   24.4259 H   0  0  0  0  0  0  0  0  0  0  0  0
    3.4142   -4.5304   24.6842 C   0  0  0  0  0  0  0  0  0  0  0  0
    3.4185   -3.4982   24.3371 H   0  0  0  0  0  0  0  0  0  0  0  0
    6.1840   -3.5262   23.9391 C   0  0  0  0  0  0  0  0  0  0  0  0
    5.4732   -3.4742   23.1145 H   0  0  0  0  0  0  0  0  0  0  0  0
    6.7490   -1.4391   21.8835 N   0  0  0  0  0  0  0  0  0  0  0  0
    5.7455   -1.5575   21.9314 H   0  0  0  0  0  0  0  0  0  0  0  0
    5.4244    0.6509   20.1578 C   0  0  0  0  0  0  0  0  0  0  0  0
    5.0139    0.6385   21.1717 H   0  0  0  0  0  0  0  0  0  0  0  0
    4.8000    1.3179   19.1012 C   0  0  0  0  0  0  0  0  0  0  0  0
    3.8671    1.8496   19.2567 H   0  0  0  0  0  0  0  0  0  0  0  0
  1  2  1  0
  2  3  2  0
  3  4  1  0
  4  5  1  0
  4  6  2  0
  6  7  1  0
  7  8  1  0
  8  9  2  0
  8 10  1  0
 10 11  1  0
 10 12  2  0
 12 13  1  0
 13 14  2  0
 14 15  1  0
 14 16  1  0
 16 17  1  0
 16 18  2  0
 18 19  1  0
 18 20  1  0
 20 21  1  0
 21 22  2  0
 22 23  1  0
 22 24  1  0
 24 25  1  0
 24 26  2  0
 26 27  1  0
 26 28  1  0
 28 29  1  0
 28 30  2  0
 30 31  1  0
 20 32  2  0
 32 33  1  0
 12 34  1  0
 34 35  1  0
  6 36  1  0
 36 37  1  0
 36 38  2  0
 38 39  1  0
 38  2  1  0
 34  7  1  0
 32 13  1  0
 30 21  1  0
M  END
>  <cnnaffinity>  (1) 
5.46641

>  <plip>  (1) 
-0.13793103448275862

>  <filename>  (1) 
[H][c]1[n][c]([H])[c](-[n]2[c](=[O])[c]([H])[c](-[c]3[c]([H])[c]([H])[c]([H])[c](-[c]4[c]([H])[c]([H])[c]([H])[c]([H])[c]4[H])[c]3[H])[n]2[H])[c]([H])[c]1[H]

>  <combo1>  (1) 
-0.8020461941610251

$$$$
