
     RDKit          3D

 32 35  0  0  0  0  0  0  0  0999 V2000
    4.8617    1.2891   19.1087 C   0  0  0  0  0  0  0  0  0  0  0  0
    5.4621    1.2605   17.8465 C   0  0  0  0  0  0  0  0  0  0  0  0
    6.6224    0.6283   17.6004 N   0  0  0  0  0  0  0  0  0  0  0  0
    7.2317    0.0178   18.6196 C   0  0  0  0  0  0  0  0  0  0  0  0
    6.7073   -0.0037   19.9186 C   0  0  0  0  0  0  0  0  0  0  0  0
    7.4072   -0.6994   20.9327 N   0  0  0  0  0  0  0  0  0  0  0  0
    6.8680   -1.2029   22.0609 C   0  0  0  0  0  0  0  0  0  0  0  0
    7.8767   -1.7903   22.7903 C   0  0  0  0  0  0  0  0  0  0  0  0
    7.8096   -2.4575   24.0912 C   0  0  0  0  0  0  0  0  0  0  0  0
    6.5916   -2.5371   24.7943 C   0  0  0  0  0  0  0  0  0  0  0  0
    6.5353   -3.2201   26.0195 C   0  0  0  0  0  0  0  0  0  0  0  0
    7.7102   -3.8034   26.4796 C   0  0  0  0  0  0  0  0  0  0  0  0
    8.0808   -4.7032   27.6359 C   0  0  0  0  0  0  0  0  0  0  0  0
    9.6181   -4.8430   27.4315 C   0  0  0  0  0  0  0  0  0  0  0  0
    9.9687   -4.1742   26.2133 O   0  0  0  0  0  0  0  0  0  0  0  0
    8.8672   -3.6054   25.6918 C   0  0  0  0  0  0  0  0  0  0  0  0
    8.9587   -2.9802   24.5474 N   0  0  0  0  0  0  0  0  0  0  0  0
   10.2156   -4.4189   28.2452 H   0  0  0  0  0  0  0  0  0  0  0  0
    9.9376   -5.8733   27.3040 H   0  0  0  0  0  0  0  0  0  0  0  0
    7.8221   -4.2914   28.6124 H   0  0  0  0  0  0  0  0  0  0  0  0
    7.5930   -5.6873   27.5968 H   0  0  0  0  0  0  0  0  0  0  0  0
    5.5870   -3.2907   26.5635 H   0  0  0  0  0  0  0  0  0  0  0  0
    5.7029   -2.0796   24.3772 H   0  0  0  0  0  0  0  0  0  0  0  0
    9.0199   -1.6041   21.9742 C   0  0  0  0  0  0  0  0  0  0  0  0
    8.7291   -0.9585   20.8592 N   0  0  0  0  0  0  0  0  0  0  0  0
   10.0343   -1.9309   22.1684 H   0  0  0  0  0  0  0  0  0  0  0  0
    5.8091   -1.1233   22.2165 H   0  0  0  0  0  0  0  0  0  0  0  0
    5.4911    0.6498   20.1754 C   0  0  0  0  0  0  0  0  0  0  0  0
    5.0634    0.6897   21.1795 H   0  0  0  0  0  0  0  0  0  0  0  0
    8.1768   -0.4840   18.4209 H   0  0  0  0  0  0  0  0  0  0  0  0
    4.9978    1.7654   17.0031 H   0  0  0  0  0  0  0  0  0  0  0  0
    3.9229    1.8121   19.2518 H   0  0  0  0  0  0  0  0  0  0  0  0
  1  2  2  0
  2  3  1  0
  3  4  2  0
  4  5  1  0
  5  6  1  0
  6  7  1  0
  7  8  2  0
  8  9  1  0
  9 10  2  0
 10 11  1  0
 11 12  2  0
 12 13  1  0
 13 14  1  0
 14 15  1  0
 15 16  1  0
 16 17  2  0
 14 18  1  0
 14 19  1  0
 13 20  1  0
 13 21  1  0
 11 22  1  0
 10 23  1  0
  8 24  1  0
 24 25  2  0
 24 26  1  0
  7 27  1  0
  5 28  2  0
 28 29  1  0
  4 30  1  0
  2 31  1  0
  1 32  1  0
 28  1  1  0
 25  6  1  0
 17  9  1  0
 16 12  1  0
M  END
>  <cnnaffinity>  (1) 
5.1734

>  <plip>  (1) 
-0.03571428571428571

>  <filename>  (1) 
[H][c]1[n][c]([H])[c](-[n]2[n][c]([H])[c](-[c]3[n][c]4[c]([c]([H])[c]3[H])[C]([H])([H])[C]([H])([H])[O]4)[c]2[H])[c]([H])[c]1[H]

>  <combo1>  (1) 
-0.23303402060666864

$$$$
