
     RDKit          3D

 29 30  0  0  0  0  0  0  0  0999 V2000
   12.4392    3.9021   21.0293 H   0  0  0  0  0  0  0  0  0  0  0  0
   12.4958    3.7292   21.9793 O   0  0  0  0  0  0  0  0  0  0  0  0
   11.4540    2.8232   22.3012 C   0  0  0  0  0  0  0  0  0  0  0  0
   11.4839    2.6584   23.3847 H   0  0  0  0  0  0  0  0  0  0  0  0
   10.4672    3.2392   22.0620 H   0  0  0  0  0  0  0  0  0  0  0  0
   11.6880    1.4942   21.5751 C   0  0  0  0  0  0  0  0  0  0  0  0
   12.6499    1.0919   21.9051 H   0  0  0  0  0  0  0  0  0  0  0  0
   11.7683    1.6946   20.4984 H   0  0  0  0  0  0  0  0  0  0  0  0
   10.6679    0.4897   21.8236 N   0  0  0  0  0  0  0  0  0  0  0  0
   10.9434   -0.3926   22.2275 H   0  0  0  0  0  0  0  0  0  0  0  0
    9.3905    0.5945   21.3794 C   0  0  0  0  0  0  0  0  0  0  0  0
    8.9595    1.5971   20.8291 O   0  0  0  0  0  0  0  0  0  0  0  0
    8.5359   -0.6605   21.6246 C   0  0  0  0  0  0  0  0  0  0  0  0
    8.8164   -1.6266   22.4593 N   0  0  0  0  0  0  0  0  0  0  0  0
    7.7301   -2.4505   22.3815 N   0  0  0  0  0  0  0  0  0  0  0  0
    7.5562   -3.2134   23.0152 H   0  0  0  0  0  0  0  0  0  0  0  0
    6.7406   -2.0398   21.5384 C   0  0  0  0  0  0  0  0  0  0  0  0
    5.6633   -2.5533   21.3174 O   0  0  0  0  0  0  0  0  0  0  0  0
    7.3190   -0.8773   20.9878 N   0  0  0  0  0  0  0  0  0  0  0  0
    6.7238   -0.1024   19.9364 C   0  0  0  0  0  0  0  0  0  0  0  0
    7.3027    0.0077   18.6536 C   0  0  0  0  0  0  0  0  0  0  0  0
    8.2467   -0.4903   18.4399 H   0  0  0  0  0  0  0  0  0  0  0  0
    6.7311    0.6777   17.6430 N   0  0  0  0  0  0  0  0  0  0  0  0
    5.5672    1.3017   17.8888 C   0  0  0  0  0  0  0  0  0  0  0  0
    5.1304    1.8482   17.0547 H   0  0  0  0  0  0  0  0  0  0  0  0
    4.9161    1.2585   19.1275 C   0  0  0  0  0  0  0  0  0  0  0  0
    3.9772    1.7859   19.2666 H   0  0  0  0  0  0  0  0  0  0  0  0
    5.5012    0.5277   20.1689 C   0  0  0  0  0  0  0  0  0  0  0  0
    5.0237    0.4136   21.1436 H   0  0  0  0  0  0  0  0  0  0  0  0
  1  2  1  0
  2  3  1  0
  3  4  1  0
  3  5  1  0
  3  6  1  0
  6  7  1  0
  6  8  1  0
  6  9  1  0
  9 10  1  0
  9 11  1  0
 11 12  2  0
 11 13  1  0
 13 14  2  0
 14 15  1  0
 15 16  1  0
 15 17  1  0
 17 18  2  0
 17 19  1  0
 19 20  1  0
 20 21  2  0
 21 22  1  0
 21 23  1  0
 23 24  2  0
 24 25  1  0
 24 26  1  0
 26 27  1  0
 26 28  2  0
 28 29  1  0
 19 13  1  0
 28 20  1  0
M  END
>  <cnnaffinity>  (1) 
4.64292

>  <plip>  (1) 
-0.13793103448275862

>  <filename>  (1) 
[H][O][C]([H])([H])[C]([H])([H])[N]([H])[C](=[O])[c]1[n][n]([H])[c](=[O])[n]1-[c]1[c]([H])[n][c]([H])[c]([H])[c]1[H]

>  <combo1>  (1) 
-0.8565083906708524

$$$$
