
     RDKit          3D

 30 33  0  0  0  0  0  0  0  0999 V2000
    4.8406    1.3205   19.0618 C   0  0  0  0  0  0  0  0  0  0  0  0
    5.4358    1.2918   17.7962 C   0  0  0  0  0  0  0  0  0  0  0  0
    6.5962    0.6606   17.5508 N   0  0  0  0  0  0  0  0  0  0  0  0
    7.2067    0.0488   18.5674 C   0  0  0  0  0  0  0  0  0  0  0  0
    6.6874    0.0241   19.8685 C   0  0  0  0  0  0  0  0  0  0  0  0
    7.3845   -0.6697   20.8812 N   0  0  0  0  0  0  0  0  0  0  0  0
    6.8541   -1.1605   22.0241 C   0  0  0  0  0  0  0  0  0  0  0  0
    7.8646   -1.7373   22.7616 C   0  0  0  0  0  0  0  0  0  0  0  0
    7.7651   -2.4234   24.0642 C   0  0  0  0  0  0  0  0  0  0  0  0
    6.4910   -2.6854   24.6423 C   0  0  0  0  0  0  0  0  0  0  0  0
    6.3757   -3.3567   25.8524 C   0  0  0  0  0  0  0  0  0  0  0  0
    7.5317   -3.8687   26.4727 C   0  0  0  0  0  0  0  0  0  0  0  0
    7.5383   -4.6535   27.6202 N   0  0  0  0  0  0  0  0  0  0  0  0
    8.7291   -5.0936   27.8363 C   0  0  0  0  0  0  0  0  0  0  0  0
    9.9876   -4.5586   26.7441 S   0  0  0  0  0  0  0  0  0  0  0  0
    8.7894   -3.6608   25.8646 C   0  0  0  0  0  0  0  0  0  0  0  0
    8.9241   -2.8712   24.7163 C   0  0  0  0  0  0  0  0  0  0  0  0
    9.9027   -2.5697   24.3428 H   0  0  0  0  0  0  0  0  0  0  0  0
    8.9690   -5.7866   28.6419 H   0  0  0  0  0  0  0  0  0  0  0  0
    5.4197   -3.5329   26.3328 H   0  0  0  0  0  0  0  0  0  0  0  0
    5.5805   -2.3830   24.1248 H   0  0  0  0  0  0  0  0  0  0  0  0
    9.0026   -1.5599   21.9151 C   0  0  0  0  0  0  0  0  0  0  0  0
    8.7038   -0.9300   20.7933 N   0  0  0  0  0  0  0  0  0  0  0  0
   10.0245   -1.8939   22.0615 H   0  0  0  0  0  0  0  0  0  0  0  0
    5.7913   -1.0822   22.1923 H   0  0  0  0  0  0  0  0  0  0  0  0
    5.4763    0.6827   20.1263 C   0  0  0  0  0  0  0  0  0  0  0  0
    5.0558    0.7209   21.1324 H   0  0  0  0  0  0  0  0  0  0  0  0
    8.1483   -0.4503   18.3594 H   0  0  0  0  0  0  0  0  0  0  0  0
    4.9665    1.7934   16.9527 H   0  0  0  0  0  0  0  0  0  0  0  0
    3.9006    1.8396   19.2072 H   0  0  0  0  0  0  0  0  0  0  0  0
  1  2  2  0
  2  3  1  0
  3  4  2  0
  4  5  1  0
  5  6  1  0
  6  7  1  0
  7  8  2  0
  8  9  1  0
  9 10  2  0
 10 11  1  0
 11 12  2  0
 12 13  1  0
 13 14  2  0
 14 15  1  0
 15 16  1  0
 16 17  2  0
 17 18  1  0
 14 19  1  0
 11 20  1  0
 10 21  1  0
  8 22  1  0
 22 23  2  0
 22 24  1  0
  7 25  1  0
  5 26  2  0
 26 27  1  0
  4 28  1  0
  2 29  1  0
  1 30  1  0
 26  1  1  0
 23  6  1  0
 17  9  1  0
 16 12  1  0
M  END
>  <cnnaffinity>  (1) 
5.65279

>  <plip>  (1) 
-0.03571428571428571

>  <filename>  (1) 
[H][c]1[n][c]2[c]([H])[c]([H])[c](-[c]3[c]([H])[n][n](-[c]4[c]([H])[n][c]([H])[c]([H])[c]4[H])[c]3[H])[c]([H])[c]2[s]1

>  <combo1>  (1) 
-0.2417730798577965

$$$$
