
     RDKit          3D

 36 38  0  0  0  0  0  0  0  0999 V2000
    9.0708   -0.8463   27.8137 C   0  0  0  0  0  0  0  0  0  0  0  0
    8.3806    0.0539   26.8203 C   0  0  0  0  0  0  0  0  0  0  0  0
    8.1153    1.4006   27.0974 C   0  0  0  0  0  0  0  0  0  0  0  0
    7.5630    2.2406   26.1249 C   0  0  0  0  0  0  0  0  0  0  0  0
    7.2521    1.7307   24.8615 C   0  0  0  0  0  0  0  0  0  0  0  0
    6.5374    2.8063   23.7017 Cl  0  0  0  0  0  0  0  0  0  0  0  0
    7.4805    0.3681   24.5716 C   0  0  0  0  0  0  0  0  0  0  0  0
    7.2367   -0.1949   23.2838 N   0  0  0  0  0  0  0  0  0  0  0  0
    7.8743    0.2331   22.1247 C   0  0  0  0  0  0  0  0  0  0  0  0
    8.7115    1.0900   22.0447 O   0  0  0  0  0  0  0  0  0  0  0  0
    7.3987   -0.6868   20.9897 C   0  0  0  0  0  0  0  0  0  0  0  0
    6.6202   -0.0004   19.8727 C   0  0  0  0  0  0  0  0  0  0  0  0
    5.4069    0.6578   20.1177 C   0  0  0  0  0  0  0  0  0  0  0  0
    4.7931    1.3171   19.0520 C   0  0  0  0  0  0  0  0  0  0  0  0
    5.4013    1.2935   17.7930 C   0  0  0  0  0  0  0  0  0  0  0  0
    6.5496    0.6486   17.5359 N   0  0  0  0  0  0  0  0  0  0  0  0
    7.1307    0.0236   18.5659 C   0  0  0  0  0  0  0  0  0  0  0  0
    8.0769   -0.4748   18.3462 H   0  0  0  0  0  0  0  0  0  0  0  0
    4.9505    1.8182   16.9538 H   0  0  0  0  0  0  0  0  0  0  0  0
    3.8695    1.8671   19.1869 H   0  0  0  0  0  0  0  0  0  0  0  0
    4.9612    0.6551   21.1149 H   0  0  0  0  0  0  0  0  0  0  0  0
    6.6200   -1.6638   21.7174 N   0  0  0  0  0  0  0  0  0  0  0  0
    6.0522   -2.8686   21.1538 C   0  0  0  0  0  0  0  0  0  0  0  0
    6.2444   -2.8945   20.0782 H   0  0  0  0  0  0  0  0  0  0  0  0
    4.9752   -2.8901   21.3330 H   0  0  0  0  0  0  0  0  0  0  0  0
    6.4874   -3.7549   21.6240 H   0  0  0  0  0  0  0  0  0  0  0  0
    6.6834   -1.4631   23.0640 C   0  0  0  0  0  0  0  0  0  0  0  0
    6.3560   -2.2597   23.9116 O   0  0  0  0  0  0  0  0  0  0  0  0
    8.3135   -1.1364   20.5659 H   0  0  0  0  0  0  0  0  0  0  0  0
    8.0041   -0.4530   25.5724 C   0  0  0  0  0  0  0  0  0  0  0  0
    8.0812   -1.5120   25.3562 H   0  0  0  0  0  0  0  0  0  0  0  0
    7.3753    3.2909   26.3325 H   0  0  0  0  0  0  0  0  0  0  0  0
    8.3306    1.7915   28.0875 H   0  0  0  0  0  0  0  0  0  0  0  0
    9.1686   -0.3988   28.8076 H   0  0  0  0  0  0  0  0  0  0  0  0
    8.5329   -1.7929   27.9150 H   0  0  0  0  0  0  0  0  0  0  0  0
   10.0822   -1.0973   27.4847 H   0  0  0  0  0  0  0  0  0  0  0  0
  1  2  1  0
  2  3  2  0
  3  4  1  0
  4  5  2  0
  5  6  1  0
  5  7  1  0
  7  8  1  0
  8  9  1  0
  9 10  2  0
  9 11  1  0
 11 12  1  0
 12 13  2  0
 13 14  1  0
 14 15  2  0
 15 16  1  0
 16 17  2  0
 17 18  1  0
 15 19  1  0
 14 20  1  0
 13 21  1  0
 11 22  1  0
 22 23  1  0
 23 24  1  0
 23 25  1  0
 23 26  1  0
 22 27  1  0
 27 28  2  0
 11 29  1  0
  7 30  2  0
 30 31  1  0
  4 32  1  0
  3 33  1  0
  1 34  1  0
  1 35  1  0
  1 36  1  0
 30  2  1  0
 27  8  1  0
 17 12  1  0
M  END
>  <cnnaffinity>  (1) 
4.69622

>  <plip>  (1) 
-0.06896551724137931

>  <filename>  (1) 
[H][c]1[n][c]([H])[c]([C]2([H])[C](=[O])[N]([c]3[c]([H])[c]([C]([H])([H])[H])[c]([H])[c]([H])[c]3[Cl])[C](=[O])[N]2[C]([H])([H])[H])[c]([H])[c]1[H]

>  <combo1>  (1) 
-0.34190233234029055

$$$$
