
     RDKit          3D

 43 45  0  0  0  0  0  0  0  0999 V2000
    4.9326    1.7894   17.0005 H   0  0  0  0  0  0  0  0  0  0  0  0
    5.4113    1.2872   17.8360 C   0  0  0  0  0  0  0  0  0  0  0  0
    6.5753    0.6762   17.5685 N   0  0  0  0  0  0  0  0  0  0  0  0
    7.2054    0.0755   18.5888 C   0  0  0  0  0  0  0  0  0  0  0  0
    8.1474   -0.4159   18.3548 H   0  0  0  0  0  0  0  0  0  0  0  0
    6.6959    0.0194   19.9087 C   0  0  0  0  0  0  0  0  0  0  0  0
    7.3892   -0.6405   20.9599 N   0  0  0  0  0  0  0  0  0  0  0  0
    6.7836   -1.5477   21.8211 C   0  0  0  0  0  0  0  0  0  0  0  0
    5.6858   -2.0424   21.6658 O   0  0  0  0  0  0  0  0  0  0  0  0
    7.7979   -1.9259   22.9030 C   0  0  2  0  0  0  0  0  0  0  0  0
    7.8588   -3.0213   22.8227 H   0  0  0  0  0  0  0  0  0  0  0  0
    7.3926   -1.5984   24.3634 C   0  0  0  0  0  0  0  0  0  0  0  0
    7.3363   -0.5100   24.5278 H   0  0  0  0  0  0  0  0  0  0  0  0
    6.3884   -1.9948   24.5745 H   0  0  0  0  0  0  0  0  0  0  0  0
    8.3799   -2.1573   25.4039 C   0  0  0  0  0  0  0  0  0  0  0  0
    9.3761   -1.7178   25.2432 H   0  0  0  0  0  0  0  0  0  0  0  0
    8.0685   -1.8230   26.4148 H   0  0  0  0  0  0  0  0  0  0  0  0
    8.5115   -3.6115   25.3726 N   0  0  0  0  0  0  0  0  0  0  0  0
    7.3186   -4.3304   25.8156 C   0  0  0  0  0  0  0  0  0  0  0  0
    6.5727   -4.3866   25.0072 H   0  0  0  0  0  0  0  0  0  0  0  0
    6.8250   -3.8259   26.6694 H   0  0  0  0  0  0  0  0  0  0  0  0
    7.8266   -5.7125   26.2299 C   0  0  0  0  0  0  0  0  0  0  0  0
    7.8517   -6.3772   25.3599 H   0  0  0  0  0  0  0  0  0  0  0  0
    7.1819   -6.1767   26.9865 H   0  0  0  0  0  0  0  0  0  0  0  0
    9.2481   -5.4467   26.7436 C   0  0  0  0  0  0  0  0  0  0  0  0
    9.2675   -5.3227   27.8321 H   0  0  0  0  0  0  0  0  0  0  0  0
    9.9344   -6.2689   26.5079 H   0  0  0  0  0  0  0  0  0  0  0  0
    9.6962   -4.1372   26.0612 C   0  0  1  0  0  0  0  0  0  0  0  0
   10.0225   -3.4352   26.8454 H   0  0  0  0  0  0  0  0  0  0  0  0
   10.8412   -4.3485   25.0773 C   0  0  0  0  0  0  0  0  0  0  0  0
   11.1486   -3.4097   24.6084 H   0  0  0  0  0  0  0  0  0  0  0  0
   11.7038   -4.7857   25.5868 H   0  0  0  0  0  0  0  0  0  0  0  0
   10.5262   -5.0371   24.2910 H   0  0  0  0  0  0  0  0  0  0  0  0
    9.1110   -1.2477   22.4571 C   0  0  0  0  0  0  0  0  0  0  0  0
    9.3955   -0.4363   23.1357 H   0  0  0  0  0  0  0  0  0  0  0  0
    9.9459   -1.9533   22.4730 H   0  0  0  0  0  0  0  0  0  0  0  0
    8.8470   -0.6844   21.0527 C   0  0  0  0  0  0  0  0  0  0  0  0
    9.2632   -1.3392   20.2756 H   0  0  0  0  0  0  0  0  0  0  0  0
    9.2813    0.3116   20.9052 H   0  0  0  0  0  0  0  0  0  0  0  0
    5.4629    0.6424   20.1586 C   0  0  0  0  0  0  0  0  0  0  0  0
    5.0235    0.5921   21.1550 H   0  0  0  0  0  0  0  0  0  0  0  0
    4.8170    1.3008   19.1061 C   0  0  0  0  0  0  0  0  0  0  0  0
    3.8779    1.8312   19.2587 H   0  0  0  0  0  0  0  0  0  0  0  0
  1  2  1  0
  2  3  2  0
  3  4  1  0
  4  5  1  0
  4  6  2  0
  6  7  1  0
  7  8  1  0
  8  9  2  0
  8 10  1  0
 10 11  1  1
 10 12  1  0
 12 13  1  0
 12 14  1  0
 12 15  1  0
 15 16  1  0
 15 17  1  0
 15 18  1  0
 18 19  1  0
 19 20  1  0
 19 21  1  0
 19 22  1  0
 22 23  1  0
 22 24  1  0
 22 25  1  0
 25 26  1  0
 25 27  1  0
 25 28  1  0
 28 29  1  1
 28 30  1  0
 30 31  1  0
 30 32  1  0
 30 33  1  0
 10 34  1  0
 34 35  1  0
 34 36  1  0
 34 37  1  0
 37 38  1  0
 37 39  1  0
  6 40  1  0
 40 41  1  0
 40 42  2  0
 42 43  1  0
 42  2  1  0
 37  7  1  0
 28 18  1  0
M  END
>  <cnnaffinity>  (1) 
4.69124

>  <plip>  (1) 
-0.14285714285714285

>  <filename>  (1) 
[H][c]1[n][c]([H])[c]([N]2[C](=[O])[C@]([H])([C]([H])([H])[C]([H])([H])[N]3[C]([H])([H])[C]([H])([H])[C]([H])([H])[C@@]3([H])[C]([H])([H])[H])[C]([H])([H])[C]2([H])[H])[c]([H])[c]1[H]

>  <combo1>  (1) 
-0.8171496852453757

$$$$
