
     RDKit          3D

 47 49  0  0  0  0  0  0  0  0999 V2000
    3.2215   -5.0798   22.4176 O   0  0  0  0  0  0  0  0  0  0  0  0
    4.2580   -4.2917   22.7886 C   0  0  0  0  0  0  0  0  0  0  0  0
    4.0853   -3.5916   23.9842 C   0  0  0  0  0  0  0  0  0  0  0  0
    5.0839   -2.7559   24.4674 C   0  0  0  0  0  0  0  0  0  0  0  0
    6.2657   -2.5815   23.7430 C   0  0  0  0  0  0  0  0  0  0  0  0
    6.4829   -3.2655   22.5368 C   0  0  0  0  0  0  0  0  0  0  0  0
    7.7915   -3.0752   21.7798 C   0  0  0  0  0  0  0  0  0  0  0  0
    7.6169   -2.1417   20.6347 N   0  0  0  0  0  4  0  0  0  0  0  0
    7.4011   -0.6864   21.0077 C   0  0  0  0  0  0  0  0  0  0  0  0
    8.7352    0.0170   21.3154 C   0  0  0  0  0  0  0  0  0  0  0  0
    8.5661    1.4084   21.8150 N   0  0  0  0  0  4  0  0  0  0  0  0
    9.8740    2.1252   21.9686 C   0  0  0  0  0  0  0  0  0  0  0  0
    9.6012    3.2325   22.9828 C   0  0  0  0  0  0  0  0  0  0  0  0
    8.3811    2.7726   23.8133 C   0  0  0  0  0  0  0  0  0  0  0  0
    7.8549    1.4961   23.1537 C   0  0  0  0  0  0  0  0  0  0  0  0
    6.7699    1.5019   23.0079 H   0  0  0  0  0  0  0  0  0  0  0  0
    8.1049    0.6015   23.7361 H   0  0  0  0  0  0  0  0  0  0  0  0
    7.6043    3.5424   23.8302 H   0  0  0  0  0  0  0  0  0  0  0  0
    8.6448    2.5613   24.8531 H   0  0  0  0  0  0  0  0  0  0  0  0
    9.3920    4.1724   22.4628 H   0  0  0  0  0  0  0  0  0  0  0  0
   10.4868    3.3973   23.6014 H   0  0  0  0  0  0  0  0  0  0  0  0
   10.2304    2.4927   21.0001 H   0  0  0  0  0  0  0  0  0  0  0  0
   10.6109    1.4063   22.3459 H   0  0  0  0  0  0  0  0  0  0  0  0
    7.9845    1.9304   21.1094 H   0  0  0  0  0  0  0  0  0  0  0  0
    9.3613    0.0007   20.4131 H   0  0  0  0  0  0  0  0  0  0  0  0
    9.2695   -0.5706   22.0767 H   0  0  0  0  0  0  0  0  0  0  0  0
    6.6379   -0.0423   19.8902 C   0  0  0  0  0  0  0  0  0  0  0  0
    5.4355    0.6371   20.1495 C   0  0  0  0  0  0  0  0  0  0  0  0
    4.8037    1.3106   19.1038 C   0  0  0  0  0  0  0  0  0  0  0  0
    5.4031    1.2902   17.8390 C   0  0  0  0  0  0  0  0  0  0  0  0
    6.5624    0.6708   17.5812 N   0  0  0  0  0  0  0  0  0  0  0  0
    7.1607    0.0267   18.5909 C   0  0  0  0  0  0  0  0  0  0  0  0
    8.1240   -0.4271   18.3513 H   0  0  0  0  0  0  0  0  0  0  0  0
    4.9266    1.7851   16.9942 H   0  0  0  0  0  0  0  0  0  0  0  0
    3.8751    1.8484   19.2510 H   0  0  0  0  0  0  0  0  0  0  0  0
    5.0098    0.6341   21.1590 H   0  0  0  0  0  0  0  0  0  0  0  0
    6.7812   -0.6621   21.9055 H   0  0  0  0  0  0  0  0  0  0  0  0
    6.7581   -2.4338   20.1019 H   0  0  0  0  0  0  0  0  0  0  0  0
    8.4179   -2.1591   19.9659 H   0  0  0  0  0  0  0  0  0  0  0  0
    8.5179   -2.6591   22.4884 H   0  0  0  0  0  0  0  0  0  0  0  0
    8.1692   -4.0382   21.4400 H   0  0  0  0  0  0  0  0  0  0  0  0
    5.4623   -4.1231   22.0758 C   0  0  0  0  0  0  0  0  0  0  0  0
    5.7076   -5.0080   20.5809 Cl  0  0  0  0  0  0  0  0  0  0  0  0
    7.0224   -1.8923   24.1121 H   0  0  0  0  0  0  0  0  0  0  0  0
    4.9115   -2.1889   25.3732 H   0  0  0  0  0  0  0  0  0  0  0  0
    3.1391   -3.7295   24.4917 H   0  0  0  0  0  0  0  0  0  0  0  0
    3.4511   -5.5411   21.6020 H   0  0  0  0  0  0  0  0  0  0  0  0
  1  2  1  0
  2  3  2  0
  3  4  1  0
  4  5  2  0
  5  6  1  0
  6  7  1  0
  7  8  1  0
  8  9  1  0
  9 10  1  0
 10 11  1  0
 11 12  1  0
 12 13  1  0
 13 14  1  0
 14 15  1  0
 15 16  1  0
 15 17  1  0
 14 18  1  0
 14 19  1  0
 13 20  1  0
 13 21  1  0
 12 22  1  0
 12 23  1  0
 11 24  1  0
 10 25  1  0
 10 26  1  0
  9 27  1  0
 27 28  2  0
 28 29  1  0
 29 30  2  0
 30 31  1  0
 31 32  2  0
 32 33  1  0
 30 34  1  0
 29 35  1  0
 28 36  1  0
  9 37  1  0
  8 38  1  0
  8 39  1  0
  7 40  1  0
  7 41  1  0
  6 42  2  0
 42 43  1  0
  5 44  1  0
  4 45  1  0
  3 46  1  0
  1 47  1  0
 42  2  1  0
 15 11  1  0
 32 27  1  0
M  CHG  2   8   1  11   1
M  END
>  <cnnaffinity>  (1) 
5.22498

>  <plip>  (1) 
-0.1

>  <filename>  (1) 
[H][O][c]1[c]([H])[c]([H])[c]([H])[c]([C]([H])([H])[N+]([H])([H])[C]([H])([c]2[c]([H])[n][c]([H])[c]([H])[c]2[H])[C]([H])([H])[N+]2([H])[C]([H])([H])[C]([H])([H])[C]([H])([H])[C]2([H])[H])[c]1[Cl]

>  <combo1>  (1) 
-0.5216690678511848

$$$$
