
     RDKit          3D

 37 39  0  0  0  0  0  0  0  0999 V2000
    9.5586    0.6922   20.1352 O   0  0  0  0  0  0  0  0  0  0  0  0
    9.1669    1.0756   21.2255 C   0  0  0  0  0  0  0  0  0  0  0  0
    8.1546    0.4331   21.8732 N   0  0  0  0  0  0  0  0  0  0  0  0
    7.2408   -0.5290   21.2487 C   0  0  0  0  0  0  0  0  0  0  0  0
    7.9450   -1.8869   20.9731 C   0  0  0  0  0  0  0  0  0  0  0  0
    7.0260   -2.9494   20.7697 O   0  0  0  0  0  0  0  0  0  0  0  0
    6.8826   -3.0383   19.8194 H   0  0  0  0  0  0  0  0  0  0  0  0
    8.5259   -2.1296   21.8677 H   0  0  0  0  0  0  0  0  0  0  0  0
    8.6581   -1.7680   20.1431 H   0  0  0  0  0  0  0  0  0  0  0  0
    6.5529    0.1007   20.0446 C   0  0  0  0  0  0  0  0  0  0  0  0
    5.3261    0.7620   20.1754 C   0  0  0  0  0  0  0  0  0  0  0  0
    4.7457    1.3514   19.0516 C   0  0  0  0  0  0  0  0  0  0  0  0
    5.4225    1.2729   17.8294 C   0  0  0  0  0  0  0  0  0  0  0  0
    6.6105    0.6687   17.6896 N   0  0  0  0  0  0  0  0  0  0  0  0
    7.1643    0.1192   18.7799 C   0  0  0  0  0  0  0  0  0  0  0  0
    8.1577   -0.3020   18.6407 H   0  0  0  0  0  0  0  0  0  0  0  0
    4.9986    1.7183   16.9322 H   0  0  0  0  0  0  0  0  0  0  0  0
    3.8019    1.8804   19.1137 H   0  0  0  0  0  0  0  0  0  0  0  0
    4.8414    0.8201   21.1516 H   0  0  0  0  0  0  0  0  0  0  0  0
    6.4664   -0.7542   21.9969 H   0  0  0  0  0  0  0  0  0  0  0  0
    7.9427    0.7662   22.7924 H   0  0  0  0  0  0  0  0  0  0  0  0
    9.7904    2.2478   21.9445 C   0  0  0  0  0  0  0  0  0  0  0  0
    9.0490    3.0587   22.8328 C   0  0  0  0  0  0  0  0  0  0  0  0
    9.6224    4.1789   23.4380 C   0  0  0  0  0  0  0  0  0  0  0  0
   10.9501    4.4794   23.1468 C   0  0  0  0  0  0  0  0  0  0  0  0
   11.6166    5.5512   23.6483 O   0  0  0  0  0  0  0  0  0  0  0  0
   12.9690    5.5111   23.1486 C   0  0  0  0  0  0  0  0  0  0  0  0
   13.0730    4.3270   22.1553 C   0  0  0  0  0  0  0  0  0  0  0  0
   11.7116    3.6929   22.2786 C   0  0  0  0  0  0  0  0  0  0  0  0
   11.1380    2.5893   21.6616 C   0  0  0  0  0  0  0  0  0  0  0  0
   11.7113    1.9966   20.9433 H   0  0  0  0  0  0  0  0  0  0  0  0
   13.2621    4.6647   21.1304 H   0  0  0  0  0  0  0  0  0  0  0  0
   13.8843    3.6424   22.4201 H   0  0  0  0  0  0  0  0  0  0  0  0
   13.6391    5.3902   24.0057 H   0  0  0  0  0  0  0  0  0  0  0  0
   13.1801    6.4751   22.6777 H   0  0  0  0  0  0  0  0  0  0  0  0
    9.0674    4.8147   24.1157 H   0  0  0  0  0  0  0  0  0  0  0  0
    7.9944    2.8455   23.0433 H   0  0  0  0  0  0  0  0  0  0  0  0
  1  2  2  0
  2  3  1  0
  3  4  1  0
  4  5  1  0
  5  6  1  0
  6  7  1  0
  5  8  1  0
  5  9  1  0
  4 10  1  0
 10 11  2  0
 11 12  1  0
 12 13  2  0
 13 14  1  0
 14 15  2  0
 15 16  1  0
 13 17  1  0
 12 18  1  0
 11 19  1  0
  4 20  1  0
  3 21  1  0
  2 22  1  0
 22 23  2  0
 23 24  1  0
 24 25  2  0
 25 26  1  0
 26 27  1  0
 27 28  1  0
 28 29  1  0
 29 30  2  0
 30 31  1  0
 28 32  1  0
 28 33  1  0
 27 34  1  0
 27 35  1  0
 24 36  1  0
 23 37  1  0
 15 10  1  0
 30 22  1  0
 29 25  1  0
M  END
>  <cnnaffinity>  (1) 
4.97239

>  <plip>  (1) 
-0.07142857142857142

>  <filename>  (1) 
[H][O][C]([H])([H])[C]([H])([c]1[c]([H])[n][c]([H])[c]([H])[c]1[H])[N]([H])[C](=[O])[c]1[c]([H])[c]([H])[c]2[c]([c]1[H])[C]([H])([H])[C]([H])([H])[O]2

>  <combo1>  (1) 
-0.41640517769107555

$$$$
