
     RDKit          3D

 18 19  0  0  0  0  0  0  0  0999 V2000
    4.9411    1.7817   17.0149 H   0  0  0  0  0  0  0  0  0  0  0  0
    5.4197    1.2754   17.8549 C   0  0  0  0  0  0  0  0  0  0  0  0
    6.5825    0.6575   17.5876 N   0  0  0  0  0  0  0  0  0  0  0  0
    7.2015    0.0376   18.5973 C   0  0  0  0  0  0  0  0  0  0  0  0
    8.1494   -0.4457   18.3837 H   0  0  0  0  0  0  0  0  0  0  0  0
    6.6986   -0.0185   19.9060 C   0  0  0  0  0  0  0  0  0  0  0  0
    7.3262   -0.6803   21.0049 N   0  0  0  0  0  0  0  0  0  0  0  0
    8.4121   -1.2418   20.7552 N   0  0  0  0  0  0  0  0  0  0  0  0
    9.0002   -1.8799   21.8895 C   0  0  0  0  0  0  0  0  0  0  0  0
    8.5396   -1.9931   23.1704 N   0  0  0  0  0  0  0  0  0  0  0  0
    9.4243   -2.6805   23.8027 N   0  0  0  0  0  0  0  0  0  0  0  0
   10.3760   -2.9585   22.9260 N   0  0  0  0  0  0  0  0  0  0  0  0
   11.1759   -3.5275   23.1887 H   0  0  0  0  0  0  0  0  0  0  0  0
   10.1704   -2.4892   21.7202 N   0  0  0  0  0  0  0  0  0  0  0  0
    5.4823    0.6216   20.1776 C   0  0  0  0  0  0  0  0  0  0  0  0
    5.0871    0.5854   21.1937 H   0  0  0  0  0  0  0  0  0  0  0  0
    4.8402    1.2814   19.1286 C   0  0  0  0  0  0  0  0  0  0  0  0
    3.9099    1.8109   19.2772 H   0  0  0  0  0  0  0  0  0  0  0  0
  1  2  1  0
  2  3  2  0
  3  4  1  0
  4  5  1  0
  4  6  2  0
  6  7  1  0
  7  8  2  3
  8  9  1  0
  9 10  1  0
 10 11  2  0
 11 12  1  0
 12 13  1  0
 12 14  1  0
  6 15  1  0
 15 16  1  0
 15 17  2  0
 17 18  1  0
 17  2  1  0
 14  9  2  0
M  END
>  <cnnaffinity>  (1) 
4.29594

>  <plip>  (1) 
-0.06666666666666667

>  <filename>  (1) 
[H][c]1[n][c]([H])[c]([N]=[N][c]2[n][n][n]([H])[n]2)[c]([H])[c]1[H]

>  <combo1>  (1) 
-0.5450334465663744

$$$$
