
     RDKit          3D

 31 33  0  0  0  0  0  0  0  0999 V2000
    4.9730    1.7689   17.0182 H   0  0  0  0  0  0  0  0  0  0  0  0
    5.4321    1.2564   17.8604 C   0  0  0  0  0  0  0  0  0  0  0  0
    6.5869    0.6148   17.6086 N   0  0  0  0  0  0  0  0  0  0  0  0
    7.1870    0.0040   18.6361 C   0  0  0  0  0  0  0  0  0  0  0  0
    8.1333   -0.4982   18.4453 H   0  0  0  0  0  0  0  0  0  0  0  0
    6.6683   -0.0145   19.9416 C   0  0  0  0  0  0  0  0  0  0  0  0
    7.4655   -0.5868   20.9057 O   0  0  0  0  0  0  0  0  0  0  0  0
    6.9731   -1.4783   21.8223 C   0  0  0  0  0  0  0  0  0  0  0  0
    5.8964   -2.3970   21.7944 C   0  0  0  0  0  0  0  0  0  0  0  0
    5.1878   -2.6254   21.0103 H   0  0  0  0  0  0  0  0  0  0  0  0
    5.8228   -3.0651   22.9512 N   0  0  0  0  0  0  0  0  0  0  0  0
    6.8526   -2.6073   23.6745 N   0  0  0  0  0  0  0  0  0  0  0  0
    7.0440   -2.9446   24.6101 H   0  0  0  0  0  0  0  0  0  0  0  0
    7.6258   -1.6996   23.0158 C   0  0  0  0  0  0  0  0  0  0  0  0
    9.0388   -1.3697   23.4413 C   0  0  1  0  0  0  0  0  0  0  0  0
    9.4049   -0.5502   22.8187 H   0  0  0  0  0  0  0  0  0  0  0  0
    9.1466   -1.0195   24.9357 C   0  0  0  0  0  0  0  0  0  0  0  0
   10.0364   -0.3851   25.1020 H   0  0  0  0  0  0  0  0  0  0  0  0
    8.2728   -0.4558   25.2837 H   0  0  0  0  0  0  0  0  0  0  0  0
    9.2083   -2.3206   25.6047 N   0  0  0  0  0  0  0  0  0  0  0  0
    9.6782   -2.2641   26.5020 H   0  0  0  0  0  0  0  0  0  0  0  0
    9.8279   -3.3066   24.7109 C   0  0  0  0  0  0  0  0  0  0  0  0
    9.1685   -4.1843   24.6466 H   0  0  0  0  0  0  0  0  0  0  0  0
   10.8073   -3.6610   25.0675 H   0  0  0  0  0  0  0  0  0  0  0  0
    9.9539   -2.6229   23.3349 C   0  0  0  0  0  0  0  0  0  0  0  0
   10.9938   -2.3507   23.1183 H   0  0  0  0  0  0  0  0  0  0  0  0
    9.6312   -3.2929   22.5321 H   0  0  0  0  0  0  0  0  0  0  0  0
    5.4574    0.6341   20.1996 C   0  0  0  0  0  0  0  0  0  0  0  0
    5.0333    0.6494   21.2042 H   0  0  0  0  0  0  0  0  0  0  0  0
    4.8340    1.2820   19.1239 C   0  0  0  0  0  0  0  0  0  0  0  0
    3.9031    1.8181   19.2604 H   0  0  0  0  0  0  0  0  0  0  0  0
  1  2  1  0
  2  3  2  0
  3  4  1  0
  4  5  1  0
  4  6  2  0
  6  7  1  0
  7  8  1  0
  8  9  1  0
  9 10  1  0
  9 11  2  0
 11 12  1  0
 12 13  1  0
 12 14  1  0
 14 15  1  0
 15 16  1  6
 15 17  1  0
 17 18  1  0
 17 19  1  0
 17 20  1  0
 20 21  1  0
 20 22  1  0
 22 23  1  0
 22 24  1  0
 22 25  1  0
 25 26  1  0
 25 27  1  0
  6 28  1  0
 28 29  1  0
 28 30  2  0
 30 31  1  0
 30  2  1  0
 14  8  2  0
 25 15  1  0
M  END
>  <cnnaffinity>  (1) 
4.73111

>  <plip>  (1) 
-0.03571428571428571

>  <filename>  (1) 
[H][c]1[n][c]([H])[c]([O][c]2[c]([H])[n][n]([H])[c]2[C@@]2([H])[C]([H])([H])[N]([H])[C]([H])([H])[C]2([H])[H])[c]([H])[c]1[H]

>  <combo1>  (1) 
-0.2445932752940582

$$$$
