
     RDKit          3D

 31 32  0  0  0  0  0  0  0  0999 V2000
   10.0508    2.1122   26.2333 H   0  0  0  0  0  0  0  0  0  0  0  0
   10.0460    1.1914   25.9291 O   0  0  0  0  0  0  0  0  0  0  0  0
   11.0050    1.2662   24.9899 C   0  0  0  0  0  0  0  0  0  0  0  0
   11.5917    2.3046   24.8270 O   0  0  0  0  0  0  0  0  0  0  0  0
   11.2289   -0.0331   24.2612 C   0  0  0  0  0  0  0  0  0  0  0  0
   12.1603    0.0899   23.7047 H   0  0  0  0  0  0  0  0  0  0  0  0
   11.3685   -0.7893   25.0409 H   0  0  0  0  0  0  0  0  0  0  0  0
   10.0472   -0.4110   23.3523 C   0  0  0  0  0  0  0  0  0  0  0  0
    9.8452    0.3888   22.6287 H   0  0  0  0  0  0  0  0  0  0  0  0
    9.1489   -0.5148   23.9690 H   0  0  0  0  0  0  0  0  0  0  0  0
   10.2034   -1.7040   22.5533 C   0  0  0  0  0  0  0  0  0  0  0  0
   11.0870   -1.6836   21.9083 H   0  0  0  0  0  0  0  0  0  0  0  0
   10.2670   -2.5842   23.1976 H   0  0  0  0  0  0  0  0  0  0  0  0
    9.0140   -1.8906   21.7137 N   0  0  0  0  0  0  0  0  0  0  0  0
    7.8826   -2.5337   22.1610 C   0  0  0  0  0  0  0  0  0  0  0  0
    7.8544   -3.3298   23.0636 O   0  0  0  0  0  0  0  0  0  0  0  0
    6.7308   -2.0138   21.2686 C   0  0  0  0  0  0  0  0  0  0  0  0
    5.5707   -2.3251   21.2799 O   0  0  0  0  0  0  0  0  0  0  0  0
    7.3403   -1.1255   20.3908 N   0  0  0  0  0  0  0  0  0  0  0  0
    6.6625   -0.2831   19.4398 C   0  0  0  0  0  0  0  0  0  0  0  0
    7.1972   -0.0242   18.1572 C   0  0  0  0  0  0  0  0  0  0  0  0
    8.1065   -0.5378   17.8513 H   0  0  0  0  0  0  0  0  0  0  0  0
    6.6412    0.8250   17.2847 N   0  0  0  0  0  0  0  0  0  0  0  0
    5.5272    1.4704   17.6687 C   0  0  0  0  0  0  0  0  0  0  0  0
    5.1210    2.1833   16.9551 H   0  0  0  0  0  0  0  0  0  0  0  0
    4.9016    1.2506   18.8999 C   0  0  0  0  0  0  0  0  0  0  0  0
    4.0123    1.8120   19.1578 H   0  0  0  0  0  0  0  0  0  0  0  0
    5.4603    0.3326   19.7945 C   0  0  0  0  0  0  0  0  0  0  0  0
    4.9895    0.0800   20.7428 H   0  0  0  0  0  0  0  0  0  0  0  0
    8.6957   -1.0054   20.7043 C   0  0  0  0  0  0  0  0  0  0  0  0
    9.4617   -0.2309   20.1951 O   0  0  0  0  0  0  0  0  0  0  0  0
  1  2  1  0
  2  3  1  0
  3  4  2  0
  3  5  1  0
  5  6  1  0
  5  7  1  0
  5  8  1  0
  8  9  1  0
  8 10  1  0
  8 11  1  0
 11 12  1  0
 11 13  1  0
 11 14  1  0
 14 15  1  0
 15 16  2  0
 15 17  1  0
 17 18  2  0
 17 19  1  0
 19 20  1  0
 20 21  2  0
 21 22  1  0
 21 23  1  0
 23 24  2  0
 24 25  1  0
 24 26  1  0
 26 27  1  0
 26 28  2  0
 28 29  1  0
 19 30  1  0
 30 31  2  0
 30 14  1  0
 28 20  1  0
M  END
>  <cnnaffinity>  (1) 
4.68513

>  <plip>  (1) 
-0.10344827586206896

>  <filename>  (1) 
[H][O][C](=[O])[C]([H])([H])[C]([H])([H])[C]([H])([H])[N]1[C](=[O])[C](=[O])[N]([c]2[c]([H])[n][c]([H])[c]([H])[c]2[H])[C]1=[O]

>  <combo1>  (1) 
-0.5827389188148426

$$$$
