
     RDKit          3D

 30 32  0  0  0  0  0  0  0  0999 V2000
    8.3258   -3.8310   21.4856 H   0  0  0  0  0  0  0  0  0  0  0  0
    8.1659   -2.7750   21.6756 C   0  0  0  0  0  0  0  0  0  0  0  0
    7.5960   -2.0630   20.6872 N   0  0  0  0  0  0  0  0  0  0  0  0
    7.3680   -0.7638   20.9492 C   0  0  0  0  0  0  0  0  0  0  0  0
    6.6401   -0.0162   19.8983 C   0  0  0  0  0  0  0  0  0  0  0  0
    7.1621    0.0295   18.5970 C   0  0  0  0  0  0  0  0  0  0  0  0
    8.1144   -0.4425   18.3652 H   0  0  0  0  0  0  0  0  0  0  0  0
    6.5690    0.6738   17.5871 N   0  0  0  0  0  0  0  0  0  0  0  0
    5.4045    1.2898   17.8443 C   0  0  0  0  0  0  0  0  0  0  0  0
    4.9274    1.7822   16.9996 H   0  0  0  0  0  0  0  0  0  0  0  0
    4.8050    1.3062   19.1081 C   0  0  0  0  0  0  0  0  0  0  0  0
    3.8781    1.8415   19.2540 H   0  0  0  0  0  0  0  0  0  0  0  0
    5.4369    0.6469   20.1638 C   0  0  0  0  0  0  0  0  0  0  0  0
    5.0146    0.6508   21.1748 H   0  0  0  0  0  0  0  0  0  0  0  0
    7.8212   -0.1568   22.1658 C   0  0  0  0  0  0  0  0  0  0  0  0
    7.6687    1.3399   22.4192 C   0  0  1  0  0  0  0  0  0  0  0  0
    7.3975    1.8424   21.4842 H   0  0  0  0  0  0  0  0  0  0  0  0
    6.5987    1.5379   23.3336 O   0  0  0  0  0  0  0  0  0  0  0  0
    7.0240    2.2406   24.4898 C   0  0  0  0  0  0  0  0  0  0  0  0
    6.5373    1.7792   25.3569 H   0  0  0  0  0  0  0  0  0  0  0  0
    6.6909    3.2884   24.4327 H   0  0  0  0  0  0  0  0  0  0  0  0
    8.5496    2.1277   24.5199 C   0  0  0  0  0  0  0  0  0  0  0  0
    8.8495    1.2218   25.0544 H   0  0  0  0  0  0  0  0  0  0  0  0
    9.0175    2.9920   25.0000 H   0  0  0  0  0  0  0  0  0  0  0  0
    8.9171    2.0012   23.0371 C   0  0  0  0  0  0  0  0  0  0  0  0
    9.8141    1.3967   22.8715 H   0  0  0  0  0  0  0  0  0  0  0  0
    9.0922    2.9799   22.5770 H   0  0  0  0  0  0  0  0  0  0  0  0
    8.4184   -0.8858   23.1361 N   0  0  0  0  0  0  0  0  0  0  0  0
    8.5638   -2.1993   22.8921 C   0  0  0  0  0  0  0  0  0  0  0  0
    9.0390   -2.7926   23.6630 H   0  0  0  0  0  0  0  0  0  0  0  0
  1  2  1  0
  2  3  2  0
  3  4  1  0
  4  5  1  0
  5  6  2  0
  6  7  1  0
  6  8  1  0
  8  9  2  0
  9 10  1  0
  9 11  1  0
 11 12  1  0
 11 13  2  0
 13 14  1  0
  4 15  2  0
 15 16  1  0
 16 17  1  6
 16 18  1  0
 18 19  1  0
 19 20  1  0
 19 21  1  0
 19 22  1  0
 22 23  1  0
 22 24  1  0
 22 25  1  0
 25 26  1  0
 25 27  1  0
 15 28  1  0
 28 29  2  0
 29 30  1  0
 29  2  1  0
 13  5  1  0
 25 16  1  0
M  END
>  <cnnaffinity>  (1) 
4.83834

>  <plip>  (1) 
-0.0

>  <filename>  (1) 
[H][c]1[n][c](-[c]2[c]([H])[n][c]([H])[c]([H])[c]2[H])[c]([C@@]2([H])[O][C]([H])([H])[C]([H])([H])[C]2([H])[H])[n][c]1[H]

>  <combo1>  (1) 
-7.096410829552904e-06

$$$$
