
     RDKit          3D

 47 49  0  0  0  0  0  0  0  0999 V2000
    4.9533    1.7942   16.9668 H   0  0  0  0  0  0  0  0  0  0  0  0
    5.3918    1.2997   17.8290 C   0  0  0  0  0  0  0  0  0  0  0  0
    6.5555    0.6688   17.6091 N   0  0  0  0  0  0  0  0  0  0  0  0
    7.1426    0.0815   18.6643 C   0  0  0  0  0  0  0  0  0  0  0  0
    8.0926   -0.4103   18.4338 H   0  0  0  0  0  0  0  0  0  0  0  0
    6.6204    0.0741   19.9732 C   0  0  0  0  0  0  0  0  0  0  0  0
    7.3463   -0.6039   21.1371 C   0  0  1  0  0  0  0  0  0  0  0  0
    6.7650   -0.4340   22.0532 H   0  0  0  0  0  0  0  0  0  0  0  0
    7.4662   -2.1044   20.8667 C   0  0  0  0  0  0  0  0  0  0  0  0
    8.0922   -2.1019   19.9824 H   0  0  0  0  0  0  0  0  0  0  0  0
    6.5061   -2.5600   20.6074 H   0  0  0  0  0  0  0  0  0  0  0  0
    8.2295   -2.8925   21.9279 C   0  0  0  0  0  0  0  0  0  0  0  0
    7.6498   -2.9309   22.8692 H   0  0  0  0  0  0  0  0  0  0  0  0
    8.3462   -3.9265   21.5817 H   0  0  0  0  0  0  0  0  0  0  0  0
    9.5528   -2.2951   22.0668 N   0  0  0  0  0  0  0  0  0  0  0  0
   10.1398   -2.8349   22.6978 H   0  0  0  0  0  0  0  0  0  0  0  0
    9.5079   -0.8853   22.4536 C   0  0  0  0  0  0  0  0  0  0  0  0
    8.9995   -0.7198   23.4304 H   0  0  0  0  0  0  0  0  0  0  0  0
   10.5405   -0.5349   22.5576 H   0  0  0  0  0  0  0  0  0  0  0  0
    8.7913   -0.0649   21.3520 C   0  0  2  0  0  0  0  0  0  0  0  0
    9.3246   -0.2809   20.4122 H   0  0  0  0  0  0  0  0  0  0  0  0
    8.8134    1.4579   21.5758 C   0  0  0  0  0  0  0  0  0  0  0  0
    8.4243    1.9581   20.6788 H   0  0  0  0  0  0  0  0  0  0  0  0
    9.8486    1.8039   21.6985 H   0  0  0  0  0  0  0  0  0  0  0  0
    7.9671    1.8978   22.7713 C   0  0  0  0  0  0  0  0  0  0  0  0
    6.9272    1.6069   22.5821 H   0  0  0  0  0  0  0  0  0  0  0  0
    8.2818    1.3431   23.6802 H   0  0  0  0  0  0  0  0  0  0  0  0
    8.0092    3.3274   22.9981 N   0  0  0  0  0  0  0  0  0  0  0  0
    9.2893    3.8526   23.4773 C   0  0  0  0  0  0  0  0  0  0  0  0
    9.9922    3.0455   23.7425 H   0  0  0  0  0  0  0  0  0  0  0  0
    9.7857    4.4285   22.6806 H   0  0  0  0  0  0  0  0  0  0  0  0
    8.9504    4.7190   24.6978 C   0  0  0  0  0  0  0  0  0  0  0  0
    9.0942    4.1305   25.6115 H   0  0  0  0  0  0  0  0  0  0  0  0
    9.5959    5.6003   24.7714 H   0  0  0  0  0  0  0  0  0  0  0  0
    7.4706    5.0661   24.5045 C   0  0  0  0  0  0  0  0  0  0  0  0
    6.9400    5.2544   25.4448 H   0  0  0  0  0  0  0  0  0  0  0  0
    7.3572    5.9553   23.8740 H   0  0  0  0  0  0  0  0  0  0  0  0
    6.8857    3.8536   23.7737 C   0  0  1  0  0  0  0  0  0  0  0  0
    6.5468    3.1126   24.5254 H   0  0  0  0  0  0  0  0  0  0  0  0
    5.6915    4.1946   22.8804 C   0  0  0  0  0  0  0  0  0  0  0  0
    5.9883    4.9216   22.1157 H   0  0  0  0  0  0  0  0  0  0  0  0
    4.8734    4.6217   23.4717 H   0  0  0  0  0  0  0  0  0  0  0  0
    5.3007    3.3113   22.3621 H   0  0  0  0  0  0  0  0  0  0  0  0
    5.3875    0.7191   20.1607 C   0  0  0  0  0  0  0  0  0  0  0  0
    4.9186    0.7217   21.1476 H   0  0  0  0  0  0  0  0  0  0  0  0
    4.7607    1.3433   19.0761 C   0  0  0  0  0  0  0  0  0  0  0  0
    3.8191    1.8748   19.1878 H   0  0  0  0  0  0  0  0  0  0  0  0
  1  2  1  0
  2  3  2  0
  3  4  1  0
  4  5  1  0
  4  6  2  0
  6  7  1  0
  7  8  1  1
  7  9  1  0
  9 10  1  0
  9 11  1  0
  9 12  1  0
 12 13  1  0
 12 14  1  0
 12 15  1  0
 15 16  1  0
 15 17  1  0
 17 18  1  0
 17 19  1  0
 17 20  1  0
 20 21  1  6
 20 22  1  0
 22 23  1  0
 22 24  1  0
 22 25  1  0
 25 26  1  0
 25 27  1  0
 25 28  1  0
 28 29  1  0
 29 30  1  0
 29 31  1  0
 29 32  1  0
 32 33  1  0
 32 34  1  0
 32 35  1  0
 35 36  1  0
 35 37  1  0
 35 38  1  0
 38 39  1  1
 38 40  1  0
 40 41  1  0
 40 42  1  0
 40 43  1  0
  6 44  1  0
 44 45  1  0
 44 46  2  0
 46 47  1  0
 46  2  1  0
 20  7  1  0
 38 28  1  0
M  END
>  <cnnaffinity>  (1) 
4.93375

>  <plip>  (1) 
-0.034482758620689655

>  <filename>  (1) 
[H][c]1[n][c]([H])[c]([C@@]2([H])[C]([H])([H])[C]([H])([H])[N]([H])[C]([H])([H])[C@]2([H])[C]([H])([H])[C]([H])([H])[N]2[C]([H])([H])[C]([H])([H])[C]([H])([H])[C@@]2([H])[C]([H])([H])[H])[c]([H])[c]1[H]

>  <combo1>  (1) 
-0.20740597063513996

$$$$
