
     RDKit          3D

 28 28  0  0  0  0  0  0  0  0999 V2000
   10.0797    0.3865   28.9863 H   0  0  0  0  0  0  0  0  0  0  0  0
    9.6695   -0.4481   28.7155 O   0  0  0  0  0  0  0  0  0  0  0  0
    9.5384   -0.3983   27.3100 C   0  0  0  0  0  0  0  0  0  0  0  0
   10.4744   -0.6206   26.7718 H   0  0  0  0  0  0  0  0  0  0  0  0
    9.1984    0.5895   26.9665 H   0  0  0  0  0  0  0  0  0  0  0  0
    8.5011   -1.4529   26.9278 C   0  0  0  0  0  0  0  0  0  0  0  0
    8.8207   -2.4344   27.2940 H   0  0  0  0  0  0  0  0  0  0  0  0
    7.5663   -1.1980   27.4463 H   0  0  0  0  0  0  0  0  0  0  0  0
    8.3092   -1.5410   25.4834 N   0  0  0  0  0  0  0  0  0  0  0  0
    8.4473   -2.4037   24.9962 H   0  0  0  0  0  0  0  0  0  0  0  0
    7.8572   -0.5055   24.7334 C   0  0  0  0  0  0  0  0  0  0  0  0
    7.5923    0.5980   25.1409 O   0  0  0  0  0  0  0  0  0  0  0  0
    7.7563   -0.9154   23.4086 N   0  0  0  0  0  0  0  0  0  0  0  0
    8.1391   -1.7986   23.1259 H   0  0  0  0  0  0  0  0  0  0  0  0
    7.3126   -0.0844   22.4185 C   0  0  0  0  0  0  0  0  0  0  0  0
    6.9019    1.0336   22.6132 O   0  0  0  0  0  0  0  0  0  0  0  0
    7.4030   -0.7201   20.9505 C   0  0  0  0  0  0  0  0  0  0  0  0
    8.1091   -1.6883   20.7438 O   0  0  0  0  0  0  0  0  0  0  0  0
    6.6371   -0.0709   19.8660 C   0  0  0  0  0  0  0  0  0  0  0  0
    7.1524   -0.1226   18.5601 C   0  0  0  0  0  0  0  0  0  0  0  0
    8.0570   -0.6920   18.3384 H   0  0  0  0  0  0  0  0  0  0  0  0
    6.5890    0.5347   17.5453 N   0  0  0  0  0  0  0  0  0  0  0  0
    5.4755    1.2401   17.7964 C   0  0  0  0  0  0  0  0  0  0  0  0
    5.0453    1.7705   16.9517 H   0  0  0  0  0  0  0  0  0  0  0  0
    4.8650    1.3076   19.0519 C   0  0  0  0  0  0  0  0  0  0  0  0
    3.9657    1.8930   19.1948 H   0  0  0  0  0  0  0  0  0  0  0  0
    5.4622    0.6489   20.1185 C   0  0  0  0  0  0  0  0  0  0  0  0
    5.0554    0.7222   21.1294 H   0  0  0  0  0  0  0  0  0  0  0  0
  1  2  1  0
  2  3  1  0
  3  4  1  0
  3  5  1  0
  3  6  1  0
  6  7  1  0
  6  8  1  0
  6  9  1  0
  9 10  1  0
  9 11  1  0
 11 12  2  0
 11 13  1  0
 13 14  1  0
 13 15  1  0
 15 16  2  0
 15 17  1  0
 17 18  2  0
 17 19  1  0
 19 20  2  0
 20 21  1  0
 20 22  1  0
 22 23  2  0
 23 24  1  0
 23 25  1  0
 25 26  1  0
 25 27  2  0
 27 28  1  0
 27 19  1  0
M  END
>  <cnnaffinity>  (1) 
3.87209

>  <plip>  (1) 
-0.10344827586206896

>  <filename>  (1) 
[H][O][C]([H])([H])[C]([H])([H])[N]([H])[C](=[O])[N]([H])[C](=[O])[C](=[O])[c]1[c]([H])[n][c]([H])[c]([H])[c]1[H]

>  <combo1>  (1) 
-0.5628663652281105

$$$$
