
     RDKit          3D

 36 38  0  0  0  0  0  0  0  0999 V2000
    4.9287    1.7901   16.9993 H   0  0  0  0  0  0  0  0  0  0  0  0
    5.3991    1.2927   17.8452 C   0  0  0  0  0  0  0  0  0  0  0  0
    6.5546    0.6635   17.5816 N   0  0  0  0  0  0  0  0  0  0  0  0
    7.1646    0.0396   18.5948 C   0  0  0  0  0  0  0  0  0  0  0  0
    8.1230   -0.4245   18.3771 H   0  0  0  0  0  0  0  0  0  0  0  0
    6.6428   -0.0184   19.8991 C   0  0  0  0  0  0  0  0  0  0  0  0
    7.3419   -0.7133   20.9436 N   0  0  0  0  0  0  0  0  0  0  0  0
    6.5845   -1.6035   21.6552 N   0  0  0  0  0  0  0  0  0  0  0  0
    7.1452   -2.2851   22.6310 C   0  0  0  0  0  0  0  0  0  0  0  0
    6.2805   -3.2678   23.3806 C   0  0  0  0  0  0  0  0  0  0  0  0
    5.1760   -3.8703   22.7472 C   0  0  0  0  0  0  0  0  0  0  0  0
    4.9684   -3.6025   21.7184 H   0  0  0  0  0  0  0  0  0  0  0  0
    4.3629   -4.7864   23.4114 C   0  0  0  0  0  0  0  0  0  0  0  0
    3.5279   -5.2397   22.8766 H   0  0  0  0  0  0  0  0  0  0  0  0
    4.6411   -5.1133   24.7494 C   0  0  0  0  0  0  0  0  0  0  0  0
    3.6245   -6.3128   25.6024 S   0  0  0  0  0  0  0  0  0  0  0  0
    4.4044   -6.8870   26.6902 O   0  0  0  0  0  0  0  0  0  0  0  0
    2.9649   -7.1446   24.6031 O   0  0  0  0  0  0  0  0  0  0  0  0
    2.3404   -5.3767   26.3699 C   0  0  0  0  0  0  0  0  0  0  0  0
    1.7285   -6.1191   26.8822 H   0  0  0  0  0  0  0  0  0  0  0  0
    1.7732   -4.8724   25.5919 H   0  0  0  0  0  0  0  0  0  0  0  0
    2.7950   -4.6901   27.0796 H   0  0  0  0  0  0  0  0  0  0  0  0
    5.7374   -4.5316   25.4081 C   0  0  0  0  0  0  0  0  0  0  0  0
    5.9956   -4.7870   26.4370 H   0  0  0  0  0  0  0  0  0  0  0  0
    6.5377   -3.6198   24.7220 C   0  0  0  0  0  0  0  0  0  0  0  0
    7.3737   -3.1748   25.2525 H   0  0  0  0  0  0  0  0  0  0  0  0
    8.5402   -2.1100   22.9594 C   0  0  0  0  0  0  0  0  0  0  0  0
    8.9748   -2.7233   23.7431 H   0  0  0  0  0  0  0  0  0  0  0  0
    9.2910   -1.2051   22.2754 C   0  0  0  0  0  0  0  0  0  0  0  0
   10.3372   -1.0067   22.4697 H   0  0  0  0  0  0  0  0  0  0  0  0
    8.7251   -0.4022   21.2009 C   0  0  0  0  0  0  0  0  0  0  0  0
    9.3355    0.4380   20.5627 O   0  0  0  0  0  0  0  0  0  0  0  0
    5.4329    0.6289   20.1651 C   0  0  0  0  0  0  0  0  0  0  0  0
    5.0211    0.5889   21.1727 H   0  0  0  0  0  0  0  0  0  0  0  0
    4.8084    1.3104   19.1147 C   0  0  0  0  0  0  0  0  0  0  0  0
    3.8782    1.8477   19.2602 H   0  0  0  0  0  0  0  0  0  0  0  0
  1  2  1  0
  2  3  2  0
  3  4  1  0
  4  5  1  0
  4  6  2  0
  6  7  1  0
  7  8  1  0
  8  9  2  0
  9 10  1  0
 10 11  2  0
 11 12  1  0
 11 13  1  0
 13 14  1  0
 13 15  2  0
 15 16  1  0
 16 17  2  0
 16 18  2  0
 16 19  1  0
 19 20  1  0
 19 21  1  0
 19 22  1  0
 15 23  1  0
 23 24  1  0
 23 25  2  0
 25 26  1  0
  9 27  1  0
 27 28  1  0
 27 29  2  0
 29 30  1  0
 29 31  1  0
 31 32  2  0
  6 33  1  0
 33 34  1  0
 33 35  2  0
 35 36  1  0
 35  2  1  0
 31  7  1  0
 25 10  1  0
M  END
>  <cnnaffinity>  (1) 
5.5181

>  <plip>  (1) 
-0.06896551724137931

>  <filename>  (1) 
[H][c]1[n][c]([H])[c](-[n]2[n][c](-[c]3[c]([H])[c]([H])[c]([S](=[O])(=[O])[C]([H])([H])[H])[c]([H])[c]3[H])[c]([H])[c]([H])[c]2=[O])[c]([H])[c]1[H]

>  <combo1>  (1) 
-0.387496749998376

$$$$
