
     RDKit          3D

 19 20  0  0  0  0  0  0  0  0999 V2000
    9.6430   -3.1882   25.2810 H   0  0  0  0  0  0  0  0  0  0  0  0
   10.3476   -3.4174   24.5644 N   0  0  0  0  0  0  0  0  0  0  0  0
   10.0042   -2.9268   23.5036 N   0  0  0  0  0  4  0  0  0  0  0  0
    9.8646   -2.5376   22.3687 N   0  0  0  0  0  0  0  0  0  0  0  0
    8.7630   -1.7841   21.9729 C   0  0  0  0  0  0  0  0  0  0  0  0
    7.7585   -1.4364   22.8568 N   0  0  0  0  0  0  0  0  0  0  0  0
    6.9223   -0.7616   22.1753 N   0  0  0  0  0  0  0  0  0  0  0  0
    7.3804   -0.6905   20.9328 N   0  0  0  0  0  0  0  0  0  0  0  0
    6.6645    0.0031   19.9153 C   0  0  0  0  0  0  0  0  0  0  0  0
    7.1853    0.0505   18.6140 C   0  0  0  0  0  0  0  0  0  0  0  0
    8.1325   -0.4347   18.3787 H   0  0  0  0  0  0  0  0  0  0  0  0
    6.5721    0.6658   17.6073 N   0  0  0  0  0  0  0  0  0  0  0  0
    5.4086    1.2868   17.8503 C   0  0  0  0  0  0  0  0  0  0  0  0
    4.9254    1.7764   17.0017 H   0  0  0  0  0  0  0  0  0  0  0  0
    4.8171    1.3016   19.1175 C   0  0  0  0  0  0  0  0  0  0  0  0
    3.8849    1.8375   19.2642 H   0  0  0  0  0  0  0  0  0  0  0  0
    5.4453    0.6451   20.1773 C   0  0  0  0  0  0  0  0  0  0  0  0
    5.0016    0.6330   21.1786 H   0  0  0  0  0  0  0  0  0  0  0  0
    8.5351   -1.3181   20.7497 N   0  0  0  0  0  0  0  0  0  0  0  0
  1  2  1  0
  2  3  2  0
  3  4  2  0
  4  5  1  0
  5  6  1  0
  6  7  2  0
  7  8  1  0
  8  9  1  0
  9 10  2  0
 10 11  1  0
 10 12  1  0
 12 13  2  0
 13 14  1  0
 13 15  1  0
 15 16  1  0
 15 17  2  0
 17 18  1  0
  8 19  1  0
 19  5  2  0
 17  9  1  0
M  CHG  1   3   1
M  END
>  <cnnaffinity>  (1) 
4.44332

>  <plip>  (1) 
-0.06896551724137931

>  <filename>  (1) 
[H][N]=[N+]=[N][c]1[n][n][n](-[c]2[c]([H])[n][c]([H])[c]([H])[c]2[H])[n]1

>  <combo1>  (1) 
-0.5399884086461437

$$$$
