
     RDKit          3D

 31 33  0  0  0  0  0  0  0  0999 V2000
    7.0750    5.4085   26.2171 H   0  0  0  0  0  0  0  0  0  0  0  0
    6.6334    5.0781   25.2780 C   0  0  0  0  0  0  0  0  0  0  0  0
    6.9928    3.8629   24.8487 N   0  0  0  0  0  0  0  0  0  0  0  0
    6.4602    3.4309   23.6851 C   0  0  0  0  0  0  0  0  0  0  0  0
    6.8403    2.1109   23.2098 C   0  0  0  0  0  0  0  0  0  0  0  0
    7.1327    1.0192   22.7685 C   0  0  0  0  0  0  0  0  0  0  0  0
    7.5171   -0.2992   22.2899 C   0  0  0  0  0  0  0  0  0  0  0  0
    8.0855   -1.1635   23.0417 N   0  0  0  0  0  0  0  0  0  0  0  0
    8.3838   -2.3345   22.2166 C   0  0  0  0  0  0  0  0  0  0  0  0
    7.8450   -3.2025   22.6043 H   0  0  0  0  0  0  0  0  0  0  0  0
    9.4509   -2.5615   22.2708 H   0  0  0  0  0  0  0  0  0  0  0  0
    7.9512   -1.9945   20.7852 C   0  0  0  0  0  0  0  0  0  0  0  0
    7.2186   -2.7105   20.3935 H   0  0  0  0  0  0  0  0  0  0  0  0
    8.8127   -1.9512   20.1061 H   0  0  0  0  0  0  0  0  0  0  0  0
    7.3453   -0.6787   20.9532 N   0  0  0  0  0  0  0  0  0  0  0  0
    6.6726    0.0074   19.9177 C   0  0  0  0  0  0  0  0  0  0  0  0
    7.1755    0.0578   18.5912 C   0  0  0  0  0  0  0  0  0  0  0  0
    8.1234   -0.4309   18.3751 H   0  0  0  0  0  0  0  0  0  0  0  0
    6.5671    0.6803   17.5729 N   0  0  0  0  0  0  0  0  0  0  0  0
    5.4007    1.2947   17.8372 C   0  0  0  0  0  0  0  0  0  0  0  0
    4.9070    1.7786   16.9983 H   0  0  0  0  0  0  0  0  0  0  0  0
    4.8093    1.3084   19.1087 C   0  0  0  0  0  0  0  0  0  0  0  0
    3.8727    1.8430   19.2641 H   0  0  0  0  0  0  0  0  0  0  0  0
    5.4485    0.6527   20.1685 C   0  0  0  0  0  0  0  0  0  0  0  0
    5.0192    0.6246   21.1683 H   0  0  0  0  0  0  0  0  0  0  0  0
    5.5543    4.2045   22.9328 C   0  0  0  0  0  0  0  0  0  0  0  0
    5.1515    3.8196   21.9999 H   0  0  0  0  0  0  0  0  0  0  0  0
    5.1929    5.4675   23.3999 C   0  0  0  0  0  0  0  0  0  0  0  0
    4.4978    6.0884   22.8366 H   0  0  0  0  0  0  0  0  0  0  0  0
    5.7436    5.9168   24.6001 C   0  0  0  0  0  0  0  0  0  0  0  0
    5.4902    6.8931   24.9986 H   0  0  0  0  0  0  0  0  0  0  0  0
  1  2  1  0
  2  3  2  0
  3  4  1  0
  4  5  1  0
  5  6  3  0
  6  7  1  0
  7  8  2  0
  8  9  1  0
  9 10  1  0
  9 11  1  0
  9 12  1  0
 12 13  1  0
 12 14  1  0
 12 15  1  0
 15 16  1  0
 16 17  2  0
 17 18  1  0
 17 19  1  0
 19 20  2  0
 20 21  1  0
 20 22  1  0
 22 23  1  0
 22 24  2  0
 24 25  1  0
  4 26  2  0
 26 27  1  0
 26 28  1  0
 28 29  1  0
 28 30  2  0
 30 31  1  0
 30  2  1  0
 15  7  1  0
 24 16  1  0
M  END
>  <cnnaffinity>  (1) 
4.75197

>  <plip>  (1) 
-0.03571428571428571

>  <filename>  (1) 
[H][c]1[n][c]([C]#[C][C]2=[N][C]([H])([H])[C]([H])([H])[N]2[c]2[c]([H])[n][c]([H])[c]([H])[c]2[H])[c]([H])[c]([H])[c]1[H]

>  <combo1>  (1) 
-0.22784364763872514

$$$$
