
     RDKit          3D

 28 28  0  0  0  0  0  0  0  0999 V2000
    4.9210    1.7804   17.0058 H   0  0  0  0  0  0  0  0  0  0  0  0
    5.4075    1.2862   17.8475 C   0  0  0  0  0  0  0  0  0  0  0  0
    6.5716    0.6701   17.5838 N   0  0  0  0  0  0  0  0  0  0  0  0
    7.1875    0.0496   18.5940 C   0  0  0  0  0  0  0  0  0  0  0  0
    8.1326   -0.4308   18.3631 H   0  0  0  0  0  0  0  0  0  0  0  0
    6.6862   -0.0210   19.9095 C   0  0  0  0  0  0  0  0  0  0  0  0
    7.3211   -0.6881   21.0063 N   0  0  0  0  0  0  0  0  0  0  0  0
    8.4005   -1.2522   20.7307 N   0  0  0  0  0  0  0  0  0  0  0  0
    9.0266   -1.9003   21.8906 C   0  0  0  0  0  0  0  0  0  0  0  0
    9.8538   -2.4839   21.4828 H   0  0  0  0  0  0  0  0  0  0  0  0
    8.3369   -2.6161   22.3475 H   0  0  0  0  0  0  0  0  0  0  0  0
    9.5713   -0.9310   22.9313 C   0  0  0  0  0  0  0  0  0  0  0  0
    9.9670   -1.4976   23.7831 H   0  0  0  0  0  0  0  0  0  0  0  0
    8.7298   -0.3463   23.3140 H   0  0  0  0  0  0  0  0  0  0  0  0
   10.6519   -0.0012   22.3908 C   0  0  0  0  0  0  0  0  0  0  0  0
   10.2480    0.5445   21.5317 H   0  0  0  0  0  0  0  0  0  0  0  0
   11.4900   -0.5905   21.9927 H   0  0  0  0  0  0  0  0  0  0  0  0
   11.1708    0.9788   23.4358 C   0  0  0  0  0  0  0  0  0  0  0  0
   10.3303    1.5663   23.8272 H   0  0  0  0  0  0  0  0  0  0  0  0
   11.5695    0.4188   24.2919 H   0  0  0  0  0  0  0  0  0  0  0  0
   12.2413    1.9137   22.8844 C   0  0  0  0  0  0  0  0  0  0  0  0
   12.6039    2.6096   23.6468 H   0  0  0  0  0  0  0  0  0  0  0  0
   13.1005    1.3474   22.5084 H   0  0  0  0  0  0  0  0  0  0  0  0
   11.8524    2.5041   22.0470 H   0  0  0  0  0  0  0  0  0  0  0  0
    5.4690    0.6275   20.1741 C   0  0  0  0  0  0  0  0  0  0  0  0
    5.0456    0.6075   21.1778 H   0  0  0  0  0  0  0  0  0  0  0  0
    4.8283    1.2917   19.1227 C   0  0  0  0  0  0  0  0  0  0  0  0
    3.8956    1.8257   19.2706 H   0  0  0  0  0  0  0  0  0  0  0  0
  1  2  1  0
  2  3  2  0
  3  4  1  0
  4  5  1  0
  4  6  2  0
  6  7  1  0
  7  8  2  3
  8  9  1  0
  9 10  1  0
  9 11  1  0
  9 12  1  0
 12 13  1  0
 12 14  1  0
 12 15  1  0
 15 16  1  0
 15 17  1  0
 15 18  1  0
 18 19  1  0
 18 20  1  0
 18 21  1  0
 21 22  1  0
 21 23  1  0
 21 24  1  0
  6 25  1  0
 25 26  1  0
 25 27  2  0
 27 28  1  0
 27  2  1  0
M  END
>  <cnnaffinity>  (1) 
4.76158

>  <plip>  (1) 
-0.06896551724137931

>  <filename>  (1) 
[H][c]1[n][c]([H])[c]([N]=[N][C]([H])([H])[C]([H])([H])[C]([H])([H])[C]([H])([H])[C]([H])([H])[H])[c]([H])[c]1[H]

>  <combo1>  (1) 
-0.6175514338164653

$$$$
