
     RDKit          3D

 33 35  0  0  0  0  0  0  0  0999 V2000
    5.8800   -0.8874   22.2141 H   0  0  0  0  0  0  0  0  0  0  0  0
    6.9139   -1.1009   21.9338 C   0  0  0  0  0  0  0  0  0  0  0  0
    7.3814   -0.8055   20.7868 N   0  0  0  0  0  0  0  0  0  0  0  0
    6.6472   -0.0613   19.8373 C   0  0  0  0  0  0  0  0  0  0  0  0
    7.1617    0.0253   18.5189 C   0  0  0  0  0  0  0  0  0  0  0  0
    8.0965   -0.4858   18.3074 H   0  0  0  0  0  0  0  0  0  0  0  0
    6.5741    0.6823   17.5146 N   0  0  0  0  0  0  0  0  0  0  0  0
    5.4158    1.3161   17.7870 C   0  0  0  0  0  0  0  0  0  0  0  0
    4.9489    1.8435   16.9587 H   0  0  0  0  0  0  0  0  0  0  0  0
    4.8239    1.3085   19.0533 C   0  0  0  0  0  0  0  0  0  0  0  0
    3.8923    1.8386   19.2185 H   0  0  0  0  0  0  0  0  0  0  0  0
    5.4494    0.6222   20.1013 C   0  0  0  0  0  0  0  0  0  0  0  0
    5.0340    0.6305   21.1089 H   0  0  0  0  0  0  0  0  0  0  0  0
    7.7605   -1.8319   22.9463 C   0  0  0  0  0  0  0  0  0  0  0  0
    8.1464   -2.7281   22.4491 H   0  0  0  0  0  0  0  0  0  0  0  0
    7.1294   -2.1640   23.7703 H   0  0  0  0  0  0  0  0  0  0  0  0
    8.9233   -0.9924   23.4386 C   0  0  0  0  0  0  0  0  0  0  0  0
    8.7845   -0.1124   24.5575 C   0  0  0  0  0  0  0  0  0  0  0  0
    7.8530   -0.1021   25.1239 H   0  0  0  0  0  0  0  0  0  0  0  0
    9.8062    0.7380   24.9209 C   0  0  0  0  0  0  0  0  0  0  0  0
    9.7164    1.4136   25.7692 H   0  0  0  0  0  0  0  0  0  0  0  0
   11.0208    0.7844   24.1701 C   0  0  0  0  0  0  0  0  0  0  0  0
   12.0613    1.7227   24.4418 C   0  0  0  0  0  0  0  0  0  0  0  0
   11.9278    2.4134   25.2695 H   0  0  0  0  0  0  0  0  0  0  0  0
   13.1829    1.7680   23.6503 C   0  0  0  0  0  0  0  0  0  0  0  0
   13.9431    2.5133   23.8357 H   0  0  0  0  0  0  0  0  0  0  0  0
   13.3430    0.8628   22.5637 C   0  0  0  0  0  0  0  0  0  0  0  0
   14.2412    0.9015   21.9542 H   0  0  0  0  0  0  0  0  0  0  0  0
   12.3585   -0.0486   22.2727 C   0  0  0  0  0  0  0  0  0  0  0  0
   12.4487   -0.7171   21.4173 H   0  0  0  0  0  0  0  0  0  0  0  0
   11.1680   -0.1051   23.0581 C   0  0  0  0  0  0  0  0  0  0  0  0
   10.0954   -0.9786   22.7158 C   0  0  0  0  0  0  0  0  0  0  0  0
   10.1941   -1.6019   21.8255 H   0  0  0  0  0  0  0  0  0  0  0  0
  1  2  1  0
  2  3  2  3
  3  4  1  0
  4  5  2  0
  5  6  1  0
  5  7  1  0
  7  8  2  0
  8  9  1  0
  8 10  1  0
 10 11  1  0
 10 12  2  0
 12 13  1  0
  2 14  1  0
 14 15  1  0
 14 16  1  0
 14 17  1  0
 17 18  2  0
 18 19  1  0
 18 20  1  0
 20 21  1  0
 20 22  2  0
 22 23  1  0
 23 24  1  0
 23 25  2  0
 25 26  1  0
 25 27  1  0
 27 28  1  0
 27 29  2  0
 29 30  1  0
 29 31  1  0
 31 32  2  0
 32 33  1  0
 12  4  1  0
 32 17  1  0
 31 22  1  0
M  END
>  <cnnaffinity>  (1) 
5.06519

>  <plip>  (1) 
-0.07142857142857142

>  <filename>  (1) 
[H][C](=[N][c]1[c]([H])[n][c]([H])[c]([H])[c]1[H])[C]([H])([H])[c]1[c]([H])[c]([H])[c]2[c]([H])[c]([H])[c]([H])[c]([H])[c]2[c]1[H]

>  <combo1>  (1) 
-0.48961996283087744

$$$$
