
     RDKit          3D

 29 31  0  0  0  0  0  0  0  0999 V2000
    4.9277    1.7812   16.9914 H   0  0  0  0  0  0  0  0  0  0  0  0
    5.4006    1.2925   17.8383 C   0  0  0  0  0  0  0  0  0  0  0  0
    6.5622    0.6754   17.5786 N   0  0  0  0  0  0  0  0  0  0  0  0
    7.1591    0.0666   18.6045 C   0  0  0  0  0  0  0  0  0  0  0  0
    8.1034   -0.4144   18.3675 H   0  0  0  0  0  0  0  0  0  0  0  0
    6.6440    0.0185   19.9080 C   0  0  0  0  0  0  0  0  0  0  0  0
    7.4034   -0.6961   20.9178 C   0  0  0  0  0  0  0  0  0  0  0  0
    6.8778   -0.7628   22.1762 O   0  0  0  0  0  0  0  0  0  0  0  0
    7.7328   -1.5070   22.9285 C   0  0  0  0  0  0  0  0  0  0  0  0
    7.4841   -1.6875   24.3926 C   0  0  1  0  0  0  0  0  0  0  0  0
    6.4074   -1.5719   24.5958 H   0  0  0  0  0  0  0  0  0  0  0  0
    7.8765   -3.0040   24.7705 O   0  0  0  0  0  0  0  0  0  0  0  0
    8.6803   -3.0171   25.9409 C   0  0  0  0  0  0  0  0  0  0  0  0
    9.6943   -3.3565   25.6766 H   0  0  0  0  0  0  0  0  0  0  0  0
    8.2486   -3.7522   26.6310 H   0  0  0  0  0  0  0  0  0  0  0  0
    8.6644   -1.5889   26.4977 C   0  0  0  0  0  0  0  0  0  0  0  0
    9.6228   -1.3251   26.9519 H   0  0  0  0  0  0  0  0  0  0  0  0
    7.8925   -1.4825   27.2661 H   0  0  0  0  0  0  0  0  0  0  0  0
    8.3290   -0.7301   25.2729 C   0  0  0  0  0  0  0  0  0  0  0  0
    7.7835    0.1880   25.5074 H   0  0  0  0  0  0  0  0  0  0  0  0
    9.2470   -0.4256   24.7543 H   0  0  0  0  0  0  0  0  0  0  0  0
    8.8078   -1.8806   22.1838 C   0  0  0  0  0  0  0  0  0  0  0  0
    9.6531   -2.4487   22.5487 H   0  0  0  0  0  0  0  0  0  0  0  0
    8.5938   -1.3615   20.8769 C   0  0  0  0  0  0  0  0  0  0  0  0
    9.2280   -1.4759   20.0090 H   0  0  0  0  0  0  0  0  0  0  0  0
    5.4168    0.6630   20.1673 C   0  0  0  0  0  0  0  0  0  0  0  0
    4.9867    0.6443   21.1738 H   0  0  0  0  0  0  0  0  0  0  0  0
    4.7967    1.3149   19.1036 C   0  0  0  0  0  0  0  0  0  0  0  0
    3.8660    1.8489   19.2480 H   0  0  0  0  0  0  0  0  0  0  0  0
  1  2  1  0
  2  3  2  0
  3  4  1  0
  4  5  1  0
  4  6  2  0
  6  7  1  0
  7  8  1  0
  8  9  1  0
  9 10  1  0
 10 11  1  6
 10 12  1  0
 12 13  1  0
 13 14  1  0
 13 15  1  0
 13 16  1  0
 16 17  1  0
 16 18  1  0
 16 19  1  0
 19 20  1  0
 19 21  1  0
  9 22  2  0
 22 23  1  0
 22 24  1  0
 24 25  1  0
  6 26  1  0
 26 27  1  0
 26 28  2  0
 28 29  1  0
 28  2  1  0
 24  7  2  0
 19 10  1  0
M  END
>  <cnnaffinity>  (1) 
4.27492

>  <plip>  (1) 
-0.0

>  <filename>  (1) 
[H][c]1[n][c]([H])[c](-[c]2[o][c]([C@@]3([H])[O][C]([H])([H])[C]([H])([H])[C]3([H])[H])[c]([H])[c]2[H])[c]([H])[c]1[H]

>  <combo1>  (1) 
-6.6200236621881936e-06

$$$$
