
     RDKit          3D

 36 39  0  0  0  0  0  0  0  0999 V2000
    8.2676    1.2157   22.2964 C   0  0  0  0  0  0  0  0  0  0  0  0
    7.5564   -0.0457   22.2299 N   0  0  0  0  0  0  0  0  0  0  0  0
    6.9337   -0.6291   23.2978 C   0  0  0  0  0  0  0  0  0  0  0  0
    6.8164   -0.1465   24.4014 O   0  0  0  0  0  0  0  0  0  0  0  0
    6.4655   -1.8902   22.8913 N   0  0  0  0  0  0  0  0  0  0  0  0
    5.6734   -2.7503   23.7127 C   0  0  0  0  0  0  0  0  0  0  0  0
    5.9574   -2.8452   25.0930 C   0  0  0  0  0  0  0  0  0  0  0  0
    5.1640   -3.6234   25.9324 C   0  0  0  0  0  0  0  0  0  0  0  0
    4.0361   -4.2730   25.3844 C   0  0  0  0  0  0  0  0  0  0  0  0
    2.9503   -5.0987   25.8693 C   0  0  0  0  0  0  0  0  0  0  0  0
    2.1481   -5.3262   24.8069 C   0  0  0  0  0  0  0  0  0  0  0  0
    2.6196   -4.7404   23.6660 O   0  0  0  0  0  0  0  0  0  0  0  0
    3.7693   -4.1091   24.0158 C   0  0  0  0  0  0  0  0  0  0  0  0
    4.5831   -3.4037   23.1408 C   0  0  0  0  0  0  0  0  0  0  0  0
    4.3554   -3.3202   22.0899 H   0  0  0  0  0  0  0  0  0  0  0  0
    1.2226   -5.8723   24.6894 H   0  0  0  0  0  0  0  0  0  0  0  0
    2.8036   -5.4730   26.8705 H   0  0  0  0  0  0  0  0  0  0  0  0
    5.3963   -3.6841   26.9925 H   0  0  0  0  0  0  0  0  0  0  0  0
    6.7811   -2.2591   25.4814 H   0  0  0  0  0  0  0  0  0  0  0  0
    6.6098   -2.0238   21.5186 C   0  0  0  0  0  0  0  0  0  0  0  0
    6.2380   -2.9505   20.8459 O   0  0  0  0  0  0  0  0  0  0  0  0
    7.3581   -0.7841   21.0020 C   0  0  0  0  0  0  0  0  0  0  0  0
    6.6359    0.0063   19.9017 C   0  0  0  0  0  0  0  0  0  0  0  0
    5.4159    0.6576   20.1321 C   0  0  0  0  0  0  0  0  0  0  0  0
    4.8029    1.3190   19.0684 C   0  0  0  0  0  0  0  0  0  0  0  0
    5.4230    1.3139   17.8162 C   0  0  0  0  0  0  0  0  0  0  0  0
    6.5905    0.7011   17.5766 N   0  0  0  0  0  0  0  0  0  0  0  0
    7.1758    0.0756   18.6056 C   0  0  0  0  0  0  0  0  0  0  0  0
    8.1266   -0.4099   18.3756 H   0  0  0  0  0  0  0  0  0  0  0  0
    4.9588    1.8122   16.9676 H   0  0  0  0  0  0  0  0  0  0  0  0
    3.8652    1.8417   19.1975 H   0  0  0  0  0  0  0  0  0  0  0  0
    4.9666    0.6694   21.1259 H   0  0  0  0  0  0  0  0  0  0  0  0
    8.3241   -1.1438   20.6130 H   0  0  0  0  0  0  0  0  0  0  0  0
    9.1012    1.1696   23.0046 H   0  0  0  0  0  0  0  0  0  0  0  0
    7.6068    2.0364   22.5965 H   0  0  0  0  0  0  0  0  0  0  0  0
    8.6755    1.4368   21.3046 H   0  0  0  0  0  0  0  0  0  0  0  0
  1  2  1  0
  2  3  1  0
  3  4  2  0
  3  5  1  0
  5  6  1  0
  6  7  2  0
  7  8  1  0
  8  9  2  0
  9 10  1  0
 10 11  2  0
 11 12  1  0
 12 13  1  0
 13 14  2  0
 14 15  1  0
 11 16  1  0
 10 17  1  0
  8 18  1  0
  7 19  1  0
  5 20  1  0
 20 21  2  0
 20 22  1  0
 22 23  1  0
 23 24  2  0
 24 25  1  0
 25 26  2  0
 26 27  1  0
 27 28  2  0
 28 29  1  0
 26 30  1  0
 25 31  1  0
 24 32  1  0
 22 33  1  0
  1 34  1  0
  1 35  1  0
  1 36  1  0
 22  2  1  0
 28 23  1  0
 14  6  1  0
 13  9  1  0
M  END
>  <cnnaffinity>  (1) 
5.08707

>  <plip>  (1) 
-0.06896551724137931

>  <filename>  (1) 
[H][c]1[n][c]([H])[c]([C]2([H])[C](=[O])[N]([c]3[c]([H])[c]([H])[c]4[c]([H])[c]([H])[o][c]4[c]3[H])[C](=[O])[N]2[C]([H])([H])[H])[c]([H])[c]1[H]

>  <combo1>  (1) 
-0.38054250910658166

$$$$
