
     RDKit          3D

 22 23  0  0  0  0  0  0  0  0999 V2000
    4.9690    1.7972   17.0050 H   0  0  0  0  0  0  0  0  0  0  0  0
    5.4363    1.2872   17.8420 C   0  0  0  0  0  0  0  0  0  0  0  0
    6.5953    0.6673   17.5747 N   0  0  0  0  0  0  0  0  0  0  0  0
    7.2138    0.0447   18.5862 C   0  0  0  0  0  0  0  0  0  0  0  0
    8.1566   -0.4449   18.3427 H   0  0  0  0  0  0  0  0  0  0  0  0
    6.7111    0.0020   19.9157 C   0  0  0  0  0  0  0  0  0  0  0  0
    7.4050   -0.5527   20.9809 N   0  0  0  0  0  0  0  0  0  0  0  0
    6.9080   -0.8632   21.8101 H   0  0  0  0  0  0  0  0  0  0  0  0
    8.6696   -1.1232   20.7234 N   0  0  0  0  0  0  0  0  0  0  0  0
    9.2977   -0.3395   20.4846 H   0  0  0  0  0  0  0  0  0  0  0  0
    9.2432   -1.7234   21.8900 N   0  0  0  0  0  0  0  0  0  0  0  0
    8.6810   -2.6934   22.6812 C   0  0  0  0  0  0  0  0  0  0  0  0
    7.6108   -2.8785   22.7066 H   0  0  0  0  0  0  0  0  0  0  0  0
    9.5919   -3.3402   23.3595 N   0  0  0  0  0  0  0  0  0  0  0  0
   10.7997   -2.7981   22.9679 C   0  0  0  0  0  0  0  0  0  0  0  0
   11.7327   -3.1935   23.3446 H   0  0  0  0  0  0  0  0  0  0  0  0
   10.6115   -1.8075   22.0527 C   0  0  0  0  0  0  0  0  0  0  0  0
   11.2830   -1.1610   21.4990 H   0  0  0  0  0  0  0  0  0  0  0  0
    5.4717    0.6197   20.1596 C   0  0  0  0  0  0  0  0  0  0  0  0
    5.0515    0.6171   21.1669 H   0  0  0  0  0  0  0  0  0  0  0  0
    4.8357    1.2795   19.1077 C   0  0  0  0  0  0  0  0  0  0  0  0
    3.8959    1.7986   19.2578 H   0  0  0  0  0  0  0  0  0  0  0  0
  1  2  1  0
  2  3  2  0
  3  4  1  0
  4  5  1  0
  4  6  2  0
  6  7  1  0
  7  8  1  0
  7  9  1  0
  9 10  1  0
  9 11  1  0
 11 12  1  0
 12 13  1  0
 12 14  2  0
 14 15  1  0
 15 16  1  0
 15 17  2  0
 17 18  1  0
  6 19  1  0
 19 20  1  0
 19 21  2  0
 21 22  1  0
 21  2  1  0
 17 11  1  0
M  END
>  <cnnaffinity>  (1) 
4.35764

>  <plip>  (1) 
-0.10714285714285714

>  <filename>  (1) 
[H][c]1[n][c]([H])[c]([N]([H])[N]([H])[n]2[c]([H])[n][c]([H])[c]2[H])[c]([H])[c]1[H]

>  <combo1>  (1) 
-0.8883244384828333

$$$$
