
     RDKit          3D

 32 33  0  0  0  0  0  0  0  0999 V2000
    4.9374    1.7863   17.0065 H   0  0  0  0  0  0  0  0  0  0  0  0
    5.4129    1.2743   17.8403 C   0  0  0  0  0  0  0  0  0  0  0  0
    6.5680    0.6391   17.5734 N   0  0  0  0  0  0  0  0  0  0  0  0
    7.1763    0.0155   18.5878 C   0  0  0  0  0  0  0  0  0  0  0  0
    8.1202   -0.4803   18.3687 H   0  0  0  0  0  0  0  0  0  0  0  0
    6.6628   -0.0251   19.8944 C   0  0  0  0  0  0  0  0  0  0  0  0
    7.4512   -0.6198   20.8497 O   0  0  0  0  0  0  0  0  0  0  0  0
    6.9449   -1.4885   21.8000 C   0  0  0  0  0  0  0  0  0  0  0  0
    5.8761   -2.4271   21.8009 C   0  0  0  0  0  0  0  0  0  0  0  0
    5.1419   -2.6221   21.0277 H   0  0  0  0  0  0  0  0  0  0  0  0
    5.8368   -3.1078   22.9415 N   0  0  0  0  0  0  0  0  0  0  0  0
    6.8899   -2.6443   23.6568 N   0  0  0  0  0  0  0  0  0  0  0  0
    7.0707   -2.9188   24.6122 H   0  0  0  0  0  0  0  0  0  0  0  0
    7.5894   -1.6961   23.0044 C   0  0  0  0  0  0  0  0  0  0  0  0
    8.7005   -1.2159   23.5948 O   0  0  0  0  0  0  0  0  0  0  0  0
    9.6149   -0.4752   22.7621 C   0  0  0  0  0  0  0  0  0  0  0  0
    9.7574   -1.0221   21.8223 H   0  0  0  0  0  0  0  0  0  0  0  0
    9.2143    0.5231   22.5452 H   0  0  0  0  0  0  0  0  0  0  0  0
   10.9367   -0.3989   23.5019 C   0  0  0  0  0  0  0  0  0  0  0  0
   11.1625   -1.4570   23.6718 H   0  0  0  0  0  0  0  0  0  0  0  0
   12.0138    0.2205   22.6078 C   0  0  0  0  0  0  0  0  0  0  0  0
   12.9811    0.2511   23.1215 H   0  0  0  0  0  0  0  0  0  0  0  0
   11.7550    1.2486   22.3129 H   0  0  0  0  0  0  0  0  0  0  0  0
   12.1428   -0.3758   21.6973 H   0  0  0  0  0  0  0  0  0  0  0  0
   10.8125    0.3172   24.8482 C   0  0  0  0  0  0  0  0  0  0  0  0
   10.4448    1.3457   24.7251 H   0  0  0  0  0  0  0  0  0  0  0  0
   10.1086   -0.2171   25.4920 H   0  0  0  0  0  0  0  0  0  0  0  0
   11.7790    0.3629   25.3622 H   0  0  0  0  0  0  0  0  0  0  0  0
    5.4611    0.6320   20.1739 C   0  0  0  0  0  0  0  0  0  0  0  0
    5.0493    0.6447   21.1825 H   0  0  0  0  0  0  0  0  0  0  0  0
    4.8297    1.2904   19.1097 C   0  0  0  0  0  0  0  0  0  0  0  0
    3.8972    1.8210   19.2635 H   0  0  0  0  0  0  0  0  0  0  0  0
  1  2  1  0
  2  3  2  0
  3  4  1  0
  4  5  1  0
  4  6  2  0
  6  7  1  0
  7  8  1  0
  8  9  1  0
  9 10  1  0
  9 11  2  0
 11 12  1  0
 12 13  1  0
 12 14  1  0
 14 15  1  0
 15 16  1  0
 16 17  1  0
 16 18  1  0
 16 19  1  0
 19 20  1  0
 19 21  1  0
 21 22  1  0
 21 23  1  0
 21 24  1  0
 19 25  1  0
 25 26  1  0
 25 27  1  0
 25 28  1  0
  6 29  1  0
 29 30  1  0
 29 31  2  0
 31 32  1  0
 31  2  1  0
 14  8  2  0
M  END
>  <cnnaffinity>  (1) 
5.00903

>  <plip>  (1) 
-0.06896551724137931

>  <filename>  (1) 
[H][c]1[n][c]([H])[c]([O][c]2[c]([H])[n][n]([H])[c]2[O][C]([H])([H])[C]([H])([C]([H])([H])[H])[C]([H])([H])[H])[c]([H])[c]1[H]

>  <combo1>  (1) 
-0.49363236297065943

$$$$
