
     RDKit          3D

 29 31  0  0  0  0  0  0  0  0999 V2000
    4.9751    1.7629   16.9271 H   0  0  0  0  0  0  0  0  0  0  0  0
    5.4109    1.2379   17.7742 C   0  0  0  0  0  0  0  0  0  0  0  0
    6.5401    0.5567   17.5228 N   0  0  0  0  0  0  0  0  0  0  0  0
    7.1098   -0.0776   18.5554 C   0  0  0  0  0  0  0  0  0  0  0  0
    8.0186   -0.6346   18.3194 H   0  0  0  0  0  0  0  0  0  0  0  0
    6.6096   -0.0751   19.8677 C   0  0  0  0  0  0  0  0  0  0  0  0
    7.3598   -0.8151   20.9620 C   0  0  1  0  0  0  0  0  0  0  0  0
    8.3725   -1.0346   20.5928 H   0  0  0  0  0  0  0  0  0  0  0  0
    7.4370   -0.0705   22.2281 N   0  0  0  0  0  0  0  0  0  0  0  0
    8.2487    1.0026   22.5431 C   0  0  0  0  0  0  0  0  0  0  0  0
    8.7159    1.7135   21.4325 N   0  0  0  0  0  0  0  0  0  0  0  0
    9.5474    2.7915   21.5591 C   0  0  0  0  0  0  0  0  0  0  0  0
    8.3506    1.5556   20.4774 H   0  0  0  0  0  0  0  0  0  0  0  0
    9.8882    3.2443   22.8361 C   0  0  0  0  0  0  0  0  0  0  0  0
   10.6389    4.3385   22.9962 F   0  0  0  0  0  0  0  0  0  0  0  0
    9.4578    2.5456   23.9677 C   0  0  0  0  0  0  0  0  0  0  0  0
    9.7791    2.9206   24.9429 H   0  0  0  0  0  0  0  0  0  0  0  0
    8.6569    1.4054   23.8078 C   0  0  0  0  0  0  0  0  0  0  0  0
    8.3449    0.8200   24.6543 H   0  0  0  0  0  0  0  0  0  0  0  0
    6.7882   -0.7410   23.2495 C   0  0  0  0  0  0  0  0  0  0  0  0
    6.5293   -0.3193   24.3399 O   0  0  0  0  0  0  0  0  0  0  0  0
    6.4884   -1.9893   22.8309 O   0  0  0  0  0  0  0  0  0  0  0  0
    6.6836   -2.1257   21.4284 C   0  0  0  0  0  0  0  0  0  0  0  0
    5.7040   -2.2884   20.9688 H   0  0  0  0  0  0  0  0  0  0  0  0
    7.3043   -3.0072   21.2504 H   0  0  0  0  0  0  0  0  0  0  0  0
    5.4091    0.6145   20.0996 C   0  0  0  0  0  0  0  0  0  0  0  0
    4.9701    0.6471   21.0973 H   0  0  0  0  0  0  0  0  0  0  0  0
    4.8042    1.2855   19.0326 C   0  0  0  0  0  0  0  0  0  0  0  0
    3.8854    1.8490   19.1696 H   0  0  0  0  0  0  0  0  0  0  0  0
  1  2  1  0
  2  3  2  0
  3  4  1  0
  4  5  1  0
  4  6  2  0
  6  7  1  0
  7  8  1  6
  7  9  1  0
  9 10  1  0
 10 11  2  0
 11 12  1  0
 12 13  1  0
 12 14  2  0
 14 15  1  0
 14 16  1  0
 16 17  1  0
 16 18  2  0
 18 19  1  0
  9 20  1  0
 20 21  2  0
 20 22  1  0
 22 23  1  0
 23 24  1  0
 23 25  1  0
  6 26  1  0
 26 27  1  0
 26 28  2  0
 28 29  1  0
 28  2  1  0
 23  7  1  0
 18 10  1  0
M  END
>  <cnnaffinity>  (1) 
4.08119

>  <plip>  (1) 
-0.07142857142857142

>  <filename>  (1) 
[H][c]1[n][c]([H])[c]([C@@]2([H])[N]([c]3[n][c]([H])[c]([F])[c]([H])[c]3[H])[C](=[O])[O][C]2([H])[H])[c]([H])[c]1[H]

>  <combo1>  (1) 
-0.374831007854461

$$$$
