
     RDKit          3D

 38 40  0  0  0  0  0  0  0  0999 V2000
   10.6390   -0.9033   22.4744 C   0  0  0  0  0  0  0  0  0  0  0  0
    9.9430   -0.6605   21.1444 C   0  0  0  0  0  0  0  0  0  0  0  0
    8.6504    0.0085   21.2974 N   0  0  0  0  0  0  0  0  0  0  0  0
    7.4086   -0.7000   20.9981 C   0  0  0  0  0  0  0  0  0  0  0  0
    6.6225   -0.0144   19.9012 C   0  0  0  0  0  0  0  0  0  0  0  0
    5.4150    0.6506   20.1511 C   0  0  0  0  0  0  0  0  0  0  0  0
    4.7810    1.3134   19.0936 C   0  0  0  0  0  0  0  0  0  0  0  0
    5.3865    1.2957   17.8326 C   0  0  0  0  0  0  0  0  0  0  0  0
    6.5486    0.6779   17.5780 N   0  0  0  0  0  0  0  0  0  0  0  0
    7.1489    0.0582   18.6004 C   0  0  0  0  0  0  0  0  0  0  0  0
    8.1054   -0.4085   18.3596 H   0  0  0  0  0  0  0  0  0  0  0  0
    4.9271    1.8012   16.9844 H   0  0  0  0  0  0  0  0  0  0  0  0
    3.8522    1.8587   19.2265 H   0  0  0  0  0  0  0  0  0  0  0  0
    5.0111    0.6679   21.1683 H   0  0  0  0  0  0  0  0  0  0  0  0
    6.8057   -0.7680   21.9110 H   0  0  0  0  0  0  0  0  0  0  0  0
    7.6765   -1.7225   20.6974 H   0  0  0  0  0  0  0  0  0  0  0  0
    8.6724    1.3534   21.6478 C   0  0  0  0  0  0  0  0  0  0  0  0
    9.6264    2.0559   21.3308 O   0  0  0  0  0  0  0  0  0  0  0  0
    7.4803    1.9578   22.4795 C   0  0  0  0  0  0  0  0  0  0  0  0
    7.1937    3.3553   22.3405 C   0  0  0  0  0  0  0  0  0  0  0  0
    6.1786    3.9219   23.0700 C   0  0  0  0  0  0  0  0  0  0  0  0
    5.4444    3.1040   23.9759 C   0  0  0  0  0  0  0  0  0  0  0  0
    4.3647    3.5226   24.7972 C   0  0  0  0  0  0  0  0  0  0  0  0
    3.7107    2.7237   25.6131 N   0  0  0  0  0  0  0  0  0  0  0  0
    4.0865    1.4187   25.6978 C   0  0  0  0  0  0  0  0  0  0  0  0
    5.1112    0.8880   24.9609 C   0  0  0  0  0  0  0  0  0  0  0  0
    5.8047    1.7361   24.0720 C   0  0  0  0  0  0  0  0  0  0  0  0
    6.7842    1.1885   23.3108 N   0  0  0  0  0  0  0  0  0  0  0  0
    5.4138   -0.1474   25.0078 H   0  0  0  0  0  0  0  0  0  0  0  0
    3.5066    0.8139   26.3958 H   0  0  0  0  0  0  0  0  0  0  0  0
    4.0332    4.5651   24.7640 H   0  0  0  0  0  0  0  0  0  0  0  0
    5.9318    4.9774   22.9654 H   0  0  0  0  0  0  0  0  0  0  0  0
    7.7955    3.9534   21.6669 H   0  0  0  0  0  0  0  0  0  0  0  0
   10.5760   -0.0087   20.5523 H   0  0  0  0  0  0  0  0  0  0  0  0
    9.7818   -1.5967   20.5955 H   0  0  0  0  0  0  0  0  0  0  0  0
   10.8624    0.0555   22.9545 H   0  0  0  0  0  0  0  0  0  0  0  0
   10.0265   -1.5034   23.1537 H   0  0  0  0  0  0  0  0  0  0  0  0
   11.5899   -1.4175   22.3028 H   0  0  0  0  0  0  0  0  0  0  0  0
  1  2  1  0
  2  3  1  0
  3  4  1  0
  4  5  1  0
  5  6  2  0
  6  7  1  0
  7  8  2  0
  8  9  1  0
  9 10  2  0
 10 11  1  0
  8 12  1  0
  7 13  1  0
  6 14  1  0
  4 15  1  0
  4 16  1  0
  3 17  1  0
 17 18  2  0
 17 19  1  0
 19 20  2  0
 20 21  1  0
 21 22  2  0
 22 23  1  0
 23 24  2  0
 24 25  1  0
 25 26  2  0
 26 27  1  0
 27 28  2  0
 26 29  1  0
 25 30  1  0
 23 31  1  0
 21 32  1  0
 20 33  1  0
  2 34  1  0
  2 35  1  0
  1 36  1  0
  1 37  1  0
  1 38  1  0
 10  5  1  0
 28 19  1  0
 27 22  1  0
M  END
>  <cnnaffinity>  (1) 
4.99003

>  <plip>  (1) 
-0.10714285714285714

>  <filename>  (1) 
[H][c]1[n][c]([H])[c]([C]([H])([H])[N]([C](=[O])[c]2[n][c]3[c]([H])[c]([H])[n][c]([H])[c]3[c]([H])[c]2[H])[C]([H])([H])[C]([H])([H])[H])[c]([H])[c]1[H]

>  <combo1>  (1) 
-0.6096125672768787

$$$$
