
     RDKit          3D

 39 42  0  0  0  0  0  0  0  0999 V2000
    8.2722    1.2351   22.2902 C   0  0  0  0  0  0  0  0  0  0  0  0
    7.5527   -0.0260   22.2428 N   0  0  0  0  0  0  0  0  0  0  0  0
    6.9946   -0.5884   23.3521 C   0  0  0  0  0  0  0  0  0  0  0  0
    6.9752   -0.0833   24.4537 O   0  0  0  0  0  0  0  0  0  0  0  0
    6.4845   -1.8417   23.0044 N   0  0  0  0  0  0  0  0  0  0  0  0
    5.8061   -2.7278   23.8915 C   0  0  0  0  0  0  0  0  0  0  0  0
    5.7917   -4.0757   23.6412 C   0  0  0  0  0  0  0  0  0  0  0  0
    4.9728   -4.9394   24.4240 C   0  0  0  0  0  0  0  0  0  0  0  0
    4.9679   -6.3486   24.2166 C   0  0  0  0  0  0  0  0  0  0  0  0
    4.1618   -7.1717   24.9700 C   0  0  0  0  0  0  0  0  0  0  0  0
    3.2900   -6.6213   25.9558 C   0  0  0  0  0  0  0  0  0  0  0  0
    3.2509   -5.2610   26.1713 C   0  0  0  0  0  0  0  0  0  0  0  0
    4.1127   -4.3908   25.4297 C   0  0  0  0  0  0  0  0  0  0  0  0
    4.2072   -2.9870   25.6557 C   0  0  0  0  0  0  0  0  0  0  0  0
    3.4112   -2.4438   26.5900 F   0  0  0  0  0  0  0  0  0  0  0  0
    5.0725   -2.1765   24.9742 C   0  0  0  0  0  0  0  0  0  0  0  0
    5.1490   -1.1240   25.2044 H   0  0  0  0  0  0  0  0  0  0  0  0
    2.5738   -4.8276   26.9028 H   0  0  0  0  0  0  0  0  0  0  0  0
    2.6546   -7.2892   26.5360 H   0  0  0  0  0  0  0  0  0  0  0  0
    4.1770   -8.2465   24.8147 H   0  0  0  0  0  0  0  0  0  0  0  0
    5.6287   -6.7531   23.4534 H   0  0  0  0  0  0  0  0  0  0  0  0
    6.3895   -4.4902   22.8408 H   0  0  0  0  0  0  0  0  0  0  0  0
    6.5383   -2.0187   21.6344 C   0  0  0  0  0  0  0  0  0  0  0  0
    6.1052   -2.9592   21.0180 O   0  0  0  0  0  0  0  0  0  0  0  0
    7.2995   -0.8131   21.0539 C   0  0  0  0  0  0  0  0  0  0  0  0
    6.5905   -0.0302   19.9576 C   0  0  0  0  0  0  0  0  0  0  0  0
    5.3736    0.6326   20.1593 C   0  0  0  0  0  0  0  0  0  0  0  0
    4.8074    1.3047   19.0769 C   0  0  0  0  0  0  0  0  0  0  0  0
    5.4748    1.2970   17.8481 C   0  0  0  0  0  0  0  0  0  0  0  0
    6.6405    0.6686   17.6406 N   0  0  0  0  0  0  0  0  0  0  0  0
    7.1788    0.0341   18.6868 C   0  0  0  0  0  0  0  0  0  0  0  0
    8.1340   -0.4685   18.5172 H   0  0  0  0  0  0  0  0  0  0  0  0
    5.0580    1.8166   16.9900 H   0  0  0  0  0  0  0  0  0  0  0  0
    3.8801    1.8511   19.1772 H   0  0  0  0  0  0  0  0  0  0  0  0
    4.8967    0.6415   21.1410 H   0  0  0  0  0  0  0  0  0  0  0  0
    8.2339   -1.2300   20.6470 H   0  0  0  0  0  0  0  0  0  0  0  0
    8.6589    1.4741   21.2947 H   0  0  0  0  0  0  0  0  0  0  0  0
    7.6279    2.0579   22.6217 H   0  0  0  0  0  0  0  0  0  0  0  0
    9.1095    1.1657   22.9921 H   0  0  0  0  0  0  0  0  0  0  0  0
  1  2  1  0
  2  3  1  0
  3  4  2  0
  3  5  1  0
  5  6  1  0
  6  7  2  0
  7  8  1  0
  8  9  2  0
  9 10  1  0
 10 11  2  0
 11 12  1  0
 12 13  2  0
 13 14  1  0
 14 15  1  0
 14 16  2  0
 16 17  1  0
 12 18  1  0
 11 19  1  0
 10 20  1  0
  9 21  1  0
  7 22  1  0
  5 23  1  0
 23 24  2  0
 23 25  1  0
 25 26  1  0
 26 27  2  0
 27 28  1  0
 28 29  2  0
 29 30  1  0
 30 31  2  0
 31 32  1  0
 29 33  1  0
 28 34  1  0
 27 35  1  0
 25 36  1  0
  1 37  1  0
  1 38  1  0
  1 39  1  0
 25  2  1  0
 31 26  1  0
 16  6  1  0
 13  8  1  0
M  END
>  <cnnaffinity>  (1) 
5.32639

>  <plip>  (1) 
-0.10714285714285714

>  <filename>  (1) 
[H][c]1[n][c]([H])[c]([C]2([H])[C](=[O])[N]([c]3[c]([H])[c]([F])[c]4[c]([H])[c]([H])[c]([H])[c]([H])[c]4[c]3[H])[C](=[O])[N]2[C]([H])([H])[H])[c]([H])[c]1[H]

>  <combo1>  (1) 
-0.5672730626583158

$$$$
