
     RDKit          3D

 33 35  0  0  0  0  0  0  0  0999 V2000
    4.5006    1.5038   18.5639 C   0  0  0  0  0  0  0  0  0  0  0  0
    5.2989    1.6691   17.4283 C   0  0  0  0  0  0  0  0  0  0  0  0
    6.4060    0.9462   17.1942 N   0  0  0  0  0  0  0  0  0  0  0  0
    6.7799    0.0738   18.1370 C   0  0  0  0  0  0  0  0  0  0  0  0
    6.0909   -0.1242   19.3419 C   0  0  0  0  0  0  0  0  0  0  0  0
    6.7442   -0.9042   20.4438 C   0  0  0  0  0  0  0  0  0  0  0  0
    7.6573    0.0739   21.0834 N   0  0  0  0  0  4  0  0  0  0  0  0
    8.4636   -0.3139   22.2607 C   0  0  0  0  0  0  0  0  0  0  0  0
    9.7824   -1.0011   21.8306 C   0  0  0  0  0  0  0  0  0  0  0  0
   10.6449   -1.4736   23.0158 C   0  0  0  0  0  0  0  0  0  0  0  0
   10.6140   -0.4262   24.1034 C   0  0  0  0  0  0  0  0  0  0  0  0
    9.7651    0.6348   24.1208 C   0  0  0  0  0  0  0  0  0  0  0  0
    8.7559    0.9683   23.0683 C   0  0  0  0  0  0  0  0  0  0  0  0
    9.1751    1.7418   22.4032 H   0  0  0  0  0  0  0  0  0  0  0  0
    7.8272    1.3549   23.5023 H   0  0  0  0  0  0  0  0  0  0  0  0
    9.9364    1.3650   25.2273 O   0  0  0  0  0  0  0  0  0  0  0  0
   10.9353    0.7878   25.9827 N   0  0  0  0  0  0  0  0  0  0  0  0
   11.3197   -0.2667   25.3176 C   0  0  0  0  0  0  0  0  0  0  0  0
   12.1244   -0.8858   25.6956 H   0  0  0  0  0  0  0  0  0  0  0  0
   10.2938   -2.4411   23.4111 H   0  0  0  0  0  0  0  0  0  0  0  0
   11.6693   -1.6346   22.6562 H   0  0  0  0  0  0  0  0  0  0  0  0
    9.5591   -1.8306   21.1481 H   0  0  0  0  0  0  0  0  0  0  0  0
   10.3737   -0.2560   21.2787 H   0  0  0  0  0  0  0  0  0  0  0  0
    7.8844   -0.9954   22.9076 H   0  0  0  0  0  0  0  0  0  0  0  0
    8.3158    0.4053   20.3361 H   0  0  0  0  0  0  0  0  0  0  0  0
    7.0753    0.9136   21.3058 H   0  0  0  0  0  0  0  0  0  0  0  0
    6.0023   -1.2836   21.1563 H   0  0  0  0  0  0  0  0  0  0  0  0
    7.2977   -1.7636   20.0465 H   0  0  0  0  0  0  0  0  0  0  0  0
    4.8831    0.5637   19.5219 C   0  0  0  0  0  0  0  0  0  0  0  0
    4.2718    0.3873   20.4104 H   0  0  0  0  0  0  0  0  0  0  0  0
    7.6638   -0.5229   17.9052 H   0  0  0  0  0  0  0  0  0  0  0  0
    5.0290    2.3998   16.6690 H   0  0  0  0  0  0  0  0  0  0  0  0
    3.6224    2.1279   18.7028 H   0  0  0  0  0  0  0  0  0  0  0  0
  1  2  2  0
  2  3  1  0
  3  4  2  0
  4  5  1  0
  5  6  1  0
  6  7  1  0
  7  8  1  0
  8  9  1  0
  9 10  1  0
 10 11  1  0
 11 12  2  0
 12 13  1  0
 13 14  1  0
 13 15  1  0
 12 16  1  0
 16 17  1  0
 17 18  2  0
 18 19  1  0
 10 20  1  0
 10 21  1  0
  9 22  1  0
  9 23  1  0
  8 24  1  0
  7 25  1  0
  7 26  1  0
  6 27  1  0
  6 28  1  0
  5 29  2  0
 29 30  1  0
  4 31  1  0
  2 32  1  0
  1 33  1  0
 29  1  1  0
 13  8  1  0
 18 11  1  0
M  CHG  1   7   1
M  END
>  <cnnaffinity>  (1) 
4.55705

>  <plip>  (1) 
-0.0

>  <filename>  (1) 
[H][c]1[n][c]([H])[c]([C]([H])([H])[N+]([H])([H])[C]2([H])[C]([H])([H])[c]3[o][n][c]([H])[c]3[C]([H])([H])[C]2([H])[H])[c]([H])[c]1[H]

>  <combo1>  (1) 
-6.596074821276846e-06

$$$$
