
     RDKit          3D

 29 31  0  0  0  0  0  0  0  0999 V2000
    4.9177    1.7906   16.9843 H   0  0  0  0  0  0  0  0  0  0  0  0
    5.3952    1.2996   17.8273 C   0  0  0  0  0  0  0  0  0  0  0  0
    6.5564    0.6802   17.5655 N   0  0  0  0  0  0  0  0  0  0  0  0
    7.1628    0.0721   18.5913 C   0  0  0  0  0  0  0  0  0  0  0  0
    8.1051   -0.4221   18.3648 H   0  0  0  0  0  0  0  0  0  0  0  0
    6.6479    0.0083   19.9005 C   0  0  0  0  0  0  0  0  0  0  0  0
    7.3640   -0.7185   20.9792 C   0  0  0  0  0  0  0  0  0  0  0  0
    8.7777   -0.5613   21.1404 C   0  0  0  0  0  0  0  0  0  0  0  0
    9.3010    0.1131   20.4553 H   0  0  0  0  0  0  0  0  0  0  0  0
    9.4206   -1.2136   22.1456 C   0  0  0  0  0  0  0  0  0  0  0  0
   10.4847   -1.1275   22.3066 H   0  0  0  0  0  0  0  0  0  0  0  0
    8.7400   -2.1015   23.0898 C   0  0  0  0  0  0  0  0  0  0  0  0
    9.3131   -2.6899   23.9760 O   0  0  0  0  0  0  0  0  0  0  0  0
    7.3170   -2.2261   22.8693 N   0  0  0  0  0  0  0  0  0  0  0  0
    6.5479   -3.0304   23.6968 C   0  0  0  0  0  0  0  0  0  0  0  0
    5.2744   -3.2290   23.6048 N   0  0  0  0  0  0  0  0  0  0  0  0
    4.9495   -4.1083   24.6218 N   0  0  0  0  0  0  0  0  0  0  0  0
    6.0455   -4.3765   25.2408 C   0  0  0  0  0  0  0  0  0  0  0  0
    6.1838   -5.2690   26.4187 C   0  0  0  0  0  0  0  0  0  0  0  0
    5.4713   -6.0922   26.3311 H   0  0  0  0  0  0  0  0  0  0  0  0
    5.9222   -4.7344   27.3368 H   0  0  0  0  0  0  0  0  0  0  0  0
    7.1935   -5.6659   26.5233 H   0  0  0  0  0  0  0  0  0  0  0  0
    7.1132   -3.7299   24.7112 O   0  0  0  0  0  0  0  0  0  0  0  0
    6.6884   -1.5353   21.8399 C   0  0  0  0  0  0  0  0  0  0  0  0
    5.6119   -1.6888   21.7372 H   0  0  0  0  0  0  0  0  0  0  0  0
    5.4248    0.6503   20.1477 C   0  0  0  0  0  0  0  0  0  0  0  0
    5.0095    0.6361   21.1590 H   0  0  0  0  0  0  0  0  0  0  0  0
    4.7998    1.3193   19.0948 C   0  0  0  0  0  0  0  0  0  0  0  0
    3.8685    1.8487   19.2482 H   0  0  0  0  0  0  0  0  0  0  0  0
  1  2  1  0
  2  3  2  0
  3  4  1  0
  4  5  1  0
  4  6  2  0
  6  7  1  0
  7  8  1  0
  8  9  1  0
  8 10  2  0
 10 11  1  0
 10 12  1  0
 12 13  2  0
 12 14  1  0
 14 15  1  0
 15 16  2  0
 16 17  1  0
 17 18  2  0
 18 19  1  0
 19 20  1  0
 19 21  1  0
 19 22  1  0
 18 23  1  0
 14 24  1  0
 24 25  1  0
  6 26  1  0
 26 27  1  0
 26 28  2  0
 28 29  1  0
 28  2  1  0
 24  7  2  0
 23 15  1  0
M  END
>  <cnnaffinity>  (1) 
4.9011

>  <plip>  (1) 
-0.03571428571428571

>  <filename>  (1) 
[H][c]1[n][c]([H])[c](-[c]2[c]([H])[c]([H])[c](=[O])[n](-[c]3[n][n][c]([C]([H])([H])[H])[o]3)[c]2[H])[c]([H])[c]1[H]

>  <combo1>  (1) 
-0.2294853807544123

$$$$
