
     RDKit          3D

 46 48  0  0  0  0  0  0  0  0999 V2000
    4.9531    1.8518   16.9564 H   0  0  0  0  0  0  0  0  0  0  0  0
    5.4133    1.3199   17.7851 C   0  0  0  0  0  0  0  0  0  0  0  0
    6.5498    0.6625   17.5066 N   0  0  0  0  0  0  0  0  0  0  0  0
    7.1447    0.0174   18.5166 C   0  0  0  0  0  0  0  0  0  0  0  0
    8.0576   -0.5229   18.2578 H   0  0  0  0  0  0  0  0  0  0  0  0
    6.6706   -0.0081   19.8463 C   0  0  0  0  0  0  0  0  0  0  0  0
    7.4941   -0.7193   20.9244 C   0  0  1  0  0  0  0  0  0  0  0  0
    7.8390   -1.6481   20.4486 H   0  0  0  0  0  0  0  0  0  0  0  0
    8.7873    0.0271   21.3753 C   0  0  0  0  0  0  0  0  0  0  0  0
    9.5143   -0.7131   21.7445 H   0  0  0  0  0  0  0  0  0  0  0  0
    9.2622    0.5073   20.5124 H   0  0  0  0  0  0  0  0  0  0  0  0
    8.6154    1.0506   22.4057 N   0  0  0  0  0  0  0  0  0  0  0  0
    8.0488    1.8065   22.0218 H   0  0  0  0  0  0  0  0  0  0  0  0
    7.9366    0.5527   23.5999 C   0  0  0  0  0  0  0  0  0  0  0  0
    8.5928   -0.1726   24.1084 H   0  0  0  0  0  0  0  0  0  0  0  0
    7.8140    1.3909   24.2957 H   0  0  0  0  0  0  0  0  0  0  0  0
    6.5721   -0.0631   23.2754 C   0  0  0  0  0  0  0  0  0  0  0  0
    6.1422   -0.5298   24.1680 H   0  0  0  0  0  0  0  0  0  0  0  0
    5.8873    0.7361   22.9658 H   0  0  0  0  0  0  0  0  0  0  0  0
    6.6712   -1.1397   22.1710 C   0  0  2  0  0  0  0  0  0  0  0  0
    5.6694   -1.4216   21.8345 H   0  0  0  0  0  0  0  0  0  0  0  0
    7.2733   -2.3311   22.7371 N   0  0  0  0  0  0  0  0  0  0  0  0
    8.2733   -2.3921   22.7551 H   0  0  0  0  0  0  0  0  0  0  0  0
    6.5947   -3.1967   23.5440 C   0  0  0  0  0  0  0  0  0  0  0  0
    5.4036   -3.0830   23.7855 O   0  0  0  0  0  0  0  0  0  0  0  0
    7.4359   -4.3522   24.0388 C   0  0  0  0  0  0  0  0  0  0  0  0
    6.7058   -5.0438   24.4813 H   0  0  0  0  0  0  0  0  0  0  0  0
    8.4383   -3.9646   25.1670 C   0  0  0  0  0  0  0  0  0  0  0  0
    7.8727   -3.8632   26.1053 H   0  0  0  0  0  0  0  0  0  0  0  0
    8.8963   -2.9796   24.9785 H   0  0  0  0  0  0  0  0  0  0  0  0
    9.5444   -5.0354   25.3252 C   0  0  0  0  0  0  0  0  0  0  0  0
   10.4463   -4.7344   24.7745 H   0  0  0  0  0  0  0  0  0  0  0  0
    9.8412   -5.0995   26.3775 H   0  0  0  0  0  0  0  0  0  0  0  0
    9.0559   -6.4204   24.8592 C   0  0  0  0  0  0  0  0  0  0  0  0
    9.8199   -7.1737   25.0785 H   0  0  0  0  0  0  0  0  0  0  0  0
    8.1874   -6.6669   25.4874 H   0  0  0  0  0  0  0  0  0  0  0  0
    8.5952   -6.4642   23.3712 C   0  0  0  0  0  0  0  0  0  0  0  0
    9.3237   -6.9012   22.6876 H   0  0  0  0  0  0  0  0  0  0  0  0
    7.7253   -7.1127   23.2275 H   0  0  0  0  0  0  0  0  0  0  0  0
    8.1455   -5.0899   22.8772 C   0  0  0  0  0  0  0  0  0  0  0  0
    7.4675   -5.2066   22.0224 H   0  0  0  0  0  0  0  0  0  0  0  0
    8.9991   -4.4917   22.5243 H   0  0  0  0  0  0  0  0  0  0  0  0
    5.4481    0.6347   20.0887 C   0  0  0  0  0  0  0  0  0  0  0  0
    4.9805    0.5822   21.0724 H   0  0  0  0  0  0  0  0  0  0  0  0
    4.8182    1.3218   19.0496 C   0  0  0  0  0  0  0  0  0  0  0  0
    3.8836    1.8492   19.2099 H   0  0  0  0  0  0  0  0  0  0  0  0
  1  2  1  0
  2  3  2  0
  3  4  1  0
  4  5  1  0
  4  6  2  0
  6  7  1  0
  7  8  1  6
  7  9  1  0
  9 10  1  0
  9 11  1  0
  9 12  1  0
 12 13  1  0
 12 14  1  0
 14 15  1  0
 14 16  1  0
 14 17  1  0
 17 18  1  0
 17 19  1  0
 17 20  1  0
 20 21  1  6
 20 22  1  0
 22 23  1  0
 22 24  1  0
 24 25  2  0
 24 26  1  0
 26 27  1  0
 26 28  1  0
 28 29  1  0
 28 30  1  0
 28 31  1  0
 31 32  1  0
 31 33  1  0
 31 34  1  0
 34 35  1  0
 34 36  1  0
 34 37  1  0
 37 38  1  0
 37 39  1  0
 37 40  1  0
 40 41  1  0
 40 42  1  0
  6 43  1  0
 43 44  1  0
 43 45  2  0
 45 46  1  0
 45  2  1  0
 20  7  1  0
 40 26  1  0
M  END
>  <cnnaffinity>  (1) 
4.75626

>  <plip>  (1) 
-0.10344827586206896

>  <filename>  (1) 
[H][c]1[n][c]([H])[c]([C@@]2([H])[C]([H])([H])[N]([H])[C]([H])([H])[C]([H])([H])[C@]2([H])[N]([H])[C](=[O])[C]2([H])[C]([H])([H])[C]([H])([H])[C]([H])([H])[C]([H])([H])[C]2([H])[H])[c]([H])[c]1[H]

>  <combo1>  (1) 
-0.5706505600672265

$$$$
