
     RDKit          3D

 30 33  0  0  0  0  0  0  0  0999 V2000
    4.8172    1.3027   19.1113 C   0  0  0  0  0  0  0  0  0  0  0  0
    5.4072    1.2869   17.8434 C   0  0  0  0  0  0  0  0  0  0  0  0
    6.5708    0.6624   17.5926 N   0  0  0  0  0  0  0  0  0  0  0  0
    7.1881    0.0531   18.6089 C   0  0  0  0  0  0  0  0  0  0  0  0
    6.6732    0.0061   19.9160 C   0  0  0  0  0  0  0  0  0  0  0  0
    7.3787   -0.6843   20.9349 N   0  0  0  0  0  0  0  0  0  0  0  0
    6.8627   -1.1889   22.0799 C   0  0  0  0  0  0  0  0  0  0  0  0
    7.8727   -1.7839   22.7998 C   0  0  0  0  0  0  0  0  0  0  0  0
    7.7878   -2.4644   24.1054 C   0  0  0  0  0  0  0  0  0  0  0  0
    8.9600   -2.8352   24.8101 C   0  0  0  0  0  0  0  0  0  0  0  0
    8.9111   -3.4834   26.0478 C   0  0  0  0  0  0  0  0  0  0  0  0
    7.6327   -3.7406   26.5500 C   0  0  0  0  0  0  0  0  0  0  0  0
    7.2747   -4.3509   27.7168 O   0  0  0  0  0  0  0  0  0  0  0  0
    5.9097   -4.3274   27.6858 C   0  0  0  0  0  0  0  0  0  0  0  0
    5.3600   -3.7865   26.6585 N   0  0  0  0  0  0  0  0  0  0  0  0
    6.4583   -3.3880   25.8862 C   0  0  0  0  0  0  0  0  0  0  0  0
    6.5251   -2.7459   24.6538 C   0  0  0  0  0  0  0  0  0  0  0  0
    5.6014   -2.4827   24.1507 H   0  0  0  0  0  0  0  0  0  0  0  0
    5.4262   -4.7724   28.5425 H   0  0  0  0  0  0  0  0  0  0  0  0
    9.8066   -3.7746   26.5879 H   0  0  0  0  0  0  0  0  0  0  0  0
    9.9265   -2.6005   24.3661 H   0  0  0  0  0  0  0  0  0  0  0  0
    8.9989   -1.5820   21.9552 C   0  0  0  0  0  0  0  0  0  0  0  0
    8.6997   -0.9392   20.8422 N   0  0  0  0  0  0  0  0  0  0  0  0
   10.0150   -1.9083   22.1243 H   0  0  0  0  0  0  0  0  0  0  0  0
    5.8132   -1.0818   22.2762 H   0  0  0  0  0  0  0  0  0  0  0  0
    5.4469    0.6458   20.1717 C   0  0  0  0  0  0  0  0  0  0  0  0
    5.0041    0.6511   21.1686 H   0  0  0  0  0  0  0  0  0  0  0  0
    8.1314   -0.4289   18.3744 H   0  0  0  0  0  0  0  0  0  0  0  0
    4.9284    1.7788   16.9980 H   0  0  0  0  0  0  0  0  0  0  0  0
    3.8840    1.8344   19.2631 H   0  0  0  0  0  0  0  0  0  0  0  0
  1  2  2  0
  2  3  1  0
  3  4  2  0
  4  5  1  0
  5  6  1  0
  6  7  1  0
  7  8  2  0
  8  9  1  0
  9 10  2  0
 10 11  1  0
 11 12  2  0
 12 13  1  0
 13 14  1  0
 14 15  2  0
 15 16  1  0
 16 17  2  0
 17 18  1  0
 14 19  1  0
 11 20  1  0
 10 21  1  0
  8 22  1  0
 22 23  2  0
 22 24  1  0
  7 25  1  0
  5 26  2  0
 26 27  1  0
  4 28  1  0
  2 29  1  0
  1 30  1  0
 26  1  1  0
 23  6  1  0
 17  9  1  0
 16 12  1  0
M  END
>  <cnnaffinity>  (1) 
5.39682

>  <plip>  (1) 
-0.03571428571428571

>  <filename>  (1) 
[H][c]1[n][c]2[c]([H])[c](-[c]3[c]([H])[n][n](-[c]4[c]([H])[n][c]([H])[c]([H])[c]4[H])[c]3[H])[c]([H])[c]([H])[c]2[o]1

>  <combo1>  (1) 
-0.244966512410235

$$$$
