
     RDKit          3D

 35 37  0  0  0  0  0  0  0  0999 V2000
    6.2441   -4.7275   26.3790 C   0  0  0  0  0  0  0  0  0  0  0  0
    7.4261   -4.3098   26.8295 C   0  0  0  0  0  0  0  0  0  0  0  0
    8.1613   -3.1323   26.2655 C   0  0  0  0  0  0  0  0  0  0  0  0
    7.6920   -2.8032   24.8622 N   0  0  0  0  0  4  0  0  0  0  0  0
    8.3179   -1.5482   24.3594 C   0  0  0  0  0  0  0  0  0  0  0  0
    8.0761   -1.3735   22.8992 C   0  0  0  0  0  0  0  0  0  0  0  0
    7.2311   -0.4910   22.2762 C   0  0  0  0  0  0  0  0  0  0  0  0
    7.3641   -0.6852   20.9315 N   0  0  0  0  0  0  0  0  0  0  0  0
    6.6640   -0.0033   19.9103 C   0  0  0  0  0  0  0  0  0  0  0  0
    5.4452    0.6427   20.1723 C   0  0  0  0  0  0  0  0  0  0  0  0
    4.8183    1.2990   19.1110 C   0  0  0  0  0  0  0  0  0  0  0  0
    5.4094    1.2878   17.8437 C   0  0  0  0  0  0  0  0  0  0  0  0
    6.5729    0.6681   17.5936 N   0  0  0  0  0  0  0  0  0  0  0  0
    7.1838    0.0466   18.6027 C   0  0  0  0  0  0  0  0  0  0  0  0
    8.1295   -0.4331   18.3663 H   0  0  0  0  0  0  0  0  0  0  0  0
    4.9301    1.7817   16.9986 H   0  0  0  0  0  0  0  0  0  0  0  0
    3.8867    1.8336   19.2639 H   0  0  0  0  0  0  0  0  0  0  0  0
    4.9875    0.6307   21.1623 H   0  0  0  0  0  0  0  0  0  0  0  0
    8.2781   -1.6346   20.6584 N   0  0  0  0  0  0  0  0  0  0  0  0
    8.6964   -2.0605   21.8373 C   0  0  0  0  0  0  0  0  0  0  0  0
    9.4570   -2.8277   21.9040 H   0  0  0  0  0  0  0  0  0  0  0  0
    6.5481    0.2533   22.6778 H   0  0  0  0  0  0  0  0  0  0  0  0
    7.8875   -0.6985   24.9049 H   0  0  0  0  0  0  0  0  0  0  0  0
    9.3929   -1.5401   24.5855 H   0  0  0  0  0  0  0  0  0  0  0  0
    6.1316   -2.7357   24.8098 C   0  0  0  0  0  0  0  0  0  0  0  0
    5.5632   -4.0989   25.1847 C   0  0  0  0  0  0  0  0  0  0  0  0
    4.4899   -3.9863   25.3670 H   0  0  0  0  0  0  0  0  0  0  0  0
    5.6487   -4.7759   24.3274 H   0  0  0  0  0  0  0  0  0  0  0  0
    5.8156   -1.9643   25.5200 H   0  0  0  0  0  0  0  0  0  0  0  0
    5.8234   -2.4229   23.8063 H   0  0  0  0  0  0  0  0  0  0  0  0
    7.9764   -3.5566   24.1894 H   0  0  0  0  0  0  0  0  0  0  0  0
    7.9825   -2.2465   26.8932 H   0  0  0  0  0  0  0  0  0  0  0  0
    9.2469   -3.3024   26.2741 H   0  0  0  0  0  0  0  0  0  0  0  0
    7.9232   -4.7973   27.6627 H   0  0  0  0  0  0  0  0  0  0  0  0
    5.7378   -5.5665   26.8648 H   0  0  0  0  0  0  0  0  0  0  0  0
  1  2  2  0
  2  3  1  0
  3  4  1  0
  4  5  1  0
  5  6  1  0
  6  7  2  0
  7  8  1  0
  8  9  1  0
  9 10  2  0
 10 11  1  0
 11 12  2  0
 12 13  1  0
 13 14  2  0
 14 15  1  0
 12 16  1  0
 11 17  1  0
 10 18  1  0
  8 19  1  0
 19 20  2  0
 20 21  1  0
  7 22  1  0
  5 23  1  0
  5 24  1  0
  4 25  1  0
 25 26  1  0
 26 27  1  0
 26 28  1  0
 25 29  1  0
 25 30  1  0
  4 31  1  0
  3 32  1  0
  3 33  1  0
  2 34  1  0
  1 35  1  0
 26  1  1  0
 20  6  1  0
 14  9  1  0
M  CHG  1   4   1
M  END
>  <cnnaffinity>  (1) 
4.81623

>  <plip>  (1) 
-0.034482758620689655

>  <filename>  (1) 
[H][C]1=[C]([H])[C]([H])([H])[N+]([H])([C]([H])([H])[c]2[c]([H])[n][n](-[c]3[c]([H])[n][c]([H])[c]([H])[c]3[H])[c]2[H])[C]([H])([H])[C]1([H])[H]

>  <combo1>  (1) 
-0.22940255396299217

$$$$
