
     RDKit          3D

 36 38  0  0  0  0  0  0  0  0999 V2000
    6.1828   -2.6268   21.1508 H   0  0  0  0  0  0  0  0  0  0  0  0
    6.6541   -1.8231   21.7189 C   0  0  0  0  0  0  0  0  0  0  0  0
    6.5613   -1.6718   23.0398 C   0  0  0  0  0  0  0  0  0  0  0  0
    5.7838   -2.6257   23.9148 C   0  0  0  0  0  0  0  0  0  0  0  0
    5.3767   -3.7043   23.5073 O   0  0  0  0  0  0  0  0  0  0  0  0
    5.5242   -2.1730   25.1801 N   0  0  0  0  0  0  0  0  0  0  0  0
    5.7990   -1.2262   25.3709 H   0  0  0  0  0  0  0  0  0  0  0  0
    4.5781   -2.7993   26.0929 C   0  0  0  0  0  0  0  0  0  0  0  0
    4.7982   -2.4173   27.0990 H   0  0  0  0  0  0  0  0  0  0  0  0
    4.7643   -3.8820   26.1191 H   0  0  0  0  0  0  0  0  0  0  0  0
    3.1098   -2.5408   25.7808 C   0  0  0  0  0  0  0  0  0  0  0  0
    2.8633   -1.4887   25.6233 H   0  0  0  0  0  0  0  0  0  0  0  0
    2.2914   -3.5428   25.0094 C   0  0  0  0  0  0  0  0  0  0  0  0
    2.7984   -4.4416   24.6561 H   0  0  0  0  0  0  0  0  0  0  0  0
    1.5308   -3.1586   24.3359 H   0  0  0  0  0  0  0  0  0  0  0  0
    2.0672   -3.3739   26.4840 C   0  0  0  0  0  0  0  0  0  0  0  0
    2.4065   -4.1663   27.1517 H   0  0  0  0  0  0  0  0  0  0  0  0
    1.1544   -2.8805   26.8086 H   0  0  0  0  0  0  0  0  0  0  0  0
    7.1571   -0.3378   23.4644 C   0  0  0  0  0  0  0  0  0  0  0  0
    6.3681    0.3597   23.7908 H   0  0  0  0  0  0  0  0  0  0  0  0
    7.8630   -0.4257   24.2984 H   0  0  0  0  0  0  0  0  0  0  0  0
    7.8556    0.1960   22.1896 C   0  0  0  0  0  0  0  0  0  0  0  0
    7.6127    1.2473   22.0065 H   0  0  0  0  0  0  0  0  0  0  0  0
    8.9450    0.1562   22.2983 H   0  0  0  0  0  0  0  0  0  0  0  0
    7.4156   -0.7255   21.0110 C   0  0  2  0  0  0  0  0  0  0  0  0
    8.3000   -1.1844   20.5494 H   0  0  0  0  0  0  0  0  0  0  0  0
    6.6590   -0.0165   19.8787 C   0  0  0  0  0  0  0  0  0  0  0  0
    7.1601    0.0361   18.5622 C   0  0  0  0  0  0  0  0  0  0  0  0
    8.1013   -0.4557   18.3141 H   0  0  0  0  0  0  0  0  0  0  0  0
    6.5701    0.6669   17.5369 N   0  0  0  0  0  0  0  0  0  0  0  0
    5.4158    1.3013   17.7936 C   0  0  0  0  0  0  0  0  0  0  0  0
    4.9541    1.8303   16.9595 H   0  0  0  0  0  0  0  0  0  0  0  0
    4.8155    1.3095   19.0562 C   0  0  0  0  0  0  0  0  0  0  0  0
    3.8851    1.8413   19.2058 H   0  0  0  0  0  0  0  0  0  0  0  0
    5.4451    0.6465   20.1121 C   0  0  0  0  0  0  0  0  0  0  0  0
    4.9923    0.6404   21.1057 H   0  0  0  0  0  0  0  0  0  0  0  0
  1  2  1  0
  2  3  2  0
  3  4  1  0
  4  5  2  0
  4  6  1  0
  6  7  1  0
  6  8  1  0
  8  9  1  0
  8 10  1  0
  8 11  1  0
 11 12  1  0
 11 13  1  0
 13 14  1  0
 13 15  1  0
 13 16  1  0
 16 17  1  0
 16 18  1  0
  3 19  1  0
 19 20  1  0
 19 21  1  0
 19 22  1  0
 22 23  1  0
 22 24  1  0
 22 25  1  0
 25 26  1  6
 25 27  1  0
 27 28  2  0
 28 29  1  0
 28 30  1  0
 30 31  2  0
 31 32  1  0
 31 33  1  0
 33 34  1  0
 33 35  2  0
 35 36  1  0
 25  2  1  0
 35 27  1  0
 16 11  1  0
M  END
>  <cnnaffinity>  (1) 
4.79829

>  <plip>  (1) 
-0.034482758620689655

>  <filename>  (1) 
[H][C]1=[C]([C](=[O])[N]([H])[C]([H])([H])[C]2([H])[C]([H])([H])[C]2([H])[H])[C]([H])([H])[C]([H])([H])[C@]1([H])[c]1[c]([H])[n][c]([H])[c]([H])[c]1[H]

>  <combo1>  (1) 
-0.2276011200827397

$$$$
