
     RDKit          3D

 33 35  0  0  0  0  0  0  0  0999 V2000
    7.4193   -2.1422   20.9797 C   0  0  0  0  0  0  0  0  0  0  0  0
    7.1924   -0.6430   21.2456 C   0  0  1  0  0  0  0  0  0  0  0  0
    8.4679    0.0108   21.4840 N   0  0  0  0  0  0  0  0  0  0  0  0
    9.2406   -0.1852   22.5753 C   0  0  0  0  0  0  0  0  0  0  0  0
    8.7301   -0.9571   23.5240 N   0  0  0  0  0  0  0  0  0  0  0  0
    9.4267   -1.1029   24.6791 C   0  0  0  0  0  0  0  0  0  0  0  0
   10.6660   -0.5556   24.9025 C   0  0  0  0  0  0  0  0  0  0  0  0
   11.3098    0.1800   23.8556 C   0  0  0  0  0  0  0  0  0  0  0  0
   12.6490    0.6587   23.9268 C   0  0  0  0  0  0  0  0  0  0  0  0
   13.1263    1.4663   22.9151 C   0  0  0  0  0  0  0  0  0  0  0  0
   12.2771    1.7712   21.8186 C   0  0  0  0  0  0  0  0  0  0  0  0
   11.0615    1.2853   21.6806 N   0  0  0  0  0  0  0  0  0  0  0  0
   10.5766    0.4644   22.6680 C   0  0  0  0  0  0  0  0  0  0  0  0
   12.6075    2.4176   21.0073 H   0  0  0  0  0  0  0  0  0  0  0  0
   14.1276    1.8768   22.9301 H   0  0  0  0  0  0  0  0  0  0  0  0
   13.2711    0.3646   24.7696 H   0  0  0  0  0  0  0  0  0  0  0  0
   11.1420   -0.6440   25.8684 H   0  0  0  0  0  0  0  0  0  0  0  0
    8.9264   -1.7131   25.4297 H   0  0  0  0  0  0  0  0  0  0  0  0
    8.8673    0.6283   20.7962 H   0  0  0  0  0  0  0  0  0  0  0  0
    6.5420    0.1063   20.1113 C   0  0  0  0  0  0  0  0  0  0  0  0
    5.3156    0.7865   20.2026 C   0  0  0  0  0  0  0  0  0  0  0  0
    4.7965    1.3791   19.0472 C   0  0  0  0  0  0  0  0  0  0  0  0
    5.5242    1.2910   17.8571 C   0  0  0  0  0  0  0  0  0  0  0  0
    6.7055    0.6629   17.7595 N   0  0  0  0  0  0  0  0  0  0  0  0
    7.1976    0.1158   18.8759 C   0  0  0  0  0  0  0  0  0  0  0  0
    8.1688   -0.3752   18.7716 H   0  0  0  0  0  0  0  0  0  0  0  0
    5.1464    1.7306   16.9353 H   0  0  0  0  0  0  0  0  0  0  0  0
    3.8520    1.9146   19.0498 H   0  0  0  0  0  0  0  0  0  0  0  0
    4.7850    0.8721   21.1555 H   0  0  0  0  0  0  0  0  0  0  0  0
    6.5826   -0.5466   22.1560 H   0  0  0  0  0  0  0  0  0  0  0  0
    7.5177   -2.6501   21.9418 H   0  0  0  0  0  0  0  0  0  0  0  0
    6.6102   -2.5883   20.3932 H   0  0  0  0  0  0  0  0  0  0  0  0
    8.3702   -2.2783   20.4553 H   0  0  0  0  0  0  0  0  0  0  0  0
  1  2  1  0
  2  3  1  0
  3  4  1  0
  4  5  2  0
  5  6  1  0
  6  7  2  0
  7  8  1  0
  8  9  2  0
  9 10  1  0
 10 11  2  0
 11 12  1  0
 12 13  2  0
 11 14  1  0
 10 15  1  0
  9 16  1  0
  7 17  1  0
  6 18  1  0
  3 19  1  0
  2 20  1  0
 20 21  2  0
 21 22  1  0
 22 23  2  0
 23 24  1  0
 24 25  2  0
 25 26  1  0
 23 27  1  0
 22 28  1  0
 21 29  1  0
  2 30  1  1
  1 31  1  0
  1 32  1  0
  1 33  1  0
 13  4  1  0
 25 20  1  0
 13  8  1  0
M  END
>  <cnnaffinity>  (1) 
4.94824

>  <plip>  (1) 
-0.10344827586206896

>  <filename>  (1) 
[H][c]1[n][c]([H])[c]([C@]([H])([N]([H])[c]2[n][c]([H])[c]([H])[c]3[c]([H])[c]([H])[c]([H])[n][c]23)[C]([H])([H])[H])[c]([H])[c]1[H]

>  <combo1>  (1) 
-0.6816842073360154

$$$$
