
     RDKit          3D

 37 39  0  0  0  0  0  0  0  0999 V2000
    4.9110    1.8325   16.9722 H   0  0  0  0  0  0  0  0  0  0  0  0
    5.3711    1.3080   17.8077 C   0  0  0  0  0  0  0  0  0  0  0  0
    6.5273    0.6799   17.5442 N   0  0  0  0  0  0  0  0  0  0  0  0
    7.1377    0.0610   18.5639 C   0  0  0  0  0  0  0  0  0  0  0  0
    8.0961   -0.4066   18.3420 H   0  0  0  0  0  0  0  0  0  0  0  0
    6.6305   -0.0084   19.8846 C   0  0  0  0  0  0  0  0  0  0  0  0
    7.3389   -0.7380   20.9845 C   0  0  0  0  0  0  0  0  0  0  0  0
    6.6933   -1.6465   21.7657 C   0  0  0  0  0  0  0  0  0  0  0  0
    5.6427   -1.8967   21.6354 H   0  0  0  0  0  0  0  0  0  0  0  0
    7.3173   -2.3747   22.7754 N   0  0  0  0  0  0  0  0  0  0  0  0
    6.4909   -3.3125   23.4773 N   0  0  0  0  0  0  0  0  0  0  0  0
    6.6468   -3.4330   24.4634 H   0  0  0  0  0  0  0  0  0  0  0  0
    5.6733   -4.2530   22.8567 C   0  0  0  0  0  0  0  0  0  0  0  0
    5.5408   -4.3473   21.6539 O   0  0  0  0  0  0  0  0  0  0  0  0
    4.9925   -5.0346   23.7674 N   0  0  0  0  0  0  0  0  0  0  0  0
    5.2710   -4.9963   24.7295 H   0  0  0  0  0  0  0  0  0  0  0  0
    3.9050   -5.8788   23.4268 C   0  0  0  0  0  0  0  0  0  0  0  0
    3.0462   -5.5034   22.3840 C   0  0  0  0  0  0  0  0  0  0  0  0
    3.2314   -4.5515   21.9118 H   0  0  0  0  0  0  0  0  0  0  0  0
    2.0028   -6.3407   21.9907 C   0  0  0  0  0  0  0  0  0  0  0  0
    1.3577   -6.0462   21.1624 H   0  0  0  0  0  0  0  0  0  0  0  0
    1.7968   -7.5559   22.6540 C   0  0  0  0  0  0  0  0  0  0  0  0
    0.9904   -8.2104   22.3356 H   0  0  0  0  0  0  0  0  0  0  0  0
    2.6218   -7.9154   23.7284 C   0  0  0  0  0  0  0  0  0  0  0  0
    2.4396   -8.8484   24.2630 H   0  0  0  0  0  0  0  0  0  0  0  0
    3.6720   -7.0726   24.1229 C   0  0  0  0  0  0  0  0  0  0  0  0
    4.3096   -7.3410   24.9600 H   0  0  0  0  0  0  0  0  0  0  0  0
    8.6901   -2.1468   23.0924 C   0  0  0  0  0  0  0  0  0  0  0  0
    9.3022   -2.6830   23.9838 O   0  0  0  0  0  0  0  0  0  0  0  0
    9.3000   -1.2368   22.2897 N   0  0  0  0  0  0  0  0  0  0  0  0
   10.2573   -1.0380   22.5089 H   0  0  0  0  0  0  0  0  0  0  0  0
    8.7734   -0.4822   21.2656 C   0  0  0  0  0  0  0  0  0  0  0  0
    9.5176    0.3018   20.7119 O   0  0  0  0  0  0  0  0  0  0  0  0
    5.4065    0.6460   20.1167 C   0  0  0  0  0  0  0  0  0  0  0  0
    4.9811    0.6510   21.1195 H   0  0  0  0  0  0  0  0  0  0  0  0
    4.7705    1.3209   19.0704 C   0  0  0  0  0  0  0  0  0  0  0  0
    3.8467    1.8741   19.2209 H   0  0  0  0  0  0  0  0  0  0  0  0
  1  2  1  0
  2  3  2  0
  3  4  1  0
  4  5  1  0
  4  6  2  0
  6  7  1  0
  7  8  2  0
  8  9  1  0
  8 10  1  0
 10 11  1  0
 11 12  1  0
 11 13  1  0
 13 14  2  0
 13 15  1  0
 15 16  1  0
 15 17  1  0
 17 18  2  0
 18 19  1  0
 18 20  1  0
 20 21  1  0
 20 22  2  0
 22 23  1  0
 22 24  1  0
 24 25  1  0
 24 26  2  0
 26 27  1  0
 10 28  1  0
 28 29  2  0
 28 30  1  0
 30 31  1  0
 30 32  1  0
 32 33  2  0
  6 34  1  0
 34 35  1  0
 34 36  2  0
 36 37  1  0
 36  2  1  0
 32  7  1  0
 26 17  1  0
M  END
>  <cnnaffinity>  (1) 
5.17097

>  <plip>  (1) 
-0.06896551724137931

>  <filename>  (1) 
[H][c]1[n][c]([H])[c](-[c]2[c]([H])[n]([N]([H])[C](=[O])[N]([H])[c]3[c]([H])[c]([H])[c]([H])[c]([H])[c]3[H])[c](=[O])[n]([H])[c]2=[O])[c]([H])[c]1[H]

>  <combo1>  (1) 
-0.36767232135899175

$$$$
