
     RDKit          3D

 33 34  0  0  0  0  0  0  0  0999 V2000
    5.0235    1.8334   16.4897 H   0  0  0  0  0  0  0  0  0  0  0  0
    5.4353    1.3950   17.3967 C   0  0  0  0  0  0  0  0  0  0  0  0
    6.5247    0.6291   17.2429 N   0  0  0  0  0  0  0  0  0  0  0  0
    7.0383    0.0581   18.3411 C   0  0  0  0  0  0  0  0  0  0  0  0
    7.9187   -0.5616   18.1853 H   0  0  0  0  0  0  0  0  0  0  0  0
    6.5034    0.2149   19.6481 C   0  0  0  0  0  0  0  0  0  0  0  0
    7.0607   -0.4679   20.7602 N   0  0  0  0  0  0  0  0  0  0  0  0
    6.8768   -0.1358   22.1020 C   0  0  0  0  0  0  0  0  0  0  0  0
    6.4713    0.9003   22.5689 O   0  0  0  0  0  0  0  0  0  0  0  0
    7.2888   -1.2531   22.8386 N   0  0  0  0  0  0  0  0  0  0  0  0
    7.1114   -1.3330   24.2022 O   0  0  0  0  0  0  0  0  0  0  0  0
    8.0749   -0.5216   24.9160 C   0  0  0  0  0  0  0  0  0  0  0  0
    7.8919    0.5304   24.6562 H   0  0  0  0  0  0  0  0  0  0  0  0
    7.7978   -0.6934   25.9584 H   0  0  0  0  0  0  0  0  0  0  0  0
    9.5349   -0.9481   24.6779 C   0  0  0  0  0  0  0  0  0  0  0  0
    9.7161   -0.8382   23.6016 H   0  0  0  0  0  0  0  0  0  0  0  0
   10.5146   -0.0349   25.4399 C   0  0  0  0  0  0  0  0  0  0  0  0
   11.5481   -0.3985   25.3656 H   0  0  0  0  0  0  0  0  0  0  0  0
   10.2604    0.0079   26.5082 H   0  0  0  0  0  0  0  0  0  0  0  0
   10.5134    0.9904   25.0463 H   0  0  0  0  0  0  0  0  0  0  0  0
    9.7287   -2.4290   25.0234 C   0  0  0  0  0  0  0  0  0  0  0  0
    9.6242   -2.6011   26.1038 H   0  0  0  0  0  0  0  0  0  0  0  0
   10.7269   -2.7711   24.7234 H   0  0  0  0  0  0  0  0  0  0  0  0
    8.9919   -3.0513   24.5037 H   0  0  0  0  0  0  0  0  0  0  0  0
    7.6190   -2.3338   22.0546 C   0  0  0  0  0  0  0  0  0  0  0  0
    7.8519   -3.4706   22.3936 O   0  0  0  0  0  0  0  0  0  0  0  0
    7.6253   -1.8020   20.6464 C   0  0  0  0  0  0  0  0  0  0  0  0
    8.6559   -1.7963   20.2734 H   0  0  0  0  0  0  0  0  0  0  0  0
    7.0201   -2.4601   20.0219 H   0  0  0  0  0  0  0  0  0  0  0  0
    5.3740    1.0371   19.7885 C   0  0  0  0  0  0  0  0  0  0  0  0
    4.9443    1.2073   20.7737 H   0  0  0  0  0  0  0  0  0  0  0  0
    4.8340    1.6244   18.6374 C   0  0  0  0  0  0  0  0  0  0  0  0
    3.9612    2.2639   18.7005 H   0  0  0  0  0  0  0  0  0  0  0  0
  1  2  1  0
  2  3  2  0
  3  4  1  0
  4  5  1  0
  4  6  2  0
  6  7  1  0
  7  8  1  0
  8  9  2  0
  8 10  1  0
 10 11  1  0
 11 12  1  0
 12 13  1  0
 12 14  1  0
 12 15  1  0
 15 16  1  0
 15 17  1  0
 17 18  1  0
 17 19  1  0
 17 20  1  0
 15 21  1  0
 21 22  1  0
 21 23  1  0
 21 24  1  0
 10 25  1  0
 25 26  2  0
 25 27  1  0
 27 28  1  0
 27 29  1  0
  6 30  1  0
 30 31  1  0
 30 32  2  0
 32 33  1  0
 32  2  1  0
 27  7  1  0
M  END
>  <cnnaffinity>  (1) 
4.45472

>  <plip>  (1) 
-0.13333333333333333

>  <filename>  (1) 
[H][c]1[n][c]([H])[c]([N]2[C](=[O])[N]([O][C]([H])([H])[C]([H])([C]([H])([H])[H])[C]([H])([H])[H])[C](=[O])[C]2([H])[H])[c]([H])[c]1[H]

>  <combo1>  (1) 
-0.794269489130483

$$$$
