
     RDKit          3D

 39 42  0  0  0  0  0  0  0  0999 V2000
    5.0152    1.7926   16.9041 H   0  0  0  0  0  0  0  0  0  0  0  0
    5.4716    1.3133   17.7654 C   0  0  0  0  0  0  0  0  0  0  0  0
    6.6316    0.6803   17.5354 N   0  0  0  0  0  0  0  0  0  0  0  0
    7.2109    0.0482   18.5586 C   0  0  0  0  0  0  0  0  0  0  0  0
    8.1531   -0.4577   18.3387 H   0  0  0  0  0  0  0  0  0  0  0  0
    6.6575    0.0115   19.8444 C   0  0  0  0  0  0  0  0  0  0  0  0
    7.2957   -0.7267   20.9365 C   0  0  0  0  0  0  0  0  0  0  0  0
    6.6701   -0.8858   22.0539 N   0  0  0  0  0  0  0  0  0  0  0  0
    7.4549   -1.5591   22.9365 N   0  0  0  0  0  0  0  0  0  0  0  0
    7.3638   -2.0898   24.1976 C   0  0  0  0  0  0  0  0  0  0  0  0
    6.2804   -2.0584   25.0671 N   0  0  0  0  0  0  0  0  0  0  0  0
    6.3941   -2.7511   25.7914 H   0  0  0  0  0  0  0  0  0  0  0  0
    5.6248   -0.8827   25.3941 C   0  0  0  0  0  0  0  0  0  0  0  0
    5.9877    0.1832   24.9579 O   0  0  0  0  0  0  0  0  0  0  0  0
    4.3887   -1.0326   26.2816 C   0  0  0  0  0  0  0  0  0  0  0  0
    4.3248   -2.0746   26.6153 H   0  0  0  0  0  0  0  0  0  0  0  0
    3.1310   -0.7228   25.4210 C   0  0  0  0  0  0  0  0  0  0  0  0
    3.3551    0.1672   24.8172 H   0  0  0  0  0  0  0  0  0  0  0  0
    2.9696   -1.5613   24.7348 H   0  0  0  0  0  0  0  0  0  0  0  0
    1.8234   -0.4830   26.1962 C   0  0  0  0  0  0  0  0  0  0  0  0
    1.3470   -1.4371   26.4692 H   0  0  0  0  0  0  0  0  0  0  0  0
    1.1211    0.0143   25.5178 H   0  0  0  0  0  0  0  0  0  0  0  0
    2.0236    0.3818   27.4467 C   0  0  0  0  0  0  0  0  0  0  0  0
    1.0927    0.4606   28.0242 H   0  0  0  0  0  0  0  0  0  0  0  0
    2.2721    1.4094   27.1412 H   0  0  0  0  0  0  0  0  0  0  0  0
    3.1748   -0.1506   28.3102 C   0  0  0  0  0  0  0  0  0  0  0  0
    2.9583   -1.1846   28.6223 H   0  0  0  0  0  0  0  0  0  0  0  0
    3.2670    0.4292   29.2323 H   0  0  0  0  0  0  0  0  0  0  0  0
    4.4935   -0.1237   27.5256 C   0  0  0  0  0  0  0  0  0  0  0  0
    5.3305   -0.4407   28.1644 H   0  0  0  0  0  0  0  0  0  0  0  0
    4.7271    0.9017   27.1979 H   0  0  0  0  0  0  0  0  0  0  0  0
    8.4244   -2.7892   24.4594 N   0  0  0  0  0  0  0  0  0  0  0  0
    9.2825   -2.7196   23.3730 N   0  0  0  0  0  0  0  0  0  0  0  0
    8.6711   -1.9987   22.4859 C   0  0  0  0  0  0  0  0  0  0  0  0
    8.9237   -1.4399   20.8586 S   0  0  0  0  0  0  0  0  0  0  0  0
    5.4473    0.6934   20.0814 C   0  0  0  0  0  0  0  0  0  0  0  0
    5.0192    0.6950   21.0845 H   0  0  0  0  0  0  0  0  0  0  0  0
    4.8420    1.3518   19.0158 C   0  0  0  0  0  0  0  0  0  0  0  0
    3.9060    1.8846   19.1392 H   0  0  0  0  0  0  0  0  0  0  0  0
  1  2  1  0
  2  3  2  0
  3  4  1  0
  4  5  1  0
  4  6  2  0
  6  7  1  0
  7  8  2  0
  8  9  1  0
  9 10  1  0
 10 11  1  0
 11 12  1  0
 11 13  1  0
 13 14  2  0
 13 15  1  0
 15 16  1  0
 15 17  1  0
 17 18  1  0
 17 19  1  0
 17 20  1  0
 20 21  1  0
 20 22  1  0
 20 23  1  0
 23 24  1  0
 23 25  1  0
 23 26  1  0
 26 27  1  0
 26 28  1  0
 26 29  1  0
 29 30  1  0
 29 31  1  0
 10 32  2  0
 32 33  1  0
 33 34  2  0
 34 35  1  0
  6 36  1  0
 36 37  1  0
 36 38  2  0
 38 39  1  0
 38  2  1  0
 35  7  1  0
 34  9  1  0
 29 15  1  0
M  END
>  <cnnaffinity>  (1) 
5.31689

>  <plip>  (1) 
-0.06896551724137931

>  <filename>  (1) 
[H][c]1[n][c]([H])[c](-[c]2[n][n]3[c]([N]([H])[C](=[O])[C]4([H])[C]([H])([H])[C]([H])([H])[C]([H])([H])[C]([H])([H])[C]4([H])[H])[n][n][c]3[s]2)[c]([H])[c]1[H]

>  <combo1>  (1) 
-0.372189354849221

$$$$
