
     RDKit          3D

 22 23  0  0  0  0  0  0  0  0999 V2000
    4.9080    1.7769   17.0005 H   0  0  0  0  0  0  0  0  0  0  0  0
    5.3992    1.2951   17.8412 C   0  0  0  0  0  0  0  0  0  0  0  0
    6.5705    0.6800   17.5813 N   0  0  0  0  0  0  0  0  0  0  0  0
    7.1782    0.0583   18.5961 C   0  0  0  0  0  0  0  0  0  0  0  0
    8.1254   -0.4389   18.3897 H   0  0  0  0  0  0  0  0  0  0  0  0
    6.6610    0.0108   19.9118 C   0  0  0  0  0  0  0  0  0  0  0  0
    7.3488   -0.7466   20.8991 N   0  0  0  0  0  0  0  0  0  0  0  0
    7.6246   -0.3432   22.0786 C   0  0  0  0  0  0  0  0  0  0  0  0
    7.5009    1.0879   22.5473 C   0  0  0  0  0  0  0  0  0  0  0  0
    7.4644    1.4635   23.8507 N   0  0  0  0  0  0  0  0  0  0  0  0
    7.3899    2.7592   23.8718 N   0  0  0  0  0  0  0  0  0  0  0  0
    7.3886    3.1321   22.6132 N   0  0  0  0  0  0  0  0  0  0  0  0
    7.3402    4.0969   22.3352 H   0  0  0  0  0  0  0  0  0  0  0  0
    7.4627    2.1565   21.7374 N   0  0  0  0  0  0  0  0  0  0  0  0
    8.2378   -1.3497   23.0304 C   0  0  0  0  0  0  0  0  0  0  0  0
    9.2669   -1.0565   23.2584 H   0  0  0  0  0  0  0  0  0  0  0  0
    8.2410   -2.3470   22.5807 H   0  0  0  0  0  0  0  0  0  0  0  0
    7.6804   -1.3719   23.9694 H   0  0  0  0  0  0  0  0  0  0  0  0
    5.4321    0.6340   20.1591 C   0  0  0  0  0  0  0  0  0  0  0  0
    5.0207    0.6251   21.1677 H   0  0  0  0  0  0  0  0  0  0  0  0
    4.8031    1.3062   19.1054 C   0  0  0  0  0  0  0  0  0  0  0  0
    3.8728    1.8441   19.2656 H   0  0  0  0  0  0  0  0  0  0  0  0
  1  2  1  0
  2  3  2  0
  3  4  1  0
  4  5  1  0
  4  6  2  0
  6  7  1  0
  7  8  2  3
  8  9  1  0
  9 10  1  0
 10 11  2  0
 11 12  1  0
 12 13  1  0
 12 14  1  0
  8 15  1  0
 15 16  1  0
 15 17  1  0
 15 18  1  0
  6 19  1  0
 19 20  1  0
 19 21  2  0
 21 22  1  0
 21  2  1  0
 14  9  2  0
M  END
>  <cnnaffinity>  (1) 
4.08276

>  <plip>  (1) 
-0.07142857142857142

>  <filename>  (1) 
[H][c]1[n][c]([H])[c]([N]=[C]([c]2[n][n][n]([H])[n]2)[C]([H])([H])[H])[c]([H])[c]1[H]

>  <combo1>  (1) 
-0.5165338503277013

$$$$
