
     RDKit          3D

 36 38  0  0  0  0  0  0  0  0999 V2000
    6.3186   -5.5677   23.0859 Cl  0  0  0  0  0  0  0  0  0  0  0  0
    5.9328   -5.2452   21.4338 C   0  0  0  0  0  0  0  0  0  0  0  0
    5.8513   -4.0036   20.8863 C   0  0  0  0  0  0  0  0  0  0  0  0
    6.0617   -2.6753   21.5122 C   0  0  0  0  0  0  0  0  0  0  0  0
    7.3520   -2.1021   20.9130 N   0  0  0  0  0  4  0  0  0  0  0  0
    8.6117   -2.8139   21.4753 C   0  0  0  0  0  0  0  0  0  0  0  0
    9.0812   -2.1398   22.7730 C   0  0  0  0  0  0  0  0  0  0  0  0
    9.5537   -0.6942   22.5084 N   0  0  0  0  0  4  0  0  0  0  0  0
    8.8531   -0.0629   21.2506 C   0  0  0  0  0  0  0  0  0  0  0  0
    7.4013   -0.5689   21.0627 C   0  0  0  0  0  0  0  0  0  0  0  0
    6.6302    0.0339   19.9109 C   0  0  0  0  0  0  0  0  0  0  0  0
    5.4064    0.6939   20.1173 C   0  0  0  0  0  0  0  0  0  0  0  0
    4.7965    1.3390   19.0388 C   0  0  0  0  0  0  0  0  0  0  0  0
    5.4118    1.2881   17.7848 C   0  0  0  0  0  0  0  0  0  0  0  0
    6.5379    0.5985   17.5557 N   0  0  0  0  0  0  0  0  0  0  0  0
    7.1099   -0.0264   18.5917 C   0  0  0  0  0  0  0  0  0  0  0  0
    8.0138   -0.5910   18.3579 H   0  0  0  0  0  0  0  0  0  0  0  0
    4.9841    1.8153   16.9295 H   0  0  0  0  0  0  0  0  0  0  0  0
    3.8726    1.8911   19.1510 H   0  0  0  0  0  0  0  0  0  0  0  0
    4.9336    0.7109   21.1033 H   0  0  0  0  0  0  0  0  0  0  0  0
    6.8767   -0.3205   21.9912 H   0  0  0  0  0  0  0  0  0  0  0  0
    9.4098   -0.3461   20.3578 H   0  0  0  0  0  0  0  0  0  0  0  0
    8.8449    1.0204   21.3419 H   0  0  0  0  0  0  0  0  0  0  0  0
   10.5984   -0.7125   22.3720 H   0  0  0  0  0  0  0  0  0  0  0  0
    9.3277   -0.0893   23.3398 H   0  0  0  0  0  0  0  0  0  0  0  0
    9.8770   -2.7214   23.2378 H   0  0  0  0  0  0  0  0  0  0  0  0
    8.2256   -2.1179   23.4539 H   0  0  0  0  0  0  0  0  0  0  0  0
    8.4031   -3.8715   21.6470 H   0  0  0  0  0  0  0  0  0  0  0  0
    9.4064   -2.7506   20.7262 H   0  0  0  0  0  0  0  0  0  0  0  0
    7.2387   -2.2990   19.8776 H   0  0  0  0  0  0  0  0  0  0  0  0
    5.2424   -1.9723   21.3026 H   0  0  0  0  0  0  0  0  0  0  0  0
    6.1313   -2.7300   22.6071 H   0  0  0  0  0  0  0  0  0  0  0  0
    5.6242   -4.1784   19.1858 S   0  0  0  0  0  0  0  0  0  0  0  0
    5.5937   -5.8984   19.3802 C   0  0  0  0  0  0  0  0  0  0  0  0
    5.7686   -6.3054   20.5944 N   0  0  0  0  0  0  0  0  0  0  0  0
    5.4131   -6.5652   18.5396 H   0  0  0  0  0  0  0  0  0  0  0  0
  1  2  1  0
  2  3  2  0
  3  4  1  0
  4  5  1  0
  5  6  1  0
  6  7  1  0
  7  8  1  0
  8  9  1  0
  9 10  1  0
 10 11  1  0
 11 12  2  0
 12 13  1  0
 13 14  2  0
 14 15  1  0
 15 16  2  0
 16 17  1  0
 14 18  1  0
 13 19  1  0
 12 20  1  0
 10 21  1  0
  9 22  1  0
  9 23  1  0
  8 24  1  0
  8 25  1  0
  7 26  1  0
  7 27  1  0
  6 28  1  0
  6 29  1  0
  5 30  1  0
  4 31  1  0
  4 32  1  0
  3 33  1  0
 33 34  1  0
 34 35  2  0
 34 36  1  0
 35  2  1  0
 10  5  1  0
 16 11  1  0
M  CHG  2   5   1   8   1
M  END
>  <cnnaffinity>  (1) 
5.14936

>  <plip>  (1) 
-0.14285714285714285

>  <filename>  (1) 
[H][c]1[n][c]([Cl])[c]([C]([H])([H])[N+]2([H])[C]([H])([H])[C]([H])([H])[N+]([H])([H])[C]([H])([H])[C]2([H])[c]2[c]([H])[n][c]([H])[c]([H])[c]2[H])[s]1

>  <combo1>  (1) 
-0.8260960729570388

$$$$
