
     RDKit          3D

 42 45  0  0  0  0  0  0  0  0999 V2000
   10.0826   -3.8718   26.4430 O   0  0  0  0  0  0  0  0  0  0  0  0
    8.7649   -3.5855   26.6045 C   0  0  0  0  0  0  0  0  0  0  0  0
    8.1308   -4.2975   27.5985 C   0  0  0  0  0  0  0  0  0  0  0  0
    6.7399   -4.1412   27.8205 C   0  0  0  0  0  0  0  0  0  0  0  0
    6.0130   -3.2479   27.0639 C   0  0  0  0  0  0  0  0  0  0  0  0
    6.6452   -2.4812   26.0429 C   0  0  0  0  0  0  0  0  0  0  0  0
    5.9493   -1.5522   25.2157 C   0  0  0  0  0  0  0  0  0  0  0  0
    6.6223   -0.8587   24.2469 C   0  0  0  0  0  0  0  0  0  0  0  0
    8.0356   -1.0595   24.0858 C   0  0  0  0  0  0  0  0  0  0  0  0
    8.7161   -0.3531   23.1265 N   0  0  0  0  0  0  0  0  0  0  0  0
   10.1556   -0.1582   23.2119 C   0  0  0  0  0  0  0  0  0  0  0  0
   10.4423    0.9935   22.2344 C   0  0  0  0  0  0  0  0  0  0  0  0
    9.2690    0.9846   21.2424 C   0  0  0  0  0  0  0  0  0  0  0  0
    8.0952    0.2865   21.9645 C   0  0  0  0  0  0  0  0  0  0  0  0
    7.3715   -0.7149   21.0230 C   0  0  0  0  0  0  0  0  0  0  0  0
    6.6381   -0.0298   19.8834 C   0  0  0  0  0  0  0  0  0  0  0  0
    5.4298    0.6429   20.1244 C   0  0  0  0  0  0  0  0  0  0  0  0
    4.7916    1.3149   19.0796 C   0  0  0  0  0  0  0  0  0  0  0  0
    5.3905    1.3061   17.8161 C   0  0  0  0  0  0  0  0  0  0  0  0
    6.5500    0.6847   17.5576 N   0  0  0  0  0  0  0  0  0  0  0  0
    7.1516    0.0496   18.5736 C   0  0  0  0  0  0  0  0  0  0  0  0
    8.1052   -0.4221   18.3274 H   0  0  0  0  0  0  0  0  0  0  0  0
    4.9226    1.8174   16.9752 H   0  0  0  0  0  0  0  0  0  0  0  0
    3.8619    1.8564   19.2295 H   0  0  0  0  0  0  0  0  0  0  0  0
    5.0064    0.6452   21.1325 H   0  0  0  0  0  0  0  0  0  0  0  0
    8.1213   -1.4213   20.6450 H   0  0  0  0  0  0  0  0  0  0  0  0
    6.6672   -1.3118   21.6104 H   0  0  0  0  0  0  0  0  0  0  0  0
    7.3615    1.0414   22.2988 H   0  0  0  0  0  0  0  0  0  0  0  0
    8.9833    1.9915   20.9155 H   0  0  0  0  0  0  0  0  0  0  0  0
    9.5274    0.4175   20.3363 H   0  0  0  0  0  0  0  0  0  0  0  0
   11.4076    0.8603   21.7323 H   0  0  0  0  0  0  0  0  0  0  0  0
   10.4782    1.9461   22.7763 H   0  0  0  0  0  0  0  0  0  0  0  0
   10.4567    0.0801   24.2415 H   0  0  0  0  0  0  0  0  0  0  0  0
   10.6827   -1.0827   22.9362 H   0  0  0  0  0  0  0  0  0  0  0  0
    8.7278   -1.8859   24.8541 N   0  0  0  0  0  0  0  0  0  0  0  0
    8.0450   -2.6165   25.7977 C   0  0  0  0  0  0  0  0  0  0  0  0
    6.1199   -0.1545   23.5975 H   0  0  0  0  0  0  0  0  0  0  0  0
    4.8823   -1.4269   25.3786 H   0  0  0  0  0  0  0  0  0  0  0  0
    4.9516   -3.1053   27.2421 H   0  0  0  0  0  0  0  0  0  0  0  0
    6.2692   -4.7082   28.6209 H   0  0  0  0  0  0  0  0  0  0  0  0
    8.7488   -4.9649   28.1937 H   0  0  0  0  0  0  0  0  0  0  0  0
   10.4486   -3.2578   25.7865 H   0  0  0  0  0  0  0  0  0  0  0  0
  1  2  1  0
  2  3  2  0
  3  4  1  0
  4  5  2  0
  5  6  1  0
  6  7  2  0
  7  8  1  0
  8  9  2  0
  9 10  1  0
 10 11  1  0
 11 12  1  0
 12 13  1  0
 13 14  1  0
 14 15  1  0
 15 16  1  0
 16 17  2  0
 17 18  1  0
 18 19  2  0
 19 20  1  0
 20 21  2  0
 21 22  1  0
 19 23  1  0
 18 24  1  0
 17 25  1  0
 15 26  1  0
 15 27  1  0
 14 28  1  0
 13 29  1  0
 13 30  1  0
 12 31  1  0
 12 32  1  0
 11 33  1  0
 11 34  1  0
  9 35  1  0
 35 36  2  0
  8 37  1  0
  7 38  1  0
  5 39  1  0
  4 40  1  0
  3 41  1  0
  1 42  1  0
 36  2  1  0
 36  6  1  0
 14 10  1  0
 21 16  1  0
M  END
>  <cnnaffinity>  (1) 
5.36209

>  <plip>  (1) 
-0.0

>  <filename>  (1) 
[H][O][c]1[c]([H])[c]([H])[c]([H])[c]2[c]([H])[c]([H])[c]([N]3[C]([H])([H])[C]([H])([H])[C]([H])([H])[C]3([H])[C]([H])([H])[c]3[c]([H])[n][c]([H])[c]([H])[c]3[H])[n][c]12

>  <combo1>  (1) 
-5.852896327320087e-06

$$$$
