
     RDKit          3D

 32 34  0  0  0  0  0  0  0  0999 V2000
    4.9426    1.7610   16.8872 H   0  0  0  0  0  0  0  0  0  0  0  0
    5.3974    1.3203   17.7721 C   0  0  0  0  0  0  0  0  0  0  0  0
    6.5748    0.7053   17.5859 N   0  0  0  0  0  0  0  0  0  0  0  0
    7.1587    0.1667   18.6619 C   0  0  0  0  0  0  0  0  0  0  0  0
    8.0986   -0.3571   18.5001 H   0  0  0  0  0  0  0  0  0  0  0  0
    6.6243    0.2278   19.9578 C   0  0  0  0  0  0  0  0  0  0  0  0
    7.3496   -0.4541   21.0842 C   0  0  2  0  0  0  0  0  0  0  0  0
    7.1229    0.0451   22.0381 H   0  0  0  0  0  0  0  0  0  0  0  0
    8.7235   -0.3381   20.8743 F   0  0  0  0  0  0  0  0  0  0  0  0
    6.9558   -1.9291   21.1274 C   0  0  0  0  0  0  0  0  0  0  0  0
    5.8753   -1.9373   21.3308 H   0  0  0  0  0  0  0  0  0  0  0  0
    7.0608   -2.3239   20.1103 H   0  0  0  0  0  0  0  0  0  0  0  0
    7.6695   -2.8669   22.0743 C   0  0  0  0  0  0  0  0  0  0  0  0
    8.4790   -2.4502   23.1080 C   0  0  0  0  0  0  0  0  0  0  0  0
    8.6833   -1.3897   23.2511 H   0  0  0  0  0  0  0  0  0  0  0  0
    9.0840   -3.2814   24.0083 N   0  0  0  0  0  0  0  0  0  0  0  0
    8.9158   -4.5780   23.8544 C   0  0  0  0  0  0  0  0  0  0  0  0
    9.3722   -5.2273   24.6020 H   0  0  0  0  0  0  0  0  0  0  0  0
    8.1272   -5.1695   22.8145 C   0  0  0  0  0  0  0  0  0  0  0  0
    7.9202   -6.5767   22.6784 C   0  0  0  0  0  0  0  0  0  0  0  0
    8.5486   -7.2620   23.2383 H   0  0  0  0  0  0  0  0  0  0  0  0
    6.9473   -7.0531   21.8335 C   0  0  0  0  0  0  0  0  0  0  0  0
    6.7085   -8.1129   21.8360 H   0  0  0  0  0  0  0  0  0  0  0  0
    6.2440   -6.1757   20.9648 C   0  0  0  0  0  0  0  0  0  0  0  0
    5.4744   -6.5592   20.2976 H   0  0  0  0  0  0  0  0  0  0  0  0
    6.5444   -4.8298   20.9618 C   0  0  0  0  0  0  0  0  0  0  0  0
    6.0545   -4.1755   20.2478 H   0  0  0  0  0  0  0  0  0  0  0  0
    7.4523   -4.2820   21.9212 C   0  0  0  0  0  0  0  0  0  0  0  0
    5.3719    0.8276   20.1280 C   0  0  0  0  0  0  0  0  0  0  0  0
    4.8884    0.8516   21.1078 H   0  0  0  0  0  0  0  0  0  0  0  0
    4.7523    1.3925   19.0115 C   0  0  0  0  0  0  0  0  0  0  0  0
    3.7923    1.8872   19.0885 H   0  0  0  0  0  0  0  0  0  0  0  0
  1  2  1  0
  2  3  2  0
  3  4  1  0
  4  5  1  0
  4  6  2  0
  6  7  1  0
  7  8  1  1
  7  9  1  0
  7 10  1  0
 10 11  1  0
 10 12  1  0
 10 13  1  0
 13 14  2  0
 14 15  1  0
 14 16  1  0
 16 17  2  0
 17 18  1  0
 17 19  1  0
 19 20  2  0
 20 21  1  0
 20 22  1  0
 22 23  1  0
 22 24  2  0
 24 25  1  0
 24 26  1  0
 26 27  1  0
 26 28  2  0
  6 29  1  0
 29 30  1  0
 29 31  2  0
 31 32  1  0
 31  2  1  0
 28 13  1  0
 28 19  1  0
M  END
>  <cnnaffinity>  (1) 
5.15892

>  <plip>  (1) 
-0.06451612903225806

>  <filename>  (1) 
[H][c]1[n][c]([H])[c]([C@]([H])([F])[C]([H])([H])[c]2[c]([H])[n][c]([H])[c]3[c]([H])[c]([H])[c]([H])[c]([H])[c]23)[c]([H])[c]1[H]

>  <combo1>  (1) 
-0.4397464688893514

$$$$
