
     RDKit          3D

 45 47  0  0  0  0  0  0  0  0999 V2000
   12.2137   -0.0371   22.6083 C   0  0  0  0  0  0  0  0  0  0  0  0
   10.9147    0.5252   22.5139 O   0  0  0  0  0  0  0  0  0  0  0  0
   10.7916    1.8936   22.6848 C   0  0  0  0  0  0  0  0  0  0  0  0
   11.6601    2.6738   23.4431 C   0  0  0  0  0  0  0  0  0  0  0  0
   11.3352    4.0224   23.6926 C   0  0  0  0  0  0  0  0  0  0  0  0
   12.2405    4.8214   24.4850 C   0  0  0  0  0  0  0  0  0  0  0  0
   12.9946    5.4252   25.1233 N   0  0  0  0  0  0  0  0  0  0  0  0
   10.1439    4.5746   23.1884 C   0  0  0  0  0  0  0  0  0  0  0  0
    9.3229    3.7906   22.3779 C   0  0  0  0  0  0  0  0  0  0  0  0
    9.6748    2.4806   22.0464 C   0  0  0  0  0  0  0  0  0  0  0  0
    8.9032    1.6702   21.0596 C   0  0  0  0  0  0  0  0  0  0  0  0
    8.3809    0.5280   21.8293 N   0  0  0  0  0  4  0  0  0  0  0  0
    7.4908   -0.4948   21.1663 C   0  0  0  0  0  0  0  0  0  0  0  0
    6.6848    0.1448   20.0336 C   0  0  0  0  0  0  0  0  0  0  0  0
    5.4426    0.7709   20.2290 C   0  0  0  0  0  0  0  0  0  0  0  0
    4.8127    1.3996   19.1510 C   0  0  0  0  0  0  0  0  0  0  0  0
    5.4350    1.3729   17.9010 C   0  0  0  0  0  0  0  0  0  0  0  0
    6.6175    0.7797   17.6854 N   0  0  0  0  0  0  0  0  0  0  0  0
    7.2120    0.1910   18.7306 C   0  0  0  0  0  0  0  0  0  0  0  0
    8.1651   -0.2883   18.5037 H   0  0  0  0  0  0  0  0  0  0  0  0
    4.9764    1.8541   17.0388 H   0  0  0  0  0  0  0  0  0  0  0  0
    3.8557    1.8988   19.2583 H   0  0  0  0  0  0  0  0  0  0  0  0
    4.9723    0.7597   21.2131 H   0  0  0  0  0  0  0  0  0  0  0  0
    6.6034   -1.1431   22.2522 C   0  0  0  0  0  0  0  0  0  0  0  0
    7.3610   -2.3477   22.8736 C   0  0  0  0  0  0  0  0  0  0  0  0
    8.5769   -2.5950   21.9441 C   0  0  0  0  0  0  0  0  0  0  0  0
    8.2811   -1.7372   20.7038 C   0  0  0  0  0  0  0  0  0  0  0  0
    9.1711   -1.4942   20.1115 H   0  0  0  0  0  0  0  0  0  0  0  0
    7.5527   -2.2481   20.0727 H   0  0  0  0  0  0  0  0  0  0  0  0
    9.5170   -2.2804   22.4214 H   0  0  0  0  0  0  0  0  0  0  0  0
    8.7054   -3.6536   21.6926 H   0  0  0  0  0  0  0  0  0  0  0  0
    6.7045   -3.2257   22.9127 H   0  0  0  0  0  0  0  0  0  0  0  0
    7.6733   -2.1271   23.9004 H   0  0  0  0  0  0  0  0  0  0  0  0
    5.7104   -1.5183   21.7491 H   0  0  0  0  0  0  0  0  0  0  0  0
    6.2469   -0.4110   22.9845 H   0  0  0  0  0  0  0  0  0  0  0  0
    7.8463    0.9259   22.6380 H   0  0  0  0  0  0  0  0  0  0  0  0
    9.2272    0.0555   22.2112 H   0  0  0  0  0  0  0  0  0  0  0  0
    8.0927    2.2458   20.6087 H   0  0  0  0  0  0  0  0  0  0  0  0
    9.5485    1.3043   20.2508 H   0  0  0  0  0  0  0  0  0  0  0  0
    8.4152    4.2181   21.9494 H   0  0  0  0  0  0  0  0  0  0  0  0
    9.8656    5.6019   23.4053 H   0  0  0  0  0  0  0  0  0  0  0  0
   12.5837    2.2531   23.8276 H   0  0  0  0  0  0  0  0  0  0  0  0
   12.5480   -0.0763   23.6516 H   0  0  0  0  0  0  0  0  0  0  0  0
   12.1394   -1.0532   22.2159 H   0  0  0  0  0  0  0  0  0  0  0  0
   12.9357    0.5294   22.0080 H   0  0  0  0  0  0  0  0  0  0  0  0
  1  2  1  0
  2  3  1  0
  3  4  2  0
  4  5  1  0
  5  6  1  0
  6  7  3  0
  5  8  2  0
  8  9  1  0
  9 10  2  0
 10 11  1  0
 11 12  1  0
 12 13  1  0
 13 14  1  0
 14 15  2  0
 15 16  1  0
 16 17  2  0
 17 18  1  0
 18 19  2  0
 19 20  1  0
 17 21  1  0
 16 22  1  0
 15 23  1  0
 13 24  1  0
 24 25  1  0
 25 26  1  0
 26 27  1  0
 27 28  1  0
 27 29  1  0
 26 30  1  0
 26 31  1  0
 25 32  1  0
 25 33  1  0
 24 34  1  0
 24 35  1  0
 12 36  1  0
 12 37  1  0
 11 38  1  0
 11 39  1  0
  9 40  1  0
  8 41  1  0
  4 42  1  0
  1 43  1  0
  1 44  1  0
  1 45  1  0
 10  3  1  0
 27 13  1  0
 19 14  1  0
M  CHG  1  12   1
M  END
>  <cnnaffinity>  (1) 
5.38702

>  <plip>  (1) 
-0.10714285714285714

>  <filename>  (1) 
[H][c]1[n][c]([H])[c]([C]2([N+]([H])([H])[C]([H])([H])[c]3[c]([H])[c]([H])[c]([C]#[N])[c]([H])[c]3[O][C]([H])([H])[H])[C]([H])([H])[C]([H])([H])[C]([H])([H])[C]2([H])[H])[c]([H])[c]1[H]

>  <combo1>  (1) 
-0.6238341512899324

$$$$
