
     RDKit          3D

 34 36  0  0  0  0  0  0  0  0999 V2000
    6.6982   -1.5251   21.8417 C   0  0  0  0  0  0  0  0  0  0  0  0
    7.3456   -0.7616   20.9491 C   0  0  0  0  0  0  0  0  0  0  0  0
    6.6380   -0.0150   19.8617 C   0  0  0  0  0  0  0  0  0  0  0  0
    5.4200    0.6564   20.0977 C   0  0  0  0  0  0  0  0  0  0  0  0
    4.7907    1.3365   19.0541 C   0  0  0  0  0  0  0  0  0  0  0  0
    5.3909    1.3296   17.7923 C   0  0  0  0  0  0  0  0  0  0  0  0
    6.5488    0.7033   17.5347 N   0  0  0  0  0  0  0  0  0  0  0  0
    7.1492    0.0677   18.5495 C   0  0  0  0  0  0  0  0  0  0  0  0
    8.0964   -0.4131   18.2992 H   0  0  0  0  0  0  0  0  0  0  0  0
    4.9211    1.8461   16.9571 H   0  0  0  0  0  0  0  0  0  0  0  0
    3.8576    1.8711   19.2009 H   0  0  0  0  0  0  0  0  0  0  0  0
    4.9908    0.6742   21.0995 H   0  0  0  0  0  0  0  0  0  0  0  0
    8.8505   -0.6337   21.0217 C   0  0  0  0  0  0  0  0  0  0  0  0
    9.3831   -0.9727   22.4461 N   0  0  0  0  0  4  0  0  0  0  0  0
   10.8728   -0.7215   22.5281 C   0  0  0  0  0  0  0  0  0  0  0  0
   11.2801    0.7357   22.4018 C   0  0  0  0  0  0  0  0  0  0  0  0
   11.3751    1.6654   23.3888 C   0  0  0  0  0  0  0  0  0  0  0  0
   11.9159    3.1668   22.7430 S   0  0  0  0  0  0  0  0  0  0  0  0
   11.9390    2.4476   21.1793 C   0  0  0  0  0  0  0  0  0  0  0  0
   11.6063    1.1963   21.1440 N   0  0  0  0  0  0  0  0  0  0  0  0
   12.1422    3.0386   20.2952 H   0  0  0  0  0  0  0  0  0  0  0  0
   11.1385    1.5562   24.4382 H   0  0  0  0  0  0  0  0  0  0  0  0
   11.3690   -1.2410   21.6987 H   0  0  0  0  0  0  0  0  0  0  0  0
   11.2603   -1.1385   23.4617 H   0  0  0  0  0  0  0  0  0  0  0  0
    8.8665   -2.3262   22.8787 C   0  0  0  0  0  0  0  0  0  0  0  0
    7.3518   -2.2022   23.0322 C   0  0  0  0  0  0  0  0  0  0  0  0
    6.9139   -3.1944   23.1823 H   0  0  0  0  0  0  0  0  0  0  0  0
    7.1179   -1.6327   23.9451 H   0  0  0  0  0  0  0  0  0  0  0  0
    9.1177   -3.0750   22.1201 H   0  0  0  0  0  0  0  0  0  0  0  0
    9.3326   -2.6280   23.8237 H   0  0  0  0  0  0  0  0  0  0  0  0
    8.8882   -0.2897   23.0743 H   0  0  0  0  0  0  0  0  0  0  0  0
    9.3449   -1.3089   20.3122 H   0  0  0  0  0  0  0  0  0  0  0  0
    9.1639    0.3833   20.7959 H   0  0  0  0  0  0  0  0  0  0  0  0
    5.6260   -1.6753   21.7265 H   0  0  0  0  0  0  0  0  0  0  0  0
  1  2  2  0
  2  3  1  0
  3  4  2  0
  4  5  1  0
  5  6  2  0
  6  7  1  0
  7  8  2  0
  8  9  1  0
  6 10  1  0
  5 11  1  0
  4 12  1  0
  2 13  1  0
 13 14  1  0
 14 15  1  0
 15 16  1  0
 16 17  2  0
 17 18  1  0
 18 19  1  0
 19 20  2  0
 19 21  1  0
 17 22  1  0
 15 23  1  0
 15 24  1  0
 14 25  1  0
 25 26  1  0
 26 27  1  0
 26 28  1  0
 25 29  1  0
 25 30  1  0
 14 31  1  0
 13 32  1  0
 13 33  1  0
  1 34  1  0
 26  1  1  0
  8  3  1  0
 20 16  1  0
M  CHG  1  14   1
M  END
>  <cnnaffinity>  (1) 
5.05241

>  <plip>  (1) 
-0.07142857142857142

>  <filename>  (1) 
[H][C]1=[C]([c]2[c]([H])[n][c]([H])[c]([H])[c]2[H])[C]([H])([H])[N+]([H])([C]([H])([H])[c]2[n][c]([H])[s][c]2[H])[C]([H])([H])[C]1([H])[H]

>  <combo1>  (1) 
-0.46559382354946854

$$$$
