
     RDKit          3D

 33 35  0  0  0  0  0  0  0  0999 V2000
    4.8827   -3.1035   21.6863 N   0  0  0  0  0  0  0  0  0  0  0  0
    5.7544   -2.3411   21.6721 C   0  0  0  0  0  0  0  0  0  0  0  0
    6.9658   -1.5963   21.8044 C   0  0  0  0  0  0  0  0  0  0  0  0
    7.4318   -0.6781   20.9242 C   0  0  0  0  0  0  0  0  0  0  0  0
    6.6729    0.0328   19.8893 C   0  0  0  0  0  0  0  0  0  0  0  0
    5.4415    0.6537   20.1370 C   0  0  0  0  0  0  0  0  0  0  0  0
    4.7990    1.3097   19.0848 C   0  0  0  0  0  0  0  0  0  0  0  0
    5.3875    1.3030   17.8197 C   0  0  0  0  0  0  0  0  0  0  0  0
    6.5608    0.6990   17.5602 N   0  0  0  0  0  0  0  0  0  0  0  0
    7.1827    0.1004   18.5736 C   0  0  0  0  0  0  0  0  0  0  0  0
    8.1323   -0.3796   18.3294 H   0  0  0  0  0  0  0  0  0  0  0  0
    4.9119    1.8061   16.9773 H   0  0  0  0  0  0  0  0  0  0  0  0
    3.8642    1.8358   19.2278 H   0  0  0  0  0  0  0  0  0  0  0  0
    5.0184    0.6180   21.1395 H   0  0  0  0  0  0  0  0  0  0  0  0
    8.5096   -0.4957   20.9605 H   0  0  0  0  0  0  0  0  0  0  0  0
    7.8513   -2.1961   22.8580 C   0  0  0  0  0  0  0  0  0  0  0  0
    9.0451   -2.3086   22.6400 O   0  0  0  0  0  0  0  0  0  0  0  0
    7.2496   -2.7173   24.1450 C   0  0  0  0  0  0  0  0  0  0  0  0
    6.1469   -2.0760   24.7989 C   0  0  0  0  0  0  0  0  0  0  0  0
    5.6533   -2.5843   25.9740 C   0  0  0  0  0  0  0  0  0  0  0  0
    6.2236   -3.7507   26.5556 C   0  0  0  0  0  0  0  0  0  0  0  0
    5.7008   -4.1985   27.7366 N   0  0  0  0  0  0  0  0  0  0  0  0
    6.2419   -5.2657   28.2799 C   0  0  0  0  0  0  0  0  0  0  0  0
    7.3389   -5.9799   27.7153 C   0  0  0  0  0  0  0  0  0  0  0  0
    7.8753   -5.5497   26.5269 C   0  0  0  0  0  0  0  0  0  0  0  0
    7.3164   -4.4000   25.8986 C   0  0  0  0  0  0  0  0  0  0  0  0
    7.8066   -3.8572   24.6885 C   0  0  0  0  0  0  0  0  0  0  0  0
    8.6477   -4.3373   24.1927 H   0  0  0  0  0  0  0  0  0  0  0  0
    8.7188   -6.0547   26.0567 H   0  0  0  0  0  0  0  0  0  0  0  0
    7.7209   -6.8493   28.2357 H   0  0  0  0  0  0  0  0  0  0  0  0
    5.8052   -5.6033   29.2208 H   0  0  0  0  0  0  0  0  0  0  0  0
    4.8245   -2.1417   26.5138 H   0  0  0  0  0  0  0  0  0  0  0  0
    5.7082   -1.1758   24.3771 H   0  0  0  0  0  0  0  0  0  0  0  0
  1  2  3  0
  2  3  1  0
  3  4  2  3
  4  5  1  0
  5  6  2  0
  6  7  1  0
  7  8  2  0
  8  9  1  0
  9 10  2  0
 10 11  1  0
  8 12  1  0
  7 13  1  0
  6 14  1  0
  4 15  1  0
  3 16  1  0
 16 17  2  0
 16 18  1  0
 18 19  2  0
 19 20  1  0
 20 21  2  0
 21 22  1  0
 22 23  2  0
 23 24  1  0
 24 25  2  0
 25 26  1  0
 26 27  2  0
 27 28  1  0
 25 29  1  0
 24 30  1  0
 23 31  1  0
 20 32  1  0
 19 33  1  0
 10  5  1  0
 27 18  1  0
 26 21  1  0
M  END
>  <cnnaffinity>  (1) 
5.30423

>  <plip>  (1) 
-0.07142857142857142

>  <filename>  (1) 
[H][C](=[C]([C]#[N])[C](=[O])[c]1[c]([H])[c]([H])[c]2[n][c]([H])[c]([H])[c]([H])[c]2[c]1[H])[c]1[c]([H])[n][c]([H])[c]([H])[c]1[H]

>  <combo1>  (1) 
-0.4426517159687862

$$$$
