
     RDKit          3D

 30 32  0  0  0  0  0  0  0  0999 V2000
    4.8062    1.3104   19.1060 C   0  0  0  0  0  0  0  0  0  0  0  0
    5.4031    1.2915   17.8408 C   0  0  0  0  0  0  0  0  0  0  0  0
    6.5679    0.6763   17.5811 N   0  0  0  0  0  0  0  0  0  0  0  0
    7.1753    0.0691   18.6089 C   0  0  0  0  0  0  0  0  0  0  0  0
    6.6637    0.0135   19.9116 C   0  0  0  0  0  0  0  0  0  0  0  0
    7.4211   -0.6853   21.0091 C   0  0  0  0  0  0  0  0  0  0  0  0
    8.2933    0.2721   21.6033 O   0  0  0  0  0  0  0  0  0  0  0  0
    9.0943   -0.0708   22.6541 C   0  0  0  0  0  0  0  0  0  0  0  0
    9.1684   -1.3278   23.2256 C   0  0  0  0  0  0  0  0  0  0  0  0
   10.0526   -1.5706   24.3196 C   0  0  0  0  0  0  0  0  0  0  0  0
   10.8454   -0.5712   24.8295 C   0  0  0  0  0  0  0  0  0  0  0  0
   10.7874    0.7358   24.2530 C   0  0  0  0  0  0  0  0  0  0  0  0
   11.6005    1.8120   24.7145 C   0  0  0  0  0  0  0  0  0  0  0  0
   11.5920    3.0429   24.2540 N   0  0  0  0  0  0  0  0  0  0  0  0
   10.7440    3.2857   23.2192 C   0  0  0  0  0  0  0  0  0  0  0  0
    9.9208    2.3385   22.6561 C   0  0  0  0  0  0  0  0  0  0  0  0
    9.9126    1.0072   23.1650 C   0  0  0  0  0  0  0  0  0  0  0  0
    9.2727    2.5873   21.8299 H   0  0  0  0  0  0  0  0  0  0  0  0
   10.7601    4.3030   22.8420 H   0  0  0  0  0  0  0  0  0  0  0  0
   12.3213    1.5887   25.4779 H   0  0  0  0  0  0  0  0  0  0  0  0
   11.5327   -0.7452   25.6569 H   0  0  0  0  0  0  0  0  0  0  0  0
   10.0854   -2.5738   24.7407 H   0  0  0  0  0  0  0  0  0  0  0  0
    8.5514   -2.1368   22.8448 H   0  0  0  0  0  0  0  0  0  0  0  0
    6.7165   -1.0717   21.7606 H   0  0  0  0  0  0  0  0  0  0  0  0
    8.0097   -1.5197   20.6019 H   0  0  0  0  0  0  0  0  0  0  0  0
    5.4425    0.6520   20.1596 C   0  0  0  0  0  0  0  0  0  0  0  0
    5.0068    0.6369   21.1624 H   0  0  0  0  0  0  0  0  0  0  0  0
    8.1198   -0.4203   18.3750 H   0  0  0  0  0  0  0  0  0  0  0  0
    4.9195    1.7796   16.9963 H   0  0  0  0  0  0  0  0  0  0  0  0
    3.8733    1.8432   19.2565 H   0  0  0  0  0  0  0  0  0  0  0  0
  1  2  2  0
  2  3  1  0
  3  4  2  0
  4  5  1  0
  5  6  1  0
  6  7  1  0
  7  8  1  0
  8  9  2  0
  9 10  1  0
 10 11  2  0
 11 12  1  0
 12 13  2  0
 13 14  1  0
 14 15  2  0
 15 16  1  0
 16 17  2  0
 16 18  1  0
 15 19  1  0
 13 20  1  0
 11 21  1  0
 10 22  1  0
  9 23  1  0
  6 24  1  0
  6 25  1  0
  5 26  2  0
 26 27  1  0
  4 28  1  0
  2 29  1  0
  1 30  1  0
 26  1  1  0
 17  8  1  0
 17 12  1  0
M  END
>  <cnnaffinity>  (1) 
4.87848

>  <plip>  (1) 
-0.06896551724137931

>  <filename>  (1) 
[H][c]1[n][c]([H])[c]([C]([H])([H])[O][c]2[c]([H])[c]([H])[c]([H])[c]3[c]([H])[n][c]([H])[c]([H])[c]23)[c]([H])[c]1[H]

>  <combo1>  (1) 
-0.4746563968834546

$$$$
