
     RDKit          3D

 20 20  0  0  0  0  0  0  0  0999 V2000
    5.5936    4.7603   24.2647 H   0  0  0  0  0  0  0  0  0  0  0  0
    6.2261    4.1660   23.6372 C   0  0  0  0  0  0  0  0  0  0  0  0
    6.9269    3.4854   22.9332 C   0  0  0  0  0  0  0  0  0  0  0  0
    7.7958    2.6781   22.0663 C   0  0  0  0  0  0  0  0  0  0  0  0
    8.8359    3.0275   22.1136 H   0  0  0  0  0  0  0  0  0  0  0  0
    7.4672    2.7422   21.0232 H   0  0  0  0  0  0  0  0  0  0  0  0
    7.7270    1.3162   22.4843 O   0  0  0  0  0  0  0  0  0  0  0  0
    8.5366    0.5459   21.5830 N   0  0  0  0  0  0  0  0  0  0  0  0
    9.3037    0.2080   22.1705 H   0  0  0  0  0  0  0  0  0  0  0  0
    7.5459   -0.8634   21.1653 S   0  0  0  0  0  0  0  0  0  0  0  0
    6.6390   -0.0103   19.8994 C   0  0  0  0  0  0  0  0  0  0  0  0
    7.1733    0.0581   18.6038 C   0  0  0  0  0  0  0  0  0  0  0  0
    8.1241   -0.4240   18.3861 H   0  0  0  0  0  0  0  0  0  0  0  0
    6.5681    0.6798   17.5817 N   0  0  0  0  0  0  0  0  0  0  0  0
    5.4008    1.2934   17.8391 C   0  0  0  0  0  0  0  0  0  0  0  0
    4.9229    1.7846   16.9935 H   0  0  0  0  0  0  0  0  0  0  0  0
    4.8034    1.3105   19.1058 C   0  0  0  0  0  0  0  0  0  0  0  0
    3.8729    1.8453   19.2540 H   0  0  0  0  0  0  0  0  0  0  0  0
    5.4326    0.6433   20.1675 C   0  0  0  0  0  0  0  0  0  0  0  0
    5.0207    0.6385   21.1786 H   0  0  0  0  0  0  0  0  0  0  0  0
  1  2  1  0
  2  3  3  0
  3  4  1  0
  4  5  1  0
  4  6  1  0
  4  7  1  0
  7  8  1  0
  8  9  1  0
  8 10  1  0
 10 11  1  0
 11 12  2  0
 12 13  1  0
 12 14  1  0
 14 15  2  0
 15 16  1  0
 15 17  1  0
 17 18  1  0
 17 19  2  0
 19 20  1  0
 19 11  1  0
M  END
>  <cnnaffinity>  (1) 
3.84639

>  <plip>  (1) 
-0.03571428571428571

>  <filename>  (1) 
[H][C]#[C][C]([H])([H])[O][N]([H])[S][c]1[c]([H])[n][c]([H])[c]([H])[c]1[H]

>  <combo1>  (1) 
-0.254063413505133

$$$$
