
     RDKit          3D

 45 47  0  0  0  0  0  0  0  0999 V2000
    9.0720    6.6440   23.7805 H   0  0  0  0  0  0  0  0  0  0  0  0
    9.4357    5.8761   24.2320 O   0  0  0  0  0  0  0  0  0  0  0  0
   10.1421    5.0961   23.2791 C   0  0  0  0  0  0  0  0  0  0  0  0
    9.9517    5.4297   22.2452 H   0  0  0  0  0  0  0  0  0  0  0  0
   11.2226    5.2027   23.4588 H   0  0  0  0  0  0  0  0  0  0  0  0
    9.7284    3.6319   23.4377 C   0  0  0  0  0  0  0  0  0  0  0  0
    9.7436    3.4544   24.5185 H   0  0  0  0  0  0  0  0  0  0  0  0
   10.7216    2.6395   22.7762 C   0  0  0  0  0  0  0  0  0  0  0  0
   11.6712    3.1404   22.5528 H   0  0  0  0  0  0  0  0  0  0  0  0
   10.9467    1.8181   23.4747 H   0  0  0  0  0  0  0  0  0  0  0  0
   10.1598    2.0169   21.4881 C   0  0  0  0  0  0  0  0  0  0  0  0
   10.8946    1.3133   21.0739 H   0  0  0  0  0  0  0  0  0  0  0  0
   10.0406    2.8014   20.7318 H   0  0  0  0  0  0  0  0  0  0  0  0
    8.8609    1.3636   21.6840 N   0  0  0  0  0  0  0  0  0  0  0  0
    8.7892   -0.0567   21.4181 C   0  0  1  0  0  0  0  0  0  0  0  0
    9.3387   -0.2113   20.4729 H   0  0  0  0  0  0  0  0  0  0  0  0
    9.5320   -0.9076   22.4747 C   0  0  0  0  0  0  0  0  0  0  0  0
    9.0763   -0.7340   23.4597 H   0  0  0  0  0  0  0  0  0  0  0  0
   10.5782   -0.5862   22.5275 H   0  0  0  0  0  0  0  0  0  0  0  0
    9.4726   -2.3919   22.1211 C   0  0  0  0  0  0  0  0  0  0  0  0
   10.0229   -2.5836   21.1875 H   0  0  0  0  0  0  0  0  0  0  0  0
    9.9519   -3.0101   22.8894 H   0  0  0  0  0  0  0  0  0  0  0  0
    8.1051   -2.8627   21.9250 N   0  0  0  0  0  0  0  0  0  0  0  0
    7.6129   -2.8041   22.8133 H   0  0  0  0  0  0  0  0  0  0  0  0
    7.3832   -2.0628   20.9399 C   0  0  0  0  0  0  0  0  0  0  0  0
    6.3919   -2.4931   20.7854 H   0  0  0  0  0  0  0  0  0  0  0  0
    7.8951   -2.1298   19.9886 H   0  0  0  0  0  0  0  0  0  0  0  0
    7.3217   -0.5455   21.1831 C   0  0  2  0  0  0  0  0  0  0  0  0
    6.7625   -0.3852   22.1140 H   0  0  0  0  0  0  0  0  0  0  0  0
    6.5910    0.1488   20.0137 C   0  0  0  0  0  0  0  0  0  0  0  0
    7.1355    0.1467   18.7100 C   0  0  0  0  0  0  0  0  0  0  0  0
    8.0790   -0.3620   18.5152 H   0  0  0  0  0  0  0  0  0  0  0  0
    6.5698    0.7191   17.6348 N   0  0  0  0  0  0  0  0  0  0  0  0
    5.3922    1.3290   17.8158 C   0  0  0  0  0  0  0  0  0  0  0  0
    4.9509    1.7880   16.9316 H   0  0  0  0  0  0  0  0  0  0  0  0
    4.7350    1.3788   19.0477 C   0  0  0  0  0  0  0  0  0  0  0  0
    3.7780    1.8849   19.1221 H   0  0  0  0  0  0  0  0  0  0  0  0
    5.3473    0.7835   20.1600 C   0  0  0  0  0  0  0  0  0  0  0  0
    4.8471    0.8107   21.1312 H   0  0  0  0  0  0  0  0  0  0  0  0
    7.9986    1.9039   22.7406 C   0  0  0  0  0  0  0  0  0  0  0  0
    8.1293    1.3681   23.7050 H   0  0  0  0  0  0  0  0  0  0  0  0
    6.9472    1.7787   22.4504 H   0  0  0  0  0  0  0  0  0  0  0  0
    8.2794    3.3948   22.9440 C   0  0  0  0  0  0  0  0  0  0  0  0
    7.5606    3.8326   23.6464 H   0  0  0  0  0  0  0  0  0  0  0  0
    8.1235    3.8940   21.9754 H   0  0  0  0  0  0  0  0  0  0  0  0
  1  2  1  0
  2  3  1  0
  3  4  1  0
  3  5  1  0
  3  6  1  0
  6  7  1  0
  6  8  1  0
  8  9  1  0
  8 10  1  0
  8 11  1  0
 11 12  1  0
 11 13  1  0
 11 14  1  0
 14 15  1  0
 15 16  1  6
 15 17  1  0
 17 18  1  0
 17 19  1  0
 17 20  1  0
 20 21  1  0
 20 22  1  0
 20 23  1  0
 23 24  1  0
 23 25  1  0
 25 26  1  0
 25 27  1  0
 25 28  1  0
 28 29  1  1
 28 30  1  0
 30 31  2  0
 31 32  1  0
 31 33  1  0
 33 34  2  0
 34 35  1  0
 34 36  1  0
 36 37  1  0
 36 38  2  0
 38 39  1  0
 14 40  1  0
 40 41  1  0
 40 42  1  0
 40 43  1  0
 43 44  1  0
 43 45  1  0
 43  6  1  0
 28 15  1  0
 38 30  1  0
M  END
>  <cnnaffinity>  (1) 
4.75936

>  <plip>  (1) 
-0.06896551724137931

>  <filename>  (1) 
[H][O][C]([H])([H])[C]1([H])[C]([H])([H])[C]([H])([H])[N]([C@@]2([H])[C]([H])([H])[C]([H])([H])[N]([H])[C]([H])([H])[C@]2([H])[c]2[c]([H])[n][c]([H])[c]([H])[c]2[H])[C]([H])([H])[C]1([H])[H]

>  <combo1>  (1) 
-0.3972845455730791

$$$$
