
     RDKit          3D

 42 43  0  0  0  0  0  0  0  0999 V2000
    9.0799   -0.8379   24.4798 C   0  0  0  0  0  0  0  0  0  0  0  0
    7.8008   -1.5197   24.8432 C   0  0  0  0  0  0  0  0  0  0  0  0
    7.0714   -1.1318   25.9638 C   0  0  0  0  0  0  0  0  0  0  0  0
    5.8836   -1.8291   26.2255 C   0  0  0  0  0  0  0  0  0  0  0  0
    4.9617   -1.4278   27.4212 C   0  0  0  0  0  0  0  0  0  0  0  0
    3.9096   -2.2359   27.5774 F   0  0  0  0  0  0  0  0  0  0  0  0
    5.6524   -1.4393   28.5808 F   0  0  0  0  0  0  0  0  0  0  0  0
    4.4771   -0.1756   27.2728 F   0  0  0  0  0  0  0  0  0  0  0  0
    5.5351   -2.8666   25.4583 N   0  0  0  0  0  0  0  0  0  0  0  0
    6.3006   -3.1285   24.4106 C   0  0  0  0  0  0  0  0  0  0  0  0
    5.8672   -4.1955   23.7440 N   0  0  0  0  0  0  0  0  0  0  0  0
    6.3787   -4.7321   22.5108 C   0  0  0  0  0  0  0  0  0  0  0  0
    5.7095   -4.1062   21.2785 C   0  0  0  0  0  0  0  0  0  0  0  0
    5.8005   -2.5923   21.1335 C   0  0  0  0  0  0  0  0  0  0  0  0
    7.1941   -2.1271   21.2923 N   0  0  0  0  0  4  0  0  0  0  0  0
    7.3967   -0.6721   21.1505 C   0  0  0  0  0  0  0  0  0  0  0  0
    6.6872   -0.0503   19.9733 C   0  0  0  0  0  0  0  0  0  0  0  0
    5.4824    0.6461   20.1457 C   0  0  0  0  0  0  0  0  0  0  0  0
    4.8933    1.2696   19.0463 C   0  0  0  0  0  0  0  0  0  0  0  0
    5.5226    1.1563   17.8041 C   0  0  0  0  0  0  0  0  0  0  0  0
    6.6492    0.4571   17.6103 N   0  0  0  0  0  0  0  0  0  0  0  0
    7.2087   -0.1287   18.6787 C   0  0  0  0  0  0  0  0  0  0  0  0
    8.1435   -0.6594   18.4878 H   0  0  0  0  0  0  0  0  0  0  0  0
    5.1022    1.6559   16.9309 H   0  0  0  0  0  0  0  0  0  0  0  0
    3.9836    1.8559   19.1400 H   0  0  0  0  0  0  0  0  0  0  0  0
    5.0167    0.6987   21.1319 H   0  0  0  0  0  0  0  0  0  0  0  0
    8.4712   -0.4851   21.0958 H   0  0  0  0  0  0  0  0  0  0  0  0
    7.0350   -0.1772   22.0596 H   0  0  0  0  0  0  0  0  0  0  0  0
    7.8000   -2.6264   20.6011 H   0  0  0  0  0  0  0  0  0  0  0  0
    7.5038   -2.3720   22.2927 H   0  0  0  0  0  0  0  0  0  0  0  0
    5.4217   -2.2832   20.1490 H   0  0  0  0  0  0  0  0  0  0  0  0
    5.1567   -2.0878   21.8639 H   0  0  0  0  0  0  0  0  0  0  0  0
    6.0709   -4.6044   20.3670 H   0  0  0  0  0  0  0  0  0  0  0  0
    4.6486   -4.3448   21.3671 H   0  0  0  0  0  0  0  0  0  0  0  0
    6.1949   -5.8160   22.5103 H   0  0  0  0  0  0  0  0  0  0  0  0
    7.4721   -4.6193   22.4722 H   0  0  0  0  0  0  0  0  0  0  0  0
    5.0796   -4.4904   24.3060 H   0  0  0  0  0  0  0  0  0  0  0  0
    7.3810   -2.4796   24.0014 N   0  0  0  0  0  0  0  0  0  0  0  0
    7.4366   -0.3356   26.5955 H   0  0  0  0  0  0  0  0  0  0  0  0
    9.5301   -1.3440   23.6206 H   0  0  0  0  0  0  0  0  0  0  0  0
    9.7893   -0.8492   25.3166 H   0  0  0  0  0  0  0  0  0  0  0  0
    8.8955    0.2105   24.2143 H   0  0  0  0  0  0  0  0  0  0  0  0
  1  2  1  0
  2  3  2  0
  3  4  1  0
  4  5  1  0
  5  6  1  0
  5  7  1  0
  5  8  1  0
  4  9  2  0
  9 10  1  0
 10 11  1  0
 11 12  1  0
 12 13  1  0
 13 14  1  0
 14 15  1  0
 15 16  1  0
 16 17  1  0
 17 18  2  0
 18 19  1  0
 19 20  2  0
 20 21  1  0
 21 22  2  0
 22 23  1  0
 20 24  1  0
 19 25  1  0
 18 26  1  0
 16 27  1  0
 16 28  1  0
 15 29  1  0
 15 30  1  0
 14 31  1  0
 14 32  1  0
 13 33  1  0
 13 34  1  0
 12 35  1  0
 12 36  1  0
 11 37  1  0
 10 38  2  0
  3 39  1  0
  1 40  1  0
  1 41  1  0
  1 42  1  0
 38  2  1  0
 22 17  1  0
M  CHG  1  15   1
M  END
>  <cnnaffinity>  (1) 
5.32623

>  <plip>  (1) 
-0.07142857142857142

>  <filename>  (1) 
[H][c]1[n][c]([H])[c]([C]([H])([H])[N+]([H])([H])[C]([H])([H])[C]([H])([H])[C]([H])([H])[N]([H])[c]2[n][c]([C]([H])([H])[H])[c]([H])[c]([C]([F])([F])[F])[n]2)[c]([H])[c]1[H]

>  <combo1>  (1) 
-0.3885906369313554

$$$$
