
     RDKit          3D

 44 47  0  0  0  0  0  0  0  0999 V2000
    4.9627    1.7807   17.0018 H   0  0  0  0  0  0  0  0  0  0  0  0
    5.4232    1.2795   17.8505 C   0  0  0  0  0  0  0  0  0  0  0  0
    6.5829    0.6513   17.6054 N   0  0  0  0  0  0  0  0  0  0  0  0
    7.1782    0.0429   18.6328 C   0  0  0  0  0  0  0  0  0  0  0  0
    8.1213   -0.4614   18.4244 H   0  0  0  0  0  0  0  0  0  0  0  0
    6.6575    0.0230   19.9350 C   0  0  0  0  0  0  0  0  0  0  0  0
    7.4432   -0.6697   20.9503 C   0  0  0  0  0  0  0  0  0  0  0  0
    8.5698   -1.2959   20.7935 N   0  0  0  0  0  0  0  0  0  0  0  0
    8.9003   -1.8210   22.0353 N   0  0  0  0  0  0  0  0  0  0  0  0
    7.9591   -1.4699   22.8514 C   0  0  0  0  0  0  0  0  0  0  0  0
    7.7642   -1.8419   24.2678 C   0  0  0  0  0  0  0  0  0  0  0  0
    7.9936   -0.6968   25.2371 C   0  0  0  0  0  0  0  0  0  0  0  0
    7.7436   -1.0683   26.2417 H   0  0  0  0  0  0  0  0  0  0  0  0
    7.2786    0.1207   25.0402 H   0  0  0  0  0  0  0  0  0  0  0  0
    9.3882   -0.2470   25.2120 N   0  0  0  0  0  0  0  0  0  0  0  0
    9.9242   -0.0443   26.5566 C   0  0  0  0  0  0  0  0  0  0  0  0
    9.9173   -0.9887   27.1127 H   0  0  0  0  0  0  0  0  0  0  0  0
   10.9591    0.3064   26.5138 H   0  0  0  0  0  0  0  0  0  0  0  0
    9.3233    0.6872   27.1253 H   0  0  0  0  0  0  0  0  0  0  0  0
    9.6253    0.9234   24.3570 C   0  0  0  0  0  0  0  0  0  0  0  0
    9.0076    0.8362   23.4579 H   0  0  0  0  0  0  0  0  0  0  0  0
    9.3034    1.8608   24.8534 H   0  0  0  0  0  0  0  0  0  0  0  0
   11.0677    1.0872   23.8941 C   0  0  0  0  0  0  0  0  0  0  0  0
   11.7570    2.2950   24.1059 C   0  0  0  0  0  0  0  0  0  0  0  0
   11.2446    3.1245   24.5966 H   0  0  0  0  0  0  0  0  0  0  0  0
   13.0767    2.4549   23.6596 C   0  0  0  0  0  0  0  0  0  0  0  0
   13.6040    3.3957   23.8088 H   0  0  0  0  0  0  0  0  0  0  0  0
   13.7319    1.3965   23.0276 C   0  0  0  0  0  0  0  0  0  0  0  0
   14.7779    1.4942   22.7426 H   0  0  0  0  0  0  0  0  0  0  0  0
   13.0420    0.2048   22.7849 C   0  0  0  0  0  0  0  0  0  0  0  0
   13.5384   -0.6187   22.2827 H   0  0  0  0  0  0  0  0  0  0  0  0
   11.7112    0.0560   23.1877 C   0  0  0  0  0  0  0  0  0  0  0  0
   11.1717   -0.8579   22.9392 H   0  0  0  0  0  0  0  0  0  0  0  0
    6.7324   -2.8845   24.6372 C   0  0  0  0  0  0  0  0  0  0  0  0
    6.1301   -3.3250   23.8477 H   0  0  0  0  0  0  0  0  0  0  0  0
    6.2021   -2.7391   25.5766 H   0  0  0  0  0  0  0  0  0  0  0  0
    8.1907   -3.2235   24.6919 C   0  0  0  0  0  0  0  0  0  0  0  0
    8.5852   -3.8771   23.9178 H   0  0  0  0  0  0  0  0  0  0  0  0
    8.6736   -3.3182   25.6635 H   0  0  0  0  0  0  0  0  0  0  0  0
    7.0051   -0.7248   22.2299 O   0  0  0  0  0  0  0  0  0  0  0  0
    5.4302    0.6634   20.1784 C   0  0  0  0  0  0  0  0  0  0  0  0
    4.9772    0.6654   21.1705 H   0  0  0  0  0  0  0  0  0  0  0  0
    4.8094    1.3054   19.1085 C   0  0  0  0  0  0  0  0  0  0  0  0
    3.8734    1.8374   19.2359 H   0  0  0  0  0  0  0  0  0  0  0  0
  1  2  1  0
  2  3  2  0
  3  4  1  0
  4  5  1  0
  4  6  2  0
  6  7  1  0
  7  8  2  0
  8  9  1  0
  9 10  2  0
 10 11  1  0
 11 12  1  0
 12 13  1  0
 12 14  1  0
 12 15  1  0
 15 16  1  0
 16 17  1  0
 16 18  1  0
 16 19  1  0
 15 20  1  0
 20 21  1  0
 20 22  1  0
 20 23  1  0
 23 24  2  0
 24 25  1  0
 24 26  1  0
 26 27  1  0
 26 28  2  0
 28 29  1  0
 28 30  1  0
 30 31  1  0
 30 32  2  0
 32 33  1  0
 11 34  1  0
 34 35  1  0
 34 36  1  0
 34 37  1  0
 37 38  1  0
 37 39  1  0
 10 40  1  0
  6 41  1  0
 41 42  1  0
 41 43  2  0
 43 44  1  0
 43  2  1  0
 40  7  1  0
 37 11  1  0
 32 23  1  0
M  END
>  <cnnaffinity>  (1) 
5.97295

>  <plip>  (1) 
-0.07142857142857142

>  <filename>  (1) 
[H][c]1[n][c]([H])[c](-[c]2[n][n][c]([C]3([C]([H])([H])[N]([C]([H])([H])[H])[C]([H])([H])[c]4[c]([H])[c]([H])[c]([H])[c]([H])[c]4[H])[C]([H])([H])[C]3([H])[H])[o]2)[c]([H])[c]1[H]

>  <combo1>  (1) 
-0.4438666376549495

$$$$
