
     RDKit          3D

 32 33  0  0  0  0  0  0  0  0999 V2000
    5.0053    1.7757   17.0077 H   0  0  0  0  0  0  0  0  0  0  0  0
    5.4604    1.2801   17.8577 C   0  0  0  0  0  0  0  0  0  0  0  0
    6.6078    0.6329   17.6052 N   0  0  0  0  0  0  0  0  0  0  0  0
    7.1990   -0.0028   18.6227 C   0  0  0  0  0  0  0  0  0  0  0  0
    8.1277   -0.5219   18.3823 H   0  0  0  0  0  0  0  0  0  0  0  0
    6.6732   -0.0001   19.9192 C   0  0  0  0  0  0  0  0  0  0  0  0
    7.4571   -0.8990   21.2516 S   0  0  0  0  0  4  0  0  0  0  0  0
    7.7122   -2.2886   20.7572 O   0  0  0  0  0  0  0  0  0  0  0  0
    9.0506    0.0514   21.2189 C   0  0  0  0  0  0  0  0  0  0  0  0
    9.5647   -0.1046   20.2627 H   0  0  0  0  0  0  0  0  0  0  0  0
    9.6326   -0.4076   22.0314 H   0  0  0  0  0  0  0  0  0  0  0  0
    8.8229    1.4100   21.3789 O   0  0  0  0  0  0  0  0  0  0  0  0
    8.5156    1.8406   22.7036 C   0  0  0  0  0  0  0  0  0  0  0  0
    8.0519    1.0100   23.2645 H   0  0  0  0  0  0  0  0  0  0  0  0
    7.5223    2.9941   22.5843 C   0  0  0  0  0  0  0  0  0  0  0  0
    6.6230    2.6279   22.0746 H   0  0  0  0  0  0  0  0  0  0  0  0
    7.9685    3.7520   21.9264 H   0  0  0  0  0  0  0  0  0  0  0  0
    7.2444    3.5898   23.9752 C   0  0  0  0  0  0  0  0  0  0  0  0
    6.5826    4.4616   23.9386 H   0  0  0  0  0  0  0  0  0  0  0  0
    6.7178    2.8585   24.6098 H   0  0  0  0  0  0  0  0  0  0  0  0
    8.4803    4.0087   24.6433 N   0  0  0  0  0  0  0  0  0  0  0  0
    8.8931    4.7501   24.0756 H   0  0  0  0  0  0  0  0  0  0  0  0
    9.4810    2.9465   24.7381 C   0  0  0  0  0  0  0  0  0  0  0  0
   10.3941    3.4084   25.0936 H   0  0  0  0  0  0  0  0  0  0  0  0
    9.1537    2.2058   25.4846 H   0  0  0  0  0  0  0  0  0  0  0  0
    9.7956    2.2824   23.4017 C   0  0  0  0  0  0  0  0  0  0  0  0
   10.3045    3.0141   22.7578 H   0  0  0  0  0  0  0  0  0  0  0  0
   10.4730    1.4280   23.5387 H   0  0  0  0  0  0  0  0  0  0  0  0
    5.4791    0.6758   20.1793 C   0  0  0  0  0  0  0  0  0  0  0  0
    5.0491    0.6745   21.1823 H   0  0  0  0  0  0  0  0  0  0  0  0
    4.8488    1.3217   19.1165 C   0  0  0  0  0  0  0  0  0  0  0  0
    3.8922    1.8181   19.2423 H   0  0  0  0  0  0  0  0  0  0  0  0
  1  2  1  0
  2  3  2  0
  3  4  1  0
  4  5  1  0
  4  6  2  0
  6  7  1  0
  7  8  2  0
  7  9  1  1
  9 10  1  0
  9 11  1  0
  9 12  1  0
 12 13  1  0
 13 14  1  0
 13 15  1  0
 15 16  1  0
 15 17  1  0
 15 18  1  0
 18 19  1  0
 18 20  1  0
 18 21  1  0
 21 22  1  0
 21 23  1  0
 23 24  1  0
 23 25  1  0
 23 26  1  0
 26 27  1  0
 26 28  1  0
  6 29  1  0
 29 30  1  0
 29 31  2  0
 31 32  1  0
 31  2  1  0
 26 13  1  0
M  END
>  <cnnaffinity>  (1) 
3.93692

>  <plip>  (1) 
-0.06896551724137931

>  <filename>  (1) 
[H][c]1[n][c]([H])[c]([S@](=[O])[C]([H])([H])[O][C]2([H])[C]([H])([H])[C]([H])([H])[N]([H])[C]([H])([H])[C]2([H])[H])[c]([H])[c]1[H]

>  <combo1>  (1) 
-0.376584950758867

$$$$
