
     RDKit          3D

 38 39  0  0  0  0  0  0  0  0999 V2000
    6.9216    0.8611   22.6592 O   0  0  0  0  0  0  0  0  0  0  0  0
    7.3663   -0.2037   22.2782 C   0  0  0  0  0  0  0  0  0  0  0  0
    7.9410   -1.2291   23.2388 C   0  0  0  0  0  0  0  0  0  0  0  0
    6.9001   -2.2638   23.7189 C   0  0  0  0  0  0  0  0  0  0  0  0
    7.4686   -3.1970   24.7827 C   0  0  0  0  0  0  0  0  0  0  0  0
    6.4873   -4.2004   25.1012 N   0  0  0  0  0  0  0  0  0  0  0  0
    6.6497   -5.1692   26.0318 C   0  0  0  0  0  0  0  0  0  0  0  0
    7.7396   -5.1375   26.9202 C   0  0  0  0  0  0  0  0  0  0  0  0
    7.7759   -5.9767   28.0271 C   0  0  0  0  0  0  0  0  0  0  0  0
    6.7325   -6.8783   28.2656 C   0  0  0  0  0  0  0  0  0  0  0  0
    5.6902   -6.9940   27.3525 C   0  0  0  0  0  0  0  0  0  0  0  0
    5.6880   -6.2077   26.1879 C   0  0  0  0  0  0  0  0  0  0  0  0
    4.7201   -6.4988   25.1353 N   0  0  0  0  0  4  0  0  0  0  0  0
    4.8157   -5.9322   24.0415 O   0  0  0  0  0  0  0  0  0  0  0  0
    3.8385   -7.3133   25.3590 O   0  0  0  0  0  1  0  0  0  0  0  0
    4.8974   -7.7201   27.5088 H   0  0  0  0  0  0  0  0  0  0  0  0
    6.7517   -7.5299   29.1304 H   0  0  0  0  0  0  0  0  0  0  0  0
    8.6232   -5.9353   28.7063 H   0  0  0  0  0  0  0  0  0  0  0  0
    8.5513   -4.4498   26.7134 H   0  0  0  0  0  0  0  0  0  0  0  0
    5.7933   -4.4628   24.4143 H   0  0  0  0  0  0  0  0  0  0  0  0
    8.4093   -3.6570   24.4322 H   0  0  0  0  0  0  0  0  0  0  0  0
    7.7318   -2.6153   25.6803 H   0  0  0  0  0  0  0  0  0  0  0  0
    6.5452   -2.8728   22.8748 H   0  0  0  0  0  0  0  0  0  0  0  0
    6.0111   -1.7660   24.1315 H   0  0  0  0  0  0  0  0  0  0  0  0
    8.7911   -1.7491   22.7789 H   0  0  0  0  0  0  0  0  0  0  0  0
    8.3230   -0.6641   24.0935 H   0  0  0  0  0  0  0  0  0  0  0  0
    7.3618   -0.6075   20.9619 N   0  0  0  0  0  0  0  0  0  0  0  0
    6.6870    0.0332   19.8902 C   0  0  0  0  0  0  0  0  0  0  0  0
    5.4730    0.6921   20.1244 C   0  0  0  0  0  0  0  0  0  0  0  0
    4.8336    1.3157   19.0493 C   0  0  0  0  0  0  0  0  0  0  0  0
    5.4319    1.2764   17.7855 C   0  0  0  0  0  0  0  0  0  0  0  0
    6.5877    0.6356   17.5407 N   0  0  0  0  0  0  0  0  0  0  0  0
    7.1902    0.0236   18.5682 C   0  0  0  0  0  0  0  0  0  0  0  0
    8.1234   -0.4934   18.3412 H   0  0  0  0  0  0  0  0  0  0  0  0
    4.9691    1.7718   16.9359 H   0  0  0  0  0  0  0  0  0  0  0  0
    3.8942    1.8418   19.1886 H   0  0  0  0  0  0  0  0  0  0  0  0
    5.0670    0.7082   21.1336 H   0  0  0  0  0  0  0  0  0  0  0  0
    7.8357   -1.4764   20.7839 H   0  0  0  0  0  0  0  0  0  0  0  0
  1  2  2  0
  2  3  1  0
  3  4  1  0
  4  5  1  0
  5  6  1  0
  6  7  1  0
  7  8  2  0
  8  9  1  0
  9 10  2  0
 10 11  1  0
 11 12  2  0
 12 13  1  0
 13 14  2  0
 13 15  1  0
 11 16  1  0
 10 17  1  0
  9 18  1  0
  8 19  1  0
  6 20  1  0
  5 21  1  0
  5 22  1  0
  4 23  1  0
  4 24  1  0
  3 25  1  0
  3 26  1  0
  2 27  1  0
 27 28  1  0
 28 29  2  0
 29 30  1  0
 30 31  2  0
 31 32  1  0
 32 33  2  0
 33 34  1  0
 31 35  1  0
 30 36  1  0
 29 37  1  0
 27 38  1  0
 12  7  1  0
 33 28  1  0
M  CHG  2  13   1  15  -1
M  END
>  <cnnaffinity>  (1) 
4.88266

>  <plip>  (1) 
-0.07142857142857142

>  <filename>  (1) 
[H][c]1[n][c]([H])[c]([N]([H])[C](=[O])[C]([H])([H])[C]([H])([H])[C]([H])([H])[N]([H])[c]2[c]([H])[c]([H])[c]([H])[c]([H])[c]2[N+](=[O])[O-])[c]([H])[c]1[H]

>  <combo1>  (1) 
-0.3871023699006036

$$$$
