
     RDKit          3D

 43 45  0  0  0  0  0  0  0  0999 V2000
    6.6778    5.4736   22.2583 C   0  0  0  0  0  0  0  0  0  0  0  0
    7.0267    5.6075   22.0460 C   0  0  0  0  0  0  0  0  0  0  0  0
    7.7548    6.5530   22.6634 C   0  0  0  0  0  0  0  0  0  0  0  0
    9.0365    6.2663   23.3217 C   0  0  0  0  0  0  0  0  0  0  0  0
    9.4592    4.9308   23.0704 C   0  0  0  0  0  0  0  0  0  0  0  0
   10.8153    4.3937   23.6267 C   0  0  0  0  0  0  0  0  0  0  0  0
   11.3733    5.1949   24.1365 H   0  0  0  0  0  0  0  0  0  0  0  0
   10.7241    3.5733   24.3595 H   0  0  0  0  0  0  0  0  0  0  0  0
   11.4718    4.0052   22.8303 H   0  0  0  0  0  0  0  0  0  0  0  0
    8.5812    2.9741   21.6001 C   0  0  0  0  0  0  0  0  0  0  0  0
    9.6787    2.0721   21.6299 N   0  0  0  0  0  0  0  0  0  0  0  0
    9.3330    0.7335   21.3103 N   0  0  0  0  0  0  0  0  0  0  0  0
    8.4413   -0.0083   22.0970 C   0  0  0  0  0  0  0  0  0  0  0  0
    8.5268   -0.0262   23.3092 O   0  0  0  0  0  0  0  0  0  0  0  0
    7.3768   -0.8095   21.2896 C   0  0  0  0  0  0  0  0  0  0  0  0
    6.7036   -0.0445   20.1380 C   0  0  0  0  0  0  0  0  0  0  0  0
    5.6429    0.8394   20.3869 C   0  0  0  0  0  0  0  0  0  0  0  0
    5.0982    1.5680   19.3250 C   0  0  0  0  0  0  0  0  0  0  0  0
    5.6337    1.3963   18.0440 C   0  0  0  0  0  0  0  0  0  0  0  0
    6.6217    0.5318   17.7679 N   0  0  0  0  0  0  0  0  0  0  0  0
    7.1200   -0.1747   18.7921 C   0  0  0  0  0  0  0  0  0  0  0  0
    7.8998   -0.8904   18.5271 H   0  0  0  0  0  0  0  0  0  0  0  0
    5.2524    1.9735   17.2040 H   0  0  0  0  0  0  0  0  0  0  0  0
    4.2779    2.2623   19.4756 H   0  0  0  0  0  0  0  0  0  0  0  0
    5.2405    0.9455   21.3973 H   0  0  0  0  0  0  0  0  0  0  0  0
    6.3989   -1.5382   22.2646 C   0  0  0  0  0  0  0  0  0  0  0  0
    7.3000   -2.7869   22.2281 C   0  0  0  0  0  0  0  0  0  0  0  0
    7.9017   -2.2307   20.9272 C   0  0  0  0  0  0  0  0  0  0  0  0
    8.9728   -2.3479   20.7181 H   0  0  0  0  0  0  0  0  0  0  0  0
    7.2756   -2.5830   20.1049 H   0  0  0  0  0  0  0  0  0  0  0  0
    8.0033   -2.8144   23.0630 H   0  0  0  0  0  0  0  0  0  0  0  0
    6.7938   -3.7551   22.1560 H   0  0  0  0  0  0  0  0  0  0  0  0
    6.2392   -1.0542   23.2344 H   0  0  0  0  0  0  0  0  0  0  0  0
    5.4520   -1.7324   21.7494 H   0  0  0  0  0  0  0  0  0  0  0  0
    9.1324    0.6533   20.3244 H   0  0  0  0  0  0  0  0  0  0  0  0
   10.2484    2.1302   22.4729 H   0  0  0  0  0  0  0  0  0  0  0  0
    8.5229    4.1697   22.1910 C   0  0  0  0  0  0  0  0  0  0  0  0
    7.7158    2.6416   21.0007 H   0  0  0  0  0  0  0  0  0  0  0  0
    9.5862    7.0386   23.8448 H   0  0  0  0  0  0  0  0  0  0  0  0
    7.3776    7.5637   22.6669 H   0  0  0  0  0  0  0  0  0  0  0  0
    6.1856    4.5172   23.2660 H   0  0  0  0  0  0  0  0  0  0  0  0
    6.7116    4.8637   21.1614 H   0  0  0  0  0  0  0  0  0  0  0  0
    5.5564    5.7205   22.3507 H   0  0  0  0  0  0  0  0  0  0  0  0
  1  2  1  0
  2  3  2  0
  3  4  1  0
  4  5  2  0
  5  6  1  0
  6  7  1  0
  6  8  1  0
  6  9  1  0
  5 10  1  0
 10 11  1  0
 11 12  1  0
 12 13  1  0
 13 14  2  0
 13 15  1  0
 15 16  1  0
 16 17  2  0
 17 18  1  0
 18 19  2  0
 19 20  1  0
 20 21  2  0
 21 22  1  0
 19 23  1  0
 18 24  1  0
 17 25  1  0
 15 26  1  0
 26 27  1  0
 27 28  1  0
 28 29  1  0
 28 30  1  0
 27 31  1  0
 27 32  1  0
 26 33  1  0
 26 34  1  0
 12 35  1  0
 11 36  1  0
 10 37  2  0
 37 38  1  0
  4 39  1  0
  3 40  1  0
  1 41  1  0
  1 42  1  0
  1 43  1  0
 37  2  1  0
 28 15  1  0
 21 16  1  0
M  END
>  <cnnaffinity>  (1) 
5.27944

>  <plip>  (1) 
-0.06896551724137931

>  <filename>  (1) 
[H][c]1[n][c]([H])[c]([C]2([C](=[O])[N]([H])[N]([H])[c]3[c]([H])[c]([C]([H])([H])[H])[c]([H])[c]([H])[c]3[C]([H])([H])[H])[C]([H])([H])[C]([H])([H])[C]2([H])[H])[c]([H])[c]1[H]

>  <combo1>  (1) 
-0.4108740318823819

$$$$
