
     RDKit          3D

 33 34  0  0  0  0  0  0  0  0999 V2000
    4.9734    1.7800   16.9980 H   0  0  0  0  0  0  0  0  0  0  0  0
    5.4109    1.2747   17.8581 C   0  0  0  0  0  0  0  0  0  0  0  0
    6.5721    0.6452   17.6288 N   0  0  0  0  0  0  0  0  0  0  0  0
    7.1481    0.0211   18.6602 C   0  0  0  0  0  0  0  0  0  0  0  0
    8.1171   -0.4331   18.4626 H   0  0  0  0  0  0  0  0  0  0  0  0
    6.5857   -0.0543   19.9392 C   0  0  0  0  0  0  0  0  0  0  0  0
    7.4178   -0.7714   20.9450 C   0  0  0  0  0  0  0  0  0  0  0  0
    8.6298   -0.8449   20.8298 O   0  0  0  0  0  0  0  0  0  0  0  0
    6.7414   -1.3436   21.9805 N   0  0  0  0  0  0  0  0  0  0  0  0
    5.7342   -1.3135   21.9216 H   0  0  0  0  0  0  0  0  0  0  0  0
    7.4059   -1.7291   23.2381 C   0  0  1  0  0  0  0  0  0  0  0  0
    8.2928   -2.3158   22.9742 H   0  0  0  0  0  0  0  0  0  0  0  0
    7.9894   -0.5519   24.0536 C   0  0  0  0  0  0  0  0  0  0  0  0
    9.2673   -0.6648   24.4556 N   0  0  0  0  0  0  0  0  0  0  0  0
    9.8170    0.3594   25.1190 C   0  0  0  0  0  0  0  0  0  0  0  0
   11.2530    0.2396   25.5309 C   0  0  0  0  0  0  0  0  0  0  0  0
   11.2974    0.2490   26.6240 H   0  0  0  0  0  0  0  0  0  0  0  0
   11.6840   -0.6889   25.1627 H   0  0  0  0  0  0  0  0  0  0  0  0
   11.8431    1.0839   25.1544 H   0  0  0  0  0  0  0  0  0  0  0  0
    9.0936    1.5140   25.4581 C   0  0  0  0  0  0  0  0  0  0  0  0
    9.6027    2.2910   26.0182 H   0  0  0  0  0  0  0  0  0  0  0  0
    7.7599    1.6154   25.0775 C   0  0  0  0  0  0  0  0  0  0  0  0
    7.1656    2.4939   25.3251 H   0  0  0  0  0  0  0  0  0  0  0  0
    7.1955    0.5575   24.3640 C   0  0  0  0  0  0  0  0  0  0  0  0
    6.1621    0.5641   24.0331 H   0  0  0  0  0  0  0  0  0  0  0  0
    6.4438   -2.5487   24.1058 C   0  0  0  0  0  0  0  0  0  0  0  0
    6.0429   -3.4051   23.5538 H   0  0  0  0  0  0  0  0  0  0  0  0
    6.9690   -2.9245   24.9932 H   0  0  0  0  0  0  0  0  0  0  0  0
    5.6030   -1.9351   24.4619 H   0  0  0  0  0  0  0  0  0  0  0  0
    5.3786    0.6256   20.1740 C   0  0  0  0  0  0  0  0  0  0  0  0
    4.9180    0.6893   21.1630 H   0  0  0  0  0  0  0  0  0  0  0  0
    4.7834    1.3010   19.1095 C   0  0  0  0  0  0  0  0  0  0  0  0
    3.8611    1.8611   19.2297 H   0  0  0  0  0  0  0  0  0  0  0  0
  1  2  1  0
  2  3  2  0
  3  4  1  0
  4  5  1  0
  4  6  2  0
  6  7  1  0
  7  8  2  0
  7  9  1  0
  9 10  1  0
  9 11  1  0
 11 12  1  6
 11 13  1  0
 13 14  2  0
 14 15  1  0
 15 16  1  0
 16 17  1  0
 16 18  1  0
 16 19  1  0
 15 20  2  0
 20 21  1  0
 20 22  1  0
 22 23  1  0
 22 24  2  0
 24 25  1  0
 11 26  1  0
 26 27  1  0
 26 28  1  0
 26 29  1  0
  6 30  1  0
 30 31  1  0
 30 32  2  0
 32 33  1  0
 32  2  1  0
 24 13  1  0
M  END
>  <cnnaffinity>  (1) 
4.62673

>  <plip>  (1) 
-0.06666666666666667

>  <filename>  (1) 
[H][c]1[n][c]([H])[c]([C](=[O])[N]([H])[C@@]([H])([c]2[n][c]([C]([H])([H])[H])[c]([H])[c]([H])[c]2[H])[C]([H])([H])[H])[c]([H])[c]1[H]

>  <combo1>  (1) 
-0.4261035177924947

$$$$
