
     RDKit          3D

 27 28  0  0  0  0  0  0  0  0999 V2000
    5.0219    1.6993   16.9151 H   0  0  0  0  0  0  0  0  0  0  0  0
    5.4384    1.2730   17.8267 C   0  0  0  0  0  0  0  0  0  0  0  0
    6.6259    0.6633   17.7002 N   0  0  0  0  0  0  0  0  0  0  0  0
    7.1639    0.1319   18.8030 C   0  0  0  0  0  0  0  0  0  0  0  0
    8.1189   -0.3752   18.6674 H   0  0  0  0  0  0  0  0  0  0  0  0
    6.5770    0.1759   20.0799 C   0  0  0  0  0  0  0  0  0  0  0  0
    7.2880   -0.4712   21.2503 C   0  0  2  0  0  0  0  0  0  0  0  0
    6.7375   -0.3083   22.1871 H   0  0  0  0  0  0  0  0  0  0  0  0
    8.8904    0.3304   21.4698 Cl  0  0  0  0  0  0  0  0  0  0  0  0
    7.5041   -1.9697   20.9856 C   0  0  0  0  0  0  0  0  0  0  0  0
    8.2818   -2.0409   20.2290 H   0  0  0  0  0  0  0  0  0  0  0  0
    6.5865   -2.3699   20.5489 H   0  0  0  0  0  0  0  0  0  0  0  0
    7.9455   -2.8297   22.1189 C   0  0  0  0  0  0  0  0  0  0  0  0
    9.2015   -3.1306   22.3409 N   0  0  0  0  0  0  0  0  0  0  0  0
    9.1977   -3.9742   23.4238 C   0  0  0  0  0  0  0  0  0  0  0  0
   10.1073   -4.4044   23.8176 H   0  0  0  0  0  0  0  0  0  0  0  0
    7.9219   -4.2035   23.8450 C   0  0  0  0  0  0  0  0  0  0  0  0
    7.5343   -4.8136   24.6500 H   0  0  0  0  0  0  0  0  0  0  0  0
    7.1128   -3.4641   23.0024 N   0  0  0  0  0  0  0  0  0  0  0  0
    5.6615   -3.4612   23.0265 C   0  0  0  0  0  0  0  0  0  0  0  0
    5.3169   -3.3703   24.0572 H   0  0  0  0  0  0  0  0  0  0  0  0
    5.2736   -2.6106   22.4635 H   0  0  0  0  0  0  0  0  0  0  0  0
    5.2439   -4.3819   22.6103 H   0  0  0  0  0  0  0  0  0  0  0  0
    5.3314    0.8128   20.1868 C   0  0  0  0  0  0  0  0  0  0  0  0
    4.8240    0.8718   21.1499 H   0  0  0  0  0  0  0  0  0  0  0  0
    4.7504    1.3654   19.0395 C   0  0  0  0  0  0  0  0  0  0  0  0
    3.7888    1.8673   19.0668 H   0  0  0  0  0  0  0  0  0  0  0  0
  1  2  1  0
  2  3  2  0
  3  4  1  0
  4  5  1  0
  4  6  2  0
  6  7  1  0
  7  8  1  1
  7  9  1  0
  7 10  1  0
 10 11  1  0
 10 12  1  0
 10 13  1  0
 13 14  2  0
 14 15  1  0
 15 16  1  0
 15 17  2  0
 17 18  1  0
 17 19  1  0
 19 20  1  0
 20 21  1  0
 20 22  1  0
 20 23  1  0
  6 24  1  0
 24 25  1  0
 24 26  2  0
 26 27  1  0
 26  2  1  0
 19 13  1  0
M  END
>  <cnnaffinity>  (1) 
4.40253

>  <plip>  (1) 
-0.03571428571428571

>  <filename>  (1) 
[H][c]1[n][c]([H])[c]([C@]([H])([Cl])[C]([H])([H])[c]2[n][c]([H])[c]([H])[n]2[C]([H])([H])[H])[c]([H])[c]1[H]

>  <combo1>  (1) 
-0.23641497141774548

$$$$
