
     RDKit          3D

 38 41  0  0  0  0  0  0  0  0999 V2000
    5.0475    1.7785   16.9911 H   0  0  0  0  0  0  0  0  0  0  0  0
    5.5001    1.2816   17.8453 C   0  0  0  0  0  0  0  0  0  0  0  0
    6.6895    0.6957   17.6188 N   0  0  0  0  0  0  0  0  0  0  0  0
    7.2683    0.0749   18.6507 C   0  0  0  0  0  0  0  0  0  0  0  0
    8.2512   -0.3678   18.5110 H   0  0  0  0  0  0  0  0  0  0  0  0
    6.6700   -0.0432   19.9163 C   0  0  0  0  0  0  0  0  0  0  0  0
    7.3578   -0.7684   20.9334 N   0  0  0  0  0  0  0  0  0  0  0  0
    8.7326   -0.5082   20.9651 N   0  0  0  0  0  0  0  0  0  0  0  0
    9.3858   -0.8733   22.0184 C   0  0  0  0  0  0  0  0  0  0  0  0
   10.8534   -0.6211   22.0633 C   0  0  0  0  0  0  0  0  0  0  0  0
   11.7077   -1.7083   22.0043 C   0  0  0  0  0  0  0  0  0  0  0  0
   11.2898   -2.7094   21.9194 H   0  0  0  0  0  0  0  0  0  0  0  0
   13.1115   -1.5429   22.0917 C   0  0  0  0  0  0  0  0  0  0  0  0
   13.7462   -2.4169   21.9769 H   0  0  0  0  0  0  0  0  0  0  0  0
   13.6511   -0.2992   22.3241 C   0  0  0  0  0  0  0  0  0  0  0  0
   14.7204   -0.1781   22.4673 H   0  0  0  0  0  0  0  0  0  0  0  0
   12.8117    0.8565   22.3977 C   0  0  0  0  0  0  0  0  0  0  0  0
   13.3512    2.1627   22.6130 C   0  0  0  0  0  0  0  0  0  0  0  0
   14.4303    2.2632   22.6907 H   0  0  0  0  0  0  0  0  0  0  0  0
   12.5437    3.2773   22.5969 C   0  0  0  0  0  0  0  0  0  0  0  0
   12.9596    4.2707   22.7449 H   0  0  0  0  0  0  0  0  0  0  0  0
   11.1525    3.1429   22.3477 C   0  0  0  0  0  0  0  0  0  0  0  0
   10.5216    4.0292   22.3361 H   0  0  0  0  0  0  0  0  0  0  0  0
   10.5969    1.9006   22.1323 C   0  0  0  0  0  0  0  0  0  0  0  0
    9.5450    1.7952   21.8933 H   0  0  0  0  0  0  0  0  0  0  0  0
   11.3986    0.7100   22.1842 C   0  0  0  0  0  0  0  0  0  0  0  0
    8.6919   -1.5103   23.2045 C   0  0  0  0  0  0  0  0  0  0  0  0
    9.4048   -2.0920   23.7968 H   0  0  0  0  0  0  0  0  0  0  0  0
    8.3545   -0.6839   23.8507 H   0  0  0  0  0  0  0  0  0  0  0  0
    7.5097   -2.3875   22.7774 C   0  0  0  0  0  0  0  0  0  0  0  0
    6.8043   -2.5346   23.5980 H   0  0  0  0  0  0  0  0  0  0  0  0
    7.8350   -3.3864   22.4594 H   0  0  0  0  0  0  0  0  0  0  0  0
    6.7080   -1.8240   21.6192 C   0  0  0  0  0  0  0  0  0  0  0  0
    5.6309   -2.2781   21.2930 O   0  0  0  0  0  0  0  0  0  0  0  0
    5.4391    0.5761   20.1551 C   0  0  0  0  0  0  0  0  0  0  0  0
    4.9710    0.5291   21.1392 H   0  0  0  0  0  0  0  0  0  0  0  0
    4.8536    1.2656   19.0872 C   0  0  0  0  0  0  0  0  0  0  0  0
    3.9154    1.7965   19.2047 H   0  0  0  0  0  0  0  0  0  0  0  0
  1  2  1  0
  2  3  2  0
  3  4  1  0
  4  5  1  0
  4  6  2  0
  6  7  1  0
  7  8  1  0
  8  9  2  0
  9 10  1  0
 10 11  2  0
 11 12  1  0
 11 13  1  0
 13 14  1  0
 13 15  2  0
 15 16  1  0
 15 17  1  0
 17 18  2  0
 18 19  1  0
 18 20  1  0
 20 21  1  0
 20 22  2  0
 22 23  1  0
 22 24  1  0
 24 25  1  0
 24 26  2  0
  9 27  1  0
 27 28  1  0
 27 29  1  0
 27 30  1  0
 30 31  1  0
 30 32  1  0
 30 33  1  0
 33 34  2  0
  6 35  1  0
 35 36  1  0
 35 37  2  0
 37 38  1  0
 37  2  1  0
 33  7  1  0
 26 10  1  0
 26 17  1  0
M  END
>  <cnnaffinity>  (1) 
5.84531

>  <plip>  (1) 
-0.14285714285714285

>  <filename>  (1) 
[H][c]1[n][c]([H])[c]([N]2[N]=[C]([c]3[c]([H])[c]([H])[c]([H])[c]4[c]([H])[c]([H])[c]([H])[c]([H])[c]34)[C]([H])([H])[C]([H])([H])[C]2=[O])[c]([H])[c]1[H]

>  <combo1>  (1) 
-0.923673532144109

$$$$
