
     RDKit          3D

 28 28  0  0  0  0  0  0  0  0999 V2000
    4.9120    1.7818   16.9963 H   0  0  0  0  0  0  0  0  0  0  0  0
    5.3995    1.2945   17.8388 C   0  0  0  0  0  0  0  0  0  0  0  0
    6.5659    0.6748   17.5795 N   0  0  0  0  0  0  0  0  0  0  0  0
    7.1746    0.0572   18.6021 C   0  0  0  0  0  0  0  0  0  0  0  0
    8.1216   -0.4371   18.3841 H   0  0  0  0  0  0  0  0  0  0  0  0
    6.6831    0.0248   19.9264 C   0  0  0  0  0  0  0  0  0  0  0  0
    7.3632   -0.7063   20.9182 N   0  0  0  0  0  0  0  0  0  0  0  0
    7.8406   -0.2057   21.9882 C   0  0  0  0  0  0  0  0  0  0  0  0
    8.4665   -1.1834   22.9521 C   0  0  0  0  0  0  0  0  0  0  0  0
    8.8955   -0.6732   23.8121 H   0  0  0  0  0  0  0  0  0  0  0  0
    9.2665   -1.7326   22.4492 H   0  0  0  0  0  0  0  0  0  0  0  0
    7.7293   -1.9090   23.3041 H   0  0  0  0  0  0  0  0  0  0  0  0
    7.8627    1.2692   22.3056 C   0  0  0  0  0  0  0  0  0  0  0  0
    6.8665    1.6988   22.1752 H   0  0  0  0  0  0  0  0  0  0  0  0
    8.1214    1.4059   23.3570 H   0  0  0  0  0  0  0  0  0  0  0  0
    8.8538    2.0227   21.4227 C   0  0  0  0  0  0  0  0  0  0  0  0
    8.8568    3.0902   21.7144 H   0  0  0  0  0  0  0  0  0  0  0  0
    8.4974    1.9878   20.3896 H   0  0  0  0  0  0  0  0  0  0  0  0
   10.1805    1.4248   21.5040 N   0  0  0  0  0  0  0  0  0  0  0  0
   10.7027    1.7074   20.6794 H   0  0  0  0  0  0  0  0  0  0  0  0
   10.9433    1.8966   22.6554 C   0  0  0  0  0  0  0  0  0  0  0  0
   11.9393    1.4447   22.6601 H   0  0  0  0  0  0  0  0  0  0  0  0
   10.4496    1.5934   23.5838 H   0  0  0  0  0  0  0  0  0  0  0  0
   11.0623    2.9948   22.6910 H   0  0  0  0  0  0  0  0  0  0  0  0
    5.4535    0.6516   20.1657 C   0  0  0  0  0  0  0  0  0  0  0  0
    5.0218    0.6168   21.1698 H   0  0  0  0  0  0  0  0  0  0  0  0
    4.8083    1.3046   19.1066 C   0  0  0  0  0  0  0  0  0  0  0  0
    3.8759    1.8394   19.2638 H   0  0  0  0  0  0  0  0  0  0  0  0
  1  2  1  0
  2  3  2  0
  3  4  1  0
  4  5  1  0
  4  6  2  0
  6  7  1  0
  7  8  2  3
  8  9  1  0
  9 10  1  0
  9 11  1  0
  9 12  1  0
  8 13  1  0
 13 14  1  0
 13 15  1  0
 13 16  1  0
 16 17  1  0
 16 18  1  0
 16 19  1  0
 19 20  1  0
 19 21  1  0
 21 22  1  0
 21 23  1  0
 21 24  1  0
  6 25  1  0
 25 26  1  0
 25 27  2  0
 27 28  1  0
 27  2  1  0
M  END
>  <cnnaffinity>  (1) 
4.06232

>  <plip>  (1) 
-0.07142857142857142

>  <filename>  (1) 
[H][c]1[n][c]([H])[c]([N]=[C]([C]([H])([H])[H])[C]([H])([H])[C]([H])([H])[N]([H])[C]([H])([H])[H])[c]([H])[c]1[H]

>  <combo1>  (1) 
-0.5456776252991788

$$$$
