
     RDKit          3D

 24 25  0  0  0  0  0  0  0  0999 V2000
    4.9549    1.8025   16.9837 H   0  0  0  0  0  0  0  0  0  0  0  0
    5.4293    1.2951   17.8214 C   0  0  0  0  0  0  0  0  0  0  0  0
    6.6013    0.6912   17.5740 N   0  0  0  0  0  0  0  0  0  0  0  0
    7.2143    0.0859   18.6062 C   0  0  0  0  0  0  0  0  0  0  0  0
    8.1509   -0.4103   18.3633 H   0  0  0  0  0  0  0  0  0  0  0  0
    6.7124    0.0378   19.9361 C   0  0  0  0  0  0  0  0  0  0  0  0
    7.3747   -0.5814   21.0314 N   0  0  0  0  0  0  0  0  0  0  0  0
    8.8008   -0.3426   21.2117 C   0  0  0  0  0  0  0  0  0  0  0  0
    9.1452   -0.8497   22.1223 H   0  0  0  0  0  0  0  0  0  0  0  0
    8.9663    0.7357   21.3309 H   0  0  0  0  0  0  0  0  0  0  0  0
    9.4282   -0.6973   20.3779 H   0  0  0  0  0  0  0  0  0  0  0  0
    6.7369   -1.7638   21.6257 C   0  0  0  0  0  0  0  0  0  0  0  0
    7.3357   -2.1039   22.4804 H   0  0  0  0  0  0  0  0  0  0  0  0
    5.7435   -1.4823   21.9984 H   0  0  0  0  0  0  0  0  0  0  0  0
    6.4863   -2.9607   20.7259 C   0  0  0  0  0  0  0  0  0  0  0  0
    5.5826   -2.9450   19.7059 N   0  0  0  0  0  0  0  0  0  0  0  0
    5.6038   -4.1248   19.1656 N   0  0  0  0  0  0  0  0  0  0  0  0
    6.4760   -4.8219   19.8624 N   0  0  0  0  0  0  0  0  0  0  0  0
    6.7144   -5.7779   19.6120 H   0  0  0  0  0  0  0  0  0  0  0  0
    7.0481   -4.1587   20.8546 N   0  0  0  0  0  0  0  0  0  0  0  0
    5.4533    0.6287   20.1418 C   0  0  0  0  0  0  0  0  0  0  0  0
    5.0217    0.5937   21.1427 H   0  0  0  0  0  0  0  0  0  0  0  0
    4.8175    1.2811   19.0789 C   0  0  0  0  0  0  0  0  0  0  0  0
    3.8725    1.7864   19.2275 H   0  0  0  0  0  0  0  0  0  0  0  0
  1  2  1  0
  2  3  2  0
  3  4  1  0
  4  5  1  0
  4  6  2  0
  6  7  1  0
  7  8  1  0
  8  9  1  0
  8 10  1  0
  8 11  1  0
  7 12  1  0
 12 13  1  0
 12 14  1  0
 12 15  1  0
 15 16  1  0
 16 17  2  0
 17 18  1  0
 18 19  1  0
 18 20  1  0
  6 21  1  0
 21 22  1  0
 21 23  2  0
 23 24  1  0
 23  2  1  0
 20 15  2  0
M  END
>  <cnnaffinity>  (1) 
4.30039

>  <plip>  (1) 
-0.1

>  <filename>  (1) 
[H][c]1[n][c]([H])[c]([N]([C]([H])([H])[H])[C]([H])([H])[c]2[n][n][n]([H])[n]2)[c]([H])[c]1[H]

>  <combo1>  (1) 
-0.7536214359567497

$$$$
