
     RDKit          3D

 40 42  0  0  0  0  0  0  0  0999 V2000
   10.4092    4.1024   23.0827 C   0  0  0  0  0  0  0  0  0  0  0  0
   10.4351    2.6745   23.5923 C   0  0  0  0  0  0  0  0  0  0  0  0
   10.0605    2.3969   24.9116 C   0  0  0  0  0  0  0  0  0  0  0  0
   10.1535    1.1059   25.4461 C   0  0  0  0  0  0  0  0  0  0  0  0
   10.6363    0.0626   24.6583 C   0  0  0  0  0  0  0  0  0  0  0  0
   10.9269    0.3083   23.3153 C   0  0  0  0  0  0  0  0  0  0  0  0
   11.5456   -1.0020   22.3569 Cl  0  0  0  0  0  0  0  0  0  0  0  0
   10.7111    1.5758   22.7354 C   0  0  0  0  0  0  0  0  0  0  0  0
   10.5652    1.6839   21.3082 N   0  0  0  0  0  0  0  0  0  0  0  0
    9.4265    0.9667   20.8102 N   0  0  0  0  0  0  0  0  0  0  0  0
    8.2010    0.8446   21.4518 C   0  0  0  0  0  0  0  0  0  0  0  0
    7.8474    1.5702   22.3633 O   0  0  0  0  0  0  0  0  0  0  0  0
    7.2661   -0.2463   20.8506 C   0  0  0  0  0  0  0  0  0  0  0  0
    6.5048    0.3277   19.6600 C   0  0  0  0  0  0  0  0  0  0  0  0
    5.3669    1.1110   19.8855 C   0  0  0  0  0  0  0  0  0  0  0  0
    4.7349    1.7144   18.8002 C   0  0  0  0  0  0  0  0  0  0  0  0
    5.2754    1.5331   17.5235 C   0  0  0  0  0  0  0  0  0  0  0  0
    6.3495    0.7678   17.2761 N   0  0  0  0  0  0  0  0  0  0  0  0
    6.9326    0.1775   18.3270 C   0  0  0  0  0  0  0  0  0  0  0  0
    7.8028   -0.4398   18.0930 H   0  0  0  0  0  0  0  0  0  0  0  0
    4.8311    2.0216   16.6610 H   0  0  0  0  0  0  0  0  0  0  0  0
    3.8515    2.3273   18.9356 H   0  0  0  0  0  0  0  0  0  0  0  0
    4.9899    1.2467   20.9012 H   0  0  0  0  0  0  0  0  0  0  0  0
    6.3987   -0.8829   21.9882 C   0  0  0  0  0  0  0  0  0  0  0  0
    7.4077   -2.0341   22.0900 C   0  0  0  0  0  0  0  0  0  0  0  0
    7.8538   -1.6821   20.6613 C   0  0  0  0  0  0  0  0  0  0  0  0
    8.9031   -1.8310   20.3771 H   0  0  0  0  0  0  0  0  0  0  0  0
    7.1972   -2.1886   19.9491 H   0  0  0  0  0  0  0  0  0  0  0  0
    7.0000   -3.0353   22.2630 H   0  0  0  0  0  0  0  0  0  0  0  0
    8.1850   -1.8252   22.8304 H   0  0  0  0  0  0  0  0  0  0  0  0
    6.2233   -0.2694   22.8758 H   0  0  0  0  0  0  0  0  0  0  0  0
    5.4537   -1.2309   21.5627 H   0  0  0  0  0  0  0  0  0  0  0  0
    9.6766    0.1756   20.2351 H   0  0  0  0  0  0  0  0  0  0  0  0
   10.4583    2.6746   21.0805 H   0  0  0  0  0  0  0  0  0  0  0  0
   10.7737   -0.9440   25.0530 H   0  0  0  0  0  0  0  0  0  0  0  0
    9.8342    0.9248   26.4683 H   0  0  0  0  0  0  0  0  0  0  0  0
    9.6508    3.2048   25.5164 H   0  0  0  0  0  0  0  0  0  0  0  0
    9.4963    4.2991   22.5039 H   0  0  0  0  0  0  0  0  0  0  0  0
   10.4330    4.8213   23.9116 H   0  0  0  0  0  0  0  0  0  0  0  0
   11.2644    4.3295   22.4348 H   0  0  0  0  0  0  0  0  0  0  0  0
  1  2  1  0
  2  3  2  0
  3  4  1  0
  4  5  2  0
  5  6  1  0
  6  7  1  0
  6  8  2  0
  8  9  1  0
  9 10  1  0
 10 11  1  0
 11 12  2  0
 11 13  1  0
 13 14  1  0
 14 15  2  0
 15 16  1  0
 16 17  2  0
 17 18  1  0
 18 19  2  0
 19 20  1  0
 17 21  1  0
 16 22  1  0
 15 23  1  0
 13 24  1  0
 24 25  1  0
 25 26  1  0
 26 27  1  0
 26 28  1  0
 25 29  1  0
 25 30  1  0
 24 31  1  0
 24 32  1  0
 10 33  1  0
  9 34  1  0
  5 35  1  0
  4 36  1  0
  3 37  1  0
  1 38  1  0
  1 39  1  0
  1 40  1  0
  8  2  1  0
 26 13  1  0
 19 14  1  0
M  END
>  <cnnaffinity>  (1) 
4.98983

>  <plip>  (1) 
-0.1724137931034483

>  <filename>  (1) 
[H][c]1[n][c]([H])[c]([C]2([C](=[O])[N]([H])[N]([H])[c]3[c]([Cl])[c]([H])[c]([H])[c]([H])[c]3[C]([H])([H])[H])[C]([H])([H])[C]([H])([H])[C]2([H])[H])[c]([H])[c]1[H]

>  <combo1>  (1) 
-0.9080690525783718

$$$$
