
     RDKit          3D

 30 31  0  0  0  0  0  0  0  0999 V2000
   10.8229    0.6512   26.0986 H   0  0  0  0  0  0  0  0  0  0  0  0
   10.9704    1.3475   25.4425 O   0  0  0  0  0  0  0  0  0  0  0  0
   10.4108    0.9010   24.2206 C   0  0  0  0  0  0  0  0  0  0  0  0
   10.5233    1.7261   23.5077 H   0  0  0  0  0  0  0  0  0  0  0  0
    9.3355    0.6907   24.3112 H   0  0  0  0  0  0  0  0  0  0  0  0
   11.1571   -0.3313   23.7212 C   0  0  0  0  0  0  0  0  0  0  0  0
   10.9885   -1.1465   24.4321 H   0  0  0  0  0  0  0  0  0  0  0  0
   12.2281   -0.1084   23.7239 H   0  0  0  0  0  0  0  0  0  0  0  0
   10.8024   -0.7980   22.3810 N   0  0  0  0  0  0  0  0  0  0  0  0
   11.0504   -0.0884   21.6867 H   0  0  0  0  0  0  0  0  0  0  0  0
    9.4125   -1.1062   22.2444 N   0  0  0  0  0  0  0  0  0  0  0  0
    8.7100   -0.4590   21.2368 C   0  0  0  0  0  0  0  0  0  0  0  0
    9.2739    0.3155   20.7158 H   0  0  0  0  0  0  0  0  0  0  0  0
    7.4170   -0.7323   20.9220 C   0  0  0  0  0  0  0  0  0  0  0  0
    6.7014    0.0062   19.8358 C   0  0  0  0  0  0  0  0  0  0  0  0
    7.2214    0.1192   18.5224 C   0  0  0  0  0  0  0  0  0  0  0  0
    8.1707   -0.3536   18.2622 H   0  0  0  0  0  0  0  0  0  0  0  0
    6.6071    0.7562   17.5171 N   0  0  0  0  0  0  0  0  0  0  0  0
    5.4298    1.3445   17.7812 C   0  0  0  0  0  0  0  0  0  0  0  0
    4.9495    1.8575   16.9495 H   0  0  0  0  0  0  0  0  0  0  0  0
    4.8265    1.3166   19.0385 C   0  0  0  0  0  0  0  0  0  0  0  0
    3.8848    1.8290   19.1918 H   0  0  0  0  0  0  0  0  0  0  0  0
    5.4664    0.6354   20.0760 C   0  0  0  0  0  0  0  0  0  0  0  0
    5.0266    0.5831   21.0688 H   0  0  0  0  0  0  0  0  0  0  0  0
    6.7392   -1.8071   21.6942 C   0  0  0  0  0  0  0  0  0  0  0  0
    5.6621   -2.3326   21.4942 O   0  0  0  0  0  0  0  0  0  0  0  0
    7.4714   -2.2733   22.7619 N   0  0  0  0  0  0  0  0  0  0  0  0
    7.0597   -3.0229   23.2788 H   0  0  0  0  0  0  0  0  0  0  0  0
    8.7872   -2.0889   23.0457 C   0  0  0  0  0  0  0  0  0  0  0  0
    9.2784   -2.7399   23.9458 O   0  0  0  0  0  0  0  0  0  0  0  0
  1  2  1  0
  2  3  1  0
  3  4  1  0
  3  5  1  0
  3  6  1  0
  6  7  1  0
  6  8  1  0
  6  9  1  0
  9 10  1  0
  9 11  1  0
 11 12  1  0
 12 13  1  0
 12 14  2  0
 14 15  1  0
 15 16  2  0
 16 17  1  0
 16 18  1  0
 18 19  2  0
 19 20  1  0
 19 21  1  0
 21 22  1  0
 21 23  2  0
 23 24  1  0
 14 25  1  0
 25 26  2  0
 25 27  1  0
 27 28  1  0
 27 29  1  0
 29 30  2  0
 29 11  1  0
 23 15  1  0
M  END
>  <cnnaffinity>  (1) 
4.57707

>  <plip>  (1) 
-0.10344827586206896

>  <filename>  (1) 
[H][O][C]([H])([H])[C]([H])([H])[N]([H])[n]1[c]([H])[c](-[c]2[c]([H])[n][c]([H])[c]([H])[c]2[H])[c](=[O])[n]([H])[c]1=[O]

>  <combo1>  (1) 
-0.6357908814785573

$$$$
