
     RDKit          3D

 37 39  0  0  0  0  0  0  0  0999 V2000
    5.0839    1.8247   17.0020 H   0  0  0  0  0  0  0  0  0  0  0  0
    5.4960    1.3264   17.8776 C   0  0  0  0  0  0  0  0  0  0  0  0
    6.6744    0.7026   17.7043 N   0  0  0  0  0  0  0  0  0  0  0  0
    7.1990    0.0725   18.7654 C   0  0  0  0  0  0  0  0  0  0  0  0
    8.1559   -0.4289   18.6322 H   0  0  0  0  0  0  0  0  0  0  0  0
    6.5813    0.0266   20.0337 C   0  0  0  0  0  0  0  0  0  0  0  0
    7.1737   -0.6620   21.1424 N   0  0  0  0  0  0  0  0  0  0  0  0
    7.9063   -0.1024   22.2151 C   0  0  0  0  0  0  0  0  0  0  0  0
    7.8287    1.3407   22.5979 C   0  0  0  0  0  0  0  0  0  0  0  0
    8.0485    1.4381   23.6683 H   0  0  0  0  0  0  0  0  0  0  0  0
    6.7986    1.6882   22.4627 H   0  0  0  0  0  0  0  0  0  0  0  0
    8.7515    2.3231   21.8563 C   0  0  0  0  0  0  0  0  0  0  0  0
    9.8030    2.0726   22.0538 H   0  0  0  0  0  0  0  0  0  0  0  0
    8.6182    2.2379   20.7695 H   0  0  0  0  0  0  0  0  0  0  0  0
    8.5497    3.7236   22.2317 N   0  0  0  0  0  0  0  0  0  0  0  0
    7.3010    4.3624   21.7764 C   0  0  0  0  0  0  0  0  0  0  0  0
    6.7034    3.6238   21.2264 H   0  0  0  0  0  0  0  0  0  0  0  0
    7.5212    5.1832   21.0747 H   0  0  0  0  0  0  0  0  0  0  0  0
    6.4058    4.9469   22.8986 C   0  0  0  0  0  0  0  0  0  0  0  0
    5.3613    4.9711   22.5669 H   0  0  0  0  0  0  0  0  0  0  0  0
    6.6961    5.9874   23.1210 H   0  0  0  0  0  0  0  0  0  0  0  0
    6.4660    4.1637   24.0767 O   0  0  0  0  0  0  0  0  0  0  0  0
    7.7781    4.1574   24.6335 C   0  0  0  0  0  0  0  0  0  0  0  0
    7.9252    5.0415   25.2770 H   0  0  0  0  0  0  0  0  0  0  0  0
    7.7958    3.2798   25.2861 H   0  0  0  0  0  0  0  0  0  0  0  0
    8.9409    4.1254   23.5809 C   0  0  0  0  0  0  0  0  0  0  0  0
    9.7300    3.4595   23.9510 H   0  0  0  0  0  0  0  0  0  0  0  0
    9.3915    5.1311   23.5200 H   0  0  0  0  0  0  0  0  0  0  0  0
    8.4707   -1.1477   22.8350 C   0  0  0  0  0  0  0  0  0  0  0  0
    9.1208   -1.2297   23.6945 H   0  0  0  0  0  0  0  0  0  0  0  0
    8.0862   -2.3298   22.2453 O   0  0  0  0  0  0  0  0  0  0  0  0
    7.2144   -2.0537   21.2261 C   0  0  0  0  0  0  0  0  0  0  0  0
    6.6279   -2.8717   20.5707 O   0  0  0  0  0  0  0  0  0  0  0  0
    5.3494    0.6640   20.1922 C   0  0  0  0  0  0  0  0  0  0  0  0
    4.8527    0.6095   21.1628 H   0  0  0  0  0  0  0  0  0  0  0  0
    4.8006    1.3386   19.0935 C   0  0  0  0  0  0  0  0  0  0  0  0
    3.8509    1.8598   19.1706 H   0  0  0  0  0  0  0  0  0  0  0  0
  1  2  1  0
  2  3  2  0
  3  4  1  0
  4  5  1  0
  4  6  2  0
  6  7  1  0
  7  8  1  0
  8  9  1  0
  9 10  1  0
  9 11  1  0
  9 12  1  0
 12 13  1  0
 12 14  1  0
 12 15  1  0
 15 16  1  0
 16 17  1  0
 16 18  1  0
 16 19  1  0
 19 20  1  0
 19 21  1  0
 19 22  1  0
 22 23  1  0
 23 24  1  0
 23 25  1  0
 23 26  1  0
 26 27  1  0
 26 28  1  0
  8 29  2  0
 29 30  1  0
 29 31  1  0
 31 32  1  0
 32 33  2  0
  6 34  1  0
 34 35  1  0
 34 36  2  0
 36 37  1  0
 36  2  1  0
 32  7  1  0
 26 15  1  0
M  END
>  <cnnaffinity>  (1) 
4.57786

>  <plip>  (1) 
-0.10714285714285714

>  <filename>  (1) 
[H][c]1[n][c]([H])[c](-[n]2[c]([C]([H])([H])[C]([H])([H])[N]3[C]([H])([H])[C]([H])([H])[O][C]([H])([H])[C]3([H])[H])[c]([H])[o][c]2=[O])[c]([H])[c]1[H]

>  <combo1>  (1) 
-0.5938621471224955

$$$$
