
     RDKit          3D

 32 34  0  0  0  0  0  0  0  0999 V2000
    9.6030    0.3440   21.3419 O   0  0  0  0  0  0  0  0  0  0  0  0
    8.4405    0.3708   21.6834 C   0  0  0  0  0  0  0  0  0  0  0  0
    7.4282   -0.5954   21.0745 C   0  0  0  0  0  0  0  0  0  0  0  0
    6.6477    0.0161   19.9062 C   0  0  0  0  0  0  0  0  0  0  0  0
    5.4268    0.6688   20.1359 C   0  0  0  0  0  0  0  0  0  0  0  0
    4.7838    1.3206   19.0792 C   0  0  0  0  0  0  0  0  0  0  0  0
    5.3865    1.2934   17.8200 C   0  0  0  0  0  0  0  0  0  0  0  0
    6.5390    0.6578   17.5610 N   0  0  0  0  0  0  0  0  0  0  0  0
    7.1434    0.0428   18.5859 C   0  0  0  0  0  0  0  0  0  0  0  0
    8.0893   -0.4460   18.3490 H   0  0  0  0  0  0  0  0  0  0  0  0
    4.9340    1.8136   16.9788 H   0  0  0  0  0  0  0  0  0  0  0  0
    3.8519    1.8625   19.2176 H   0  0  0  0  0  0  0  0  0  0  0  0
    4.9839    0.6754   21.1342 H   0  0  0  0  0  0  0  0  0  0  0  0
    6.7541   -0.9158   21.8733 H   0  0  0  0  0  0  0  0  0  0  0  0
    8.0293   -1.4586   20.7707 H   0  0  0  0  0  0  0  0  0  0  0  0
    7.9576    1.3026   22.5620 N   0  0  0  0  0  0  0  0  0  0  0  0
    8.7046    2.3778   23.0176 C   0  0  0  0  0  0  0  0  0  0  0  0
    9.6647    2.9894   22.1653 C   0  0  0  0  0  0  0  0  0  0  0  0
   10.3628    4.0626   22.6491 C   0  0  0  0  0  0  0  0  0  0  0  0
   10.0782    4.5430   23.9551 C   0  0  0  0  0  0  0  0  0  0  0  0
   10.7351    5.6781   24.5066 C   0  0  0  0  0  0  0  0  0  0  0  0
   10.4369    6.0488   25.7957 C   0  0  0  0  0  0  0  0  0  0  0  0
    9.5329    5.3901   26.5870 N   0  0  0  0  0  0  0  0  0  0  0  0
    8.8942    4.3506   26.0683 C   0  0  0  0  0  0  0  0  0  0  0  0
    9.0937    3.8473   24.7263 C   0  0  0  0  0  0  0  0  0  0  0  0
    8.3890    2.7715   24.2309 N   0  0  0  0  0  0  0  0  0  0  0  0
    8.1747    3.8336   26.7001 H   0  0  0  0  0  0  0  0  0  0  0  0
   10.9313    6.9049   26.2463 H   0  0  0  0  0  0  0  0  0  0  0  0
   11.4523    6.2227   23.8917 H   0  0  0  0  0  0  0  0  0  0  0  0
   11.1329    4.5639   22.0577 H   0  0  0  0  0  0  0  0  0  0  0  0
    9.7840    2.6116   21.1584 H   0  0  0  0  0  0  0  0  0  0  0  0
    7.1658    1.1281   23.1497 H   0  0  0  0  0  0  0  0  0  0  0  0
  1  2  2  0
  2  3  1  0
  3  4  1  0
  4  5  2  0
  5  6  1  0
  6  7  2  0
  7  8  1  0
  8  9  2  0
  9 10  1  0
  7 11  1  0
  6 12  1  0
  5 13  1  0
  3 14  1  0
  3 15  1  0
  2 16  1  0
 16 17  1  0
 17 18  2  0
 18 19  1  0
 19 20  2  0
 20 21  1  0
 21 22  2  0
 22 23  1  0
 23 24  2  0
 24 25  1  0
 25 26  2  0
 24 27  1  0
 22 28  1  0
 21 29  1  0
 19 30  1  0
 18 31  1  0
 16 32  1  0
  9  4  1  0
 26 17  1  0
 25 20  1  0
M  END
>  <cnnaffinity>  (1) 
4.60662

>  <plip>  (1) 
-0.10714285714285714

>  <filename>  (1) 
[H][c]1[n][c]([H])[c]([C]([H])([H])[C](=[O])[N]([H])[c]2[n][c]3[c]([H])[n][c]([H])[c]([H])[c]3[c]([H])[c]2[H])[c]([H])[c]1[H]

>  <combo1>  (1) 
-0.6225108323387479

$$$$
