
     RDKit          3D

 40 43  0  0  0  0  0  0  0  0999 V2000
    5.1489    1.8336   16.8794 H   0  0  0  0  0  0  0  0  0  0  0  0
    5.5171    1.3225   17.7670 C   0  0  0  0  0  0  0  0  0  0  0  0
    6.6643    0.6423   17.6216 N   0  0  0  0  0  0  0  0  0  0  0  0
    7.1396    0.0084   18.7027 C   0  0  0  0  0  0  0  0  0  0  0  0
    8.0762   -0.5337   18.5713 H   0  0  0  0  0  0  0  0  0  0  0  0
    6.5103   -0.0010   19.9601 C   0  0  0  0  0  0  0  0  0  0  0  0
    7.1175   -0.7608   21.1133 C   0  0  0  0  0  0  0  0  0  0  0  0
    8.1550   -0.0466   21.9492 C   0  0  0  0  0  0  0  0  0  0  0  0
    9.4388   -0.2437   21.8767 N   0  0  0  0  0  0  0  0  0  0  0  0
   10.1522    0.4974   22.7829 N   0  0  0  0  0  0  0  0  0  0  0  0
    9.3964    1.2370   23.5374 C   0  0  0  0  0  0  0  0  0  0  0  0
    9.8942    2.1698   24.6177 C   0  0  0  0  0  0  0  0  0  0  0  0
    9.1784    2.1230   25.4472 H   0  0  0  0  0  0  0  0  0  0  0  0
   10.8500    1.7790   24.9869 H   0  0  0  0  0  0  0  0  0  0  0  0
   10.0071    3.6002   24.1098 C   0  0  0  0  0  0  0  0  0  0  0  0
    8.9414    4.4853   24.2917 C   0  0  0  0  0  0  0  0  0  0  0  0
    8.0958    4.1898   24.9102 H   0  0  0  0  0  0  0  0  0  0  0  0
    8.9432    5.7358   23.6645 C   0  0  0  0  0  0  0  0  0  0  0  0
    8.0920    6.3962   23.8013 H   0  0  0  0  0  0  0  0  0  0  0  0
   10.0070    6.1179   22.8484 C   0  0  0  0  0  0  0  0  0  0  0  0
    9.9850    7.0596   22.3060 H   0  0  0  0  0  0  0  0  0  0  0  0
   11.1063    5.2481   22.6993 C   0  0  0  0  0  0  0  0  0  0  0  0
   12.1042    5.6907   21.8834 O   0  0  0  0  0  0  0  0  0  0  0  0
   13.2499    4.8907   21.6626 C   0  0  0  0  0  0  0  0  0  0  0  0
   12.9997    3.9506   21.1536 H   0  0  0  0  0  0  0  0  0  0  0  0
   13.7834    4.6606   22.5954 H   0  0  0  0  0  0  0  0  0  0  0  0
   13.9058    5.4858   21.0245 H   0  0  0  0  0  0  0  0  0  0  0  0
   11.1145    3.9994   23.3415 C   0  0  0  0  0  0  0  0  0  0  0  0
   11.9608    3.3279   23.2134 H   0  0  0  0  0  0  0  0  0  0  0  0
    7.7059    1.0985   23.1707 S   0  0  0  0  0  0  0  0  0  0  0  0
    7.3111   -2.2480   20.9196 C   0  0  0  0  0  0  0  0  0  0  0  0
    6.9269   -2.6543   19.9875 H   0  0  0  0  0  0  0  0  0  0  0  0
    8.2363   -2.6851   21.2922 H   0  0  0  0  0  0  0  0  0  0  0  0
    6.2447   -1.7640   21.8496 C   0  0  0  0  0  0  0  0  0  0  0  0
    6.3667   -1.8533   22.9272 H   0  0  0  0  0  0  0  0  0  0  0  0
    5.2217   -1.8815   21.4931 H   0  0  0  0  0  0  0  0  0  0  0  0
    5.3105    0.7100   20.0848 C   0  0  0  0  0  0  0  0  0  0  0  0
    4.7899    0.7187   21.0435 H   0  0  0  0  0  0  0  0  0  0  0  0
    4.8081    1.3868   18.9710 C   0  0  0  0  0  0  0  0  0  0  0  0
    3.8935    1.9649   19.0243 H   0  0  0  0  0  0  0  0  0  0  0  0
  1  2  1  0
  2  3  2  0
  3  4  1  0
  4  5  1  0
  4  6  2  0
  6  7  1  0
  7  8  1  0
  8  9  2  0
  9 10  1  0
 10 11  2  0
 11 12  1  0
 12 13  1  0
 12 14  1  0
 12 15  1  0
 15 16  2  0
 16 17  1  0
 16 18  1  0
 18 19  1  0
 18 20  2  0
 20 21  1  0
 20 22  1  0
 22 23  1  0
 23 24  1  0
 24 25  1  0
 24 26  1  0
 24 27  1  0
 22 28  2  0
 28 29  1  0
 11 30  1  0
  7 31  1  0
 31 32  1  0
 31 33  1  0
 31 34  1  0
 34 35  1  0
 34 36  1  0
  6 37  1  0
 37 38  1  0
 37 39  2  0
 39 40  1  0
 39  2  1  0
 34  7  1  0
 30  8  1  0
 28 15  1  0
M  END
>  <cnnaffinity>  (1) 
5.79974

>  <plip>  (1) 
-0.10344827586206896

>  <filename>  (1) 
[H][c]1[n][c]([H])[c]([C]2([c]3[n][n][c]([C]([H])([H])[c]4[c]([H])[c]([H])[c]([H])[c]([O][C]([H])([H])[H])[c]4[H])[s]3)[C]([H])([H])[C]2([H])[H])[c]([H])[c]1[H]

>  <combo1>  (1) 
-0.6183613138378726

$$$$
