
     RDKit          3D

 22 23  0  0  0  0  0  0  0  0999 V2000
    5.0088    1.7732   17.0086 H   0  0  0  0  0  0  0  0  0  0  0  0
    5.4306    1.2426   17.8602 C   0  0  0  0  0  0  0  0  0  0  0  0
    6.5892    0.6002   17.6385 N   0  0  0  0  0  0  0  0  0  0  0  0
    7.1714   -0.0082   18.6787 C   0  0  0  0  0  0  0  0  0  0  0  0
    8.1345   -0.4828   18.4786 H   0  0  0  0  0  0  0  0  0  0  0  0
    6.5984   -0.0129   19.9526 C   0  0  0  0  0  0  0  0  0  0  0  0
    7.5211   -0.8188   21.2547 S   0  0  0  0  0  4  0  0  0  0  0  0
    8.9579   -0.5693   20.9628 O   0  0  0  0  0  0  0  0  0  0  0  0
    7.3641   -2.3439   20.5732 N   0  0  0  0  0  0  0  0  0  0  0  0
    8.2879   -2.5559   20.2194 H   0  0  0  0  0  0  0  0  0  0  0  0
    6.8797   -3.4163   21.3112 C   0  0  0  0  0  0  0  0  0  0  0  0
    7.1011   -4.6280   20.8404 N   0  0  0  0  0  0  0  0  0  0  0  0
    6.4473   -5.4288   21.7067 N   0  0  0  0  0  0  0  0  0  0  0  0
    6.4091   -6.4194   21.5230 H   0  0  0  0  0  0  0  0  0  0  0  0
    5.8378   -4.7503   22.7030 C   0  0  0  0  0  0  0  0  0  0  0  0
    5.2503   -5.2695   23.4563 H   0  0  0  0  0  0  0  0  0  0  0  0
    6.1188   -3.4200   22.4937 C   0  0  0  0  0  0  0  0  0  0  0  0
    5.8736   -2.5519   23.0820 H   0  0  0  0  0  0  0  0  0  0  0  0
    5.3857    0.6315   20.1903 C   0  0  0  0  0  0  0  0  0  0  0  0
    4.9288    0.6326   21.1813 H   0  0  0  0  0  0  0  0  0  0  0  0
    4.7917    1.2808   19.1058 C   0  0  0  0  0  0  0  0  0  0  0  0
    3.8739    1.8479   19.2316 H   0  0  0  0  0  0  0  0  0  0  0  0
  1  2  1  0
  2  3  2  0
  3  4  1  0
  4  5  1  0
  4  6  2  0
  6  7  1  0
  7  8  2  0
  7  9  1  6
  9 10  1  0
  9 11  1  0
 11 12  2  0
 12 13  1  0
 13 14  1  0
 13 15  1  0
 15 16  1  0
 15 17  2  0
 17 18  1  0
  6 19  1  0
 19 20  1  0
 19 21  2  0
 21 22  1  0
 21  2  1  0
 17 11  1  0
M  END
>  <cnnaffinity>  (1) 
3.88889

>  <plip>  (1) 
-0.06896551724137931

>  <filename>  (1) 
[H][c]1[n][c]([H])[c]([S@](=[O])[N]([H])[c]2[n][n]([H])[c]([H])[c]2[H])[c]([H])[c]1[H]

>  <combo1>  (1) 
-0.42929885863326317

$$$$
