
     RDKit          3D

 41 43  0  0  0  0  0  0  0  0999 V2000
   10.8086    4.4065   24.4723 C   0  0  0  0  0  0  0  0  0  0  0  0
   10.6720    4.4199   22.9532 C   0  0  0  0  0  0  0  0  0  0  0  0
    9.2732    4.7412   22.4578 C   0  0  0  0  0  0  0  0  0  0  0  0
    8.9877    6.0788   22.1318 C   0  0  0  0  0  0  0  0  0  0  0  0
    7.7617    6.4526   21.5828 C   0  0  0  0  0  0  0  0  0  0  0  0
    6.7668    5.4863   21.4215 C   0  0  0  0  0  0  0  0  0  0  0  0
    7.0237    4.1530   21.7688 C   0  0  0  0  0  0  0  0  0  0  0  0
    8.2886    3.7465   22.2362 C   0  0  0  0  0  0  0  0  0  0  0  0
    8.6264    2.2629   22.3704 C   0  0  0  0  0  0  0  0  0  0  0  0
    9.2429    1.6898   21.0769 C   0  0  0  0  0  0  0  0  0  0  0  0
    9.5614    0.2549   21.1317 N   0  0  0  0  0  0  0  0  0  0  0  0
   10.7624   -0.3969   21.3148 C   0  0  0  0  0  0  0  0  0  0  0  0
   10.5875   -1.6717   21.4933 N   0  0  0  0  0  0  0  0  0  0  0  0
    9.2284   -1.9143   21.4345 N   0  0  0  0  0  0  0  0  0  0  0  0
    8.6584   -0.7692   21.1930 C   0  0  0  0  0  0  0  0  0  0  0  0
    7.2984   -0.5811   21.0555 N   0  0  0  0  0  0  0  0  0  0  0  0
    6.6767   -0.0004   19.9146 C   0  0  0  0  0  0  0  0  0  0  0  0
    5.4594    0.6449   20.1486 C   0  0  0  0  0  0  0  0  0  0  0  0
    4.8229    1.3003   19.0909 C   0  0  0  0  0  0  0  0  0  0  0  0
    5.4193    1.2859   17.8246 C   0  0  0  0  0  0  0  0  0  0  0  0
    6.5711    0.6451   17.5643 N   0  0  0  0  0  0  0  0  0  0  0  0
    7.1815    0.0223   18.5893 C   0  0  0  0  0  0  0  0  0  0  0  0
    8.1192   -0.4809   18.3571 H   0  0  0  0  0  0  0  0  0  0  0  0
    4.9535    1.8085   16.9911 H   0  0  0  0  0  0  0  0  0  0  0  0
    3.8859    1.8247   19.2442 H   0  0  0  0  0  0  0  0  0  0  0  0
    5.0639    0.6321   21.1648 H   0  0  0  0  0  0  0  0  0  0  0  0
    6.8046   -1.3610   21.4596 H   0  0  0  0  0  0  0  0  0  0  0  0
   11.7301    0.0899   21.2942 H   0  0  0  0  0  0  0  0  0  0  0  0
    8.5308    1.8504   20.2625 H   0  0  0  0  0  0  0  0  0  0  0  0
   10.1496    2.2514   20.8248 H   0  0  0  0  0  0  0  0  0  0  0  0
    7.7175    1.6966   22.6028 H   0  0  0  0  0  0  0  0  0  0  0  0
    9.3290    2.1164   23.2034 H   0  0  0  0  0  0  0  0  0  0  0  0
    6.2325    3.4139   21.6343 H   0  0  0  0  0  0  0  0  0  0  0  0
    5.7835    5.7687   21.0586 H   0  0  0  0  0  0  0  0  0  0  0  0
    7.5931    7.4901   21.3009 H   0  0  0  0  0  0  0  0  0  0  0  0
    9.7543    6.8291   22.3116 H   0  0  0  0  0  0  0  0  0  0  0  0
   11.3677    5.1618   22.5438 H   0  0  0  0  0  0  0  0  0  0  0  0
   11.0130    3.4621   22.5404 H   0  0  0  0  0  0  0  0  0  0  0  0
   10.5277    5.3712   24.9085 H   0  0  0  0  0  0  0  0  0  0  0  0
   10.1584    3.6451   24.9184 H   0  0  0  0  0  0  0  0  0  0  0  0
   11.8484    4.1928   24.7389 H   0  0  0  0  0  0  0  0  0  0  0  0
  1  2  1  0
  2  3  1  0
  3  4  2  0
  4  5  1  0
  5  6  2  0
  6  7  1  0
  7  8  2  0
  8  9  1  0
  9 10  1  0
 10 11  1  0
 11 12  1  0
 12 13  2  0
 13 14  1  0
 14 15  2  0
 15 16  1  0
 16 17  1  0
 17 18  2  0
 18 19  1  0
 19 20  2  0
 20 21  1  0
 21 22  2  0
 22 23  1  0
 20 24  1  0
 19 25  1  0
 18 26  1  0
 16 27  1  0
 12 28  1  0
 10 29  1  0
 10 30  1  0
  9 31  1  0
  9 32  1  0
  7 33  1  0
  6 34  1  0
  5 35  1  0
  4 36  1  0
  2 37  1  0
  2 38  1  0
  1 39  1  0
  1 40  1  0
  1 41  1  0
  8  3  1  0
 15 11  1  0
 22 17  1  0
M  END
>  <cnnaffinity>  (1) 
5.59

>  <plip>  (1) 
-0.10344827586206896

>  <filename>  (1) 
[H][c]1[n][c]([H])[c]([N]([H])[c]2[n][n][c]([H])[n]2[C]([H])([H])[C]([H])([H])[c]2[c]([H])[c]([H])[c]([H])[c]([H])[c]2[C]([H])([H])[C]([H])([H])[H])[c]([H])[c]1[H]

>  <combo1>  (1) 
-0.6570405717263815

$$$$
