
     RDKit          3D

 33 35  0  0  0  0  0  0  0  0999 V2000
    6.6995   -1.5157   21.8373 C   0  0  0  0  0  0  0  0  0  0  0  0
    7.3488   -0.7565   20.9438 C   0  0  0  0  0  0  0  0  0  0  0  0
    6.6408   -0.0086   19.8598 C   0  0  0  0  0  0  0  0  0  0  0  0
    5.4206    0.6566   20.0983 C   0  0  0  0  0  0  0  0  0  0  0  0
    4.7976    1.3355   19.0518 C   0  0  0  0  0  0  0  0  0  0  0  0
    5.3972    1.3298   17.7891 C   0  0  0  0  0  0  0  0  0  0  0  0
    6.5534    0.7033   17.5284 N   0  0  0  0  0  0  0  0  0  0  0  0
    7.1524    0.0737   18.5471 C   0  0  0  0  0  0  0  0  0  0  0  0
    8.0945   -0.4139   18.3000 H   0  0  0  0  0  0  0  0  0  0  0  0
    4.9251    1.8465   16.9561 H   0  0  0  0  0  0  0  0  0  0  0  0
    3.8653    1.8689   19.1990 H   0  0  0  0  0  0  0  0  0  0  0  0
    4.9895    0.6746   21.1017 H   0  0  0  0  0  0  0  0  0  0  0  0
    8.8569   -0.6384   21.0117 C   0  0  0  0  0  0  0  0  0  0  0  0
    9.3980   -0.9793   22.4359 N   0  0  0  0  0  4  0  0  0  0  0  0
   10.8867   -0.7452   22.5333 C   0  0  0  0  0  0  0  0  0  0  0  0
   11.2746    0.7199   22.4158 C   0  0  0  0  0  0  0  0  0  0  0  0
   11.4098    1.6964   23.3597 C   0  0  0  0  0  0  0  0  0  0  0  0
   11.8550    3.1391   22.5833 S   0  0  0  0  0  0  0  0  0  0  0  0
   11.8614    2.4090   21.0654 N   0  0  0  0  0  0  0  0  0  0  0  0
   11.5626    1.1771   21.1508 N   0  0  0  0  0  0  0  0  0  0  0  0
   11.2394    1.6467   24.4248 H   0  0  0  0  0  0  0  0  0  0  0  0
   11.2637   -1.1622   23.4727 H   0  0  0  0  0  0  0  0  0  0  0  0
   11.3941   -1.2618   21.7057 H   0  0  0  0  0  0  0  0  0  0  0  0
    8.8702   -2.3270   22.8685 C   0  0  0  0  0  0  0  0  0  0  0  0
    7.3565   -2.1941   23.0243 C   0  0  0  0  0  0  0  0  0  0  0  0
    6.9158   -3.1837   23.1782 H   0  0  0  0  0  0  0  0  0  0  0  0
    7.1304   -1.6216   23.9356 H   0  0  0  0  0  0  0  0  0  0  0  0
    9.3385   -2.6342   23.8125 H   0  0  0  0  0  0  0  0  0  0  0  0
    9.1094   -3.0753   22.1055 H   0  0  0  0  0  0  0  0  0  0  0  0
    8.9114   -0.2905   23.0635 H   0  0  0  0  0  0  0  0  0  0  0  0
    9.1829    0.3736   20.7779 H   0  0  0  0  0  0  0  0  0  0  0  0
    9.3389   -1.3239   20.3042 H   0  0  0  0  0  0  0  0  0  0  0  0
    5.6264   -1.6680   21.7215 H   0  0  0  0  0  0  0  0  0  0  0  0
  1  2  2  0
  2  3  1  0
  3  4  2  0
  4  5  1  0
  5  6  2  0
  6  7  1  0
  7  8  2  0
  8  9  1  0
  6 10  1  0
  5 11  1  0
  4 12  1  0
  2 13  1  0
 13 14  1  0
 14 15  1  0
 15 16  1  0
 16 17  2  0
 17 18  1  0
 18 19  1  0
 19 20  2  0
 17 21  1  0
 15 22  1  0
 15 23  1  0
 14 24  1  0
 24 25  1  0
 25 26  1  0
 25 27  1  0
 24 28  1  0
 24 29  1  0
 14 30  1  0
 13 31  1  0
 13 32  1  0
  1 33  1  0
 25  1  1  0
  8  3  1  0
 20 16  1  0
M  CHG  1  14   1
M  END
>  <cnnaffinity>  (1) 
5.11426

>  <plip>  (1) 
-0.07142857142857142

>  <filename>  (1) 
[H][C]1=[C]([c]2[c]([H])[n][c]([H])[c]([H])[c]2[H])[C]([H])([H])[N+]([H])([C]([H])([H])[c]2[n][n][s][c]2[H])[C]([H])([H])[C]1([H])[H]

>  <combo1>  (1) 
-0.46949812706026134

$$$$
