
     RDKit          3D

 34 36  0  0  0  0  0  0  0  0999 V2000
    4.8414    1.4343   18.8661 C   0  0  0  0  0  0  0  0  0  0  0  0
    5.5113    1.3782   17.6360 C   0  0  0  0  0  0  0  0  0  0  0  0
    6.6621    0.7124   17.4550 N   0  0  0  0  0  0  0  0  0  0  0  0
    7.2077    0.0913   18.5155 C   0  0  0  0  0  0  0  0  0  0  0  0
    6.6219    0.1091   19.7953 C   0  0  0  0  0  0  0  0  0  0  0  0
    7.0851   -0.5719   20.8949 O   0  0  0  0  0  0  0  0  0  0  0  0
    8.4031   -0.7250   21.2739 C   0  0  0  0  0  0  0  0  0  0  0  0
    8.6394   -1.8921   22.0098 C   0  0  0  0  0  0  0  0  0  0  0  0
    9.9153   -2.1245   22.5345 C   0  0  0  0  0  0  0  0  0  0  0  0
   10.2973   -3.2576   23.1985 O   0  0  0  0  0  0  0  0  0  0  0  0
    9.2876   -4.1852   23.6081 C   0  0  0  0  0  0  0  0  0  0  0  0
    8.4475   -3.6831   24.7618 C   0  0  0  0  0  0  0  0  0  0  0  0
    9.0574   -3.2476   25.9547 C   0  0  0  0  0  0  0  0  0  0  0  0
    8.2638   -2.5974   26.8847 C   0  0  0  0  0  0  0  0  0  0  0  0
    6.8903   -2.5138   26.6112 C   0  0  0  0  0  0  0  0  0  0  0  0
    6.3451   -3.0419   25.5119 N   0  0  0  0  0  0  0  0  0  0  0  0
    7.1205   -3.6178   24.5846 N   0  0  0  0  0  0  0  0  0  0  0  0
    6.1978   -2.0040   27.2785 H   0  0  0  0  0  0  0  0  0  0  0  0
    8.6721   -2.1731   27.7991 H   0  0  0  0  0  0  0  0  0  0  0  0
   10.1258   -3.4050   26.0899 H   0  0  0  0  0  0  0  0  0  0  0  0
    9.8424   -5.0652   23.9290 H   0  0  0  0  0  0  0  0  0  0  0  0
    8.6457   -4.4632   22.7644 H   0  0  0  0  0  0  0  0  0  0  0  0
   10.9221   -1.1604   22.3688 C   0  0  0  0  0  0  0  0  0  0  0  0
   10.6638   -0.0004   21.6475 C   0  0  0  0  0  0  0  0  0  0  0  0
    9.4052    0.2265   21.0709 C   0  0  0  0  0  0  0  0  0  0  0  0
    9.2012    1.1287   20.5056 H   0  0  0  0  0  0  0  0  0  0  0  0
   11.4476    0.7471   21.5481 H   0  0  0  0  0  0  0  0  0  0  0  0
   11.8883   -1.3609   22.8129 H   0  0  0  0  0  0  0  0  0  0  0  0
    7.7952   -2.5443   22.2015 H   0  0  0  0  0  0  0  0  0  0  0  0
    5.3977    0.7744   19.9636 C   0  0  0  0  0  0  0  0  0  0  0  0
    4.9161    0.7586   20.9419 H   0  0  0  0  0  0  0  0  0  0  0  0
    8.1378   -0.4516   18.3445 H   0  0  0  0  0  0  0  0  0  0  0  0
    5.1019    1.8732   16.7591 H   0  0  0  0  0  0  0  0  0  0  0  0
    3.9137    1.9954   18.9514 H   0  0  0  0  0  0  0  0  0  0  0  0
  1  2  2  0
  2  3  1  0
  3  4  2  0
  4  5  1  0
  5  6  1  0
  6  7  1  0
  7  8  2  0
  8  9  1  0
  9 10  1  0
 10 11  1  0
 11 12  1  0
 12 13  2  0
 13 14  1  0
 14 15  2  0
 15 16  1  0
 16 17  2  0
 15 18  1  0
 14 19  1  0
 13 20  1  0
 11 21  1  0
 11 22  1  0
  9 23  2  0
 23 24  1  0
 24 25  2  0
 25 26  1  0
 24 27  1  0
 23 28  1  0
  8 29  1  0
  5 30  2  0
 30 31  1  0
  4 32  1  0
  2 33  1  0
  1 34  1  0
 30  1  1  0
 25  7  1  0
 17 12  1  0
M  END
>  <cnnaffinity>  (1) 
5.52939

>  <plip>  (1) 
-0.03571428571428571

>  <filename>  (1) 
[H][c]1[n][n][c]([C]([H])([H])[O][c]2[c]([H])[c]([H])[c]([H])[c]([O][c]3[c]([H])[n][c]([H])[c]([H])[c]3[H])[c]2[H])[c]([H])[c]1[H]

>  <combo1>  (1) 
-0.23568316187516408

$$$$
