
     RDKit          3D

 52 55  0  0  0  0  0  0  0  0999 V2000
    8.8510   -2.7968   21.0691 O   0  0  0  0  0  0  0  0  0  0  0  0
    7.7629   -2.2562   21.2026 C   0  0  0  0  0  0  0  0  0  0  0  0
    6.6365   -3.0046   21.4131 N   0  0  0  0  0  0  0  0  0  0  0  0
    6.7166   -4.4720   21.3772 C   0  0  0  0  0  0  0  0  0  0  0  0
    5.6182   -5.2182   22.0626 C   0  0  0  0  0  0  0  0  0  0  0  0
    5.3016   -5.3936   23.3837 C   0  0  0  0  0  0  0  0  0  0  0  0
    4.2244   -6.2424   23.3610 N   0  0  0  0  0  0  0  0  0  0  0  0
    3.4634   -6.8251   24.4065 C   0  0  0  0  0  0  0  0  0  0  0  0
    2.4331   -7.7424   24.1447 C   0  0  0  0  0  0  0  0  0  0  0  0
    1.6965   -8.2488   25.2197 C   0  0  0  0  0  0  0  0  0  0  0  0
    2.0350   -7.8584   26.5131 C   0  0  0  0  0  0  0  0  0  0  0  0
    3.0387   -7.0070   26.7719 N   0  0  0  0  0  0  0  0  0  0  0  0
    3.7139   -6.5307   25.7565 C   0  0  0  0  0  0  0  0  0  0  0  0
    4.7223   -5.7085   26.0655 F   0  0  0  0  0  0  0  0  0  0  0  0
    1.4894   -8.2396   27.3749 H   0  0  0  0  0  0  0  0  0  0  0  0
    0.8776   -8.9403   25.0568 H   0  0  0  0  0  0  0  0  0  0  0  0
    2.2303   -8.0594   23.1214 H   0  0  0  0  0  0  0  0  0  0  0  0
    3.9253   -6.5610   22.0904 N   0  0  0  0  0  0  0  0  0  0  0  0
    4.7592   -5.9650   21.3176 N   0  0  0  0  0  0  0  0  0  0  0  0
    5.7443   -5.0357   24.2939 H   0  0  0  0  0  0  0  0  0  0  0  0
    6.7550   -4.8425   20.3434 H   0  0  0  0  0  0  0  0  0  0  0  0
    7.6797   -4.7346   21.8336 H   0  0  0  0  0  0  0  0  0  0  0  0
    5.7624   -2.5286   21.2644 H   0  0  0  0  0  0  0  0  0  0  0  0
    7.5497   -0.7185   21.2270 C   0  0  0  0  0  0  0  0  0  0  0  0
    6.7864   -0.1357   20.0225 C   0  0  0  0  0  0  0  0  0  0  0  0
    5.5486    0.4981   20.2187 C   0  0  0  0  0  0  0  0  0  0  0  0
    4.9350    1.1540   19.1456 C   0  0  0  0  0  0  0  0  0  0  0  0
    5.5703    1.1460   17.9018 C   0  0  0  0  0  0  0  0  0  0  0  0
    6.7322    0.5149   17.6726 N   0  0  0  0  0  0  0  0  0  0  0  0
    7.3183   -0.0975   18.7144 C   0  0  0  0  0  0  0  0  0  0  0  0
    8.2608   -0.6065   18.4981 H   0  0  0  0  0  0  0  0  0  0  0  0
    5.1260    1.6625   17.0514 H   0  0  0  0  0  0  0  0  0  0  0  0
    4.0054    1.6979   19.2686 H   0  0  0  0  0  0  0  0  0  0  0  0
    5.0858    0.5046   21.2081 H   0  0  0  0  0  0  0  0  0  0  0  0
    8.8873    0.0170   21.4982 C   0  0  0  0  0  0  0  0  0  0  0  0
    8.7468    1.5636   21.5761 C   0  0  0  0  0  0  0  0  0  0  0  0
    9.9322    2.2378   22.3215 C   0  0  0  0  0  0  0  0  0  0  0  0
   11.2275    1.4126   22.2237 C   0  0  0  0  0  0  0  0  0  0  0  0
   11.0487   -0.0111   22.8126 C   0  0  0  0  0  0  0  0  0  0  0  0
    9.5843   -0.4874   22.7745 C   0  0  0  0  0  0  0  0  0  0  0  0
    9.0312   -0.0991   23.6437 H   0  0  0  0  0  0  0  0  0  0  0  0
    9.5574   -1.5770   22.8466 H   0  0  0  0  0  0  0  0  0  0  0  0
   11.6619   -0.7195   22.2385 H   0  0  0  0  0  0  0  0  0  0  0  0
   11.4021   -0.0692   23.8501 H   0  0  0  0  0  0  0  0  0  0  0  0
   12.0496    1.9235   22.7335 H   0  0  0  0  0  0  0  0  0  0  0  0
   11.5173    1.3378   21.1662 H   0  0  0  0  0  0  0  0  0  0  0  0
   10.0941    3.2525   21.9444 H   0  0  0  0  0  0  0  0  0  0  0  0
    9.6714    2.3413   23.3840 H   0  0  0  0  0  0  0  0  0  0  0  0
    8.6514    1.9639   20.5576 H   0  0  0  0  0  0  0  0  0  0  0  0
    7.8079    1.8304   22.0845 H   0  0  0  0  0  0  0  0  0  0  0  0
    9.5472   -0.2070   20.6456 H   0  0  0  0  0  0  0  0  0  0  0  0
    6.9094   -0.5529   22.1067 H   0  0  0  0  0  0  0  0  0  0  0  0
  1  2  2  0
  2  3  1  0
  3  4  1  0
  4  5  1  0
  5  6  2  0
  6  7  1  0
  7  8  1  0
  8  9  2  0
  9 10  1  0
 10 11  2  0
 11 12  1  0
 12 13  2  0
 13 14  1  0
 11 15  1  0
 10 16  1  0
  9 17  1  0
  7 18  1  0
 18 19  2  0
  6 20  1  0
  4 21  1  0
  4 22  1  0
  3 23  1  0
  2 24  1  0
 24 25  1  0
 25 26  2  0
 26 27  1  0
 27 28  2  0
 28 29  1  0
 29 30  2  0
 30 31  1  0
 28 32  1  0
 27 33  1  0
 26 34  1  0
 24 35  1  0
 35 36  1  0
 36 37  1  0
 37 38  1  0
 38 39  1  0
 39 40  1  0
 40 41  1  0
 40 42  1  0
 39 43  1  0
 39 44  1  0
 38 45  1  0
 38 46  1  0
 37 47  1  0
 37 48  1  0
 36 49  1  0
 36 50  1  0
 35 51  1  0
 24 52  1  0
 19  5  1  0
 30 25  1  0
 40 35  1  0
 13  8  1  0
M  END
>  <cnnaffinity>  (1) 
6.04084

>  <plip>  (1) 
-0.10344827586206896

>  <filename>  (1) 
[H][c]1[n][c]([F])[c](-[n]2[n][n][c]([C]([H])([H])[N]([H])[C](=[O])[C]([H])([c]3[c]([H])[n][c]([H])[c]([H])[c]3[H])[C]3([H])[C]([H])([H])[C]([H])([H])[C]([H])([H])[C]([H])([H])[C]3([H])[H])[c]2[H])[c]([H])[c]1[H]

>  <combo1>  (1) 
-0.5280839529734949

$$$$
