
     RDKit          3D

 34 36  0  0  0  0  0  0  0  0999 V2000
    8.5235   -6.2756   26.8999 C   0  0  0  0  0  0  0  0  0  0  0  0
    8.8097   -5.4222   26.0993 C   0  0  0  0  0  0  0  0  0  0  0  0
    9.1090   -4.3780   25.1514 C   0  0  0  0  0  0  0  0  0  0  0  0
   10.3176   -4.3901   24.4357 C   0  0  0  0  0  0  0  0  0  0  0  0
   10.5231   -3.3900   23.4872 C   0  0  0  0  0  0  0  0  0  0  0  0
    9.5289   -2.4342   23.2865 C   0  0  0  0  0  0  0  0  0  0  0  0
    8.4103   -2.4550   24.1339 C   0  0  0  0  0  0  0  0  0  0  0  0
    7.3871   -1.5434   24.1800 N   0  0  0  0  0  0  0  0  0  0  0  0
    6.8281   -0.8521   23.0447 C   0  0  0  0  0  0  0  0  0  0  0  0
    6.5495   -1.6956   21.7805 C   0  0  0  0  0  0  0  0  0  0  0  0
    7.4126   -0.7050   20.9381 C   0  0  0  0  0  0  0  0  0  0  0  0
    6.6798    0.0196   19.8426 C   0  0  0  0  0  0  0  0  0  0  0  0
    5.4637    0.6767   20.0904 C   0  0  0  0  0  0  0  0  0  0  0  0
    4.8191    1.3361   19.0451 C   0  0  0  0  0  0  0  0  0  0  0  0
    5.4123    1.3271   17.7786 C   0  0  0  0  0  0  0  0  0  0  0  0
    6.5712    0.7034   17.5108 N   0  0  0  0  0  0  0  0  0  0  0  0
    7.1742    0.0735   18.5281 C   0  0  0  0  0  0  0  0  0  0  0  0
    8.1131   -0.4224   18.2779 H   0  0  0  0  0  0  0  0  0  0  0  0
    4.9381    1.8361   16.9422 H   0  0  0  0  0  0  0  0  0  0  0  0
    3.8808    1.8581   19.1997 H   0  0  0  0  0  0  0  0  0  0  0  0
    5.0283    0.6720   21.0927 H   0  0  0  0  0  0  0  0  0  0  0  0
    7.7207    0.1101   22.2361 C   0  0  0  0  0  0  0  0  0  0  0  0
    7.3692    1.1487   22.2176 H   0  0  0  0  0  0  0  0  0  0  0  0
    8.7638    0.1324   22.5566 H   0  0  0  0  0  0  0  0  0  0  0  0
    8.3179   -1.1889   20.5446 H   0  0  0  0  0  0  0  0  0  0  0  0
    5.4966   -1.7818   21.5013 H   0  0  0  0  0  0  0  0  0  0  0  0
    6.9549   -2.7084   21.8525 H   0  0  0  0  0  0  0  0  0  0  0  0
    5.9535   -0.3137   23.4209 H   0  0  0  0  0  0  0  0  0  0  0  0
    6.7227   -2.0304   24.7667 H   0  0  0  0  0  0  0  0  0  0  0  0
    8.1846   -3.4206   25.0251 N   0  0  0  0  0  0  0  0  0  0  0  0
    9.5850   -1.7288   22.4729 H   0  0  0  0  0  0  0  0  0  0  0  0
   11.4378   -3.3593   22.8900 H   0  0  0  0  0  0  0  0  0  0  0  0
   11.0538   -5.1712   24.5971 H   0  0  0  0  0  0  0  0  0  0  0  0
    8.2878   -6.9912   27.6578 H   0  0  0  0  0  0  0  0  0  0  0  0
  1  2  3  0
  2  3  1  0
  3  4  2  0
  4  5  1  0
  5  6  2  0
  6  7  1  0
  7  8  1  0
  8  9  1  0
  9 10  1  0
 10 11  1  0
 11 12  1  0
 12 13  2  0
 13 14  1  0
 14 15  2  0
 15 16  1  0
 16 17  2  0
 17 18  1  0
 15 19  1  0
 14 20  1  0
 13 21  1  0
 11 22  1  0
 22 23  1  0
 22 24  1  0
 11 25  1  0
 10 26  1  0
 10 27  1  0
  9 28  1  0
  8 29  1  0
  7 30  2  0
  6 31  1  0
  5 32  1  0
  4 33  1  0
  1 34  1  0
 30  3  1  0
 22  9  1  0
 17 12  1  0
M  END
>  <cnnaffinity>  (1) 
4.87707

>  <plip>  (1) 
-0.10714285714285714

>  <filename>  (1) 
[H][C]#[C][c]1[n][c]([N]([H])[C]2([H])[C]([H])([H])[C]([H])([c]3[c]([H])[n][c]([H])[c]([H])[c]3[H])[C]2([H])[H])[c]([H])[c]([H])[c]1[H]

>  <combo1>  (1) 
-0.6986329509362432

$$$$
