
     RDKit          3D

 22 23  0  0  0  0  0  0  0  0999 V2000
    6.3116   -2.8052   18.4677 H   0  0  0  0  0  0  0  0  0  0  0  0
    5.5950   -3.2149   19.0724 N   0  0  0  0  0  0  0  0  0  0  0  0
    5.7362   -3.0080   20.2500 N   0  0  0  0  0  4  0  0  0  0  0  0
    5.6326   -3.0345   21.4576 N   0  0  0  0  0  0  0  0  0  0  0  0
    6.3237   -2.1351   22.2578 C   0  0  0  0  0  0  0  0  0  0  0  0
    7.2021   -1.0794   22.0451 C   0  0  0  0  0  0  0  0  0  0  0  0
    7.6523   -0.6219   20.8401 O   0  0  0  0  0  0  0  0  0  0  0  0
    6.7607   -0.0440   19.9597 C   0  0  0  0  0  0  0  0  0  0  0  0
    7.2099   -0.0205   18.6301 C   0  0  0  0  0  0  0  0  0  0  0  0
    8.1502   -0.5292   18.4249 H   0  0  0  0  0  0  0  0  0  0  0  0
    6.5809    0.5997   17.6294 N   0  0  0  0  0  0  0  0  0  0  0  0
    5.4321    1.2327   17.9257 C   0  0  0  0  0  0  0  0  0  0  0  0
    4.9470    1.7636   17.1056 H   0  0  0  0  0  0  0  0  0  0  0  0
    4.8791    1.2276   19.2075 C   0  0  0  0  0  0  0  0  0  0  0  0
    3.9591    1.7764   19.3740 H   0  0  0  0  0  0  0  0  0  0  0  0
    5.5410    0.5688   20.2633 C   0  0  0  0  0  0  0  0  0  0  0  0
    5.1335    0.5788   21.2784 H   0  0  0  0  0  0  0  0  0  0  0  0
    7.5522   -0.6015   23.3191 C   0  0  0  0  0  0  0  0  0  0  0  0
    8.2435    0.2017   23.5552 H   0  0  0  0  0  0  0  0  0  0  0  0
    6.9002   -1.2784   24.2582 N   0  0  0  0  0  0  0  0  0  0  0  0
    6.1835   -2.1987   23.5984 N   0  0  0  0  0  0  0  0  0  0  0  0
    5.5125   -2.7860   24.0780 H   0  0  0  0  0  0  0  0  0  0  0  0
  1  2  1  0
  2  3  2  0
  3  4  2  0
  4  5  1  0
  5  6  2  0
  6  7  1  0
  7  8  1  0
  8  9  2  0
  9 10  1  0
  9 11  1  0
 11 12  2  0
 12 13  1  0
 12 14  1  0
 14 15  1  0
 14 16  2  0
 16 17  1  0
  6 18  1  0
 18 19  1  0
 18 20  2  0
 20 21  1  0
 21 22  1  0
 21  5  1  0
 16  8  1  0
M  CHG  1   3   1
M  END
>  <cnnaffinity>  (1) 
3.96403

>  <plip>  (1) 
-0.17857142857142858

>  <filename>  (1) 
[H][N]=[N+]=[N][c]1[c]([O][c]2[c]([H])[n][c]([H])[c]([H])[c]2[H])[c]([H])[n][n]1[H]

>  <combo1>  (1) 
-1.1612774893159765

$$$$
