
     RDKit          3D

 39 41  0  0  0  0  0  0  0  0999 V2000
    5.0120    1.7709   16.9719 H   0  0  0  0  0  0  0  0  0  0  0  0
    5.4538    1.2654   17.8281 C   0  0  0  0  0  0  0  0  0  0  0  0
    6.6085    0.6212   17.6043 N   0  0  0  0  0  0  0  0  0  0  0  0
    7.1733   -0.0005   18.6421 C   0  0  0  0  0  0  0  0  0  0  0  0
    8.0955   -0.5448   18.4490 H   0  0  0  0  0  0  0  0  0  0  0  0
    6.6495    0.0201   19.9397 C   0  0  0  0  0  0  0  0  0  0  0  0
    7.4333   -0.7028   20.9585 C   0  0  0  0  0  0  0  0  0  0  0  0
    8.2473   -1.6517   20.6667 N   0  0  0  0  0  0  0  0  0  0  0  0
    8.7737   -2.1743   21.9278 C   0  0  0  0  0  0  0  0  0  0  0  0
    9.8662   -2.2671   21.8824 H   0  0  0  0  0  0  0  0  0  0  0  0
    8.3822   -3.1873   22.1025 H   0  0  0  0  0  0  0  0  0  0  0  0
    8.3197   -1.2011   23.0363 C   0  0  0  0  0  0  0  0  0  0  0  0
    7.8576   -1.7065   23.8941 H   0  0  0  0  0  0  0  0  0  0  0  0
    9.1497   -0.5854   23.4208 H   0  0  0  0  0  0  0  0  0  0  0  0
    7.3457   -0.3788   22.3200 N   0  0  0  0  0  0  0  0  0  0  0  0
    6.9362    0.8711   22.8160 N   0  0  0  0  0  0  0  0  0  0  0  0
    6.5804    0.7798   23.7669 H   0  0  0  0  0  0  0  0  0  0  0  0
    7.9512    1.9281   22.6989 C   0  0  0  0  0  0  0  0  0  0  0  0
    8.7760    1.7945   23.4165 H   0  0  0  0  0  0  0  0  0  0  0  0
    8.3700    1.8228   21.6905 H   0  0  0  0  0  0  0  0  0  0  0  0
    7.3708    3.3192   22.7959 C   0  0  0  0  0  0  0  0  0  0  0  0
    6.7590    3.8456   21.6447 C   0  0  0  0  0  0  0  0  0  0  0  0
    6.6444    3.1748   20.7905 H   0  0  0  0  0  0  0  0  0  0  0  0
    6.3336    5.1677   21.6029 C   0  0  0  0  0  0  0  0  0  0  0  0
    5.9940    5.6914   20.7153 H   0  0  0  0  0  0  0  0  0  0  0  0
    6.4250    5.9671   22.7491 C   0  0  0  0  0  0  0  0  0  0  0  0
    5.9721    7.2377   22.5557 O   0  0  0  0  0  0  0  0  0  0  0  0
    5.7260    8.0883   23.6525 C   0  0  0  0  0  0  0  0  0  0  0  0
    6.6683    8.3881   24.1316 H   0  0  0  0  0  0  0  0  0  0  0  0
    5.2229    8.9722   23.2422 H   0  0  0  0  0  0  0  0  0  0  0  0
    5.0737    7.6003   24.3911 H   0  0  0  0  0  0  0  0  0  0  0  0
    6.9794    5.4486   23.9273 C   0  0  0  0  0  0  0  0  0  0  0  0
    7.0085    6.0505   24.8289 H   0  0  0  0  0  0  0  0  0  0  0  0
    7.4691    4.1310   23.9317 C   0  0  0  0  0  0  0  0  0  0  0  0
    7.9607    3.7520   24.8267 H   0  0  0  0  0  0  0  0  0  0  0  0
    5.4427    0.7047   20.1708 C   0  0  0  0  0  0  0  0  0  0  0  0
    5.0165    0.7846   21.1730 H   0  0  0  0  0  0  0  0  0  0  0  0
    4.8219    1.3046   19.0783 C   0  0  0  0  0  0  0  0  0  0  0  0
    3.8661    1.8082   19.1778 H   0  0  0  0  0  0  0  0  0  0  0  0
  1  2  1  0
  2  3  2  0
  3  4  1  0
  4  5  1  0
  4  6  2  0
  6  7  1  0
  7  8  2  0
  8  9  1  0
  9 10  1  0
  9 11  1  0
  9 12  1  0
 12 13  1  0
 12 14  1  0
 12 15  1  0
 15 16  1  0
 16 17  1  0
 16 18  1  0
 18 19  1  0
 18 20  1  0
 18 21  1  0
 21 22  2  0
 22 23  1  0
 22 24  1  0
 24 25  1  0
 24 26  2  0
 26 27  1  0
 27 28  1  0
 28 29  1  0
 28 30  1  0
 28 31  1  0
 26 32  1  0
 32 33  1  0
 32 34  2  0
 34 35  1  0
  6 36  1  0
 36 37  1  0
 36 38  2  0
 38 39  1  0
 38  2  1  0
 15  7  1  0
 34 21  1  0
M  END
>  <cnnaffinity>  (1) 
4.72981

>  <plip>  (1) 
-0.06666666666666667

>  <filename>  (1) 
[H][c]1[n][c]([H])[c]([C]2=[N][C]([H])([H])[C]([H])([H])[N]2[N]([H])[C]([H])([H])[c]2[c]([H])[c]([H])[c]([O][C]([H])([H])[H])[c]([H])[c]2[H])[c]([H])[c]1[H]

>  <combo1>  (1) 
-0.37226139781506046

$$$$
