
     RDKit          3D

 39 41  0  0  0  0  0  0  0  0999 V2000
    7.7803   -1.9737   20.7907 C   0  0  0  0  0  0  0  0  0  0  0  0
    7.4162   -0.5716   20.9864 N   0  0  0  0  0  0  0  0  0  0  0  0
    7.6606   -0.0163   22.2520 C   0  0  0  0  0  0  0  0  0  0  0  0
    7.9266   -0.6990   23.2310 O   0  0  0  0  0  0  0  0  0  0  0  0
    7.5984    1.3429   22.2893 N   0  0  0  0  0  0  0  0  0  0  0  0
    7.6947    2.0804   23.5330 C   0  0  0  0  0  0  0  0  0  0  0  0
    6.3714    1.9964   24.3200 C   0  0  0  0  0  0  0  0  0  0  0  0
    6.4297    2.6946   25.5890 N   0  0  0  0  0  0  0  0  0  0  0  0
    6.0573    3.9872   25.8745 C   0  0  0  0  0  0  0  0  0  0  0  0
    6.3053    4.3670   27.0960 N   0  0  0  0  0  0  0  0  0  0  0  0
    6.8933    3.2552   27.6831 C   0  0  0  0  0  0  0  0  0  0  0  0
    7.3735    3.0680   28.9906 C   0  0  0  0  0  0  0  0  0  0  0  0
    7.9516    1.8448   29.3189 C   0  0  0  0  0  0  0  0  0  0  0  0
    8.0544    0.8091   28.3627 C   0  0  0  0  0  0  0  0  0  0  0  0
    7.5726    0.9643   27.0665 C   0  0  0  0  0  0  0  0  0  0  0  0
    6.9885    2.2008   26.7503 C   0  0  0  0  0  0  0  0  0  0  0  0
    7.6630    0.1726   26.3264 H   0  0  0  0  0  0  0  0  0  0  0  0
    8.5672   -0.1074   28.6335 H   0  0  0  0  0  0  0  0  0  0  0  0
    8.3651    1.6889   30.3109 H   0  0  0  0  0  0  0  0  0  0  0  0
    7.3090    3.8926   29.6932 H   0  0  0  0  0  0  0  0  0  0  0  0
    5.5896    4.6050   25.1134 H   0  0  0  0  0  0  0  0  0  0  0  0
    5.5530    2.4137   23.7246 H   0  0  0  0  0  0  0  0  0  0  0  0
    6.1367    0.9383   24.5017 H   0  0  0  0  0  0  0  0  0  0  0  0
    8.5035    1.6591   24.1502 H   0  0  0  0  0  0  0  0  0  0  0  0
    7.9422    3.1242   23.3061 H   0  0  0  0  0  0  0  0  0  0  0  0
    7.5529    1.7964   21.3933 H   0  0  0  0  0  0  0  0  0  0  0  0
    6.6909    0.0715   19.9252 C   0  0  0  0  0  0  0  0  0  0  0  0
    5.4457    0.6755   20.1515 C   0  0  0  0  0  0  0  0  0  0  0  0
    4.7954    1.3131   19.0871 C   0  0  0  0  0  0  0  0  0  0  0  0
    5.3890    1.2976   17.8208 C   0  0  0  0  0  0  0  0  0  0  0  0
    6.5513    0.6742   17.5705 N   0  0  0  0  0  0  0  0  0  0  0  0
    7.1703    0.0741   18.5948 C   0  0  0  0  0  0  0  0  0  0  0  0
    8.1096   -0.4260   18.3610 H   0  0  0  0  0  0  0  0  0  0  0  0
    4.9227    1.8011   16.9754 H   0  0  0  0  0  0  0  0  0  0  0  0
    3.8613    1.8433   19.2349 H   0  0  0  0  0  0  0  0  0  0  0  0
    5.0142    0.6373   21.1499 H   0  0  0  0  0  0  0  0  0  0  0  0
    7.1886   -2.3388   19.9475 H   0  0  0  0  0  0  0  0  0  0  0  0
    8.8532   -2.0824   20.5786 H   0  0  0  0  0  0  0  0  0  0  0  0
    7.5473   -2.5768   21.6734 H   0  0  0  0  0  0  0  0  0  0  0  0
  1  2  1  0
  2  3  1  0
  3  4  2  0
  3  5  1  0
  5  6  1  0
  6  7  1  0
  7  8  1  0
  8  9  1  0
  9 10  2  0
 10 11  1  0
 11 12  2  0
 12 13  1  0
 13 14  2  0
 14 15  1  0
 15 16  2  0
 15 17  1  0
 14 18  1  0
 13 19  1  0
 12 20  1  0
  9 21  1  0
  7 22  1  0
  7 23  1  0
  6 24  1  0
  6 25  1  0
  5 26  1  0
  2 27  1  0
 27 28  2  0
 28 29  1  0
 29 30  2  0
 30 31  1  0
 31 32  2  0
 32 33  1  0
 30 34  1  0
 29 35  1  0
 28 36  1  0
  1 37  1  0
  1 38  1  0
  1 39  1  0
 16  8  1  0
 32 27  1  0
 16 11  1  0
M  END
>  <cnnaffinity>  (1) 
4.49286

>  <plip>  (1) 
-0.0

>  <filename>  (1) 
[H][c]1[n][c]([H])[c]([N]([C](=[O])[N]([H])[C]([H])([H])[C]([H])([H])[n]2[c]([H])[n][c]3[c]([H])[c]([H])[c]([H])[c]([H])[c]32)[C]([H])([H])[H])[c]([H])[c]1[H]

>  <combo1>  (1) 
-5.070730600719158e-06

$$$$
