
     RDKit          3D

 38 41  0  0  0  0  0  0  0  0999 V2000
    8.2581    1.2142   22.2922 C   0  0  0  0  0  0  0  0  0  0  0  0
    7.5721   -0.0609   22.1906 N   0  0  0  0  0  0  0  0  0  0  0  0
    6.9739   -0.6622   23.2579 C   0  0  0  0  0  0  0  0  0  0  0  0
    6.8920   -0.1909   24.3684 O   0  0  0  0  0  0  0  0  0  0  0  0
    6.4916   -1.9169   22.8556 N   0  0  0  0  0  0  0  0  0  0  0  0
    5.7308   -2.7833   23.7094 C   0  0  0  0  0  0  0  0  0  0  0  0
    4.6230   -3.4561   23.1538 C   0  0  0  0  0  0  0  0  0  0  0  0
    3.7518   -4.1576   23.9701 C   0  0  0  0  0  0  0  0  0  0  0  0
    4.0351   -4.2640   25.3321 C   0  0  0  0  0  0  0  0  0  0  0  0
    3.1679   -5.0137   26.0657 O   0  0  0  0  0  0  0  0  0  0  0  0
    3.3967   -5.3058   27.3936 C   0  0  0  0  0  0  0  0  0  0  0  0
    2.6123   -6.0175   27.9591 O   0  0  0  0  0  0  0  0  0  0  0  0
    4.5834   -4.7003   28.0178 C   0  0  0  0  0  0  0  0  0  0  0  0
    5.4198   -3.9050   27.3199 C   0  0  0  0  0  0  0  0  0  0  0  0
    5.1713   -3.6603   25.9028 C   0  0  0  0  0  0  0  0  0  0  0  0
    6.0011   -2.8778   25.0725 C   0  0  0  0  0  0  0  0  0  0  0  0
    6.8117   -2.3028   25.5052 H   0  0  0  0  0  0  0  0  0  0  0  0
    6.2878   -3.4455   27.7969 H   0  0  0  0  0  0  0  0  0  0  0  0
    4.6942   -4.9476   29.0655 H   0  0  0  0  0  0  0  0  0  0  0  0
    2.8541   -4.6275   23.5841 H   0  0  0  0  0  0  0  0  0  0  0  0
    4.4561   -3.3862   22.0892 H   0  0  0  0  0  0  0  0  0  0  0  0
    6.6295   -2.0530   21.4845 C   0  0  0  0  0  0  0  0  0  0  0  0
    6.2812   -2.9907   20.8089 O   0  0  0  0  0  0  0  0  0  0  0  0
    7.3665   -0.8029   20.9698 C   0  0  0  0  0  0  0  0  0  0  0  0
    6.6392   -0.0013   19.8921 C   0  0  0  0  0  0  0  0  0  0  0  0
    5.4217    0.6552   20.1273 C   0  0  0  0  0  0  0  0  0  0  0  0
    4.8116    1.3176   19.0578 C   0  0  0  0  0  0  0  0  0  0  0  0
    5.4411    1.3189   17.8060 C   0  0  0  0  0  0  0  0  0  0  0  0
    6.6139    0.7119   17.5693 N   0  0  0  0  0  0  0  0  0  0  0  0
    7.1828    0.0803   18.6024 C   0  0  0  0  0  0  0  0  0  0  0  0
    8.1296   -0.4135   18.3960 H   0  0  0  0  0  0  0  0  0  0  0  0
    4.9846    1.8313   16.9583 H   0  0  0  0  0  0  0  0  0  0  0  0
    3.8720    1.8497   19.1785 H   0  0  0  0  0  0  0  0  0  0  0  0
    4.9608    0.6743   21.1195 H   0  0  0  0  0  0  0  0  0  0  0  0
    8.3248   -1.1519   20.5576 H   0  0  0  0  0  0  0  0  0  0  0  0
    7.5711    2.0033   22.6210 H   0  0  0  0  0  0  0  0  0  0  0  0
    8.6660    1.4766   21.3109 H   0  0  0  0  0  0  0  0  0  0  0  0
    9.0809    1.1430   23.0121 H   0  0  0  0  0  0  0  0  0  0  0  0
  1  2  1  0
  2  3  1  0
  3  4  2  0
  3  5  1  0
  5  6  1  0
  6  7  2  0
  7  8  1  0
  8  9  2  0
  9 10  1  0
 10 11  1  0
 11 12  2  0
 11 13  1  0
 13 14  2  0
 14 15  1  0
 15 16  2  0
 16 17  1  0
 14 18  1  0
 13 19  1  0
  8 20  1  0
  7 21  1  0
  5 22  1  0
 22 23  2  0
 22 24  1  0
 24 25  1  0
 25 26  2  0
 26 27  1  0
 27 28  2  0
 28 29  1  0
 29 30  2  0
 30 31  1  0
 28 32  1  0
 27 33  1  0
 26 34  1  0
 24 35  1  0
  1 36  1  0
  1 37  1  0
  1 38  1  0
 24  2  1  0
 30 25  1  0
 16  6  1  0
 15  9  1  0
M  END
>  <cnnaffinity>  (1) 
5.31247

>  <plip>  (1) 
-0.06896551724137931

>  <filename>  (1) 
[H][c]1[n][c]([H])[c]([C]2([H])[C](=[O])[N]([c]3[c]([H])[c]([H])[c]4[o][c](=[O])[c]([H])[c]([H])[c]4[c]3[H])[C](=[O])[N]2[C]([H])([H])[H])[c]([H])[c]1[H]

>  <combo1>  (1) 
-0.36420765637031244

$$$$
