
     RDKit          3D

 27 29  0  0  0  0  0  0  0  0999 V2000
    4.8031    1.3164   19.1010 C   0  0  0  0  0  0  0  0  0  0  0  0
    5.4024    1.2968   17.8341 C   0  0  0  0  0  0  0  0  0  0  0  0
    6.5646    0.6799   17.5705 N   0  0  0  0  0  0  0  0  0  0  0  0
    7.1702    0.0712   18.5953 C   0  0  0  0  0  0  0  0  0  0  0  0
    6.6542    0.0207   19.8972 C   0  0  0  0  0  0  0  0  0  0  0  0
    7.3584   -0.7046   20.9694 C   0  0  0  0  0  0  0  0  0  0  0  0
    6.7196   -1.7232   21.6828 C   0  0  0  0  0  0  0  0  0  0  0  0
    7.4195   -2.3613   22.7122 C   0  0  0  0  0  0  0  0  0  0  0  0
    8.6778   -2.0470   23.0771 N   0  0  0  0  0  0  0  0  0  0  0  0
    9.2503   -1.0634   22.3879 C   0  0  0  0  0  0  0  0  0  0  0  0
    8.6603   -0.3766   21.3347 C   0  0  0  0  0  0  0  0  0  0  0  0
    9.5426    0.7142   20.8049 C   0  0  0  0  0  0  0  0  0  0  0  0
   10.8110    0.6694   21.6584 N   0  0  0  0  0  4  0  0  0  0  0  0
   10.6228   -0.5136   22.6516 C   0  0  0  0  0  0  0  0  0  0  0  0
   11.3789   -1.2792   22.4947 H   0  0  0  0  0  0  0  0  0  0  0  0
   10.6981   -0.1751   23.6817 H   0  0  0  0  0  0  0  0  0  0  0  0
   10.9138    1.5750   22.1850 H   0  0  0  0  0  0  0  0  0  0  0  0
   11.6600    0.5163   21.0610 H   0  0  0  0  0  0  0  0  0  0  0  0
    9.0533    1.6939   20.8647 H   0  0  0  0  0  0  0  0  0  0  0  0
    9.7672    0.5615   19.7468 H   0  0  0  0  0  0  0  0  0  0  0  0
    6.9405   -3.1521   23.2775 H   0  0  0  0  0  0  0  0  0  0  0  0
    5.7052   -2.0047   21.4342 H   0  0  0  0  0  0  0  0  0  0  0  0
    5.4293    0.6511   20.1510 C   0  0  0  0  0  0  0  0  0  0  0  0
    5.0019    0.6314   21.1595 H   0  0  0  0  0  0  0  0  0  0  0  0
    8.1086   -0.4339   18.3717 H   0  0  0  0  0  0  0  0  0  0  0  0
    4.9153    1.7830   16.9935 H   0  0  0  0  0  0  0  0  0  0  0  0
    3.8698    1.8471   19.2565 H   0  0  0  0  0  0  0  0  0  0  0  0
  1  2  2  0
  2  3  1  0
  3  4  2  0
  4  5  1  0
  5  6  1  0
  6  7  2  0
  7  8  1  0
  8  9  2  0
  9 10  1  0
 10 11  2  0
 11 12  1  0
 12 13  1  0
 13 14  1  0
 14 15  1  0
 14 16  1  0
 13 17  1  0
 13 18  1  0
 12 19  1  0
 12 20  1  0
  8 21  1  0
  7 22  1  0
  5 23  2  0
 23 24  1  0
  4 25  1  0
  2 26  1  0
  1 27  1  0
 23  1  1  0
 11  6  1  0
 14 10  1  0
M  CHG  1  13   1
M  END
>  <cnnaffinity>  (1) 
4.3895

>  <plip>  (1) 
-0.06896551724137931

>  <filename>  (1) 
[H][c]1[n][c]([H])[c](-[c]2[c]([H])[c]([H])[n][c]3[c]2[C]([H])([H])[N+]([H])([H])[C]3([H])[H])[c]([H])[c]1[H]

>  <combo1>  (1) 
-0.5089964941917057

$$$$
