
     RDKit          3D

 30 32  0  0  0  0  0  0  0  0999 V2000
    7.0187   -2.0850   21.1279 C   0  0  0  0  0  0  0  0  0  0  0  0
    7.1828   -0.5687   21.1550 C   0  0  0  0  0  0  0  0  0  0  0  0
    8.5852   -0.2423   21.1345 N   0  0  0  0  0  0  0  0  0  0  0  0
    9.1507    0.9322   21.5180 C   0  0  0  0  0  0  0  0  0  0  0  0
   10.4662    0.9282   21.5192 N   0  0  0  0  0  0  0  0  0  0  0  0
   11.0276    2.0974   21.9690 N   0  0  0  0  0  0  0  0  0  0  0  0
   12.3456    2.4082   22.1232 C   0  0  0  0  0  0  0  0  0  0  0  0
   12.4750    3.6158   22.6227 N   0  0  0  0  0  0  0  0  0  0  0  0
   11.2333    4.1414   22.8083 N   0  0  0  0  0  0  0  0  0  0  0  0
   10.3597    3.2270   22.4176 C   0  0  0  0  0  0  0  0  0  0  0  0
    8.9309    3.2069   22.3414 C   0  0  0  0  0  0  0  0  0  0  0  0
    8.3319    2.0646   21.9092 C   0  0  0  0  0  0  0  0  0  0  0  0
    7.2556    1.9554   21.8790 H   0  0  0  0  0  0  0  0  0  0  0  0
    8.3910    4.1040   22.6364 H   0  0  0  0  0  0  0  0  0  0  0  0
   13.1300    1.7035   21.8904 H   0  0  0  0  0  0  0  0  0  0  0  0
    9.2942   -0.9214   20.9290 H   0  0  0  0  0  0  0  0  0  0  0  0
    6.4967    0.1360   20.0069 C   0  0  0  0  0  0  0  0  0  0  0  0
    5.2655    0.7869   20.1339 C   0  0  0  0  0  0  0  0  0  0  0  0
    4.6973    1.3779   19.0036 C   0  0  0  0  0  0  0  0  0  0  0  0
    5.3954    1.3167   17.7939 C   0  0  0  0  0  0  0  0  0  0  0  0
    6.5823    0.7092   17.6566 N   0  0  0  0  0  0  0  0  0  0  0  0
    7.1114    0.1437   18.7457 C   0  0  0  0  0  0  0  0  0  0  0  0
    8.0836   -0.3285   18.6054 H   0  0  0  0  0  0  0  0  0  0  0  0
    4.9851    1.7672   16.8934 H   0  0  0  0  0  0  0  0  0  0  0  0
    3.7457    1.8939   19.0503 H   0  0  0  0  0  0  0  0  0  0  0  0
    4.7681    0.8349   21.1048 H   0  0  0  0  0  0  0  0  0  0  0  0
    6.7404   -0.2071   22.0975 H   0  0  0  0  0  0  0  0  0  0  0  0
    7.1655   -2.4917   20.1263 H   0  0  0  0  0  0  0  0  0  0  0  0
    7.7429   -2.5441   21.8056 H   0  0  0  0  0  0  0  0  0  0  0  0
    6.0267   -2.3937   21.4684 H   0  0  0  0  0  0  0  0  0  0  0  0
  1  2  1  0
  2  3  1  0
  3  4  1  0
  4  5  2  0
  5  6  1  0
  6  7  1  0
  7  8  2  0
  8  9  1  0
  9 10  2  0
 10 11  1  0
 11 12  2  0
 12 13  1  0
 11 14  1  0
  7 15  1  0
  3 16  1  0
  2 17  1  0
 17 18  2  0
 18 19  1  0
 19 20  2  0
 20 21  1  0
 21 22  2  0
 22 23  1  0
 20 24  1  0
 19 25  1  0
 18 26  1  0
  2 27  1  0
  1 28  1  0
  1 29  1  0
  1 30  1  0
 12  4  1  0
 22 17  1  0
 10  6  1  0
M  END
>  <cnnaffinity>  (1) 
5.02832

>  <plip>  (1) 
-0.06896551724137931

>  <filename>  (1) 
[H][c]1[n][c]([H])[c]([C]([H])([N]([H])[c]2[n][n]3[c]([H])[n][n][c]3[c]([H])[c]2[H])[C]([H])([H])[H])[c]([H])[c]1[H]

>  <combo1>  (1) 
-0.4810986108061379

$$$$
