
     RDKit          3D

 52 55  0  0  0  0  0  0  0  0999 V2000
    6.2023   -3.0134   19.8110 O   0  0  0  0  0  0  0  0  0  0  0  0
    6.0094   -2.8315   21.0023 C   0  0  0  0  0  0  0  0  0  0  0  0
    6.4922   -1.7404   21.6614 N   0  0  0  0  0  0  0  0  0  0  0  0
    7.3142   -0.7414   21.0020 C   0  0  0  0  0  0  0  0  0  0  0  0
    7.8630    0.2184   22.0785 C   0  0  0  0  0  0  0  0  0  0  0  0
    8.9454    1.1548   21.6140 N   0  0  0  0  0  4  0  0  0  0  0  0
    9.3647    2.1821   22.6516 C   0  0  0  0  0  0  0  0  0  0  0  0
   10.8415    2.5000   22.3661 C   0  0  0  0  0  0  0  0  0  0  0  0
   11.2989    1.5266   21.2641 C   0  0  0  0  0  0  0  0  0  0  0  0
   10.2195    0.4496   21.1946 C   0  0  0  0  0  0  0  0  0  0  0  0
   10.0900    0.0025   20.2041 H   0  0  0  0  0  0  0  0  0  0  0  0
   10.4158   -0.3629   21.9072 H   0  0  0  0  0  0  0  0  0  0  0  0
   12.2700    1.0811   21.4928 H   0  0  0  0  0  0  0  0  0  0  0  0
   11.4034    2.0443   20.3053 H   0  0  0  0  0  0  0  0  0  0  0  0
   10.9701    3.5412   22.0555 H   0  0  0  0  0  0  0  0  0  0  0  0
   11.4338    2.3718   23.2764 H   0  0  0  0  0  0  0  0  0  0  0  0
    8.7140    3.0589   22.5928 H   0  0  0  0  0  0  0  0  0  0  0  0
    9.2348    1.7375   23.6436 H   0  0  0  0  0  0  0  0  0  0  0  0
    8.5522    1.6843   20.7948 H   0  0  0  0  0  0  0  0  0  0  0  0
    8.2671   -0.4112   22.8834 H   0  0  0  0  0  0  0  0  0  0  0  0
    7.0202    0.7909   22.4898 H   0  0  0  0  0  0  0  0  0  0  0  0
    6.5663   -0.0231   19.8939 C   0  0  0  0  0  0  0  0  0  0  0  0
    5.3611    0.6572   20.1076 C   0  0  0  0  0  0  0  0  0  0  0  0
    4.7889    1.3507   19.0403 C   0  0  0  0  0  0  0  0  0  0  0  0
    5.4355    1.3288   17.7989 C   0  0  0  0  0  0  0  0  0  0  0  0
    6.5726    0.6568   17.5648 N   0  0  0  0  0  0  0  0  0  0  0  0
    7.1002   -0.0117   18.5992 C   0  0  0  0  0  0  0  0  0  0  0  0
    8.0109   -0.5807   18.3927 H   0  0  0  0  0  0  0  0  0  0  0  0
    5.0176    1.8685   16.9519 H   0  0  0  0  0  0  0  0  0  0  0  0
    3.8635    1.9034   19.1584 H   0  0  0  0  0  0  0  0  0  0  0  0
    4.8692    0.6200   21.0832 H   0  0  0  0  0  0  0  0  0  0  0  0
    8.1617   -1.2603   20.5354 H   0  0  0  0  0  0  0  0  0  0  0  0
    6.0647   -1.5528   22.5601 H   0  0  0  0  0  0  0  0  0  0  0  0
    5.2056   -3.8630   21.8580 C   0  0  0  0  0  0  0  0  0  0  0  0
    5.0967   -5.1831   21.3881 C   0  0  0  0  0  0  0  0  0  0  0  0
    4.2286   -6.0485   22.0589 C   0  0  0  0  0  0  0  0  0  0  0  0
    3.5711   -5.6017   23.2083 C   0  0  0  0  0  0  0  0  0  0  0  0
    3.8347   -4.3083   23.6947 C   0  0  0  0  0  0  0  0  0  0  0  0
    3.2838   -3.8046   25.0190 C   0  0  0  0  0  0  0  0  0  0  0  0
    2.0121   -4.1720   25.5055 C   0  0  0  0  0  0  0  0  0  0  0  0
    1.5987   -3.7335   26.7702 C   0  0  0  0  0  0  0  0  0  0  0  0
    2.3400   -2.9603   27.5710 N   0  0  0  0  0  0  0  0  0  0  0  0
    3.5305   -2.5663   27.0989 C   0  0  0  0  0  0  0  0  0  0  0  0
    4.0315   -2.9397   25.8478 C   0  0  0  0  0  0  0  0  0  0  0  0
    4.9952   -2.5575   25.5293 H   0  0  0  0  0  0  0  0  0  0  0  0
    4.1199   -1.9223   27.7506 H   0  0  0  0  0  0  0  0  0  0  0  0
    0.6266   -4.0273   27.1606 H   0  0  0  0  0  0  0  0  0  0  0  0
    1.3197   -4.7765   24.9313 H   0  0  0  0  0  0  0  0  0  0  0  0
    4.6455   -3.4746   23.0201 N   0  0  0  0  0  0  0  0  0  0  0  0
    2.8776   -6.2521   23.7264 H   0  0  0  0  0  0  0  0  0  0  0  0
    4.0357   -7.0524   21.6859 H   0  0  0  0  0  0  0  0  0  0  0  0
    5.6724   -5.5004   20.5202 H   0  0  0  0  0  0  0  0  0  0  0  0
  1  2  2  0
  2  3  1  0
  3  4  1  0
  4  5  1  0
  5  6  1  0
  6  7  1  0
  7  8  1  0
  8  9  1  0
  9 10  1  0
 10 11  1  0
 10 12  1  0
  9 13  1  0
  9 14  1  0
  8 15  1  0
  8 16  1  0
  7 17  1  0
  7 18  1  0
  6 19  1  0
  5 20  1  0
  5 21  1  0
  4 22  1  0
 22 23  2  0
 23 24  1  0
 24 25  2  0
 25 26  1  0
 26 27  2  0
 27 28  1  0
 25 29  1  0
 24 30  1  0
 23 31  1  0
  4 32  1  0
  3 33  1  0
  2 34  1  0
 34 35  2  0
 35 36  1  0
 36 37  2  0
 37 38  1  0
 38 39  1  0
 39 40  2  0
 40 41  1  0
 41 42  2  0
 42 43  1  0
 43 44  2  0
 44 45  1  0
 43 46  1  0
 41 47  1  0
 40 48  1  0
 38 49  2  0
 37 50  1  0
 36 51  1  0
 35 52  1  0
 10  6  1  0
 27 22  1  0
 49 34  1  0
 44 39  1  0
M  CHG  1   6   1
M  END
>  <cnnaffinity>  (1) 
5.27941

>  <plip>  (1) 
-0.27586206896551724

>  <filename>  (1) 
[H][c]1[n][c]([H])[c]([C]([H])([N]([H])[C](=[O])[c]2[n][c](-[c]3[c]([H])[c]([H])[n][c]([H])[c]3[H])[c]([H])[c]([H])[c]2[H])[C]([H])([H])[N+]2([H])[C]([H])([H])[C]([H])([H])[C]([H])([H])[C]2([H])[H])[c]([H])[c]1[H]

>  <combo1>  (1) 
-1.296407138943106

$$$$
