
     RDKit          3D

 27 30  0  0  0  0  0  0  0  0999 V2000
    4.9292    1.7747   17.0004 H   0  0  0  0  0  0  0  0  0  0  0  0
    5.4080    1.2865   17.8461 C   0  0  0  0  0  0  0  0  0  0  0  0
    6.5716    0.6671   17.5961 N   0  0  0  0  0  0  0  0  0  0  0  0
    7.1764    0.0542   18.6166 C   0  0  0  0  0  0  0  0  0  0  0  0
    8.1226   -0.4273   18.3740 H   0  0  0  0  0  0  0  0  0  0  0  0
    6.6513    0.0099   19.9197 C   0  0  0  0  0  0  0  0  0  0  0  0
    7.3541   -0.6891   20.9988 C   0  0  0  0  0  0  0  0  0  0  0  0
    6.8847   -0.7346   22.2074 N   0  0  0  0  0  0  0  0  0  0  0  0
    7.7306   -1.4394   22.9840 N   0  0  0  0  0  0  0  0  0  0  0  0
    7.7574   -1.8066   24.3260 C   0  0  0  0  0  0  0  0  0  0  0  0
    6.7618   -1.4794   25.3375 C   0  0  0  0  0  0  0  0  0  0  0  0
    5.6275   -0.7396   25.1549 C   0  0  0  0  0  0  0  0  0  0  0  0
    5.3621   -0.2495   24.2380 H   0  0  0  0  0  0  0  0  0  0  0  0
    4.6933   -0.5827   26.5732 S   0  0  0  0  0  0  0  0  0  0  0  0
    5.8449   -1.4937   27.4678 C   0  0  0  0  0  0  0  0  0  0  0  0
    5.6967   -1.6748   28.5190 H   0  0  0  0  0  0  0  0  0  0  0  0
    6.8849   -1.9089   26.7043 C   0  0  0  0  0  0  0  0  0  0  0  0
    7.7236   -2.4935   27.0721 H   0  0  0  0  0  0  0  0  0  0  0  0
    8.9267   -2.5243   24.4255 C   0  0  0  0  0  0  0  0  0  0  0  0
    9.3290   -2.9944   25.3172 H   0  0  0  0  0  0  0  0  0  0  0  0
    9.6066   -2.6194   23.2432 N   0  0  0  0  0  0  0  0  0  0  0  0
    8.8558   -1.9523   22.4104 C   0  0  0  0  0  0  0  0  0  0  0  0
    8.8926   -1.5247   20.7375 S   0  0  0  0  0  0  0  0  0  0  0  0
    5.4280    0.6570   20.1659 C   0  0  0  0  0  0  0  0  0  0  0  0
    4.9953    0.6392   21.1675 H   0  0  0  0  0  0  0  0  0  0  0  0
    4.8041    1.3102   19.1075 C   0  0  0  0  0  0  0  0  0  0  0  0
    3.8735    1.8438   19.2561 H   0  0  0  0  0  0  0  0  0  0  0  0
  1  2  1  0
  2  3  2  0
  3  4  1  0
  4  5  1  0
  4  6  2  0
  6  7  1  0
  7  8  2  0
  8  9  1  0
  9 10  1  0
 10 11  1  0
 11 12  2  0
 12 13  1  0
 12 14  1  0
 14 15  1  0
 15 16  1  0
 15 17  2  0
 17 18  1  0
 10 19  2  0
 19 20  1  0
 19 21  1  0
 21 22  2  0
 22 23  1  0
  6 24  1  0
 24 25  1  0
 24 26  2  0
 26 27  1  0
 26  2  1  0
 23  7  1  0
 22  9  1  0
 17 11  1  0
M  END
>  <cnnaffinity>  (1) 
5.07588

>  <plip>  (1) 
-0.03571428571428571

>  <filename>  (1) 
[H][c]1[n][c]([H])[c](-[c]2[n][n]3[c](-[c]4[c]([H])[s][c]([H])[c]4[H])[c]([H])[n][c]3[s]2)[c]([H])[c]1[H]

>  <combo1>  (1) 
-0.21249553522761921

$$$$
