
     RDKit          3D

 31 34  0  0  0  0  0  0  0  0999 V2000
   10.7966   -5.5648   25.7353 Cl  0  0  0  0  0  0  0  0  0  0  0  0
    9.4424   -4.7123   25.0644 C   0  0  0  0  0  0  0  0  0  0  0  0
    8.1715   -5.0407   25.4821 C   0  0  0  0  0  0  0  0  0  0  0  0
    7.0619   -4.3275   24.9672 C   0  0  0  0  0  0  0  0  0  0  0  0
    7.2378   -3.3167   24.0465 C   0  0  0  0  0  0  0  0  0  0  0  0
    8.5376   -3.0054   23.5438 C   0  0  0  0  0  0  0  0  0  0  0  0
    8.7986   -2.0462   22.5036 C   0  0  0  0  0  0  0  0  0  0  0  0
    7.7382   -1.2632   21.8909 C   0  0  0  0  0  0  0  0  0  0  0  0
    6.6432   -0.8627   22.4495 N   0  0  0  0  0  0  0  0  0  0  0  0
    5.9719   -0.0962   21.5294 N   0  0  0  0  0  0  0  0  0  0  0  0
    6.6991   -0.0861   20.4606 C   0  0  0  0  0  0  0  0  0  0  0  0
    6.3307    0.5877   19.2219 C   0  0  0  0  0  0  0  0  0  0  0  0
    5.1242    1.3044   19.1533 C   0  0  0  0  0  0  0  0  0  0  0  0
    4.7901    1.9210   17.9565 C   0  0  0  0  0  0  0  0  0  0  0  0
    5.6780    1.8195   16.8819 C   0  0  0  0  0  0  0  0  0  0  0  0
    6.8261    1.1318   16.9341 N   0  0  0  0  0  0  0  0  0  0  0  0
    7.1427    0.5307   18.0862 C   0  0  0  0  0  0  0  0  0  0  0  0
    8.0813   -0.0179   18.0909 H   0  0  0  0  0  0  0  0  0  0  0  0
    5.4534    2.3282   15.9499 H   0  0  0  0  0  0  0  0  0  0  0  0
    3.8781    2.4935   17.8354 H   0  0  0  0  0  0  0  0  0  0  0  0
    4.4703    1.3746   20.0269 H   0  0  0  0  0  0  0  0  0  0  0  0
    7.8504   -0.7961   20.6100 O   0  0  0  0  0  0  0  0  0  0  0  0
   10.1051   -1.7864   22.1516 C   0  0  0  0  0  0  0  0  0  0  0  0
   11.1726   -2.4002   22.7099 N   0  0  0  0  0  0  0  0  0  0  0  0
   10.9553   -3.3345   23.6159 C   0  0  0  0  0  0  0  0  0  0  0  0
    9.6658   -3.6990   24.0850 C   0  0  0  0  0  0  0  0  0  0  0  0
   11.8390   -3.8125   24.0319 H   0  0  0  0  0  0  0  0  0  0  0  0
   10.3350   -1.0364   21.3987 H   0  0  0  0  0  0  0  0  0  0  0  0
    6.4074   -2.7121   23.7125 H   0  0  0  0  0  0  0  0  0  0  0  0
    6.0636   -4.5699   25.3270 H   0  0  0  0  0  0  0  0  0  0  0  0
    8.0237   -5.8283   26.2124 H   0  0  0  0  0  0  0  0  0  0  0  0
  1  2  1  0
  2  3  2  0
  3  4  1  0
  4  5  2  0
  5  6  1  0
  6  7  2  0
  7  8  1  0
  8  9  2  0
  9 10  1  0
 10 11  2  0
 11 12  1  0
 12 13  2  0
 13 14  1  0
 14 15  2  0
 15 16  1  0
 16 17  2  0
 17 18  1  0
 15 19  1  0
 14 20  1  0
 13 21  1  0
 11 22  1  0
  7 23  1  0
 23 24  2  0
 24 25  1  0
 25 26  2  0
 25 27  1  0
 23 28  1  0
  5 29  1  0
  4 30  1  0
  3 31  1  0
 26  2  1  0
 26  6  1  0
 22  8  1  0
 17 12  1  0
M  END
>  <cnnaffinity>  (1) 
5.63653

>  <plip>  (1) 
-0.10714285714285714

>  <filename>  (1) 
[H][c]1[n][c]([H])[c](-[c]2[n][n][c](-[c]3[c]([H])[n][c]([H])[c]4[c]([Cl])[c]([H])[c]([H])[c]([H])[c]34)[o]2)[c]([H])[c]1[H]

>  <combo1>  (1) 
-0.652045304789792

$$$$
