
     RDKit          3D

 33 35  0  0  0  0  0  0  0  0999 V2000
    6.8839   -3.5788   22.9499 H   0  0  0  0  0  0  0  0  0  0  0  0
    7.2085   -2.5688   22.6992 C   0  0  0  0  0  0  0  0  0  0  0  0
    8.0804   -1.9334   23.4883 C   0  0  0  0  0  0  0  0  0  0  0  0
    8.6259   -2.6284   24.6761 C   0  0  0  0  0  0  0  0  0  0  0  0
    8.6716   -2.0282   25.9499 C   0  0  0  0  0  0  0  0  0  0  0  0
    8.2934   -1.0245   26.1094 H   0  0  0  0  0  0  0  0  0  0  0  0
    9.1459   -2.6498   27.0338 N   0  0  0  0  0  0  0  0  0  0  0  0
    9.6193   -3.8968   26.9438 N   0  0  0  0  0  0  0  0  0  0  0  0
    9.6047   -4.5229   25.7587 C   0  0  0  0  0  0  0  0  0  0  0  0
    9.9927   -5.5339   25.7423 H   0  0  0  0  0  0  0  0  0  0  0  0
    9.1006   -3.9341   24.5954 C   0  0  0  0  0  0  0  0  0  0  0  0
    9.1029   -4.4659   23.6472 H   0  0  0  0  0  0  0  0  0  0  0  0
    8.6178   -0.5422   23.1770 C   0  0  0  0  0  0  0  0  0  0  0  0
    9.6310   -0.6682   22.7717 H   0  0  0  0  0  0  0  0  0  0  0  0
    8.7304    0.0538   24.0874 H   0  0  0  0  0  0  0  0  0  0  0  0
    7.7559    0.2007   22.1620 C   0  0  0  0  0  0  0  0  0  0  0  0
    8.2739    1.0924   21.7934 H   0  0  0  0  0  0  0  0  0  0  0  0
    6.8323    0.5528   22.6384 H   0  0  0  0  0  0  0  0  0  0  0  0
    7.4061   -0.7238   20.9874 C   0  0  2  0  0  0  0  0  0  0  0  0
    8.3530   -1.1001   20.5752 H   0  0  0  0  0  0  0  0  0  0  0  0
    6.6651    0.0091   19.8956 C   0  0  0  0  0  0  0  0  0  0  0  0
    7.1683    0.0689   18.5869 C   0  0  0  0  0  0  0  0  0  0  0  0
    8.1150   -0.4219   18.3672 H   0  0  0  0  0  0  0  0  0  0  0  0
    6.5627    0.6826   17.5630 N   0  0  0  0  0  0  0  0  0  0  0  0
    5.4002    1.2948   17.8338 C   0  0  0  0  0  0  0  0  0  0  0  0
    4.9096    1.7825   16.9957 H   0  0  0  0  0  0  0  0  0  0  0  0
    4.8062    1.3114   19.1026 C   0  0  0  0  0  0  0  0  0  0  0  0
    3.8726    1.8437   19.2605 H   0  0  0  0  0  0  0  0  0  0  0  0
    5.4466    0.6515   20.1511 C   0  0  0  0  0  0  0  0  0  0  0  0
    5.0071    0.6347   21.1559 H   0  0  0  0  0  0  0  0  0  0  0  0
    6.6065   -1.9454   21.4780 C   0  0  0  0  0  0  0  0  0  0  0  0
    5.5826   -1.6439   21.7171 H   0  0  0  0  0  0  0  0  0  0  0  0
    6.5055   -2.6814   20.6755 H   0  0  0  0  0  0  0  0  0  0  0  0
  1  2  1  0
  2  3  2  0
  3  4  1  0
  4  5  2  0
  5  6  1  0
  5  7  1  0
  7  8  2  0
  8  9  1  0
  9 10  1  0
  9 11  2  0
 11 12  1  0
  3 13  1  0
 13 14  1  0
 13 15  1  0
 13 16  1  0
 16 17  1  0
 16 18  1  0
 16 19  1  0
 19 20  1  6
 19 21  1  0
 21 22  2  0
 22 23  1  0
 22 24  1  0
 24 25  2  0
 25 26  1  0
 25 27  1  0
 27 28  1  0
 27 29  2  0
 29 30  1  0
 19 31  1  0
 31 32  1  0
 31 33  1  0
 31  2  1  0
 11  4  1  0
 29 21  1  0
M  END
>  <cnnaffinity>  (1) 
5.08586

>  <plip>  (1) 
-0.03571428571428571

>  <filename>  (1) 
[H][C]1=[C]([c]2[c]([H])[n][n][c]([H])[c]2[H])[C]([H])([H])[C]([H])([H])[C@]([H])([c]2[c]([H])[n][c]([H])[c]([H])[c]2[H])[C]1([H])[H]

>  <combo1>  (1) 
-0.25513873387504893

$$$$
