
     RDKit          3D

 35 37  0  0  0  0  0  0  0  0999 V2000
    4.9144    1.7802   16.9939 H   0  0  0  0  0  0  0  0  0  0  0  0
    5.4005    1.2941   17.8388 C   0  0  0  0  0  0  0  0  0  0  0  0
    6.5662    0.6751   17.5859 N   0  0  0  0  0  0  0  0  0  0  0  0
    7.1677    0.0584   18.6096 C   0  0  0  0  0  0  0  0  0  0  0  0
    8.1136   -0.4313   18.3824 H   0  0  0  0  0  0  0  0  0  0  0  0
    6.6470   -0.0232   19.9220 C   0  0  0  0  0  0  0  0  0  0  0  0
    7.3540   -0.7378   20.9071 N   0  0  0  0  0  0  0  0  0  0  0  0
    6.6566   -1.6227   21.7337 N   0  0  0  0  0  0  0  0  0  0  0  0
    5.8254   -2.0291   21.3319 H   0  0  0  0  0  0  0  0  0  0  0  0
    6.9246   -1.8858   23.0611 C   0  0  0  0  0  0  0  0  0  0  0  0
    7.5989   -1.1252   23.7385 O   0  0  0  0  0  0  0  0  0  0  0  0
    6.4184   -3.2039   23.6365 C   0  0  0  0  0  0  0  0  0  0  0  0
    6.0701   -4.3341   22.8262 C   0  0  0  0  0  0  0  0  0  0  0  0
    6.1556   -4.2594   21.7414 H   0  0  0  0  0  0  0  0  0  0  0  0
    5.6550   -5.5170   23.3985 C   0  0  0  0  0  0  0  0  0  0  0  0
    5.3652   -6.3693   22.7943 H   0  0  0  0  0  0  0  0  0  0  0  0
    5.5723   -5.6685   24.8186 C   0  0  0  0  0  0  0  0  0  0  0  0
    5.1346   -6.8622   25.3411 N   0  0  0  0  0  0  0  0  0  0  0  0
    5.0837   -6.9583   26.6540 C   0  0  0  0  0  0  0  0  0  0  0  0
    4.7352   -7.9060   27.0652 H   0  0  0  0  0  0  0  0  0  0  0  0
    5.4426   -5.9127   27.5602 C   0  0  0  0  0  0  0  0  0  0  0  0
    5.3662   -6.0794   28.6318 H   0  0  0  0  0  0  0  0  0  0  0  0
    5.8801   -4.7140   27.0515 C   0  0  0  0  0  0  0  0  0  0  0  0
    6.1665   -3.8862   27.7058 H   0  0  0  0  0  0  0  0  0  0  0  0
    5.9560   -4.5537   25.6346 C   0  0  0  0  0  0  0  0  0  0  0  0
    6.3853   -3.3421   25.0192 C   0  0  0  0  0  0  0  0  0  0  0  0
    6.6871   -2.5202   25.6712 H   0  0  0  0  0  0  0  0  0  0  0  0
    8.7202   -0.3674   21.2536 C   0  0  0  0  0  0  0  0  0  0  0  0
    9.2249    0.0110   20.3623 H   0  0  0  0  0  0  0  0  0  0  0  0
    9.2523   -1.2603   21.5911 H   0  0  0  0  0  0  0  0  0  0  0  0
    8.7757    0.3890   22.0464 H   0  0  0  0  0  0  0  0  0  0  0  0
    5.4332    0.6463   20.1689 C   0  0  0  0  0  0  0  0  0  0  0  0
    5.0176    0.6251   21.1787 H   0  0  0  0  0  0  0  0  0  0  0  0
    4.8080    1.3136   19.1085 C   0  0  0  0  0  0  0  0  0  0  0  0
    3.8732    1.8451   19.2603 H   0  0  0  0  0  0  0  0  0  0  0  0
  1  2  1  0
  2  3  2  0
  3  4  1  0
  4  5  1  0
  4  6  2  0
  6  7  1  0
  7  8  1  0
  8  9  1  0
  8 10  1  0
 10 11  2  0
 10 12  1  0
 12 13  2  0
 13 14  1  0
 13 15  1  0
 15 16  1  0
 15 17  2  0
 17 18  1  0
 18 19  2  0
 19 20  1  0
 19 21  1  0
 21 22  1  0
 21 23  2  0
 23 24  1  0
 23 25  1  0
 25 26  2  0
 26 27  1  0
  7 28  1  0
 28 29  1  0
 28 30  1  0
 28 31  1  0
  6 32  1  0
 32 33  1  0
 32 34  2  0
 34 35  1  0
 34  2  1  0
 26 12  1  0
 25 17  1  0
M  END
>  <cnnaffinity>  (1) 
4.92602

>  <plip>  (1) 
-0.06896551724137931

>  <filename>  (1) 
[H][c]1[n][c]([H])[c]([N]([N]([H])[C](=[O])[c]2[c]([H])[c]([H])[c]3[n][c]([H])[c]([H])[c]([H])[c]3[c]2[H])[C]([H])([H])[H])[c]([H])[c]1[H]

>  <combo1>  (1) 
-0.4068837075991583

$$$$
