
     RDKit          3D

 42 44  0  0  0  0  0  0  0  0999 V2000
    6.1240   -2.1101   22.1215 C   0  0  0  0  0  0  0  0  0  0  0  0
    7.0617   -0.9146   22.1599 C   0  0  0  0  0  0  0  0  0  0  0  0
    7.5282   -0.5855   20.8391 O   0  0  0  0  0  0  0  0  0  0  0  0
    6.7016    0.0183   19.9326 C   0  0  0  0  0  0  0  0  0  0  0  0
    5.4671    0.6327   20.1864 C   0  0  0  0  0  0  0  0  0  0  0  0
    4.8246    1.2854   19.1218 C   0  0  0  0  0  0  0  0  0  0  0  0
    5.4130    1.2784   17.8555 C   0  0  0  0  0  0  0  0  0  0  0  0
    6.5762    0.6523   17.5939 N   0  0  0  0  0  0  0  0  0  0  0  0
    7.1964    0.0475   18.6083 C   0  0  0  0  0  0  0  0  0  0  0  0
    8.1447   -0.4488   18.4015 H   0  0  0  0  0  0  0  0  0  0  0  0
    4.9444    1.7960   17.0221 H   0  0  0  0  0  0  0  0  0  0  0  0
    3.8867    1.8145   19.2665 H   0  0  0  0  0  0  0  0  0  0  0  0
    5.0203    0.6154   21.1799 H   0  0  0  0  0  0  0  0  0  0  0  0
    8.3056   -1.2209   23.0337 C   0  0  0  0  0  0  0  0  0  0  0  0
    8.5091   -2.3463   23.4812 O   0  0  0  0  0  0  0  0  0  0  0  0
    9.1985   -0.2099   23.2806 N   0  0  0  0  0  0  0  0  0  0  0  0
    9.1073    1.1670   22.7925 C   0  0  0  0  0  0  0  0  0  0  0  0
   10.3466    1.8500   23.3910 C   0  0  0  0  0  0  0  0  0  0  0  0
   11.3493    0.7282   23.7484 C   0  0  2  0  0  0  0  0  0  0  0  0
   12.5517    0.5686   22.8016 C   0  0  0  0  0  0  0  0  0  0  0  0
   12.2471   -0.6120   21.8848 N   0  0  0  0  0  4  0  0  0  0  0  0
   13.4483   -1.3441   21.4044 C   0  0  0  0  0  0  0  0  0  0  0  0
   14.1198   -0.6907   20.8372 H   0  0  0  0  0  0  0  0  0  0  0  0
   14.0191   -1.7447   22.2551 H   0  0  0  0  0  0  0  0  0  0  0  0
   13.1783   -2.1911   20.7644 H   0  0  0  0  0  0  0  0  0  0  0  0
   11.2585   -1.4907   22.6307 C   0  0  0  0  0  0  0  0  0  0  0  0
   10.5617   -0.5924   23.6766 C   0  0  2  0  0  0  0  0  0  0  0  0
   10.5245   -1.1187   24.6329 H   0  0  0  0  0  0  0  0  0  0  0  0
   11.7785   -2.3172   23.1137 H   0  0  0  0  0  0  0  0  0  0  0  0
   10.5438   -1.9158   21.9238 H   0  0  0  0  0  0  0  0  0  0  0  0
   11.7209   -0.2303   21.0615 H   0  0  0  0  0  0  0  0  0  0  0  0
   13.4579    0.3271   23.3675 H   0  0  0  0  0  0  0  0  0  0  0  0
   12.7333    1.4653   22.1983 H   0  0  0  0  0  0  0  0  0  0  0  0
   11.7251    0.8903   24.7639 H   0  0  0  0  0  0  0  0  0  0  0  0
   10.0530    2.3823   24.3021 H   0  0  0  0  0  0  0  0  0  0  0  0
   10.7633    2.5950   22.7013 H   0  0  0  0  0  0  0  0  0  0  0  0
    8.1838    1.6438   23.1487 H   0  0  0  0  0  0  0  0  0  0  0  0
    9.0900    1.1950   21.6941 H   0  0  0  0  0  0  0  0  0  0  0  0
    6.5771   -0.0349   22.6008 H   0  0  0  0  0  0  0  0  0  0  0  0
    5.2562   -1.8973   21.4943 H   0  0  0  0  0  0  0  0  0  0  0  0
    5.7897   -2.3335   23.1400 H   0  0  0  0  0  0  0  0  0  0  0  0
    6.6590   -2.9843   21.7384 H   0  0  0  0  0  0  0  0  0  0  0  0
  1  2  1  0
  2  3  1  0
  3  4  1  0
  4  5  2  0
  5  6  1  0
  6  7  2  0
  7  8  1  0
  8  9  2  0
  9 10  1  0
  7 11  1  0
  6 12  1  0
  5 13  1  0
  2 14  1  0
 14 15  2  0
 14 16  1  0
 16 17  1  0
 17 18  1  0
 18 19  1  0
 19 20  1  0
 20 21  1  0
 21 22  1  0
 22 23  1  0
 22 24  1  0
 22 25  1  0
 21 26  1  0
 26 27  1  0
 27 28  1  1
 26 29  1  0
 26 30  1  0
 21 31  1  0
 20 32  1  0
 20 33  1  0
 19 34  1  1
 18 35  1  0
 18 36  1  0
 17 37  1  0
 17 38  1  0
  2 39  1  0
  1 40  1  0
  1 41  1  0
  1 42  1  0
  9  4  1  0
 27 16  1  0
 27 19  1  0
M  CHG  1  21   1
M  END
>  <cnnaffinity>  (1) 
4.24242

>  <plip>  (1) 
-0.0

>  <filename>  (1) 
[H][c]1[n][c]([H])[c]([O][C]([H])([C](=[O])[N]2[C]([H])([H])[C]([H])([H])[C@]3([H])[C]([H])([H])[N+]([H])([C]([H])([H])[H])[C]([H])([H])[C@]23[H])[C]([H])([H])[H])[c]([H])[c]1[H]

>  <combo1>  (1) 
-5.11702127659575e-06

$$$$
