
     RDKit          3D

 32 33  0  0  0  0  0  0  0  0999 V2000
   11.5460   -0.2036   25.9915 H   0  0  0  0  0  0  0  0  0  0  0  0
   10.9404    0.2493   25.3809 O   0  0  0  0  0  0  0  0  0  0  0  0
   10.7296   -0.6405   24.3143 N   0  0  0  0  0  0  0  0  0  0  0  0
    9.7357   -0.6985   24.1177 H   0  0  0  0  0  0  0  0  0  0  0  0
   11.5230   -0.5272   23.1702 C   0  0  0  0  0  0  0  0  0  0  0  0
   12.6260   -0.0263   23.1503 O   0  0  0  0  0  0  0  0  0  0  0  0
   10.8861   -1.1122   21.9233 C   0  0  0  0  0  0  0  0  0  0  0  0
   11.6955   -1.6000   21.3719 H   0  0  0  0  0  0  0  0  0  0  0  0
   10.1425   -1.8801   22.1666 H   0  0  0  0  0  0  0  0  0  0  0  0
   10.2742    0.0299   21.0656 C   0  0  0  0  0  0  0  0  0  0  0  0
    9.9506   -0.3668   20.0958 H   0  0  0  0  0  0  0  0  0  0  0  0
   11.0654    0.7674   20.8723 H   0  0  0  0  0  0  0  0  0  0  0  0
    9.1282    0.7312   21.7373 C   0  0  0  0  0  0  0  0  0  0  0  0
    7.8100    0.3660   21.9494 C   0  0  0  0  0  0  0  0  0  0  0  0
    6.9977   -0.6648   21.1824 C   0  0  0  0  0  0  0  0  0  0  0  0
    7.6361   -1.5199   20.9161 H   0  0  0  0  0  0  0  0  0  0  0  0
    6.2167   -1.0746   21.8327 H   0  0  0  0  0  0  0  0  0  0  0  0
    6.3736   -0.0614   19.9278 C   0  0  0  0  0  0  0  0  0  0  0  0
    7.0652   -0.0485   18.7050 C   0  0  0  0  0  0  0  0  0  0  0  0
    8.0033   -0.5981   18.5955 H   0  0  0  0  0  0  0  0  0  0  0  0
    6.6594    0.5922   17.6031 N   0  0  0  0  0  0  0  0  0  0  0  0
    5.5117    1.2849   17.6799 C   0  0  0  0  0  0  0  0  0  0  0  0
    5.2111    1.8158   16.7791 H   0  0  0  0  0  0  0  0  0  0  0  0
    4.7223    1.3257   18.8309 C   0  0  0  0  0  0  0  0  0  0  0  0
    3.8054    1.9092   18.8260 H   0  0  0  0  0  0  0  0  0  0  0  0
    5.1525    0.6377   19.9651 C   0  0  0  0  0  0  0  0  0  0  0  0
    4.5487    0.6610   20.8739 H   0  0  0  0  0  0  0  0  0  0  0  0
    7.3402    1.3098   22.8979 C   0  0  0  0  0  0  0  0  0  0  0  0
    6.3834    1.3621   23.4009 H   0  0  0  0  0  0  0  0  0  0  0  0
    8.2571    2.2243   23.2007 N   0  0  0  0  0  0  0  0  0  0  0  0
    9.3208    1.8655   22.4672 N   0  0  0  0  0  0  0  0  0  0  0  0
   10.2070    2.3294   22.6185 H   0  0  0  0  0  0  0  0  0  0  0  0
  1  2  1  0
  2  3  1  0
  3  4  1  0
  3  5  1  0
  5  6  2  0
  5  7  1  0
  7  8  1  0
  7  9  1  0
  7 10  1  0
 10 11  1  0
 10 12  1  0
 10 13  1  0
 13 14  2  0
 14 15  1  0
 15 16  1  0
 15 17  1  0
 15 18  1  0
 18 19  2  0
 19 20  1  0
 19 21  1  0
 21 22  2  0
 22 23  1  0
 22 24  1  0
 24 25  1  0
 24 26  2  0
 26 27  1  0
 14 28  1  0
 28 29  1  0
 28 30  2  0
 30 31  1  0
 31 32  1  0
 31 13  1  0
 26 18  1  0
M  END
>  <cnnaffinity>  (1) 
4.598

>  <plip>  (1) 
-0.07142857142857142

>  <filename>  (1) 
[H][O][N]([H])[C](=[O])[C]([H])([H])[C]([H])([H])[c]1[c]([C]([H])([H])[c]2[c]([H])[n][c]([H])[c]([H])[c]2[H])[c]([H])[n][n]1[H]

>  <combo1>  (1) 
-0.4445372577910036

$$$$
