
     RDKit          3D

 32 33  0  0  0  0  0  0  0  0999 V2000
   13.0642    0.4628   23.3896 C   0  0  0  0  0  0  0  0  0  0  0  0
   11.5933    0.1035   23.5223 C   0  0  0  0  0  0  0  0  0  0  0  0
   10.7012    0.2453   22.4540 C   0  0  0  0  0  0  0  0  0  0  0  0
   11.1535    0.7797   21.2860 F   0  0  0  0  0  0  0  0  0  0  0  0
    9.3316   -0.1283   22.5096 C   0  0  0  0  0  0  0  0  0  0  0  0
    8.4992    0.1123   21.4270 N   0  0  0  0  0  0  0  0  0  0  0  0
    7.1975   -0.5017   21.2115 C   0  0  0  0  0  0  0  0  0  0  0  0
    7.3366   -2.0266   21.0058 C   0  0  0  0  0  0  0  0  0  0  0  0
    8.2705   -2.2406   20.4802 H   0  0  0  0  0  0  0  0  0  0  0  0
    6.5039   -2.4499   20.4393 H   0  0  0  0  0  0  0  0  0  0  0  0
    7.3951   -2.5525   21.9626 H   0  0  0  0  0  0  0  0  0  0  0  0
    6.5360    0.1980   20.0360 C   0  0  0  0  0  0  0  0  0  0  0  0
    5.2980    0.8576   20.1130 C   0  0  0  0  0  0  0  0  0  0  0  0
    4.7619    1.4248   18.9523 C   0  0  0  0  0  0  0  0  0  0  0  0
    5.4751    1.3200   17.7551 C   0  0  0  0  0  0  0  0  0  0  0  0
    6.6602    0.7025   17.6623 N   0  0  0  0  0  0  0  0  0  0  0  0
    7.1680    0.1773   18.7845 C   0  0  0  0  0  0  0  0  0  0  0  0
    8.1339   -0.3135   18.6535 H   0  0  0  0  0  0  0  0  0  0  0  0
    5.0845    1.7520   16.8332 H   0  0  0  0  0  0  0  0  0  0  0  0
    3.8094    1.9430   18.9582 H   0  0  0  0  0  0  0  0  0  0  0  0
    4.7526    0.9366   21.0580 H   0  0  0  0  0  0  0  0  0  0  0  0
    6.5813   -0.3216   22.1071 H   0  0  0  0  0  0  0  0  0  0  0  0
    8.9935    0.3755   20.5882 H   0  0  0  0  0  0  0  0  0  0  0  0
    8.8849   -0.6896   23.7190 C   0  0  0  0  0  0  0  0  0  0  0  0
    9.7268   -0.7662   24.8327 C   0  0  0  0  0  0  0  0  0  0  0  0
   11.0650   -0.3693   24.7380 C   0  0  0  0  0  0  0  0  0  0  0  0
   11.7256   -0.4300   25.6040 H   0  0  0  0  0  0  0  0  0  0  0  0
    9.3214   -1.0982   25.7858 H   0  0  0  0  0  0  0  0  0  0  0  0
    7.8616   -1.0466   23.7765 H   0  0  0  0  0  0  0  0  0  0  0  0
   13.5343    0.6101   24.3678 H   0  0  0  0  0  0  0  0  0  0  0  0
   13.6349   -0.3134   22.8650 H   0  0  0  0  0  0  0  0  0  0  0  0
   13.2000    1.3932   22.8325 H   0  0  0  0  0  0  0  0  0  0  0  0
  1  2  1  0
  2  3  2  0
  3  4  1  0
  3  5  1  0
  5  6  1  0
  6  7  1  0
  7  8  1  0
  8  9  1  0
  8 10  1  0
  8 11  1  0
  7 12  1  0
 12 13  2  0
 13 14  1  0
 14 15  2  0
 15 16  1  0
 16 17  2  0
 17 18  1  0
 15 19  1  0
 14 20  1  0
 13 21  1  0
  7 22  1  0
  6 23  1  0
  5 24  2  0
 24 25  1  0
 25 26  2  0
 26 27  1  0
 25 28  1  0
 24 29  1  0
  1 30  1  0
  1 31  1  0
  1 32  1  0
 26  2  1  0
 17 12  1  0
M  END
>  <cnnaffinity>  (1) 
4.96153

>  <plip>  (1) 
-0.06896551724137931

>  <filename>  (1) 
[H][c]1[n][c]([H])[c]([C]([H])([N]([H])[c]2[c]([H])[c]([H])[c]([H])[c]([C]([H])([H])[H])[c]2[F])[C]([H])([H])[H])[c]([H])[c]1[H]

>  <combo1>  (1) 
-0.4952891661652909

$$$$
