
     RDKit          3D

 21 22  0  0  0  0  0  0  0  0999 V2000
    4.9387    1.7954   17.0156 H   0  0  0  0  0  0  0  0  0  0  0  0
    5.4184    1.2784   17.8453 C   0  0  0  0  0  0  0  0  0  0  0  0
    6.5787    0.6645   17.5596 N   0  0  0  0  0  0  0  0  0  0  0  0
    7.2078    0.0385   18.5586 C   0  0  0  0  0  0  0  0  0  0  0  0
    8.1583   -0.4457   18.3544 H   0  0  0  0  0  0  0  0  0  0  0  0
    6.7107   -0.0209   19.8706 C   0  0  0  0  0  0  0  0  0  0  0  0
    7.3333   -0.6787   20.9701 N   0  0  0  0  0  0  0  0  0  0  0  0
    8.4291   -1.2531   20.7631 N   0  0  0  0  0  0  0  0  0  0  0  0
    8.9594   -1.8626   21.9154 C   0  0  0  0  0  0  0  0  0  0  0  0
    8.5333   -1.9967   23.2201 C   0  0  0  0  0  0  0  0  0  0  0  0
    7.6023   -1.5494   23.5415 H   0  0  0  0  0  0  0  0  0  0  0  0
    9.5296   -2.7412   23.8975 C   0  0  0  0  0  0  0  0  0  0  0  0
    9.5374   -3.0498   24.9392 H   0  0  0  0  0  0  0  0  0  0  0  0
   10.5271   -3.0218   22.9796 C   0  0  0  0  0  0  0  0  0  0  0  0
   11.4503   -3.5746   23.0927 H   0  0  0  0  0  0  0  0  0  0  0  0
   10.1705   -2.4802   21.7822 N   0  0  0  0  0  0  0  0  0  0  0  0
   10.6553   -2.5326   20.8957 H   0  0  0  0  0  0  0  0  0  0  0  0
    5.4956    0.6185   20.1576 C   0  0  0  0  0  0  0  0  0  0  0  0
    5.1120    0.5791   21.1805 H   0  0  0  0  0  0  0  0  0  0  0  0
    4.8399    1.2813   19.1222 C   0  0  0  0  0  0  0  0  0  0  0  0
    3.9048    1.8093   19.2823 H   0  0  0  0  0  0  0  0  0  0  0  0
  1  2  1  0
  2  3  2  0
  3  4  1  0
  4  5  1  0
  4  6  2  0
  6  7  1  0
  7  8  2  3
  8  9  1  0
  9 10  2  0
 10 11  1  0
 10 12  1  0
 12 13  1  0
 12 14  2  0
 14 15  1  0
 14 16  1  0
 16 17  1  0
  6 18  1  0
 18 19  1  0
 18 20  2  0
 20 21  1  0
 20  2  1  0
 16  9  1  0
M  END
>  <cnnaffinity>  (1) 
4.19393

>  <plip>  (1) 
-0.06666666666666667

>  <filename>  (1) 
[H][c]1[n][c]([H])[c]([N]=[N][c]2[c]([H])[c]([H])[c]([H])[n]2[H])[c]([H])[c]1[H]

>  <combo1>  (1) 
-0.541250381520779

$$$$
