
     RDKit          3D

 34 36  0  0  0  0  0  0  0  0999 V2000
    5.0289    1.7747   16.9148 H   0  0  0  0  0  0  0  0  0  0  0  0
    5.4391    1.2844   17.7938 C   0  0  0  0  0  0  0  0  0  0  0  0
    6.5908    0.6188   17.6058 N   0  0  0  0  0  0  0  0  0  0  0  0
    7.1352    0.0052   18.6634 C   0  0  0  0  0  0  0  0  0  0  0  0
    8.0674   -0.5337   18.5078 H   0  0  0  0  0  0  0  0  0  0  0  0
    6.5730    0.0173   19.9638 C   0  0  0  0  0  0  0  0  0  0  0  0
    7.1341   -0.5876   21.1334 N   0  0  0  0  0  0  0  0  0  0  0  0
    8.3154   -0.9874   20.9558 N   0  0  0  0  0  0  0  0  0  0  0  0
    8.9436   -1.4556   22.0126 N   0  0  0  0  0  0  0  0  0  0  0  0
   10.2245   -2.1120   21.7909 C   0  0  0  0  0  0  0  0  0  0  0  0
   10.1625   -2.7039   20.8708 H   0  0  0  0  0  0  0  0  0  0  0  0
   11.0121   -1.3644   21.6342 H   0  0  0  0  0  0  0  0  0  0  0  0
   10.3990   -2.9728   23.0544 C   0  0  0  0  0  0  0  0  0  0  0  0
    9.9666   -3.9537   22.8568 H   0  0  0  0  0  0  0  0  0  0  0  0
   11.4256   -3.1501   23.3777 H   0  0  0  0  0  0  0  0  0  0  0  0
    9.5246   -2.3163   24.1394 C   0  0  2  0  0  0  0  0  0  0  0  0
   10.0789   -1.5725   24.7156 H   0  0  0  0  0  0  0  0  0  0  0  0
    8.8277   -3.3503   25.0281 C   0  0  0  0  0  0  0  0  0  0  0  0
    8.5049   -2.9053   25.9910 H   0  0  0  0  0  0  0  0  0  0  0  0
    9.4974   -4.1911   25.2626 H   0  0  0  0  0  0  0  0  0  0  0  0
    7.7187   -3.8138   24.1919 N   0  0  0  0  0  0  0  0  0  0  0  0
    6.7245   -4.6143   24.8669 C   0  0  0  0  0  0  0  0  0  0  0  0
    5.9667   -4.9505   24.1534 H   0  0  0  0  0  0  0  0  0  0  0  0
    7.1922   -5.5130   25.2813 H   0  0  0  0  0  0  0  0  0  0  0  0
    6.2140   -4.0844   25.6932 H   0  0  0  0  0  0  0  0  0  0  0  0
    7.2132   -2.6764   23.4111 C   0  0  0  0  0  0  0  0  0  0  0  0
    6.9304   -2.9594   22.3884 H   0  0  0  0  0  0  0  0  0  0  0  0
    6.3225   -2.2020   23.8553 H   0  0  0  0  0  0  0  0  0  0  0  0
    8.3739   -1.6542   23.3586 C   0  0  2  0  0  0  0  0  0  0  0  0
    8.0672   -0.6826   23.7634 H   0  0  0  0  0  0  0  0  0  0  0  0
    5.3523    0.6863   20.1266 C   0  0  0  0  0  0  0  0  0  0  0  0
    4.8745    0.6974   21.1070 H   0  0  0  0  0  0  0  0  0  0  0  0
    4.7793    1.3373   19.0294 C   0  0  0  0  0  0  0  0  0  0  0  0
    3.8459    1.8850   19.1056 H   0  0  0  0  0  0  0  0  0  0  0  0
  1  2  1  0
  2  3  2  0
  3  4  1  0
  4  5  1  0
  4  6  2  0
  6  7  1  0
  7  8  2  3
  8  9  1  0
  9 10  1  0
 10 11  1  0
 10 12  1  0
 10 13  1  0
 13 14  1  0
 13 15  1  0
 13 16  1  0
 16 17  1  1
 16 18  1  0
 18 19  1  0
 18 20  1  0
 18 21  1  0
 21 22  1  0
 22 23  1  0
 22 24  1  0
 22 25  1  0
 21 26  1  0
 26 27  1  0
 26 28  1  0
 26 29  1  0
 29 30  1  1
  6 31  1  0
 31 32  1  0
 31 33  2  0
 33 34  1  0
 33  2  1  0
 29  9  1  0
 29 16  1  0
M  END
>  <cnnaffinity>  (1) 
4.87912

>  <plip>  (1) 
-0.07142857142857142

>  <filename>  (1) 
[H][c]1[n][c]([H])[c]([N]=[N][N]2[C]([H])([H])[C]([H])([H])[C@]3([H])[C]([H])([H])[N]([C]([H])([H])[H])[C]([H])([H])[C@]23[H])[c]([H])[c]1[H]

>  <combo1>  (1) 
-0.5022395896703621

$$$$
