
     RDKit          3D

 34 37  0  0  0  0  0  0  0  0999 V2000
   10.0253   -2.5055   22.2824 C   0  0  0  0  0  0  0  0  0  0  0  0
    8.8463   -1.7194   22.0055 N   0  0  0  0  0  0  0  0  0  0  0  0
    8.5659   -1.2755   20.7659 N   0  0  0  0  0  0  0  0  0  0  0  0
    7.4038   -0.6622   20.9466 C   0  0  0  0  0  0  0  0  0  0  0  0
    6.6606    0.0067   19.8917 C   0  0  0  0  0  0  0  0  0  0  0  0
    5.4391    0.6497   20.1534 C   0  0  0  0  0  0  0  0  0  0  0  0
    4.8093    1.3010   19.0993 C   0  0  0  0  0  0  0  0  0  0  0  0
    5.4157    1.2809   17.8369 C   0  0  0  0  0  0  0  0  0  0  0  0
    6.5759    0.6583   17.5771 N   0  0  0  0  0  0  0  0  0  0  0  0
    7.1836    0.0420   18.5924 C   0  0  0  0  0  0  0  0  0  0  0  0
    8.1368   -0.4378   18.3679 H   0  0  0  0  0  0  0  0  0  0  0  0
    4.9552    1.7903   16.9954 H   0  0  0  0  0  0  0  0  0  0  0  0
    3.8757    1.8374   19.2409 H   0  0  0  0  0  0  0  0  0  0  0  0
    5.0128    0.6424   21.1608 H   0  0  0  0  0  0  0  0  0  0  0  0
    6.9353   -0.6950   22.2188 N   0  0  0  0  0  0  0  0  0  0  0  0
    7.8414   -1.4095   22.8466 C   0  0  0  0  0  0  0  0  0  0  0  0
    7.8296   -1.8209   24.2575 C   0  0  0  0  0  0  0  0  0  0  0  0
    7.8787   -0.8529   25.2401 C   0  0  0  0  0  0  0  0  0  0  0  0
    7.9296   -1.1402   26.5688 N   0  0  0  0  0  0  0  0  0  0  0  0
    7.9067   -2.3770   26.9940 N   0  0  0  0  0  0  0  0  0  0  0  0
    7.8255   -3.4086   26.0950 C   0  0  0  0  0  0  0  0  0  0  0  0
    7.7658   -4.7312   26.6227 C   0  0  0  0  0  0  0  0  0  0  0  0
    7.6577   -5.7994   25.7696 C   0  0  0  0  0  0  0  0  0  0  0  0
    7.5998   -5.5922   24.3601 C   0  0  0  0  0  0  0  0  0  0  0  0
    7.6476   -4.3189   23.8291 C   0  0  0  0  0  0  0  0  0  0  0  0
    7.7808   -3.1842   24.6833 C   0  0  0  0  0  0  0  0  0  0  0  0
    7.5731   -4.1641   22.7583 H   0  0  0  0  0  0  0  0  0  0  0  0
    7.5159   -6.4380   23.6892 H   0  0  0  0  0  0  0  0  0  0  0  0
    7.6089   -6.8067   26.1705 H   0  0  0  0  0  0  0  0  0  0  0  0
    7.8017   -4.8190   27.7050 H   0  0  0  0  0  0  0  0  0  0  0  0
    7.9105    0.2024   24.9892 H   0  0  0  0  0  0  0  0  0  0  0  0
   10.3739   -2.2871   23.2958 H   0  0  0  0  0  0  0  0  0  0  0  0
   10.7856   -2.2276   21.5553 H   0  0  0  0  0  0  0  0  0  0  0  0
    9.7827   -3.5674   22.2134 H   0  0  0  0  0  0  0  0  0  0  0  0
  1  2  1  0
  2  3  1  0
  3  4  2  0
  4  5  1  0
  5  6  2  0
  6  7  1  0
  7  8  2  0
  8  9  1  0
  9 10  2  0
 10 11  1  0
  8 12  1  0
  7 13  1  0
  6 14  1  0
  4 15  1  0
 15 16  2  0
 16 17  1  0
 17 18  2  0
 18 19  1  0
 19 20  2  0
 20 21  1  0
 21 22  2  0
 22 23  1  0
 23 24  2  0
 24 25  1  0
 25 26  2  0
 25 27  1  0
 24 28  1  0
 23 29  1  0
 22 30  1  0
 18 31  1  0
  1 32  1  0
  1 33  1  0
  1 34  1  0
 16  2  1  0
 26 17  1  0
 10  5  1  0
 26 21  1  0
M  END
>  <cnnaffinity>  (1) 
5.45115

>  <plip>  (1) 
-0.03571428571428571

>  <filename>  (1) 
[H][c]1[n][c]([H])[c](-[c]2[n][c](-[c]3[c]([H])[n][n][c]4[c]([H])[c]([H])[c]([H])[c]([H])[c]34)[n]([C]([H])([H])[H])[n]2)[c]([H])[c]1[H]

>  <combo1>  (1) 
-0.22508321780122673

$$$$
