
     RDKit          3D

 39 42  0  0  0  0  0  0  0  0999 V2000
    4.9649    1.8539   16.9142 H   0  0  0  0  0  0  0  0  0  0  0  0
    5.4097    1.3137   17.7464 C   0  0  0  0  0  0  0  0  0  0  0  0
    6.5507    0.6565   17.4876 N   0  0  0  0  0  0  0  0  0  0  0  0
    7.1337    0.0112   18.5005 C   0  0  0  0  0  0  0  0  0  0  0  0
    8.0506   -0.5245   18.2641 H   0  0  0  0  0  0  0  0  0  0  0  0
    6.6331   -0.0025   19.8171 C   0  0  0  0  0  0  0  0  0  0  0  0
    7.3908   -0.6496   20.8991 C   0  0  0  0  0  0  0  0  0  0  0  0
    8.2411   -1.6658   20.7125 N   0  0  0  0  0  0  0  0  0  0  0  0
    8.7173   -1.8925   21.9379 N   0  0  0  0  0  0  0  0  0  0  0  0
    8.2571   -1.0941   22.9044 C   0  0  0  0  0  0  0  0  0  0  0  0
    7.3518   -0.2548   22.2854 C   0  0  0  0  0  0  0  0  0  0  0  0
    6.6724    0.8521   22.8097 N   0  0  0  0  0  0  0  0  0  0  0  0
    6.3048    0.8034   24.2328 C   0  0  0  0  0  0  0  0  0  0  0  0
    5.7879   -0.1345   24.4525 H   0  0  0  0  0  0  0  0  0  0  0  0
    7.1945    0.8629   24.8869 H   0  0  0  0  0  0  0  0  0  0  0  0
    5.3479    1.9753   24.5359 C   0  0  0  0  0  0  0  0  0  0  0  0
    4.4355    1.8165   23.9438 H   0  0  0  0  0  0  0  0  0  0  0  0
    5.0561    1.9664   25.5923 H   0  0  0  0  0  0  0  0  0  0  0  0
    5.8689    3.3087   24.1875 N   0  0  0  0  0  0  0  0  0  0  0  0
    6.6020    3.5833   24.8412 H   0  0  0  0  0  0  0  0  0  0  0  0
    6.4003    3.2928   22.8118 C   0  0  0  0  0  0  0  0  0  0  0  0
    5.5471    3.2007   22.1210 H   0  0  0  0  0  0  0  0  0  0  0  0
    6.8998    4.2449   22.5981 H   0  0  0  0  0  0  0  0  0  0  0  0
    7.3481    2.1276   22.4999 C   0  0  0  0  0  0  0  0  0  0  0  0
    7.6166    2.1372   21.4397 H   0  0  0  0  0  0  0  0  0  0  0  0
    8.2917    2.2058   23.0738 H   0  0  0  0  0  0  0  0  0  0  0  0
    8.9746   -1.3495   24.1974 C   0  0  0  0  0  0  0  0  0  0  0  0
    9.4704   -0.4444   24.5696 H   0  0  0  0  0  0  0  0  0  0  0  0
    8.2790   -1.6995   24.9696 H   0  0  0  0  0  0  0  0  0  0  0  0
   10.0254   -2.4221   23.7999 C   0  0  0  0  0  0  0  0  0  0  0  0
   10.0692   -3.2376   24.5228 H   0  0  0  0  0  0  0  0  0  0  0  0
   11.0079   -1.9652   23.7470 H   0  0  0  0  0  0  0  0  0  0  0  0
    9.6718   -2.8847   22.3614 C   0  0  0  0  0  0  0  0  0  0  0  0
   10.5396   -2.8431   21.7022 H   0  0  0  0  0  0  0  0  0  0  0  0
    9.2145   -3.8794   22.3187 H   0  0  0  0  0  0  0  0  0  0  0  0
    5.4173    0.6657   20.0600 C   0  0  0  0  0  0  0  0  0  0  0  0
    4.9615    0.6620   21.0522 H   0  0  0  0  0  0  0  0  0  0  0  0
    4.7970    1.3246   19.0053 C   0  0  0  0  0  0  0  0  0  0  0  0
    3.8644    1.8632   19.1426 H   0  0  0  0  0  0  0  0  0  0  0  0
  1  2  1  0
  2  3  2  0
  3  4  1  0
  4  5  1  0
  4  6  2  0
  6  7  1  0
  7  8  2  0
  8  9  1  0
  9 10  1  0
 10 11  2  0
 11 12  1  0
 12 13  1  0
 13 14  1  0
 13 15  1  0
 13 16  1  0
 16 17  1  0
 16 18  1  0
 16 19  1  0
 19 20  1  0
 19 21  1  0
 21 22  1  0
 21 23  1  0
 21 24  1  0
 24 25  1  0
 24 26  1  0
 10 27  1  0
 27 28  1  0
 27 29  1  0
 27 30  1  0
 30 31  1  0
 30 32  1  0
 30 33  1  0
 33 34  1  0
 33 35  1  0
  6 36  1  0
 36 37  1  0
 36 38  2  0
 38 39  1  0
 38  2  1  0
 11  7  1  0
 24 12  1  0
 33  9  1  0
M  END
>  <cnnaffinity>  (1) 
5.30472

>  <plip>  (1) 
-0.06896551724137931

>  <filename>  (1) 
[H][c]1[n][c]([H])[c](-[c]2[n][n]3[c]([c]2[N]2[C]([H])([H])[C]([H])([H])[N]([H])[C]([H])([H])[C]2([H])[H])[C]([H])([H])[C]([H])([H])[C]3([H])[H])[c]([H])[c]1[H]

>  <combo1>  (1) 
-0.45274431304351376

$$$$
