
     RDKit          3D

 33 35  0  0  0  0  0  0  0  0999 V2000
    8.7327   -0.5869   21.0933 C   0  0  0  0  0  0  0  0  0  0  0  0
    7.4019   -0.6535   20.9613 C   0  0  0  0  0  0  0  0  0  0  0  0
    6.6560    0.0457   19.8688 C   0  0  0  0  0  0  0  0  0  0  0  0
    5.4194    0.6824   20.0912 C   0  0  0  0  0  0  0  0  0  0  0  0
    4.7801    1.3429   19.0388 C   0  0  0  0  0  0  0  0  0  0  0  0
    5.3870    1.3271   17.7791 C   0  0  0  0  0  0  0  0  0  0  0  0
    6.5451    0.6971   17.5222 N   0  0  0  0  0  0  0  0  0  0  0  0
    7.1576    0.0935   18.5485 C   0  0  0  0  0  0  0  0  0  0  0  0
    8.0961   -0.4050   18.3080 H   0  0  0  0  0  0  0  0  0  0  0  0
    4.9239    1.8448   16.9422 H   0  0  0  0  0  0  0  0  0  0  0  0
    3.8387    1.8711   19.1806 H   0  0  0  0  0  0  0  0  0  0  0  0
    4.9708    0.6866   21.0859 H   0  0  0  0  0  0  0  0  0  0  0  0
    6.5442   -1.4466   21.9406 C   0  0  0  0  0  0  0  0  0  0  0  0
    7.3334   -2.5292   22.6603 N   0  0  0  0  0  4  0  0  0  0  0  0
    6.5258   -3.3020   23.6933 C   0  0  0  0  0  0  0  0  0  0  0  0
    7.2723   -4.5473   24.0897 C   0  0  0  0  0  0  0  0  0  0  0  0
    7.7681   -5.4169   23.2763 N   0  0  0  0  0  0  0  0  0  0  0  0
    8.5358   -6.2780   24.0513 N   0  0  0  0  0  0  0  0  0  0  0  0
    8.4215   -5.8686   25.2638 C   0  0  0  0  0  0  0  0  0  0  0  0
    7.6253   -4.7711   25.3775 O   0  0  0  0  0  0  0  0  0  0  0  0
    8.9470   -6.2298   26.1393 H   0  0  0  0  0  0  0  0  0  0  0  0
    5.5488   -3.5918   23.2897 H   0  0  0  0  0  0  0  0  0  0  0  0
    6.3278   -2.6892   24.5772 H   0  0  0  0  0  0  0  0  0  0  0  0
    8.6225   -1.9015   23.2522 C   0  0  0  0  0  0  0  0  0  0  0  0
    9.5138   -1.3679   22.1307 C   0  0  0  0  0  0  0  0  0  0  0  0
   10.0788   -2.1774   21.6500 H   0  0  0  0  0  0  0  0  0  0  0  0
   10.2788   -0.7205   22.5722 H   0  0  0  0  0  0  0  0  0  0  0  0
    8.3101   -1.0819   23.9077 H   0  0  0  0  0  0  0  0  0  0  0  0
    9.1332   -2.6522   23.8587 H   0  0  0  0  0  0  0  0  0  0  0  0
    7.6574   -3.2230   21.9338 H   0  0  0  0  0  0  0  0  0  0  0  0
    5.7072   -1.8827   21.3886 H   0  0  0  0  0  0  0  0  0  0  0  0
    6.1291   -0.7640   22.6958 H   0  0  0  0  0  0  0  0  0  0  0  0
    9.2986    0.0847   20.4435 H   0  0  0  0  0  0  0  0  0  0  0  0
  1  2  2  0
  2  3  1  0
  3  4  2  0
  4  5  1  0
  5  6  2  0
  6  7  1  0
  7  8  2  0
  8  9  1  0
  6 10  1  0
  5 11  1  0
  4 12  1  0
  2 13  1  0
 13 14  1  0
 14 15  1  0
 15 16  1  0
 16 17  2  0
 17 18  1  0
 18 19  2  0
 19 20  1  0
 19 21  1  0
 15 22  1  0
 15 23  1  0
 14 24  1  0
 24 25  1  0
 25 26  1  0
 25 27  1  0
 24 28  1  0
 24 29  1  0
 14 30  1  0
 13 31  1  0
 13 32  1  0
  1 33  1  0
 25  1  1  0
  8  3  1  0
 20 16  1  0
M  CHG  1  14   1
M  END
>  <cnnaffinity>  (1) 
4.86123

>  <plip>  (1) 
-0.034482758620689655

>  <filename>  (1) 
[H][C]1=[C]([c]2[c]([H])[n][c]([H])[c]([H])[c]2[H])[C]([H])([H])[N+]([H])([C]([H])([H])[c]2[n][n][c]([H])[o]2)[C]([H])([H])[C]1([H])[H]

>  <combo1>  (1) 
-0.2296691475052477

$$$$
