
     RDKit          3D

 25 26  0  0  0  0  0  0  0  0999 V2000
    5.0057    1.7660   16.9981 H   0  0  0  0  0  0  0  0  0  0  0  0
    5.4457    1.2555   17.8549 C   0  0  0  0  0  0  0  0  0  0  0  0
    6.6022    0.6121   17.6232 N   0  0  0  0  0  0  0  0  0  0  0  0
    7.1848    0.0063   18.6589 C   0  0  0  0  0  0  0  0  0  0  0  0
    8.1101   -0.5230   18.4401 H   0  0  0  0  0  0  0  0  0  0  0  0
    6.6809    0.0121   19.9797 C   0  0  0  0  0  0  0  0  0  0  0  0
    7.4169   -0.6764   21.0707 C   0  0  0  0  0  0  0  0  0  0  0  0
    8.3964   -1.9476   20.7925 S   0  0  0  0  0  0  0  0  0  0  0  0
    7.2658   -0.1731   22.4968 C   0  0  0  0  0  0  0  0  0  0  0  0
    7.9014   -0.7865   23.1405 H   0  0  0  0  0  0  0  0  0  0  0  0
    6.2305   -0.2677   22.8385 H   0  0  0  0  0  0  0  0  0  0  0  0
    7.6829    1.2564   22.5997 C   0  0  0  0  0  0  0  0  0  0  0  0
    6.8903    2.2465   22.6722 N   0  0  0  0  0  0  0  0  0  0  0  0
    7.7166    3.4595   22.6660 C   0  0  0  0  0  0  0  0  0  0  0  0
    7.7116    3.9133   23.6702 H   0  0  0  0  0  0  0  0  0  0  0  0
    7.3242    4.1940   21.9524 H   0  0  0  0  0  0  0  0  0  0  0  0
    9.1241    2.9783   22.2635 C   0  0  0  0  0  0  0  0  0  0  0  0
    9.9086    3.4896   22.8203 H   0  0  0  0  0  0  0  0  0  0  0  0
    9.3281    3.1052   21.1905 H   0  0  0  0  0  0  0  0  0  0  0  0
    9.0502    1.5448   22.5826 N   0  0  0  0  0  0  0  0  0  0  0  0
    9.5393    0.9487   21.9350 H   0  0  0  0  0  0  0  0  0  0  0  0
    5.4497    0.6601   20.1879 C   0  0  0  0  0  0  0  0  0  0  0  0
    4.9992    0.6982   21.1821 H   0  0  0  0  0  0  0  0  0  0  0  0
    4.8292    1.2903   19.1082 C   0  0  0  0  0  0  0  0  0  0  0  0
    3.8937    1.8266   19.2277 H   0  0  0  0  0  0  0  0  0  0  0  0
  1  2  1  0
  2  3  2  0
  3  4  1  0
  4  5  1  0
  4  6  2  0
  6  7  1  0
  7  8  2  0
  7  9  1  0
  9 10  1  0
  9 11  1  0
  9 12  1  0
 12 13  2  0
 13 14  1  0
 14 15  1  0
 14 16  1  0
 14 17  1  0
 17 18  1  0
 17 19  1  0
 17 20  1  0
 20 21  1  0
  6 22  1  0
 22 23  1  0
 22 24  2  0
 24 25  1  0
 24  2  1  0
 20 12  1  0
M  END
>  <cnnaffinity>  (1) 
4.10631

>  <plip>  (1) 
-0.03571428571428571

>  <filename>  (1) 
[H][c]1[n][c]([H])[c]([C](=[S])[C]([H])([H])[C]2=[N][C]([H])([H])[C]([H])([H])[N]2[H])[c]([H])[c]1[H]

>  <combo1>  (1) 
-0.23812945284696882

$$$$
