
     RDKit          3D

 33 35  0  0  0  0  0  0  0  0999 V2000
    5.0240    1.5961   16.7963 H   0  0  0  0  0  0  0  0  0  0  0  0
    5.4374    1.2702   17.7491 C   0  0  0  0  0  0  0  0  0  0  0  0
    6.5915    0.5808   17.6846 N   0  0  0  0  0  0  0  0  0  0  0  0
    7.1248    0.1548   18.8335 C   0  0  0  0  0  0  0  0  0  0  0  0
    8.0742   -0.3777   18.7810 H   0  0  0  0  0  0  0  0  0  0  0  0
    6.5394    0.4001   20.0890 C   0  0  0  0  0  0  0  0  0  0  0  0
    7.1164   -0.1748   21.2594 N   0  0  0  0  0  0  0  0  0  0  0  0
    7.5178   -1.4948   21.0835 N   0  0  0  0  0  0  0  0  0  0  0  0
    7.8096   -2.2168   22.1093 C   0  0  0  0  0  0  0  0  0  0  0  0
    8.0325   -3.6839   21.7588 C   0  0  1  0  0  0  0  0  0  0  0  0
    8.8063   -3.6782   20.9722 H   0  0  0  0  0  0  0  0  0  0  0  0
    8.4600   -4.5088   22.8462 O   0  0  0  0  0  0  0  0  0  0  0  0
    7.9459   -5.8387   22.6899 C   0  0  0  0  0  0  0  0  0  0  0  0
    7.2853   -6.0662   23.5375 H   0  0  0  0  0  0  0  0  0  0  0  0
    8.7654   -6.5733   22.6929 H   0  0  0  0  0  0  0  0  0  0  0  0
    7.1853   -5.8461   21.3570 C   0  0  0  0  0  0  0  0  0  0  0  0
    7.8691   -6.0877   20.5405 H   0  0  0  0  0  0  0  0  0  0  0  0
    6.3662   -6.5683   21.3252 H   0  0  0  0  0  0  0  0  0  0  0  0
    6.7663   -4.3844   21.2188 C   0  0  0  0  0  0  0  0  0  0  0  0
    6.5413   -4.0616   20.1951 H   0  0  0  0  0  0  0  0  0  0  0  0
    5.9022   -4.1518   21.8522 H   0  0  0  0  0  0  0  0  0  0  0  0
    7.8638   -1.6639   23.5186 C   0  0  0  0  0  0  0  0  0  0  0  0
    8.6456   -2.1797   24.0845 H   0  0  0  0  0  0  0  0  0  0  0  0
    6.9130   -1.8936   24.0246 H   0  0  0  0  0  0  0  0  0  0  0  0
    8.1284   -0.1487   23.4860 C   0  0  0  0  0  0  0  0  0  0  0  0
    9.1835    0.0561   23.2602 H   0  0  0  0  0  0  0  0  0  0  0  0
    7.9080    0.3466   24.4334 H   0  0  0  0  0  0  0  0  0  0  0  0
    7.3512    0.5917   22.4140 C   0  0  0  0  0  0  0  0  0  0  0  0
    7.0258    1.7587   22.5175 O   0  0  0  0  0  0  0  0  0  0  0  0
    5.3714    1.1655   20.1574 C   0  0  0  0  0  0  0  0  0  0  0  0
    4.9418    1.4307   21.1188 H   0  0  0  0  0  0  0  0  0  0  0  0
    4.8020    1.5862   18.9507 C   0  0  0  0  0  0  0  0  0  0  0  0
    3.8901    2.1721   18.9374 H   0  0  0  0  0  0  0  0  0  0  0  0
  1  2  1  0
  2  3  2  0
  3  4  1  0
  4  5  1  0
  4  6  2  0
  6  7  1  0
  7  8  1  0
  8  9  2  0
  9 10  1  0
 10 11  1  6
 10 12  1  0
 12 13  1  0
 13 14  1  0
 13 15  1  0
 13 16  1  0
 16 17  1  0
 16 18  1  0
 16 19  1  0
 19 20  1  0
 19 21  1  0
  9 22  1  0
 22 23  1  0
 22 24  1  0
 22 25  1  0
 25 26  1  0
 25 27  1  0
 25 28  1  0
 28 29  2  0
  6 30  1  0
 30 31  1  0
 30 32  2  0
 32 33  1  0
 32  2  1  0
 28  7  1  0
 19 10  1  0
M  END
>  <cnnaffinity>  (1) 
4.95155

>  <plip>  (1) 
-0.03333333333333333

>  <filename>  (1) 
[H][c]1[n][c]([H])[c]([N]2[N]=[C]([C@@]3([H])[O][C]([H])([H])[C]([H])([H])[C]3([H])[H])[C]([H])([H])[C]([H])([H])[C]2=[O])[c]([H])[c]1[H]

>  <combo1>  (1) 
-0.22430191462162824

$$$$
