
     RDKit          3D

 39 40  0  0  0  0  0  0  0  0999 V2000
    8.3784    6.0001   27.4642 F   0  0  0  0  0  0  0  0  0  0  0  0
    7.3301    5.5119   26.7349 C   0  0  0  0  0  0  0  0  0  0  0  0
    6.9134    4.3637   27.3291 F   0  0  0  0  0  0  0  0  0  0  0  0
    7.7184    5.3027   25.2586 C   0  0  0  0  0  0  0  0  0  0  0  0
    7.5151    6.3273   24.3374 C   0  0  0  0  0  0  0  0  0  0  0  0
    7.9377    6.0738   23.0308 C   0  0  0  0  0  0  0  0  0  0  0  0
    8.4876    4.9357   22.6460 N   0  0  0  0  0  0  0  0  0  0  0  0
    8.5221    3.9926   23.5887 C   0  0  0  0  0  0  0  0  0  0  0  0
    8.9282    2.7778   23.1092 N   0  0  0  0  0  0  0  0  0  0  0  0
    9.4722    1.8249   24.0692 C   0  0  0  0  0  0  0  0  0  0  0  0
   10.0785    0.6166   23.3741 C   0  0  0  0  0  0  0  0  0  0  0  0
    9.0638   -0.3582   22.7988 C   0  0  0  0  0  0  0  0  0  0  0  0
    8.3146    0.2401   21.6823 N   0  0  0  0  0  4  0  0  0  0  0  0
    7.3747   -0.6866   21.0112 C   0  0  0  0  0  0  0  0  0  0  0  0
    6.6588    0.0531   19.9232 C   0  0  0  0  0  0  0  0  0  0  0  0
    5.4295    0.6822   20.1460 C   0  0  0  0  0  0  0  0  0  0  0  0
    4.8039    1.3325   19.0823 C   0  0  0  0  0  0  0  0  0  0  0  0
    5.4229    1.3247   17.8294 C   0  0  0  0  0  0  0  0  0  0  0  0
    6.5943    0.7145   17.5944 N   0  0  0  0  0  0  0  0  0  0  0  0
    7.1874    0.1019   18.6264 C   0  0  0  0  0  0  0  0  0  0  0  0
    8.1276   -0.4013   18.3936 H   0  0  0  0  0  0  0  0  0  0  0  0
    4.9544    1.8172   16.9772 H   0  0  0  0  0  0  0  0  0  0  0  0
    3.8628    1.8525   19.2113 H   0  0  0  0  0  0  0  0  0  0  0  0
    4.9751    0.6706   21.1410 H   0  0  0  0  0  0  0  0  0  0  0  0
    6.6567   -1.0944   21.7342 H   0  0  0  0  0  0  0  0  0  0  0  0
    7.9285   -1.5390   20.5938 H   0  0  0  0  0  0  0  0  0  0  0  0
    8.9788    0.5915   20.9535 H   0  0  0  0  0  0  0  0  0  0  0  0
    7.8088    1.1089   22.0174 H   0  0  0  0  0  0  0  0  0  0  0  0
    9.5786   -1.2754   22.4750 H   0  0  0  0  0  0  0  0  0  0  0  0
    8.3704   -0.6677   23.5982 H   0  0  0  0  0  0  0  0  0  0  0  0
   10.6805    0.0751   24.1118 H   0  0  0  0  0  0  0  0  0  0  0  0
   10.7761    0.9410   22.5914 H   0  0  0  0  0  0  0  0  0  0  0  0
   10.2141    2.3039   24.7295 H   0  0  0  0  0  0  0  0  0  0  0  0
    8.6305    1.5158   24.7063 H   0  0  0  0  0  0  0  0  0  0  0  0
    9.5531    3.0952   22.3748 H   0  0  0  0  0  0  0  0  0  0  0  0
    8.2372    4.1314   24.8724 N   0  0  0  0  0  0  0  0  0  0  0  0
    7.8167    6.8297   22.2533 H   0  0  0  0  0  0  0  0  0  0  0  0
    7.0413    7.2644   24.5979 H   0  0  0  0  0  0  0  0  0  0  0  0
    6.5215    6.2496   26.7993 H   0  0  0  0  0  0  0  0  0  0  0  0
  1  2  1  0
  2  3  1  0
  2  4  1  0
  4  5  2  0
  5  6  1  0
  6  7  2  0
  7  8  1  0
  8  9  1  0
  9 10  1  0
 10 11  1  0
 11 12  1  0
 12 13  1  0
 13 14  1  0
 14 15  1  0
 15 16  2  0
 16 17  1  0
 17 18  2  0
 18 19  1  0
 19 20  2  0
 20 21  1  0
 18 22  1  0
 17 23  1  0
 16 24  1  0
 14 25  1  0
 14 26  1  0
 13 27  1  0
 13 28  1  0
 12 29  1  0
 12 30  1  0
 11 31  1  0
 11 32  1  0
 10 33  1  0
 10 34  1  0
  9 35  1  0
  8 36  2  0
  6 37  1  0
  5 38  1  0
  2 39  1  0
 36  4  1  0
 20 15  1  0
M  CHG  1  13   1
M  END
>  <cnnaffinity>  (1) 
4.73316

>  <plip>  (1) 
-0.07142857142857142

>  <filename>  (1) 
[H][c]1[n][c]([N]([H])[C]([H])([H])[C]([H])([H])[C]([H])([H])[N+]([H])([H])[C]([H])([H])[c]2[c]([H])[n][c]([H])[c]([H])[c]2[H])[n][c]([C]([H])([F])[F])[c]1[H]

>  <combo1>  (1) 
-0.3828854299586036

$$$$
