
     RDKit          3D

 29 29  0  0  0  0  0  0  0  0999 V2000
   10.0673   -3.9984   24.8477 H   0  0  0  0  0  0  0  0  0  0  0  0
   10.0828   -3.0131   24.9708 O   0  0  0  0  0  0  0  0  0  0  0  0
    9.8830   -2.9144   23.4545 P   0  0  0  0  0  0  0  0  0  0  0  0
   11.0611   -2.9796   22.5866 O   0  0  0  0  0  0  0  0  0  0  0  0
    9.3930   -4.1446   24.1849 O   0  0  0  0  0  0  0  0  0  0  0  0
    9.3326   -3.5957   25.0053 H   0  0  0  0  0  0  0  0  0  0  0  0
    8.7825   -1.7472   22.5989 C   0  0  0  0  0  0  0  0  0  0  0  0
    9.1788   -1.6817   21.5860 H   0  0  0  0  0  0  0  0  0  0  0  0
    7.2007   -1.6355   22.5215 N   0  0  0  0  0  0  0  0  0  0  0  0
    6.5942   -1.8326   23.3295 H   0  0  0  0  0  0  0  0  0  0  0  0
    6.5095   -0.9955   21.4733 C   0  0  0  0  0  0  0  0  0  0  0  0
    5.4633   -0.7501   21.5937 H   0  0  0  0  0  0  0  0  0  0  0  0
    7.1610   -0.6640   20.3881 N   0  0  0  0  0  0  0  0  0  0  0  0
    6.5099    0.0715   19.3923 C   0  0  0  0  0  0  0  0  0  0  0  0
    7.0846    0.1892   18.1034 C   0  0  0  0  0  0  0  0  0  0  0  0
    8.0223   -0.3283   17.9267 H   0  0  0  0  0  0  0  0  0  0  0  0
    6.5462    0.9092   17.0920 N   0  0  0  0  0  0  0  0  0  0  0  0
    5.4008    1.5679   17.3494 C   0  0  0  0  0  0  0  0  0  0  0  0
    4.9577    2.1742   16.5675 H   0  0  0  0  0  0  0  0  0  0  0  0
    4.7609    1.5143   18.5962 C   0  0  0  0  0  0  0  0  0  0  0  0
    3.8494    2.0811   18.7529 H   0  0  0  0  0  0  0  0  0  0  0  0
    5.3115    0.7542   19.6337 C   0  0  0  0  0  0  0  0  0  0  0  0
    4.8464    0.7096   20.6183 H   0  0  0  0  0  0  0  0  0  0  0  0
    9.9570   -0.8172   23.5800 P   0  0  0  0  0  0  0  0  0  0  0  0
    9.5114   -0.8039   24.9799 O   0  0  0  0  0  0  0  0  0  0  0  0
   11.4704   -0.8396   23.3673 O   0  0  0  0  0  0  0  0  0  0  0  0
   11.3347   -0.2374   22.5944 H   0  0  0  0  0  0  0  0  0  0  0  0
   10.6169    0.3315   22.8568 O   0  0  0  0  0  0  0  0  0  0  0  0
   11.4368    0.1094   23.3634 H   0  0  0  0  0  0  0  0  0  0  0  0
  1  2  1  0
  2  3  1  0
  3  4  2  0
  3  5  1  0
  5  6  1  0
  3  7  1  0
  7  8  1  0
  7  9  1  0
  9 10  1  0
  9 11  1  0
 11 12  1  0
 11 13  2  3
 13 14  1  0
 14 15  2  0
 15 16  1  0
 15 17  1  0
 17 18  2  0
 18 19  1  0
 18 20  1  0
 20 21  1  0
 20 22  2  0
 22 23  1  0
  7 24  1  0
 24 25  2  0
 24 26  1  0
 26 27  1  0
 24 28  1  0
 28 29  1  0
 22 14  1  0
M  END
>  <cnnaffinity>  (1) 
4.55252

>  <plip>  (1) 
-0.07142857142857142

>  <filename>  (1) 
[H][O][P](=[O])([O][H])[C]([H])([N]([H])[C]([H])=[N][c]1[c]([H])[n][c]([H])[c]([H])[c]1[H])[P](=[O])([O][H])[O][H]

>  <combo1>  (1) 
-0.36727566795876143

$$$$
