
     RDKit          3D

 38 40  0  0  0  0  0  0  0  0999 V2000
    4.9117    1.8233   16.9565 H   0  0  0  0  0  0  0  0  0  0  0  0
    5.3980    1.3378   17.7992 C   0  0  0  0  0  0  0  0  0  0  0  0
    6.5664    0.7332   17.5327 N   0  0  0  0  0  0  0  0  0  0  0  0
    7.1732    0.1133   18.5521 C   0  0  0  0  0  0  0  0  0  0  0  0
    8.1183   -0.3837   18.3135 H   0  0  0  0  0  0  0  0  0  0  0  0
    6.6681    0.0567   19.8623 C   0  0  0  0  0  0  0  0  0  0  0  0
    7.3587   -0.7544   20.9314 C   0  0  0  0  0  0  0  0  0  0  0  0
    7.1274   -0.3599   21.9331 H   0  0  0  0  0  0  0  0  0  0  0  0
    8.4514   -0.7145   20.8246 H   0  0  0  0  0  0  0  0  0  0  0  0
    6.9721   -2.2132   20.9288 C   0  0  0  0  0  0  0  0  0  0  0  0
    5.9259   -2.7612   20.3695 N   0  0  0  0  0  0  0  0  0  0  0  0
    5.9464   -4.1086   20.6385 N   0  0  0  0  0  0  0  0  0  0  0  0
    7.0079   -4.3434   21.3626 C   0  0  0  0  0  0  0  0  0  0  0  0
    7.3090   -5.3178   21.7359 H   0  0  0  0  0  0  0  0  0  0  0  0
    7.6982   -3.1771   21.6005 N   0  0  0  0  0  0  0  0  0  0  0  0
    8.9488   -2.9943   22.2458 N   0  0  0  0  0  0  0  0  0  0  0  0
    9.2920   -3.9011   22.5605 H   0  0  0  0  0  0  0  0  0  0  0  0
    8.9813   -2.0997   23.4246 C   0  0  0  0  0  0  0  0  0  0  0  0
    9.0623   -1.0668   23.0586 H   0  0  0  0  0  0  0  0  0  0  0  0
    7.7694   -2.1400   24.3755 C   0  0  0  0  0  0  0  0  0  0  0  0
    7.8809   -1.2638   25.0284 H   0  0  0  0  0  0  0  0  0  0  0  0
    6.8408   -1.9870   23.8197 H   0  0  0  0  0  0  0  0  0  0  0  0
    7.6777   -3.3923   25.2565 C   0  0  0  0  0  0  0  0  0  0  0  0
    6.8343   -3.2962   25.9506 H   0  0  0  0  0  0  0  0  0  0  0  0
    7.4639   -4.2697   24.6286 H   0  0  0  0  0  0  0  0  0  0  0  0
    8.9856   -3.6243   26.0272 C   0  0  0  0  0  0  0  0  0  0  0  0
    8.9165   -4.5350   26.6338 H   0  0  0  0  0  0  0  0  0  0  0  0
    9.1594   -2.7971   26.7311 H   0  0  0  0  0  0  0  0  0  0  0  0
   10.1631   -3.7109   25.0486 C   0  0  0  0  0  0  0  0  0  0  0  0
   10.0127   -4.5877   24.4031 H   0  0  0  0  0  0  0  0  0  0  0  0
   11.1015   -3.8945   25.5753 H   0  0  0  0  0  0  0  0  0  0  0  0
   10.2751   -2.4414   24.1793 C   0  0  0  0  0  0  0  0  0  0  0  0
   10.5405   -1.5955   24.8269 H   0  0  0  0  0  0  0  0  0  0  0  0
   11.0823   -2.5384   23.4450 H   0  0  0  0  0  0  0  0  0  0  0  0
    5.4491    0.7025   20.1149 C   0  0  0  0  0  0  0  0  0  0  0  0
    5.0174    0.6998   21.1175 H   0  0  0  0  0  0  0  0  0  0  0  0
    4.8017    1.3494   19.0606 C   0  0  0  0  0  0  0  0  0  0  0  0
    3.8557    1.8540   19.2040 H   0  0  0  0  0  0  0  0  0  0  0  0
  1  2  1  0
  2  3  2  0
  3  4  1  0
  4  5  1  0
  4  6  2  0
  6  7  1  0
  7  8  1  0
  7  9  1  0
  7 10  1  0
 10 11  2  0
 11 12  1  0
 12 13  2  0
 13 14  1  0
 13 15  1  0
 15 16  1  0
 16 17  1  0
 16 18  1  0
 18 19  1  0
 18 20  1  0
 20 21  1  0
 20 22  1  0
 20 23  1  0
 23 24  1  0
 23 25  1  0
 23 26  1  0
 26 27  1  0
 26 28  1  0
 26 29  1  0
 29 30  1  0
 29 31  1  0
 29 32  1  0
 32 33  1  0
 32 34  1  0
  6 35  1  0
 35 36  1  0
 35 37  2  0
 37 38  1  0
 37  2  1  0
 15 10  1  0
 32 18  1  0
M  END
>  <cnnaffinity>  (1) 
4.37123

>  <plip>  (1) 
-0.10714285714285714

>  <filename>  (1) 
[H][c]1[n][c]([H])[c]([C]([H])([H])[c]2[n][n][c]([H])[n]2[N]([H])[C]2([H])[C]([H])([H])[C]([H])([H])[C]([H])([H])[C]([H])([H])[C]2([H])[H])[c]([H])[c]1[H]

>  <combo1>  (1) 
-0.6066478219283251

$$$$
