
     RDKit          3D

 32 34  0  0  0  0  0  0  0  0999 V2000
    5.0969    1.7497   16.8843 H   0  0  0  0  0  0  0  0  0  0  0  0
    5.4988    1.2489   17.7633 C   0  0  0  0  0  0  0  0  0  0  0  0
    6.6571    0.5871   17.5902 N   0  0  0  0  0  0  0  0  0  0  0  0
    7.1942   -0.0187   18.6557 C   0  0  0  0  0  0  0  0  0  0  0  0
    8.1214   -0.5697   18.4942 H   0  0  0  0  0  0  0  0  0  0  0  0
    6.6130    0.0230   19.9408 C   0  0  0  0  0  0  0  0  0  0  0  0
    7.2678   -0.6874   20.9459 O   0  0  0  0  0  0  0  0  0  0  0  0
    7.1884   -0.3626   22.2788 C   0  0  0  0  0  0  0  0  0  0  0  0
    6.6607    0.6209   22.7145 O   0  0  0  0  0  0  0  0  0  0  0  0
    7.9009   -1.4313   23.1090 C   0  0  0  0  0  0  0  0  0  0  0  0
    7.5316   -2.4059   22.7716 H   0  0  0  0  0  0  0  0  0  0  0  0
    7.6007   -1.2674   24.1508 H   0  0  0  0  0  0  0  0  0  0  0  0
    9.4115   -1.3375   22.9345 C   0  0  0  0  0  0  0  0  0  0  0  0
   10.0496   -2.0592   21.9397 C   0  0  0  0  0  0  0  0  0  0  0  0
    9.4954   -2.8384   21.4172 H   0  0  0  0  0  0  0  0  0  0  0  0
   11.3950   -1.7775   21.5789 C   0  0  0  0  0  0  0  0  0  0  0  0
   11.8448   -2.2689   20.7243 H   0  0  0  0  0  0  0  0  0  0  0  0
   12.1243   -0.8300   22.2515 C   0  0  0  0  0  0  0  0  0  0  0  0
   13.1537   -0.6160   21.9686 H   0  0  0  0  0  0  0  0  0  0  0  0
   11.5229   -0.0751   23.2934 C   0  0  0  0  0  0  0  0  0  0  0  0
   12.1721    1.0307   23.9088 C   0  0  0  0  0  0  0  0  0  0  0  0
   13.1964    1.2756   23.6261 H   0  0  0  0  0  0  0  0  0  0  0  0
   11.4716    1.7910   24.8038 C   0  0  0  0  0  0  0  0  0  0  0  0
   11.9215    2.6726   25.2271 H   0  0  0  0  0  0  0  0  0  0  0  0
   10.1339    1.4345   25.1271 C   0  0  0  0  0  0  0  0  0  0  0  0
    9.5584    2.0506   25.8143 H   0  0  0  0  0  0  0  0  0  0  0  0
    9.5074    0.4034   24.6093 N   0  0  0  0  0  0  0  0  0  0  0  0
   10.1582   -0.3376   23.6554 C   0  0  0  0  0  0  0  0  0  0  0  0
    5.3917    0.6796   20.1131 C   0  0  0  0  0  0  0  0  0  0  0  0
    4.9044    0.7021   21.0845 H   0  0  0  0  0  0  0  0  0  0  0  0
    4.8296    1.2997   18.9883 C   0  0  0  0  0  0  0  0  0  0  0  0
    3.8877    1.8350   19.0567 H   0  0  0  0  0  0  0  0  0  0  0  0
  1  2  1  0
  2  3  2  0
  3  4  1  0
  4  5  1  0
  4  6  2  0
  6  7  1  0
  7  8  1  0
  8  9  2  0
  8 10  1  0
 10 11  1  0
 10 12  1  0
 10 13  1  0
 13 14  2  0
 14 15  1  0
 14 16  1  0
 16 17  1  0
 16 18  2  0
 18 19  1  0
 18 20  1  0
 20 21  2  0
 21 22  1  0
 21 23  1  0
 23 24  1  0
 23 25  2  0
 25 26  1  0
 25 27  1  0
 27 28  2  0
  6 29  1  0
 29 30  1  0
 29 31  2  0
 31 32  1  0
 31  2  1  0
 28 13  1  0
 28 20  1  0
M  END
>  <cnnaffinity>  (1) 
4.70244

>  <plip>  (1) 
-0.10714285714285714

>  <filename>  (1) 
[H][c]1[n][c]([H])[c]([O][C](=[O])[C]([H])([H])[c]2[c]([H])[c]([H])[c]([H])[c]3[c]([H])[c]([H])[c]([H])[n][c]23)[c]([H])[c]1[H]

>  <combo1>  (1) 
-0.6354689868258605

$$$$
