
     RDKit          3D

 38 40  0  0  0  0  0  0  0  0999 V2000
    6.4779   -3.1848   20.6832 C   0  0  0  0  0  0  0  0  0  0  0  0
    6.4290   -1.9270   21.5559 C   0  0  0  0  0  0  0  0  0  0  0  0
    7.2478   -0.7289   21.0710 C   0  0  0  0  0  0  0  0  0  0  0  0
    7.3504    0.1344   22.2310 O   0  0  0  0  0  0  0  0  0  0  0  0
    8.2378    1.1566   22.1713 C   0  0  0  0  0  0  0  0  0  0  0  0
    8.9679    1.3137   21.2195 O   0  0  0  0  0  0  0  0  0  0  0  0
    8.1565    2.0494   23.3977 C   0  0  0  0  0  0  0  0  0  0  0  0
    6.9696    2.1438   24.1033 C   0  0  0  0  0  0  0  0  0  0  0  0
    6.7876    3.1051   25.1303 C   0  0  0  0  0  0  0  0  0  0  0  0
    7.7927    3.9950   25.4446 C   0  0  0  0  0  0  0  0  0  0  0  0
    9.0532    3.9196   24.7804 C   0  0  0  0  0  0  0  0  0  0  0  0
   10.0147    4.8444   25.1064 N   0  0  0  0  0  0  0  0  0  0  0  0
   11.1972    4.7200   24.5446 C   0  0  0  0  0  0  0  0  0  0  0  0
   11.5503    3.6659   23.6525 C   0  0  0  0  0  0  0  0  0  0  0  0
   10.5895    2.7433   23.2967 C   0  0  0  0  0  0  0  0  0  0  0  0
    9.2652    2.8852   23.8029 C   0  0  0  0  0  0  0  0  0  0  0  0
   10.7836    1.9118   22.6226 H   0  0  0  0  0  0  0  0  0  0  0  0
   12.5533    3.6132   23.2440 H   0  0  0  0  0  0  0  0  0  0  0  0
   11.9532    5.4542   24.8338 H   0  0  0  0  0  0  0  0  0  0  0  0
    7.6687    4.7822   26.1820 H   0  0  0  0  0  0  0  0  0  0  0  0
    5.8340    3.1336   25.6524 H   0  0  0  0  0  0  0  0  0  0  0  0
    6.1422    1.4861   23.8435 H   0  0  0  0  0  0  0  0  0  0  0  0
    6.5849    0.0232   19.9289 C   0  0  0  0  0  0  0  0  0  0  0  0
    5.3639    0.7013   20.0914 C   0  0  0  0  0  0  0  0  0  0  0  0
    4.8014    1.3487   18.9916 C   0  0  0  0  0  0  0  0  0  0  0  0
    5.4702    1.2817   17.7617 C   0  0  0  0  0  0  0  0  0  0  0  0
    6.6259    0.6283   17.5781 N   0  0  0  0  0  0  0  0  0  0  0  0
    7.1613    0.0351   18.6567 C   0  0  0  0  0  0  0  0  0  0  0  0
    8.1246   -0.4543   18.5062 H   0  0  0  0  0  0  0  0  0  0  0  0
    5.0591    1.7692   16.8806 H   0  0  0  0  0  0  0  0  0  0  0  0
    3.8712    1.9037   19.0726 H   0  0  0  0  0  0  0  0  0  0  0  0
    4.8784    0.7299   21.0702 H   0  0  0  0  0  0  0  0  0  0  0  0
    8.2615   -1.0310   20.7680 H   0  0  0  0  0  0  0  0  0  0  0  0
    5.3943   -1.5829   21.6519 H   0  0  0  0  0  0  0  0  0  0  0  0
    6.7754   -2.1710   22.5648 H   0  0  0  0  0  0  0  0  0  0  0  0
    5.6922   -3.8809   20.9932 H   0  0  0  0  0  0  0  0  0  0  0  0
    6.3092   -2.9724   19.6192 H   0  0  0  0  0  0  0  0  0  0  0  0
    7.4364   -3.7070   20.8052 H   0  0  0  0  0  0  0  0  0  0  0  0
  1  2  1  0
  2  3  1  0
  3  4  1  0
  4  5  1  0
  5  6  2  0
  5  7  1  0
  7  8  2  0
  8  9  1  0
  9 10  2  0
 10 11  1  0
 11 12  2  0
 12 13  1  0
 13 14  2  0
 14 15  1  0
 15 16  2  0
 15 17  1  0
 14 18  1  0
 13 19  1  0
 10 20  1  0
  9 21  1  0
  8 22  1  0
  3 23  1  0
 23 24  2  0
 24 25  1  0
 25 26  2  0
 26 27  1  0
 27 28  2  0
 28 29  1  0
 26 30  1  0
 25 31  1  0
 24 32  1  0
  3 33  1  0
  2 34  1  0
  2 35  1  0
  1 36  1  0
  1 37  1  0
  1 38  1  0
 16  7  1  0
 28 23  1  0
 16 11  1  0
M  END
>  <cnnaffinity>  (1) 
4.82821

>  <plip>  (1) 
-0.10714285714285714

>  <filename>  (1) 
[H][c]1[n][c]([H])[c]([C]([H])([O][C](=[O])[c]2[c]([H])[c]([H])[c]([H])[c]3[n][c]([H])[c]([H])[c]([H])[c]23)[C]([H])([H])[C]([H])([H])[H])[c]([H])[c]1[H]

>  <combo1>  (1) 
-0.5898517176301799

$$$$
