
     RDKit          3D

 40 41  0  0  0  0  0  0  0  0999 V2000
    9.5314   -3.2149   25.4242 C   0  0  0  0  0  0  0  0  0  0  0  0
    8.8795   -4.0722   24.5078 O   0  0  0  0  0  0  0  0  0  0  0  0
    9.4761   -4.0769   23.2145 C   0  0  0  0  0  0  0  0  0  0  0  0
    8.9351   -3.0020   22.2728 C   0  0  0  0  0  0  0  0  0  0  0  0
    7.4011   -2.9477   22.0989 C   0  0  0  0  0  0  0  0  0  0  0  0
    7.0872   -2.0616   20.8928 N   0  0  0  0  0  4  0  0  0  0  0  0
    7.4490   -0.6251   20.9524 C   0  0  0  0  0  0  0  0  0  0  0  0
    6.6548    0.0446   19.8664 C   0  0  0  0  0  0  0  0  0  0  0  0
    5.4475    0.7244   20.1008 C   0  0  0  0  0  0  0  0  0  0  0  0
    4.8104    1.3589   19.0313 C   0  0  0  0  0  0  0  0  0  0  0  0
    5.4008    1.2793   17.7659 C   0  0  0  0  0  0  0  0  0  0  0  0
    6.5247    0.5911   17.5166 N   0  0  0  0  0  0  0  0  0  0  0  0
    7.1178   -0.0197   18.5455 C   0  0  0  0  0  0  0  0  0  0  0  0
    8.0170   -0.5915   18.3019 H   0  0  0  0  0  0  0  0  0  0  0  0
    4.9447    1.7719   16.9081 H   0  0  0  0  0  0  0  0  0  0  0  0
    3.8827    1.9102   19.1606 H   0  0  0  0  0  0  0  0  0  0  0  0
    5.0138    0.7415   21.1030 H   0  0  0  0  0  0  0  0  0  0  0  0
    7.2123   -0.1873   21.9290 H   0  0  0  0  0  0  0  0  0  0  0  0
    8.5239   -0.4753   20.7923 H   0  0  0  0  0  0  0  0  0  0  0  0
    7.5518   -2.4503   20.0347 H   0  0  0  0  0  0  0  0  0  0  0  0
    6.0581   -2.0644   20.6990 H   0  0  0  0  0  0  0  0  0  0  0  0
    6.6940   -2.4358   23.3717 C   0  0  0  0  0  0  0  0  0  0  0  0
    5.9940   -3.6338   24.0432 C   0  0  0  0  0  0  0  0  0  0  0  0
    6.6022   -4.8212   23.3534 N   0  0  0  0  0  4  0  0  0  0  0  0
    6.7905   -4.3443   21.9328 C   0  0  0  0  0  0  0  0  0  0  0  0
    5.8199   -4.2407   21.4314 H   0  0  0  0  0  0  0  0  0  0  0  0
    7.4121   -5.0195   21.3379 H   0  0  0  0  0  0  0  0  0  0  0  0
    7.5172   -4.9673   23.8446 H   0  0  0  0  0  0  0  0  0  0  0  0
    6.0982   -5.7053   23.4766 H   0  0  0  0  0  0  0  0  0  0  0  0
    6.1713   -3.6752   25.1233 H   0  0  0  0  0  0  0  0  0  0  0  0
    4.9062   -3.6062   23.8959 H   0  0  0  0  0  0  0  0  0  0  0  0
    7.4071   -1.9590   24.0524 H   0  0  0  0  0  0  0  0  0  0  0  0
    5.9850   -1.6680   23.0835 H   0  0  0  0  0  0  0  0  0  0  0  0
    9.3672   -3.1633   21.2824 H   0  0  0  0  0  0  0  0  0  0  0  0
    9.2787   -2.0187   22.6120 H   0  0  0  0  0  0  0  0  0  0  0  0
    9.2642   -5.0670   22.7999 H   0  0  0  0  0  0  0  0  0  0  0  0
   10.5668   -3.9678   23.3110 H   0  0  0  0  0  0  0  0  0  0  0  0
    9.6855   -2.2130   25.0048 H   0  0  0  0  0  0  0  0  0  0  0  0
    8.9186   -3.1092   26.3217 H   0  0  0  0  0  0  0  0  0  0  0  0
   10.5040   -3.6365   25.7104 H   0  0  0  0  0  0  0  0  0  0  0  0
  1  2  1  0
  2  3  1  0
  3  4  1  0
  4  5  1  0
  5  6  1  0
  6  7  1  0
  7  8  1  0
  8  9  2  0
  9 10  1  0
 10 11  2  0
 11 12  1  0
 12 13  2  0
 13 14  1  0
 11 15  1  0
 10 16  1  0
  9 17  1  0
  7 18  1  0
  7 19  1  0
  6 20  1  0
  6 21  1  0
  5 22  1  0
 22 23  1  0
 23 24  1  0
 24 25  1  0
 25 26  1  0
 25 27  1  0
 24 28  1  0
 24 29  1  0
 23 30  1  0
 23 31  1  0
 22 32  1  0
 22 33  1  0
  4 34  1  0
  4 35  1  0
  3 36  1  0
  3 37  1  0
  1 38  1  0
  1 39  1  0
  1 40  1  0
 25  5  1  0
 13  8  1  0
M  CHG  2   6   1  24   1
M  END
>  <cnnaffinity>  (1) 
4.22682

>  <plip>  (1) 
-0.10714285714285714

>  <filename>  (1) 
[H][c]1[n][c]([H])[c]([C]([H])([H])[N+]([H])([H])[C]2([C]([H])([H])[C]([H])([H])[O][C]([H])([H])[H])[C]([H])([H])[C]([H])([H])[N+]([H])([H])[C]2([H])[H])[c]([H])[c]1[H]

>  <combo1>  (1) 
-0.6360217619892268

$$$$
