
     RDKit          3D

 19 20  0  0  0  0  0  0  0  0999 V2000
   10.8873   -3.7624   24.0094 H   0  0  0  0  0  0  0  0  0  0  0  0
   10.0133   -3.1322   23.9245 C   0  0  0  0  0  0  0  0  0  0  0  0
    9.2110   -2.7510   24.8630 N   0  0  0  0  0  0  0  0  0  0  0  0
    8.2832   -1.9685   24.1971 C   0  0  0  0  0  0  0  0  0  0  0  0
    7.4477   -1.4755   24.6741 H   0  0  0  0  0  0  0  0  0  0  0  0
    8.5901   -1.9268   22.8757 C   0  0  0  0  0  0  0  0  0  0  0  0
    7.9806   -1.2849   21.7769 C   0  0  0  0  0  0  0  0  0  0  0  0
    7.3586   -0.6832   20.9327 C   0  0  0  0  0  0  0  0  0  0  0  0
    6.6555    0.0125   19.8985 C   0  0  0  0  0  0  0  0  0  0  0  0
    7.1728    0.0652   18.5858 C   0  0  0  0  0  0  0  0  0  0  0  0
    8.1200   -0.4230   18.3639 H   0  0  0  0  0  0  0  0  0  0  0  0
    6.5637    0.6798   17.5654 N   0  0  0  0  0  0  0  0  0  0  0  0
    5.3997    1.2950   17.8351 C   0  0  0  0  0  0  0  0  0  0  0  0
    4.9177    1.7833   16.9928 H   0  0  0  0  0  0  0  0  0  0  0  0
    4.8001    1.3139   19.1016 C   0  0  0  0  0  0  0  0  0  0  0  0
    3.8675    1.8477   19.2537 H   0  0  0  0  0  0  0  0  0  0  0  0
    5.4332    0.6566   20.1577 C   0  0  0  0  0  0  0  0  0  0  0  0
    5.0058    0.6342   21.1648 H   0  0  0  0  0  0  0  0  0  0  0  0
    9.7172   -2.6872   22.6915 O   0  0  0  0  0  0  0  0  0  0  0  0
  1  2  1  0
  2  3  2  0
  3  4  1  0
  4  5  1  0
  4  6  2  0
  6  7  1  0
  7  8  3  0
  8  9  1  0
  9 10  2  0
 10 11  1  0
 10 12  1  0
 12 13  2  0
 13 14  1  0
 13 15  1  0
 15 16  1  0
 15 17  2  0
 17 18  1  0
  6 19  1  0
 19  2  1  0
 17  9  1  0
M  END
>  <cnnaffinity>  (1) 
4.28484

>  <plip>  (1) 
-0.03571428571428571

>  <filename>  (1) 
[H][c]1[n][c]([H])[c]([C]#[C][c]2[c]([H])[n][c]([H])[c]([H])[c]2[H])[o]1

>  <combo1>  (1) 
-0.29975730294821096

$$$$
