
     RDKit          3D

 30 31  0  0  0  0  0  0  0  0999 V2000
    4.9621    1.8275   16.9542 H   0  0  0  0  0  0  0  0  0  0  0  0
    5.4265    1.3177   17.8011 C   0  0  0  0  0  0  0  0  0  0  0  0
    6.5879    0.6904   17.5608 N   0  0  0  0  0  0  0  0  0  0  0  0
    7.1691    0.0654   18.5971 C   0  0  0  0  0  0  0  0  0  0  0  0
    8.1072   -0.4334   18.3638 H   0  0  0  0  0  0  0  0  0  0  0  0
    6.6478    0.0070   19.9152 C   0  0  0  0  0  0  0  0  0  0  0  0
    7.3356   -0.7096   21.0271 C   0  0  0  0  0  0  0  0  0  0  0  0
    8.7326   -0.7142   21.3662 C   0  0  0  0  0  0  0  0  0  0  0  0
    9.8441    0.0158   20.7053 C   0  0  0  0  0  0  0  0  0  0  0  0
    9.4698    0.9189   20.2275 H   0  0  0  0  0  0  0  0  0  0  0  0
   10.2428   -0.6384   19.9377 H   0  0  0  0  0  0  0  0  0  0  0  0
   10.9162    0.3992   21.7080 C   0  0  0  0  0  0  0  0  0  0  0  0
   10.8283    1.4608   22.3003 O   0  0  0  0  0  0  0  0  0  0  0  0
   11.9635   -0.4670   21.9191 N   0  0  0  0  0  0  0  0  0  0  0  0
   12.1533   -1.6994   21.1663 C   0  0  0  0  0  0  0  0  0  0  0  0
   12.7167   -1.5507   20.2308 H   0  0  0  0  0  0  0  0  0  0  0  0
   11.1822   -2.1639   20.9681 H   0  0  0  0  0  0  0  0  0  0  0  0
   12.7321   -2.4017   21.7679 H   0  0  0  0  0  0  0  0  0  0  0  0
   13.0084   -0.0404   22.8587 C   0  0  0  0  0  0  0  0  0  0  0  0
   13.7961   -0.7976   22.9212 H   0  0  0  0  0  0  0  0  0  0  0  0
   12.5858    0.1009   23.8588 H   0  0  0  0  0  0  0  0  0  0  0  0
   13.4705    0.9087   22.5603 H   0  0  0  0  0  0  0  0  0  0  0  0
    8.9951   -1.5313   22.3465 N   0  0  0  0  0  0  0  0  0  0  0  0
    7.7942   -2.0784   22.7230 O   0  0  0  0  0  0  0  0  0  0  0  0
    6.8248   -1.5731   21.9519 C   0  0  0  0  0  0  0  0  0  0  0  0
    5.8377   -1.9401   22.1944 H   0  0  0  0  0  0  0  0  0  0  0  0
    5.4290    0.6670   20.1272 C   0  0  0  0  0  0  0  0  0  0  0  0
    4.9747    0.6882   21.1193 H   0  0  0  0  0  0  0  0  0  0  0  0
    4.8117    1.3271   19.0577 C   0  0  0  0  0  0  0  0  0  0  0  0
    3.8716    1.8522   19.1827 H   0  0  0  0  0  0  0  0  0  0  0  0
  1  2  1  0
  2  3  2  0
  3  4  1  0
  4  5  1  0
  4  6  2  0
  6  7  1  0
  7  8  1  0
  8  9  1  0
  9 10  1  0
  9 11  1  0
  9 12  1  0
 12 13  2  0
 12 14  1  0
 14 15  1  0
 15 16  1  0
 15 17  1  0
 15 18  1  0
 14 19  1  0
 19 20  1  0
 19 21  1  0
 19 22  1  0
  8 23  2  0
 23 24  1  0
 24 25  1  0
 25 26  1  0
  6 27  1  0
 27 28  1  0
 27 29  2  0
 29 30  1  0
 29  2  1  0
 25  7  2  0
M  END
>  <cnnaffinity>  (1) 
4.32724

>  <plip>  (1) 
-0.07142857142857142

>  <filename>  (1) 
[H][c]1[n][c]([H])[c](-[c]2[c]([C]([H])([H])[C](=[O])[N]([C]([H])([H])[H])[C]([H])([H])[H])[n][o][c]2[H])[c]([H])[c]1[H]

>  <combo1>  (1) 
-0.4455234429937679

$$$$
