
     RDKit          3D

 35 37  0  0  0  0  0  0  0  0999 V2000
    8.9386   -3.4369   22.3489 C   0  0  0  0  0  0  0  0  0  0  0  0
    8.2941   -2.1520   21.9702 C   0  0  0  0  0  0  0  0  0  0  0  0
    7.6932   -1.9204   20.8199 N   0  0  0  0  0  0  0  0  0  0  0  0
    7.2980   -0.6266   20.9407 N   0  0  0  0  0  0  0  0  0  0  0  0
    6.6013    0.0132   19.8835 C   0  0  0  0  0  0  0  0  0  0  0  0
    5.3965    0.6857   20.1097 C   0  0  0  0  0  0  0  0  0  0  0  0
    4.7928    1.3398   19.0319 C   0  0  0  0  0  0  0  0  0  0  0  0
    5.4156    1.3104   17.7814 C   0  0  0  0  0  0  0  0  0  0  0  0
    6.5598    0.6414   17.5514 N   0  0  0  0  0  0  0  0  0  0  0  0
    7.1214   -0.0067   18.5752 C   0  0  0  0  0  0  0  0  0  0  0  0
    8.0398   -0.5449   18.3603 H   0  0  0  0  0  0  0  0  0  0  0  0
    4.9769    1.8286   16.9296 H   0  0  0  0  0  0  0  0  0  0  0  0
    3.8569    1.8667   19.1575 H   0  0  0  0  0  0  0  0  0  0  0  0
    4.9485    0.6854   21.1065 H   0  0  0  0  0  0  0  0  0  0  0  0
    7.7149   -0.1443   22.1518 C   0  0  0  0  0  0  0  0  0  0  0  0
    7.6601    1.2751   22.6343 C   0  0  0  0  0  0  0  0  0  0  0  0
    7.1810    1.3627   24.0645 C   0  0  0  0  0  0  0  0  0  0  0  0
    5.9303    1.0354   24.3934 C   0  0  0  0  0  0  0  0  0  0  0  0
    5.4712    0.9980   25.8290 C   0  0  0  0  0  0  0  0  0  0  0  0
    6.3276    1.7143   26.7015 O   0  0  0  0  0  0  0  0  0  0  0  0
    7.6982    1.3842   26.5403 C   0  0  0  0  0  0  0  0  0  0  0  0
    8.1973    1.7261   25.1297 C   0  0  0  0  0  0  0  0  0  0  0  0
    8.4378    2.7956   25.0599 H   0  0  0  0  0  0  0  0  0  0  0  0
    9.1223    1.1728   24.9321 H   0  0  0  0  0  0  0  0  0  0  0  0
    8.2383    1.9685   27.2920 H   0  0  0  0  0  0  0  0  0  0  0  0
    7.8640    0.3139   26.7536 H   0  0  0  0  0  0  0  0  0  0  0  0
    5.3602   -0.0564   26.1487 H   0  0  0  0  0  0  0  0  0  0  0  0
    4.4875    1.4646   25.9175 H   0  0  0  0  0  0  0  0  0  0  0  0
    5.2283    0.6602   23.6525 H   0  0  0  0  0  0  0  0  0  0  0  0
    7.0466    1.8887   21.9680 H   0  0  0  0  0  0  0  0  0  0  0  0
    8.6796    1.6655   22.5584 H   0  0  0  0  0  0  0  0  0  0  0  0
    8.3378   -1.0953   22.8176 N   0  0  0  0  0  0  0  0  0  0  0  0
   10.0216   -3.2841   22.3467 H   0  0  0  0  0  0  0  0  0  0  0  0
    8.6610   -3.7180   23.3702 H   0  0  0  0  0  0  0  0  0  0  0  0
    8.6546   -4.2319   21.6570 H   0  0  0  0  0  0  0  0  0  0  0  0
  1  2  1  0
  2  3  2  0
  3  4  1  0
  4  5  1  0
  5  6  2  0
  6  7  1  0
  7  8  2  0
  8  9  1  0
  9 10  2  0
 10 11  1  0
  8 12  1  0
  7 13  1  0
  6 14  1  0
  4 15  1  0
 15 16  1  0
 16 17  1  0
 17 18  2  0
 18 19  1  0
 19 20  1  0
 20 21  1  0
 21 22  1  0
 22 23  1  0
 22 24  1  0
 21 25  1  0
 21 26  1  0
 19 27  1  0
 19 28  1  0
 18 29  1  0
 16 30  1  0
 16 31  1  0
 15 32  2  0
  1 33  1  0
  1 34  1  0
  1 35  1  0
 32  2  1  0
 10  5  1  0
 22 17  1  0
M  END
>  <cnnaffinity>  (1) 
4.90494

>  <plip>  (1) 
-0.03571428571428571

>  <filename>  (1) 
[H][C]1=[C]([C]([H])([H])[c]2[n][c]([C]([H])([H])[H])[n][n]2-[c]2[c]([H])[n][c]([H])[c]([H])[c]2[H])[C]([H])([H])[C]([H])([H])[O][C]1([H])[H]

>  <combo1>  (1) 
-0.22781932299350718

$$$$
