
     RDKit          3D

 28 28  0  0  0  0  0  0  0  0999 V2000
    8.0530   -4.8383   28.8039 H   0  0  0  0  0  0  0  0  0  0  0  0
    7.3329   -5.0134   28.1690 O   0  0  0  0  0  0  0  0  0  0  0  0
    7.7289   -4.1619   27.2230 C   0  0  0  0  0  0  0  0  0  0  0  0
    8.7084   -3.4823   27.4265 O   0  0  0  0  0  0  0  0  0  0  0  0
    6.8899   -4.1089   25.8758 C   0  0  0  0  0  0  0  0  0  0  0  0
    5.8543   -4.7804   25.7433 O   0  0  0  0  0  0  0  0  0  0  0  0
    7.3860   -3.2559   24.8647 C   0  0  0  0  0  0  0  0  0  0  0  0
    8.3075   -2.7071   25.0056 H   0  0  0  0  0  0  0  0  0  0  0  0
    6.7019   -3.1100   23.6890 C   0  0  0  0  0  0  0  0  0  0  0  0
    5.6232   -3.7639   23.4148 O   0  0  0  0  0  0  0  0  0  0  0  0
    5.4705   -4.2764   24.2665 H   0  0  0  0  0  0  0  0  0  0  0  0
    7.1819   -2.2384   22.7745 N   0  0  0  0  0  0  0  0  0  0  0  0
    7.9900   -1.7262   23.0592 H   0  0  0  0  0  0  0  0  0  0  0  0
    6.5518   -1.7733   21.6418 C   0  0  0  0  0  0  0  0  0  0  0  0
    5.5611   -2.2499   21.1534 O   0  0  0  0  0  0  0  0  0  0  0  0
    7.2111   -0.5762   21.1181 N   0  0  0  0  0  0  0  0  0  0  0  0
    8.6356   -0.5955   21.0492 O   0  0  0  0  0  0  0  0  0  0  0  0
    8.8954    0.3372   21.1704 H   0  0  0  0  0  0  0  0  0  0  0  0
    6.6412    0.0779   19.9815 C   0  0  0  0  0  0  0  0  0  0  0  0
    7.2864    0.1090   18.7292 C   0  0  0  0  0  0  0  0  0  0  0  0
    8.2473   -0.3873   18.6126 H   0  0  0  0  0  0  0  0  0  0  0  0
    6.7611    0.6925   17.6465 N   0  0  0  0  0  0  0  0  0  0  0  0
    5.5674    1.2929   17.7862 C   0  0  0  0  0  0  0  0  0  0  0  0
    5.1643    1.7721   16.8980 H   0  0  0  0  0  0  0  0  0  0  0  0
    4.8538    1.3213   18.9889 C   0  0  0  0  0  0  0  0  0  0  0  0
    3.8979    1.8269   19.0381 H   0  0  0  0  0  0  0  0  0  0  0  0
    5.3909    0.6949   20.1141 C   0  0  0  0  0  0  0  0  0  0  0  0
    4.8698    0.6675   21.0708 H   0  0  0  0  0  0  0  0  0  0  0  0
  1  2  1  0
  2  3  1  0
  3  4  2  0
  3  5  1  0
  5  6  2  0
  5  7  1  0
  7  8  1  0
  7  9  2  3
  9 10  1  0
 10 11  1  0
  9 12  1  0
 12 13  1  0
 12 14  1  0
 14 15  2  0
 14 16  1  0
 16 17  1  0
 17 18  1  0
 16 19  1  0
 19 20  2  0
 20 21  1  0
 20 22  1  0
 22 23  2  0
 23 24  1  0
 23 25  1  0
 25 26  1  0
 25 27  2  0
 27 28  1  0
 27 19  1  0
M  END
>  <cnnaffinity>  (1) 
4.43543

>  <plip>  (1) 
-0.06666666666666667

>  <filename>  (1) 
[H][O][C](=[O])[C](=[O])[C]([H])=[C]([O][H])[N]([H])[C](=[O])[N]([O][H])[c]1[c]([H])[n][c]([H])[c]([H])[c]1[H]

>  <combo1>  (1) 
-0.3688855455379781

$$$$
