
     RDKit          3D

 39 41  0  0  0  0  0  0  0  0999 V2000
    5.0358    2.0484   16.8316 H   0  0  0  0  0  0  0  0  0  0  0  0
    5.4440    1.5071   17.6808 C   0  0  0  0  0  0  0  0  0  0  0  0
    6.6045    0.8542   17.4640 N   0  0  0  0  0  0  0  0  0  0  0  0
    7.1244    0.1703   18.4918 C   0  0  0  0  0  0  0  0  0  0  0  0
    8.0526   -0.3701   18.3032 H   0  0  0  0  0  0  0  0  0  0  0  0
    6.5418    0.0975   19.7889 C   0  0  0  0  0  0  0  0  0  0  0  0
    7.0163   -0.7721   20.7875 N   0  0  0  0  0  0  0  0  0  0  0  0
    7.5213   -0.3868   21.8772 C   0  0  0  0  0  0  0  0  0  0  0  0
    7.7930    0.9139   22.2662 N   0  0  0  0  0  0  0  0  0  0  0  0
    7.5002    0.9626   23.2298 H   0  0  0  0  0  0  0  0  0  0  0  0
    7.2675    1.5422   21.6761 H   0  0  0  0  0  0  0  0  0  0  0  0
    7.9847   -1.2123   22.9082 N   0  0  0  0  0  0  0  0  0  0  0  0
    8.8888   -0.7738   23.0611 H   0  0  0  0  0  0  0  0  0  0  0  0
    8.0621   -2.6367   22.6542 N   0  0  0  0  0  0  0  0  0  0  0  0
    6.7258   -3.2314   22.7884 C   0  0  0  0  0  0  0  0  0  0  0  0
    6.1071   -2.9205   21.9404 H   0  0  0  0  0  0  0  0  0  0  0  0
    6.2279   -2.8603   23.7018 H   0  0  0  0  0  0  0  0  0  0  0  0
    7.0078   -4.7350   22.8652 C   0  0  0  0  0  0  0  0  0  0  0  0
    6.9342   -5.1811   21.8685 H   0  0  0  0  0  0  0  0  0  0  0  0
    6.2747   -5.2514   23.4918 H   0  0  0  0  0  0  0  0  0  0  0  0
    8.4431   -4.8513   23.4390 C   0  0  2  0  0  0  0  0  0  0  0  0
    9.0380   -5.4385   22.7428 H   0  0  0  0  0  0  0  0  0  0  0  0
    8.5635   -5.4038   24.8767 C   0  0  0  0  0  0  0  0  0  0  0  0
    7.5535   -5.5836   25.2989 H   0  0  0  0  0  0  0  0  0  0  0  0
    9.1022   -6.3615   24.9342 H   0  0  0  0  0  0  0  0  0  0  0  0
    9.2831   -4.3745   25.6220 N   0  0  0  0  0  0  0  0  0  0  0  0
    9.1494   -4.4877   27.0561 C   0  0  0  0  0  0  0  0  0  0  0  0
    9.7341   -3.6989   27.5307 H   0  0  0  0  0  0  0  0  0  0  0  0
    8.1039   -4.4116   27.4113 H   0  0  0  0  0  0  0  0  0  0  0  0
    9.5505   -5.4512   27.3879 H   0  0  0  0  0  0  0  0  0  0  0  0
    8.8744   -3.0972   25.0418 C   0  0  0  0  0  0  0  0  0  0  0  0
    7.8345   -2.8073   25.3087 H   0  0  0  0  0  0  0  0  0  0  0  0
    9.5293   -2.2738   25.3539 H   0  0  0  0  0  0  0  0  0  0  0  0
    8.9606   -3.3901   23.5380 C   0  0  2  0  0  0  0  0  0  0  0  0
   10.0002   -3.2839   23.2001 H   0  0  0  0  0  0  0  0  0  0  0  0
    5.3515    0.8166   19.9875 C   0  0  0  0  0  0  0  0  0  0  0  0
    4.8871    0.7855   20.9717 H   0  0  0  0  0  0  0  0  0  0  0  0
    4.7911    1.5236   18.9150 C   0  0  0  0  0  0  0  0  0  0  0  0
    3.8736    2.0937   19.0360 H   0  0  0  0  0  0  0  0  0  0  0  0
  1  2  1  0
  2  3  2  0
  3  4  1  0
  4  5  1  0
  4  6  2  0
  6  7  1  0
  7  8  2  3
  8  9  1  0
  9 10  1  0
  9 11  1  0
  8 12  1  0
 12 13  1  0
 12 14  1  0
 14 15  1  0
 15 16  1  0
 15 17  1  0
 15 18  1  0
 18 19  1  0
 18 20  1  0
 18 21  1  0
 21 22  1  6
 21 23  1  0
 23 24  1  0
 23 25  1  0
 23 26  1  0
 26 27  1  0
 27 28  1  0
 27 29  1  0
 27 30  1  0
 26 31  1  0
 31 32  1  0
 31 33  1  0
 31 34  1  0
 34 35  1  6
  6 36  1  0
 36 37  1  0
 36 38  2  0
 38 39  1  0
 38  2  1  0
 34 14  1  0
 34 21  1  0
M  END
>  <cnnaffinity>  (1) 
4.82006

>  <plip>  (1) 
-0.034482758620689655

>  <filename>  (1) 
[H][c]1[n][c]([H])[c]([N]=[C]([N]([H])[H])[N]([H])[N]2[C]([H])([H])[C]([H])([H])[C@]3([H])[C]([H])([H])[N]([C]([H])([H])[H])[C]([H])([H])[C@]23[H])[c]([H])[c]1[H]

>  <combo1>  (1) 
-0.2128060400843001

$$$$
