
     RDKit          3D

 41 43  0  0  0  0  0  0  0  0999 V2000
    4.9157    1.7865   16.9951 H   0  0  0  0  0  0  0  0  0  0  0  0
    5.4000    1.2964   17.8365 C   0  0  0  0  0  0  0  0  0  0  0  0
    6.5632    0.6796   17.5812 N   0  0  0  0  0  0  0  0  0  0  0  0
    7.1707    0.0543   18.5980 C   0  0  0  0  0  0  0  0  0  0  0  0
    8.1198   -0.4218   18.3682 H   0  0  0  0  0  0  0  0  0  0  0  0
    6.6679   -0.0069   19.9266 C   0  0  0  0  0  0  0  0  0  0  0  0
    7.3569   -0.6816   20.9382 N   0  0  0  0  0  0  0  0  0  0  0  0
    7.9756   -1.9730   20.7196 C   0  0  0  0  0  0  0  0  0  0  0  0
    8.8423   -1.8905   20.0520 H   0  0  0  0  0  0  0  0  0  0  0  0
    7.2377   -2.6577   20.2823 H   0  0  0  0  0  0  0  0  0  0  0  0
    8.3912   -2.4079   22.1259 C   0  0  0  0  0  0  0  0  0  0  0  0
    8.0606   -3.4238   22.3624 H   0  0  0  0  0  0  0  0  0  0  0  0
    9.4833   -2.3490   22.2603 H   0  0  0  0  0  0  0  0  0  0  0  0
    7.7138   -1.5334   23.0082 O   0  0  0  0  0  0  0  0  0  0  0  0
    7.3780   -0.3292   22.3420 C   0  0  1  0  0  0  0  0  0  0  0  0
    6.3784   -0.0381   22.7036 H   0  0  0  0  0  0  0  0  0  0  0  0
    8.3736    0.8166   22.6697 C   0  0  0  0  0  0  0  0  0  0  0  0
    9.3548    0.4979   22.2834 H   0  0  0  0  0  0  0  0  0  0  0  0
    7.9900    2.1454   21.9946 C   0  0  0  0  0  0  0  0  0  0  0  0
    7.9876    2.0392   20.9038 H   0  0  0  0  0  0  0  0  0  0  0  0
    6.9653    2.4186   22.2793 H   0  0  0  0  0  0  0  0  0  0  0  0
    8.9442    3.2842   22.3654 C   0  0  0  0  0  0  0  0  0  0  0  0
    8.5514    4.2165   21.9472 H   0  0  0  0  0  0  0  0  0  0  0  0
    9.9176    3.0948   21.8848 H   0  0  0  0  0  0  0  0  0  0  0  0
    9.1049    3.4167   23.8175 N   0  0  0  0  0  0  0  0  0  0  0  0
    9.2477    4.6217   24.4815 C   0  0  0  0  0  0  0  0  0  0  0  0
    9.2532    4.6884   25.7008 O   0  0  0  0  0  0  0  0  0  0  0  0
    9.4146    5.8864   23.6499 C   0  0  0  0  0  0  0  0  0  0  0  0
   10.1437    5.7734   22.8401 H   0  0  0  0  0  0  0  0  0  0  0  0
    8.4627    6.2032   23.2110 H   0  0  0  0  0  0  0  0  0  0  0  0
    9.7486    6.6755   24.3235 H   0  0  0  0  0  0  0  0  0  0  0  0
    9.4493    2.1712   24.5218 C   0  0  0  0  0  0  0  0  0  0  0  0
    9.4394    2.3662   25.5969 H   0  0  0  0  0  0  0  0  0  0  0  0
   10.4728    1.8598   24.2567 H   0  0  0  0  0  0  0  0  0  0  0  0
    8.4831    1.0408   24.1867 C   0  0  0  0  0  0  0  0  0  0  0  0
    7.4917    1.2755   24.5952 H   0  0  0  0  0  0  0  0  0  0  0  0
    8.8118    0.1183   24.6770 H   0  0  0  0  0  0  0  0  0  0  0  0
    5.4477    0.6547   20.1706 C   0  0  0  0  0  0  0  0  0  0  0  0
    5.0096    0.6278   21.1680 H   0  0  0  0  0  0  0  0  0  0  0  0
    4.8164    1.3099   19.1082 C   0  0  0  0  0  0  0  0  0  0  0  0
    3.8837    1.8364   19.2614 H   0  0  0  0  0  0  0  0  0  0  0  0
  1  2  1  0
  2  3  2  0
  3  4  1  0
  4  5  1  0
  4  6  2  0
  6  7  1  0
  7  8  1  0
  8  9  1  0
  8 10  1  0
  8 11  1  0
 11 12  1  0
 11 13  1  0
 11 14  1  0
 14 15  1  0
 15 16  1  1
 15 17  1  0
 17 18  1  0
 17 19  1  0
 19 20  1  0
 19 21  1  0
 19 22  1  0
 22 23  1  0
 22 24  1  0
 22 25  1  0
 25 26  1  0
 26 27  2  0
 26 28  1  0
 28 29  1  0
 28 30  1  0
 28 31  1  0
 25 32  1  0
 32 33  1  0
 32 34  1  0
 32 35  1  0
 35 36  1  0
 35 37  1  0
  6 38  1  0
 38 39  1  0
 38 40  2  0
 40 41  1  0
 40  2  1  0
 15  7  1  0
 35 17  1  0
M  END
>  <cnnaffinity>  (1) 
4.80268

>  <plip>  (1) 
-0.0

>  <filename>  (1) 
[H][c]1[n][c]([H])[c]([N]2[C]([H])([H])[C]([H])([H])[O][C@@]2([H])[C]2([H])[C]([H])([H])[C]([H])([H])[N]([C](=[O])[C]([H])([H])[H])[C]([H])([H])[C]2([H])[H])[c]([H])[c]1[H]

>  <combo1>  (1) 
-5.813988397881014e-06

$$$$
