
     RDKit          3D

 23 25  0  0  0  0  0  0  0  0999 V2000
    4.8138    0.3551   24.0929 H   0  0  0  0  0  0  0  0  0  0  0  0
    4.9073   -0.0054   25.0560 N   0  0  0  0  0  0  0  0  0  0  0  0
    5.8334   -0.7789   25.0557 N   0  0  0  0  0  4  0  0  0  0  0  0
    6.7512   -1.5284   25.2484 N   0  0  0  0  0  0  0  0  0  0  0  0
    7.7281   -1.8334   24.3147 C   0  0  0  0  0  0  0  0  0  0  0  0
    8.9023   -2.5487   24.4602 C   0  0  0  0  0  0  0  0  0  0  0  0
    9.2843   -3.0116   25.3653 H   0  0  0  0  0  0  0  0  0  0  0  0
    9.5956   -2.6306   23.3027 N   0  0  0  0  0  0  0  0  0  0  0  0
    8.8652   -1.9628   22.4257 C   0  0  0  0  0  0  0  0  0  0  0  0
    8.9351   -1.5297   20.7515 S   0  0  0  0  0  0  0  0  0  0  0  0
    7.3742   -0.6911   20.9729 C   0  0  0  0  0  0  0  0  0  0  0  0
    6.6470    0.0139   19.9064 C   0  0  0  0  0  0  0  0  0  0  0  0
    7.1637    0.0601   18.6018 C   0  0  0  0  0  0  0  0  0  0  0  0
    8.1116   -0.4184   18.3658 H   0  0  0  0  0  0  0  0  0  0  0  0
    6.5575    0.6734   17.5879 N   0  0  0  0  0  0  0  0  0  0  0  0
    5.3981    1.2936   17.8415 C   0  0  0  0  0  0  0  0  0  0  0  0
    4.9361    1.7902   16.9903 H   0  0  0  0  0  0  0  0  0  0  0  0
    4.7976    1.3146   19.1044 C   0  0  0  0  0  0  0  0  0  0  0  0
    3.8682    1.8494   19.2431 H   0  0  0  0  0  0  0  0  0  0  0  0
    5.4223    0.6588   20.1621 C   0  0  0  0  0  0  0  0  0  0  0  0
    4.9904    0.6406   21.1658 H   0  0  0  0  0  0  0  0  0  0  0  0
    6.9069   -0.7472   22.1783 N   0  0  0  0  0  0  0  0  0  0  0  0
    7.7379   -1.4550   22.9719 N   0  0  0  0  0  0  0  0  0  0  0  0
  1  2  1  0
  2  3  2  0
  3  4  2  0
  4  5  1  0
  5  6  2  0
  6  7  1  0
  6  8  1  0
  8  9  2  0
  9 10  1  0
 10 11  1  0
 11 12  1  0
 12 13  2  0
 13 14  1  0
 13 15  1  0
 15 16  2  0
 16 17  1  0
 16 18  1  0
 18 19  1  0
 18 20  2  0
 20 21  1  0
 11 22  2  0
 22 23  1  0
 23  5  1  0
 23  9  1  0
 20 12  1  0
M  CHG  1   3   1
M  END
>  <cnnaffinity>  (1) 
4.75845

>  <plip>  (1) 
-0.07142857142857142

>  <filename>  (1) 
[H][N]=[N+]=[N][c]1[c]([H])[n][c]2[s][c](-[c]3[c]([H])[n][c]([H])[c]([H])[c]3[H])[n][n]12

>  <combo1>  (1) 
-0.4638296777302685

$$$$
