
     RDKit          3D

 38 40  0  0  0  0  0  0  0  0999 V2000
    4.8007    1.3002   19.0400 C   0  0  0  0  0  0  0  0  0  0  0  0
    5.4283    1.3120   17.7924 C   0  0  0  0  0  0  0  0  0  0  0  0
    6.5877    0.6829   17.5436 N   0  0  0  0  0  0  0  0  0  0  0  0
    7.1629    0.0384   18.5670 C   0  0  0  0  0  0  0  0  0  0  0  0
    6.6315   -0.0258   19.8671 C   0  0  0  0  0  0  0  0  0  0  0  0
    7.3707   -0.7615   20.9531 C   0  0  0  0  0  0  0  0  0  0  0  0
    8.8223    0.1238   21.6197 S   0  0  0  0  0  0  0  0  0  0  0  0
    8.0046    1.4378   22.5904 C   0  0  0  0  0  0  0  0  0  0  0  0
    9.0213    2.3864   23.2575 C   0  0  0  0  0  0  0  0  0  0  0  0
    9.7287    3.2550   22.2122 C   0  0  0  0  0  0  0  0  0  0  0  0
   10.8363    4.1066   22.8402 C   0  0  0  0  0  0  0  0  0  0  0  0
   10.3390    4.9149   24.0277 C   0  0  0  0  0  0  0  0  0  0  0  0
   11.0306    6.0714   24.4237 C   0  0  0  0  0  0  0  0  0  0  0  0
   10.6525    6.7833   25.5642 C   0  0  0  0  0  0  0  0  0  0  0  0
    9.5496    6.3512   26.3130 C   0  0  0  0  0  0  0  0  0  0  0  0
    8.8241    5.2286   25.9033 C   0  0  0  0  0  0  0  0  0  0  0  0
    9.1967    4.5036   24.7548 C   0  0  0  0  0  0  0  0  0  0  0  0
    8.3226    3.3529   24.2519 C   0  0  0  0  0  0  0  0  0  0  0  0
    7.4536    3.8083   23.7424 H   0  0  0  0  0  0  0  0  0  0  0  0
    7.9127    2.7961   25.1053 H   0  0  0  0  0  0  0  0  0  0  0  0
    7.9344    4.9354   26.4621 H   0  0  0  0  0  0  0  0  0  0  0  0
    9.2462    6.9061   27.1966 H   0  0  0  0  0  0  0  0  0  0  0  0
   11.2107    7.6645   25.8680 H   0  0  0  0  0  0  0  0  0  0  0  0
   11.8814    6.4060   23.8317 H   0  0  0  0  0  0  0  0  0  0  0  0
   11.2791    4.7804   22.0927 H   0  0  0  0  0  0  0  0  0  0  0  0
   11.6629    3.4548   23.1711 H   0  0  0  0  0  0  0  0  0  0  0  0
    8.9497    3.9124   21.7896 H   0  0  0  0  0  0  0  0  0  0  0  0
   10.1320    2.6528   21.3907 H   0  0  0  0  0  0  0  0  0  0  0  0
    9.7696    1.7886   23.8030 H   0  0  0  0  0  0  0  0  0  0  0  0
    7.3460    2.0128   21.9232 H   0  0  0  0  0  0  0  0  0  0  0  0
    7.3736    0.9526   23.3432 H   0  0  0  0  0  0  0  0  0  0  0  0
    7.7608   -1.7089   20.5590 H   0  0  0  0  0  0  0  0  0  0  0  0
    6.6936   -1.0148   21.7757 H   0  0  0  0  0  0  0  0  0  0  0  0
    5.4105    0.6173   20.0966 C   0  0  0  0  0  0  0  0  0  0  0  0
    4.9400    0.5838   21.0818 H   0  0  0  0  0  0  0  0  0  0  0  0
    8.0993   -0.4734   18.3442 H   0  0  0  0  0  0  0  0  0  0  0  0
    4.9792    1.8416   16.9527 H   0  0  0  0  0  0  0  0  0  0  0  0
    3.8625    1.8246   19.1775 H   0  0  0  0  0  0  0  0  0  0  0  0
  1  2  2  0
  2  3  1  0
  3  4  2  0
  4  5  1  0
  5  6  1  0
  6  7  1  0
  7  8  1  0
  8  9  1  0
  9 10  1  0
 10 11  1  0
 11 12  1  0
 12 13  2  0
 13 14  1  0
 14 15  2  0
 15 16  1  0
 16 17  2  0
 17 18  1  0
 18 19  1  0
 18 20  1  0
 16 21  1  0
 15 22  1  0
 14 23  1  0
 13 24  1  0
 11 25  1  0
 11 26  1  0
 10 27  1  0
 10 28  1  0
  9 29  1  0
  8 30  1  0
  8 31  1  0
  6 32  1  0
  6 33  1  0
  5 34  2  0
 34 35  1  0
  4 36  1  0
  2 37  1  0
  1 38  1  0
 34  1  1  0
 18  9  1  0
 17 12  1  0
M  END
>  <cnnaffinity>  (1) 
4.65155

>  <plip>  (1) 
-0.07142857142857142

>  <filename>  (1) 
[H][c]1[n][c]([H])[c]([C]([H])([H])[S][C]([H])([H])[C]2([H])[C]([H])([H])[c]3[c]([H])[c]([H])[c]([H])[c]([H])[c]3[C]([H])([H])[C]2([H])[H])[c]([H])[c]1[H]

>  <combo1>  (1) 
-0.4110833199444365

$$$$
