
     RDKit          3D

 25 25  0  0  0  0  0  0  0  0999 V2000
   14.1759   -2.3778   20.4654 H   0  0  0  0  0  0  0  0  0  0  0  0
   13.2505   -2.1372   20.2908 O   0  0  0  0  0  0  0  0  0  0  0  0
   12.9888   -1.5435   21.4641 C   0  0  0  0  0  0  0  0  0  0  0  0
   13.8988   -1.4119   22.2510 O   0  0  0  0  0  0  0  0  0  0  0  0
   11.5596   -1.0894   21.6460 C   0  0  0  0  0  0  0  0  0  0  0  0
   11.3352   -0.3675   20.8533 H   0  0  0  0  0  0  0  0  0  0  0  0
   11.5650   -0.5406   22.5899 H   0  0  0  0  0  0  0  0  0  0  0  0
   10.4428   -2.1610   21.6592 C   0  0  0  0  0  0  0  0  0  0  0  0
   10.6665   -2.9676   22.3764 H   0  0  0  0  0  0  0  0  0  0  0  0
   10.3210   -2.6186   20.6739 H   0  0  0  0  0  0  0  0  0  0  0  0
    9.0795   -1.5562   22.0024 C   0  0  0  0  0  0  0  0  0  0  0  0
    9.1686   -0.8216   22.8131 H   0  0  0  0  0  0  0  0  0  0  0  0
    8.4130   -2.3610   22.3304 H   0  0  0  0  0  0  0  0  0  0  0  0
    8.4925   -0.8981   20.8151 N   0  0  0  0  0  0  0  0  0  0  0  0
    7.2993   -0.5692   20.9958 N   0  0  0  0  0  0  0  0  0  0  0  0
    6.6663    0.0420   19.8666 C   0  0  0  0  0  0  0  0  0  0  0  0
    7.1701    0.0632   18.5505 C   0  0  0  0  0  0  0  0  0  0  0  0
    8.1033   -0.4406   18.3190 H   0  0  0  0  0  0  0  0  0  0  0  0
    6.5585    0.6800   17.5335 N   0  0  0  0  0  0  0  0  0  0  0  0
    5.4032    1.3152   17.7892 C   0  0  0  0  0  0  0  0  0  0  0  0
    4.9385    1.8235   16.9458 H   0  0  0  0  0  0  0  0  0  0  0  0
    4.8007    1.3289   19.0530 C   0  0  0  0  0  0  0  0  0  0  0  0
    3.8605    1.8561   19.1903 H   0  0  0  0  0  0  0  0  0  0  0  0
    5.4386    0.6699   20.1079 C   0  0  0  0  0  0  0  0  0  0  0  0
    5.0242    0.6383   21.1141 H   0  0  0  0  0  0  0  0  0  0  0  0
  1  2  1  0
  2  3  1  0
  3  4  2  0
  3  5  1  0
  5  6  1  0
  5  7  1  0
  5  8  1  0
  8  9  1  0
  8 10  1  0
  8 11  1  0
 11 12  1  0
 11 13  1  0
 11 14  1  0
 14 15  2  3
 15 16  1  0
 16 17  2  0
 17 18  1  0
 17 19  1  0
 19 20  2  0
 20 21  1  0
 20 22  1  0
 22 23  1  0
 22 24  2  0
 24 25  1  0
 24 16  1  0
M  END
>  <cnnaffinity>  (1) 
4.69641

>  <plip>  (1) 
-0.07142857142857142

>  <filename>  (1) 
[H][O][C](=[O])[C]([H])([H])[C]([H])([H])[C]([H])([H])[N]=[N][c]1[c]([H])[n][c]([H])[c]([H])[c]1[H]

>  <combo1>  (1) 
-0.5787567969643059

$$$$
