
     RDKit          3D

 30 31  0  0  0  0  0  0  0  0999 V2000
    4.9445    1.7754   17.0190 H   0  0  0  0  0  0  0  0  0  0  0  0
    5.4326    1.2776   17.8515 C   0  0  0  0  0  0  0  0  0  0  0  0
    6.5954    0.6663   17.5730 N   0  0  0  0  0  0  0  0  0  0  0  0
    7.2424    0.0657   18.5797 C   0  0  0  0  0  0  0  0  0  0  0  0
    8.1900   -0.4185   18.3479 H   0  0  0  0  0  0  0  0  0  0  0  0
    6.7409    0.0224   19.8999 C   0  0  0  0  0  0  0  0  0  0  0  0
    7.4159   -0.6766   20.9650 N   0  0  0  0  0  0  0  0  0  0  0  0
    6.8389   -1.6551   21.7721 C   0  0  0  0  0  0  0  0  0  0  0  0
    5.7634   -2.1713   21.6332 O   0  0  0  0  0  0  0  0  0  0  0  0
    7.9326   -1.9771   22.8157 C   0  0  0  0  0  0  0  0  0  0  0  0
    7.8475   -2.5706   23.8638 O   0  0  0  0  0  0  0  0  0  0  0  0
    9.0740   -1.4131   22.3176 N   0  0  0  0  0  0  0  0  0  0  0  0
   10.3857   -1.4504   22.9642 C   0  0  0  0  0  0  0  0  0  0  0  0
   11.1394   -1.5920   22.1836 H   0  0  0  0  0  0  0  0  0  0  0  0
   10.3940   -2.3348   23.6074 H   0  0  0  0  0  0  0  0  0  0  0  0
   10.6460   -0.1752   23.7497 C   0  0  0  0  0  0  0  0  0  0  0  0
   11.6592   -0.2040   24.1625 H   0  0  0  0  0  0  0  0  0  0  0  0
   10.6082    0.6686   23.0521 H   0  0  0  0  0  0  0  0  0  0  0  0
    9.6757    0.0574   24.9022 C   0  0  0  0  0  0  0  0  0  0  0  0
    9.7098   -0.8128   25.5737 H   0  0  0  0  0  0  0  0  0  0  0  0
    8.6334    0.1279   24.5387 H   0  0  0  0  0  0  0  0  0  0  0  0
   10.1267    1.2294   25.6431 N   0  0  0  0  0  0  0  0  0  0  0  0
    9.9848    2.0699   25.0891 H   0  0  0  0  0  0  0  0  0  0  0  0
    9.6066    1.3365   26.5103 H   0  0  0  0  0  0  0  0  0  0  0  0
    8.7884   -0.6115   21.2334 C   0  0  0  0  0  0  0  0  0  0  0  0
    9.6072   -0.0008   20.5989 O   0  0  0  0  0  0  0  0  0  0  0  0
    5.5166    0.6434   20.1681 C   0  0  0  0  0  0  0  0  0  0  0  0
    5.0938    0.5803   21.1691 H   0  0  0  0  0  0  0  0  0  0  0  0
    4.8543    1.2953   19.1238 C   0  0  0  0  0  0  0  0  0  0  0  0
    3.9107    1.8073   19.2834 H   0  0  0  0  0  0  0  0  0  0  0  0
  1  2  1  0
  2  3  2  0
  3  4  1  0
  4  5  1  0
  4  6  2  0
  6  7  1  0
  7  8  1  0
  8  9  2  0
  8 10  1  0
 10 11  2  0
 10 12  1  0
 12 13  1  0
 13 14  1  0
 13 15  1  0
 13 16  1  0
 16 17  1  0
 16 18  1  0
 16 19  1  0
 19 20  1  0
 19 21  1  0
 19 22  1  0
 22 23  1  0
 22 24  1  0
 12 25  1  0
 25 26  2  0
  6 27  1  0
 27 28  1  0
 27 29  2  0
 29 30  1  0
 29  2  1  0
 25  7  1  0
M  END
>  <cnnaffinity>  (1) 
4.59232

>  <plip>  (1) 
-0.14285714285714285

>  <filename>  (1) 
[H][c]1[n][c]([H])[c]([N]2[C](=[O])[C](=[O])[N]([C]([H])([H])[C]([H])([H])[C]([H])([H])[N]([H])[H])[C]2=[O])[c]([H])[c]1[H]

>  <combo1>  (1) 
-0.8809222644109567

$$$$
