
     RDKit          3D

 32 34  0  0  0  0  0  0  0  0999 V2000
    5.0085    1.8321   16.9751 H   0  0  0  0  0  0  0  0  0  0  0  0
    5.4660    1.3164   17.8152 C   0  0  0  0  0  0  0  0  0  0  0  0
    6.6325    0.7009   17.5606 N   0  0  0  0  0  0  0  0  0  0  0  0
    7.2093    0.0448   18.5783 C   0  0  0  0  0  0  0  0  0  0  0  0
    8.1459   -0.4750   18.3603 H   0  0  0  0  0  0  0  0  0  0  0  0
    6.6804   -0.0191   19.8799 C   0  0  0  0  0  0  0  0  0  0  0  0
    7.3349   -0.8015   20.9969 C   0  0  0  0  0  0  0  0  0  0  0  0
    6.7589   -2.2296   21.1723 C   0  0  0  0  0  0  0  0  0  0  0  0
    5.9673   -2.6853   20.3660 O   0  0  0  0  0  0  0  0  0  0  0  0
    7.1271   -2.9576   22.2768 N   0  0  0  0  0  0  0  0  0  0  0  0
    8.0206   -2.7504   22.7016 H   0  0  0  0  0  0  0  0  0  0  0  0
    6.6975   -4.3463   22.3928 C   0  0  0  0  0  0  0  0  0  0  0  0
    5.6232   -4.3712   22.6004 H   0  0  0  0  0  0  0  0  0  0  0  0
    6.8542   -4.9021   21.4546 H   0  0  0  0  0  0  0  0  0  0  0  0
    7.4256   -4.9735   23.4667 N   0  0  0  0  0  0  0  0  0  0  0  0
    7.3157   -4.6340   24.7865 C   0  0  0  0  0  0  0  0  0  0  0  0
    6.5319   -3.9813   25.1546 H   0  0  0  0  0  0  0  0  0  0  0  0
    8.2397   -5.1988   25.5178 N   0  0  0  0  0  0  0  0  0  0  0  0
    8.9921   -5.9508   24.6466 C   0  0  0  0  0  0  0  0  0  0  0  0
    9.8521   -6.5149   24.9780 H   0  0  0  0  0  0  0  0  0  0  0  0
    8.5012   -5.8387   23.3798 C   0  0  0  0  0  0  0  0  0  0  0  0
    8.8128   -6.2901   22.4509 H   0  0  0  0  0  0  0  0  0  0  0  0
    7.7277    0.0032   22.2308 C   0  0  0  0  0  0  0  0  0  0  0  0
    7.4675    1.0626   22.2482 H   0  0  0  0  0  0  0  0  0  0  0  0
    7.6662   -0.4789   23.2043 H   0  0  0  0  0  0  0  0  0  0  0  0
    8.7889   -0.4372   21.2754 C   0  0  0  0  0  0  0  0  0  0  0  0
    9.2248    0.3470   20.6519 H   0  0  0  0  0  0  0  0  0  0  0  0
    9.5017   -1.2045   21.5676 H   0  0  0  0  0  0  0  0  0  0  0  0
    5.4559    0.6192   20.1111 C   0  0  0  0  0  0  0  0  0  0  0  0
    5.0271    0.5750   21.1125 H   0  0  0  0  0  0  0  0  0  0  0  0
    4.8353    1.2987   19.0639 C   0  0  0  0  0  0  0  0  0  0  0  0
    3.8865    1.8035   19.2033 H   0  0  0  0  0  0  0  0  0  0  0  0
  1  2  1  0
  2  3  2  0
  3  4  1  0
  4  5  1  0
  4  6  2  0
  6  7  1  0
  7  8  1  0
  8  9  2  0
  8 10  1  0
 10 11  1  0
 10 12  1  0
 12 13  1  0
 12 14  1  0
 12 15  1  0
 15 16  1  0
 16 17  1  0
 16 18  2  0
 18 19  1  0
 19 20  1  0
 19 21  2  0
 21 22  1  0
  7 23  1  0
 23 24  1  0
 23 25  1  0
 23 26  1  0
 26 27  1  0
 26 28  1  0
  6 29  1  0
 29 30  1  0
 29 31  2  0
 31 32  1  0
 31  2  1  0
 26  7  1  0
 21 15  1  0
M  END
>  <cnnaffinity>  (1) 
4.68952

>  <plip>  (1) 
-0.10714285714285714

>  <filename>  (1) 
[H][c]1[n][c]([H])[c]([C]2([C](=[O])[N]([H])[C]([H])([H])[n]3[c]([H])[n][c]([H])[c]3[H])[C]([H])([H])[C]2([H])[H])[c]([H])[c]1[H]

>  <combo1>  (1) 
-0.6912723897889944

$$$$
