
     RDKit          3D

 41 43  0  0  0  0  0  0  0  0999 V2000
    4.9179    1.8085   16.9710 H   0  0  0  0  0  0  0  0  0  0  0  0
    5.3865    1.3067   17.8162 C   0  0  0  0  0  0  0  0  0  0  0  0
    6.5483    0.6867   17.5540 N   0  0  0  0  0  0  0  0  0  0  0  0
    7.1571    0.0727   18.5765 C   0  0  0  0  0  0  0  0  0  0  0  0
    8.1019   -0.4172   18.3437 H   0  0  0  0  0  0  0  0  0  0  0  0
    6.6517    0.0107   19.8902 C   0  0  0  0  0  0  0  0  0  0  0  0
    7.3821   -0.7127   20.9646 C   0  0  0  0  0  0  0  0  0  0  0  0
    8.7865   -0.5685   21.1323 C   0  0  0  0  0  0  0  0  0  0  0  0
    9.3187    0.0916   20.4505 H   0  0  0  0  0  0  0  0  0  0  0  0
    9.4315   -1.2247   22.1426 C   0  0  0  0  0  0  0  0  0  0  0  0
   10.4927   -1.1558   22.3245 H   0  0  0  0  0  0  0  0  0  0  0  0
    8.7471   -2.1037   23.0809 C   0  0  0  0  0  0  0  0  0  0  0  0
    9.3291   -2.6918   23.9791 O   0  0  0  0  0  0  0  0  0  0  0  0
    7.3291   -2.2239   22.8565 N   0  0  0  0  0  0  0  0  0  0  0  0
    6.4721   -2.9820   23.6289 N   0  0  0  0  0  0  0  0  0  0  0  0
    6.6221   -4.4232   23.4825 C   0  0  0  0  0  0  0  0  0  0  0  0
    6.2238   -4.7192   22.4941 H   0  0  0  0  0  0  0  0  0  0  0  0
    7.6967   -4.6549   23.4844 H   0  0  0  0  0  0  0  0  0  0  0  0
    5.9091   -5.2755   24.5474 C   0  0  0  0  0  0  0  0  0  0  0  0
    5.9834   -6.3140   24.2017 H   0  0  0  0  0  0  0  0  0  0  0  0
    4.8300   -5.0194   24.5392 H   0  0  0  0  0  0  0  0  0  0  0  0
    6.4804   -5.1810   25.8961 N   0  0  0  0  0  0  0  0  0  0  0  0
    6.4256   -6.4299   26.6366 C   0  0  0  0  0  0  0  0  0  0  0  0
    6.9575   -7.1905   26.0714 H   0  0  0  0  0  0  0  0  0  0  0  0
    5.4016   -6.7945   26.8426 H   0  0  0  0  0  0  0  0  0  0  0  0
    6.9484   -6.3173   27.5915 H   0  0  0  0  0  0  0  0  0  0  0  0
    5.9464   -4.0708   26.6766 C   0  0  0  0  0  0  0  0  0  0  0  0
    4.8336   -4.1251   26.7412 H   0  0  0  0  0  0  0  0  0  0  0  0
    6.3133   -4.1818   27.7073 H   0  0  0  0  0  0  0  0  0  0  0  0
    6.3548   -2.6925   26.1562 C   0  0  0  0  0  0  0  0  0  0  0  0
    5.9538   -1.9512   26.8602 H   0  0  0  0  0  0  0  0  0  0  0  0
    7.4474   -2.5955   26.1478 H   0  0  0  0  0  0  0  0  0  0  0  0
    5.8007   -2.3505   24.7620 C   0  0  0  0  0  0  0  0  0  0  0  0
    5.8513   -1.2696   24.5833 H   0  0  0  0  0  0  0  0  0  0  0  0
    4.7350   -2.6349   24.7167 H   0  0  0  0  0  0  0  0  0  0  0  0
    6.7163   -1.5325   21.8303 C   0  0  0  0  0  0  0  0  0  0  0  0
    5.6531   -1.7087   21.7854 H   0  0  0  0  0  0  0  0  0  0  0  0
    5.4283    0.6548   20.1343 C   0  0  0  0  0  0  0  0  0  0  0  0
    5.0074    0.6496   21.1403 H   0  0  0  0  0  0  0  0  0  0  0  0
    4.7918    1.3214   19.0841 C   0  0  0  0  0  0  0  0  0  0  0  0
    3.8596    1.8562   19.2315 H   0  0  0  0  0  0  0  0  0  0  0  0
  1  2  1  0
  2  3  2  0
  3  4  1  0
  4  5  1  0
  4  6  2  0
  6  7  1  0
  7  8  1  0
  8  9  1  0
  8 10  2  0
 10 11  1  0
 10 12  1  0
 12 13  2  0
 12 14  1  0
 14 15  1  0
 15 16  1  0
 16 17  1  0
 16 18  1  0
 16 19  1  0
 19 20  1  0
 19 21  1  0
 19 22  1  0
 22 23  1  0
 23 24  1  0
 23 25  1  0
 23 26  1  0
 22 27  1  0
 27 28  1  0
 27 29  1  0
 27 30  1  0
 30 31  1  0
 30 32  1  0
 30 33  1  0
 33 34  1  0
 33 35  1  0
 14 36  1  0
 36 37  1  0
  6 38  1  0
 38 39  1  0
 38 40  2  0
 40 41  1  0
 40  2  1  0
 36  7  2  0
 33 15  1  0
M  END
>  <cnnaffinity>  (1) 
5.17923

>  <plip>  (1) 
-0.03571428571428571

>  <filename>  (1) 
[H][c]1[n][c]([H])[c](-[c]2[c]([H])[c]([H])[c](=[O])[n]([N]3[C]([H])([H])[C]([H])([H])[N]([C]([H])([H])[H])[C]([H])([H])[C]([H])([H])[C]3([H])[H])[c]2[H])[c]([H])[c]1[H]

>  <combo1>  (1) 
-0.21682673202913172

$$$$
