
     RDKit          3D

 36 38  0  0  0  0  0  0  0  0999 V2000
    8.3143    2.6360   21.3518 O   0  0  0  0  0  0  0  0  0  0  0  0
    8.1103    1.6522   22.0438 C   0  0  0  0  0  0  0  0  0  0  0  0
    7.5476    1.7492   23.2870 N   0  0  0  0  0  0  0  0  0  0  0  0
    6.8670    2.9850   23.6859 C   0  0  0  0  0  0  0  0  0  0  0  0
    5.6034    3.2916   22.9055 C   0  0  0  0  0  0  0  0  0  0  0  0
    5.5137    4.0982   21.7971 C   0  0  0  0  0  0  0  0  0  0  0  0
    4.2206    4.0903   21.3540 N   0  0  0  0  0  0  0  0  0  0  0  0
    3.4745    3.2571   22.1475 C   0  0  0  0  0  0  0  0  0  0  0  0
    4.2973    2.7597   23.1283 C   0  0  0  0  0  0  0  0  0  0  0  0
    4.0111    2.0785   23.9264 H   0  0  0  0  0  0  0  0  0  0  0  0
    2.4394    3.0568   21.9132 H   0  0  0  0  0  0  0  0  0  0  0  0
    3.9351    4.5232   20.4819 H   0  0  0  0  0  0  0  0  0  0  0  0
    6.2730    4.6648   21.2744 H   0  0  0  0  0  0  0  0  0  0  0  0
    6.6374    2.9056   24.7553 H   0  0  0  0  0  0  0  0  0  0  0  0
    7.5717    3.8180   23.5698 H   0  0  0  0  0  0  0  0  0  0  0  0
    7.2652    0.8811   23.7044 H   0  0  0  0  0  0  0  0  0  0  0  0
    8.5241    0.2347   21.6342 C   0  0  0  0  0  0  0  0  0  0  0  0
    7.4108   -0.6418   21.0459 C   0  0  0  0  0  0  0  0  0  0  0  0
    6.6466    0.0270   19.9209 C   0  0  0  0  0  0  0  0  0  0  0  0
    5.4243    0.6753   20.1460 C   0  0  0  0  0  0  0  0  0  0  0  0
    4.7872    1.3163   19.0806 C   0  0  0  0  0  0  0  0  0  0  0  0
    5.3969    1.3010   17.8235 C   0  0  0  0  0  0  0  0  0  0  0  0
    6.5610    0.6826   17.5780 N   0  0  0  0  0  0  0  0  0  0  0  0
    7.1613    0.0755   18.6118 C   0  0  0  0  0  0  0  0  0  0  0  0
    8.1053   -0.4165   18.3676 H   0  0  0  0  0  0  0  0  0  0  0  0
    4.9301    1.7974   16.9742 H   0  0  0  0  0  0  0  0  0  0  0  0
    3.8305    1.8131   19.1882 H   0  0  0  0  0  0  0  0  0  0  0  0
    4.9933    0.6614   21.1479 H   0  0  0  0  0  0  0  0  0  0  0  0
    6.7124   -0.9521   21.8374 H   0  0  0  0  0  0  0  0  0  0  0  0
    7.8653   -1.5740   20.6790 H   0  0  0  0  0  0  0  0  0  0  0  0
    9.9080    0.0949   21.0468 C   0  0  0  0  0  0  0  0  0  0  0  0
    9.6208   -0.4528   22.4169 C   0  0  0  0  0  0  0  0  0  0  0  0
   10.0365    0.0588   23.2829 H   0  0  0  0  0  0  0  0  0  0  0  0
    9.5528   -1.5317   22.5574 H   0  0  0  0  0  0  0  0  0  0  0  0
   10.4942    1.0069   20.9522 H   0  0  0  0  0  0  0  0  0  0  0  0
   10.0320   -0.5941   20.2101 H   0  0  0  0  0  0  0  0  0  0  0  0
  1  2  2  0
  2  3  1  0
  3  4  1  0
  4  5  1  0
  5  6  2  0
  6  7  1  0
  7  8  1  0
  8  9  2  0
  9 10  1  0
  8 11  1  0
  7 12  1  0
  6 13  1  0
  4 14  1  0
  4 15  1  0
  3 16  1  0
  2 17  1  0
 17 18  1  0
 18 19  1  0
 19 20  2  0
 20 21  1  0
 21 22  2  0
 22 23  1  0
 23 24  2  0
 24 25  1  0
 22 26  1  0
 21 27  1  0
 20 28  1  0
 18 29  1  0
 18 30  1  0
 17 31  1  0
 31 32  1  0
 32 33  1  0
 32 34  1  0
 31 35  1  0
 31 36  1  0
  9  5  1  0
 32 17  1  0
 24 19  1  0
M  END
>  <cnnaffinity>  (1) 
4.5833

>  <plip>  (1) 
-0.07142857142857142

>  <filename>  (1) 
[H][c]1[n][c]([H])[c]([C]([H])([H])[C]2([C](=[O])[N]([H])[C]([H])([H])[c]3[c]([H])[c]([H])[n]([H])[c]3[H])[C]([H])([H])[C]2([H])[H])[c]([H])[c]1[H]

>  <combo1>  (1) 
-0.4274078139917612

$$$$
