
     RDKit          3D

 46 49  0  0  0  0  0  0  0  0999 V2000
    6.7419   -0.7893   27.8064 C   0  0  0  0  0  0  0  0  0  0  0  0
    6.8373   -2.0089   26.9393 C   0  0  0  0  0  0  0  0  0  0  0  0
    7.0262   -2.0258   25.5889 C   0  0  0  0  0  0  0  0  0  0  0  0
    7.0185   -3.3237   25.1768 N   0  0  0  0  0  0  0  0  0  0  0  0
    7.1684   -3.7625   23.8354 C   0  0  0  0  0  0  0  0  0  0  0  0
    7.2614   -5.1291   23.5456 C   0  0  0  0  0  0  0  0  0  0  0  0
    7.3881   -5.5010   22.2106 C   0  0  0  0  0  0  0  0  0  0  0  0
    7.4069   -4.5131   21.2344 C   0  0  0  0  0  0  0  0  0  0  0  0
    7.3312   -3.1703   21.6485 C   0  0  0  0  0  0  0  0  0  0  0  0
    7.3538   -2.1702   20.7407 N   0  0  0  0  0  0  0  0  0  0  0  0
    7.3696   -0.7607   21.0665 C   0  0  0  0  0  0  0  0  0  0  0  0
    6.6186   -0.0709   19.9514 C   0  0  0  0  0  0  0  0  0  0  0  0
    5.4194    0.6200   20.1652 C   0  0  0  0  0  0  0  0  0  0  0  0
    4.8295    1.2887   19.0886 C   0  0  0  0  0  0  0  0  0  0  0  0
    5.4544    1.2371   17.8395 C   0  0  0  0  0  0  0  0  0  0  0  0
    6.5762    0.5377   17.6039 N   0  0  0  0  0  0  0  0  0  0  0  0
    7.1226   -0.1078   18.6416 C   0  0  0  0  0  0  0  0  0  0  0  0
    8.0368   -0.6619   18.4142 H   0  0  0  0  0  0  0  0  0  0  0  0
    5.0290    1.7651   16.9872 H   0  0  0  0  0  0  0  0  0  0  0  0
    3.9071    1.8471   19.2068 H   0  0  0  0  0  0  0  0  0  0  0  0
    4.9536    0.6217   21.1536 H   0  0  0  0  0  0  0  0  0  0  0  0
    8.8150   -0.1643   21.2821 C   0  0  0  0  0  0  0  0  0  0  0  0
    8.7913    1.3385   21.6289 C   0  0  0  0  0  0  0  0  0  0  0  0
    9.9438    1.5025   22.6199 C   0  0  0  0  0  0  0  0  0  0  0  0
    9.9407    0.1428   23.3194 C   0  0  0  0  0  0  0  0  0  0  0  0
    9.5299   -0.8017   22.3404 O   0  0  0  0  0  0  0  0  0  0  0  0
   10.9274   -0.1515   23.6947 H   0  0  0  0  0  0  0  0  0  0  0  0
    9.2340    0.1287   24.1646 H   0  0  0  0  0  0  0  0  0  0  0  0
    9.7904    2.3283   23.3231 H   0  0  0  0  0  0  0  0  0  0  0  0
   10.8939    1.6699   22.0993 H   0  0  0  0  0  0  0  0  0  0  0  0
    7.8424    1.5864   22.1204 H   0  0  0  0  0  0  0  0  0  0  0  0
    8.8782    1.9722   20.7421 H   0  0  0  0  0  0  0  0  0  0  0  0
    9.3949   -0.3572   20.3649 H   0  0  0  0  0  0  0  0  0  0  0  0
    6.8285   -0.6254   22.0176 H   0  0  0  0  0  0  0  0  0  0  0  0
    7.3810   -2.4402   19.7774 H   0  0  0  0  0  0  0  0  0  0  0  0
    7.2186   -2.7966   22.9186 N   0  0  0  0  0  0  0  0  0  0  0  0
    7.4512   -4.7578   20.1853 H   0  0  0  0  0  0  0  0  0  0  0  0
    7.4591   -6.5566   21.9478 H   0  0  0  0  0  0  0  0  0  0  0  0
    7.2295   -5.8327   24.3644 H   0  0  0  0  0  0  0  0  0  0  0  0
    6.8291   -4.1661   26.2266 N   0  0  0  0  0  0  0  0  0  0  0  0
    6.7163   -3.3800   27.2772 C   0  0  0  0  0  0  0  0  0  0  0  0
    6.5245   -3.8539   28.2336 H   0  0  0  0  0  0  0  0  0  0  0  0
    7.1437   -1.2180   24.8750 H   0  0  0  0  0  0  0  0  0  0  0  0
    7.7302   -0.3477   27.9839 H   0  0  0  0  0  0  0  0  0  0  0  0
    6.1360   -0.0126   27.3267 H   0  0  0  0  0  0  0  0  0  0  0  0
    6.2783   -1.0191   28.7692 H   0  0  0  0  0  0  0  0  0  0  0  0
  1  2  1  0
  2  3  2  0
  3  4  1  0
  4  5  1  0
  5  6  2  0
  6  7  1  0
  7  8  2  0
  8  9  1  0
  9 10  1  0
 10 11  1  0
 11 12  1  0
 12 13  2  0
 13 14  1  0
 14 15  2  0
 15 16  1  0
 16 17  2  0
 17 18  1  0
 15 19  1  0
 14 20  1  0
 13 21  1  0
 11 22  1  0
 22 23  1  0
 23 24  1  0
 24 25  1  0
 25 26  1  0
 25 27  1  0
 25 28  1  0
 24 29  1  0
 24 30  1  0
 23 31  1  0
 23 32  1  0
 22 33  1  0
 11 34  1  0
 10 35  1  0
  9 36  2  0
  8 37  1  0
  7 38  1  0
  6 39  1  0
  4 40  1  0
 40 41  2  0
 41 42  1  0
  3 43  1  0
  1 44  1  0
  1 45  1  0
  1 46  1  0
 41  2  1  0
 36  5  1  0
 17 12  1  0
 26 22  1  0
M  END
>  <cnnaffinity>  (1) 
5.88315

>  <plip>  (1) 
-0.14285714285714285

>  <filename>  (1) 
[H][c]1[n][c]([H])[c]([C]([H])([N]([H])[c]2[n][c](-[n]3[n][c]([H])[c]([C]([H])([H])[H])[c]3[H])[c]([H])[c]([H])[c]2[H])[C]2([H])[O][C]([H])([H])[C]([H])([H])[C]2([H])[H])[c]([H])[c]1[H]

>  <combo1>  (1) 
-0.8352439246178573

$$$$
