
     RDKit          3D

 32 34  0  0  0  0  0  0  0  0999 V2000
    4.9266    1.8056   16.9760 H   0  0  0  0  0  0  0  0  0  0  0  0
    5.3911    1.3050   17.8252 C   0  0  0  0  0  0  0  0  0  0  0  0
    6.5523    0.6834   17.5727 N   0  0  0  0  0  0  0  0  0  0  0  0
    7.1450    0.0566   18.5962 C   0  0  0  0  0  0  0  0  0  0  0  0
    8.0958   -0.4187   18.3554 H   0  0  0  0  0  0  0  0  0  0  0  0
    6.6185   -0.0204   19.8978 C   0  0  0  0  0  0  0  0  0  0  0  0
    7.3882   -0.7001   21.0130 C   0  0  0  0  0  0  0  0  0  0  0  0
    7.8666   -1.6186   20.6486 H   0  0  0  0  0  0  0  0  0  0  0  0
    6.7021   -1.0318   21.8057 H   0  0  0  0  0  0  0  0  0  0  0  0
    8.4564    0.2103   21.5610 C   0  0  0  0  0  0  0  0  0  0  0  0
    9.8211    0.2575   21.1798 C   0  0  0  0  0  0  0  0  0  0  0  0
   10.3621   -0.3911   20.4970 H   0  0  0  0  0  0  0  0  0  0  0  0
   10.4776    1.2520   21.7561 N   0  0  0  0  0  0  0  0  0  0  0  0
    9.5444    1.8615   22.5183 N   0  0  0  0  0  0  0  0  0  0  0  0
    9.7244    2.7029   23.0562 H   0  0  0  0  0  0  0  0  0  0  0  0
    8.3302    1.2856   22.4164 C   0  0  0  0  0  0  0  0  0  0  0  0
    7.2226    1.7431   23.1325 N   0  0  0  0  0  0  0  0  0  0  0  0
    6.4603    1.1003   23.2122 H   0  0  0  0  0  0  0  0  0  0  0  0
    6.9779    3.0324   23.5466 C   0  0  0  0  0  0  0  0  0  0  0  0
    7.6890    3.9749   23.2331 O   0  0  0  0  0  0  0  0  0  0  0  0
    5.8059    3.1877   24.4524 C   0  0  0  0  0  0  0  0  0  0  0  0
    5.4263    4.8111   24.9261 S   0  0  0  0  0  0  0  0  0  0  0  0
    4.1837    4.2785   25.9685 C   0  0  0  0  0  0  0  0  0  0  0  0
    3.6014    5.0090   26.5168 H   0  0  0  0  0  0  0  0  0  0  0  0
    4.0621    2.9194   25.9826 C   0  0  0  0  0  0  0  0  0  0  0  0
    3.3279    2.3965   26.5912 H   0  0  0  0  0  0  0  0  0  0  0  0
    4.9994    2.2863   25.1150 C   0  0  0  0  0  0  0  0  0  0  0  0
    5.0822    1.2043   25.0355 H   0  0  0  0  0  0  0  0  0  0  0  0
    5.4158    0.6495   20.1402 C   0  0  0  0  0  0  0  0  0  0  0  0
    4.9837    0.6511   21.1431 H   0  0  0  0  0  0  0  0  0  0  0  0
    4.7897    1.3206   19.0870 C   0  0  0  0  0  0  0  0  0  0  0  0
    3.8611    1.8574   19.2317 H   0  0  0  0  0  0  0  0  0  0  0  0
  1  2  1  0
  2  3  2  0
  3  4  1  0
  4  5  1  0
  4  6  2  0
  6  7  1  0
  7  8  1  0
  7  9  1  0
  7 10  1  0
 10 11  1  0
 11 12  1  0
 11 13  2  0
 13 14  1  0
 14 15  1  0
 14 16  1  0
 16 17  1  0
 17 18  1  0
 17 19  1  0
 19 20  2  0
 19 21  1  0
 21 22  1  0
 22 23  1  0
 23 24  1  0
 23 25  2  0
 25 26  1  0
 25 27  1  0
 27 28  1  0
  6 29  1  0
 29 30  1  0
 29 31  2  0
 31 32  1  0
 31  2  1  0
 16 10  2  0
 27 21  2  0
M  END
>  <cnnaffinity>  (1) 
4.81984

>  <plip>  (1) 
-0.03571428571428571

>  <filename>  (1) 
[H][c]1[n][c]([H])[c]([C]([H])([H])[c]2[c]([H])[n][n]([H])[c]2[N]([H])[C](=[O])[c]2[s][c]([H])[c]([H])[c]2[H])[c]([H])[c]1[H]

>  <combo1>  (1) 
-0.2017944729589779

$$$$
