
     RDKit          3D

 27 29  0  0  0  0  0  0  0  0999 V2000
    4.8043    1.2937   19.0990 C   0  0  0  0  0  0  0  0  0  0  0  0
    5.4030    1.2860   17.8395 C   0  0  0  0  0  0  0  0  0  0  0  0
    6.5713    0.6628   17.6032 N   0  0  0  0  0  0  0  0  0  0  0  0
    7.1851    0.0535   18.6271 C   0  0  0  0  0  0  0  0  0  0  0  0
    6.6629    0.0398   19.9385 C   0  0  0  0  0  0  0  0  0  0  0  0
    7.3619   -0.6371   20.9308 O   0  0  0  0  0  0  0  0  0  0  0  0
    7.3838   -0.2477   22.2386 C   0  0  0  0  0  0  0  0  0  0  0  0
    7.8657   -1.2240   23.1709 C   0  0  0  0  0  0  0  0  0  0  0  0
    7.9618   -0.9520   24.4712 N   0  0  0  0  0  0  0  0  0  0  0  0
    7.5880    0.3011   24.8462 C   0  0  0  0  0  0  0  0  0  0  0  0
    7.1266    1.2655   23.9340 C   0  0  0  0  0  0  0  0  0  0  0  0
    6.7197    2.6222   24.3626 C   0  0  0  0  0  0  0  0  0  0  0  0
    6.7355    3.1576   25.6273 C   0  0  0  0  0  0  0  0  0  0  0  0
    6.2685    4.5021   25.6717 C   0  0  0  0  0  0  0  0  0  0  0  0
    5.9063    4.9592   24.4403 C   0  0  0  0  0  0  0  0  0  0  0  0
    6.1248    3.7777   23.2139 S   0  0  0  0  0  0  0  0  0  0  0  0
    5.5213    5.9385   24.1892 H   0  0  0  0  0  0  0  0  0  0  0  0
    6.2073    5.0981   26.5768 H   0  0  0  0  0  0  0  0  0  0  0  0
    7.0662    2.6370   26.5205 H   0  0  0  0  0  0  0  0  0  0  0  0
    7.0177    0.9664   22.6024 N   0  0  0  0  0  0  0  0  0  0  0  0
    7.6618    0.5183   25.9007 H   0  0  0  0  0  0  0  0  0  0  0  0
    8.1614   -2.2130   22.8367 H   0  0  0  0  0  0  0  0  0  0  0  0
    5.4285    0.6464   20.1692 C   0  0  0  0  0  0  0  0  0  0  0  0
    5.0047    0.6409   21.1711 H   0  0  0  0  0  0  0  0  0  0  0  0
    8.1268   -0.4404   18.3975 H   0  0  0  0  0  0  0  0  0  0  0  0
    4.9266    1.7809   16.9938 H   0  0  0  0  0  0  0  0  0  0  0  0
    3.8802    1.8346   19.2551 H   0  0  0  0  0  0  0  0  0  0  0  0
  1  2  2  0
  2  3  1  0
  3  4  2  0
  4  5  1  0
  5  6  1  0
  6  7  1  0
  7  8  2  0
  8  9  1  0
  9 10  2  0
 10 11  1  0
 11 12  1  0
 12 13  2  0
 13 14  1  0
 14 15  2  0
 15 16  1  0
 15 17  1  0
 14 18  1  0
 13 19  1  0
 11 20  2  0
 10 21  1  0
  8 22  1  0
  5 23  2  0
 23 24  1  0
  4 25  1  0
  2 26  1  0
  1 27  1  0
 23  1  1  0
 20  7  1  0
 16 12  1  0
M  END
>  <cnnaffinity>  (1) 
4.8027

>  <plip>  (1) 
-0.0

>  <filename>  (1) 
[H][c]1[n][c]([H])[c](-[c]2[s][c]([H])[c]([H])[c]2[H])[n][c]1[O][c]1[c]([H])[n][c]([H])[c]([H])[c]1[H]

>  <combo1>  (1) 
-6.270612842829274e-06

$$$$
