
     RDKit          3D

 38 40  0  0  0  0  0  0  0  0999 V2000
    6.9319   -3.8235   21.8906 C   0  0  0  0  0  0  0  0  0  0  0  0
    6.0944   -2.5545   21.7567 C   0  0  0  0  0  0  0  0  0  0  0  0
    6.8403   -1.3182   22.0170 N   0  0  0  0  0  0  0  0  0  0  0  0
    7.5375   -0.7484   20.8854 C   0  0  0  0  0  0  0  0  0  0  0  0
    6.6548   -0.0680   19.8562 C   0  0  0  0  0  0  0  0  0  0  0  0
    5.4002    0.5187   20.0797 C   0  0  0  0  0  0  0  0  0  0  0  0
    4.7913    1.2252   19.0331 C   0  0  0  0  0  0  0  0  0  0  0  0
    5.4376    1.2980   17.7958 C   0  0  0  0  0  0  0  0  0  0  0  0
    6.6152    0.7047   17.5488 N   0  0  0  0  0  0  0  0  0  0  0  0
    7.1897    0.0523   18.5632 C   0  0  0  0  0  0  0  0  0  0  0  0
    8.1542   -0.4043   18.3454 H   0  0  0  0  0  0  0  0  0  0  0  0
    4.9955    1.8406   16.9610 H   0  0  0  0  0  0  0  0  0  0  0  0
    3.8506    1.7463   19.1737 H   0  0  0  0  0  0  0  0  0  0  0  0
    4.8989    0.4571   21.0479 H   0  0  0  0  0  0  0  0  0  0  0  0
    8.0962   -1.5476   20.3715 H   0  0  0  0  0  0  0  0  0  0  0  0
    8.2961   -0.0447   21.2425 H   0  0  0  0  0  0  0  0  0  0  0  0
    6.9747   -0.8909   23.3176 C   0  0  0  0  0  0  0  0  0  0  0  0
    6.7274   -1.6174   24.2698 O   0  0  0  0  0  0  0  0  0  0  0  0
    7.4879    0.4971   23.5337 C   0  0  0  0  0  0  0  0  0  0  0  0
    8.4897    0.6008   24.5322 C   0  0  0  0  0  0  0  0  0  0  0  0
    9.1779    1.6967   24.7607 N   0  0  0  0  0  0  0  0  0  0  0  0
    8.8570    2.8163   24.0256 C   0  0  0  0  0  0  0  0  0  0  0  0
    9.5869    4.0498   24.2121 C   0  0  0  0  0  0  0  0  0  0  0  0
    9.2963    5.1956   23.6271 N   0  0  0  0  0  0  0  0  0  0  0  0
    8.2364    5.2209   22.7587 C   0  0  0  0  0  0  0  0  0  0  0  0
    7.4668    4.1153   22.4678 C   0  0  0  0  0  0  0  0  0  0  0  0
    7.7829    2.8584   23.0854 C   0  0  0  0  0  0  0  0  0  0  0  0
    7.0988    1.6364   22.8479 C   0  0  0  0  0  0  0  0  0  0  0  0
    6.2927    1.6240   22.1228 H   0  0  0  0  0  0  0  0  0  0  0  0
    6.6157    4.2062   21.7969 H   0  0  0  0  0  0  0  0  0  0  0  0
    8.0286    6.1871   22.3027 H   0  0  0  0  0  0  0  0  0  0  0  0
   10.4297    4.0397   24.8950 H   0  0  0  0  0  0  0  0  0  0  0  0
    8.7165   -0.2765   25.1366 H   0  0  0  0  0  0  0  0  0  0  0  0
    5.6575   -2.4755   20.7506 H   0  0  0  0  0  0  0  0  0  0  0  0
    5.2644   -2.6011   22.4661 H   0  0  0  0  0  0  0  0  0  0  0  0
    6.3267   -4.6947   21.6154 H   0  0  0  0  0  0  0  0  0  0  0  0
    7.8236   -3.8087   21.2526 H   0  0  0  0  0  0  0  0  0  0  0  0
    7.2616   -3.9522   22.9250 H   0  0  0  0  0  0  0  0  0  0  0  0
  1  2  1  0
  2  3  1  0
  3  4  1  0
  4  5  1  0
  5  6  2  0
  6  7  1  0
  7  8  2  0
  8  9  1  0
  9 10  2  0
 10 11  1  0
  8 12  1  0
  7 13  1  0
  6 14  1  0
  4 15  1  0
  4 16  1  0
  3 17  1  0
 17 18  2  0
 17 19  1  0
 19 20  2  0
 20 21  1  0
 21 22  2  0
 22 23  1  0
 23 24  2  0
 24 25  1  0
 25 26  2  0
 26 27  1  0
 27 28  2  0
 28 29  1  0
 26 30  1  0
 25 31  1  0
 23 32  1  0
 20 33  1  0
  2 34  1  0
  2 35  1  0
  1 36  1  0
  1 37  1  0
  1 38  1  0
 10  5  1  0
 28 19  1  0
 27 22  1  0
M  END
>  <cnnaffinity>  (1) 
5.11004

>  <plip>  (1) 
-0.03571428571428571

>  <filename>  (1) 
[H][c]1[n][c]([H])[c]([C]([H])([H])[N]([C](=[O])[c]2[c]([H])[n][c]3[c]([H])[n][c]([H])[c]([H])[c]3[c]2[H])[C]([H])([H])[C]([H])([H])[H])[c]([H])[c]1[H]

>  <combo1>  (1) 
-0.2080912408200312

$$$$
