
     RDKit          3D

 33 33  0  0  0  0  0  0  0  0999 V2000
    4.9775    1.8240   16.9519 H   0  0  0  0  0  0  0  0  0  0  0  0
    5.4373    1.3004   17.7887 C   0  0  0  0  0  0  0  0  0  0  0  0
    6.5978    0.6872   17.5329 N   0  0  0  0  0  0  0  0  0  0  0  0
    7.1985    0.0690   18.5614 C   0  0  0  0  0  0  0  0  0  0  0  0
    8.1494   -0.4070   18.3414 H   0  0  0  0  0  0  0  0  0  0  0  0
    6.6953    0.0129   19.8688 C   0  0  0  0  0  0  0  0  0  0  0  0
    7.4931   -0.6550   20.9842 C   0  0  1  0  0  0  0  0  0  0  0  0
    8.6406   -1.3630   20.3970 N   0  0  0  0  0  0  0  0  0  0  0  0
    8.2937   -2.1726   19.8864 H   0  0  0  0  0  0  0  0  0  0  0  0
    9.2358   -1.7208   21.1397 H   0  0  0  0  0  0  0  0  0  0  0  0
    8.0878    0.4002   21.9311 C   0  0  0  0  0  0  0  0  0  0  0  0
    8.8000    1.0455   21.4175 H   0  0  0  0  0  0  0  0  0  0  0  0
    7.3023    1.0324   22.3583 H   0  0  0  0  0  0  0  0  0  0  0  0
    8.6133   -0.0898   22.7608 H   0  0  0  0  0  0  0  0  0  0  0  0
    6.5868   -1.5447   21.8969 C   0  0  0  0  0  0  0  0  0  0  0  0
    6.0404   -0.8750   22.5721 H   0  0  0  0  0  0  0  0  0  0  0  0
    7.2642   -2.1295   22.5428 H   0  0  0  0  0  0  0  0  0  0  0  0
    5.6860   -2.3924   21.2044 O   0  0  0  0  0  0  0  0  0  0  0  0
    5.1432   -3.4493   21.9818 C   0  0  0  0  0  0  0  0  0  0  0  0
    4.1122   -3.5972   21.6644 H   0  0  0  0  0  0  0  0  0  0  0  0
    5.1057   -3.2224   23.0609 H   0  0  0  0  0  0  0  0  0  0  0  0
    5.9222   -4.7422   21.7732 C   0  0  0  0  0  0  0  0  0  0  0  0
    6.0358   -4.9464   20.6940 H   0  0  0  0  0  0  0  0  0  0  0  0
    6.9325   -4.6312   22.2125 H   0  0  0  0  0  0  0  0  0  0  0  0
    5.1895   -5.7609   22.4190 O   0  0  0  0  0  0  0  0  0  0  0  0
    5.8563   -6.9968   22.5031 C   0  0  0  0  0  0  0  0  0  0  0  0
    6.8184   -6.9064   23.0282 H   0  0  0  0  0  0  0  0  0  0  0  0
    5.2076   -7.6792   23.0591 H   0  0  0  0  0  0  0  0  0  0  0  0
    6.0532   -7.4298   21.5149 H   0  0  0  0  0  0  0  0  0  0  0  0
    5.4627    0.6481   20.1046 C   0  0  0  0  0  0  0  0  0  0  0  0
    5.0038    0.6377   21.0957 H   0  0  0  0  0  0  0  0  0  0  0  0
    4.8273    1.2997   19.0471 C   0  0  0  0  0  0  0  0  0  0  0  0
    3.8879    1.8181   19.1899 H   0  0  0  0  0  0  0  0  0  0  0  0
  1  2  1  0
  2  3  2  0
  3  4  1  0
  4  5  1  0
  4  6  2  0
  6  7  1  0
  7  8  1  6
  8  9  1  0
  8 10  1  0
  7 11  1  0
 11 12  1  0
 11 13  1  0
 11 14  1  0
  7 15  1  0
 15 16  1  0
 15 17  1  0
 15 18  1  0
 18 19  1  0
 19 20  1  0
 19 21  1  0
 19 22  1  0
 22 23  1  0
 22 24  1  0
 22 25  1  0
 25 26  1  0
 26 27  1  0
 26 28  1  0
 26 29  1  0
  6 30  1  0
 30 31  1  0
 30 32  2  0
 32 33  1  0
 32  2  1  0
M  END
>  <cnnaffinity>  (1) 
3.54587

>  <plip>  (1) 
-0.07142857142857142

>  <filename>  (1) 
[H][c]1[n][c]([H])[c]([C@@]([N]([H])[H])([C]([H])([H])[H])[C]([H])([H])[O][C]([H])([H])[C]([H])([H])[O][C]([H])([H])[H])[c]([H])[c]1[H]

>  <combo1>  (1) 
-0.4014964841160763

$$$$
