
     RDKit          3D

 42 44  0  0  0  0  0  0  0  0999 V2000
    7.5989   -3.4034   25.1903 N   0  0  0  0  0  0  0  0  0  0  0  0
    6.4723   -3.9274   24.5920 C   0  0  0  0  0  0  0  0  0  0  0  0
    5.5556   -4.8133   25.2462 C   0  0  0  0  0  0  0  0  0  0  0  0
    4.4044   -5.2455   24.7218 N   0  0  0  0  0  0  0  0  0  0  0  0
    4.0935   -4.8154   23.4865 C   0  0  0  0  0  0  0  0  0  0  0  0
    4.9166   -3.9583   22.7482 C   0  0  0  0  0  0  0  0  0  0  0  0
    6.1493   -3.5104   23.2796 C   0  0  0  0  0  0  0  0  0  0  0  0
    7.1619   -2.6559   22.5533 C   0  0  0  0  0  0  0  0  0  0  0  0
    8.3748   -2.8049   22.6944 O   0  0  0  0  0  0  0  0  0  0  0  0
    6.6351   -1.7074   21.7379 N   0  0  0  0  0  0  0  0  0  0  0  0
    7.4681   -0.7640   20.9997 C   0  0  0  0  0  0  0  0  0  0  0  0
    6.6339   -0.0679   19.9382 C   0  0  0  0  0  0  0  0  0  0  0  0
    5.4142    0.5927   20.1667 C   0  0  0  0  0  0  0  0  0  0  0  0
    4.8027    1.2704   19.1079 C   0  0  0  0  0  0  0  0  0  0  0  0
    5.4056    1.2633   17.8487 C   0  0  0  0  0  0  0  0  0  0  0  0
    6.5497    0.6135   17.5969 N   0  0  0  0  0  0  0  0  0  0  0  0
    7.1264   -0.0268   18.6211 C   0  0  0  0  0  0  0  0  0  0  0  0
    8.0664   -0.5245   18.3784 H   0  0  0  0  0  0  0  0  0  0  0  0
    4.9613    1.8031   17.0133 H   0  0  0  0  0  0  0  0  0  0  0  0
    3.8810    1.8169   19.2488 H   0  0  0  0  0  0  0  0  0  0  0  0
    4.9574    0.6152   21.1599 H   0  0  0  0  0  0  0  0  0  0  0  0
    8.2834    0.1848   21.9348 C   0  0  0  0  0  0  0  0  0  0  0  0
    7.4805    1.1612   22.8057 C   0  0  0  0  0  0  0  0  0  0  0  0
    8.5216    2.1841   23.2952 C   0  0  0  0  0  0  0  0  0  0  0  0
    9.6205    2.2235   22.2051 C   0  0  0  0  0  0  0  0  0  0  0  0
    9.2548    1.1176   21.1955 C   0  0  0  0  0  0  0  0  0  0  0  0
    8.7338    1.5753   20.3476 H   0  0  0  0  0  0  0  0  0  0  0  0
   10.1288    0.5832   20.8076 H   0  0  0  0  0  0  0  0  0  0  0  0
    9.6560    3.1961   21.7081 H   0  0  0  0  0  0  0  0  0  0  0  0
   10.6114    2.0653   22.6447 H   0  0  0  0  0  0  0  0  0  0  0  0
    8.9528    1.8742   24.2539 H   0  0  0  0  0  0  0  0  0  0  0  0
    8.0703    3.1691   23.4601 H   0  0  0  0  0  0  0  0  0  0  0  0
    6.9511    0.6651   23.6281 H   0  0  0  0  0  0  0  0  0  0  0  0
    6.7361    1.6806   22.1888 H   0  0  0  0  0  0  0  0  0  0  0  0
    8.8668   -0.4701   22.5957 H   0  0  0  0  0  0  0  0  0  0  0  0
    8.2246   -1.3680   20.4807 H   0  0  0  0  0  0  0  0  0  0  0  0
    5.6848   -1.4438   21.9452 H   0  0  0  0  0  0  0  0  0  0  0  0
    4.5791   -3.6539   21.7616 H   0  0  0  0  0  0  0  0  0  0  0  0
    3.1484   -5.1694   23.0811 H   0  0  0  0  0  0  0  0  0  0  0  0
    5.8100   -5.1646   26.2459 H   0  0  0  0  0  0  0  0  0  0  0  0
    7.9497   -3.8217   26.0358 H   0  0  0  0  0  0  0  0  0  0  0  0
    8.3077   -3.1007   24.5258 H   0  0  0  0  0  0  0  0  0  0  0  0
  1  2  1  0
  2  3  2  0
  3  4  1  0
  4  5  2  0
  5  6  1  0
  6  7  2  0
  7  8  1  0
  8  9  2  0
  8 10  1  0
 10 11  1  0
 11 12  1  0
 12 13  2  0
 13 14  1  0
 14 15  2  0
 15 16  1  0
 16 17  2  0
 17 18  1  0
 15 19  1  0
 14 20  1  0
 13 21  1  0
 11 22  1  0
 22 23  1  0
 23 24  1  0
 24 25  1  0
 25 26  1  0
 26 27  1  0
 26 28  1  0
 25 29  1  0
 25 30  1  0
 24 31  1  0
 24 32  1  0
 23 33  1  0
 23 34  1  0
 22 35  1  0
 11 36  1  0
 10 37  1  0
  6 38  1  0
  5 39  1  0
  3 40  1  0
  1 41  1  0
  1 42  1  0
  7  2  1  0
 17 12  1  0
 26 22  1  0
M  END
>  <cnnaffinity>  (1) 
5.50345

>  <plip>  (1) 
-0.03333333333333333

>  <filename>  (1) 
[H][c]1[n][c]([H])[c]([C]([H])([N]([H])[C](=[O])[c]2[c]([H])[c]([H])[n][c]([H])[c]2[N]([H])[H])[C]2([H])[C]([H])([H])[C]([H])([H])[C]([H])([H])[C]2([H])[H])[c]([H])[c]1[H]

>  <combo1>  (1) 
-0.20632526619893948

$$$$
