
     RDKit          3D

 38 40  0  0  0  0  0  0  0  0999 V2000
    4.9254    1.8029   16.9777 H   0  0  0  0  0  0  0  0  0  0  0  0
    5.3929    1.3062   17.8260 C   0  0  0  0  0  0  0  0  0  0  0  0
    6.5539    0.6821   17.5805 N   0  0  0  0  0  0  0  0  0  0  0  0
    7.1599    0.0810   18.6126 C   0  0  0  0  0  0  0  0  0  0  0  0
    8.1052   -0.4050   18.3813 H   0  0  0  0  0  0  0  0  0  0  0  0
    6.6382    0.0466   19.9169 C   0  0  0  0  0  0  0  0  0  0  0  0
    7.3576   -0.7006   21.0145 C   0  0  2  0  0  0  0  0  0  0  0  0
    6.9612   -0.3754   21.9915 H   0  0  0  0  0  0  0  0  0  0  0  0
    8.7833   -0.4297   20.9712 N   0  0  0  0  0  0  0  0  0  0  0  0
    9.3134    0.8721   21.3322 C   0  0  0  0  0  0  0  0  0  0  0  0
   10.3695    0.8865   21.0420 H   0  0  0  0  0  0  0  0  0  0  0  0
    8.7850    1.6236   20.7365 H   0  0  0  0  0  0  0  0  0  0  0  0
    9.1829    1.1541   22.8202 C   0  0  0  0  0  0  0  0  0  0  0  0
   10.1310    0.6489   23.7169 C   0  0  0  0  0  0  0  0  0  0  0  0
   10.9733    0.0840   23.3194 H   0  0  0  0  0  0  0  0  0  0  0  0
   10.0112    0.8480   25.1006 C   0  0  0  0  0  0  0  0  0  0  0  0
   10.7651    0.4554   25.7788 H   0  0  0  0  0  0  0  0  0  0  0  0
    8.9216    1.5594   25.6075 C   0  0  0  0  0  0  0  0  0  0  0  0
    8.8106    1.7104   26.6830 H   0  0  0  0  0  0  0  0  0  0  0  0
    7.9493    2.0687   24.7360 C   0  0  0  0  0  0  0  0  0  0  0  0
    7.0956    2.6249   25.1139 H   0  0  0  0  0  0  0  0  0  0  0  0
    8.0796    1.8621   23.3505 C   0  0  0  0  0  0  0  0  0  0  0  0
    7.1795    2.3083   22.4292 O   0  0  0  0  0  0  0  0  0  0  0  0
    6.0392    3.0241   22.8453 C   0  0  0  0  0  0  0  0  0  0  0  0
    5.5076    3.2725   21.9274 H   0  0  0  0  0  0  0  0  0  0  0  0
    6.3066    3.9492   23.3749 H   0  0  0  0  0  0  0  0  0  0  0  0
    5.3991    2.4165   23.4990 H   0  0  0  0  0  0  0  0  0  0  0  0
    9.5435   -1.5590   21.1288 C   0  0  0  0  0  0  0  0  0  0  0  0
   10.7486   -1.6250   21.2502 O   0  0  0  0  0  0  0  0  0  0  0  0
    8.6901   -2.6320   21.1179 N   0  0  0  0  0  0  0  0  0  0  0  0
    9.1540   -3.4676   20.8093 H   0  0  0  0  0  0  0  0  0  0  0  0
    7.3024   -2.2501   20.8872 C   0  0  0  0  0  0  0  0  0  0  0  0
    6.6344   -2.6815   21.6401 H   0  0  0  0  0  0  0  0  0  0  0  0
    6.9167   -2.5331   19.8966 H   0  0  0  0  0  0  0  0  0  0  0  0
    5.4216    0.6980   20.1521 C   0  0  0  0  0  0  0  0  0  0  0  0
    4.9959    0.7025   21.1580 H   0  0  0  0  0  0  0  0  0  0  0  0
    4.7810    1.3351   19.0844 C   0  0  0  0  0  0  0  0  0  0  0  0
    3.8358    1.8577   19.2087 H   0  0  0  0  0  0  0  0  0  0  0  0
  1  2  1  0
  2  3  2  0
  3  4  1  0
  4  5  1  0
  4  6  2  0
  6  7  1  0
  7  8  1  1
  7  9  1  0
  9 10  1  0
 10 11  1  0
 10 12  1  0
 10 13  1  0
 13 14  2  0
 14 15  1  0
 14 16  1  0
 16 17  1  0
 16 18  2  0
 18 19  1  0
 18 20  1  0
 20 21  1  0
 20 22  2  0
 22 23  1  0
 23 24  1  0
 24 25  1  0
 24 26  1  0
 24 27  1  0
  9 28  1  0
 28 29  2  0
 28 30  1  0
 30 31  1  0
 30 32  1  0
 32 33  1  0
 32 34  1  0
  6 35  1  0
 35 36  1  0
 35 37  2  0
 37 38  1  0
 37  2  1  0
 32  7  1  0
 22 13  1  0
M  END
>  <cnnaffinity>  (1) 
4.91895

>  <plip>  (1) 
-0.06896551724137931

>  <filename>  (1) 
[H][c]1[n][c]([H])[c]([C@]2([H])[N]([C]([H])([H])[c]3[c]([H])[c]([H])[c]([H])[c]([H])[c]3[O][C]([H])([H])[H])[C](=[O])[N]([H])[C]2([H])[H])[c]([H])[c]1[H]

>  <combo1>  (1) 
-0.39910673503720934

$$$$
