
     RDKit          3D

 28 28  0  0  0  0  0  0  0  0999 V2000
    8.7358   -4.9800   24.7303 H   0  0  0  0  0  0  0  0  0  0  0  0
    8.2091   -4.5690   24.0126 O   0  0  0  0  0  0  0  0  0  0  0  0
    8.2561   -3.3017   24.4798 C   0  0  0  0  0  0  0  0  0  0  0  0
    8.9064   -3.1099   25.4822 O   0  0  0  0  0  0  0  0  0  0  0  0
    7.4741   -2.2173   23.6280 C   0  0  1  0  0  0  0  0  0  0  0  0
    6.9961   -2.8053   22.8381 H   0  0  0  0  0  0  0  0  0  0  0  0
    6.4522   -1.3688   24.2635 N   0  0  0  0  0  0  0  0  0  0  0  0
    5.6193   -1.8621   24.5670 H   0  0  0  0  0  0  0  0  0  0  0  0
    6.8125   -0.8519   25.0632 H   0  0  0  0  0  0  0  0  0  0  0  0
    8.4405   -1.1931   22.9992 C   0  0  0  0  0  0  0  0  0  0  0  0
    9.2265   -1.6930   22.4293 H   0  0  0  0  0  0  0  0  0  0  0  0
    8.9239   -0.6238   23.7972 H   0  0  0  0  0  0  0  0  0  0  0  0
    7.7405   -0.2329   22.0507 C   0  0  0  0  0  0  0  0  0  0  0  0
    7.3258   -0.7326   20.9478 N   0  0  0  0  0  0  0  0  0  0  0  0
    6.6738   -0.0002   19.9342 C   0  0  0  0  0  0  0  0  0  0  0  0
    7.1828    0.0313   18.6103 C   0  0  0  0  0  0  0  0  0  0  0  0
    8.1228   -0.4769   18.3930 H   0  0  0  0  0  0  0  0  0  0  0  0
    6.5852    0.6636   17.5909 N   0  0  0  0  0  0  0  0  0  0  0  0
    5.4218    1.2946   17.8444 C   0  0  0  0  0  0  0  0  0  0  0  0
    4.9525    1.8002   17.0025 H   0  0  0  0  0  0  0  0  0  0  0  0
    4.8124    1.2985   19.1028 C   0  0  0  0  0  0  0  0  0  0  0  0
    3.8723    1.8241   19.2489 H   0  0  0  0  0  0  0  0  0  0  0  0
    5.4480    0.6378   20.1624 C   0  0  0  0  0  0  0  0  0  0  0  0
    5.0217    0.6095   21.1653 H   0  0  0  0  0  0  0  0  0  0  0  0
    7.6839    1.2439   22.3718 C   0  0  0  0  0  0  0  0  0  0  0  0
    8.2988    1.4823   23.2390 H   0  0  0  0  0  0  0  0  0  0  0  0
    8.0498    1.8265   21.5181 H   0  0  0  0  0  0  0  0  0  0  0  0
    6.6599    1.5699   22.5844 H   0  0  0  0  0  0  0  0  0  0  0  0
  1  2  1  0
  2  3  1  0
  3  4  2  0
  3  5  1  0
  5  6  1  6
  5  7  1  0
  7  8  1  0
  7  9  1  0
  5 10  1  0
 10 11  1  0
 10 12  1  0
 10 13  1  0
 13 14  2  3
 14 15  1  0
 15 16  2  0
 16 17  1  0
 16 18  1  0
 18 19  2  0
 19 20  1  0
 19 21  1  0
 21 22  1  0
 21 23  2  0
 23 24  1  0
 13 25  1  0
 25 26  1  0
 25 27  1  0
 25 28  1  0
 23 15  1  0
M  END
>  <cnnaffinity>  (1) 
4.09924

>  <plip>  (1) 
-0.0

>  <filename>  (1) 
[H][O][C](=[O])[C@@]([H])([N]([H])[H])[C]([H])([H])[C](=[N][c]1[c]([H])[n][c]([H])[c]([H])[c]1[H])[C]([H])([H])[H]

>  <combo1>  (1) 
-6.593608804260581e-06

$$$$
