
     RDKit          3D

 27 28  0  0  0  0  0  0  0  0999 V2000
    4.9038    1.8167   16.9583 H   0  0  0  0  0  0  0  0  0  0  0  0
    5.3760    1.2902   17.7878 C   0  0  0  0  0  0  0  0  0  0  0  0
    6.5054    0.6254   17.5019 N   0  0  0  0  0  0  0  0  0  0  0  0
    7.1257    0.0076   18.5142 C   0  0  0  0  0  0  0  0  0  0  0  0
    8.0374   -0.5314   18.2479 H   0  0  0  0  0  0  0  0  0  0  0  0
    6.6848    0.0253   19.8570 C   0  0  0  0  0  0  0  0  0  0  0  0
    7.4445   -0.6228   21.0009 C   0  0  0  0  0  0  0  0  0  0  0  0
    8.0419   -1.4857   20.6888 H   0  0  0  0  0  0  0  0  0  0  0  0
    6.7716   -0.9481   21.7972 H   0  0  0  0  0  0  0  0  0  0  0  0
    8.7067    0.3317   21.9099 S   0  0  0  0  0  0  0  0  0  0  0  0
    9.7244    0.7500   20.9487 O   0  0  0  0  0  0  0  0  0  0  0  0
    9.0657   -0.5273   23.0358 O   0  0  0  0  0  0  0  0  0  0  0  0
    7.8696    1.8340   22.5040 C   0  0  0  0  0  0  0  0  0  0  0  0
    7.9638    2.9874   21.7031 C   0  0  0  0  0  0  0  0  0  0  0  0
    8.6580    3.0726   20.8716 H   0  0  0  0  0  0  0  0  0  0  0  0
    7.1782    4.0927   22.0120 C   0  0  0  0  0  0  0  0  0  0  0  0
    7.2144    5.1627   21.2075 F   0  0  0  0  0  0  0  0  0  0  0  0
    6.3618    4.1399   23.1337 C   0  0  0  0  0  0  0  0  0  0  0  0
    5.7612    5.0144   23.3396 H   0  0  0  0  0  0  0  0  0  0  0  0
    6.3735    3.0302   23.9693 C   0  0  0  0  0  0  0  0  0  0  0  0
    5.6590    3.0895   25.1026 F   0  0  0  0  0  0  0  0  0  0  0  0
    7.0999    1.8734   23.6857 C   0  0  0  0  0  0  0  0  0  0  0  0
    7.0314    1.0592   24.4021 H   0  0  0  0  0  0  0  0  0  0  0  0
    5.4698    0.6751   20.1109 C   0  0  0  0  0  0  0  0  0  0  0  0
    5.0365    0.6690   21.1136 H   0  0  0  0  0  0  0  0  0  0  0  0
    4.8078    1.3220   19.0627 C   0  0  0  0  0  0  0  0  0  0  0  0
    3.8811    1.8581   19.2220 H   0  0  0  0  0  0  0  0  0  0  0  0
  1  2  1  0
  2  3  2  0
  3  4  1  0
  4  5  1  0
  4  6  2  0
  6  7  1  0
  7  8  1  0
  7  9  1  0
  7 10  1  0
 10 11  2  0
 10 12  2  0
 10 13  1  0
 13 14  2  0
 14 15  1  0
 14 16  1  0
 16 17  1  0
 16 18  2  0
 18 19  1  0
 18 20  1  0
 20 21  1  0
 20 22  2  0
 22 23  1  0
  6 24  1  0
 24 25  1  0
 24 26  2  0
 26 27  1  0
 26  2  1  0
 22 13  1  0
M  END
>  <cnnaffinity>  (1) 
4.3625

>  <plip>  (1) 
-0.034482758620689655

>  <filename>  (1) 
[H][c]1[n][c]([H])[c]([C]([H])([H])[S](=[O])(=[O])[c]2[c]([H])[c]([F])[c]([H])[c]([F])[c]2[H])[c]([H])[c]1[H]

>  <combo1>  (1) 
-0.1862194292793887

$$$$
