
     RDKit          3D

 42 45  0  0  0  0  0  0  0  0999 V2000
    8.2717    1.1810   22.3219 C   0  0  0  0  0  0  0  0  0  0  0  0
    7.5235   -0.0603   22.2471 N   0  0  0  0  0  0  0  0  0  0  0  0
    6.9410   -0.6549   23.3247 C   0  0  0  0  0  0  0  0  0  0  0  0
    6.8675   -0.1787   24.4342 O   0  0  0  0  0  0  0  0  0  0  0  0
    6.4665   -1.9022   22.9318 N   0  0  0  0  0  0  0  0  0  0  0  0
    5.7351   -2.7618   23.7587 C   0  0  0  0  0  0  0  0  0  0  0  0
    5.0745   -2.2946   24.9028 C   0  0  0  0  0  0  0  0  0  0  0  0
    4.3319   -3.1940   25.6547 C   0  0  0  0  0  0  0  0  0  0  0  0
    4.2848   -4.5394   25.2585 C   0  0  0  0  0  0  0  0  0  0  0  0
    3.5227   -5.5706   26.0630 C   0  0  0  0  0  0  0  0  0  0  0  0
    3.9138   -7.0197   25.7162 C   0  0  0  0  0  0  0  0  0  0  0  0
    3.9523   -7.2310   24.1956 C   0  0  0  0  0  0  0  0  0  0  0  0
    4.9874   -6.3007   23.5489 C   0  0  0  0  0  0  0  0  0  0  0  0
    4.9748   -4.8828   24.0778 C   0  0  0  0  0  0  0  0  0  0  0  0
    5.6914   -4.0170   23.3520 N   0  0  0  0  0  0  0  0  0  0  0  0
    5.9993   -6.6667   23.7439 H   0  0  0  0  0  0  0  0  0  0  0  0
    4.8849   -6.2699   22.4599 H   0  0  0  0  0  0  0  0  0  0  0  0
    2.9548   -7.0154   23.7875 H   0  0  0  0  0  0  0  0  0  0  0  0
    4.1831   -8.2739   23.9431 H   0  0  0  0  0  0  0  0  0  0  0  0
    3.2000   -7.7071   26.1844 H   0  0  0  0  0  0  0  0  0  0  0  0
    4.9017   -7.2469   26.1432 H   0  0  0  0  0  0  0  0  0  0  0  0
    2.4476   -5.4311   25.8683 H   0  0  0  0  0  0  0  0  0  0  0  0
    3.6740   -5.3721   27.1342 H   0  0  0  0  0  0  0  0  0  0  0  0
    3.8056   -2.8462   26.5451 H   0  0  0  0  0  0  0  0  0  0  0  0
    5.1365   -1.2467   25.1374 H   0  0  0  0  0  0  0  0  0  0  0  0
    6.5681   -2.0414   21.5546 C   0  0  0  0  0  0  0  0  0  0  0  0
    6.1333   -2.9359   20.8867 O   0  0  0  0  0  0  0  0  0  0  0  0
    7.3320   -0.8053   21.0228 C   0  0  0  0  0  0  0  0  0  0  0  0
    6.6333   -0.0052   19.9126 C   0  0  0  0  0  0  0  0  0  0  0  0
    5.4152    0.6552   20.1403 C   0  0  0  0  0  0  0  0  0  0  0  0
    4.8014    1.3206   19.0791 C   0  0  0  0  0  0  0  0  0  0  0  0
    5.4226    1.3107   17.8275 C   0  0  0  0  0  0  0  0  0  0  0  0
    6.5897    0.6938   17.5875 N   0  0  0  0  0  0  0  0  0  0  0  0
    7.1723    0.0643   18.6155 C   0  0  0  0  0  0  0  0  0  0  0  0
    8.1239   -0.4155   18.3822 H   0  0  0  0  0  0  0  0  0  0  0  0
    4.9564    1.8022   16.9749 H   0  0  0  0  0  0  0  0  0  0  0  0
    3.8601    1.8487   19.2053 H   0  0  0  0  0  0  0  0  0  0  0  0
    4.9660    0.6698   21.1345 H   0  0  0  0  0  0  0  0  0  0  0  0
    8.2985   -1.1716   20.6453 H   0  0  0  0  0  0  0  0  0  0  0  0
    8.6795    1.3890   21.3279 H   0  0  0  0  0  0  0  0  0  0  0  0
    7.6309    2.0143   22.6305 H   0  0  0  0  0  0  0  0  0  0  0  0
    9.1017    1.1050   23.0327 H   0  0  0  0  0  0  0  0  0  0  0  0
  1  2  1  0
  2  3  1  0
  3  4  2  0
  3  5  1  0
  5  6  1  0
  6  7  2  0
  7  8  1  0
  8  9  2  0
  9 10  1  0
 10 11  1  0
 11 12  1  0
 12 13  1  0
 13 14  1  0
 14 15  2  0
 13 16  1  0
 13 17  1  0
 12 18  1  0
 12 19  1  0
 11 20  1  0
 11 21  1  0
 10 22  1  0
 10 23  1  0
  8 24  1  0
  7 25  1  0
  5 26  1  0
 26 27  2  0
 26 28  1  0
 28 29  1  0
 29 30  2  0
 30 31  1  0
 31 32  2  0
 32 33  1  0
 33 34  2  0
 34 35  1  0
 32 36  1  0
 31 37  1  0
 30 38  1  0
 28 39  1  0
  1 40  1  0
  1 41  1  0
  1 42  1  0
 28  2  1  0
 34 29  1  0
 15  6  1  0
 14  9  1  0
M  END
>  <cnnaffinity>  (1) 
5.43027

>  <plip>  (1) 
-0.10714285714285714

>  <filename>  (1) 
[H][c]1[n][c]([H])[c]([C]2([H])[C](=[O])[N]([c]3[n][c]4[c]([c]([H])[c]3[H])[C]([H])([H])[C]([H])([H])[C]([H])([H])[C]4([H])[H])[C](=[O])[N]2[C]([H])([H])[H])[c]([H])[c]1[H]

>  <combo1>  (1) 
-0.601605042329618

$$$$
