
     RDKit          3D

 32 33  0  0  0  0  0  0  0  0999 V2000
    6.7032    0.5812   24.0225 N   0  0  0  0  0  0  0  0  0  0  0  0
    6.7289   -0.2560   23.2263 C   0  0  0  0  0  0  0  0  0  0  0  0
    6.7604   -1.2642   22.1581 C   0  0  0  0  0  0  0  0  0  0  0  0
    7.5049   -0.6287   20.9516 C   0  0  0  0  0  0  0  0  0  0  0  0
    8.7077   -0.7075   20.8465 O   0  0  0  0  0  0  0  0  0  0  0  0
    6.6784    0.0511   19.9177 C   0  0  0  0  0  0  0  0  0  0  0  0
    5.4433    0.6767   20.1542 C   0  0  0  0  0  0  0  0  0  0  0  0
    4.8137    1.3094   19.0845 C   0  0  0  0  0  0  0  0  0  0  0  0
    5.4235    1.2815   17.8270 C   0  0  0  0  0  0  0  0  0  0  0  0
    6.5958    0.6758   17.5880 N   0  0  0  0  0  0  0  0  0  0  0  0
    7.2083    0.0911   18.6171 C   0  0  0  0  0  0  0  0  0  0  0  0
    8.1639   -0.3843   18.4035 H   0  0  0  0  0  0  0  0  0  0  0  0
    4.9557    1.7711   16.9761 H   0  0  0  0  0  0  0  0  0  0  0  0
    3.8717    1.8284   19.2111 H   0  0  0  0  0  0  0  0  0  0  0  0
    4.9917    0.6990   21.1489 H   0  0  0  0  0  0  0  0  0  0  0  0
    7.3404   -2.6062   22.6008 C   0  0  0  0  0  0  0  0  0  0  0  0
    6.6131   -3.7612   22.3244 C   0  0  0  0  0  0  0  0  0  0  0  0
    7.1704   -5.0180   22.5912 C   0  0  0  0  0  0  0  0  0  0  0  0
    6.4726   -6.4060   21.7771 S   0  0  0  0  0  0  0  0  0  0  0  0
    7.0175   -7.6511   22.2755 O   0  0  0  0  0  0  0  0  0  0  0  0
    5.0643   -6.1949   21.5031 O   0  0  0  0  0  0  0  0  0  0  0  0
    7.1465   -6.2821   20.2723 N   0  0  0  0  0  0  0  0  0  0  0  0
    6.2598   -6.3218   19.7767 H   0  0  0  0  0  0  0  0  0  0  0  0
    7.5267   -7.2248   20.2733 H   0  0  0  0  0  0  0  0  0  0  0  0
    8.3896   -5.1270   23.2696 C   0  0  0  0  0  0  0  0  0  0  0  0
    9.0914   -3.9590   23.5782 C   0  0  0  0  0  0  0  0  0  0  0  0
    8.5820   -2.6995   23.2411 C   0  0  0  0  0  0  0  0  0  0  0  0
    9.1288   -1.7916   23.4920 H   0  0  0  0  0  0  0  0  0  0  0  0
   10.0336   -4.0288   24.1105 H   0  0  0  0  0  0  0  0  0  0  0  0
    8.8041   -6.0974   23.5456 H   0  0  0  0  0  0  0  0  0  0  0  0
    5.6130   -3.6648   21.9020 H   0  0  0  0  0  0  0  0  0  0  0  0
    5.7263   -1.4262   21.8243 H   0  0  0  0  0  0  0  0  0  0  0  0
  1  2  3  0
  2  3  1  0
  3  4  1  0
  4  5  2  0
  4  6  1  0
  6  7  2  0
  7  8  1  0
  8  9  2  0
  9 10  1  0
 10 11  2  0
 11 12  1  0
  9 13  1  0
  8 14  1  0
  7 15  1  0
  3 16  1  0
 16 17  2  0
 17 18  1  0
 18 19  1  0
 19 20  2  0
 19 21  2  0
 19 22  1  0
 22 23  1  0
 22 24  1  0
 18 25  2  0
 25 26  1  0
 26 27  2  0
 27 28  1  0
 26 29  1  0
 25 30  1  0
 17 31  1  0
  3 32  1  0
 11  6  1  0
 27 16  1  0
M  END
>  <cnnaffinity>  (1) 
5.10424

>  <plip>  (1) 
-0.13793103448275862

>  <filename>  (1) 
[H][c]1[n][c]([H])[c]([C](=[O])[C]([H])([C]#[N])[c]2[c]([H])[c]([H])[c]([H])[c]([S](=[O])(=[O])[N]([H])[H])[c]2[H])[c]([H])[c]1[H]

>  <combo1>  (1) 
-0.7788140496849778

$$$$
