
     RDKit          3D

 48 51  0  0  0  0  0  0  0  0999 V2000
    8.1727    1.9590   22.0623 O   0  0  0  0  0  0  0  0  0  0  0  0
    8.9918    1.0930   21.7892 C   0  0  0  0  0  0  0  0  0  0  0  0
    8.6030   -0.1116   21.3058 N   0  0  0  0  0  0  0  0  0  0  0  0
    7.2053   -0.5060   21.2254 C   0  0  0  0  0  0  0  0  0  0  0  0
    6.5283    0.2026   20.0577 C   0  0  0  0  0  0  0  0  0  0  0  0
    5.2791    0.8307   20.1567 C   0  0  0  0  0  0  0  0  0  0  0  0
    4.7141    1.3945   19.0073 C   0  0  0  0  0  0  0  0  0  0  0  0
    5.4133    1.2993   17.8004 C   0  0  0  0  0  0  0  0  0  0  0  0
    6.6058    0.6983   17.6802 N   0  0  0  0  0  0  0  0  0  0  0  0
    7.1423    0.1826   18.7935 C   0  0  0  0  0  0  0  0  0  0  0  0
    8.1212   -0.2824   18.6678 H   0  0  0  0  0  0  0  0  0  0  0  0
    5.0024    1.7217   16.8863 H   0  0  0  0  0  0  0  0  0  0  0  0
    3.7630    1.9146   19.0330 H   0  0  0  0  0  0  0  0  0  0  0  0
    4.7573    0.8883   21.1155 H   0  0  0  0  0  0  0  0  0  0  0  0
    7.1596   -2.0278   21.0367 C   0  0  0  0  0  0  0  0  0  0  0  0
    7.8131   -2.9427   22.0878 C   0  0  0  0  0  0  0  0  0  0  0  0
    7.1198   -4.3020   21.8330 C   0  0  0  0  0  0  0  0  0  0  0  0
    6.0035   -4.0478   20.9837 O   0  0  0  0  0  0  0  0  0  0  0  0
    5.7745   -2.6521   20.9479 C   0  0  0  0  0  0  0  0  0  0  0  0
    5.2635   -2.4103   20.0109 H   0  0  0  0  0  0  0  0  0  0  0  0
    5.1555   -2.3432   21.8096 H   0  0  0  0  0  0  0  0  0  0  0  0
    6.7890   -4.7674   22.7741 H   0  0  0  0  0  0  0  0  0  0  0  0
    7.7713   -5.0157   21.3148 H   0  0  0  0  0  0  0  0  0  0  0  0
    8.9040   -3.0185   21.9944 H   0  0  0  0  0  0  0  0  0  0  0  0
    7.5866   -2.5801   23.0988 H   0  0  0  0  0  0  0  0  0  0  0  0
    7.6525   -2.2023   20.0826 H   0  0  0  0  0  0  0  0  0  0  0  0
    6.6893   -0.2247   22.1591 H   0  0  0  0  0  0  0  0  0  0  0  0
    9.3096   -0.8064   21.1609 H   0  0  0  0  0  0  0  0  0  0  0  0
   10.4867    1.2879   21.9622 C   0  0  0  0  0  0  0  0  0  0  0  0
   11.4155    0.2327   22.0854 C   0  0  0  0  0  0  0  0  0  0  0  0
   12.7460    0.5016   22.4092 C   0  0  0  0  0  0  0  0  0  0  0  0
   13.1787    1.8193   22.5834 C   0  0  0  0  0  0  0  0  0  0  0  0
   12.2778    2.8899   22.4507 C   0  0  0  0  0  0  0  0  0  0  0  0
   12.7127    4.2989   22.6824 C   0  0  0  0  0  0  0  0  0  0  0  0
   12.0746    5.0950   23.6451 C   0  0  0  0  0  0  0  0  0  0  0  0
   12.4791    6.4202   23.8114 C   0  0  0  0  0  0  0  0  0  0  0  0
   13.4908    6.9701   23.1267 N   0  0  0  0  0  0  0  0  0  0  0  0
   14.1329    6.1925   22.2440 C   0  0  0  0  0  0  0  0  0  0  0  0
   13.7602    4.8797   21.9566 C   0  0  0  0  0  0  0  0  0  0  0  0
   14.2735    4.3210   21.1838 H   0  0  0  0  0  0  0  0  0  0  0  0
   14.9842    6.6453   21.7384 H   0  0  0  0  0  0  0  0  0  0  0  0
   11.9690    7.0707   24.5228 H   0  0  0  0  0  0  0  0  0  0  0  0
   11.2671    4.6802   24.2349 H   0  0  0  0  0  0  0  0  0  0  0  0
   10.9405    2.6064   22.1314 C   0  0  0  0  0  0  0  0  0  0  0  0
   10.2164    3.4138   22.0394 H   0  0  0  0  0  0  0  0  0  0  0  0
   14.2153    2.0385   22.8290 H   0  0  0  0  0  0  0  0  0  0  0  0
   13.4472   -0.3199   22.5328 H   0  0  0  0  0  0  0  0  0  0  0  0
   11.1257   -0.8134   21.9627 H   0  0  0  0  0  0  0  0  0  0  0  0
  1  2  2  0
  2  3  1  0
  3  4  1  0
  4  5  1  0
  5  6  2  0
  6  7  1  0
  7  8  2  0
  8  9  1  0
  9 10  2  0
 10 11  1  0
  8 12  1  0
  7 13  1  0
  6 14  1  0
  4 15  1  0
 15 16  1  0
 16 17  1  0
 17 18  1  0
 18 19  1  0
 19 20  1  0
 19 21  1  0
 17 22  1  0
 17 23  1  0
 16 24  1  0
 16 25  1  0
 15 26  1  0
  4 27  1  0
  3 28  1  0
  2 29  1  0
 29 30  2  0
 30 31  1  0
 31 32  2  0
 32 33  1  0
 33 34  1  0
 34 35  2  0
 35 36  1  0
 36 37  2  0
 37 38  1  0
 38 39  2  0
 39 40  1  0
 38 41  1  0
 36 42  1  0
 35 43  1  0
 33 44  2  0
 44 45  1  0
 32 46  1  0
 31 47  1  0
 30 48  1  0
 10  5  1  0
 19 15  1  0
 44 29  1  0
 39 34  1  0
M  END
>  <cnnaffinity>  (1) 
5.47446

>  <plip>  (1) 
-0.06451612903225806

>  <filename>  (1) 
[H][c]1[n][c]([H])[c]([C]([H])([N]([H])[C](=[O])[c]2[c]([H])[c]([H])[c]([H])[c](-[c]3[c]([H])[c]([H])[n][c]([H])[c]3[H])[c]2[H])[C]2([H])[C]([H])([H])[O][C]([H])([H])[C]2([H])[H])[c]([H])[c]1[H]

>  <combo1>  (1) 
-0.3275482016772301

$$$$
