
     RDKit          3D

 31 33  0  0  0  0  0  0  0  0999 V2000
    4.9545    1.7814   16.9808 H   0  0  0  0  0  0  0  0  0  0  0  0
    5.4227    1.2962   17.8356 C   0  0  0  0  0  0  0  0  0  0  0  0
    6.5929    0.6841   17.6035 N   0  0  0  0  0  0  0  0  0  0  0  0
    7.1898    0.0908   18.6442 C   0  0  0  0  0  0  0  0  0  0  0  0
    8.1400   -0.3972   18.4271 H   0  0  0  0  0  0  0  0  0  0  0  0
    6.6587    0.0529   19.9389 C   0  0  0  0  0  0  0  0  0  0  0  0
    7.4175   -0.6495   21.0133 C   0  0  0  0  0  0  0  0  0  0  0  0
    8.5706    0.0345   21.4850 O   0  0  0  0  0  0  0  0  0  0  0  0
    8.3495    1.0438   22.3578 C   0  0  0  0  0  0  0  0  0  0  0  0
    7.2457    1.4277   22.6665 O   0  0  0  0  0  0  0  0  0  0  0  0
    9.6066    1.6908   22.8796 C   0  0  0  0  0  0  0  0  0  0  0  0
    9.5181    3.0619   23.1933 C   0  0  0  0  0  0  0  0  0  0  0  0
    8.5611    3.5617   23.0708 H   0  0  0  0  0  0  0  0  0  0  0  0
   10.6279    3.7761   23.6249 C   0  0  0  0  0  0  0  0  0  0  0  0
   10.5369    4.8305   23.8794 H   0  0  0  0  0  0  0  0  0  0  0  0
   11.8567    3.1272   23.7477 C   0  0  0  0  0  0  0  0  0  0  0  0
   12.7619    3.6618   24.0057 H   0  0  0  0  0  0  0  0  0  0  0  0
   11.9561    1.7504   23.5310 C   0  0  0  0  0  0  0  0  0  0  0  0
   13.4796    0.9791   23.8501 Cl  0  0  0  0  0  0  0  0  0  0  0  0
   10.8305    1.0231   23.1026 C   0  0  0  0  0  0  0  0  0  0  0  0
   10.9764   -0.6859   22.8741 Cl  0  0  0  0  0  0  0  0  0  0  0  0
    7.6019   -2.1244   20.8921 C   0  0  0  0  0  0  0  0  0  0  0  0
    8.5826   -2.5206   21.1198 H   0  0  0  0  0  0  0  0  0  0  0  0
    7.0696   -2.5701   20.0652 H   0  0  0  0  0  0  0  0  0  0  0  0
    6.7333   -1.5704   21.9761 C   0  0  0  0  0  0  0  0  0  0  0  0
    5.6649   -1.6735   21.8402 H   0  0  0  0  0  0  0  0  0  0  0  0
    7.0751   -1.5784   23.0033 H   0  0  0  0  0  0  0  0  0  0  0  0
    5.4340    0.6948   20.1593 C   0  0  0  0  0  0  0  0  0  0  0  0
    5.0143    0.7102   21.1679 H   0  0  0  0  0  0  0  0  0  0  0  0
    4.8012    1.3256   19.0890 C   0  0  0  0  0  0  0  0  0  0  0  0
    3.8515    1.8366   19.2116 H   0  0  0  0  0  0  0  0  0  0  0  0
  1  2  1  0
  2  3  2  0
  3  4  1  0
  4  5  1  0
  4  6  2  0
  6  7  1  0
  7  8  1  0
  8  9  1  0
  9 10  2  0
  9 11  1  0
 11 12  2  0
 12 13  1  0
 12 14  1  0
 14 15  1  0
 14 16  2  0
 16 17  1  0
 16 18  1  0
 18 19  1  0
 18 20  2  0
 20 21  1  0
  7 22  1  0
 22 23  1  0
 22 24  1  0
 22 25  1  0
 25 26  1  0
 25 27  1  0
  6 28  1  0
 28 29  1  0
 28 30  2  0
 30 31  1  0
 30  2  1  0
 25  7  1  0
 20 11  1  0
M  END
>  <cnnaffinity>  (1) 
5.28439

>  <plip>  (1) 
-0.07142857142857142

>  <filename>  (1) 
[H][c]1[n][c]([H])[c]([C]2([O][C](=[O])[c]3[c]([H])[c]([H])[c]([H])[c]([Cl])[c]3[Cl])[C]([H])([H])[C]2([H])[H])[c]([H])[c]1[H]

>  <combo1>  (1) 
-0.4082852296952581

$$$$
