
     RDKit          3D

 28 29  0  0  0  0  0  0  0  0999 V2000
    7.9929   -2.1337   22.1637 H   0  0  0  0  0  0  0  0  0  0  0  0
    7.9779   -1.4987   22.8892 O   0  0  0  0  0  0  0  0  0  0  0  0
    7.0021   -0.6318   22.3615 C   0  0  1  0  0  0  0  0  0  0  0  0
    5.9815   -0.9955   22.5669 H   0  0  0  0  0  0  0  0  0  0  0  0
    7.1637    0.7373   22.9394 C   0  0  0  0  0  0  0  0  0  0  0  0
    8.3721    1.4025   22.7597 C   0  0  0  0  0  0  0  0  0  0  0  0
    9.1886    0.9706   22.1775 H   0  0  0  0  0  0  0  0  0  0  0  0
    8.6548    2.5935   23.2969 N   0  0  0  0  0  0  0  0  0  0  0  0
    7.7184    3.1489   24.0596 C   0  0  0  0  0  0  0  0  0  0  0  0
    8.1388    4.3229   24.6192 N   0  0  0  0  0  0  0  0  0  0  0  0
    8.9367    4.5612   24.0465 H   0  0  0  0  0  0  0  0  0  0  0  0
    7.4321    5.0339   24.6249 H   0  0  0  0  0  0  0  0  0  0  0  0
    6.4512    2.6031   24.2975 C   0  0  0  0  0  0  0  0  0  0  0  0
    5.7418    3.1577   24.9029 H   0  0  0  0  0  0  0  0  0  0  0  0
    6.1769    1.3673   23.7231 C   0  0  0  0  0  0  0  0  0  0  0  0
    5.2008    0.8992   23.8889 H   0  0  0  0  0  0  0  0  0  0  0  0
    7.3242   -0.7504   20.9566 N   0  0  0  0  0  0  0  0  0  0  0  0
    8.3314   -0.7649   20.9251 H   0  0  0  0  0  0  0  0  0  0  0  0
    6.6731   -0.0575   19.9229 C   0  0  0  0  0  0  0  0  0  0  0  0
    7.2105   -0.0088   18.6036 C   0  0  0  0  0  0  0  0  0  0  0  0
    8.1477   -0.5215   18.3779 H   0  0  0  0  0  0  0  0  0  0  0  0
    6.6434    0.6384   17.5781 N   0  0  0  0  0  0  0  0  0  0  0  0
    5.4867    1.2815   17.8072 C   0  0  0  0  0  0  0  0  0  0  0  0
    5.0449    1.7866   16.9525 H   0  0  0  0  0  0  0  0  0  0  0  0
    4.8574    1.2896   19.0550 C   0  0  0  0  0  0  0  0  0  0  0  0
    3.9196    1.8239   19.1744 H   0  0  0  0  0  0  0  0  0  0  0  0
    5.4490    0.6082   20.1250 C   0  0  0  0  0  0  0  0  0  0  0  0
    4.9861    0.6061   21.1095 H   0  0  0  0  0  0  0  0  0  0  0  0
  1  2  1  0
  2  3  1  0
  3  4  1  6
  3  5  1  0
  5  6  2  0
  6  7  1  0
  6  8  1  0
  8  9  2  0
  9 10  1  0
 10 11  1  0
 10 12  1  0
  9 13  1  0
 13 14  1  0
 13 15  2  0
 15 16  1  0
  3 17  1  0
 17 18  1  0
 17 19  1  0
 19 20  2  0
 20 21  1  0
 20 22  1  0
 22 23  2  0
 23 24  1  0
 23 25  1  0
 25 26  1  0
 25 27  2  0
 27 28  1  0
 15  5  1  0
 27 19  1  0
M  END
>  <cnnaffinity>  (1) 
4.24382

>  <plip>  (1) 
-0.03571428571428571

>  <filename>  (1) 
[H][O][C@@]([H])([c]1[c]([H])[n][c]([N]([H])[H])[c]([H])[c]1[H])[N]([H])[c]1[c]([H])[n][c]([H])[c]([H])[c]1[H]

>  <combo1>  (1) 
-0.23363268653311384

$$$$
