
     RDKit          3D

 36 37  0  0  0  0  0  0  0  0999 V2000
    8.0817   -1.8621   20.7106 C   0  0  0  0  0  0  0  0  0  0  0  0
    7.5976   -0.5089   21.1566 C   0  0  0  0  0  0  0  0  0  0  0  0
    6.7508   -0.6830   22.3974 C   0  0  0  0  0  0  0  0  0  0  0  0
    5.9450   -1.3853   22.1739 H   0  0  0  0  0  0  0  0  0  0  0  0
    7.3565   -1.0872   23.2131 H   0  0  0  0  0  0  0  0  0  0  0  0
    6.3274    0.2777   22.7032 H   0  0  0  0  0  0  0  0  0  0  0  0
    8.7685    0.2951   21.4301 N   0  0  0  0  0  4  0  0  0  0  0  0
    9.6545   -0.2209   22.5063 C   0  0  0  0  0  0  0  0  0  0  0  0
   10.8030    0.7223   22.7412 C   0  0  0  0  0  0  0  0  0  0  0  0
   10.5959    2.0119   23.2545 C   0  0  0  0  0  0  0  0  0  0  0  0
   11.6817    2.8233   23.5996 C   0  0  0  0  0  0  0  0  0  0  0  0
   12.9834    2.3503   23.4546 C   0  0  0  0  0  0  0  0  0  0  0  0
   13.2060    1.0832   22.9116 C   0  0  0  0  0  0  0  0  0  0  0  0
   14.4713    0.6383   22.7658 F   0  0  0  0  0  0  0  0  0  0  0  0
   12.1224    0.2842   22.5316 C   0  0  0  0  0  0  0  0  0  0  0  0
   12.5406   -1.6999   21.5836 I   0  0  0  0  0  0  0  0  0  0  0  0
   13.8195    2.9773   23.7410 H   0  0  0  0  0  0  0  0  0  0  0  0
   11.5195    3.8292   23.9697 H   0  0  0  0  0  0  0  0  0  0  0  0
    9.5828    2.3869   23.3786 H   0  0  0  0  0  0  0  0  0  0  0  0
    9.1071   -0.3553   23.4518 H   0  0  0  0  0  0  0  0  0  0  0  0
   10.0700   -1.2068   22.2336 H   0  0  0  0  0  0  0  0  0  0  0  0
    9.2992    0.3555   20.5658 H   0  0  0  0  0  0  0  0  0  0  0  0
    8.4437    1.2287   21.6719 H   0  0  0  0  0  0  0  0  0  0  0  0
    6.8479    0.1737   20.0496 C   0  0  0  0  0  0  0  0  0  0  0  0
    5.5897    0.7685   20.2380 C   0  0  0  0  0  0  0  0  0  0  0  0
    4.9566    1.3249   19.1294 C   0  0  0  0  0  0  0  0  0  0  0  0
    5.5766    1.2793   17.8793 C   0  0  0  0  0  0  0  0  0  0  0  0
    6.7840    0.7134   17.6963 N   0  0  0  0  0  0  0  0  0  0  0  0
    7.4025    0.1806   18.7622 C   0  0  0  0  0  0  0  0  0  0  0  0
    8.3656   -0.2947   18.6026 H   0  0  0  0  0  0  0  0  0  0  0  0
    5.0562    1.7167   17.0320 H   0  0  0  0  0  0  0  0  0  0  0  0
    3.9840    1.7951   19.2182 H   0  0  0  0  0  0  0  0  0  0  0  0
    5.1039    0.7870   21.2143 H   0  0  0  0  0  0  0  0  0  0  0  0
    8.8587   -1.7372   19.9514 H   0  0  0  0  0  0  0  0  0  0  0  0
    7.2428   -2.4241   20.2956 H   0  0  0  0  0  0  0  0  0  0  0  0
    8.5006   -2.4087   21.5590 H   0  0  0  0  0  0  0  0  0  0  0  0
  1  2  1  0
  2  3  1  0
  3  4  1  0
  3  5  1  0
  3  6  1  0
  2  7  1  0
  7  8  1  0
  8  9  1  0
  9 10  2  0
 10 11  1  0
 11 12  2  0
 12 13  1  0
 13 14  1  0
 13 15  2  0
 15 16  1  0
 12 17  1  0
 11 18  1  0
 10 19  1  0
  8 20  1  0
  8 21  1  0
  7 22  1  0
  7 23  1  0
  2 24  1  0
 24 25  2  0
 25 26  1  0
 26 27  2  0
 27 28  1  0
 28 29  2  0
 29 30  1  0
 27 31  1  0
 26 32  1  0
 25 33  1  0
  1 34  1  0
  1 35  1  0
  1 36  1  0
 15  9  1  0
 29 24  1  0
M  CHG  1   7   1
M  END
>  <cnnaffinity>  (1) 
4.70646

>  <plip>  (1) 
-0.1

>  <filename>  (1) 
[H][c]1[n][c]([H])[c]([C]([C]([H])([H])[H])([C]([H])([H])[H])[N+]([H])([H])[C]([H])([H])[c]2[c]([H])[c]([H])[c]([H])[c]([F])[c]2[I])[c]([H])[c]1[H]

>  <combo1>  (1) 
-0.42261534358609676

$$$$
