
     RDKit          3D

 45 48  0  0  0  0  0  0  0  0999 V2000
    5.2625   -2.3755   21.4229 O   0  0  0  0  0  0  0  0  0  0  0  0
    6.3016   -2.9407   21.1443 C   0  0  0  0  0  0  0  0  0  0  0  0
    6.4340   -4.4622   21.2979 C   0  0  0  0  0  0  0  0  0  0  0  0
    6.3944   -4.8487   22.7617 C   0  0  0  0  0  0  0  0  0  0  0  0
    5.3315   -5.1903   23.5250 C   0  0  0  0  0  0  0  0  0  0  0  0
    5.6574   -5.3814   24.8393 O   0  0  0  0  0  0  0  0  0  0  0  0
    6.9854   -5.1244   24.9393 C   0  0  0  0  0  0  0  0  0  0  0  0
    7.7378   -5.1555   26.1169 C   0  0  0  0  0  0  0  0  0  0  0  0
    9.0714   -4.7936   25.9796 C   0  0  0  0  0  0  0  0  0  0  0  0
    9.8354   -4.7622   27.0825 F   0  0  0  0  0  0  0  0  0  0  0  0
    9.6597   -4.4439   24.7456 C   0  0  0  0  0  0  0  0  0  0  0  0
    8.8673   -4.4071   23.5982 C   0  0  0  0  0  0  0  0  0  0  0  0
    7.5091   -4.7744   23.6836 C   0  0  0  0  0  0  0  0  0  0  0  0
    9.2788   -4.0338   22.6651 H   0  0  0  0  0  0  0  0  0  0  0  0
   10.7210   -4.2111   24.7116 H   0  0  0  0  0  0  0  0  0  0  0  0
    7.3160   -5.4569   27.0693 H   0  0  0  0  0  0  0  0  0  0  0  0
    4.2756   -5.3078   23.3064 H   0  0  0  0  0  0  0  0  0  0  0  0
    5.5787   -4.9002   20.7744 H   0  0  0  0  0  0  0  0  0  0  0  0
    7.3569   -4.8238   20.8187 H   0  0  0  0  0  0  0  0  0  0  0  0
    7.4181   -2.2758   20.7482 N   0  0  0  0  0  0  0  0  0  0  0  0
    7.5998   -0.8220   20.8628 C   0  0  0  0  0  0  0  0  0  0  0  0
    6.7519   -0.1019   19.8170 C   0  0  0  0  0  0  0  0  0  0  0  0
    5.5499    0.5715   20.0737 C   0  0  0  0  0  0  0  0  0  0  0  0
    4.9371    1.2716   19.0314 C   0  0  0  0  0  0  0  0  0  0  0  0
    5.5219    1.2416   17.7641 C   0  0  0  0  0  0  0  0  0  0  0  0
    6.6216    0.5295   17.4762 N   0  0  0  0  0  0  0  0  0  0  0  0
    7.1998   -0.1318   18.4848 C   0  0  0  0  0  0  0  0  0  0  0  0
    8.0939   -0.6950   18.2123 H   0  0  0  0  0  0  0  0  0  0  0  0
    5.0771    1.7944   16.9396 H   0  0  0  0  0  0  0  0  0  0  0  0
    4.0331    1.8433   19.1965 H   0  0  0  0  0  0  0  0  0  0  0  0
    5.0985    0.5437   21.0682 H   0  0  0  0  0  0  0  0  0  0  0  0
    7.4415   -0.3108   22.3190 C   0  0  0  0  0  0  0  0  0  0  0  0
    8.1863   -1.1183   23.3858 C   0  0  0  0  0  0  0  0  0  0  0  0
    8.2869   -0.1037   24.5252 C   0  0  0  0  0  0  0  0  0  0  0  0
    8.4268    1.2301   23.7716 C   0  0  0  0  0  0  0  0  0  0  0  0
    8.0052    0.9915   22.4309 O   0  0  0  0  0  0  0  0  0  0  0  0
    9.4610    1.5933   23.7497 H   0  0  0  0  0  0  0  0  0  0  0  0
    7.8066    2.0205   24.2116 H   0  0  0  0  0  0  0  0  0  0  0  0
    9.1078   -0.2837   25.2255 H   0  0  0  0  0  0  0  0  0  0  0  0
    7.3616   -0.1099   25.1097 H   0  0  0  0  0  0  0  0  0  0  0  0
    7.6630   -2.0430   23.6495 H   0  0  0  0  0  0  0  0  0  0  0  0
    9.1864   -1.3795   23.0155 H   0  0  0  0  0  0  0  0  0  0  0  0
    6.3720   -0.2915   22.5735 H   0  0  0  0  0  0  0  0  0  0  0  0
    8.6583   -0.6402   20.6280 H   0  0  0  0  0  0  0  0  0  0  0  0
    8.1421   -2.8136   20.3144 H   0  0  0  0  0  0  0  0  0  0  0  0
  1  2  2  0
  2  3  1  0
  3  4  1  0
  4  5  2  0
  5  6  1  0
  6  7  1  0
  7  8  2  0
  8  9  1  0
  9 10  1  0
  9 11  2  0
 11 12  1  0
 12 13  2  0
 12 14  1  0
 11 15  1  0
  8 16  1  0
  5 17  1  0
  3 18  1  0
  3 19  1  0
  2 20  1  0
 20 21  1  0
 21 22  1  0
 22 23  2  0
 23 24  1  0
 24 25  2  0
 25 26  1  0
 26 27  2  0
 27 28  1  0
 25 29  1  0
 24 30  1  0
 23 31  1  0
 21 32  1  0
 32 33  1  0
 33 34  1  0
 34 35  1  0
 35 36  1  0
 35 37  1  0
 35 38  1  0
 34 39  1  0
 34 40  1  0
 33 41  1  0
 33 42  1  0
 32 43  1  0
 21 44  1  0
 20 45  1  0
 13  4  1  0
 27 22  1  0
 36 32  1  0
 13  7  1  0
M  END
>  <cnnaffinity>  (1) 
5.41477

>  <plip>  (1) 
-0.14285714285714285

>  <filename>  (1) 
[H][c]1[n][c]([H])[c]([C]([H])([N]([H])[C](=[O])[C]([H])([H])[c]2[c]([H])[o][c]3[c]([H])[c]([F])[c]([H])[c]([H])[c]23)[C]2([H])[O][C]([H])([H])[C]([H])([H])[C]2([H])[H])[c]([H])[c]1[H]

>  <combo1>  (1) 
-0.7275959785546926

$$$$
