
     RDKit          3D

 28 30  0  0  0  0  0  0  0  0999 V2000
   11.2388    3.1943   21.1202 H   0  0  0  0  0  0  0  0  0  0  0  0
   10.4220    2.5227   21.3637 C   0  0  0  0  0  0  0  0  0  0  0  0
    9.3717    2.8637   22.1607 N   0  0  0  0  0  0  0  0  0  0  0  0
    8.6235    1.7850   22.1283 C   0  0  0  0  0  0  0  0  0  0  0  0
    7.6987    1.6302   22.6649 H   0  0  0  0  0  0  0  0  0  0  0  0
    9.1866    0.8470   21.3480 N   0  0  0  0  0  0  0  0  0  0  0  0
    8.7933   -0.5538   21.1739 C   0  0  2  0  0  0  0  0  0  0  0  0
    9.3569   -0.8824   20.2964 H   0  0  0  0  0  0  0  0  0  0  0  0
    7.3552   -0.7109   20.9639 N   0  0  0  0  0  0  0  0  0  0  0  0
    6.6724   -0.0333   19.9029 C   0  0  0  0  0  0  0  0  0  0  0  0
    7.2119    0.0593   18.5997 C   0  0  0  0  0  0  0  0  0  0  0  0
    8.1680   -0.4169   18.3827 H   0  0  0  0  0  0  0  0  0  0  0  0
    6.5988    0.6817   17.5848 N   0  0  0  0  0  0  0  0  0  0  0  0
    5.4291    1.2901   17.8403 C   0  0  0  0  0  0  0  0  0  0  0  0
    4.9563    1.7955   17.0007 H   0  0  0  0  0  0  0  0  0  0  0  0
    4.8248    1.2951   19.1042 C   0  0  0  0  0  0  0  0  0  0  0  0
    3.8869    1.8272   19.2535 H   0  0  0  0  0  0  0  0  0  0  0  0
    5.4520    0.6135   20.1528 C   0  0  0  0  0  0  0  0  0  0  0  0
    5.0171    0.5703   21.1524 H   0  0  0  0  0  0  0  0  0  0  0  0
    6.7718   -1.6591   21.8054 C   0  0  0  0  0  0  0  0  0  0  0  0
    5.6993   -2.1952   21.6485 O   0  0  0  0  0  0  0  0  0  0  0  0
    7.7540   -1.9205   22.9321 C   0  0  0  0  0  0  0  0  0  0  0  0
    7.7333   -2.9860   23.1590 H   0  0  0  0  0  0  0  0  0  0  0  0
    7.4017   -1.3754   23.8150 H   0  0  0  0  0  0  0  0  0  0  0  0
    9.1058   -1.4016   22.4253 C   0  0  0  0  0  0  0  0  0  0  0  0
    9.6422   -0.7958   23.1620 H   0  0  0  0  0  0  0  0  0  0  0  0
    9.7884   -2.2043   22.1441 H   0  0  0  0  0  0  0  0  0  0  0  0
   10.3661    1.3054   20.8661 N   0  0  0  0  0  0  0  0  0  0  0  0
  1  2  1  0
  2  3  1  0
  3  4  2  0
  4  5  1  0
  4  6  1  0
  6  7  1  0
  7  8  1  6
  7  9  1  0
  9 10  1  0
 10 11  2  0
 11 12  1  0
 11 13  1  0
 13 14  2  0
 14 15  1  0
 14 16  1  0
 16 17  1  0
 16 18  2  0
 18 19  1  0
  9 20  1  0
 20 21  2  0
 20 22  1  0
 22 23  1  0
 22 24  1  0
 22 25  1  0
 25 26  1  0
 25 27  1  0
  6 28  1  0
 28  2  2  0
 25  7  1  0
 18 10  1  0
M  END
>  <cnnaffinity>  (1) 
5.06882

>  <plip>  (1) 
-0.10344827586206896

>  <filename>  (1) 
[H][c]1[n][c]([H])[n]([C@]2([H])[N]([c]3[c]([H])[n][c]([H])[c]([H])[c]3[H])[C](=[O])[C]([H])([H])[C]2([H])[H])[n]1

>  <combo1>  (1) 
-0.7624524916866562

$$$$
