
     RDKit          3D

 39 41  0  0  0  0  0  0  0  0999 V2000
   11.4507    0.3921   25.1712 C   0  0  0  0  0  0  0  0  0  0  0  0
   10.5503    0.7245   26.2332 O   0  0  0  0  0  0  0  0  0  0  0  0
    9.2275    0.6761   25.9896 C   0  0  0  0  0  0  0  0  0  0  0  0
    8.3295    1.0080   27.0233 C   0  0  0  0  0  0  0  0  0  0  0  0
    6.9729    1.0205   26.7299 C   0  0  0  0  0  0  0  0  0  0  0  0
    6.5130    0.6562   25.4584 C   0  0  0  0  0  0  0  0  0  0  0  0
    5.0227    0.6322   25.1777 C   0  0  0  0  0  0  0  0  0  0  0  0
    4.5133    1.3504   25.8292 H   0  0  0  0  0  0  0  0  0  0  0  0
    4.6064   -0.3632   25.3734 H   0  0  0  0  0  0  0  0  0  0  0  0
    4.7992    0.8892   24.1368 H   0  0  0  0  0  0  0  0  0  0  0  0
    7.5297    0.3105   24.5485 C   0  0  0  0  0  0  0  0  0  0  0  0
    7.2264   -0.1364   23.2703 N   0  0  0  0  0  0  0  0  0  0  0  0
    7.9032    0.2761   22.1452 C   0  0  0  0  0  0  0  0  0  0  0  0
    8.6786    1.1866   22.0720 O   0  0  0  0  0  0  0  0  0  0  0  0
    7.4425   -0.6688   21.0101 C   0  0  0  0  0  0  0  0  0  0  0  0
    6.6414   -0.0046   19.8999 C   0  0  0  0  0  0  0  0  0  0  0  0
    5.4346    0.6641   20.1416 C   0  0  0  0  0  0  0  0  0  0  0  0
    4.8160    1.3120   19.0720 C   0  0  0  0  0  0  0  0  0  0  0  0
    5.4256    1.2720   17.8121 C   0  0  0  0  0  0  0  0  0  0  0  0
    6.5729    0.6232   17.5599 N   0  0  0  0  0  0  0  0  0  0  0  0
    7.1523    0.0070   18.5953 C   0  0  0  0  0  0  0  0  0  0  0  0
    8.0897   -0.5106   18.3906 H   0  0  0  0  0  0  0  0  0  0  0  0
    4.9709    1.7796   16.9649 H   0  0  0  0  0  0  0  0  0  0  0  0
    3.8859    1.8554   19.1995 H   0  0  0  0  0  0  0  0  0  0  0  0
    4.9855    0.6762   21.1383 H   0  0  0  0  0  0  0  0  0  0  0  0
    6.6893   -1.6626   21.7534 N   0  0  0  0  0  0  0  0  0  0  0  0
    6.0727   -2.8600   21.2116 C   0  0  0  0  0  0  0  0  0  0  0  0
    6.2277   -2.8960   20.1280 H   0  0  0  0  0  0  0  0  0  0  0  0
    4.9957   -2.8616   21.4210 H   0  0  0  0  0  0  0  0  0  0  0  0
    6.5112   -3.7508   21.6778 H   0  0  0  0  0  0  0  0  0  0  0  0
    6.7090   -1.4039   23.0901 C   0  0  0  0  0  0  0  0  0  0  0  0
    6.3598   -2.1503   23.9766 O   0  0  0  0  0  0  0  0  0  0  0  0
    8.3582   -1.1009   20.5830 H   0  0  0  0  0  0  0  0  0  0  0  0
    8.8311    0.3267   24.7772 N   0  0  0  0  0  0  0  0  0  0  0  0
    6.2510    1.3160   27.4934 H   0  0  0  0  0  0  0  0  0  0  0  0
    8.6367    1.2179   28.0306 H   0  0  0  0  0  0  0  0  0  0  0  0
   12.4603    0.4360   25.5761 H   0  0  0  0  0  0  0  0  0  0  0  0
   11.3607    1.1008   24.3415 H   0  0  0  0  0  0  0  0  0  0  0  0
   11.2551   -0.6152   24.7934 H   0  0  0  0  0  0  0  0  0  0  0  0
  1  2  1  0
  2  3  1  0
  3  4  2  0
  4  5  1  0
  5  6  2  0
  6  7  1  0
  7  8  1  0
  7  9  1  0
  7 10  1  0
  6 11  1  0
 11 12  1  0
 12 13  1  0
 13 14  2  0
 13 15  1  0
 15 16  1  0
 16 17  2  0
 17 18  1  0
 18 19  2  0
 19 20  1  0
 20 21  2  0
 21 22  1  0
 19 23  1  0
 18 24  1  0
 17 25  1  0
 15 26  1  0
 26 27  1  0
 27 28  1  0
 27 29  1  0
 27 30  1  0
 26 31  1  0
 31 32  2  0
 15 33  1  0
 11 34  2  0
  5 35  1  0
  4 36  1  0
  1 37  1  0
  1 38  1  0
  1 39  1  0
 34  3  1  0
 31 12  1  0
 21 16  1  0
M  END
>  <cnnaffinity>  (1) 
4.90361

>  <plip>  (1) 
-0.07142857142857142

>  <filename>  (1) 
[H][c]1[n][c]([H])[c]([C]2([H])[C](=[O])[N]([c]3[n][c]([O][C]([H])([H])[H])[c]([H])[c]([H])[c]3[C]([H])([H])[H])[C](=[O])[N]2[C]([H])([H])[H])[c]([H])[c]1[H]

>  <combo1>  (1) 
-0.37381293138843674

$$$$
