
     RDKit          3D

 27 29  0  0  0  0  0  0  0  0999 V2000
    9.4162    0.0740   20.4487 O   0  0  0  0  0  0  0  0  0  0  0  0
    8.6958   -0.6064   21.1658 C   0  0  0  0  0  0  0  0  0  0  0  0
    7.3466   -0.6891   20.9593 N   0  0  0  0  0  0  0  0  0  0  0  0
    6.6693   -0.0078   19.9070 C   0  0  0  0  0  0  0  0  0  0  0  0
    5.4504    0.6284   20.1668 C   0  0  0  0  0  0  0  0  0  0  0  0
    4.8160    1.3026   19.1147 C   0  0  0  0  0  0  0  0  0  0  0  0
    5.3972    1.2954   17.8424 C   0  0  0  0  0  0  0  0  0  0  0  0
    6.5586    0.6763   17.5701 N   0  0  0  0  0  0  0  0  0  0  0  0
    7.1773    0.0611   18.5840 C   0  0  0  0  0  0  0  0  0  0  0  0
    8.1245   -0.4237   18.3726 H   0  0  0  0  0  0  0  0  0  0  0  0
    4.9130    1.7842   16.9994 H   0  0  0  0  0  0  0  0  0  0  0  0
    3.8853    1.8346   19.2687 H   0  0  0  0  0  0  0  0  0  0  0  0
    5.0249    0.6204   21.1719 H   0  0  0  0  0  0  0  0  0  0  0  0
    6.8052   -1.1914   21.6463 H   0  0  0  0  0  0  0  0  0  0  0  0
    9.3351   -1.4146   22.2064 C   0  0  0  0  0  0  0  0  0  0  0  0
   10.6565   -1.8076   22.2539 C   0  0  0  0  0  0  0  0  0  0  0  0
   10.9207   -2.5290   23.3537 N   0  0  0  0  0  0  0  0  0  0  0  0
    9.7912   -2.5719   24.0414 C   0  0  0  0  0  0  0  0  0  0  0  0
    9.4901   -3.1516   25.3056 C   0  0  0  0  0  0  0  0  0  0  0  0
    8.2157   -3.0122   25.7720 C   0  0  0  0  0  0  0  0  0  0  0  0
    7.2560   -2.2895   24.9603 C   0  0  0  0  0  0  0  0  0  0  0  0
    7.5069   -1.7616   23.7867 N   0  0  0  0  0  0  0  0  0  0  0  0
    8.7711   -1.9085   23.3607 N   0  0  0  0  0  0  0  0  0  0  0  0
    6.2410   -2.1627   25.3128 H   0  0  0  0  0  0  0  0  0  0  0  0
    7.9035   -3.4289   26.7256 H   0  0  0  0  0  0  0  0  0  0  0  0
   10.2912   -3.6691   25.8365 H   0  0  0  0  0  0  0  0  0  0  0  0
   11.4523   -1.5925   21.5430 H   0  0  0  0  0  0  0  0  0  0  0  0
  1  2  2  0
  2  3  1  0
  3  4  1  0
  4  5  2  0
  5  6  1  0
  6  7  2  0
  7  8  1  0
  8  9  2  0
  9 10  1  0
  7 11  1  0
  6 12  1  0
  5 13  1  0
  3 14  1  0
  2 15  1  0
 15 16  2  0
 16 17  1  0
 17 18  2  0
 18 19  1  0
 19 20  2  0
 20 21  1  0
 21 22  2  0
 22 23  1  0
 21 24  1  0
 20 25  1  0
 19 26  1  0
 16 27  1  0
  9  4  1  0
 23 15  1  0
 23 18  1  0
M  END
>  <cnnaffinity>  (1) 
5.05691

>  <plip>  (1) 
-0.14285714285714285

>  <filename>  (1) 
[H][c]1[n][c]([H])[c]([N]([H])[C](=[O])[c]2[c]([H])[n][c]3[c]([H])[c]([H])[c]([H])[n][n]23)[c]([H])[c]1[H]

>  <combo1>  (1) 
-1.006550958021878

$$$$
