
     RDKit          3D

 37 38  0  0  0  0  0  0  0  0999 V2000
    9.2693   -2.0080   24.0360 C   0  0  0  0  0  0  0  0  0  0  0  0
    8.7156   -0.7055   25.1698 S   0  0  0  0  0  0  0  0  0  0  0  0
    9.9355    0.5368   24.7324 C   0  0  0  0  0  0  0  0  0  0  0  0
   11.2734    0.2972   25.0773 C   0  0  0  0  0  0  0  0  0  0  0  0
   12.2797    1.1964   24.7233 C   0  0  0  0  0  0  0  0  0  0  0  0
   11.9525    2.3702   24.0426 C   0  0  0  0  0  0  0  0  0  0  0  0
   10.6197    2.6183   23.7005 C   0  0  0  0  0  0  0  0  0  0  0  0
    9.5957    1.7115   24.0252 C   0  0  0  0  0  0  0  0  0  0  0  0
    8.1990    1.9462   23.4715 C   0  0  0  0  0  0  0  0  0  0  0  0
    8.0445    1.2382   22.1354 C   0  0  0  0  0  0  0  0  0  0  0  0
    8.5124    1.6979   21.1074 O   0  0  0  0  0  0  0  0  0  0  0  0
    7.3846    0.0335   22.1792 N   0  0  0  0  0  0  0  0  0  0  0  0
    7.2782   -0.8296   21.0053 C   0  0  0  0  0  0  0  0  0  0  0  0
    6.6394   -2.6453   21.2652 C   0  0  0  0  0  0  0  0  0  0  0  0
    7.6011   -3.3261   21.6092 O   0  0  0  0  0  0  0  0  0  0  0  0
    5.4676   -2.8548   21.0041 O   0  0  0  0  0  1  0  0  0  0  0  0
    6.5949   -0.0871   19.8901 C   0  0  0  0  0  0  0  0  0  0  0  0
    5.3649    0.5648   20.0650 C   0  0  0  0  0  0  0  0  0  0  0  0
    4.8126    1.2592   18.9838 C   0  0  0  0  0  0  0  0  0  0  0  0
    5.5172    1.3030   17.7767 C   0  0  0  0  0  0  0  0  0  0  0  0
    6.7156    0.7280   17.5962 N   0  0  0  0  0  0  0  0  0  0  0  0
    7.2344    0.0783   18.6470 C   0  0  0  0  0  0  0  0  0  0  0  0
    8.2395   -0.3181   18.4980 H   0  0  0  0  0  0  0  0  0  0  0  0
    5.1059    1.8195   16.9110 H   0  0  0  0  0  0  0  0  0  0  0  0
    3.8642    1.7737   19.0676 H   0  0  0  0  0  0  0  0  0  0  0  0
    4.8733    0.5507   21.0408 H   0  0  0  0  0  0  0  0  0  0  0  0
    8.2759   -1.1600   20.6923 H   0  0  0  0  0  0  0  0  0  0  0  0
    7.1274   -0.2959   23.0977 H   0  0  0  0  0  0  0  0  0  0  0  0
    7.4341    1.6212   24.1822 H   0  0  0  0  0  0  0  0  0  0  0  0
    8.0308    3.0077   23.2756 H   0  0  0  0  0  0  0  0  0  0  0  0
   10.3547    3.5140   23.1412 H   0  0  0  0  0  0  0  0  0  0  0  0
   12.7318    3.0743   23.7640 H   0  0  0  0  0  0  0  0  0  0  0  0
   13.3112    0.9661   24.9691 H   0  0  0  0  0  0  0  0  0  0  0  0
   11.5091   -0.6001   25.6373 H   0  0  0  0  0  0  0  0  0  0  0  0
    8.4822   -2.7601   23.9538 H   0  0  0  0  0  0  0  0  0  0  0  0
    9.4300   -1.5753   23.0419 H   0  0  0  0  0  0  0  0  0  0  0  0
   10.2035   -2.4531   24.3917 H   0  0  0  0  0  0  0  0  0  0  0  0
  1  2  1  0
  2  3  1  0
  3  4  2  0
  4  5  1  0
  5  6  2  0
  6  7  1  0
  7  8  2  0
  8  9  1  0
  9 10  1  0
 10 11  2  0
 10 12  1  0
 12 13  1  0
 13 14  1  0
 14 15  2  0
 14 16  1  0
 13 17  1  0
 17 18  2  0
 18 19  1  0
 19 20  2  0
 20 21  1  0
 21 22  2  0
 22 23  1  0
 20 24  1  0
 19 25  1  0
 18 26  1  0
 13 27  1  0
 12 28  1  0
  9 29  1  0
  9 30  1  0
  7 31  1  0
  6 32  1  0
  5 33  1  0
  4 34  1  0
  1 35  1  0
  1 36  1  0
  1 37  1  0
  8  3  1  0
 22 17  1  0
M  CHG  1  16  -1
M  END
>  <cnnaffinity>  (1) 
5.105

>  <plip>  (1) 
-0.13333333333333333

>  <filename>  (1) 
[H][c]1[n][c]([H])[c]([C]([H])([C](=[O])[O-])[N]([H])[C](=[O])[C]([H])([H])[c]2[c]([H])[c]([H])[c]([H])[c]([H])[c]2[S][C]([H])([H])[H])[c]([H])[c]1[H]

>  <combo1>  (1) 
-0.7194280089319002

$$$$
