
     RDKit          3D

 43 45  0  0  0  0  0  0  0  0999 V2000
    6.2691   -0.0426   27.2367 C   0  0  0  0  0  0  0  0  0  0  0  0
    5.8395   -1.2811   26.4536 C   0  0  2  0  0  0  0  0  0  0  0  0
    6.2476   -1.1339   25.0586 N   0  0  0  0  0  0  0  0  0  0  0  0
    7.3845   -1.6798   24.5428 C   0  0  0  0  0  0  0  0  0  0  0  0
    8.1352   -2.3523   25.2397 O   0  0  0  0  0  0  0  0  0  0  0  0
    7.7015   -1.4570   23.0535 C   0  0  0  0  0  0  0  0  0  0  0  0
    8.8277   -1.9579   22.4509 C   0  0  0  0  0  0  0  0  0  0  0  0
    8.8824   -1.5306   20.8000 S   0  0  0  0  0  0  0  0  0  0  0  0
    7.3584   -0.6930   20.9914 C   0  0  0  0  0  0  0  0  0  0  0  0
    6.6576    0.0081   19.9104 C   0  0  0  0  0  0  0  0  0  0  0  0
    5.4339    0.6552   20.1624 C   0  0  0  0  0  0  0  0  0  0  0  0
    4.8041    1.3107   19.1096 C   0  0  0  0  0  0  0  0  0  0  0  0
    5.4050    1.2886   17.8463 C   0  0  0  0  0  0  0  0  0  0  0  0
    6.5694    0.6714   17.5946 N   0  0  0  0  0  0  0  0  0  0  0  0
    7.1782    0.0562   18.6102 C   0  0  0  0  0  0  0  0  0  0  0  0
    8.1237   -0.4274   18.3710 H   0  0  0  0  0  0  0  0  0  0  0  0
    4.9222    1.7747   17.0011 H   0  0  0  0  0  0  0  0  0  0  0  0
    3.8727    1.8452   19.2591 H   0  0  0  0  0  0  0  0  0  0  0  0
    5.0068    0.6318   21.1686 H   0  0  0  0  0  0  0  0  0  0  0  0
    6.8817   -0.7436   22.1987 N   0  0  0  0  0  0  0  0  0  0  0  0
    9.6169   -2.5432   22.9042 H   0  0  0  0  0  0  0  0  0  0  0  0
    5.7176   -0.5199   24.4615 H   0  0  0  0  0  0  0  0  0  0  0  0
    4.3260   -1.5837   26.5659 C   0  0  0  0  0  0  0  0  0  0  0  0
    3.9058   -2.7618   25.6491 C   0  0  0  0  0  0  0  0  0  0  0  0
    2.6188   -3.4889   26.0819 C   0  0  0  0  0  0  0  0  0  0  0  0
    1.7084   -2.5632   26.8468 N   0  0  0  0  0  4  0  0  0  0  0  0
    2.3539   -2.1109   28.1506 C   0  0  0  0  0  0  0  0  0  0  0  0
    3.8759   -1.8696   28.0140 C   0  0  0  0  0  0  0  0  0  0  0  0
    4.4210   -2.7494   28.3864 H   0  0  0  0  0  0  0  0  0  0  0  0
    4.1412   -1.0438   28.6816 H   0  0  0  0  0  0  0  0  0  0  0  0
    1.8553   -1.1951   28.4744 H   0  0  0  0  0  0  0  0  0  0  0  0
    2.1753   -2.8683   28.9202 H   0  0  0  0  0  0  0  0  0  0  0  0
    0.8043   -3.0283   27.0470 H   0  0  0  0  0  0  0  0  0  0  0  0
    1.5522   -1.7059   26.2554 H   0  0  0  0  0  0  0  0  0  0  0  0
    2.8807   -4.3342   26.7246 H   0  0  0  0  0  0  0  0  0  0  0  0
    2.0957   -3.8864   25.2114 H   0  0  0  0  0  0  0  0  0  0  0  0
    3.7877   -2.3941   24.6266 H   0  0  0  0  0  0  0  0  0  0  0  0
    4.7159   -3.5010   25.6106 H   0  0  0  0  0  0  0  0  0  0  0  0
    3.7972   -0.6798   26.2229 H   0  0  0  0  0  0  0  0  0  0  0  0
    6.3883   -2.1479   26.8403 H   0  0  0  0  0  0  0  0  0  0  0  0
    5.6448    0.8211   26.9782 H   0  0  0  0  0  0  0  0  0  0  0  0
    6.2015   -0.2046   28.3164 H   0  0  0  0  0  0  0  0  0  0  0  0
    7.3085    0.2072   27.0016 H   0  0  0  0  0  0  0  0  0  0  0  0
  1  2  1  0
  2  3  1  0
  3  4  1  0
  4  5  2  0
  4  6  1  0
  6  7  2  0
  7  8  1  0
  8  9  1  0
  9 10  1  0
 10 11  2  0
 11 12  1  0
 12 13  2  0
 13 14  1  0
 14 15  2  0
 15 16  1  0
 13 17  1  0
 12 18  1  0
 11 19  1  0
  9 20  2  0
  7 21  1  0
  3 22  1  0
  2 23  1  0
 23 24  1  0
 24 25  1  0
 25 26  1  0
 26 27  1  0
 27 28  1  0
 28 29  1  0
 28 30  1  0
 27 31  1  0
 27 32  1  0
 26 33  1  0
 26 34  1  0
 25 35  1  0
 25 36  1  0
 24 37  1  0
 24 38  1  0
 23 39  1  0
  2 40  1  1
  1 41  1  0
  1 42  1  0
  1 43  1  0
 20  6  1  0
 28 23  1  0
 15 10  1  0
M  CHG  1  26   1
M  END
>  <cnnaffinity>  (1) 
4.96443

>  <plip>  (1) 
-0.07142857142857142

>  <filename>  (1) 
[H][c]1[n][c]([H])[c](-[c]2[n][c]([C](=[O])[N]([H])[C@@]([H])([C]([H])([H])[H])[C]3([H])[C]([H])([H])[C]([H])([H])[N+]([H])([H])[C]([H])([H])[C]3([H])[H])[c]([H])[s]2)[c]([H])[c]1[H]

>  <combo1>  (1) 
-0.37235842679740405

$$$$
