
     RDKit          3D

 46 50  0  0  0  0  0  0  0  0999 V2000
    4.9492    1.8512   16.8807 H   0  0  0  0  0  0  0  0  0  0  0  0
    5.4039    1.3299   17.7201 C   0  0  0  0  0  0  0  0  0  0  0  0
    6.5301    0.6481   17.4618 N   0  0  0  0  0  0  0  0  0  0  0  0
    7.1167    0.0020   18.4753 C   0  0  0  0  0  0  0  0  0  0  0  0
    8.0152   -0.5594   18.2210 H   0  0  0  0  0  0  0  0  0  0  0  0
    6.6343    0.0351   19.8005 C   0  0  0  0  0  0  0  0  0  0  0  0
    7.3992   -0.5788   20.9023 C   0  0  0  0  0  0  0  0  0  0  0  0
    8.1815   -1.6431   20.7308 N   0  0  0  0  0  0  0  0  0  0  0  0
    8.6601   -1.8784   21.9475 N   0  0  0  0  0  0  0  0  0  0  0  0
    8.2991   -1.0050   22.8998 C   0  0  0  0  0  0  0  0  0  0  0  0
    7.4295   -0.1229   22.2788 C   0  0  0  0  0  0  0  0  0  0  0  0
    6.8412    1.0347   22.7704 N   0  0  0  0  0  0  0  0  0  0  0  0
    7.4238    2.3222   22.4531 C   0  0  0  0  0  0  0  0  0  0  0  0
    7.6208    2.3756   21.3721 H   0  0  0  0  0  0  0  0  0  0  0  0
    8.3873    2.4760   22.9712 H   0  0  0  0  0  0  0  0  0  0  0  0
    6.3556    3.3192   22.9134 C   0  0  0  0  0  0  0  0  0  0  0  0
    6.7774    4.2901   23.1997 H   0  0  0  0  0  0  0  0  0  0  0  0
    5.6638    3.4800   22.0793 H   0  0  0  0  0  0  0  0  0  0  0  0
    5.5950    2.6129   24.0492 C   0  0  2  0  0  0  0  0  0  0  0  0
    4.5167    2.7760   23.9392 H   0  0  0  0  0  0  0  0  0  0  0  0
    5.9898    2.9286   25.5113 C   0  0  0  0  0  0  0  0  0  0  0  0
    7.0317    3.2742   25.5612 H   0  0  0  0  0  0  0  0  0  0  0  0
    5.3764    3.7121   25.9702 H   0  0  0  0  0  0  0  0  0  0  0  0
    5.9032    1.6654   26.2653 N   0  0  0  0  0  0  0  0  0  0  0  0
    4.5658    1.3162   26.7381 C   0  0  0  0  0  0  0  0  0  0  0  0
    3.7965    1.1731   25.9557 H   0  0  0  0  0  0  0  0  0  0  0  0
    4.1958    2.0893   27.4197 H   0  0  0  0  0  0  0  0  0  0  0  0
    4.6182    0.3871   27.3178 H   0  0  0  0  0  0  0  0  0  0  0  0
    6.4652    0.6988   25.3015 C   0  0  0  0  0  0  0  0  0  0  0  0
    6.2124   -0.3314   25.5803 H   0  0  0  0  0  0  0  0  0  0  0  0
    7.5577    0.7837   25.3255 H   0  0  0  0  0  0  0  0  0  0  0  0
    5.9324    1.1038   23.8988 C   0  0  2  0  0  0  0  0  0  0  0  0
    5.0147    0.5441   23.6985 H   0  0  0  0  0  0  0  0  0  0  0  0
    9.0598   -1.3088   24.1601 C   0  0  0  0  0  0  0  0  0  0  0  0
    8.3907   -1.7638   24.8958 H   0  0  0  0  0  0  0  0  0  0  0  0
    9.5111   -0.4240   24.6147 H   0  0  0  0  0  0  0  0  0  0  0  0
   10.1408   -2.3061   23.6781 C   0  0  0  0  0  0  0  0  0  0  0  0
   11.0597   -1.7701   23.4550 H   0  0  0  0  0  0  0  0  0  0  0  0
   10.3738   -3.0730   24.4147 H   0  0  0  0  0  0  0  0  0  0  0  0
    9.6080   -2.8875   22.3558 C   0  0  0  0  0  0  0  0  0  0  0  0
   10.3980   -2.9589   21.6111 H   0  0  0  0  0  0  0  0  0  0  0  0
    9.1125   -3.8527   22.4924 H   0  0  0  0  0  0  0  0  0  0  0  0
    5.4266    0.7133   20.0377 C   0  0  0  0  0  0  0  0  0  0  0  0
    4.9875    0.7144   21.0342 H   0  0  0  0  0  0  0  0  0  0  0  0
    4.7976    1.3667   18.9806 C   0  0  0  0  0  0  0  0  0  0  0  0
    3.8601    1.8943   19.1194 H   0  0  0  0  0  0  0  0  0  0  0  0
  1  2  1  0
  2  3  2  0
  3  4  1  0
  4  5  1  0
  4  6  2  0
  6  7  1  0
  7  8  2  0
  8  9  1  0
  9 10  1  0
 10 11  2  0
 11 12  1  0
 12 13  1  0
 13 14  1  0
 13 15  1  0
 13 16  1  0
 16 17  1  0
 16 18  1  0
 16 19  1  0
 19 20  1  1
 19 21  1  0
 21 22  1  0
 21 23  1  0
 21 24  1  0
 24 25  1  0
 25 26  1  0
 25 27  1  0
 25 28  1  0
 24 29  1  0
 29 30  1  0
 29 31  1  0
 29 32  1  0
 32 33  1  6
 10 34  1  0
 34 35  1  0
 34 36  1  0
 34 37  1  0
 37 38  1  0
 37 39  1  0
 37 40  1  0
 40 41  1  0
 40 42  1  0
  6 43  1  0
 43 44  1  0
 43 45  2  0
 45 46  1  0
 45  2  1  0
 11  7  1  0
 32 12  1  0
 40  9  1  0
 32 19  1  0
M  END
>  <cnnaffinity>  (1) 
5.63712

>  <plip>  (1) 
-0.06896551724137931

>  <filename>  (1) 
[H][c]1[n][c]([H])[c](-[c]2[n][n]3[c]([c]2[N]2[C]([H])([H])[C]([H])([H])[C@]4([H])[C]([H])([H])[N]([C]([H])([H])[H])[C]([H])([H])[C@]24[H])[C]([H])([H])[C]([H])([H])[C]3([H])[H])[c]([H])[c]1[H]

>  <combo1>  (1) 
-0.41881656637237563

$$$$
