
     RDKit          3D

 29 29  0  0  0  0  0  0  0  0999 V2000
    4.9317    1.7853   16.9918 H   0  0  0  0  0  0  0  0  0  0  0  0
    5.4061    1.2921   17.8327 C   0  0  0  0  0  0  0  0  0  0  0  0
    6.5717    0.6712   17.5728 N   0  0  0  0  0  0  0  0  0  0  0  0
    7.1859    0.0681   18.5970 C   0  0  0  0  0  0  0  0  0  0  0  0
    8.1266   -0.4074   18.3372 H   0  0  0  0  0  0  0  0  0  0  0  0
    6.6688   -0.0087   19.9147 C   0  0  0  0  0  0  0  0  0  0  0  0
    7.3223   -0.7207   20.9232 N   0  0  0  0  0  0  0  0  0  0  0  0
    8.7148   -0.8852   20.9039 N   0  0  0  0  0  0  0  0  0  0  0  0
    8.9665   -1.4157   20.0656 H   0  0  0  0  0  0  0  0  0  0  0  0
    9.3500    0.3707   20.7588 O   0  0  0  0  0  0  0  0  0  0  0  0
   10.0723    0.6455   21.9583 C   0  0  0  0  0  0  0  0  0  0  0  0
    9.4053    0.6105   22.8260 H   0  0  0  0  0  0  0  0  0  0  0  0
   10.8574   -0.1100   22.1079 H   0  0  0  0  0  0  0  0  0  0  0  0
   10.6761    2.0360   21.8324 C   0  0  0  0  0  0  0  0  0  0  0  0
   11.3195    2.0821   20.9392 H   0  0  0  0  0  0  0  0  0  0  0  0
    9.8859    2.7853   21.7106 H   0  0  0  0  0  0  0  0  0  0  0  0
   11.3949    2.3653   23.0120 O   0  0  0  0  0  0  0  0  0  0  0  0
   12.7692    2.0534   22.9491 C   0  0  0  0  0  0  0  0  0  0  0  0
   13.2768    2.6937   22.2133 H   0  0  0  0  0  0  0  0  0  0  0  0
   12.9641    1.0052   22.6644 H   0  0  0  0  0  0  0  0  0  0  0  0
   13.1889    2.2327   23.9409 H   0  0  0  0  0  0  0  0  0  0  0  0
    6.6344   -1.2300   22.0920 C   0  0  0  0  0  0  0  0  0  0  0  0
    5.7619   -1.8163   21.7807 H   0  0  0  0  0  0  0  0  0  0  0  0
    6.2907   -0.4353   22.7698 H   0  0  0  0  0  0  0  0  0  0  0  0
    7.3185   -1.8827   22.6375 H   0  0  0  0  0  0  0  0  0  0  0  0
    5.4416    0.6384   20.1635 C   0  0  0  0  0  0  0  0  0  0  0  0
    5.0111    0.6233   21.1686 H   0  0  0  0  0  0  0  0  0  0  0  0
    4.8211    1.3019   19.1042 C   0  0  0  0  0  0  0  0  0  0  0  0
    3.8895    1.8316   19.2558 H   0  0  0  0  0  0  0  0  0  0  0  0
  1  2  1  0
  2  3  2  0
  3  4  1  0
  4  5  1  0
  4  6  2  0
  6  7  1  0
  7  8  1  0
  8  9  1  0
  8 10  1  0
 10 11  1  0
 11 12  1  0
 11 13  1  0
 11 14  1  0
 14 15  1  0
 14 16  1  0
 14 17  1  0
 17 18  1  0
 18 19  1  0
 18 20  1  0
 18 21  1  0
  7 22  1  0
 22 23  1  0
 22 24  1  0
 22 25  1  0
  6 26  1  0
 26 27  1  0
 26 28  2  0
 28 29  1  0
 28  2  1  0
M  END
>  <cnnaffinity>  (1) 
4.28062

>  <plip>  (1) 
-0.06896551724137931

>  <filename>  (1) 
[H][c]1[n][c]([H])[c]([N]([N]([H])[O][C]([H])([H])[C]([H])([H])[O][C]([H])([H])[H])[C]([H])([H])[H])[c]([H])[c]1[H]

>  <combo1>  (1) 
-0.49891530775643816

$$$$
