
     RDKit          3D

 23 24  0  0  0  0  0  0  0  0999 V2000
    4.9501    1.7745   16.9963 H   0  0  0  0  0  0  0  0  0  0  0  0
    5.4103    1.2812   17.8549 C   0  0  0  0  0  0  0  0  0  0  0  0
    6.5781    0.6509   17.6243 N   0  0  0  0  0  0  0  0  0  0  0  0
    7.1722    0.0418   18.6559 C   0  0  0  0  0  0  0  0  0  0  0  0
    8.1204   -0.4428   18.4372 H   0  0  0  0  0  0  0  0  0  0  0  0
    6.6479   -0.0013   19.9614 C   0  0  0  0  0  0  0  0  0  0  0  0
    7.4048   -0.7138   20.9531 N   0  0  0  0  0  0  0  0  0  0  0  0
    6.9169   -0.7455   22.1085 N   0  0  0  0  0  0  0  0  0  0  0  0
    7.7082   -1.4650   23.0623 C   0  0  0  0  0  0  0  0  0  0  0  0
    7.2843   -1.5551   24.3233 N   0  0  0  0  0  0  0  0  0  0  0  0
    8.2218   -2.2675   24.9437 N   0  0  0  0  0  0  0  0  0  0  0  0
    8.1687   -2.5308   26.3677 C   0  0  0  0  0  0  0  0  0  0  0  0
    8.5741   -3.5248   26.5636 H   0  0  0  0  0  0  0  0  0  0  0  0
    8.7617   -1.8156   26.9466 H   0  0  0  0  0  0  0  0  0  0  0  0
    7.1366   -2.5024   26.7133 H   0  0  0  0  0  0  0  0  0  0  0  0
    9.2379   -2.6281   24.1224 C   0  0  0  0  0  0  0  0  0  0  0  0
   10.0700   -3.2033   24.5238 H   0  0  0  0  0  0  0  0  0  0  0  0
    8.9415   -2.1273   22.8819 C   0  0  0  0  0  0  0  0  0  0  0  0
    9.4624   -2.1674   21.9409 H   0  0  0  0  0  0  0  0  0  0  0  0
    5.4295    0.6499   20.1878 C   0  0  0  0  0  0  0  0  0  0  0  0
    5.0312    0.6146   21.1966 H   0  0  0  0  0  0  0  0  0  0  0  0
    4.8100    1.3025   19.1178 C   0  0  0  0  0  0  0  0  0  0  0  0
    3.8799    1.8361   19.2565 H   0  0  0  0  0  0  0  0  0  0  0  0
  1  2  1  0
  2  3  2  0
  3  4  1  0
  4  5  1  0
  4  6  2  0
  6  7  1  0
  7  8  2  3
  8  9  1  0
  9 10  2  0
 10 11  1  0
 11 12  1  0
 12 13  1  0
 12 14  1  0
 12 15  1  0
 11 16  1  0
 16 17  1  0
 16 18  2  0
 18 19  1  0
  6 20  1  0
 20 21  1  0
 20 22  2  0
 22 23  1  0
 22  2  1  0
 18  9  1  0
M  END
>  <cnnaffinity>  (1) 
4.01908

>  <plip>  (1) 
-0.03571428571428571

>  <filename>  (1) 
[H][c]1[n][c]([H])[c]([N]=[N][c]2[n][n]([C]([H])([H])[H])[c]([H])[c]2[H])[c]([H])[c]1[H]

>  <combo1>  (1) 
-0.2555804326580903

$$$$
