
     RDKit          3D

 58 61  0  0  0  0  0  0  0  0999 V2000
    3.7621   -4.6490   29.1937 F   0  0  0  0  0  0  0  0  0  0  0  0
    4.3169   -4.5003   27.9772 C   0  0  0  0  0  0  0  0  0  0  0  0
    5.2296   -3.4653   27.7721 C   0  0  0  0  0  0  0  0  0  0  0  0
    5.8080   -3.3229   26.5057 C   0  0  0  0  0  0  0  0  0  0  0  0
    5.4541   -4.1658   25.4317 C   0  0  0  0  0  0  0  0  0  0  0  0
    6.0196   -3.8971   24.1541 N   0  0  0  0  0  0  0  0  0  0  0  0
    5.2807   -4.2253   22.9376 C   0  0  0  0  0  0  0  0  0  0  0  0
    5.7168   -3.2708   21.8225 C   0  0  0  0  0  0  0  0  0  0  0  0
    7.2349   -3.2462   21.6004 C   0  0  0  0  0  0  0  0  0  0  0  0
    7.5522   -2.1405   20.6297 N   0  0  0  0  0  4  0  0  0  0  0  0
    7.4132   -0.6654   21.0543 C   0  0  0  0  0  0  0  0  0  0  0  0
    8.7969   -0.0291   21.3825 C   0  0  0  0  0  0  0  0  0  0  0  0
    8.7840    1.3184   22.0438 N   0  0  0  0  0  4  0  0  0  0  0  0
    8.6977    2.5267   21.1218 C   0  0  0  0  0  0  0  0  0  0  0  0
    8.1689    3.6738   22.0029 C   0  0  0  0  0  0  0  0  0  0  0  0
    7.8615    3.0429   23.3739 C   0  0  0  0  0  0  0  0  0  0  0  0
    7.7138    1.5634   23.0818 C   0  0  0  0  0  0  0  0  0  0  0  0
    7.8637    0.9203   23.9555 H   0  0  0  0  0  0  0  0  0  0  0  0
    6.7363    1.3567   22.6311 H   0  0  0  0  0  0  0  0  0  0  0  0
    8.6867    3.2024   24.0803 H   0  0  0  0  0  0  0  0  0  0  0  0
    6.9535    3.4374   23.8345 H   0  0  0  0  0  0  0  0  0  0  0  0
    8.9035    4.4808   22.0910 H   0  0  0  0  0  0  0  0  0  0  0  0
    7.2646    4.1045   21.5555 H   0  0  0  0  0  0  0  0  0  0  0  0
    9.6710    2.7442   20.6698 H   0  0  0  0  0  0  0  0  0  0  0  0
    7.9962    2.2831   20.3227 H   0  0  0  0  0  0  0  0  0  0  0  0
    9.6887    1.4325   22.5561 H   0  0  0  0  0  0  0  0  0  0  0  0
    9.3145   -0.7333   22.0454 H   0  0  0  0  0  0  0  0  0  0  0  0
    9.3549    0.0334   20.4377 H   0  0  0  0  0  0  0  0  0  0  0  0
    6.6455   -0.0134   19.9208 C   0  0  0  0  0  0  0  0  0  0  0  0
    5.4319    0.6621   20.1373 C   0  0  0  0  0  0  0  0  0  0  0  0
    4.8235    1.3146   19.0610 C   0  0  0  0  0  0  0  0  0  0  0  0
    5.4432    1.2758   17.8081 C   0  0  0  0  0  0  0  0  0  0  0  0
    6.5774    0.5996   17.5734 N   0  0  0  0  0  0  0  0  0  0  0  0
    7.1396   -0.0427   18.6064 C   0  0  0  0  0  0  0  0  0  0  0  0
    8.0497   -0.5987   18.3730 H   0  0  0  0  0  0  0  0  0  0  0  0
    5.0085    1.8041   16.9582 H   0  0  0  0  0  0  0  0  0  0  0  0
    3.8937    1.8578   19.1796 H   0  0  0  0  0  0  0  0  0  0  0  0
    4.9534    0.6595   21.1208 H   0  0  0  0  0  0  0  0  0  0  0  0
    6.7968   -0.6375   21.9536 H   0  0  0  0  0  0  0  0  0  0  0  0
    8.5149   -2.2566   20.2459 H   0  0  0  0  0  0  0  0  0  0  0  0
    6.8973   -2.2047   19.8169 H   0  0  0  0  0  0  0  0  0  0  0  0
    7.9577   -3.0629   22.9419 C   0  0  0  0  0  0  0  0  0  0  0  0
    7.4652   -4.0655   23.9906 C   0  0  0  0  0  0  0  0  0  0  0  0
    7.7156   -5.1127   23.7195 H   0  0  0  0  0  0  0  0  0  0  0  0
    7.9722   -3.8840   24.9452 H   0  0  0  0  0  0  0  0  0  0  0  0
    9.0445   -3.1314   22.8291 H   0  0  0  0  0  0  0  0  0  0  0  0
    7.7265   -2.0583   23.3216 H   0  0  0  0  0  0  0  0  0  0  0  0
    7.5492   -4.1926   21.1365 H   0  0  0  0  0  0  0  0  0  0  0  0
    5.1996   -3.5017   20.8879 H   0  0  0  0  0  0  0  0  0  0  0  0
    5.4247   -2.2637   22.1370 H   0  0  0  0  0  0  0  0  0  0  0  0
    5.4111   -5.2903   22.6406 H   0  0  0  0  0  0  0  0  0  0  0  0
    4.2124   -4.0730   23.1302 H   0  0  0  0  0  0  0  0  0  0  0  0
    4.5409   -5.2116   25.6832 C   0  0  0  0  0  0  0  0  0  0  0  0
    3.9748   -5.3841   26.9553 C   0  0  0  0  0  0  0  0  0  0  0  0
    3.2707   -6.1872   27.1629 H   0  0  0  0  0  0  0  0  0  0  0  0
    4.2796   -5.8885   24.8728 H   0  0  0  0  0  0  0  0  0  0  0  0
    6.5310   -2.5374   26.3074 H   0  0  0  0  0  0  0  0  0  0  0  0
    5.4737   -2.7933   28.5906 H   0  0  0  0  0  0  0  0  0  0  0  0
  1  2  1  0
  2  3  2  0
  3  4  1  0
  4  5  2  0
  5  6  1  0
  6  7  1  0
  7  8  1  0
  8  9  1  0
  9 10  1  0
 10 11  1  0
 11 12  1  0
 12 13  1  0
 13 14  1  0
 14 15  1  0
 15 16  1  0
 16 17  1  0
 17 18  1  0
 17 19  1  0
 16 20  1  0
 16 21  1  0
 15 22  1  0
 15 23  1  0
 14 24  1  0
 14 25  1  0
 13 26  1  0
 12 27  1  0
 12 28  1  0
 11 29  1  0
 29 30  2  0
 30 31  1  0
 31 32  2  0
 32 33  1  0
 33 34  2  0
 34 35  1  0
 32 36  1  0
 31 37  1  0
 30 38  1  0
 11 39  1  0
 10 40  1  0
 10 41  1  0
  9 42  1  0
 42 43  1  0
 43 44  1  0
 43 45  1  0
 42 46  1  0
 42 47  1  0
  9 48  1  0
  8 49  1  0
  8 50  1  0
  7 51  1  0
  7 52  1  0
  5 53  1  0
 53 54  2  0
 54 55  1  0
 53 56  1  0
  4 57  1  0
  3 58  1  0
 54  2  1  0
 43  6  1  0
 17 13  1  0
 34 29  1  0
M  CHG  2  10   1  13   1
M  END
>  <cnnaffinity>  (1) 
5.08816

>  <plip>  (1) 
-0.06666666666666667

>  <filename>  (1) 
[H][c]1[n][c]([H])[c]([C]([H])([C]([H])([H])[N+]2([H])[C]([H])([H])[C]([H])([H])[C]([H])([H])[C]2([H])[H])[N+]([H])([H])[C]2([H])[C]([H])([H])[C]([H])([H])[N]([c]3[c]([H])[c]([H])[c]([F])[c]([H])[c]3[H])[C]([H])([H])[C]2([H])[H])[c]([H])[c]1[H]

>  <combo1>  (1) 
-0.3051696073104057

$$$$
