
     RDKit          3D

 24 26  0  0  0  0  0  0  0  0999 V2000
    4.9475    1.7761   17.0465 H   0  0  0  0  0  0  0  0  0  0  0  0
    5.4193    1.2633   17.8799 C   0  0  0  0  0  0  0  0  0  0  0  0
    6.5755    0.6384   17.6037 N   0  0  0  0  0  0  0  0  0  0  0  0
    7.2069    0.0244   18.6091 C   0  0  0  0  0  0  0  0  0  0  0  0
    8.1570   -0.4472   18.3730 H   0  0  0  0  0  0  0  0  0  0  0  0
    6.7025   -0.0295   19.9323 C   0  0  0  0  0  0  0  0  0  0  0  0
    7.4090   -0.7059   20.9985 N   0  0  0  0  0  0  0  0  0  0  0  0
    8.7891   -0.6399   21.1873 C   0  0  0  0  0  0  0  0  0  0  0  0
    9.5830   -0.0470   20.5099 O   0  0  0  0  0  0  0  0  0  0  0  0
    9.0639   -1.5187   22.4268 C   0  0  0  0  0  0  0  0  0  0  0  0
   10.1117   -1.8049   22.9195 O   0  0  0  0  0  0  0  0  0  0  0  0
    7.8132   -1.9557   22.8308 N   0  0  0  0  0  0  0  0  0  0  0  0
    7.6013   -2.7937   23.8900 C   0  0  0  0  0  0  0  0  0  0  0  0
    6.3912   -3.2208   24.3033 N   0  0  0  0  0  0  0  0  0  0  0  0
    6.6195   -3.9655   25.3428 N   0  0  0  0  0  0  0  0  0  0  0  0
    7.9180   -3.9584   25.5084 N   0  0  0  0  0  0  0  0  0  0  0  0
    8.3748   -4.4575   26.2617 H   0  0  0  0  0  0  0  0  0  0  0  0
    8.5989   -3.2439   24.6368 N   0  0  0  0  0  0  0  0  0  0  0  0
    6.8538   -1.6575   21.8748 C   0  0  0  0  0  0  0  0  0  0  0  0
    5.7913   -2.1912   21.7777 O   0  0  0  0  0  0  0  0  0  0  0  0
    5.4815    0.6034   20.1969 C   0  0  0  0  0  0  0  0  0  0  0  0
    5.0577    0.5590   21.1973 H   0  0  0  0  0  0  0  0  0  0  0  0
    4.8350    1.2755   19.1490 C   0  0  0  0  0  0  0  0  0  0  0  0
    3.9032    1.8131   19.3006 H   0  0  0  0  0  0  0  0  0  0  0  0
  1  2  1  0
  2  3  2  0
  3  4  1  0
  4  5  1  0
  4  6  2  0
  6  7  1  0
  7  8  1  0
  8  9  2  0
  8 10  1  0
 10 11  2  0
 10 12  1  0
 12 13  1  0
 13 14  1  0
 14 15  2  0
 15 16  1  0
 16 17  1  0
 16 18  1  0
 12 19  1  0
 19 20  2  0
  6 21  1  0
 21 22  1  0
 21 23  2  0
 23 24  1  0
 23  2  1  0
 19  7  1  0
 18 13  2  0
M  END
>  <cnnaffinity>  (1) 
4.64238

>  <plip>  (1) 
-0.07142857142857142

>  <filename>  (1) 
[H][c]1[n][c]([H])[c]([N]2[C](=[O])[C](=[O])[N]([c]3[n][n][n]([H])[n]3)[C]2=[O])[c]([H])[c]1[H]

>  <combo1>  (1) 
-0.42646317164518455

$$$$
