
     RDKit          3D

 38 41  0  0  0  0  0  0  0  0999 V2000
    5.9850   -2.8561   21.1205 C   0  0  0  0  0  0  0  0  0  0  0  0
    6.6087   -1.6976   21.7288 N   0  0  0  0  0  0  0  0  0  0  0  0
    6.5749   -1.4458   23.0709 C   0  0  0  0  0  0  0  0  0  0  0  0
    6.1558   -2.1942   23.9157 O   0  0  0  0  0  0  0  0  0  0  0  0
    7.1409   -0.1608   23.2881 N   0  0  0  0  0  0  0  0  0  0  0  0
    6.9933    0.6544   24.4693 C   0  0  0  0  0  0  0  0  0  0  0  0
    7.3229    0.2243   25.7464 C   0  0  0  0  0  0  0  0  0  0  0  0
    8.0537   -1.3224   26.0245 Cl  0  0  0  0  0  0  0  0  0  0  0  0
    7.0955    1.0755   26.8753 C   0  0  0  0  0  0  0  0  0  0  0  0
    7.3762    0.7017   28.2173 C   0  0  0  0  0  0  0  0  0  0  0  0
    7.1251    1.5734   29.2504 C   0  0  0  0  0  0  0  0  0  0  0  0
    6.5929    2.8680   28.9981 C   0  0  0  0  0  0  0  0  0  0  0  0
    6.3154    3.2568   27.7059 C   0  0  0  0  0  0  0  0  0  0  0  0
    6.5539    2.3704   26.6204 C   0  0  0  0  0  0  0  0  0  0  0  0
    6.2550    2.8177   25.3628 N   0  0  0  0  0  0  0  0  0  0  0  0
    6.4814    2.0073   24.3593 C   0  0  0  0  0  0  0  0  0  0  0  0
    6.2605    2.3995   23.3660 H   0  0  0  0  0  0  0  0  0  0  0  0
    5.9120    4.2276   27.4417 H   0  0  0  0  0  0  0  0  0  0  0  0
    6.4077    3.5422   29.8305 H   0  0  0  0  0  0  0  0  0  0  0  0
    7.3378    1.2721   30.2700 H   0  0  0  0  0  0  0  0  0  0  0  0
    7.7983   -0.2813   28.3716 H   0  0  0  0  0  0  0  0  0  0  0  0
    7.7941    0.2477   22.1291 C   0  0  0  0  0  0  0  0  0  0  0  0
    8.5527    1.1783   22.0321 O   0  0  0  0  0  0  0  0  0  0  0  0
    7.3928   -0.7195   21.0077 C   0  0  0  0  0  0  0  0  0  0  0  0
    6.6340   -0.0264   19.8775 C   0  0  0  0  0  0  0  0  0  0  0  0
    5.4282    0.6398   20.1275 C   0  0  0  0  0  0  0  0  0  0  0  0
    4.7993    1.3104   19.0794 C   0  0  0  0  0  0  0  0  0  0  0  0
    5.3973    1.2954   17.8143 C   0  0  0  0  0  0  0  0  0  0  0  0
    6.5544    0.6682   17.5531 N   0  0  0  0  0  0  0  0  0  0  0  0
    7.1512    0.0365   18.5739 C   0  0  0  0  0  0  0  0  0  0  0  0
    8.1125   -0.4250   18.3430 H   0  0  0  0  0  0  0  0  0  0  0  0
    4.9285    1.8055   16.9737 H   0  0  0  0  0  0  0  0  0  0  0  0
    3.8736    1.8513   19.2360 H   0  0  0  0  0  0  0  0  0  0  0  0
    4.9954    0.6388   21.1302 H   0  0  0  0  0  0  0  0  0  0  0  0
    8.3082   -1.1755   20.5976 H   0  0  0  0  0  0  0  0  0  0  0  0
    4.8973   -2.8400   21.2376 H   0  0  0  0  0  0  0  0  0  0  0  0
    6.3475   -3.7836   21.5761 H   0  0  0  0  0  0  0  0  0  0  0  0
    6.2333   -2.8424   20.0551 H   0  0  0  0  0  0  0  0  0  0  0  0
  1  2  1  0
  2  3  1  0
  3  4  2  0
  3  5  1  0
  5  6  1  0
  6  7  2  0
  7  8  1  0
  7  9  1  0
  9 10  2  0
 10 11  1  0
 11 12  2  0
 12 13  1  0
 13 14  2  0
 14 15  1  0
 15 16  2  0
 16 17  1  0
 13 18  1  0
 12 19  1  0
 11 20  1  0
 10 21  1  0
  5 22  1  0
 22 23  2  0
 22 24  1  0
 24 25  1  0
 25 26  2  0
 26 27  1  0
 27 28  2  0
 28 29  1  0
 29 30  2  0
 30 31  1  0
 28 32  1  0
 27 33  1  0
 26 34  1  0
 24 35  1  0
  1 36  1  0
  1 37  1  0
  1 38  1  0
 24  2  1  0
 30 25  1  0
 16  6  1  0
 14  9  1  0
M  END
>  <cnnaffinity>  (1) 
5.31276

>  <plip>  (1) 
-0.03571428571428571

>  <filename>  (1) 
[H][c]1[n][c]([H])[c]([C]2([H])[C](=[O])[N]([c]3[c]([H])[n][c]4[c]([H])[c]([H])[c]([H])[c]([H])[c]4[c]3[Cl])[C](=[O])[N]2[C]([H])([H])[H])[c]([H])[c]1[H]

>  <combo1>  (1) 
-0.17928160206230737

$$$$
