
     RDKit          3D

 32 35  0  0  0  0  0  0  0  0999 V2000
    4.9959    1.8333   17.2485 H   0  0  0  0  0  0  0  0  0  0  0  0
    5.4843    1.1970   17.9855 C   0  0  0  0  0  0  0  0  0  0  0  0
    6.5917    0.5583   17.5739 N   0  0  0  0  0  0  0  0  0  0  0  0
    7.2466   -0.1858   18.4726 C   0  0  0  0  0  0  0  0  0  0  0  0
    8.1478   -0.6831   18.1064 H   0  0  0  0  0  0  0  0  0  0  0  0
    6.8352   -0.3420   19.8163 C   0  0  0  0  0  0  0  0  0  0  0  0
    7.7037   -1.0021   20.8025 C   0  0  0  0  0  0  0  0  0  0  0  0
    9.0526   -0.8692   21.0295 C   0  0  0  0  0  0  0  0  0  0  0  0
    9.7225   -0.2706   20.4221 H   0  0  0  0  0  0  0  0  0  0  0  0
    9.4714   -1.5183   22.1634 N   0  0  0  0  0  0  0  0  0  0  0  0
    8.3626   -2.0280   22.6373 C   0  0  0  0  0  0  0  0  0  0  0  0
    7.8867   -2.8511   24.0994 S   0  0  0  0  0  0  0  0  0  0  0  0
    6.2461   -2.7266   23.5036 C   0  0  0  0  0  0  0  0  0  0  0  0
    5.1274   -3.0920   24.1738 N   0  0  0  0  0  0  0  0  0  0  0  0
    4.3688   -2.5566   23.7729 H   0  0  0  0  0  0  0  0  0  0  0  0
    4.8958   -3.9166   25.2881 C   0  0  0  0  0  0  0  0  0  0  0  0
    4.0430   -3.4507   26.2992 C   0  0  0  0  0  0  0  0  0  0  0  0
    3.6487   -2.4426   26.2162 H   0  0  0  0  0  0  0  0  0  0  0  0
    3.7032   -4.2671   27.3875 C   0  0  0  0  0  0  0  0  0  0  0  0
    3.0496   -3.9223   28.1826 H   0  0  0  0  0  0  0  0  0  0  0  0
    4.2205   -5.5601   27.4461 C   0  0  0  0  0  0  0  0  0  0  0  0
    3.9105   -6.3474   28.4931 F   0  0  0  0  0  0  0  0  0  0  0  0
    5.0574   -6.0525   26.4477 C   0  0  0  0  0  0  0  0  0  0  0  0
    5.4269   -7.0711   26.5288 H   0  0  0  0  0  0  0  0  0  0  0  0
    5.4011   -5.2217   25.3701 C   0  0  0  0  0  0  0  0  0  0  0  0
    6.0327   -5.5903   24.5684 H   0  0  0  0  0  0  0  0  0  0  0  0
    6.0583   -2.1567   22.3435 N   0  0  0  0  0  0  0  0  0  0  0  0
    7.2726   -1.7765   21.8653 N   0  0  0  0  0  0  0  0  0  0  0  0
    5.6232    0.2610   20.1961 C   0  0  0  0  0  0  0  0  0  0  0  0
    5.2324    0.0904   21.1998 H   0  0  0  0  0  0  0  0  0  0  0  0
    4.9572    1.0664   19.2751 C   0  0  0  0  0  0  0  0  0  0  0  0
    4.0531    1.6031   19.5417 H   0  0  0  0  0  0  0  0  0  0  0  0
  1  2  1  0
  2  3  2  0
  3  4  1  0
  4  5  1  0
  4  6  2  0
  6  7  1  0
  7  8  2  0
  8  9  1  0
  8 10  1  0
 10 11  2  0
 11 12  1  0
 12 13  1  0
 13 14  1  0
 14 15  1  0
 14 16  1  0
 16 17  2  0
 17 18  1  0
 17 19  1  0
 19 20  1  0
 19 21  2  0
 21 22  1  0
 21 23  1  0
 23 24  1  0
 23 25  2  0
 25 26  1  0
 13 27  2  0
 27 28  1  0
  6 29  1  0
 29 30  1  0
 29 31  2  0
 31 32  1  0
 31  2  1  0
 28  7  1  0
 28 11  1  0
 25 16  1  0
M  END
>  <cnnaffinity>  (1) 
5.28011

>  <plip>  (1) 
-0.07142857142857142

>  <filename>  (1) 
[H][c]1[n][c]([H])[c](-[c]2[c]([H])[n][c]3[s][c]([N]([H])[c]4[c]([H])[c]([H])[c]([F])[c]([H])[c]4[H])[n][n]23)[c]([H])[c]1[H]

>  <combo1>  (1) 
-0.40378649010552514

$$$$
