
     RDKit          3D

 40 43  0  0  0  0  0  0  0  0999 V2000
    9.6467    0.7136   20.3513 O   0  0  0  0  0  0  0  0  0  0  0  0
    9.2080    1.0802   21.4338 C   0  0  0  0  0  0  0  0  0  0  0  0
    8.0939    0.5028   21.9801 N   0  0  0  0  0  0  0  0  0  0  0  0
    7.3414   -0.4753   21.2061 C   0  0  0  0  0  0  0  0  0  0  0  0
    6.6026    0.1687   20.0393 C   0  0  0  0  0  0  0  0  0  0  0  0
    5.3218    0.7241   20.1779 C   0  0  0  0  0  0  0  0  0  0  0  0
    4.7257    1.3380   19.0757 C   0  0  0  0  0  0  0  0  0  0  0  0
    5.4186    1.3619   17.8610 C   0  0  0  0  0  0  0  0  0  0  0  0
    6.6404    0.8363   17.7008 N   0  0  0  0  0  0  0  0  0  0  0  0
    7.2125    0.2767   18.7757 C   0  0  0  0  0  0  0  0  0  0  0  0
    8.2229   -0.0972   18.6256 H   0  0  0  0  0  0  0  0  0  0  0  0
    4.9796    1.8211   16.9784 H   0  0  0  0  0  0  0  0  0  0  0  0
    3.7476    1.7998   19.1444 H   0  0  0  0  0  0  0  0  0  0  0  0
    4.8019    0.6733   21.1370 H   0  0  0  0  0  0  0  0  0  0  0  0
    6.4692   -1.4270   22.0547 C   0  0  0  0  0  0  0  0  0  0  0  0
    7.3475   -2.6417   21.6602 C   0  0  0  0  0  0  0  0  0  0  0  0
    8.2269   -1.6903   20.8241 C   0  0  0  0  0  0  0  0  0  0  0  0
    9.2615   -1.5975   21.1507 H   0  0  0  0  0  0  0  0  0  0  0  0
    8.2218   -1.8284   19.7535 H   0  0  0  0  0  0  0  0  0  0  0  0
    6.8269   -3.4104   21.0771 H   0  0  0  0  0  0  0  0  0  0  0  0
    7.8638   -3.1313   22.4928 H   0  0  0  0  0  0  0  0  0  0  0  0
    5.4634   -1.5225   21.6474 H   0  0  0  0  0  0  0  0  0  0  0  0
    6.4275   -1.1716   23.1171 H   0  0  0  0  0  0  0  0  0  0  0  0
    7.5873    1.0386   22.6618 H   0  0  0  0  0  0  0  0  0  0  0  0
    9.9038    2.1113   22.2380 C   0  0  0  0  0  0  0  0  0  0  0  0
    9.4975    2.7969   23.3348 C   0  0  0  0  0  0  0  0  0  0  0  0
   10.5104    3.7453   23.7448 C   0  0  0  0  0  0  0  0  0  0  0  0
   10.5135    4.6929   24.7843 C   0  0  0  0  0  0  0  0  0  0  0  0
   11.5953    5.5680   24.8894 C   0  0  0  0  0  0  0  0  0  0  0  0
   12.6483    5.5003   23.9516 C   0  0  0  0  0  0  0  0  0  0  0  0
   12.6722    4.5191   22.9466 C   0  0  0  0  0  0  0  0  0  0  0  0
   11.6003    3.6359   22.8485 C   0  0  0  0  0  0  0  0  0  0  0  0
   11.2914    2.5600   21.8234 C   0  0  0  0  0  0  0  0  0  0  0  0
   12.0131    1.7295   21.8040 H   0  0  0  0  0  0  0  0  0  0  0  0
   11.3025    2.9431   20.7935 H   0  0  0  0  0  0  0  0  0  0  0  0
   13.5274    4.4588   22.2773 H   0  0  0  0  0  0  0  0  0  0  0  0
   13.4536    6.2223   23.9829 H   0  0  0  0  0  0  0  0  0  0  0  0
   11.6304    6.3018   25.6931 H   0  0  0  0  0  0  0  0  0  0  0  0
    9.6970    4.7030   25.5086 H   0  0  0  0  0  0  0  0  0  0  0  0
    8.5363    2.7360   23.8423 H   0  0  0  0  0  0  0  0  0  0  0  0
  1  2  2  0
  2  3  1  0
  3  4  1  0
  4  5  1  0
  5  6  2  0
  6  7  1  0
  7  8  2  0
  8  9  1  0
  9 10  2  0
 10 11  1  0
  8 12  1  0
  7 13  1  0
  6 14  1  0
  4 15  1  0
 15 16  1  0
 16 17  1  0
 17 18  1  0
 17 19  1  0
 16 20  1  0
 16 21  1  0
 15 22  1  0
 15 23  1  0
  3 24  1  0
  2 25  1  0
 25 26  2  0
 26 27  1  0
 27 28  2  0
 28 29  1  0
 29 30  2  0
 30 31  1  0
 31 32  2  0
 32 33  1  0
 33 34  1  0
 33 35  1  0
 31 36  1  0
 30 37  1  0
 29 38  1  0
 28 39  1  0
 26 40  1  0
 17  4  1  0
 33 25  1  0
 10  5  1  0
 32 27  1  0
M  END
>  <cnnaffinity>  (1) 
5.56718

>  <plip>  (1) 
-0.10714285714285714

>  <filename>  (1) 
[H][C]1=[C]([C](=[O])[N]([H])[C]2([c]3[c]([H])[n][c]([H])[c]([H])[c]3[H])[C]([H])([H])[C]([H])([H])[C]2([H])[H])[C]([H])([H])[c]2[c]([H])[c]([H])[c]([H])[c]([H])[c]21

>  <combo1>  (1) 
-0.6847490999044555

$$$$
