
     RDKit          3D

 36 39  0  0  0  0  0  0  0  0999 V2000
    8.2778    1.2426   22.2903 C   0  0  0  0  0  0  0  0  0  0  0  0
    7.5617   -0.0216   22.2432 N   0  0  0  0  0  0  0  0  0  0  0  0
    7.0049   -0.5924   23.3517 C   0  0  0  0  0  0  0  0  0  0  0  0
    6.9763   -0.0813   24.4490 O   0  0  0  0  0  0  0  0  0  0  0  0
    6.5020   -1.8557   23.0009 N   0  0  0  0  0  0  0  0  0  0  0  0
    5.8168   -2.7545   23.8910 C   0  0  0  0  0  0  0  0  0  0  0  0
    5.0761   -2.2285   24.9716 C   0  0  0  0  0  0  0  0  0  0  0  0
    4.2173   -3.0367   25.7172 C   0  0  0  0  0  0  0  0  0  0  0  0
    4.2019   -4.4004   25.4024 C   0  0  0  0  0  0  0  0  0  0  0  0
    3.4611   -5.3673   26.0075 O   0  0  0  0  0  0  0  0  0  0  0  0
    3.8096   -6.5491   25.4099 C   0  0  0  0  0  0  0  0  0  0  0  0
    4.7389   -6.3802   24.4447 C   0  0  0  0  0  0  0  0  0  0  0  0
    5.0118   -4.9625   24.4075 C   0  0  0  0  0  0  0  0  0  0  0  0
    5.8204   -4.1217   23.6235 C   0  0  0  0  0  0  0  0  0  0  0  0
    6.4310   -4.5153   22.8249 H   0  0  0  0  0  0  0  0  0  0  0  0
    5.2002   -7.1455   23.8381 H   0  0  0  0  0  0  0  0  0  0  0  0
    3.2954   -7.4126   25.8092 H   0  0  0  0  0  0  0  0  0  0  0  0
    3.5913   -2.6304   26.5032 H   0  0  0  0  0  0  0  0  0  0  0  0
    5.1721   -1.1686   25.1753 H   0  0  0  0  0  0  0  0  0  0  0  0
    6.5363   -2.0048   21.6218 C   0  0  0  0  0  0  0  0  0  0  0  0
    6.0894   -2.9254   20.9873 O   0  0  0  0  0  0  0  0  0  0  0  0
    7.3065   -0.7989   21.0501 C   0  0  0  0  0  0  0  0  0  0  0  0
    6.5987   -0.0138   19.9523 C   0  0  0  0  0  0  0  0  0  0  0  0
    5.3786    0.6436   20.1532 C   0  0  0  0  0  0  0  0  0  0  0  0
    4.8096    1.3119   19.0691 C   0  0  0  0  0  0  0  0  0  0  0  0
    5.4737    1.3042   17.8390 C   0  0  0  0  0  0  0  0  0  0  0  0
    6.6421    0.6798   17.6325 N   0  0  0  0  0  0  0  0  0  0  0  0
    7.1838    0.0497   18.6800 C   0  0  0  0  0  0  0  0  0  0  0  0
    8.1378   -0.4543   18.5062 H   0  0  0  0  0  0  0  0  0  0  0  0
    5.0536    1.8217   16.9804 H   0  0  0  0  0  0  0  0  0  0  0  0
    3.8778    1.8499   19.1693 H   0  0  0  0  0  0  0  0  0  0  0  0
    4.9002    0.6448   21.1339 H   0  0  0  0  0  0  0  0  0  0  0  0
    8.2416   -1.2128   20.6380 H   0  0  0  0  0  0  0  0  0  0  0  0
    9.1165    1.1760   22.9904 H   0  0  0  0  0  0  0  0  0  0  0  0
    8.6642    1.4811   21.2938 H   0  0  0  0  0  0  0  0  0  0  0  0
    7.6352    2.0675   22.6208 H   0  0  0  0  0  0  0  0  0  0  0  0
  1  2  1  0
  2  3  1  0
  3  4  2  0
  3  5  1  0
  5  6  1  0
  6  7  2  0
  7  8  1  0
  8  9  2  0
  9 10  1  0
 10 11  1  0
 11 12  2  0
 12 13  1  0
 13 14  2  0
 14 15  1  0
 12 16  1  0
 11 17  1  0
  8 18  1  0
  7 19  1  0
  5 20  1  0
 20 21  2  0
 20 22  1  0
 22 23  1  0
 23 24  2  0
 24 25  1  0
 25 26  2  0
 26 27  1  0
 27 28  2  0
 28 29  1  0
 26 30  1  0
 25 31  1  0
 24 32  1  0
 22 33  1  0
  1 34  1  0
  1 35  1  0
  1 36  1  0
 22  2  1  0
 28 23  1  0
 14  6  1  0
 13  9  1  0
M  END
>  <cnnaffinity>  (1) 
5.08568

>  <plip>  (1) 
-0.10714285714285714

>  <filename>  (1) 
[H][c]1[n][c]([H])[c]([C]2([H])[C](=[O])[N]([c]3[c]([H])[c]([H])[c]4[o][c]([H])[c]([H])[c]4[c]3[H])[C](=[O])[N]2[C]([H])([H])[H])[c]([H])[c]1[H]

>  <combo1>  (1) 
-0.5910384289800449

$$$$
