
     RDKit          3D

 32 35  0  0  0  0  0  0  0  0999 V2000
    4.9385    1.8297   16.9928 H   0  0  0  0  0  0  0  0  0  0  0  0
    5.4044    1.3013   17.8247 C   0  0  0  0  0  0  0  0  0  0  0  0
    6.5634    0.6771   17.5526 N   0  0  0  0  0  0  0  0  0  0  0  0
    7.1686    0.0146   18.5468 C   0  0  0  0  0  0  0  0  0  0  0  0
    8.1245   -0.4569   18.3253 H   0  0  0  0  0  0  0  0  0  0  0  0
    6.6470   -0.0691   19.8529 C   0  0  0  0  0  0  0  0  0  0  0  0
    7.3299   -0.7889   20.9009 N   0  0  0  0  0  0  0  0  0  0  0  0
    8.2850   -0.3249   21.8102 C   0  0  0  0  0  0  0  0  0  0  0  0
    8.7409    1.0577   21.8717 C   0  0  0  0  0  0  0  0  0  0  0  0
    8.3152    2.1530   21.1564 C   0  0  0  0  0  0  0  0  0  0  0  0
    7.6275    2.2293   20.3253 H   0  0  0  0  0  0  0  0  0  0  0  0
    8.9428    3.2761   21.6112 N   0  0  0  0  0  0  0  0  0  0  0  0
    8.9062    4.1853   21.1757 H   0  0  0  0  0  0  0  0  0  0  0  0
    9.8662    2.9284   22.5602 C   0  0  0  0  0  0  0  0  0  0  0  0
   10.7892    3.7353   23.2330 C   0  0  0  0  0  0  0  0  0  0  0  0
   10.9369    4.7683   22.9399 H   0  0  0  0  0  0  0  0  0  0  0  0
   11.5378    3.1523   24.2394 C   0  0  0  0  0  0  0  0  0  0  0  0
   12.1675    3.8206   24.8097 H   0  0  0  0  0  0  0  0  0  0  0  0
   11.4338    1.7681   24.5271 C   0  0  0  0  0  0  0  0  0  0  0  0
   12.0486    1.3415   25.3137 H   0  0  0  0  0  0  0  0  0  0  0  0
   10.5510    0.9629   23.8151 C   0  0  0  0  0  0  0  0  0  0  0  0
   10.4440   -0.0898   24.0520 H   0  0  0  0  0  0  0  0  0  0  0  0
    9.7501    1.5480   22.7979 C   0  0  0  0  0  0  0  0  0  0  0  0
    8.6755   -1.2831   22.6104 N   0  0  0  0  0  0  0  0  0  0  0  0
    7.9304   -2.3597   22.2377 N   0  0  0  0  0  0  0  0  0  0  0  0
    7.9755   -3.2579   22.6817 H   0  0  0  0  0  0  0  0  0  0  0  0
    7.0613   -2.1334   21.2185 C   0  0  0  0  0  0  0  0  0  0  0  0
    6.2773   -2.9169   20.7239 O   0  0  0  0  0  0  0  0  0  0  0  0
    5.4451    0.5909   20.1296 C   0  0  0  0  0  0  0  0  0  0  0  0
    5.0562    0.5721   21.1496 H   0  0  0  0  0  0  0  0  0  0  0  0
    4.8100    1.2913   19.0927 C   0  0  0  0  0  0  0  0  0  0  0  0
    3.8756    1.8267   19.2475 H   0  0  0  0  0  0  0  0  0  0  0  0
  1  2  1  0
  2  3  2  0
  3  4  1  0
  4  5  1  0
  4  6  2  0
  6  7  1  0
  7  8  1  0
  8  9  1  0
  9 10  2  0
 10 11  1  0
 10 12  1  0
 12 13  1  0
 12 14  1  0
 14 15  2  0
 15 16  1  0
 15 17  1  0
 17 18  1  0
 17 19  2  0
 19 20  1  0
 19 21  1  0
 21 22  1  0
 21 23  2  0
  8 24  2  0
 24 25  1  0
 25 26  1  0
 25 27  1  0
 27 28  2  0
  6 29  1  0
 29 30  1  0
 29 31  2  0
 31 32  1  0
 31  2  1  0
 27  7  1  0
 23  9  1  0
 23 14  1  0
M  END
>  <cnnaffinity>  (1) 
5.15393

>  <plip>  (1) 
-0.13333333333333333

>  <filename>  (1) 
[H][c]1[n][c]([H])[c](-[n]2[c](-[c]3[c]([H])[n]([H])[c]4[c]([H])[c]([H])[c]([H])[c]([H])[c]34)[n][n]([H])[c]2=[O])[c]([H])[c]1[H]

>  <combo1>  (1) 
-0.8260883328665085

$$$$
