
     RDKit          3D

 49 51  0  0  0  0  0  0  0  0999 V2000
    8.2696    3.7333   23.2352 C   0  0  0  0  0  0  0  0  0  0  0  0
    8.7967    2.3508   23.0312 N   0  0  0  0  0  4  0  0  0  0  0  0
    9.2155    1.7730   24.3539 C   0  0  0  0  0  0  0  0  0  0  0  0
    8.3342    1.6436   24.9948 H   0  0  0  0  0  0  0  0  0  0  0  0
    9.9087    2.4453   24.8678 H   0  0  0  0  0  0  0  0  0  0  0  0
    9.6906    0.7957   24.2309 H   0  0  0  0  0  0  0  0  0  0  0  0
    7.7868    1.4839   22.3235 C   0  0  0  0  0  0  0  0  0  0  0  0
    8.4509    0.2778   21.6614 C   0  0  0  0  0  0  0  0  0  0  0  0
    7.4840   -0.6940   20.9571 C   0  0  0  0  0  0  0  0  0  0  0  0
    6.6034   -1.4222   21.8902 N   0  0  0  0  0  4  0  0  0  0  0  0
    7.2662   -2.4363   22.7558 C   0  0  0  0  0  0  0  0  0  0  0  0
    7.6987   -1.9068   24.1524 C   0  0  0  0  0  0  0  0  0  0  0  0
    6.8271   -2.6256   25.2139 C   0  0  0  0  0  0  0  0  0  0  0  0
    6.1113   -3.7025   24.4351 C   0  0  0  0  0  0  0  0  0  0  0  0
    5.2976   -4.7151   24.9421 C   0  0  0  0  0  0  0  0  0  0  0  0
    4.7496   -5.6307   24.0390 C   0  0  0  0  0  0  0  0  0  0  0  0
    3.7327   -6.9052   24.6524 Cl  0  0  0  0  0  0  0  0  0  0  0  0
    5.0007   -5.5554   22.6625 C   0  0  0  0  0  0  0  0  0  0  0  0
    5.8063   -4.5224   22.1679 C   0  0  0  0  0  0  0  0  0  0  0  0
    6.3399   -3.5858   23.0619 C   0  0  0  0  0  0  0  0  0  0  0  0
    6.0310   -4.4647   21.1030 H   0  0  0  0  0  0  0  0  0  0  0  0
    4.5604   -6.2953   21.9973 H   0  0  0  0  0  0  0  0  0  0  0  0
    5.0978   -4.7912   26.0084 H   0  0  0  0  0  0  0  0  0  0  0  0
    6.0957   -1.9471   25.6662 H   0  0  0  0  0  0  0  0  0  0  0  0
    7.4174   -3.0453   26.0342 H   0  0  0  0  0  0  0  0  0  0  0  0
    8.7597   -2.1305   24.3008 H   0  0  0  0  0  0  0  0  0  0  0  0
    7.5880   -0.8188   24.1920 H   0  0  0  0  0  0  0  0  0  0  0  0
    8.1385   -2.7894   22.2015 H   0  0  0  0  0  0  0  0  0  0  0  0
    6.0915   -0.7730   22.5365 H   0  0  0  0  0  0  0  0  0  0  0  0
    5.8477   -1.9035   21.3478 H   0  0  0  0  0  0  0  0  0  0  0  0
    6.6360   -0.0241   19.9129 C   0  0  0  0  0  0  0  0  0  0  0  0
    5.4216    0.6361   20.1580 C   0  0  0  0  0  0  0  0  0  0  0  0
    4.8009    1.3073   19.1022 C   0  0  0  0  0  0  0  0  0  0  0  0
    5.3984    1.2938   17.8389 C   0  0  0  0  0  0  0  0  0  0  0  0
    6.5612    0.6790   17.5842 N   0  0  0  0  0  0  0  0  0  0  0  0
    7.1507    0.0507   18.6066 C   0  0  0  0  0  0  0  0  0  0  0  0
    8.1041   -0.4236   18.3704 H   0  0  0  0  0  0  0  0  0  0  0  0
    4.9231    1.7882   16.9928 H   0  0  0  0  0  0  0  0  0  0  0  0
    3.8746    1.8451   19.2489 H   0  0  0  0  0  0  0  0  0  0  0  0
    4.9873    0.6594   21.1620 H   0  0  0  0  0  0  0  0  0  0  0  0
    8.1153   -1.4380   20.4433 H   0  0  0  0  0  0  0  0  0  0  0  0
    9.1572    0.6477   20.9127 H   0  0  0  0  0  0  0  0  0  0  0  0
    9.0305   -0.2976   22.3898 H   0  0  0  0  0  0  0  0  0  0  0  0
    7.2844    2.0928   21.5659 H   0  0  0  0  0  0  0  0  0  0  0  0
    7.0147    1.1964   23.0510 H   0  0  0  0  0  0  0  0  0  0  0  0
    9.6259    2.3984   22.3966 H   0  0  0  0  0  0  0  0  0  0  0  0
    8.0120    4.1993   22.2778 H   0  0  0  0  0  0  0  0  0  0  0  0
    8.9966    4.3565   23.7633 H   0  0  0  0  0  0  0  0  0  0  0  0
    7.3549    3.6930   23.8411 H   0  0  0  0  0  0  0  0  0  0  0  0
  1  2  1  0
  2  3  1  0
  3  4  1  0
  3  5  1  0
  3  6  1  0
  2  7  1  0
  7  8  1  0
  8  9  1  0
  9 10  1  0
 10 11  1  0
 11 12  1  0
 12 13  1  0
 13 14  1  0
 14 15  2  0
 15 16  1  0
 16 17  1  0
 16 18  2  0
 18 19  1  0
 19 20  2  0
 19 21  1  0
 18 22  1  0
 15 23  1  0
 13 24  1  0
 13 25  1  0
 12 26  1  0
 12 27  1  0
 11 28  1  0
 10 29  1  0
 10 30  1  0
  9 31  1  0
 31 32  2  0
 32 33  1  0
 33 34  2  0
 34 35  1  0
 35 36  2  0
 36 37  1  0
 34 38  1  0
 33 39  1  0
 32 40  1  0
  9 41  1  0
  8 42  1  0
  8 43  1  0
  7 44  1  0
  7 45  1  0
  2 46  1  0
  1 47  1  0
  1 48  1  0
  1 49  1  0
 20 11  1  0
 36 31  1  0
 20 14  1  0
M  CHG  2   2   1  10   1
M  END
>  <cnnaffinity>  (1) 
5.16139

>  <plip>  (1) 
-0.07142857142857142

>  <filename>  (1) 
[H][c]1[n][c]([H])[c]([C]([H])([C]([H])([H])[C]([H])([H])[N+]([H])([C]([H])([H])[H])[C]([H])([H])[H])[N+]([H])([H])[C]2([H])[c]3[c]([H])[c]([H])[c]([Cl])[c]([H])[c]3[C]([H])([H])[C]2([H])[H])[c]([H])[c]1[H]

>  <combo1>  (1) 
-0.3702728850593662

$$$$
