
     RDKit          3D

 51 54  0  0  0  0  0  0  0  0999 V2000
   12.5265    5.3847   24.7703 C   0  0  0  0  0  0  0  0  0  0  0  0
   12.7395    4.8799   23.3594 C   0  0  0  0  0  0  0  0  0  0  0  0
   13.7377    5.5032   22.5955 C   0  0  0  0  0  0  0  0  0  0  0  0
   13.9788    5.1209   21.2857 C   0  0  0  0  0  0  0  0  0  0  0  0
   15.0253    5.6467   20.6373 F   0  0  0  0  0  0  0  0  0  0  0  0
   13.1364    4.2346   20.6287 C   0  0  0  0  0  0  0  0  0  0  0  0
   12.1222    3.6412   21.3562 C   0  0  0  0  0  0  0  0  0  0  0  0
   11.9607    3.8759   22.7404 C   0  0  0  0  0  0  0  0  0  0  0  0
   10.9872    3.0193   23.4402 C   0  0  0  0  0  0  0  0  0  0  0  0
   10.9488    2.2754   24.5821 C   0  0  0  0  0  0  0  0  0  0  0  0
    9.7050    1.5593   24.5677 C   0  0  0  0  0  0  0  0  0  0  0  0
    9.0949    1.8654   23.3909 C   0  0  0  0  0  0  0  0  0  0  0  0
    7.8614    1.3924   22.6786 C   0  0  0  0  0  0  0  0  0  0  0  0
    8.1139    0.1443   21.8215 N   0  0  0  0  0  4  0  0  0  0  0  0
    6.8998   -0.6180   21.3161 C   0  0  0  0  0  0  0  0  0  0  0  0
    6.3812    0.1103   20.0901 C   0  0  0  0  0  0  0  0  0  0  0  0
    5.1849    0.8413   20.1134 C   0  0  0  0  0  0  0  0  0  0  0  0
    4.7773    1.5030   18.9507 C   0  0  0  0  0  0  0  0  0  0  0  0
    5.5791    1.4090   17.8098 C   0  0  0  0  0  0  0  0  0  0  0  0
    6.7195    0.7062   17.7644 N   0  0  0  0  0  0  0  0  0  0  0  0
    7.1058    0.0879   18.8880 C   0  0  0  0  0  0  0  0  0  0  0  0
    8.0356   -0.4745   18.7954 H   0  0  0  0  0  0  0  0  0  0  0  0
    5.2927    1.9165   16.8899 H   0  0  0  0  0  0  0  0  0  0  0  0
    3.8684    2.0952   18.9164 H   0  0  0  0  0  0  0  0  0  0  0  0
    4.6004    0.9067   21.0335 H   0  0  0  0  0  0  0  0  0  0  0  0
    7.3261   -2.0791   21.0577 C   0  0  0  0  0  0  0  0  0  0  0  0
    7.6191   -2.8631   22.3598 C   0  0  0  0  0  0  0  0  0  0  0  0
    6.3066   -3.6262   22.6421 C   0  0  0  0  0  0  0  0  0  0  0  0
    5.4093   -3.2871   21.5973 O   0  0  0  0  0  0  0  0  0  0  0  0
    6.1694   -2.8983   20.4718 C   0  0  0  0  0  0  0  0  0  0  0  0
    5.5098   -2.3205   19.8155 H   0  0  0  0  0  0  0  0  0  0  0  0
    6.5270   -3.7784   19.9101 H   0  0  0  0  0  0  0  0  0  0  0  0
    6.4748   -4.7128   22.6840 H   0  0  0  0  0  0  0  0  0  0  0  0
    5.8350   -3.3363   23.5859 H   0  0  0  0  0  0  0  0  0  0  0  0
    7.8868   -2.2180   23.2051 H   0  0  0  0  0  0  0  0  0  0  0  0
    8.4534   -3.5555   22.2154 H   0  0  0  0  0  0  0  0  0  0  0  0
    8.1981   -2.0697   20.3967 H   0  0  0  0  0  0  0  0  0  0  0  0
    6.1187   -0.6069   22.0873 H   0  0  0  0  0  0  0  0  0  0  0  0
    8.7517   -0.4996   22.3355 H   0  0  0  0  0  0  0  0  0  0  0  0
    8.6032    0.4666   20.9447 H   0  0  0  0  0  0  0  0  0  0  0  0
    7.5287    2.2164   22.0434 H   0  0  0  0  0  0  0  0  0  0  0  0
    7.0498    1.2001   23.3926 H   0  0  0  0  0  0  0  0  0  0  0  0
    9.8566    2.7680   22.7217 O   0  0  0  0  0  0  0  0  0  0  0  0
    9.3212    0.8732   25.3089 H   0  0  0  0  0  0  0  0  0  0  0  0
   11.7379    2.1869   25.3118 H   0  0  0  0  0  0  0  0  0  0  0  0
   11.4359    2.9652   20.8553 H   0  0  0  0  0  0  0  0  0  0  0  0
   13.3003    3.9664   19.5936 H   0  0  0  0  0  0  0  0  0  0  0  0
   14.2883    6.3498   22.9705 H   0  0  0  0  0  0  0  0  0  0  0  0
   11.5075    5.2293   25.1254 H   0  0  0  0  0  0  0  0  0  0  0  0
   12.7512    6.4536   24.8135 H   0  0  0  0  0  0  0  0  0  0  0  0
   13.1986    4.9384   25.5030 H   0  0  0  0  0  0  0  0  0  0  0  0
  1  2  1  0
  2  3  2  0
  3  4  1  0
  4  5  1  0
  4  6  2  0
  6  7  1  0
  7  8  2  0
  8  9  1  0
  9 10  2  0
 10 11  1  0
 11 12  2  0
 12 13  1  0
 13 14  1  0
 14 15  1  0
 15 16  1  0
 16 17  2  0
 17 18  1  0
 18 19  2  0
 19 20  1  0
 20 21  2  0
 21 22  1  0
 19 23  1  0
 18 24  1  0
 17 25  1  0
 15 26  1  0
 26 27  1  0
 27 28  1  0
 28 29  1  0
 29 30  1  0
 30 31  1  0
 30 32  1  0
 28 33  1  0
 28 34  1  0
 27 35  1  0
 27 36  1  0
 26 37  1  0
 15 38  1  0
 14 39  1  0
 14 40  1  0
 13 41  1  0
 13 42  1  0
 12 43  1  0
 11 44  1  0
 10 45  1  0
  7 46  1  0
  6 47  1  0
  3 48  1  0
  1 49  1  0
  1 50  1  0
  1 51  1  0
  8  2  1  0
 43  9  1  0
 21 16  1  0
 30 26  1  0
M  CHG  1  14   1
M  END
>  <cnnaffinity>  (1) 
5.6263

>  <plip>  (1) 
-0.13793103448275862

>  <filename>  (1) 
[H][c]1[n][c]([H])[c]([C]([H])([C]2([H])[C]([H])([H])[O][C]([H])([H])[C]2([H])[H])[N+]([H])([H])[C]([H])([H])[c]2[o][c](-[c]3[c]([H])[c]([H])[c]([F])[c]([H])[c]3[C]([H])([H])[H])[c]([H])[c]2[H])[c]([H])[c]1[H]

>  <combo1>  (1) 
-0.7039996836800033

$$$$
