
     RDKit          3D

 46 48  0  0  0  0  0  0  0  0999 V2000
    4.7885    1.3449   19.0110 C   0  0  0  0  0  0  0  0  0  0  0  0
    5.3983    1.2636   17.7535 C   0  0  0  0  0  0  0  0  0  0  0  0
    6.5216    0.5687   17.5191 N   0  0  0  0  0  0  0  0  0  0  0  0
    7.0957   -0.0447   18.5557 C   0  0  0  0  0  0  0  0  0  0  0  0
    6.6194    0.0367   19.8691 C   0  0  0  0  0  0  0  0  0  0  0  0
    7.4212   -0.5749   20.9756 C   0  0  0  0  0  0  0  0  0  0  0  0
    7.0411   -1.9999   20.9961 N   0  0  0  0  0  4  0  0  0  0  0  0
    7.6960   -2.8701   22.0029 C   0  0  0  0  0  0  0  0  0  0  0  0
    7.2995   -4.3258   21.7719 C   0  0  0  0  0  0  0  0  0  0  0  0
    7.9713   -5.2732   22.7920 C   0  0  0  0  0  0  0  0  0  0  0  0
    7.7407   -4.8567   24.2680 C   0  0  0  0  0  0  0  0  0  0  0  0
    8.4620   -5.7974   25.2809 C   0  0  0  0  0  0  0  0  0  0  0  0
    9.9884   -5.6635   25.4808 C   0  0  0  0  0  0  0  0  0  0  0  0
   10.1508   -4.8728   26.7709 C   0  0  0  0  0  0  0  0  0  0  0  0
    9.0799   -5.4875   27.6207 N   0  0  0  0  0  4  0  0  0  0  0  0
    7.8886   -5.6940   26.7153 C   0  0  0  0  0  0  0  0  0  0  0  0
    7.3515   -6.6030   27.0011 H   0  0  0  0  0  0  0  0  0  0  0  0
    7.1841   -4.8665   26.8254 H   0  0  0  0  0  0  0  0  0  0  0  0
    8.8632   -4.9769   28.4862 H   0  0  0  0  0  0  0  0  0  0  0  0
    9.4273   -6.4500   27.8912 H   0  0  0  0  0  0  0  0  0  0  0  0
   11.1480   -4.9550   27.2155 H   0  0  0  0  0  0  0  0  0  0  0  0
    9.9400   -3.8100   26.6180 H   0  0  0  0  0  0  0  0  0  0  0  0
   10.5269   -5.2329   24.6304 H   0  0  0  0  0  0  0  0  0  0  0  0
   10.4070   -6.6700   25.6499 H   0  0  0  0  0  0  0  0  0  0  0  0
    8.2793   -6.8056   24.9151 H   0  0  0  0  0  0  0  0  0  0  0  0
    8.0433   -3.3590   24.4769 C   0  0  0  0  0  0  0  0  0  0  0  0
    7.3375   -2.4631   23.4420 C   0  0  0  0  0  0  0  0  0  0  0  0
    7.5979   -1.4134   23.6158 H   0  0  0  0  0  0  0  0  0  0  0  0
    6.2458   -2.5375   23.5549 H   0  0  0  0  0  0  0  0  0  0  0  0
    7.7510   -3.0534   25.4902 H   0  0  0  0  0  0  0  0  0  0  0  0
    9.1272   -3.1838   24.4062 H   0  0  0  0  0  0  0  0  0  0  0  0
    6.6606   -4.9925   24.4544 H   0  0  0  0  0  0  0  0  0  0  0  0
    9.0504   -5.3033   22.5905 H   0  0  0  0  0  0  0  0  0  0  0  0
    7.6076   -6.2977   22.6269 H   0  0  0  0  0  0  0  0  0  0  0  0
    7.5618   -4.6240   20.7508 H   0  0  0  0  0  0  0  0  0  0  0  0
    6.2044   -4.4012   21.8435 H   0  0  0  0  0  0  0  0  0  0  0  0
    8.7883   -2.7838   21.8963 H   0  0  0  0  0  0  0  0  0  0  0  0
    6.0006   -2.0135   21.1509 H   0  0  0  0  0  0  0  0  0  0  0  0
    7.1905   -2.3511   20.0216 H   0  0  0  0  0  0  0  0  0  0  0  0
    7.1951   -0.0830   21.9270 H   0  0  0  0  0  0  0  0  0  0  0  0
    8.4999   -0.4553   20.7992 H   0  0  0  0  0  0  0  0  0  0  0  0
    5.4078    0.7088   20.0890 C   0  0  0  0  0  0  0  0  0  0  0  0
    4.9589    0.7298   21.0835 H   0  0  0  0  0  0  0  0  0  0  0  0
    7.9970   -0.6225   18.3220 H   0  0  0  0  0  0  0  0  0  0  0  0
    4.9618    1.7595   16.8906 H   0  0  0  0  0  0  0  0  0  0  0  0
    3.8641    1.9018   19.1277 H   0  0  0  0  0  0  0  0  0  0  0  0
  1  2  2  0
  2  3  1  0
  3  4  2  0
  4  5  1  0
  5  6  1  0
  6  7  1  0
  7  8  1  0
  8  9  1  0
  9 10  1  0
 10 11  1  0
 11 12  1  0
 12 13  1  0
 13 14  1  0
 14 15  1  0
 15 16  1  0
 16 17  1  0
 16 18  1  0
 15 19  1  0
 15 20  1  0
 14 21  1  0
 14 22  1  0
 13 23  1  0
 13 24  1  0
 12 25  1  0
 11 26  1  0
 26 27  1  0
 27 28  1  0
 27 29  1  0
 26 30  1  0
 26 31  1  0
 11 32  1  0
 10 33  1  0
 10 34  1  0
  9 35  1  0
  9 36  1  0
  8 37  1  0
  7 38  1  0
  7 39  1  0
  6 40  1  0
  6 41  1  0
  5 42  2  0
 42 43  1  0
  4 44  1  0
  2 45  1  0
  1 46  1  0
 42  1  1  0
 27  8  1  0
 16 12  1  0
M  CHG  2   7   1  15   1
M  END
>  <cnnaffinity>  (1) 
4.96362

>  <plip>  (1) 
-0.21428571428571427

>  <filename>  (1) 
[H][c]1[n][c]([H])[c]([C]([H])([H])[N+]([H])([H])[C]2([H])[C]([H])([H])[C]([H])([H])[C]([H])([C]3([H])[C]([H])([H])[C]([H])([H])[N+]([H])([H])[C]3([H])[H])[C]([H])([H])[C]2([H])[H])[c]([H])[c]1[H]

>  <combo1>  (1) 
-1.356261110634458

$$$$
