
     RDKit          3D

 55 56  0  0  0  0  0  0  0  0999 V2000
   10.2521    0.5233   26.1817 C   0  0  0  0  0  0  0  0  0  0  0  0
   10.8548   -0.1945   24.9686 C   0  0  0  0  0  0  0  0  0  0  0  0
   10.7974    0.6433   23.6996 C   0  0  0  0  0  0  0  0  0  0  0  0
   11.8593    1.5247   23.4435 C   0  0  0  0  0  0  0  0  0  0  0  0
   11.8473    2.3583   22.3205 C   0  0  0  0  0  0  0  0  0  0  0  0
   12.7925    3.2905   22.0255 O   0  0  0  0  0  0  0  0  0  0  0  0
   14.0097    3.2717   22.7358 C   0  0  0  0  0  0  0  0  0  0  0  0
   13.8781    3.5930   23.7754 H   0  0  0  0  0  0  0  0  0  0  0  0
   14.4603    2.2690   22.7234 H   0  0  0  0  0  0  0  0  0  0  0  0
   14.6707    3.9779   22.2314 H   0  0  0  0  0  0  0  0  0  0  0  0
   10.7951    2.2656   21.4068 C   0  0  0  0  0  0  0  0  0  0  0  0
    9.7259    1.4203   21.6637 C   0  0  0  0  0  0  0  0  0  0  0  0
    9.6894    0.6248   22.8288 C   0  0  0  0  0  0  0  0  0  0  0  0
    8.5222   -0.2774   23.1832 C   0  0  0  0  0  0  0  0  0  0  0  0
    7.3815   -0.0676   22.2858 N   0  0  0  0  0  4  0  0  0  0  0  0
    7.4873   -0.7660   20.9545 C   0  0  0  0  0  0  0  0  0  0  0  0
    7.1050   -2.2320   21.1288 C   0  0  0  0  0  0  0  0  0  0  0  0
    5.6310   -2.5689   21.1781 C   0  0  0  0  0  0  0  0  0  0  0  0
    5.4892   -4.0111   21.6050 N   0  0  0  0  0  4  0  0  0  0  0  0
    4.2231   -4.2803   22.3387 C   0  0  0  0  0  0  0  0  0  0  0  0
    4.0673   -5.3576   22.4478 H   0  0  0  0  0  0  0  0  0  0  0  0
    3.3626   -3.8856   21.7903 H   0  0  0  0  0  0  0  0  0  0  0  0
    4.2455   -3.8219   23.3341 H   0  0  0  0  0  0  0  0  0  0  0  0
    5.6536   -4.9497   20.4458 C   0  0  0  0  0  0  0  0  0  0  0  0
    5.1452   -4.5410   19.5681 H   0  0  0  0  0  0  0  0  0  0  0  0
    6.7061   -5.0964   20.1929 H   0  0  0  0  0  0  0  0  0  0  0  0
    5.1905   -5.9121   20.6774 H   0  0  0  0  0  0  0  0  0  0  0  0
    6.2664   -4.1672   22.2839 H   0  0  0  0  0  0  0  0  0  0  0  0
    5.0676   -1.9303   21.8634 H   0  0  0  0  0  0  0  0  0  0  0  0
    5.1800   -2.4501   20.1878 H   0  0  0  0  0  0  0  0  0  0  0  0
    7.5337   -2.8038   20.3271 H   0  0  0  0  0  0  0  0  0  0  0  0
    7.5721   -2.6001   22.0466 H   0  0  0  0  0  0  0  0  0  0  0  0
    6.7034    0.0164   19.9311 C   0  0  0  0  0  0  0  0  0  0  0  0
    5.4847    0.6714   20.1764 C   0  0  0  0  0  0  0  0  0  0  0  0
    4.8432    1.3216   19.1147 C   0  0  0  0  0  0  0  0  0  0  0  0
    5.4393    1.3067   17.8526 C   0  0  0  0  0  0  0  0  0  0  0  0
    6.6000    0.6894   17.5962 N   0  0  0  0  0  0  0  0  0  0  0  0
    7.2060    0.0768   18.6206 C   0  0  0  0  0  0  0  0  0  0  0  0
    8.1542   -0.4028   18.3740 H   0  0  0  0  0  0  0  0  0  0  0  0
    4.9666    1.8127   17.0089 H   0  0  0  0  0  0  0  0  0  0  0  0
    3.9151    1.8632   19.2607 H   0  0  0  0  0  0  0  0  0  0  0  0
    5.0503    0.6934   21.1770 H   0  0  0  0  0  0  0  0  0  0  0  0
    8.5372   -0.7626   20.6349 H   0  0  0  0  0  0  0  0  0  0  0  0
    6.4797   -0.3820   22.7038 H   0  0  0  0  0  0  0  0  0  0  0  0
    7.3396    0.9606   22.1066 H   0  0  0  0  0  0  0  0  0  0  0  0
    8.2338   -0.1035   24.2272 H   0  0  0  0  0  0  0  0  0  0  0  0
    8.8692   -1.3237   23.1548 H   0  0  0  0  0  0  0  0  0  0  0  0
    8.9194    1.3950   20.9325 H   0  0  0  0  0  0  0  0  0  0  0  0
   10.8522    2.8640   20.5078 H   0  0  0  0  0  0  0  0  0  0  0  0
   12.7050    1.5566   24.1195 H   0  0  0  0  0  0  0  0  0  0  0  0
   11.9016   -0.4313   25.1911 H   0  0  0  0  0  0  0  0  0  0  0  0
   10.3584   -1.1630   24.8314 H   0  0  0  0  0  0  0  0  0  0  0  0
    9.1857    0.7415   26.0550 H   0  0  0  0  0  0  0  0  0  0  0  0
   10.3664   -0.0738   27.0930 H   0  0  0  0  0  0  0  0  0  0  0  0
   10.7556    1.4832   26.3342 H   0  0  0  0  0  0  0  0  0  0  0  0
  1  2  1  0
  2  3  1  0
  3  4  2  0
  4  5  1  0
  5  6  1  0
  6  7  1  0
  7  8  1  0
  7  9  1  0
  7 10  1  0
  5 11  2  0
 11 12  1  0
 12 13  2  0
 13 14  1  0
 14 15  1  0
 15 16  1  0
 16 17  1  0
 17 18  1  0
 18 19  1  0
 19 20  1  0
 20 21  1  0
 20 22  1  0
 20 23  1  0
 19 24  1  0
 24 25  1  0
 24 26  1  0
 24 27  1  0
 19 28  1  0
 18 29  1  0
 18 30  1  0
 17 31  1  0
 17 32  1  0
 16 33  1  0
 33 34  2  0
 34 35  1  0
 35 36  2  0
 36 37  1  0
 37 38  2  0
 38 39  1  0
 36 40  1  0
 35 41  1  0
 34 42  1  0
 16 43  1  0
 15 44  1  0
 15 45  1  0
 14 46  1  0
 14 47  1  0
 12 48  1  0
 11 49  1  0
  4 50  1  0
  2 51  1  0
  2 52  1  0
  1 53  1  0
  1 54  1  0
  1 55  1  0
 13  3  1  0
 38 33  1  0
M  CHG  2  15   1  19   1
M  END
>  <cnnaffinity>  (1) 
4.70981

>  <plip>  (1) 
-0.1724137931034483

>  <filename>  (1) 
[H][c]1[n][c]([H])[c]([C]([H])([C]([H])([H])[C]([H])([H])[N+]([H])([C]([H])([H])[H])[C]([H])([H])[H])[N+]([H])([H])[C]([H])([H])[c]2[c]([H])[c]([H])[c]([O][C]([H])([H])[H])[c]([H])[c]2[C]([H])([H])[C]([H])([H])[H])[c]([H])[c]1[H]

>  <combo1>  (1) 
-0.821513182975356

$$$$
