
     RDKit          3D

 23 24  0  0  0  0  0  0  0  0999 V2000
    9.7042   -4.1469   24.4184 H   0  0  0  0  0  0  0  0  0  0  0  0
    9.2673   -3.1896   24.1478 C   0  0  0  0  0  0  0  0  0  0  0  0
    9.0777   -2.2205   24.9888 N   0  0  0  0  0  0  0  0  0  0  0  0
    8.5076   -1.1490   24.3516 C   0  0  0  0  0  0  0  0  0  0  0  0
    8.2761   -0.2613   24.9269 H   0  0  0  0  0  0  0  0  0  0  0  0
    8.2553   -1.2926   23.0182 C   0  0  0  0  0  0  0  0  0  0  0  0
    7.6420   -0.3319   22.0929 C   0  0  0  0  0  0  0  0  0  0  0  0
    7.3697   -0.7373   20.9047 N   0  0  0  0  0  0  0  0  0  0  0  0
    6.6769    0.0095   19.9300 C   0  0  0  0  0  0  0  0  0  0  0  0
    7.1767    0.0576   18.6019 C   0  0  0  0  0  0  0  0  0  0  0  0
    8.1217   -0.4389   18.3891 H   0  0  0  0  0  0  0  0  0  0  0  0
    6.5704    0.6775   17.5843 N   0  0  0  0  0  0  0  0  0  0  0  0
    5.3992    1.2951   17.8418 C   0  0  0  0  0  0  0  0  0  0  0  0
    4.9101    1.7789   16.9985 H   0  0  0  0  0  0  0  0  0  0  0  0
    4.8065    1.3063   19.1073 C   0  0  0  0  0  0  0  0  0  0  0  0
    3.8739    1.8420   19.2654 H   0  0  0  0  0  0  0  0  0  0  0  0
    5.4481    0.6454   20.1646 C   0  0  0  0  0  0  0  0  0  0  0  0
    5.0144    0.6207   21.1638 H   0  0  0  0  0  0  0  0  0  0  0  0
    7.4100    1.0821   22.5684 C   0  0  0  0  0  0  0  0  0  0  0  0
    6.4584    1.1394   23.1018 H   0  0  0  0  0  0  0  0  0  0  0  0
    8.2027    1.4038   23.2420 H   0  0  0  0  0  0  0  0  0  0  0  0
    7.3745    1.7835   21.7307 H   0  0  0  0  0  0  0  0  0  0  0  0
    8.7630   -2.8756   22.5264 S   0  0  0  0  0  0  0  0  0  0  0  0
  1  2  1  0
  2  3  2  0
  3  4  1  0
  4  5  1  0
  4  6  2  0
  6  7  1  0
  7  8  2  3
  8  9  1  0
  9 10  2  0
 10 11  1  0
 10 12  1  0
 12 13  2  0
 13 14  1  0
 13 15  1  0
 15 16  1  0
 15 17  2  0
 17 18  1  0
  7 19  1  0
 19 20  1  0
 19 21  1  0
 19 22  1  0
  6 23  1  0
 23  2  1  0
 17  9  1  0
M  END
>  <cnnaffinity>  (1) 
4.60131

>  <plip>  (1) 
-0.0

>  <filename>  (1) 
[H][c]1[n][c]([H])[c]([C](=[N][c]2[c]([H])[n][c]([H])[c]([H])[c]2[H])[C]([H])([H])[H])[s]1

>  <combo1>  (1) 
-7.5454813794460555e-06

$$$$
