
     RDKit          3D

 39 39  0  0  0  0  0  0  0  0999 V2000
    4.9492    1.7636   16.9403 H   0  0  0  0  0  0  0  0  0  0  0  0
    5.4148    1.2921   17.8042 C   0  0  0  0  0  0  0  0  0  0  0  0
    6.5711    0.6490   17.5791 N   0  0  0  0  0  0  0  0  0  0  0  0
    7.1656    0.0556   18.6252 C   0  0  0  0  0  0  0  0  0  0  0  0
    8.0945   -0.4667   18.4114 H   0  0  0  0  0  0  0  0  0  0  0  0
    6.6838    0.0742   19.9546 C   0  0  0  0  0  0  0  0  0  0  0  0
    7.4504   -0.5000   21.0002 N   0  0  0  0  0  0  0  0  0  0  0  0
    7.0593   -0.2466   22.3327 N   0  0  0  0  0  0  0  0  0  0  0  0
    6.0425   -0.3889   22.4198 H   0  0  0  0  0  0  0  0  0  0  0  0
    7.2725    1.1194   22.5693 O   0  0  0  0  0  0  0  0  0  0  0  0
    8.4854    1.3434   23.2838 C   0  0  0  0  0  0  0  0  0  0  0  0
    8.4609    0.7981   24.2352 H   0  0  0  0  0  0  0  0  0  0  0  0
    8.4458    2.4147   23.4916 H   0  0  0  0  0  0  0  0  0  0  0  0
    9.7673    1.0180   22.5019 C   0  0  0  0  0  0  0  0  0  0  0  0
    9.7142    1.5083   21.5206 H   0  0  0  0  0  0  0  0  0  0  0  0
    9.7902   -0.0597   22.2968 H   0  0  0  0  0  0  0  0  0  0  0  0
   11.0091    1.4100   23.1739 N   0  0  0  0  0  0  0  0  0  0  0  0
   11.3365    2.8393   23.1819 C   0  0  0  0  0  0  0  0  0  0  0  0
   11.3662    3.2252   24.2154 H   0  0  0  0  0  0  0  0  0  0  0  0
   10.5549    3.4153   22.6644 H   0  0  0  0  0  0  0  0  0  0  0  0
   12.6693    3.1346   22.4949 C   0  0  0  0  0  0  0  0  0  0  0  0
   13.5022    2.6102   22.9670 H   0  0  0  0  0  0  0  0  0  0  0  0
   12.6309    2.8130   21.4516 H   0  0  0  0  0  0  0  0  0  0  0  0
   12.8955    4.2043   22.5221 H   0  0  0  0  0  0  0  0  0  0  0  0
   11.3275    0.7040   24.4161 C   0  0  0  0  0  0  0  0  0  0  0  0
   10.8122    1.1384   25.2997 H   0  0  0  0  0  0  0  0  0  0  0  0
   10.9703   -0.3320   24.3392 H   0  0  0  0  0  0  0  0  0  0  0  0
   12.8330    0.6723   24.6604 C   0  0  0  0  0  0  0  0  0  0  0  0
   13.2355    1.6826   24.7307 H   0  0  0  0  0  0  0  0  0  0  0  0
   13.1152    0.1396   25.5734 H   0  0  0  0  0  0  0  0  0  0  0  0
   13.3316    0.1917   23.8150 H   0  0  0  0  0  0  0  0  0  0  0  0
    8.0627   -1.8131   20.8498 C   0  0  0  0  0  0  0  0  0  0  0  0
    8.8526   -1.7777   20.0936 H   0  0  0  0  0  0  0  0  0  0  0  0
    7.3334   -2.5928   20.5810 H   0  0  0  0  0  0  0  0  0  0  0  0
    8.5414   -2.0778   21.7970 H   0  0  0  0  0  0  0  0  0  0  0  0
    5.4499    0.7396   20.1548 C   0  0  0  0  0  0  0  0  0  0  0  0
    5.0060    0.8139   21.1433 H   0  0  0  0  0  0  0  0  0  0  0  0
    4.8159    1.3400   19.0645 C   0  0  0  0  0  0  0  0  0  0  0  0
    3.8642    1.8546   19.1811 H   0  0  0  0  0  0  0  0  0  0  0  0
  1  2  1  0
  2  3  2  0
  3  4  1  0
  4  5  1  0
  4  6  2  0
  6  7  1  0
  7  8  1  0
  8  9  1  0
  8 10  1  0
 10 11  1  0
 11 12  1  0
 11 13  1  0
 11 14  1  0
 14 15  1  0
 14 16  1  0
 14 17  1  0
 17 18  1  0
 18 19  1  0
 18 20  1  0
 18 21  1  0
 21 22  1  0
 21 23  1  0
 21 24  1  0
 17 25  1  0
 25 26  1  0
 25 27  1  0
 25 28  1  0
 28 29  1  0
 28 30  1  0
 28 31  1  0
  7 32  1  0
 32 33  1  0
 32 34  1  0
 32 35  1  0
  6 36  1  0
 36 37  1  0
 36 38  2  0
 38 39  1  0
 38  2  1  0
M  END
>  <cnnaffinity>  (1) 
4.36824

>  <plip>  (1) 
-0.10344827586206896

>  <filename>  (1) 
[H][c]1[n][c]([H])[c]([N]([N]([H])[O][C]([H])([H])[C]([H])([H])[N]([C]([H])([H])[C]([H])([H])[H])[C]([H])([H])[C]([H])([H])[H])[C]([H])([H])[H])[c]([H])[c]1[H]

>  <combo1>  (1) 
-0.6320052259099223

$$$$
