
     RDKit          3D

 46 49  0  0  0  0  0  0  0  0999 V2000
    9.2476    1.4004   21.3216 O   0  0  0  0  0  0  0  0  0  0  0  0
    8.4677    1.1539   22.2191 C   0  0  0  0  0  0  0  0  0  0  0  0
    8.4378    1.7945   23.4559 N   0  0  0  0  0  0  0  0  0  0  0  0
    9.4178    2.7124   23.7343 C   0  0  0  0  0  0  0  0  0  0  0  0
    9.1191    3.8442   24.3010 N   0  0  0  0  0  0  0  0  0  0  0  0
   10.3111    4.5744   24.3673 O   0  0  0  0  0  0  0  0  0  0  0  0
   11.2986    3.8285   23.8447 C   0  0  0  0  0  0  0  0  0  0  0  0
   12.6323    4.2120   23.6463 C   0  0  0  0  0  0  0  0  0  0  0  0
   13.4765    3.2448   23.1142 C   0  0  0  0  0  0  0  0  0  0  0  0
   13.0259    1.9391   22.8199 C   0  0  0  0  0  0  0  0  0  0  0  0
   11.6978    1.5829   23.0166 C   0  0  0  0  0  0  0  0  0  0  0  0
   10.8199    2.5786   23.4795 C   0  0  0  0  0  0  0  0  0  0  0  0
   11.3486    0.5853   22.7779 H   0  0  0  0  0  0  0  0  0  0  0  0
   13.7206    1.2141   22.4083 H   0  0  0  0  0  0  0  0  0  0  0  0
   14.5088    3.5045   22.9009 H   0  0  0  0  0  0  0  0  0  0  0  0
   12.9538    5.2144   23.8905 H   0  0  0  0  0  0  0  0  0  0  0  0
    7.5235    2.0857   23.7515 H   0  0  0  0  0  0  0  0  0  0  0  0
    7.5386    0.1770   22.1839 N   0  0  0  0  0  0  0  0  0  0  0  0
    7.3825   -0.6712   21.0219 C   0  0  0  0  0  0  0  0  0  0  0  0
    6.6507   -1.9644   21.3883 C   0  0  0  0  0  0  0  0  0  0  0  0
    7.3293   -2.8922   22.4031 C   0  0  0  0  0  0  0  0  0  0  0  0
    8.6138   -3.5795   21.9263 C   0  0  0  0  0  0  0  0  0  0  0  0
    8.6450   -4.8983   22.7312 C   0  0  0  0  0  0  0  0  0  0  0  0
    7.3650   -5.0582   23.3243 O   0  0  0  0  0  0  0  0  0  0  0  0
    6.4792   -4.1232   22.7425 C   0  0  0  0  0  0  0  0  0  0  0  0
    6.0138   -4.5429   21.8277 H   0  0  0  0  0  0  0  0  0  0  0  0
    5.6946   -3.9123   23.4723 H   0  0  0  0  0  0  0  0  0  0  0  0
    9.3930   -4.8773   23.5322 H   0  0  0  0  0  0  0  0  0  0  0  0
    8.8592   -5.7532   22.0721 H   0  0  0  0  0  0  0  0  0  0  0  0
    9.5203   -2.9770   22.0649 H   0  0  0  0  0  0  0  0  0  0  0  0
    8.5228   -3.8169   20.8604 H   0  0  0  0  0  0  0  0  0  0  0  0
    7.5415   -2.3519   23.3401 H   0  0  0  0  0  0  0  0  0  0  0  0
    5.6520   -1.6820   21.7467 H   0  0  0  0  0  0  0  0  0  0  0  0
    6.4853   -2.5203   20.4568 H   0  0  0  0  0  0  0  0  0  0  0  0
    6.6473    0.0801   19.9235 C   0  0  0  0  0  0  0  0  0  0  0  0
    5.4211    0.7297   20.1345 C   0  0  0  0  0  0  0  0  0  0  0  0
    4.7962    1.3431   19.0482 C   0  0  0  0  0  0  0  0  0  0  0  0
    5.4143    1.2979   17.7934 C   0  0  0  0  0  0  0  0  0  0  0  0
    6.5858    0.6849   17.5725 N   0  0  0  0  0  0  0  0  0  0  0  0
    7.1727    0.1044   18.6289 C   0  0  0  0  0  0  0  0  0  0  0  0
    8.1266   -0.3862   18.4318 H   0  0  0  0  0  0  0  0  0  0  0  0
    4.9455    1.7673   16.9293 H   0  0  0  0  0  0  0  0  0  0  0  0
    3.8501    1.8587   19.1607 H   0  0  0  0  0  0  0  0  0  0  0  0
    4.9660    0.7699   21.1284 H   0  0  0  0  0  0  0  0  0  0  0  0
    8.3924   -0.9046   20.6493 H   0  0  0  0  0  0  0  0  0  0  0  0
    6.9316    0.0918   22.9740 H   0  0  0  0  0  0  0  0  0  0  0  0
  1  2  2  0
  2  3  1  0
  3  4  1  0
  4  5  2  0
  5  6  1  0
  6  7  1  0
  7  8  2  0
  8  9  1  0
  9 10  2  0
 10 11  1  0
 11 12  2  0
 11 13  1  0
 10 14  1  0
  9 15  1  0
  8 16  1  0
  3 17  1  0
  2 18  1  0
 18 19  1  0
 19 20  1  0
 20 21  1  0
 21 22  1  0
 22 23  1  0
 23 24  1  0
 24 25  1  0
 25 26  1  0
 25 27  1  0
 23 28  1  0
 23 29  1  0
 22 30  1  0
 22 31  1  0
 21 32  1  0
 20 33  1  0
 20 34  1  0
 19 35  1  0
 35 36  2  0
 36 37  1  0
 37 38  2  0
 38 39  1  0
 39 40  2  0
 40 41  1  0
 38 42  1  0
 37 43  1  0
 36 44  1  0
 19 45  1  0
 18 46  1  0
 12  4  1  0
 25 21  1  0
 40 35  1  0
 12  7  1  0
M  END
>  <cnnaffinity>  (1) 
5.82646

>  <plip>  (1) 
-0.13793103448275862

>  <filename>  (1) 
[H][c]1[n][c]([H])[c]([C]([H])([N]([H])[C](=[O])[N]([H])[c]2[n][o][c]3[c]([H])[c]([H])[c]([H])[c]([H])[c]23)[C]([H])([H])[C]2([H])[C]([H])([H])[O][C]([H])([H])[C]2([H])[H])[c]([H])[c]1[H]

>  <combo1>  (1) 
-0.7601809860292874

$$$$
