
     RDKit          3D

 50 52  0  0  0  0  0  0  0  0999 V2000
    6.0263   -2.9890   19.9381 O   0  0  0  0  0  0  0  0  0  0  0  0
    5.8991   -2.7638   21.1263 C   0  0  0  0  0  0  0  0  0  0  0  0
    5.2039   -3.7450   21.9970 C   0  0  0  0  0  0  0  0  0  0  0  0
    5.1906   -3.8349   23.3315 C   0  0  0  0  0  0  0  0  0  0  0  0
    4.4961   -4.8806   24.1169 C   0  0  0  0  0  0  0  0  0  0  0  0
    3.3006   -5.4858   23.6944 C   0  0  0  0  0  0  0  0  0  0  0  0
    2.7653   -5.1861   22.4511 O   0  0  0  0  0  0  0  0  0  0  0  0
    1.8802   -4.8339   22.6117 H   0  0  0  0  0  0  0  0  0  0  0  0
    2.6507   -6.4325   24.5193 C   0  0  0  0  0  0  0  0  0  0  0  0
    1.4205   -6.9595   24.1800 O   0  0  0  0  0  0  0  0  0  0  0  0
    1.4542   -7.1709   23.2388 H   0  0  0  0  0  0  0  0  0  0  0  0
    3.2340   -6.8212   25.7200 C   0  0  0  0  0  0  0  0  0  0  0  0
    4.4480   -6.2542   26.1450 C   0  0  0  0  0  0  0  0  0  0  0  0
    5.0486   -5.2729   25.3585 C   0  0  0  0  0  0  0  0  0  0  0  0
    5.9749   -4.8047   25.6828 H   0  0  0  0  0  0  0  0  0  0  0  0
    4.9015   -6.5717   27.0872 H   0  0  0  0  0  0  0  0  0  0  0  0
    2.7018   -7.5696   26.2987 H   0  0  0  0  0  0  0  0  0  0  0  0
    5.7776   -3.1621   23.9644 H   0  0  0  0  0  0  0  0  0  0  0  0
    4.7592   -4.5300   21.4030 H   0  0  0  0  0  0  0  0  0  0  0  0
    6.4085   -1.6559   21.7397 N   0  0  0  0  0  0  0  0  0  0  0  0
    7.1960   -0.6956   20.9826 C   0  0  0  0  0  0  0  0  0  0  0  0
    7.8061    0.3852   21.9018 C   0  0  0  0  0  0  0  0  0  0  0  0
    8.7460   -0.1583   22.9159 N   0  0  0  0  0  4  0  0  0  0  0  0
   10.0291   -0.6914   22.3478 C   0  0  0  0  0  0  0  0  0  0  0  0
   10.8693   -0.9443   23.5873 C   0  0  0  0  0  0  0  0  0  0  0  0
   10.4204    0.1186   24.6183 C   0  0  0  0  0  0  0  0  0  0  0  0
    9.2104    0.8105   23.9705 C   0  0  0  0  0  0  0  0  0  0  0  0
    8.4004    1.0676   24.6585 H   0  0  0  0  0  0  0  0  0  0  0  0
    9.5204    1.7351   23.4668 H   0  0  0  0  0  0  0  0  0  0  0  0
   11.2119    0.8460   24.8291 H   0  0  0  0  0  0  0  0  0  0  0  0
   10.1549   -0.3340   25.5802 H   0  0  0  0  0  0  0  0  0  0  0  0
   10.6808   -1.9602   23.9545 H   0  0  0  0  0  0  0  0  0  0  0  0
   11.9238   -0.8609   23.3231 H   0  0  0  0  0  0  0  0  0  0  0  0
    9.8689   -1.5932   21.7475 H   0  0  0  0  0  0  0  0  0  0  0  0
   10.4847    0.0847   21.7149 H   0  0  0  0  0  0  0  0  0  0  0  0
    8.2640   -0.9569   23.3955 H   0  0  0  0  0  0  0  0  0  0  0  0
    8.3376    1.1107   21.2715 H   0  0  0  0  0  0  0  0  0  0  0  0
    6.9884    0.9355   22.3838 H   0  0  0  0  0  0  0  0  0  0  0  0
    6.4391   -0.0473   19.8396 C   0  0  0  0  0  0  0  0  0  0  0  0
    5.2415    0.6542   20.0278 C   0  0  0  0  0  0  0  0  0  0  0  0
    4.7104    1.3717   18.9540 C   0  0  0  0  0  0  0  0  0  0  0  0
    5.3838    1.3520   17.7261 C   0  0  0  0  0  0  0  0  0  0  0  0
    6.5063    0.6503   17.5097 N   0  0  0  0  0  0  0  0  0  0  0  0
    6.9964   -0.0370   18.5515 C   0  0  0  0  0  0  0  0  0  0  0  0
    7.8947   -0.6200   18.3428 H   0  0  0  0  0  0  0  0  0  0  0  0
    4.9979    1.9104   16.8734 H   0  0  0  0  0  0  0  0  0  0  0  0
    3.8030    1.9563   19.0602 H   0  0  0  0  0  0  0  0  0  0  0  0
    4.7276    0.6388   20.9932 H   0  0  0  0  0  0  0  0  0  0  0  0
    8.0198   -1.2627   20.5337 H   0  0  0  0  0  0  0  0  0  0  0  0
    5.9119   -1.3895   22.5706 H   0  0  0  0  0  0  0  0  0  0  0  0
  1  2  2  0
  2  3  1  0
  3  4  2  3
  4  5  1  0
  5  6  2  0
  6  7  1  0
  7  8  1  0
  6  9  1  0
  9 10  1  0
 10 11  1  0
  9 12  2  0
 12 13  1  0
 13 14  2  0
 14 15  1  0
 13 16  1  0
 12 17  1  0
  4 18  1  0
  3 19  1  0
  2 20  1  0
 20 21  1  0
 21 22  1  0
 22 23  1  0
 23 24  1  0
 24 25  1  0
 25 26  1  0
 26 27  1  0
 27 28  1  0
 27 29  1  0
 26 30  1  0
 26 31  1  0
 25 32  1  0
 25 33  1  0
 24 34  1  0
 24 35  1  0
 23 36  1  0
 22 37  1  0
 22 38  1  0
 21 39  1  0
 39 40  2  0
 40 41  1  0
 41 42  2  0
 42 43  1  0
 43 44  2  0
 44 45  1  0
 42 46  1  0
 41 47  1  0
 40 48  1  0
 21 49  1  0
 20 50  1  0
 14  5  1  0
 27 23  1  0
 44 39  1  0
M  CHG  1  23   1
M  END
>  <cnnaffinity>  (1) 
5.70269

>  <plip>  (1) 
-0.16666666666666666

>  <filename>  (1) 
[H][O][c]1[c]([H])[c]([H])[c]([H])[c]([C]([H])=[C]([H])[C](=[O])[N]([H])[C]([H])([c]2[c]([H])[n][c]([H])[c]([H])[c]2[H])[C]([H])([H])[N+]2([H])[C]([H])([H])[C]([H])([H])[C]([H])([H])[C]2([H])[H])[c]1[O][H]

>  <combo1>  (1) 
-0.8938749855009769

$$$$
