
     RDKit          3D

 24 25  0  0  0  0  0  0  0  0999 V2000
    8.7072   -1.1917   22.8603 H   0  0  0  0  0  0  0  0  0  0  0  0
    7.8814   -1.6850   22.8153 O   0  0  0  0  0  0  0  0  0  0  0  0
    7.0003   -0.7095   22.3080 C   0  0  1  0  0  0  0  0  0  0  0  0
    5.9712   -1.0933   22.4159 H   0  0  0  0  0  0  0  0  0  0  0  0
    7.1407    0.6252   22.9797 C   0  0  0  0  0  0  0  0  0  0  0  0
    8.1807    1.5628   22.7646 C   0  0  0  0  0  0  0  0  0  0  0  0
    9.0471    1.5473   22.1099 H   0  0  0  0  0  0  0  0  0  0  0  0
    7.9991    2.6574   23.4918 N   0  0  0  0  0  0  0  0  0  0  0  0
    6.8615    2.4432   24.1616 N   0  0  0  0  0  0  0  0  0  0  0  0
    6.5284    3.1573   24.7980 H   0  0  0  0  0  0  0  0  0  0  0  0
    6.3055    1.2388   23.8866 C   0  0  0  0  0  0  0  0  0  0  0  0
    5.3743    0.9164   24.3358 H   0  0  0  0  0  0  0  0  0  0  0  0
    7.4295   -0.6120   20.9443 N   0  0  0  0  0  0  0  0  0  0  0  0
    8.1343   -1.3099   20.7804 H   0  0  0  0  0  0  0  0  0  0  0  0
    6.7133    0.0018   19.9148 C   0  0  0  0  0  0  0  0  0  0  0  0
    7.1924    0.0534   18.5751 C   0  0  0  0  0  0  0  0  0  0  0  0
    8.1371   -0.4293   18.3284 H   0  0  0  0  0  0  0  0  0  0  0  0
    6.5676    0.6663   17.5604 N   0  0  0  0  0  0  0  0  0  0  0  0
    5.4063    1.2868   17.8333 C   0  0  0  0  0  0  0  0  0  0  0  0
    4.9291    1.7954   16.9999 H   0  0  0  0  0  0  0  0  0  0  0  0
    4.8280    1.2932   19.1078 C   0  0  0  0  0  0  0  0  0  0  0  0
    3.8880    1.8206   19.2654 H   0  0  0  0  0  0  0  0  0  0  0  0
    5.4794    0.6398   20.1603 C   0  0  0  0  0  0  0  0  0  0  0  0
    5.0400    0.6240   21.1563 H   0  0  0  0  0  0  0  0  0  0  0  0
  1  2  1  0
  2  3  1  0
  3  4  1  6
  3  5  1  0
  5  6  1  0
  6  7  1  0
  6  8  2  0
  8  9  1  0
  9 10  1  0
  9 11  1  0
 11 12  1  0
  3 13  1  0
 13 14  1  0
 13 15  1  0
 15 16  2  0
 16 17  1  0
 16 18  1  0
 18 19  2  0
 19 20  1  0
 19 21  1  0
 21 22  1  0
 21 23  2  0
 23 24  1  0
 11  5  2  0
 23 15  1  0
M  END
>  <cnnaffinity>  (1) 
4.04874

>  <plip>  (1) 
-0.03571428571428571

>  <filename>  (1) 
[H][O][C@@]([H])([c]1[c]([H])[n][n]([H])[c]1[H])[N]([H])[c]1[c]([H])[n][c]([H])[c]([H])[c]1[H]

>  <combo1>  (1) 
-0.25340570599395235

$$$$
