
     RDKit          3D

 33 35  0  0  0  0  0  0  0  0999 V2000
    8.7180   -0.5964   21.0800 C   0  0  0  0  0  0  0  0  0  0  0  0
    7.3865   -0.6503   20.9375 C   0  0  0  0  0  0  0  0  0  0  0  0
    6.6605    0.0630   19.8453 C   0  0  0  0  0  0  0  0  0  0  0  0
    5.4313    0.7088   20.0653 C   0  0  0  0  0  0  0  0  0  0  0  0
    4.8016    1.3574   19.0005 C   0  0  0  0  0  0  0  0  0  0  0  0
    5.4067    1.3492   17.7419 C   0  0  0  0  0  0  0  0  0  0  0  0
    6.5698    0.7264   17.4994 N   0  0  0  0  0  0  0  0  0  0  0  0
    7.1692    0.1139   18.5281 C   0  0  0  0  0  0  0  0  0  0  0  0
    8.0982   -0.3991   18.2846 H   0  0  0  0  0  0  0  0  0  0  0  0
    4.9419    1.8550   16.8936 H   0  0  0  0  0  0  0  0  0  0  0  0
    3.8587    1.8723   19.1318 H   0  0  0  0  0  0  0  0  0  0  0  0
    4.9712    0.7073   21.0552 H   0  0  0  0  0  0  0  0  0  0  0  0
    6.5149   -1.3949   21.9501 C   0  0  0  0  0  0  0  0  0  0  0  0
    7.2766   -2.4907   22.6793 N   0  0  0  0  0  4  0  0  0  0  0  0
    6.4993   -3.2711   23.7321 C   0  0  0  0  0  0  0  0  0  0  0  0
    7.2957   -4.5133   24.0819 C   0  0  0  0  0  0  0  0  0  0  0  0
    7.7750   -4.6885   25.2864 N   0  0  0  0  0  0  0  0  0  0  0  0
    8.7689   -5.9995   25.2598 S   0  0  0  0  0  0  0  0  0  0  0  0
    8.5609   -6.3954   23.6803 N   0  0  0  0  0  0  0  0  0  0  0  0
    7.7416   -5.5150   23.1629 C   0  0  0  0  0  0  0  0  0  0  0  0
    7.4601   -5.5857   22.1186 H   0  0  0  0  0  0  0  0  0  0  0  0
    6.3950   -2.6877   24.6578 H   0  0  0  0  0  0  0  0  0  0  0  0
    5.4920   -3.5008   23.3600 H   0  0  0  0  0  0  0  0  0  0  0  0
    8.5772   -1.8821   23.2613 C   0  0  0  0  0  0  0  0  0  0  0  0
    9.4681   -1.3978   22.1238 C   0  0  0  0  0  0  0  0  0  0  0  0
   10.2649   -0.7882   22.5580 H   0  0  0  0  0  0  0  0  0  0  0  0
    9.9639   -2.2513   21.6446 H   0  0  0  0  0  0  0  0  0  0  0  0
    9.0655   -2.6366   23.8844 H   0  0  0  0  0  0  0  0  0  0  0  0
    8.2912   -1.0422   23.9014 H   0  0  0  0  0  0  0  0  0  0  0  0
    7.5771   -3.1705   21.9384 H   0  0  0  0  0  0  0  0  0  0  0  0
    5.6560   -1.8240   21.4323 H   0  0  0  0  0  0  0  0  0  0  0  0
    6.1256   -0.6850   22.6916 H   0  0  0  0  0  0  0  0  0  0  0  0
    9.3169    0.0336   20.4168 H   0  0  0  0  0  0  0  0  0  0  0  0
  1  2  2  0
  2  3  1  0
  3  4  2  0
  4  5  1  0
  5  6  2  0
  6  7  1  0
  7  8  2  0
  8  9  1  0
  6 10  1  0
  5 11  1  0
  4 12  1  0
  2 13  1  0
 13 14  1  0
 14 15  1  0
 15 16  1  0
 16 17  2  0
 17 18  1  0
 18 19  1  0
 19 20  2  0
 20 21  1  0
 15 22  1  0
 15 23  1  0
 14 24  1  0
 24 25  1  0
 25 26  1  0
 25 27  1  0
 24 28  1  0
 24 29  1  0
 14 30  1  0
 13 31  1  0
 13 32  1  0
  1 33  1  0
 25  1  1  0
  8  3  1  0
 20 16  1  0
M  CHG  1  14   1
M  END
>  <cnnaffinity>  (1) 
4.85684

>  <plip>  (1) 
-0.03571428571428571

>  <filename>  (1) 
[H][C]1=[C]([c]2[c]([H])[n][c]([H])[c]([H])[c]2[H])[C]([H])([H])[N+]([H])([C]([H])([H])[c]2[n][s][n][c]2[H])[C]([H])([H])[C]1([H])[H]

>  <combo1>  (1) 
-0.22293325754179097

$$$$
