
     RDKit          3D

 31 33  0  0  0  0  0  0  0  0999 V2000
    4.9210    1.7764   16.9996 H   0  0  0  0  0  0  0  0  0  0  0  0
    5.4048    1.2894   17.8447 C   0  0  0  0  0  0  0  0  0  0  0  0
    6.5714    0.6701   17.5922 N   0  0  0  0  0  0  0  0  0  0  0  0
    7.1834    0.0542   18.6048 C   0  0  0  0  0  0  0  0  0  0  0  0
    8.1296   -0.4327   18.3772 H   0  0  0  0  0  0  0  0  0  0  0  0
    6.6593    0.0096   19.9008 C   0  0  0  0  0  0  0  0  0  0  0  0
    7.3562   -0.6773   20.9355 N   0  0  0  0  0  0  0  0  0  0  0  0
    8.5160   -1.2970   20.7691 N   0  0  0  0  0  0  0  0  0  0  0  0
    8.8369   -1.7965   21.9158 N   0  0  0  0  0  0  0  0  0  0  0  0
    7.8501   -1.4595   22.7888 C   0  0  0  0  0  0  0  0  0  0  0  0
    7.8570   -1.9225   24.2570 C   0  0  0  0  0  0  0  0  0  0  0  0
    8.6403   -2.7658   24.6572 O   0  0  0  0  0  0  0  0  0  0  0  0
    6.9043   -1.3804   25.1162 N   0  0  0  0  0  0  0  0  0  0  0  0
    6.2564   -2.2658   26.1106 C   0  0  0  0  0  0  0  0  0  0  0  0
    6.9388   -3.0832   26.3555 H   0  0  0  0  0  0  0  0  0  0  0  0
    5.3348   -2.7056   25.6995 H   0  0  0  0  0  0  0  0  0  0  0  0
    5.8990   -1.5063   27.3865 C   0  0  0  0  0  0  0  0  0  0  0  0
    6.8123   -1.2399   27.9365 H   0  0  0  0  0  0  0  0  0  0  0  0
    5.2836   -2.1314   28.0410 H   0  0  0  0  0  0  0  0  0  0  0  0
    5.1520   -0.3315   27.1138 O   0  0  0  0  0  0  0  0  0  0  0  0
    5.9228    0.5539   26.3201 C   0  0  0  0  0  0  0  0  0  0  0  0
    6.8378    0.8334   26.8624 H   0  0  0  0  0  0  0  0  0  0  0  0
    5.3280    1.4613   26.1787 H   0  0  0  0  0  0  0  0  0  0  0  0
    6.2861   -0.0523   24.9598 C   0  0  0  0  0  0  0  0  0  0  0  0
    5.3775   -0.1036   24.3564 H   0  0  0  0  0  0  0  0  0  0  0  0
    6.9779    0.6197   24.4489 H   0  0  0  0  0  0  0  0  0  0  0  0
    6.8995   -0.7435   22.1743 N   0  0  0  0  0  0  0  0  0  0  0  0
    5.4423    0.6487   20.1697 C   0  0  0  0  0  0  0  0  0  0  0  0
    5.0097    0.6291   21.1713 H   0  0  0  0  0  0  0  0  0  0  0  0
    4.8122    1.3052   19.1121 C   0  0  0  0  0  0  0  0  0  0  0  0
    3.8797    1.8386   19.2654 H   0  0  0  0  0  0  0  0  0  0  0  0
  1  2  1  0
  2  3  2  0
  3  4  1  0
  4  5  1  0
  4  6  2  0
  6  7  1  0
  7  8  1  0
  8  9  2  0
  9 10  1  0
 10 11  1  0
 11 12  2  0
 11 13  1  0
 13 14  1  0
 14 15  1  0
 14 16  1  0
 14 17  1  0
 17 18  1  0
 17 19  1  0
 17 20  1  0
 20 21  1  0
 21 22  1  0
 21 23  1  0
 21 24  1  0
 24 25  1  0
 24 26  1  0
 10 27  2  0
  6 28  1  0
 28 29  1  0
 28 30  2  0
 30 31  1  0
 30  2  1  0
 27  7  1  0
 24 13  1  0
M  END
>  <cnnaffinity>  (1) 
4.53022

>  <plip>  (1) 
-0.06896551724137931

>  <filename>  (1) 
[H][c]1[n][c]([H])[c](-[n]2[n][n][c]([C](=[O])[N]3[C]([H])([H])[C]([H])([H])[O][C]([H])([H])[C]3([H])[H])[n]2)[c]([H])[c]1[H]

>  <combo1>  (1) 
-0.4001544185391636

$$$$
