
     RDKit          3D

 32 33  0  0  0  0  0  0  0  0999 V2000
   13.5120    0.2998   24.5258 H   0  0  0  0  0  0  0  0  0  0  0  0
   13.2576    0.9002   23.8119 O   0  0  0  0  0  0  0  0  0  0  0  0
   13.0021    0.1090   22.6577 C   0  0  0  0  0  0  0  0  0  0  0  0
   13.1807    0.7695   21.8028 H   0  0  0  0  0  0  0  0  0  0  0  0
   13.7127   -0.7238   22.5842 H   0  0  0  0  0  0  0  0  0  0  0  0
   11.5772   -0.4608   22.6254 C   0  0  0  0  0  0  0  0  0  0  0  0
   11.3367   -0.7984   23.6469 H   0  0  0  0  0  0  0  0  0  0  0  0
   10.8682    0.3525   22.3987 H   0  0  0  0  0  0  0  0  0  0  0  0
   11.4658   -1.6015   21.7080 N   0  0  0  0  0  0  0  0  0  0  0  0
   11.5843   -1.3025   20.7372 H   0  0  0  0  0  0  0  0  0  0  0  0
   10.2122   -2.3756   21.7975 C   0  0  0  0  0  0  0  0  0  0  0  0
   10.1283   -2.9257   20.8594 H   0  0  0  0  0  0  0  0  0  0  0  0
   10.3007   -3.0994   22.6190 H   0  0  0  0  0  0  0  0  0  0  0  0
    8.8840   -1.6541   21.8659 C   0  0  0  0  0  0  0  0  0  0  0  0
    8.4393   -1.1463   20.7677 N   0  0  0  0  0  0  0  0  0  0  0  0
    7.2676   -0.5276   20.9972 N   0  0  0  0  0  0  0  0  0  0  0  0
    6.5937    0.0647   19.9339 C   0  0  0  0  0  0  0  0  0  0  0  0
    7.1430    0.0589   18.6280 C   0  0  0  0  0  0  0  0  0  0  0  0
    8.0809   -0.4554   18.4382 H   0  0  0  0  0  0  0  0  0  0  0  0
    6.5734    0.6593   17.5769 N   0  0  0  0  0  0  0  0  0  0  0  0
    5.4104    1.3029   17.7880 C   0  0  0  0  0  0  0  0  0  0  0  0
    4.9802    1.8072   16.9265 H   0  0  0  0  0  0  0  0  0  0  0  0
    4.7708    1.3415   19.0318 C   0  0  0  0  0  0  0  0  0  0  0  0
    3.8349    1.8792   19.1433 H   0  0  0  0  0  0  0  0  0  0  0  0
    5.3639    0.7075   20.1281 C   0  0  0  0  0  0  0  0  0  0  0  0
    4.9071    0.7098   21.1173 H   0  0  0  0  0  0  0  0  0  0  0  0
    6.7854   -0.6928   22.3543 C   0  0  0  0  0  0  0  0  0  0  0  0
    6.5765    0.2760   22.8303 H   0  0  0  0  0  0  0  0  0  0  0  0
    5.8689   -1.2851   22.3376 H   0  0  0  0  0  0  0  0  0  0  0  0
    7.9254   -1.4781   23.0282 C   0  0  0  0  0  0  0  0  0  0  0  0
    7.5542   -2.4383   23.3997 H   0  0  0  0  0  0  0  0  0  0  0  0
    8.3693   -0.9349   23.8736 H   0  0  0  0  0  0  0  0  0  0  0  0
  1  2  1  0
  2  3  1  0
  3  4  1  0
  3  5  1  0
  3  6  1  0
  6  7  1  0
  6  8  1  0
  6  9  1  0
  9 10  1  0
  9 11  1  0
 11 12  1  0
 11 13  1  0
 11 14  1  0
 14 15  2  0
 15 16  1  0
 16 17  1  0
 17 18  2  0
 18 19  1  0
 18 20  1  0
 20 21  2  0
 21 22  1  0
 21 23  1  0
 23 24  1  0
 23 25  2  0
 25 26  1  0
 16 27  1  0
 27 28  1  0
 27 29  1  0
 27 30  1  0
 30 31  1  0
 30 32  1  0
 30 14  1  0
 25 17  1  0
M  END
>  <cnnaffinity>  (1) 
4.44309

>  <plip>  (1) 
-0.034482758620689655

>  <filename>  (1) 
[H][O][C]([H])([H])[C]([H])([H])[N]([H])[C]([H])([H])[C]1=[N][N]([c]2[c]([H])[n][c]([H])[c]([H])[c]2[H])[C]([H])([H])[C]1([H])[H]

>  <combo1>  (1) 
-0.23184550291452533

$$$$
