
     RDKit          3D

 58 61  0  0  0  0  0  0  0  0999 V2000
    9.8294    6.6453   26.3530 C   0  0  0  0  0  0  0  0  0  0  0  0
   10.4840    6.4833   25.1265 C   0  0  0  0  0  0  0  0  0  0  0  0
   10.2099    5.3312   24.3809 C   0  0  0  0  0  0  0  0  0  0  0  0
    9.3050    4.3873   24.8826 C   0  0  0  0  0  0  0  0  0  0  0  0
    8.9806    3.1233   24.0945 C   0  0  0  0  0  0  0  0  0  0  0  0
   10.2229    2.1706   23.9723 C   0  0  0  0  0  0  0  0  0  0  0  0
   10.1642    1.2345   22.7377 C   0  0  0  0  0  0  0  0  0  0  0  0
    8.7232    0.8943   22.3771 C   0  0  0  0  0  0  0  0  0  0  0  0
    8.6946   -0.1115   21.2745 N   0  0  0  0  0  4  0  0  0  0  0  0
    7.3444   -0.7271   21.0303 C   0  0  0  0  0  0  0  0  0  0  0  0
    7.4448   -2.2132   20.6791 C   0  0  0  0  0  0  0  0  0  0  0  0
    7.3378   -3.1558   21.8336 N   0  0  0  0  0  4  0  0  0  0  0  0
    8.5491   -3.1358   22.7346 C   0  0  0  0  0  0  0  0  0  0  0  0
    8.4764   -4.4522   23.5058 C   0  0  0  0  0  0  0  0  0  0  0  0
    7.6566   -5.4210   22.6145 C   0  0  0  0  0  0  0  0  0  0  0  0
    7.1681   -4.5924   21.4154 C   0  0  0  0  0  0  0  0  0  0  0  0
    6.1305   -4.7877   21.1274 H   0  0  0  0  0  0  0  0  0  0  0  0
    7.7799   -4.7669   20.5218 H   0  0  0  0  0  0  0  0  0  0  0  0
    6.8099   -5.8425   23.1672 H   0  0  0  0  0  0  0  0  0  0  0  0
    8.2465   -6.2754   22.2683 H   0  0  0  0  0  0  0  0  0  0  0  0
    7.9868   -4.2920   24.4715 H   0  0  0  0  0  0  0  0  0  0  0  0
    9.4837   -4.8163   23.7285 H   0  0  0  0  0  0  0  0  0  0  0  0
    8.5429   -2.2416   23.3673 H   0  0  0  0  0  0  0  0  0  0  0  0
    9.4544   -3.0927   22.1164 H   0  0  0  0  0  0  0  0  0  0  0  0
    6.5023   -2.9013   22.4255 H   0  0  0  0  0  0  0  0  0  0  0  0
    6.7025   -2.4608   19.9121 H   0  0  0  0  0  0  0  0  0  0  0  0
    8.4359   -2.3329   20.2163 H   0  0  0  0  0  0  0  0  0  0  0  0
    6.6737    0.0531   19.9223 C   0  0  0  0  0  0  0  0  0  0  0  0
    5.4403    0.6770   20.1435 C   0  0  0  0  0  0  0  0  0  0  0  0
    4.8002    1.3252   19.0844 C   0  0  0  0  0  0  0  0  0  0  0  0
    5.4126    1.3129   17.8295 C   0  0  0  0  0  0  0  0  0  0  0  0
    6.5872    0.7101   17.5910 N   0  0  0  0  0  0  0  0  0  0  0  0
    7.2034    0.1111   18.6200 C   0  0  0  0  0  0  0  0  0  0  0  0
    8.1368   -0.3849   18.3445 H   0  0  0  0  0  0  0  0  0  0  0  0
    4.9394    1.8024   16.9783 H   0  0  0  0  0  0  0  0  0  0  0  0
    3.8607    1.8459   19.2234 H   0  0  0  0  0  0  0  0  0  0  0  0
    4.9923    0.6513   21.1385 H   0  0  0  0  0  0  0  0  0  0  0  0
    6.7601   -0.6461   21.9626 H   0  0  0  0  0  0  0  0  0  0  0  0
    9.4428   -0.8140   21.4461 H   0  0  0  0  0  0  0  0  0  0  0  0
    8.9288    0.4001   20.3870 H   0  0  0  0  0  0  0  0  0  0  0  0
    7.9154    2.1461   21.9771 C   0  0  0  0  0  0  0  0  0  0  0  0
    8.3858    3.4318   22.6926 C   0  0  0  0  0  0  0  0  0  0  0  0
    9.1594    3.9316   22.0915 H   0  0  0  0  0  0  0  0  0  0  0  0
    7.5542    4.1437   22.7736 H   0  0  0  0  0  0  0  0  0  0  0  0
    7.9706    2.2688   20.8855 H   0  0  0  0  0  0  0  0  0  0  0  0
    6.8652    1.9440   22.2172 H   0  0  0  0  0  0  0  0  0  0  0  0
    8.2416    0.4567   23.2729 H   0  0  0  0  0  0  0  0  0  0  0  0
   10.6435    1.7193   21.8722 H   0  0  0  0  0  0  0  0  0  0  0  0
   10.7118    0.3015   22.9271 H   0  0  0  0  0  0  0  0  0  0  0  0
   10.2876    1.5786   24.8978 H   0  0  0  0  0  0  0  0  0  0  0  0
   11.1502    2.7607   23.9286 H   0  0  0  0  0  0  0  0  0  0  0  0
    8.2088    2.6201   24.6945 H   0  0  0  0  0  0  0  0  0  0  0  0
    8.6867    4.5444   26.0662 N   0  0  0  0  0  0  0  0  0  0  0  0
    8.9444    5.6502   26.7709 C   0  0  0  0  0  0  0  0  0  0  0  0
    8.4141    5.7372   27.7191 H   0  0  0  0  0  0  0  0  0  0  0  0
   10.6706    5.1390   23.4153 H   0  0  0  0  0  0  0  0  0  0  0  0
   11.1918    7.2222   24.7537 H   0  0  0  0  0  0  0  0  0  0  0  0
    9.9825    7.5132   26.9841 H   0  0  0  0  0  0  0  0  0  0  0  0
  1  2  2  0
  2  3  1  0
  3  4  2  0
  4  5  1  0
  5  6  1  0
  6  7  1  0
  7  8  1  0
  8  9  1  0
  9 10  1  0
 10 11  1  0
 11 12  1  0
 12 13  1  0
 13 14  1  0
 14 15  1  0
 15 16  1  0
 16 17  1  0
 16 18  1  0
 15 19  1  0
 15 20  1  0
 14 21  1  0
 14 22  1  0
 13 23  1  0
 13 24  1  0
 12 25  1  0
 11 26  1  0
 11 27  1  0
 10 28  1  0
 28 29  2  0
 29 30  1  0
 30 31  2  0
 31 32  1  0
 32 33  2  0
 33 34  1  0
 31 35  1  0
 30 36  1  0
 29 37  1  0
 10 38  1  0
  9 39  1  0
  9 40  1  0
  8 41  1  0
 41 42  1  0
 42 43  1  0
 42 44  1  0
 41 45  1  0
 41 46  1  0
  8 47  1  0
  7 48  1  0
  7 49  1  0
  6 50  1  0
  6 51  1  0
  5 52  1  0
  4 53  1  0
 53 54  2  0
 54 55  1  0
  3 56  1  0
  2 57  1  0
  1 58  1  0
 54  1  1  0
 42  5  1  0
 16 12  1  0
 33 28  1  0
M  CHG  2   9   1  12   1
M  END
>  <cnnaffinity>  (1) 
5.81026

>  <plip>  (1) 
-0.16666666666666666

>  <filename>  (1) 
[H][c]1[n][c]([C]2([H])[C]([H])([H])[C]([H])([H])[C]([H])([N+]([H])([H])[C]([H])([c]3[c]([H])[n][c]([H])[c]([H])[c]3[H])[C]([H])([H])[N+]3([H])[C]([H])([H])[C]([H])([H])[C]([H])([H])[C]3([H])[H])[C]([H])([H])[C]2([H])[H])[c]([H])[c]([H])[c]1[H]

>  <combo1>  (1) 
-0.9156550785537023

$$$$
