
     RDKit          3D

 36 38  0  0  0  0  0  0  0  0999 V2000
    4.7984    1.3580   19.0559 C   0  0  0  0  0  0  0  0  0  0  0  0
    5.3978    1.3361   17.7938 C   0  0  0  0  0  0  0  0  0  0  0  0
    6.5623    0.7228   17.5363 N   0  0  0  0  0  0  0  0  0  0  0  0
    7.1746    0.1228   18.5664 C   0  0  0  0  0  0  0  0  0  0  0  0
    6.6714    0.0844   19.8811 C   0  0  0  0  0  0  0  0  0  0  0  0
    7.3568   -0.7093   20.9754 C   0  0  0  0  0  0  0  0  0  0  0  0
    6.8758   -2.1596   20.9657 C   0  0  0  0  0  0  0  0  0  0  0  0
    7.3490   -2.9639   22.1303 N   0  0  0  0  0  4  0  0  0  0  0  0
    6.7360   -4.3451   22.1845 C   0  0  0  0  0  0  0  0  0  0  0  0
    7.0424   -4.9938   23.5274 C   0  0  0  0  0  0  0  0  0  0  0  0
    8.5071   -4.9507   23.9238 C   0  0  0  0  0  0  0  0  0  0  0  0
    9.0496   -5.8282   24.8679 C   0  0  0  0  0  0  0  0  0  0  0  0
   10.3706   -5.6424   25.2784 C   0  0  0  0  0  0  0  0  0  0  0  0
   11.0998   -4.5999   24.7036 C   0  0  0  0  0  0  0  0  0  0  0  0
   10.6194   -3.7654   23.7740 N   0  0  0  0  0  0  0  0  0  0  0  0
    9.3542   -3.9632   23.3825 C   0  0  0  0  0  0  0  0  0  0  0  0
    8.8806   -3.0965   22.2362 C   0  0  0  0  0  0  0  0  0  0  0  0
    9.3444   -2.1205   22.3569 H   0  0  0  0  0  0  0  0  0  0  0  0
    9.2555   -3.5304   21.3068 H   0  0  0  0  0  0  0  0  0  0  0  0
   12.1386   -4.4723   24.9377 H   0  0  0  0  0  0  0  0  0  0  0  0
   10.8382   -6.2929   26.0099 H   0  0  0  0  0  0  0  0  0  0  0  0
    8.4672   -6.6696   25.2519 H   0  0  0  0  0  0  0  0  0  0  0  0
    6.6717   -6.0202   23.5259 H   0  0  0  0  0  0  0  0  0  0  0  0
    6.4635   -4.4635   24.2929 H   0  0  0  0  0  0  0  0  0  0  0  0
    5.6559   -4.2550   22.0367 H   0  0  0  0  0  0  0  0  0  0  0  0
    7.1517   -4.9329   21.3592 H   0  0  0  0  0  0  0  0  0  0  0  0
    7.0305   -2.4471   22.9878 H   0  0  0  0  0  0  0  0  0  0  0  0
    5.7821   -2.1695   20.9531 H   0  0  0  0  0  0  0  0  0  0  0  0
    7.1883   -2.6330   20.0314 H   0  0  0  0  0  0  0  0  0  0  0  0
    8.4456   -0.6827   20.8495 H   0  0  0  0  0  0  0  0  0  0  0  0
    7.1296   -0.2856   21.9603 H   0  0  0  0  0  0  0  0  0  0  0  0
    5.4455    0.7224   20.1168 C   0  0  0  0  0  0  0  0  0  0  0  0
    5.0026    0.7245   21.1154 H   0  0  0  0  0  0  0  0  0  0  0  0
    8.1168   -0.3750   18.3275 H   0  0  0  0  0  0  0  0  0  0  0  0
    4.9127    1.8182   16.9499 H   0  0  0  0  0  0  0  0  0  0  0  0
    3.8465    1.8633   19.1927 H   0  0  0  0  0  0  0  0  0  0  0  0
  1  2  2  0
  2  3  1  0
  3  4  2  0
  4  5  1  0
  5  6  1  0
  6  7  1  0
  7  8  1  0
  8  9  1  0
  9 10  1  0
 10 11  1  0
 11 12  2  0
 12 13  1  0
 13 14  2  0
 14 15  1  0
 15 16  2  0
 16 17  1  0
 17 18  1  0
 17 19  1  0
 14 20  1  0
 13 21  1  0
 12 22  1  0
 10 23  1  0
 10 24  1  0
  9 25  1  0
  9 26  1  0
  8 27  1  0
  7 28  1  0
  7 29  1  0
  6 30  1  0
  6 31  1  0
  5 32  2  0
 32 33  1  0
  4 34  1  0
  2 35  1  0
  1 36  1  0
 32  1  1  0
 17  8  1  0
 16 11  1  0
M  CHG  1   8   1
M  END
>  <cnnaffinity>  (1) 
5.01602

>  <plip>  (1) 
-0.13793103448275862

>  <filename>  (1) 
[H][c]1[n][c]([H])[c]([C]([H])([H])[C]([H])([H])[N+]2([H])[C]([H])([H])[c]3[n][c]([H])[c]([H])[c]([H])[c]3[C]([H])([H])[C]2([H])[H])[c]([H])[c]1[H]

>  <combo1>  (1) 
-0.9596039162626478

$$$$
