
     RDKit          3D

 28 30  0  0  0  0  0  0  0  0999 V2000
    4.7920    1.3090   19.0929 C   0  0  0  0  0  0  0  0  0  0  0  0
    5.3982    1.2938   17.8347 C   0  0  0  0  0  0  0  0  0  0  0  0
    6.5640    0.6790   17.5873 N   0  0  0  0  0  0  0  0  0  0  0  0
    7.1715    0.0764   18.6167 C   0  0  0  0  0  0  0  0  0  0  0  0
    6.6523    0.0227   19.9189 C   0  0  0  0  0  0  0  0  0  0  0  0
    7.4471   -0.6725   20.9994 C   0  0  0  0  0  0  0  0  0  0  0  0
    8.7689   -0.1130   21.1803 N   0  0  0  0  0  0  0  0  0  0  0  0
    9.0743    1.1220   21.6643 C   0  0  0  0  0  0  0  0  0  0  0  0
   10.3468    1.4487   21.5637 N   0  0  0  0  0  0  0  0  0  0  0  0
   10.6444    2.6783   22.0778 N   0  0  0  0  0  0  0  0  0  0  0  0
   11.8685    3.2920   22.1202 C   0  0  0  0  0  0  0  0  0  0  0  0
   11.6465    4.5082   22.7328 C   0  0  0  0  0  0  0  0  0  0  0  0
   10.3375    4.6677   23.0782 N   0  0  0  0  0  0  0  0  0  0  0  0
    9.7430    3.5581   22.6784 C   0  0  0  0  0  0  0  0  0  0  0  0
    8.3798    3.1579   22.7581 C   0  0  0  0  0  0  0  0  0  0  0  0
    8.0445    1.9380   22.2567 C   0  0  0  0  0  0  0  0  0  0  0  0
    7.0395    1.5408   22.2798 H   0  0  0  0  0  0  0  0  0  0  0  0
    7.6722    3.8440   23.2105 H   0  0  0  0  0  0  0  0  0  0  0  0
   12.3547    5.2964   22.9454 H   0  0  0  0  0  0  0  0  0  0  0  0
   12.7346    2.7983   21.7173 H   0  0  0  0  0  0  0  0  0  0  0  0
    9.6160   -0.5557   20.8665 H   0  0  0  0  0  0  0  0  0  0  0  0
    6.8739   -0.6631   21.9419 H   0  0  0  0  0  0  0  0  0  0  0  0
    7.5736   -1.7340   20.7571 H   0  0  0  0  0  0  0  0  0  0  0  0
    5.4232    0.6538   20.1520 C   0  0  0  0  0  0  0  0  0  0  0  0
    4.9756    0.6443   21.1511 H   0  0  0  0  0  0  0  0  0  0  0  0
    8.1173   -0.4109   18.3766 H   0  0  0  0  0  0  0  0  0  0  0  0
    4.9343    1.7898   16.9845 H   0  0  0  0  0  0  0  0  0  0  0  0
    3.8656    1.8470   19.2360 H   0  0  0  0  0  0  0  0  0  0  0  0
  1  2  2  0
  2  3  1  0
  3  4  2  0
  4  5  1  0
  5  6  1  0
  6  7  1  0
  7  8  1  0
  8  9  2  0
  9 10  1  0
 10 11  1  0
 11 12  2  0
 12 13  1  0
 13 14  2  0
 14 15  1  0
 15 16  2  0
 16 17  1  0
 15 18  1  0
 12 19  1  0
 11 20  1  0
  7 21  1  0
  6 22  1  0
  6 23  1  0
  5 24  2  0
 24 25  1  0
  4 26  1  0
  2 27  1  0
  1 28  1  0
 24  1  1  0
 16  8  1  0
 14 10  1  0
M  END
>  <cnnaffinity>  (1) 
4.76562

>  <plip>  (1) 
-0.034482758620689655

>  <filename>  (1) 
[H][c]1[n][c]([H])[c]([C]([H])([H])[N]([H])[c]2[n][n]3[c]([H])[c]([H])[n][c]3[c]([H])[c]2[H])[c]([H])[c]1[H]

>  <combo1>  (1) 
-0.24317880348631699

$$$$
