
     RDKit          3D

 40 43  0  0  0  0  0  0  0  0999 V2000
    7.0832    1.7401   22.7928 O   0  0  0  0  0  0  0  0  0  0  0  0
    8.2022    1.4136   22.4163 C   0  0  0  0  0  0  0  0  0  0  0  0
    8.4397    0.2613   21.7228 N   0  0  0  0  0  0  0  0  0  0  0  0
    7.3730   -0.5151   21.1078 C   0  0  0  0  0  0  0  0  0  0  0  0
    6.6589    0.2475   20.0035 C   0  0  0  0  0  0  0  0  0  0  0  0
    5.4342    0.9063   20.1773 C   0  0  0  0  0  0  0  0  0  0  0  0
    4.7923    1.4356   19.0552 C   0  0  0  0  0  0  0  0  0  0  0  0
    5.4259    1.3487   17.8112 C   0  0  0  0  0  0  0  0  0  0  0  0
    6.6227    0.7713   17.6318 N   0  0  0  0  0  0  0  0  0  0  0  0
    7.2098    0.2437   18.7110 C   0  0  0  0  0  0  0  0  0  0  0  0
    8.1572   -0.2628   18.5186 H   0  0  0  0  0  0  0  0  0  0  0  0
    4.9553    1.7458   16.9148 H   0  0  0  0  0  0  0  0  0  0  0  0
    3.8145    1.8962   19.1290 H   0  0  0  0  0  0  0  0  0  0  0  0
    5.0068    1.0004   21.1780 H   0  0  0  0  0  0  0  0  0  0  0  0
    7.8822   -1.9096   20.6875 C   0  0  0  0  0  0  0  0  0  0  0  0
    7.3512   -2.5302   21.9953 C   0  0  0  0  0  0  0  0  0  0  0  0
    6.4934   -1.2479   22.1574 C   0  0  0  0  0  0  0  0  0  0  0  0
    5.5121   -1.4175   21.7152 H   0  0  0  0  0  0  0  0  0  0  0  0
    6.3942   -0.7612   23.1312 H   0  0  0  0  0  0  0  0  0  0  0  0
    6.8167   -3.4859   21.9059 H   0  0  0  0  0  0  0  0  0  0  0  0
    8.1209   -2.6342   22.7630 H   0  0  0  0  0  0  0  0  0  0  0  0
    7.2565   -2.2248   19.8533 H   0  0  0  0  0  0  0  0  0  0  0  0
    8.9470   -1.9859   20.4454 H   0  0  0  0  0  0  0  0  0  0  0  0
    9.3449    0.2087   21.2878 H   0  0  0  0  0  0  0  0  0  0  0  0
    9.4104    2.2497   22.7188 C   0  0  0  0  0  0  0  0  0  0  0  0
   10.7701    2.0881   22.5125 C   0  0  0  0  0  0  0  0  0  0  0  0
   11.4325    3.2104   23.1016 C   0  0  0  0  0  0  0  0  0  0  0  0
   12.7813    3.6229   23.2461 C   0  0  0  0  0  0  0  0  0  0  0  0
   13.0649    4.8003   23.9215 C   0  0  0  0  0  0  0  0  0  0  0  0
   12.0184    5.5846   24.4714 C   0  0  0  0  0  0  0  0  0  0  0  0
   12.3553    6.7109   25.1448 O   0  0  0  0  0  0  0  0  0  0  0  0
   11.5269    7.1136   25.4343 H   0  0  0  0  0  0  0  0  0  0  0  0
   10.6891    5.2215   24.3424 C   0  0  0  0  0  0  0  0  0  0  0  0
   10.4202    4.0345   23.6512 C   0  0  0  0  0  0  0  0  0  0  0  0
    9.2228    3.4427   23.4024 N   0  0  0  0  0  0  0  0  0  0  0  0
    8.3227    3.8273   23.6521 H   0  0  0  0  0  0  0  0  0  0  0  0
    9.8873    5.8188   24.7614 H   0  0  0  0  0  0  0  0  0  0  0  0
   14.0777    5.1565   24.0648 H   0  0  0  0  0  0  0  0  0  0  0  0
   13.5906    3.0202   22.8386 H   0  0  0  0  0  0  0  0  0  0  0  0
   11.3077    1.2823   22.0233 H   0  0  0  0  0  0  0  0  0  0  0  0
  1  2  2  0
  2  3  1  0
  3  4  1  0
  4  5  1  0
  5  6  2  0
  6  7  1  0
  7  8  2  0
  8  9  1  0
  9 10  2  0
 10 11  1  0
  8 12  1  0
  7 13  1  0
  6 14  1  0
  4 15  1  0
 15 16  1  0
 16 17  1  0
 17 18  1  0
 17 19  1  0
 16 20  1  0
 16 21  1  0
 15 22  1  0
 15 23  1  0
  3 24  1  0
  2 25  1  0
 25 26  2  0
 26 27  1  0
 27 28  2  0
 28 29  1  0
 29 30  2  0
 30 31  1  0
 31 32  1  0
 30 33  1  0
 33 34  2  0
 34 35  1  0
 35 36  1  0
 33 37  1  0
 29 38  1  0
 28 39  1  0
 26 40  1  0
 17  4  1  0
 35 25  1  0
 10  5  1  0
 34 27  1  0
M  END
>  <cnnaffinity>  (1) 
5.36811

>  <plip>  (1) 
-0.07142857142857142

>  <filename>  (1) 
[H][O][c]1[c]([H])[c]([H])[c]2[c]([H])[c]([C](=[O])[N]([H])[C]3([c]4[c]([H])[n][c]([H])[c]([H])[c]4[H])[C]([H])([H])[C]([H])([H])[C]3([H])[H])[n]([H])[c]2[c]1[H]

>  <combo1>  (1) 
-0.4158480407126101

$$$$
