
     RDKit          3D

 33 35  0  0  0  0  0  0  0  0999 V2000
    5.0244    1.7988   16.9291 H   0  0  0  0  0  0  0  0  0  0  0  0
    5.4769    1.3039   17.7887 C   0  0  0  0  0  0  0  0  0  0  0  0
    6.6517    0.6918   17.5747 N   0  0  0  0  0  0  0  0  0  0  0  0
    7.2244    0.0779   18.6205 C   0  0  0  0  0  0  0  0  0  0  0  0
    8.1728   -0.4186   18.4097 H   0  0  0  0  0  0  0  0  0  0  0  0
    6.6796    0.0222   19.9195 C   0  0  0  0  0  0  0  0  0  0  0  0
    7.3751   -0.7187   21.0538 C   0  0  2  0  0  0  0  0  0  0  0  0
    8.2980   -1.1605   20.6510 H   0  0  0  0  0  0  0  0  0  0  0  0
    6.5363   -1.8617   21.7019 C   0  0  0  0  0  0  0  0  0  0  0  0
    6.8940   -2.8311   21.3329 H   0  0  0  0  0  0  0  0  0  0  0  0
    5.4736   -1.7980   21.4330 H   0  0  0  0  0  0  0  0  0  0  0  0
    6.7020   -1.7746   23.1629 N   0  0  0  0  0  0  0  0  0  0  0  0
    5.8598   -1.3709   23.5646 H   0  0  0  0  0  0  0  0  0  0  0  0
    7.8289   -0.8737   23.4089 C   0  0  0  0  0  0  0  0  0  0  0  0
    8.7702   -1.4441   23.3831 H   0  0  0  0  0  0  0  0  0  0  0  0
    7.7544   -0.4203   24.4045 H   0  0  0  0  0  0  0  0  0  0  0  0
    7.7973    0.1536   22.2648 C   0  0  1  0  0  0  0  0  0  0  0  0
    6.9807    0.8587   22.4834 H   0  0  0  0  0  0  0  0  0  0  0  0
    9.0925    0.9802   22.0636 C   0  0  0  0  0  0  0  0  0  0  0  0
    9.0260    1.5153   21.1040 H   0  0  0  0  0  0  0  0  0  0  0  0
    9.1527    1.7486   22.8429 H   0  0  0  0  0  0  0  0  0  0  0  0
   10.3786    0.1836   22.0648 C   0  0  0  0  0  0  0  0  0  0  0  0
   10.7299   -0.5780   20.9761 N   0  0  0  0  0  0  0  0  0  0  0  0
   11.9103   -1.0782   21.2451 C   0  0  0  0  0  0  0  0  0  0  0  0
   12.5044   -1.7071   20.5942 H   0  0  0  0  0  0  0  0  0  0  0  0
   12.3519   -0.6867   22.4619 N   0  0  0  0  0  0  0  0  0  0  0  0
   13.2364   -0.9532   22.8669 H   0  0  0  0  0  0  0  0  0  0  0  0
   11.3673    0.1078   23.0173 C   0  0  0  0  0  0  0  0  0  0  0  0
   11.4218    0.4419   24.0461 H   0  0  0  0  0  0  0  0  0  0  0  0
    5.4433    0.6630   20.1072 C   0  0  0  0  0  0  0  0  0  0  0  0
    4.9589    0.6458   21.0852 H   0  0  0  0  0  0  0  0  0  0  0  0
    4.8355    1.3147   19.0301 C   0  0  0  0  0  0  0  0  0  0  0  0
    3.8844    1.8265   19.1389 H   0  0  0  0  0  0  0  0  0  0  0  0
  1  2  1  0
  2  3  2  0
  3  4  1  0
  4  5  1  0
  4  6  2  0
  6  7  1  0
  7  8  1  6
  7  9  1  0
  9 10  1  0
  9 11  1  0
  9 12  1  0
 12 13  1  0
 12 14  1  0
 14 15  1  0
 14 16  1  0
 14 17  1  0
 17 18  1  1
 17 19  1  0
 19 20  1  0
 19 21  1  0
 19 22  1  0
 22 23  1  0
 23 24  2  0
 24 25  1  0
 24 26  1  0
 26 27  1  0
 26 28  1  0
 28 29  1  0
  6 30  1  0
 30 31  1  0
 30 32  2  0
 32 33  1  0
 32  2  1  0
 17  7  1  0
 28 22  2  0
M  END
>  <cnnaffinity>  (1) 
4.6484

>  <plip>  (1) 
-0.10714285714285714

>  <filename>  (1) 
[H][c]1[n][c]([H])[c]([C@]2([H])[C]([H])([H])[N]([H])[C]([H])([H])[C@@]2([H])[C]([H])([H])[c]2[n][c]([H])[n]([H])[c]2[H])[c]([H])[c]1[H]

>  <combo1>  (1) 
-0.7271792067170058

$$$$
