
     RDKit          3D

 39 41  0  0  0  0  0  0  0  0999 V2000
    6.7028   -1.8075   21.5970 C   0  0  0  0  0  0  0  0  0  0  0  0
    7.4051   -0.7178   20.8993 N   0  0  0  0  0  0  0  0  0  0  0  0
    8.6773   -0.4101   21.3697 C   0  0  0  0  0  0  0  0  0  0  0  0
    9.2864   -1.1850   22.0858 O   0  0  0  0  0  0  0  0  0  0  0  0
    9.2491    0.9601   21.0580 C   0  0  0  0  0  0  0  0  0  0  0  0
    8.8710    1.9366   22.1781 C   0  0  0  0  0  0  0  0  0  0  0  0
    9.2453    1.4845   23.5935 C   0  0  0  0  0  0  0  0  0  0  0  0
    7.8744    1.2358   24.1850 C   0  0  0  0  0  0  0  0  0  0  0  0
    6.9250    1.5658   23.3826 N   0  0  0  0  0  0  0  0  0  0  0  0
    7.4300    2.0509   22.2038 O   0  0  0  0  0  0  0  0  0  0  0  0
    7.5859    0.7440   25.5571 C   0  0  0  0  0  0  0  0  0  0  0  0
    6.2512    0.5965   25.9851 C   0  0  0  0  0  0  0  0  0  0  0  0
    5.9610    0.2974   27.3160 C   0  0  0  0  0  0  0  0  0  0  0  0
    6.9927    0.1177   28.2432 C   0  0  0  0  0  0  0  0  0  0  0  0
    8.3211    0.1664   27.8148 C   0  0  0  0  0  0  0  0  0  0  0  0
    8.6174    0.4744   26.4817 C   0  0  0  0  0  0  0  0  0  0  0  0
    9.6617    0.5132   26.1787 H   0  0  0  0  0  0  0  0  0  0  0  0
    9.1211   -0.0356   28.5260 H   0  0  0  0  0  0  0  0  0  0  0  0
    6.7587   -0.0550   29.2930 H   0  0  0  0  0  0  0  0  0  0  0  0
    4.9238    0.2053   27.6238 H   0  0  0  0  0  0  0  0  0  0  0  0
    5.4508    0.7362   25.2649 H   0  0  0  0  0  0  0  0  0  0  0  0
    9.7884    2.2553   24.1530 H   0  0  0  0  0  0  0  0  0  0  0  0
    9.8544    0.5738   23.6031 H   0  0  0  0  0  0  0  0  0  0  0  0
    9.2313    2.9428   21.9333 H   0  0  0  0  0  0  0  0  0  0  0  0
    8.8393    1.3368   20.1231 H   0  0  0  0  0  0  0  0  0  0  0  0
   10.3335    0.8634   20.9847 H   0  0  0  0  0  0  0  0  0  0  0  0
    6.7217    0.0038   19.8645 C   0  0  0  0  0  0  0  0  0  0  0  0
    5.5206    0.6572   20.1523 C   0  0  0  0  0  0  0  0  0  0  0  0
    4.8497    1.3153   19.1123 C   0  0  0  0  0  0  0  0  0  0  0  0
    5.3973    1.3029   17.8249 C   0  0  0  0  0  0  0  0  0  0  0  0
    6.5410    0.6675   17.5248 N   0  0  0  0  0  0  0  0  0  0  0  0
    7.1771    0.0384   18.5238 C   0  0  0  0  0  0  0  0  0  0  0  0
    8.1006   -0.4718   18.2578 H   0  0  0  0  0  0  0  0  0  0  0  0
    4.8995    1.8174   17.0036 H   0  0  0  0  0  0  0  0  0  0  0  0
    3.9157    1.8331   19.2932 H   0  0  0  0  0  0  0  0  0  0  0  0
    5.1453    0.6543   21.1760 H   0  0  0  0  0  0  0  0  0  0  0  0
    7.1257   -2.7823   21.3250 H   0  0  0  0  0  0  0  0  0  0  0  0
    6.8021   -1.6838   22.6809 H   0  0  0  0  0  0  0  0  0  0  0  0
    5.6417   -1.7985   21.3335 H   0  0  0  0  0  0  0  0  0  0  0  0
  1  2  1  0
  2  3  1  0
  3  4  2  0
  3  5  1  0
  5  6  1  0
  6  7  1  0
  7  8  1  0
  8  9  2  0
  9 10  1  0
  8 11  1  0
 11 12  2  0
 12 13  1  0
 13 14  2  0
 14 15  1  0
 15 16  2  0
 16 17  1  0
 15 18  1  0
 14 19  1  0
 13 20  1  0
 12 21  1  0
  7 22  1  0
  7 23  1  0
  6 24  1  0
  5 25  1  0
  5 26  1  0
  2 27  1  0
 27 28  2  0
 28 29  1  0
 29 30  2  0
 30 31  1  0
 31 32  2  0
 32 33  1  0
 30 34  1  0
 29 35  1  0
 28 36  1  0
  1 37  1  0
  1 38  1  0
  1 39  1  0
 10  6  1  0
 16 11  1  0
 32 27  1  0
M  END
>  <cnnaffinity>  (1) 
4.90731

>  <plip>  (1) 
-0.03571428571428571

>  <filename>  (1) 
[H][c]1[n][c]([H])[c]([N]([C](=[O])[C]([H])([H])[C]2([H])[O][N]=[C]([c]3[c]([H])[c]([H])[c]([H])[c]([H])[c]3[H])[C]2([H])[H])[C]([H])([H])[H])[c]([H])[c]1[H]

>  <combo1>  (1) 
-0.19780578834997106

$$$$
