
     RDKit          3D

 36 39  0  0  0  0  0  0  0  0999 V2000
    4.9419    1.7883   17.0098 H   0  0  0  0  0  0  0  0  0  0  0  0
    5.4087    1.2821   17.8505 C   0  0  0  0  0  0  0  0  0  0  0  0
    6.5598    0.6477   17.5799 N   0  0  0  0  0  0  0  0  0  0  0  0
    7.1805    0.0369   18.5952 C   0  0  0  0  0  0  0  0  0  0  0  0
    8.1354   -0.4293   18.3667 H   0  0  0  0  0  0  0  0  0  0  0  0
    6.6725   -0.0061   19.9083 C   0  0  0  0  0  0  0  0  0  0  0  0
    7.3730   -0.6994   20.9525 N   0  0  0  0  0  0  0  0  0  0  0  0
    6.5572   -1.5024   21.7601 N   0  0  0  0  0  0  0  0  0  0  0  0
    7.1259   -2.3473   22.5638 C   0  0  0  0  0  0  0  0  0  0  0  0
    6.3100   -3.2631   23.3978 C   0  0  0  0  0  0  0  0  0  0  0  0
    6.6847   -4.2998   24.2254 C   0  0  0  0  0  0  0  0  0  0  0  0
    7.7003   -4.6632   24.3715 H   0  0  0  0  0  0  0  0  0  0  0  0
    5.4958   -4.8400   24.8052 C   0  0  0  0  0  0  0  0  0  0  0  0
    5.2365   -5.9159   25.6836 C   0  0  0  0  0  0  0  0  0  0  0  0
    6.0684   -6.5185   26.0449 H   0  0  0  0  0  0  0  0  0  0  0  0
    3.9237   -6.1794   26.0547 C   0  0  0  0  0  0  0  0  0  0  0  0
    3.7193   -7.0052   26.7264 H   0  0  0  0  0  0  0  0  0  0  0  0
    2.8531   -5.3836   25.5748 C   0  0  0  0  0  0  0  0  0  0  0  0
    1.8386   -5.6127   25.8926 H   0  0  0  0  0  0  0  0  0  0  0  0
    3.0765   -4.3229   24.7043 C   0  0  0  0  0  0  0  0  0  0  0  0
    2.2553   -3.7070   24.3510 H   0  0  0  0  0  0  0  0  0  0  0  0
    4.4062   -4.0768   24.3065 C   0  0  0  0  0  0  0  0  0  0  0  0
    4.9338   -3.1557   23.4415 N   0  0  0  0  0  0  0  0  0  0  0  0
    4.4338   -2.4681   22.9021 H   0  0  0  0  0  0  0  0  0  0  0  0
    8.6342   -2.4853   22.6494 C   0  0  0  0  0  0  0  0  0  0  0  0
    8.9336   -3.2685   21.9376 H   0  0  0  0  0  0  0  0  0  0  0  0
    8.8905   -2.8667   23.6429 H   0  0  0  0  0  0  0  0  0  0  0  0
    9.3420   -1.1545   22.3659 C   0  0  0  0  0  0  0  0  0  0  0  0
    9.2711   -0.4702   23.2241 H   0  0  0  0  0  0  0  0  0  0  0  0
   10.4067   -1.2816   22.1601 H   0  0  0  0  0  0  0  0  0  0  0  0
    8.7508   -0.4204   21.1768 C   0  0  0  0  0  0  0  0  0  0  0  0
    9.3943    0.3497   20.4892 O   0  0  0  0  0  0  0  0  0  0  0  0
    5.4573    0.6343   20.1750 C   0  0  0  0  0  0  0  0  0  0  0  0
    5.0383    0.5832   21.1802 H   0  0  0  0  0  0  0  0  0  0  0  0
    4.8238    1.3041   19.1227 C   0  0  0  0  0  0  0  0  0  0  0  0
    3.8899    1.8356   19.2701 H   0  0  0  0  0  0  0  0  0  0  0  0
  1  2  1  0
  2  3  2  0
  3  4  1  0
  4  5  1  0
  4  6  2  0
  6  7  1  0
  7  8  1  0
  8  9  2  0
  9 10  1  0
 10 11  2  0
 11 12  1  0
 11 13  1  0
 13 14  2  0
 14 15  1  0
 14 16  1  0
 16 17  1  0
 16 18  2  0
 18 19  1  0
 18 20  1  0
 20 21  1  0
 20 22  2  0
 22 23  1  0
 23 24  1  0
  9 25  1  0
 25 26  1  0
 25 27  1  0
 25 28  1  0
 28 29  1  0
 28 30  1  0
 28 31  1  0
 31 32  2  0
  6 33  1  0
 33 34  1  0
 33 35  2  0
 35 36  1  0
 35  2  1  0
 31  7  1  0
 23 10  1  0
 22 13  1  0
M  END
>  <cnnaffinity>  (1) 
5.41641

>  <plip>  (1) 
-0.13793103448275862

>  <filename>  (1) 
[H][c]1[n][c]([H])[c]([N]2[N]=[C]([c]3[c]([H])[c]4[c]([H])[c]([H])[c]([H])[c]([H])[c]4[n]3[H])[C]([H])([H])[C]([H])([H])[C]2=[O])[c]([H])[c]1[H]

>  <combo1>  (1) 
-0.8577610852200152

$$$$
