
     RDKit          3D

 45 47  0  0  0  0  0  0  0  0999 V2000
    5.7009   -2.1691   20.0182 O   0  0  0  0  0  0  0  0  0  0  0  0
    6.6842   -2.5983   20.6257 C   0  0  0  0  0  0  0  0  0  0  0  0
    7.7872   -1.8355   20.8339 N   0  0  0  0  0  0  0  0  0  0  0  0
    7.7640   -0.3709   20.9720 C   0  0  0  0  0  0  0  0  0  0  0  0
    7.3364    0.0325   22.3993 C   0  0  0  0  0  0  0  0  0  0  0  0
    8.1756   -0.6156   23.5050 C   0  0  0  0  0  0  0  0  0  0  0  0
    9.6721   -0.2675   23.4928 C   0  0  0  0  0  0  0  0  0  0  0  0
   10.1938   -0.7199   24.8742 C   0  0  0  0  0  0  0  0  0  0  0  0
    8.9348   -0.8807   25.7631 C   0  0  0  0  0  0  0  0  0  0  0  0
    7.7805   -0.2835   24.9422 C   0  0  0  0  0  0  0  0  0  0  0  0
    7.7307    0.8069   25.0792 H   0  0  0  0  0  0  0  0  0  0  0  0
    6.8020   -0.6990   25.2105 H   0  0  0  0  0  0  0  0  0  0  0  0
    9.0408   -0.4161   26.7486 H   0  0  0  0  0  0  0  0  0  0  0  0
    8.7416   -1.9476   25.9329 H   0  0  0  0  0  0  0  0  0  0  0  0
   10.7199   -1.6747   24.7831 H   0  0  0  0  0  0  0  0  0  0  0  0
   10.9041    0.0040   25.2882 H   0  0  0  0  0  0  0  0  0  0  0  0
    9.7900    0.8203   23.3845 H   0  0  0  0  0  0  0  0  0  0  0  0
   10.2220   -0.7326   22.6661 H   0  0  0  0  0  0  0  0  0  0  0  0
    8.0800   -1.7138   23.4248 H   0  0  0  0  0  0  0  0  0  0  0  0
    6.2772   -0.2387   22.5274 H   0  0  0  0  0  0  0  0  0  0  0  0
    7.4059    1.1253   22.4773 H   0  0  0  0  0  0  0  0  0  0  0  0
    6.9678    0.2964   19.8692 C   0  0  0  0  0  0  0  0  0  0  0  0
    5.7585    0.9793   20.0555 C   0  0  0  0  0  0  0  0  0  0  0  0
    5.0611    1.4448   18.9377 C   0  0  0  0  0  0  0  0  0  0  0  0
    5.6092    1.2405   17.6716 C   0  0  0  0  0  0  0  0  0  0  0  0
    6.7817    0.6209   17.4689 N   0  0  0  0  0  0  0  0  0  0  0  0
    7.4290    0.1626   18.5529 C   0  0  0  0  0  0  0  0  0  0  0  0
    8.3893   -0.3225   18.3586 H   0  0  0  0  0  0  0  0  0  0  0  0
    5.0794    1.5795   16.7828 H   0  0  0  0  0  0  0  0  0  0  0  0
    4.1045    1.9408   19.0467 H   0  0  0  0  0  0  0  0  0  0  0  0
    5.3525    1.1388   21.0561 H   0  0  0  0  0  0  0  0  0  0  0  0
    8.8139   -0.0674   20.8274 H   0  0  0  0  0  0  0  0  0  0  0  0
    8.4695   -2.2980   21.4039 H   0  0  0  0  0  0  0  0  0  0  0  0
    6.7426   -4.0275   21.0441 C   0  0  0  0  0  0  0  0  0  0  0  0
    7.4455   -4.5376   22.1607 C   0  0  0  0  0  0  0  0  0  0  0  0
    7.3818   -5.8932   22.4920 C   0  0  0  0  0  0  0  0  0  0  0  0
    6.5887   -6.7639   21.7321 C   0  0  0  0  0  0  0  0  0  0  0  0
    5.8706   -6.2756   20.6456 C   0  0  0  0  0  0  0  0  0  0  0  0
    5.9792   -4.9267   20.2705 C   0  0  0  0  0  0  0  0  0  0  0  0
    5.3420   -4.5338   19.1670 O   0  0  0  0  0  0  0  0  0  0  0  0
    5.3319   -3.5417   19.2164 H   0  0  0  0  0  0  0  0  0  0  0  0
    5.2212   -6.8947   20.0384 H   0  0  0  0  0  0  0  0  0  0  0  0
    6.5125   -7.8191   21.9972 H   0  0  0  0  0  0  0  0  0  0  0  0
    7.9452   -6.2674   23.3447 H   0  0  0  0  0  0  0  0  0  0  0  0
    8.0476   -3.8841   22.7946 H   0  0  0  0  0  0  0  0  0  0  0  0
  1  2  2  0
  2  3  1  0
  3  4  1  0
  4  5  1  0
  5  6  1  0
  6  7  1  0
  7  8  1  0
  8  9  1  0
  9 10  1  0
 10 11  1  0
 10 12  1  0
  9 13  1  0
  9 14  1  0
  8 15  1  0
  8 16  1  0
  7 17  1  0
  7 18  1  0
  6 19  1  0
  5 20  1  0
  5 21  1  0
  4 22  1  0
 22 23  2  0
 23 24  1  0
 24 25  2  0
 25 26  1  0
 26 27  2  0
 27 28  1  0
 25 29  1  0
 24 30  1  0
 23 31  1  0
  4 32  1  0
  3 33  1  0
  2 34  1  0
 34 35  2  0
 35 36  1  0
 36 37  2  0
 37 38  1  0
 38 39  2  0
 39 40  1  0
 40 41  1  0
 38 42  1  0
 37 43  1  0
 36 44  1  0
 35 45  1  0
 10  6  1  0
 27 22  1  0
 39 34  1  0
M  END
>  <cnnaffinity>  (1) 
5.83074

>  <plip>  (1) 
-0.125

>  <filename>  (1) 
[H][O][c]1[c]([H])[c]([H])[c]([H])[c]([H])[c]1[C](=[O])[N]([H])[C]([H])([c]1[c]([H])[n][c]([H])[c]([H])[c]1[H])[C]([H])([H])[C]1([H])[C]([H])([H])[C]([H])([H])[C]([H])([H])[C]1([H])[H]

>  <combo1>  (1) 
-0.7826992528922636

$$$$
