
     RDKit          3D

 35 36  0  0  0  0  0  0  0  0999 V2000
    6.9092   -0.5232   22.3679 C   0  0  0  0  0  0  0  0  0  0  0  0
    7.4529   -0.7577   20.9792 C   0  0  0  0  0  0  0  0  0  0  0  0
    8.9111   -0.3524   20.9624 C   0  0  0  0  0  0  0  0  0  0  0  0
    9.3980   -0.6832   21.8873 H   0  0  0  0  0  0  0  0  0  0  0  0
    8.9718    0.7369   20.8944 H   0  0  0  0  0  0  0  0  0  0  0  0
    9.4235   -0.7994   20.1050 H   0  0  0  0  0  0  0  0  0  0  0  0
    7.3121   -2.1567   20.6187 N   0  0  0  0  0  4  0  0  0  0  0  0
    7.8836   -3.1785   21.5789 C   0  0  0  0  0  0  0  0  0  0  0  0
    6.8813   -3.8610   22.5002 C   0  0  0  0  0  0  0  0  0  0  0  0
    6.8383   -3.4705   23.7911 N   0  0  0  0  0  0  0  0  0  0  0  0
    5.9252   -4.0097   24.6108 C   0  0  0  0  0  0  0  0  0  0  0  0
    5.0339   -4.9872   24.1801 C   0  0  0  0  0  0  0  0  0  0  0  0
    5.0744   -5.4261   22.8650 C   0  0  0  0  0  0  0  0  0  0  0  0
    3.8112   -6.7365   22.2868 Br  0  0  0  0  0  0  0  0  0  0  0  0
    6.0218   -4.8615   22.0070 C   0  0  0  0  0  0  0  0  0  0  0  0
    6.1168   -5.4289   20.1801 Br  0  0  0  0  0  0  0  0  0  0  0  0
    4.3130   -5.4043   24.8699 H   0  0  0  0  0  0  0  0  0  0  0  0
    5.8644   -3.6684   25.6400 H   0  0  0  0  0  0  0  0  0  0  0  0
    8.3994   -3.9842   21.0380 H   0  0  0  0  0  0  0  0  0  0  0  0
    8.6243   -2.7014   22.2315 H   0  0  0  0  0  0  0  0  0  0  0  0
    6.3082   -2.3105   20.5117 H   0  0  0  0  0  0  0  0  0  0  0  0
    7.7488   -2.2565   19.7030 H   0  0  0  0  0  0  0  0  0  0  0  0
    6.6655   -0.0407   19.9150 C   0  0  0  0  0  0  0  0  0  0  0  0
    5.4520    0.6169   20.1719 C   0  0  0  0  0  0  0  0  0  0  0  0
    4.8376    1.2830   19.1148 C   0  0  0  0  0  0  0  0  0  0  0  0
    5.4142    1.2836   17.8467 C   0  0  0  0  0  0  0  0  0  0  0  0
    6.5742    0.6496   17.5995 N   0  0  0  0  0  0  0  0  0  0  0  0
    7.1810    0.0096   18.6119 C   0  0  0  0  0  0  0  0  0  0  0  0
    8.1399   -0.4606   18.4055 H   0  0  0  0  0  0  0  0  0  0  0  0
    4.9073    1.8004   17.0359 H   0  0  0  0  0  0  0  0  0  0  0  0
    3.9122    1.8211   19.2613 H   0  0  0  0  0  0  0  0  0  0  0  0
    5.0098    0.6321   21.1672 H   0  0  0  0  0  0  0  0  0  0  0  0
    7.5524   -0.9845   23.1284 H   0  0  0  0  0  0  0  0  0  0  0  0
    6.8232    0.5514   22.5578 H   0  0  0  0  0  0  0  0  0  0  0  0
    5.9314   -0.9826   22.4134 H   0  0  0  0  0  0  0  0  0  0  0  0
  1  2  1  0
  2  3  1  0
  3  4  1  0
  3  5  1  0
  3  6  1  0
  2  7  1  0
  7  8  1  0
  8  9  1  0
  9 10  2  0
 10 11  1  0
 11 12  2  0
 12 13  1  0
 13 14  1  0
 13 15  2  0
 15 16  1  0
 12 17  1  0
 11 18  1  0
  8 19  1  0
  8 20  1  0
  7 21  1  0
  7 22  1  0
  2 23  1  0
 23 24  2  0
 24 25  1  0
 25 26  2  0
 26 27  1  0
 27 28  2  0
 28 29  1  0
 26 30  1  0
 25 31  1  0
 24 32  1  0
  1 33  1  0
  1 34  1  0
  1 35  1  0
 15  9  1  0
 28 23  1  0
M  CHG  1   7   1
M  END
>  <cnnaffinity>  (1) 
5.0749

>  <plip>  (1) 
-0.03571428571428571

>  <filename>  (1) 
[H][c]1[n][c]([H])[c]([C]([C]([H])([H])[H])([C]([H])([H])[H])[N+]([H])([H])[C]([H])([H])[c]2[n][c]([H])[c]([H])[c]([Br])[c]2[Br])[c]([H])[c]1[H]

>  <combo1>  (1) 
-0.15647178192404831

$$$$
