
     RDKit          3D

 38 41  0  0  0  0  0  0  0  0999 V2000
    8.2800    1.2389   22.2834 C   0  0  0  0  0  0  0  0  0  0  0  0
    7.5616   -0.0224   22.2395 N   0  0  0  0  0  0  0  0  0  0  0  0
    6.9994   -0.5769   23.3500 C   0  0  0  0  0  0  0  0  0  0  0  0
    6.9772   -0.0642   24.4478 O   0  0  0  0  0  0  0  0  0  0  0  0
    6.4826   -1.8321   23.0104 N   0  0  0  0  0  0  0  0  0  0  0  0
    5.8043   -2.7196   23.8978 C   0  0  0  0  0  0  0  0  0  0  0  0
    5.0596   -2.1842   24.9928 C   0  0  0  0  0  0  0  0  0  0  0  0
    4.1951   -2.9869   25.6968 C   0  0  0  0  0  0  0  0  0  0  0  0
    4.1146   -4.3871   25.4161 C   0  0  0  0  0  0  0  0  0  0  0  0
    3.2564   -5.2967   26.1171 C   0  0  0  0  0  0  0  0  0  0  0  0
    3.2574   -6.6014   25.9279 N   0  0  0  0  0  0  0  0  0  0  0  0
    4.1028   -7.1168   24.9863 C   0  0  0  0  0  0  0  0  0  0  0  0
    4.9208   -6.3303   24.2115 C   0  0  0  0  0  0  0  0  0  0  0  0
    5.6990   -6.8682   23.2561 F   0  0  0  0  0  0  0  0  0  0  0  0
    4.9672   -4.9278   24.4039 C   0  0  0  0  0  0  0  0  0  0  0  0
    5.7968   -4.0701   23.6323 C   0  0  0  0  0  0  0  0  0  0  0  0
    6.3856   -4.4871   22.8254 H   0  0  0  0  0  0  0  0  0  0  0  0
    4.0989   -8.1932   24.8457 H   0  0  0  0  0  0  0  0  0  0  0  0
    2.5523   -4.9068   26.8530 H   0  0  0  0  0  0  0  0  0  0  0  0
    3.5676   -2.5542   26.4735 H   0  0  0  0  0  0  0  0  0  0  0  0
    5.1515   -1.1259   25.1951 H   0  0  0  0  0  0  0  0  0  0  0  0
    6.5383   -2.0155   21.6401 C   0  0  0  0  0  0  0  0  0  0  0  0
    6.1019   -2.9594   21.0290 O   0  0  0  0  0  0  0  0  0  0  0  0
    7.3015   -0.8131   21.0548 C   0  0  0  0  0  0  0  0  0  0  0  0
    6.5951   -0.0281   19.9567 C   0  0  0  0  0  0  0  0  0  0  0  0
    5.3773    0.6342   20.1602 C   0  0  0  0  0  0  0  0  0  0  0  0
    4.8069    1.3028   19.0757 C   0  0  0  0  0  0  0  0  0  0  0  0
    5.4703    1.2969   17.8439 C   0  0  0  0  0  0  0  0  0  0  0  0
    6.6389    0.6721   17.6357 N   0  0  0  0  0  0  0  0  0  0  0  0
    7.1772    0.0392   18.6832 C   0  0  0  0  0  0  0  0  0  0  0  0
    8.1307   -0.4615   18.5095 H   0  0  0  0  0  0  0  0  0  0  0  0
    5.0502    1.8185   16.9864 H   0  0  0  0  0  0  0  0  0  0  0  0
    3.8796    1.8529   19.1768 H   0  0  0  0  0  0  0  0  0  0  0  0
    4.9007    0.6496   21.1427 H   0  0  0  0  0  0  0  0  0  0  0  0
    8.2325   -1.2349   20.6492 H   0  0  0  0  0  0  0  0  0  0  0  0
    8.6681    1.4762   21.2892 H   0  0  0  0  0  0  0  0  0  0  0  0
    7.6363    2.0640   22.6104 H   0  0  0  0  0  0  0  0  0  0  0  0
    9.1167    1.1706   22.9857 H   0  0  0  0  0  0  0  0  0  0  0  0
  1  2  1  0
  2  3  1  0
  3  4  2  0
  3  5  1  0
  5  6  1  0
  6  7  2  0
  7  8  1  0
  8  9  2  0
  9 10  1  0
 10 11  2  0
 11 12  1  0
 12 13  2  0
 13 14  1  0
 13 15  1  0
 15 16  2  0
 16 17  1  0
 12 18  1  0
 10 19  1  0
  8 20  1  0
  7 21  1  0
  5 22  1  0
 22 23  2  0
 22 24  1  0
 24 25  1  0
 25 26  2  0
 26 27  1  0
 27 28  2  0
 28 29  1  0
 29 30  2  0
 30 31  1  0
 28 32  1  0
 27 33  1  0
 26 34  1  0
 24 35  1  0
  1 36  1  0
  1 37  1  0
  1 38  1  0
 24  2  1  0
 30 25  1  0
 16  6  1  0
 15  9  1  0
M  END
>  <cnnaffinity>  (1) 
5.49324

>  <plip>  (1) 
-0.07142857142857142

>  <filename>  (1) 
[H][c]1[n][c]([H])[c]([C]2([H])[C](=[O])[N]([c]3[c]([H])[c]([H])[c]4[c]([H])[n][c]([H])[c]([F])[c]4[c]3[H])[C](=[O])[N]2[C]([H])([H])[H])[c]([H])[c]1[H]

>  <combo1>  (1) 
-0.38888289508223745

$$$$
