
     RDKit          3D

 31 33  0  0  0  0  0  0  0  0999 V2000
    9.4446    0.1424   20.4388 O   0  0  0  0  0  0  0  0  0  0  0  0
    8.7714   -0.6439   21.0799 C   0  0  0  0  0  0  0  0  0  0  0  0
    7.3852   -0.6700   20.9414 N   0  0  0  0  0  0  0  0  0  0  0  0
    6.6707   -0.0096   19.9007 C   0  0  0  0  0  0  0  0  0  0  0  0
    5.4476    0.6244   20.1591 C   0  0  0  0  0  0  0  0  0  0  0  0
    4.8049    1.2974   19.1093 C   0  0  0  0  0  0  0  0  0  0  0  0
    5.3873    1.2924   17.8372 C   0  0  0  0  0  0  0  0  0  0  0  0
    6.5455    0.6695   17.5647 N   0  0  0  0  0  0  0  0  0  0  0  0
    7.1695    0.0529   18.5747 C   0  0  0  0  0  0  0  0  0  0  0  0
    8.1214   -0.4156   18.3407 H   0  0  0  0  0  0  0  0  0  0  0  0
    4.9175    1.8049   17.0008 H   0  0  0  0  0  0  0  0  0  0  0  0
    3.8755    1.8370   19.2650 H   0  0  0  0  0  0  0  0  0  0  0  0
    5.0325    0.6140   21.1665 H   0  0  0  0  0  0  0  0  0  0  0  0
    6.8302   -1.1011   21.6658 H   0  0  0  0  0  0  0  0  0  0  0  0
    9.3533   -1.6431   22.1441 C   0  0  0  0  0  0  0  0  0  0  0  0
    9.3948   -0.9587   23.5360 C   0  0  0  0  0  0  0  0  0  0  0  0
   10.4511    0.1656   23.6231 C   0  0  0  0  0  0  0  0  0  0  0  0
   11.7417   -0.3173   23.0075 C   0  0  0  0  0  0  0  0  0  0  0  0
   11.7673   -1.3919   22.1476 C   0  0  0  0  0  0  0  0  0  0  0  0
   10.6916   -2.2260   21.8797 N   0  0  0  0  0  0  0  0  0  0  0  0
   10.7983   -2.7258   21.0078 H   0  0  0  0  0  0  0  0  0  0  0  0
   13.0463   -1.5525   21.7350 N   0  0  0  0  0  0  0  0  0  0  0  0
   13.8904   -0.6477   22.3116 N   0  0  0  0  0  0  0  0  0  0  0  0
   13.0964    0.0893   23.0829 C   0  0  0  0  0  0  0  0  0  0  0  0
   13.5289    0.8780   23.6948 H   0  0  0  0  0  0  0  0  0  0  0  0
   13.3933   -2.2388   21.0806 H   0  0  0  0  0  0  0  0  0  0  0  0
   10.1036    1.0656   23.0887 H   0  0  0  0  0  0  0  0  0  0  0  0
   10.5948    0.4518   24.6737 H   0  0  0  0  0  0  0  0  0  0  0  0
    8.4027   -0.5727   23.7953 H   0  0  0  0  0  0  0  0  0  0  0  0
    9.6413   -1.7423   24.2651 H   0  0  0  0  0  0  0  0  0  0  0  0
    8.6592   -2.4876   22.1936 H   0  0  0  0  0  0  0  0  0  0  0  0
  1  2  2  0
  2  3  1  0
  3  4  1  0
  4  5  2  0
  5  6  1  0
  6  7  2  0
  7  8  1  0
  8  9  2  0
  9 10  1  0
  7 11  1  0
  6 12  1  0
  5 13  1  0
  3 14  1  0
  2 15  1  0
 15 16  1  0
 16 17  1  0
 17 18  1  0
 18 19  2  0
 19 20  1  0
 20 21  1  0
 19 22  1  0
 22 23  1  0
 23 24  2  0
 24 25  1  0
 22 26  1  0
 17 27  1  0
 17 28  1  0
 16 29  1  0
 16 30  1  0
 15 31  1  0
  9  4  1  0
 20 15  1  0
 24 18  1  0
M  END
>  <cnnaffinity>  (1) 
5.45753

>  <plip>  (1) 
-0.06666666666666667

>  <filename>  (1) 
[H][c]1[n][c]([H])[c]([N]([H])[C](=[O])[C]2([H])[N]([H])[c]3[c]([c]([H])[n][n]3[H])[C]([H])([H])[C]2([H])[H])[c]([H])[c]1[H]

>  <combo1>  (1) 
-0.49853432171843814

$$$$
