
     RDKit          3D

 42 45  0  0  0  0  0  0  0  0999 V2000
   11.8720    5.0870   22.1600 Cl  0  0  0  0  0  0  0  0  0  0  0  0
   10.3550    5.3636   22.9645 C   0  0  0  0  0  0  0  0  0  0  0  0
   10.1877    6.6307   23.5070 C   0  0  0  0  0  0  0  0  0  0  0  0
    9.0587    6.9530   24.2557 C   0  0  0  0  0  0  0  0  0  0  0  0
    8.0721    5.9824   24.4654 C   0  0  0  0  0  0  0  0  0  0  0  0
    8.2097    4.7235   23.8839 C   0  0  0  0  0  0  0  0  0  0  0  0
    9.3431    4.4047   23.1035 C   0  0  0  0  0  0  0  0  0  0  0  0
    9.4627    3.1021   22.4439 C   0  0  0  0  0  0  0  0  0  0  0  0
   10.5547    2.5353   22.0456 N   0  0  0  0  0  0  0  0  0  0  0  0
   10.3579    1.2885   21.5327 N   0  0  0  0  0  0  0  0  0  0  0  0
    9.0968    0.9671   21.5561 C   0  0  0  0  0  0  0  0  0  0  0  0
    8.6545   -0.2257   21.1572 N   0  0  0  0  0  0  0  0  0  0  0  0
    7.2640   -0.6042   21.1412 C   0  0  0  0  0  0  0  0  0  0  0  0
    6.5500    0.1074   20.0024 C   0  0  0  0  0  0  0  0  0  0  0  0
    5.3068    0.7315   20.1554 C   0  0  0  0  0  0  0  0  0  0  0  0
    4.7250    1.3496   19.0445 C   0  0  0  0  0  0  0  0  0  0  0  0
    5.3981    1.3093   17.8197 C   0  0  0  0  0  0  0  0  0  0  0  0
    6.5806    0.7011   17.6509 N   0  0  0  0  0  0  0  0  0  0  0  0
    7.1352    0.1264   18.7265 C   0  0  0  0  0  0  0  0  0  0  0  0
    8.0990   -0.3527   18.5458 H   0  0  0  0  0  0  0  0  0  0  0  0
    4.9651    1.7784   16.9376 H   0  0  0  0  0  0  0  0  0  0  0  0
    3.7769    1.8673   19.1192 H   0  0  0  0  0  0  0  0  0  0  0  0
    4.8095    0.7521   21.1281 H   0  0  0  0  0  0  0  0  0  0  0  0
    7.2380   -2.1121   20.9687 C   0  0  0  0  0  0  0  0  0  0  0  0
    7.9191   -3.0159   22.0058 C   0  0  0  0  0  0  0  0  0  0  0  0
    7.1356   -4.3333   21.8699 C   0  0  0  0  0  0  0  0  0  0  0  0
    5.9431   -4.0615   21.1443 O   0  0  0  0  0  0  0  0  0  0  0  0
    5.8388   -2.6847   20.8658 C   0  0  0  0  0  0  0  0  0  0  0  0
    5.1645   -2.1828   21.5790 H   0  0  0  0  0  0  0  0  0  0  0  0
    5.4313   -2.5468   19.8590 H   0  0  0  0  0  0  0  0  0  0  0  0
    7.6950   -5.0927   21.3111 H   0  0  0  0  0  0  0  0  0  0  0  0
    6.8867   -4.7547   22.8507 H   0  0  0  0  0  0  0  0  0  0  0  0
    7.8558   -2.6118   23.0242 H   0  0  0  0  0  0  0  0  0  0  0  0
    8.9798   -3.1706   21.7826 H   0  0  0  0  0  0  0  0  0  0  0  0
    7.7533   -2.2515   20.0289 H   0  0  0  0  0  0  0  0  0  0  0  0
    6.7824   -0.3305   22.0973 H   0  0  0  0  0  0  0  0  0  0  0  0
    9.3923   -0.8190   20.8224 H   0  0  0  0  0  0  0  0  0  0  0  0
    8.0195    2.1701   22.1562 S   0  0  0  0  0  0  0  0  0  0  0  0
    7.4364    3.9696   24.0312 H   0  0  0  0  0  0  0  0  0  0  0  0
    7.2003    6.1979   25.0751 H   0  0  0  0  0  0  0  0  0  0  0  0
    8.9550    7.9474   24.6788 H   0  0  0  0  0  0  0  0  0  0  0  0
   11.0090    7.2846   23.2981 H   0  0  0  0  0  0  0  0  0  0  0  0
  1  2  1  0
  2  3  2  0
  3  4  1  0
  4  5  2  0
  5  6  1  0
  6  7  2  0
  7  8  1  0
  8  9  2  0
  9 10  1  0
 10 11  2  0
 11 12  1  0
 12 13  1  0
 13 14  1  0
 14 15  2  0
 15 16  1  0
 16 17  2  0
 17 18  1  0
 18 19  2  0
 19 20  1  0
 17 21  1  0
 16 22  1  0
 15 23  1  0
 13 24  1  0
 24 25  1  0
 25 26  1  0
 26 27  1  0
 27 28  1  0
 28 29  1  0
 28 30  1  0
 26 31  1  0
 26 32  1  0
 25 33  1  0
 25 34  1  0
 24 35  1  0
 13 36  1  0
 12 37  1  0
 11 38  1  0
  6 39  1  0
  5 40  1  0
  4 41  1  0
  3 42  1  0
  7  2  1  0
 38  8  1  0
 19 14  1  0
 28 24  1  0
M  END
>  <cnnaffinity>  (1) 
5.50086

>  <plip>  (1) 
-0.10344827586206896

>  <filename>  (1) 
[H][c]1[n][c]([H])[c]([C]([H])([N]([H])[c]2[n][n][c](-[c]3[c]([H])[c]([H])[c]([H])[c]([H])[c]3[Cl])[s]2)[C]2([H])[C]([H])([H])[O][C]([H])([H])[C]2([H])[H])[c]([H])[c]1[H]

>  <combo1>  (1) 
-0.5087007050136827

$$$$
