
     RDKit          3D

 35 37  0  0  0  0  0  0  0  0999 V2000
    4.8529    1.6413   16.8787 H   0  0  0  0  0  0  0  0  0  0  0  0
    5.4514    1.4255   17.7605 C   0  0  0  0  0  0  0  0  0  0  0  0
    6.6878    0.9554   17.5257 N   0  0  0  0  0  0  0  0  0  0  0  0
    7.4209    0.6349   18.5978 C   0  0  0  0  0  0  0  0  0  0  0  0
    8.4334    0.2770   18.3975 H   0  0  0  0  0  0  0  0  0  0  0  0
    6.9783    0.7229   19.9234 C   0  0  0  0  0  0  0  0  0  0  0  0
    7.7998    0.0814   21.0153 C   0  0  2  0  0  0  0  0  0  0  0  0
    8.6646   -0.3985   20.5406 H   0  0  0  0  0  0  0  0  0  0  0  0
    7.0456   -0.9424   21.7606 N   0  0  0  0  0  0  0  0  0  0  0  0
    6.3592   -1.9615   21.0988 C   0  0  0  0  0  0  0  0  0  0  0  0
    6.2168   -1.9208   19.8924 O   0  0  0  0  0  0  0  0  0  0  0  0
    5.9542   -2.9930   21.8765 N   0  0  0  0  0  0  0  0  0  0  0  0
    5.9763   -2.7895   22.8683 H   0  0  0  0  0  0  0  0  0  0  0  0
    5.6190   -4.2562   21.4365 C   0  0  0  0  0  0  0  0  0  0  0  0
    5.8767   -4.7006   20.1336 C   0  0  0  0  0  0  0  0  0  0  0  0
    6.2155   -4.0140   19.3747 H   0  0  0  0  0  0  0  0  0  0  0  0
    5.6527   -6.0424   19.8595 C   0  0  0  0  0  0  0  0  0  0  0  0
    5.8944   -6.4471   18.8757 H   0  0  0  0  0  0  0  0  0  0  0  0
    5.1162   -6.9008   20.7334 N   0  0  0  0  0  0  0  0  0  0  0  0
    4.7908   -6.4308   21.9422 C   0  0  0  0  0  0  0  0  0  0  0  0
    4.2861   -7.1256   22.6101 H   0  0  0  0  0  0  0  0  0  0  0  0
    5.0520   -5.1319   22.3607 C   0  0  0  0  0  0  0  0  0  0  0  0
    4.8163   -4.7969   23.3645 H   0  0  0  0  0  0  0  0  0  0  0  0
    6.9482   -0.6974   23.0950 C   0  0  0  0  0  0  0  0  0  0  0  0
    6.4366   -1.4454   23.9111 O   0  0  0  0  0  0  0  0  0  0  0  0
    7.5695    0.6359   23.3986 C   0  0  0  0  0  0  0  0  0  0  0  0
    6.7631    1.3055   23.7130 H   0  0  0  0  0  0  0  0  0  0  0  0
    8.2389    0.5158   24.2493 H   0  0  0  0  0  0  0  0  0  0  0  0
    8.2829    1.0584   22.1084 C   0  0  0  0  0  0  0  0  0  0  0  0
    8.0889    2.1003   21.8355 H   0  0  0  0  0  0  0  0  0  0  0  0
    9.3650    0.9545   22.2199 H   0  0  0  0  0  0  0  0  0  0  0  0
    5.7288    1.3086   20.1525 C   0  0  0  0  0  0  0  0  0  0  0  0
    5.3817    1.5139   21.1692 H   0  0  0  0  0  0  0  0  0  0  0  0
    4.9358    1.6317   19.0458 C   0  0  0  0  0  0  0  0  0  0  0  0
    3.9311    2.0236   19.1654 H   0  0  0  0  0  0  0  0  0  0  0  0
  1  2  1  0
  2  3  2  0
  3  4  1  0
  4  5  1  0
  4  6  2  0
  6  7  1  0
  7  8  1  6
  7  9  1  0
  9 10  1  0
 10 11  2  0
 10 12  1  0
 12 13  1  0
 12 14  1  0
 14 15  2  0
 15 16  1  0
 15 17  1  0
 17 18  1  0
 17 19  2  0
 19 20  1  0
 20 21  1  0
 20 22  2  0
 22 23  1  0
  9 24  1  0
 24 25  2  0
 24 26  1  0
 26 27  1  0
 26 28  1  0
 26 29  1  0
 29 30  1  0
 29 31  1  0
  6 32  1  0
 32 33  1  0
 32 34  2  0
 34 35  1  0
 34  2  1  0
 29  7  1  0
 22 14  1  0
M  END
>  <cnnaffinity>  (1) 
5.2576

>  <plip>  (1) 
-0.10714285714285714

>  <filename>  (1) 
[H][c]1[n][c]([H])[c]([C@]2([H])[N]([C](=[O])[N]([H])[c]3[c]([H])[c]([H])[n][c]([H])[c]3[H])[C](=[O])[C]([H])([H])[C]2([H])[H])[c]([H])[c]1[H]

>  <combo1>  (1) 
-0.6651414564189135

$$$$
