
     RDKit          3D

 43 44  0  0  0  0  0  0  0  0999 V2000
    8.9310   -1.0627   20.7191 C   0  0  0  0  0  0  0  0  0  0  0  0
    7.4977   -0.6063   21.0779 C   0  0  0  0  0  0  0  0  0  0  0  0
    6.6658   -1.8469   21.4912 C   0  0  0  0  0  0  0  0  0  0  0  0
    7.0713   -2.3219   22.3935 H   0  0  0  0  0  0  0  0  0  0  0  0
    6.6458   -2.6047   20.6985 H   0  0  0  0  0  0  0  0  0  0  0  0
    5.6278   -1.5691   21.7022 H   0  0  0  0  0  0  0  0  0  0  0  0
    7.5963    0.3529   22.3028 C   0  0  0  0  0  0  0  0  0  0  0  0
    8.4347    1.5146   22.0005 N   0  0  0  0  0  0  0  0  0  0  0  0
    8.7340    2.4427   22.9824 C   0  0  0  0  0  0  0  0  0  0  0  0
    8.5602    2.2679   24.1723 O   0  0  0  0  0  0  0  0  0  0  0  0
    9.2385    3.5860   22.4043 N   0  0  0  0  0  0  0  0  0  0  0  0
    9.7256    4.7113   23.1881 C   0  0  0  0  0  0  0  0  0  0  0  0
   10.9817    4.3796   24.0158 C   0  0  0  0  0  0  0  0  0  0  0  0
   11.4344    5.5060   24.9179 C   0  0  0  0  0  0  0  0  0  0  0  0
   12.5000    6.3840   24.5928 C   0  0  0  0  0  0  0  0  0  0  0  0
   12.9354    7.3563   25.4186 N   0  0  0  0  0  0  0  0  0  0  0  0
   12.2857    7.4596   26.5891 C   0  0  0  0  0  0  0  0  0  0  0  0
   11.2057    6.6225   26.9137 C   0  0  0  0  0  0  0  0  0  0  0  0
   10.7680    5.6594   26.0811 N   0  0  0  0  0  0  0  0  0  0  0  0
   10.6852    6.7273   27.8611 H   0  0  0  0  0  0  0  0  0  0  0  0
   12.6219    8.2380   27.2714 H   0  0  0  0  0  0  0  0  0  0  0  0
   13.0033    6.3174   23.6343 H   0  0  0  0  0  0  0  0  0  0  0  0
   11.7940    4.0778   23.3434 H   0  0  0  0  0  0  0  0  0  0  0  0
   10.7286    3.5121   24.6353 H   0  0  0  0  0  0  0  0  0  0  0  0
    9.9289    5.5317   22.4877 H   0  0  0  0  0  0  0  0  0  0  0  0
    8.9190    5.0365   23.8533 H   0  0  0  0  0  0  0  0  0  0  0  0
    9.7248    3.3935   21.5409 H   0  0  0  0  0  0  0  0  0  0  0  0
    8.1824    1.9862   21.1440 H   0  0  0  0  0  0  0  0  0  0  0  0
    8.0337   -0.1930   23.1489 H   0  0  0  0  0  0  0  0  0  0  0  0
    6.5872    0.6530   22.6299 H   0  0  0  0  0  0  0  0  0  0  0  0
    6.7706    0.0886   19.9022 C   0  0  0  0  0  0  0  0  0  0  0  0
    5.5311    0.7275   20.1072 C   0  0  0  0  0  0  0  0  0  0  0  0
    4.8786    1.3380   19.0299 C   0  0  0  0  0  0  0  0  0  0  0  0
    5.4815    1.2859   17.7685 C   0  0  0  0  0  0  0  0  0  0  0  0
    6.6450    0.6737   17.5352 N   0  0  0  0  0  0  0  0  0  0  0  0
    7.2609    0.0973   18.5832 C   0  0  0  0  0  0  0  0  0  0  0  0
    8.2038   -0.3859   18.3463 H   0  0  0  0  0  0  0  0  0  0  0  0
    4.9966    1.7457   16.9078 H   0  0  0  0  0  0  0  0  0  0  0  0
    3.9324    1.8498   19.1636 H   0  0  0  0  0  0  0  0  0  0  0  0
    5.0750    0.7570   21.0986 H   0  0  0  0  0  0  0  0  0  0  0  0
    9.3818   -1.5798   21.5777 H   0  0  0  0  0  0  0  0  0  0  0  0
    9.5728   -0.2083   20.4707 H   0  0  0  0  0  0  0  0  0  0  0  0
    8.9302   -1.7542   19.8742 H   0  0  0  0  0  0  0  0  0  0  0  0
  1  2  1  0
  2  3  1  0
  3  4  1  0
  3  5  1  0
  3  6  1  0
  2  7  1  0
  7  8  1  0
  8  9  1  0
  9 10  2  0
  9 11  1  0
 11 12  1  0
 12 13  1  0
 13 14  1  0
 14 15  2  0
 15 16  1  0
 16 17  2  0
 17 18  1  0
 18 19  2  0
 18 20  1  0
 17 21  1  0
 15 22  1  0
 13 23  1  0
 13 24  1  0
 12 25  1  0
 12 26  1  0
 11 27  1  0
  8 28  1  0
  7 29  1  0
  7 30  1  0
  2 31  1  0
 31 32  2  0
 32 33  1  0
 33 34  2  0
 34 35  1  0
 35 36  2  0
 36 37  1  0
 34 38  1  0
 33 39  1  0
 32 40  1  0
  1 41  1  0
  1 42  1  0
  1 43  1  0
 19 14  1  0
 36 31  1  0
M  END
>  <cnnaffinity>  (1) 
4.80843

>  <plip>  (1) 
-0.1724137931034483

>  <filename>  (1) 
[H][c]1[n][c]([H])[c]([C]([H])([H])[C]([H])([H])[N]([H])[C](=[O])[N]([H])[C]([H])([H])[C]([c]2[c]([H])[n][c]([H])[c]([H])[c]2[H])([C]([H])([H])[H])[C]([H])([H])[H])[n][c]1[H]

>  <combo1>  (1) 
-0.9230690021449072

$$$$
