
     RDKit          3D

 42 44  0  0  0  0  0  0  0  0999 V2000
    8.1719   -5.1217   24.7087 C   0  0  0  0  0  0  0  0  0  0  0  0
    8.7716   -4.1911   25.5627 C   0  0  0  0  0  0  0  0  0  0  0  0
    9.4829   -3.1502   24.9736 C   0  0  0  0  0  0  0  0  0  0  0  0
    9.6812   -3.1219   23.5839 C   0  0  0  0  0  0  0  0  0  0  0  0
   10.7133   -2.1738   23.0074 C   0  0  0  0  0  0  0  0  0  0  0  0
   10.2373   -1.2805   21.8774 C   0  0  0  0  0  0  0  0  0  0  0  0
    9.2133   -0.3642   22.4459 N   0  0  0  0  0  4  0  0  0  0  0  0
    9.7980    0.7072   23.3662 C   0  0  0  0  0  0  0  0  0  0  0  0
    8.9421    1.9675   23.1408 C   0  0  0  0  0  0  0  0  0  0  0  0
    7.7634    1.4966   22.2762 C   0  0  0  0  0  0  0  0  0  0  0  0
    8.3426    0.3592   21.4430 C   0  0  0  0  0  0  0  0  0  0  0  0
    7.3083   -0.5851   20.8046 C   0  0  0  0  0  0  0  0  0  0  0  0
    6.5034    0.0309   19.6781 C   0  0  0  0  0  0  0  0  0  0  0  0
    5.3059    0.7185   19.9150 C   0  0  0  0  0  0  0  0  0  0  0  0
    4.7045    1.4224   18.8670 C   0  0  0  0  0  0  0  0  0  0  0  0
    5.3063    1.3982   17.6059 C   0  0  0  0  0  0  0  0  0  0  0  0
    6.4078    0.6877   17.3352 N   0  0  0  0  0  0  0  0  0  0  0  0
    6.9702    0.0147   18.3475 C   0  0  0  0  0  0  0  0  0  0  0  0
    7.8480   -0.5690   18.0740 H   0  0  0  0  0  0  0  0  0  0  0  0
    4.8848    1.9662   16.7772 H   0  0  0  0  0  0  0  0  0  0  0  0
    3.8005    1.9990   19.0112 H   0  0  0  0  0  0  0  0  0  0  0  0
    4.8463    0.7071   20.9071 H   0  0  0  0  0  0  0  0  0  0  0  0
    6.6476   -0.9366   21.6081 H   0  0  0  0  0  0  0  0  0  0  0  0
    7.8499   -1.4660   20.4389 H   0  0  0  0  0  0  0  0  0  0  0  0
    8.9983    0.7704   20.6567 H   0  0  0  0  0  0  0  0  0  0  0  0
    7.3320    2.2787   21.6437 H   0  0  0  0  0  0  0  0  0  0  0  0
    6.9607    1.0964   22.9140 H   0  0  0  0  0  0  0  0  0  0  0  0
    9.5384    2.7241   22.6160 H   0  0  0  0  0  0  0  0  0  0  0  0
    8.6169    2.4104   24.0884 H   0  0  0  0  0  0  0  0  0  0  0  0
    9.7792    0.3683   24.4078 H   0  0  0  0  0  0  0  0  0  0  0  0
   10.8423    0.8875   23.0826 H   0  0  0  0  0  0  0  0  0  0  0  0
    8.5814   -0.9887   23.0094 H   0  0  0  0  0  0  0  0  0  0  0  0
   11.0697   -0.6941   21.4502 H   0  0  0  0  0  0  0  0  0  0  0  0
    9.8132   -1.8568   21.0484 H   0  0  0  0  0  0  0  0  0  0  0  0
   11.5941   -2.7426   22.6999 H   0  0  0  0  0  0  0  0  0  0  0  0
   11.0004   -1.4995   23.8201 H   0  0  0  0  0  0  0  0  0  0  0  0
    9.0272   -3.9597   22.7646 N   0  0  0  0  0  0  0  0  0  0  0  0
    8.2951   -4.9365   23.3295 C   0  0  0  0  0  0  0  0  0  0  0  0
    7.7838   -5.6087   22.6411 H   0  0  0  0  0  0  0  0  0  0  0  0
    9.9013   -2.3551   25.5748 H   0  0  0  0  0  0  0  0  0  0  0  0
    8.7005   -4.2913   26.6483 H   0  0  0  0  0  0  0  0  0  0  0  0
    7.6119   -5.9685   25.0869 H   0  0  0  0  0  0  0  0  0  0  0  0
  1  2  2  0
  2  3  1  0
  3  4  2  0
  4  5  1  0
  5  6  1  0
  6  7  1  0
  7  8  1  0
  8  9  1  0
  9 10  1  0
 10 11  1  0
 11 12  1  0
 12 13  1  0
 13 14  2  0
 14 15  1  0
 15 16  2  0
 16 17  1  0
 17 18  2  0
 18 19  1  0
 16 20  1  0
 15 21  1  0
 14 22  1  0
 12 23  1  0
 12 24  1  0
 11 25  1  0
 10 26  1  0
 10 27  1  0
  9 28  1  0
  9 29  1  0
  8 30  1  0
  8 31  1  0
  7 32  1  0
  6 33  1  0
  6 34  1  0
  5 35  1  0
  5 36  1  0
  4 37  1  0
 37 38  2  0
 38 39  1  0
  3 40  1  0
  2 41  1  0
  1 42  1  0
 38  1  1  0
 11  7  1  0
 18 13  1  0
M  CHG  1   7   1
M  END
>  <cnnaffinity>  (1) 
5.23924

>  <plip>  (1) 
-0.10714285714285714

>  <filename>  (1) 
[H][c]1[n][c]([C]([H])([H])[C]([H])([H])[N+]2([H])[C]([H])([H])[C]([H])([H])[C]([H])([H])[C]2([H])[C]([H])([H])[c]2[c]([H])[n][c]([H])[c]([H])[c]2[H])[c]([H])[c]([H])[c]1[H]

>  <combo1>  (1) 
-0.6971939992164743

$$$$
