
     RDKit          3D

 24 25  0  0  0  0  0  0  0  0999 V2000
    5.0608   -3.0520   18.0805 H   0  0  0  0  0  0  0  0  0  0  0  0
    5.2579   -3.3097   19.0509 N   0  0  0  0  0  0  0  0  0  0  0  0
    6.1142   -2.5057   19.4931 N   0  0  0  0  0  4  0  0  0  0  0  0
    6.6162   -2.6882   20.6500 N   0  0  0  0  0  0  0  0  0  0  0  0
    7.7799   -1.8256   20.8657 C   0  0  2  0  0  0  0  0  0  0  0  0
    8.5257   -2.0262   20.0733 H   0  0  0  0  0  0  0  0  0  0  0  0
    8.2886   -2.1850   22.1330 O   0  0  0  0  0  0  0  0  0  0  0  0
    8.3392   -1.0485   22.9766 C   0  0  0  0  0  0  0  0  0  0  0  0
    8.1218   -1.3734   24.0002 H   0  0  0  0  0  0  0  0  0  0  0  0
    9.3465   -0.6143   22.9429 H   0  0  0  0  0  0  0  0  0  0  0  0
    7.2971   -0.1154   22.3697 C   0  0  0  0  0  0  0  0  0  0  0  0
    7.4555    0.9389   22.6129 H   0  0  0  0  0  0  0  0  0  0  0  0
    6.2887   -0.4298   22.6991 H   0  0  0  0  0  0  0  0  0  0  0  0
    7.5267   -0.3785   20.9551 N   0  0  0  0  0  0  0  0  0  0  0  0
    6.8140    0.2960   19.9372 C   0  0  0  0  0  0  0  0  0  0  0  0
    7.3057    0.3414   18.6072 C   0  0  0  0  0  0  0  0  0  0  0  0
    8.2750   -0.1138   18.3930 H   0  0  0  0  0  0  0  0  0  0  0  0
    6.6279    0.8395   17.5698 N   0  0  0  0  0  0  0  0  0  0  0  0
    5.4156    1.3677   17.8159 C   0  0  0  0  0  0  0  0  0  0  0  0
    4.8938    1.7798   16.9581 H   0  0  0  0  0  0  0  0  0  0  0  0
    4.8367    1.3974   19.0912 C   0  0  0  0  0  0  0  0  0  0  0  0
    3.8598    1.8464   19.2332 H   0  0  0  0  0  0  0  0  0  0  0  0
    5.5520    0.8634   20.1730 C   0  0  0  0  0  0  0  0  0  0  0  0
    5.1556    0.8765   21.1903 H   0  0  0  0  0  0  0  0  0  0  0  0
  1  2  1  0
  2  3  2  0
  3  4  2  0
  4  5  1  0
  5  6  1  6
  5  7  1  0
  7  8  1  0
  8  9  1  0
  8 10  1  0
  8 11  1  0
 11 12  1  0
 11 13  1  0
 11 14  1  0
 14 15  1  0
 15 16  2  0
 16 17  1  0
 16 18  1  0
 18 19  2  0
 19 20  1  0
 19 21  1  0
 21 22  1  0
 21 23  2  0
 23 24  1  0
 14  5  1  0
 23 15  1  0
M  CHG  1   3   1
M  END
>  <cnnaffinity>  (1) 
3.8524

>  <plip>  (1) 
-0.16666666666666666

>  <filename>  (1) 
[H][N]=[N+]=[N][C@]1([H])[O][C]([H])([H])[C]([H])([H])[N]1[c]1[c]([H])[n][c]([H])[c]([H])[c]1[H]

>  <combo1>  (1) 
-1.1135275502971989

$$$$
