
     RDKit          3D

 33 35  0  0  0  0  0  0  0  0999 V2000
    3.5524   -5.8968   22.5351 C   0  0  0  0  0  0  0  0  0  0  0  0
    3.8799   -5.0787   23.3553 C   0  0  0  0  0  0  0  0  0  0  0  0
    4.2691   -4.1208   24.3688 C   0  0  0  0  0  0  0  0  0  0  0  0
    5.0808   -3.1357   23.9591 N   0  0  0  0  0  0  0  0  0  0  0  0
    5.4588   -2.1772   24.8328 C   0  0  0  0  0  0  0  0  0  0  0  0
    6.3648   -0.9778   24.3495 C   0  0  0  0  0  0  0  0  0  0  0  0
    6.7223   -0.1047   25.1290 O   0  0  0  0  0  0  0  0  0  0  0  0
    6.7433   -0.9199   23.0350 N   0  0  0  0  0  0  0  0  0  0  0  0
    6.5349   -1.7416   21.8412 C   0  0  0  0  0  0  0  0  0  0  0  0
    7.3731   -0.7105   21.0349 C   0  0  0  0  0  0  0  0  0  0  0  0
    8.5527   -1.2658   20.5713 F   0  0  0  0  0  0  0  0  0  0  0  0
    6.6647    0.0066   19.9180 C   0  0  0  0  0  0  0  0  0  0  0  0
    5.4450    0.6508   20.1589 C   0  0  0  0  0  0  0  0  0  0  0  0
    4.8103    1.3064   19.1061 C   0  0  0  0  0  0  0  0  0  0  0  0
    5.4093    1.2851   17.8428 C   0  0  0  0  0  0  0  0  0  0  0  0
    6.5720    0.6661   17.5900 N   0  0  0  0  0  0  0  0  0  0  0  0
    7.1827    0.0512   18.6088 C   0  0  0  0  0  0  0  0  0  0  0  0
    8.1281   -0.4300   18.3702 H   0  0  0  0  0  0  0  0  0  0  0  0
    4.9345    1.7821   16.9991 H   0  0  0  0  0  0  0  0  0  0  0  0
    3.8793    1.8375   19.2550 H   0  0  0  0  0  0  0  0  0  0  0  0
    5.0039    0.6358   21.1583 H   0  0  0  0  0  0  0  0  0  0  0  0
    7.5798    0.0737   22.3698 C   0  0  0  0  0  0  0  0  0  0  0  0
    8.6152    0.0965   22.7206 H   0  0  0  0  0  0  0  0  0  0  0  0
    7.1883    1.0966   22.3885 H   0  0  0  0  0  0  0  0  0  0  0  0
    6.9723   -2.7397   21.9195 H   0  0  0  0  0  0  0  0  0  0  0  0
    5.4840   -1.8481   21.5515 H   0  0  0  0  0  0  0  0  0  0  0  0
    5.0366   -2.2270   26.1832 C   0  0  0  0  0  0  0  0  0  0  0  0
    4.2134   -3.2772   26.6117 C   0  0  0  0  0  0  0  0  0  0  0  0
    3.8159   -4.2432   25.6890 C   0  0  0  0  0  0  0  0  0  0  0  0
    3.1838   -5.0809   25.9567 H   0  0  0  0  0  0  0  0  0  0  0  0
    3.8914   -3.3408   27.6514 H   0  0  0  0  0  0  0  0  0  0  0  0
    5.3561   -1.4549   26.8750 H   0  0  0  0  0  0  0  0  0  0  0  0
    3.2710   -6.6321   21.8105 H   0  0  0  0  0  0  0  0  0  0  0  0
  1  2  3  0
  2  3  1  0
  3  4  2  0
  4  5  1  0
  5  6  1  0
  6  7  2  0
  6  8  1  0
  8  9  1  0
  9 10  1  0
 10 11  1  0
 10 12  1  0
 12 13  2  0
 13 14  1  0
 14 15  2  0
 15 16  1  0
 16 17  2  0
 17 18  1  0
 15 19  1  0
 14 20  1  0
 13 21  1  0
 10 22  1  0
 22 23  1  0
 22 24  1  0
  9 25  1  0
  9 26  1  0
  5 27  2  0
 27 28  1  0
 28 29  2  0
 29 30  1  0
 28 31  1  0
 27 32  1  0
  1 33  1  0
 29  3  1  0
 22  8  1  0
 17 12  1  0
M  END
>  <cnnaffinity>  (1) 
4.76389

>  <plip>  (1) 
-0.03333333333333333

>  <filename>  (1) 
[H][C]#[C][c]1[n][c]([C](=[O])[N]2[C]([H])([H])[C]([F])([c]3[c]([H])[n][c]([H])[c]([H])[c]3[H])[C]2([H])[H])[c]([H])[c]([H])[c]1[H]

>  <combo1>  (1) 
-0.18817629887699922

$$$$
