
     RDKit          3D

 37 38  0  0  0  0  0  0  0  0999 V2000
    6.7856    3.4425   23.9014 N   0  0  0  0  0  4  0  0  0  0  0  0
    7.3322    2.0301   24.0021 C   0  0  2  0  0  0  0  0  0  0  0  0
    8.5781    2.1988   24.8921 C   0  0  0  0  0  0  0  0  0  0  0  0
    8.1743    2.7437   26.2463 C   0  0  0  0  0  0  0  0  0  0  0  0
    8.1766    4.1281   26.4776 C   0  0  0  0  0  0  0  0  0  0  0  0
    7.7589    4.6423   27.7122 C   0  0  0  0  0  0  0  0  0  0  0  0
    7.3264    3.7805   28.7254 C   0  0  0  0  0  0  0  0  0  0  0  0
    6.8005    4.4843   30.4274 Br  0  0  0  0  0  0  0  0  0  0  0  0
    7.3210    2.4006   28.4950 C   0  0  0  0  0  0  0  0  0  0  0  0
    7.7311    1.8846   27.2594 C   0  0  0  0  0  0  0  0  0  0  0  0
    7.6987    0.8134   27.0831 H   0  0  0  0  0  0  0  0  0  0  0  0
    6.9942    1.7287   29.2808 H   0  0  0  0  0  0  0  0  0  0  0  0
    7.7834    5.7118   27.8965 H   0  0  0  0  0  0  0  0  0  0  0  0
    8.5050    4.8118   25.6986 H   0  0  0  0  0  0  0  0  0  0  0  0
    9.2765    2.8891   24.4052 H   0  0  0  0  0  0  0  0  0  0  0  0
    9.0970    1.2423   25.0198 H   0  0  0  0  0  0  0  0  0  0  0  0
    7.6820    1.1662   22.7233 C   0  0  0  0  0  0  0  0  0  0  0  0
    8.3548    1.5929   21.7980 O   0  0  0  0  0  0  0  0  0  0  0  0
    7.3114   -0.1474   22.6559 N   0  0  0  0  0  0  0  0  0  0  0  0
    7.5802   -0.8560   21.1626 S   0  0  0  0  0  0  0  0  0  0  0  0
    8.9940   -0.7192   20.7953 O   0  0  0  0  0  0  0  0  0  0  0  0
    7.1282   -2.2481   21.1994 O   0  0  0  0  0  0  0  0  0  0  0  0
    6.6034    0.0700   20.0158 C   0  0  0  0  0  0  0  0  0  0  0  0
    5.3856    0.7100   20.2392 C   0  0  0  0  0  0  0  0  0  0  0  0
    4.8348    1.3308   19.1282 C   0  0  0  0  0  0  0  0  0  0  0  0
    5.4883    1.2800   17.8950 C   0  0  0  0  0  0  0  0  0  0  0  0
    6.6564    0.6447   17.7275 N   0  0  0  0  0  0  0  0  0  0  0  0
    7.2101    0.0538   18.7786 C   0  0  0  0  0  0  0  0  0  0  0  0
    8.1609   -0.4535   18.6253 H   0  0  0  0  0  0  0  0  0  0  0  0
    5.0367    1.7735   17.0388 H   0  0  0  0  0  0  0  0  0  0  0  0
    3.8984    1.8651   19.1986 H   0  0  0  0  0  0  0  0  0  0  0  0
    4.8705    0.7399   21.2033 H   0  0  0  0  0  0  0  0  0  0  0  0
    6.4881   -0.4619   23.1511 H   0  0  0  0  0  0  0  0  0  0  0  0
    6.6157    1.4007   24.5485 H   0  0  0  0  0  0  0  0  0  0  0  0
    7.4788    4.0668   23.4719 H   0  0  0  0  0  0  0  0  0  0  0  0
    6.5960    3.7866   24.8491 H   0  0  0  0  0  0  0  0  0  0  0  0
    5.9182    3.4826   23.3594 H   0  0  0  0  0  0  0  0  0  0  0  0
  1  2  1  0
  2  3  1  0
  3  4  1  0
  4  5  2  0
  5  6  1  0
  6  7  2  0
  7  8  1  0
  7  9  1  0
  9 10  2  0
 10 11  1  0
  9 12  1  0
  6 13  1  0
  5 14  1  0
  3 15  1  0
  3 16  1  0
  2 17  1  0
 17 18  2  0
 17 19  1  0
 19 20  1  0
 20 21  2  0
 20 22  2  0
 20 23  1  0
 23 24  2  0
 24 25  1  0
 25 26  2  0
 26 27  1  0
 27 28  2  0
 28 29  1  0
 26 30  1  0
 25 31  1  0
 24 32  1  0
 19 33  1  0
  2 34  1  1
  1 35  1  0
  1 36  1  0
  1 37  1  0
 10  4  1  0
 28 23  1  0
M  CHG  1   1   1
M  END
>  <cnnaffinity>  (1) 
4.95692

>  <plip>  (1) 
-0.14285714285714285

>  <filename>  (1) 
[H][c]1[n][c]([H])[c]([S](=[O])(=[O])[N]([H])[C](=[O])[C@@]([H])([C]([H])([H])[c]2[c]([H])[c]([H])[c]([Br])[c]([H])[c]2[H])[N+]([H])([H])[H])[c]([H])[c]1[H]

>  <combo1>  (1) 
-0.6126822703550808

$$$$
