
     RDKit          3D

 39 39  0  0  0  0  0  0  0  0999 V2000
   13.0399    1.5470   24.4454 O   0  0  0  0  0  0  0  0  0  0  0  0
   13.3874    1.7494   23.2654 C   0  0  0  0  0  0  0  0  0  0  0  0
   13.4189    0.9305   22.3208 O   0  0  0  0  0  1  0  0  0  0  0  0
   13.8574    3.2044   22.9011 C   0  0  0  0  0  0  0  0  0  0  0  0
   12.8271    3.9219   22.0267 C   0  0  0  0  0  0  0  0  0  0  0  0
   11.4963    4.2020   22.7340 C   0  0  0  0  0  0  0  0  0  0  0  0
   10.5978    2.9636   22.8418 C   0  0  0  0  0  0  0  0  0  0  0  0
    9.1345    3.3203   23.1375 C   0  0  0  0  0  0  0  0  0  0  0  0
    8.2890    2.1094   23.5155 C   0  0  0  0  0  0  0  0  0  0  0  0
    8.1690    1.2229   22.3707 N   0  0  0  0  0  0  0  0  0  0  0  0
    7.3398    0.1562   22.3429 C   0  0  0  0  0  0  0  0  0  0  0  0
    6.5855   -0.0880   23.2747 O   0  0  0  0  0  0  0  0  0  0  0  0
    7.3907   -0.6648   20.9968 C   0  0  0  0  0  0  0  0  0  0  0  0
    6.9450   -2.0071   21.0953 O   0  0  0  0  0  0  0  0  0  0  0  0
    6.1847   -2.0307   21.7007 H   0  0  0  0  0  0  0  0  0  0  0  0
    6.6664    0.0591   19.8578 C   0  0  0  0  0  0  0  0  0  0  0  0
    5.4938    0.8036   20.0606 C   0  0  0  0  0  0  0  0  0  0  0  0
    4.8903    1.4253   18.9633 C   0  0  0  0  0  0  0  0  0  0  0  0
    5.4666    1.2709   17.7002 C   0  0  0  0  0  0  0  0  0  0  0  0
    6.5692    0.5367   17.4776 N   0  0  0  0  0  0  0  0  0  0  0  0
    7.1364   -0.0564   18.5369 C   0  0  0  0  0  0  0  0  0  0  0  0
    8.0265   -0.6479   18.3151 H   0  0  0  0  0  0  0  0  0  0  0  0
    5.0346    1.7599   16.8261 H   0  0  0  0  0  0  0  0  0  0  0  0
    4.0145    2.0547   19.0815 H   0  0  0  0  0  0  0  0  0  0  0  0
    5.0731    0.8981   21.0645 H   0  0  0  0  0  0  0  0  0  0  0  0
    8.4498   -0.7532   20.7181 H   0  0  0  0  0  0  0  0  0  0  0  0
    8.7615    1.3925   21.5801 H   0  0  0  0  0  0  0  0  0  0  0  0
    7.2944    2.4162   23.8533 H   0  0  0  0  0  0  0  0  0  0  0  0
    8.7405    1.5698   24.3620 H   0  0  0  0  0  0  0  0  0  0  0  0
    9.0775    4.0495   23.9575 H   0  0  0  0  0  0  0  0  0  0  0  0
    8.7000    3.8158   22.2521 H   0  0  0  0  0  0  0  0  0  0  0  0
   11.0022    2.2691   23.5959 H   0  0  0  0  0  0  0  0  0  0  0  0
   10.6318    2.4181   21.8841 H   0  0  0  0  0  0  0  0  0  0  0  0
   11.6838    4.6294   23.7314 H   0  0  0  0  0  0  0  0  0  0  0  0
   10.9596    4.9964   22.1959 H   0  0  0  0  0  0  0  0  0  0  0  0
   13.2562    4.8683   21.6874 H   0  0  0  0  0  0  0  0  0  0  0  0
   12.6378    3.3224   21.1239 H   0  0  0  0  0  0  0  0  0  0  0  0
   14.0485    3.7714   23.8158 H   0  0  0  0  0  0  0  0  0  0  0  0
   14.8137    3.1178   22.3760 H   0  0  0  0  0  0  0  0  0  0  0  0
  1  2  2  0
  2  3  1  0
  2  4  1  0
  4  5  1  0
  5  6  1  0
  6  7  1  0
  7  8  1  0
  8  9  1  0
  9 10  1  0
 10 11  1  0
 11 12  2  0
 11 13  1  0
 13 14  1  0
 14 15  1  0
 13 16  1  0
 16 17  2  0
 17 18  1  0
 18 19  2  0
 19 20  1  0
 20 21  2  0
 21 22  1  0
 19 23  1  0
 18 24  1  0
 17 25  1  0
 13 26  1  0
 10 27  1  0
  9 28  1  0
  9 29  1  0
  8 30  1  0
  8 31  1  0
  7 32  1  0
  7 33  1  0
  6 34  1  0
  6 35  1  0
  5 36  1  0
  5 37  1  0
  4 38  1  0
  4 39  1  0
 21 16  1  0
M  CHG  1   3  -1
M  END
>  <cnnaffinity>  (1) 
4.70925

>  <plip>  (1) 
-0.10714285714285714

>  <filename>  (1) 
[H][O][C]([H])([C](=[O])[N]([H])[C]([H])([H])[C]([H])([H])[C]([H])([H])[C]([H])([H])[C]([H])([H])[C]([H])([H])[C](=[O])[O-])[c]1[c]([H])[n][c]([H])[c]([H])[c]1[H]

>  <combo1>  (1) 
-0.6021405862893647

$$$$
