
     RDKit          3D

 33 35  0  0  0  0  0  0  0  0999 V2000
    7.4300   -2.1362   20.9750 C   0  0  0  0  0  0  0  0  0  0  0  0
    7.1876   -0.6409   21.2475 C   0  0  0  0  0  0  0  0  0  0  0  0
    8.4583    0.0214   21.4942 N   0  0  0  0  0  0  0  0  0  0  0  0
    9.2375   -0.1845   22.5800 C   0  0  0  0  0  0  0  0  0  0  0  0
    8.7274   -0.9547   23.5302 N   0  0  0  0  0  0  0  0  0  0  0  0
    9.4274   -1.1035   24.6828 C   0  0  0  0  0  0  0  0  0  0  0  0
   10.6676   -0.5578   24.9038 C   0  0  0  0  0  0  0  0  0  0  0  0
   11.3103    0.1770   23.8558 C   0  0  0  0  0  0  0  0  0  0  0  0
   12.6492    0.6566   23.9268 C   0  0  0  0  0  0  0  0  0  0  0  0
   13.1262    1.4638   22.9147 C   0  0  0  0  0  0  0  0  0  0  0  0
   12.2776    1.7654   21.8168 C   0  0  0  0  0  0  0  0  0  0  0  0
   11.0627    1.2774   21.6785 N   0  0  0  0  0  0  0  0  0  0  0  0
   10.5762    0.4604   22.6686 C   0  0  0  0  0  0  0  0  0  0  0  0
   12.6075    2.4114   21.0052 H   0  0  0  0  0  0  0  0  0  0  0  0
   14.1264    1.8767   22.9301 H   0  0  0  0  0  0  0  0  0  0  0  0
   13.2714    0.3637   24.7700 H   0  0  0  0  0  0  0  0  0  0  0  0
   11.1452   -0.6456   25.8688 H   0  0  0  0  0  0  0  0  0  0  0  0
    8.9293   -1.7149   25.4339 H   0  0  0  0  0  0  0  0  0  0  0  0
    8.8810    0.6009   20.7873 H   0  0  0  0  0  0  0  0  0  0  0  0
    6.5353    0.1059   20.1114 C   0  0  0  0  0  0  0  0  0  0  0  0
    5.3088    0.7867   20.2007 C   0  0  0  0  0  0  0  0  0  0  0  0
    4.7918    1.3810   19.0449 C   0  0  0  0  0  0  0  0  0  0  0  0
    5.5211    1.2939   17.8559 C   0  0  0  0  0  0  0  0  0  0  0  0
    6.7018    0.6639   17.7595 N   0  0  0  0  0  0  0  0  0  0  0  0
    7.1913    0.1145   18.8764 C   0  0  0  0  0  0  0  0  0  0  0  0
    8.1609   -0.3797   18.7716 H   0  0  0  0  0  0  0  0  0  0  0  0
    5.1453    1.7347   16.9337 H   0  0  0  0  0  0  0  0  0  0  0  0
    3.8475    1.9172   19.0471 H   0  0  0  0  0  0  0  0  0  0  0  0
    4.7765    0.8713   21.1522 H   0  0  0  0  0  0  0  0  0  0  0  0
    6.5709   -0.5528   22.1553 H   0  0  0  0  0  0  0  0  0  0  0  0
    7.5347   -2.6469   21.9351 H   0  0  0  0  0  0  0  0  0  0  0  0
    6.6244   -2.5894   20.3888 H   0  0  0  0  0  0  0  0  0  0  0  0
    8.3810   -2.2629   20.4484 H   0  0  0  0  0  0  0  0  0  0  0  0
  1  2  1  0
  2  3  1  0
  3  4  1  0
  4  5  2  0
  5  6  1  0
  6  7  2  0
  7  8  1  0
  8  9  2  0
  9 10  1  0
 10 11  2  0
 11 12  1  0
 12 13  2  0
 11 14  1  0
 10 15  1  0
  9 16  1  0
  7 17  1  0
  6 18  1  0
  3 19  1  0
  2 20  1  0
 20 21  2  0
 21 22  1  0
 22 23  2  0
 23 24  1  0
 24 25  2  0
 25 26  1  0
 23 27  1  0
 22 28  1  0
 21 29  1  0
  2 30  1  0
  1 31  1  0
  1 32  1  0
  1 33  1  0
 13  4  1  0
 25 20  1  0
 13  8  1  0
M  END
>  <cnnaffinity>  (1) 
4.93313

>  <plip>  (1) 
-0.10344827586206896

>  <filename>  (1) 
[H][c]1[n][c]([H])[c]([C]([H])([N]([H])[c]2[n][c]([H])[c]([H])[c]3[c]([H])[c]([H])[c]([H])[n][c]23)[C]([H])([H])[H])[c]([H])[c]1[H]

>  <combo1>  (1) 
-0.6796026089550058

$$$$
