
     RDKit          3D

 40 42  0  0  0  0  0  0  0  0999 V2000
   11.7307    3.9383   24.4604 O   0  0  0  0  0  0  0  0  0  0  0  0
   10.7179    3.6069   23.8815 C   0  0  0  0  0  0  0  0  0  0  0  0
   10.4437    2.3256   23.2428 C   0  0  0  0  0  0  0  0  0  0  0  0
    9.3971    2.1794   22.4010 C   0  0  0  0  0  0  0  0  0  0  0  0
    9.1138    0.9303   21.6014 C   0  0  0  0  0  0  0  0  0  0  0  0
    7.8576    0.1542   22.0147 N   0  0  0  0  0  4  0  0  0  0  0  0
    8.0226   -0.4817   23.4089 C   0  0  0  0  0  0  0  0  0  0  0  0
    8.4381   -1.9513   23.2802 C   0  0  0  0  0  0  0  0  0  0  0  0
    7.3723   -2.7995   22.5445 C   0  0  0  0  0  0  0  0  0  0  0  0
    6.5758   -1.9561   21.5201 C   0  0  0  0  0  0  0  0  0  0  0  0
    7.3952   -0.8315   20.8957 C   0  0  1  0  0  0  0  0  0  0  0  0
    6.6421   -0.0179   19.8694 C   0  0  0  0  0  0  0  0  0  0  0  0
    5.4366    0.6576   20.1307 C   0  0  0  0  0  0  0  0  0  0  0  0
    4.8042    1.3272   19.0820 C   0  0  0  0  0  0  0  0  0  0  0  0
    5.4028    1.3228   17.8183 C   0  0  0  0  0  0  0  0  0  0  0  0
    6.5643    0.7071   17.5577 N   0  0  0  0  0  0  0  0  0  0  0  0
    7.1582    0.0661   18.5706 C   0  0  0  0  0  0  0  0  0  0  0  0
    8.1127   -0.4124   18.3380 H   0  0  0  0  0  0  0  0  0  0  0  0
    4.9304    1.8360   16.9819 H   0  0  0  0  0  0  0  0  0  0  0  0
    3.8757    1.8674   19.2282 H   0  0  0  0  0  0  0  0  0  0  0  0
    4.9941    0.6652   21.1307 H   0  0  0  0  0  0  0  0  0  0  0  0
    8.3017   -1.2505   20.4429 H   0  0  0  0  0  0  0  0  0  0  0  0
    5.7469   -1.4690   22.0322 H   0  0  0  0  0  0  0  0  0  0  0  0
    6.1467   -2.5685   20.7264 H   0  0  0  0  0  0  0  0  0  0  0  0
    7.8680   -3.6460   22.0496 H   0  0  0  0  0  0  0  0  0  0  0  0
    6.6643   -3.2335   23.2656 H   0  0  0  0  0  0  0  0  0  0  0  0
    8.6600   -2.3667   24.2672 H   0  0  0  0  0  0  0  0  0  0  0  0
    9.3776   -1.9666   22.7107 H   0  0  0  0  0  0  0  0  0  0  0  0
    7.0778   -0.3836   23.9571 H   0  0  0  0  0  0  0  0  0  0  0  0
    8.7768    0.0829   23.9626 H   0  0  0  0  0  0  0  0  0  0  0  0
    7.0607    0.8302   22.0268 H   0  0  0  0  0  0  0  0  0  0  0  0
    9.9882    0.2728   21.6720 H   0  0  0  0  0  0  0  0  0  0  0  0
    9.0010    1.2132   20.5559 H   0  0  0  0  0  0  0  0  0  0  0  0
    8.5510    3.2648   22.2492 N   0  0  0  0  0  0  0  0  0  0  0  0
    8.6836    4.4747   22.8970 C   0  0  0  0  0  0  0  0  0  0  0  0
    7.9677    5.4171   22.6579 O   0  0  0  0  0  0  0  0  0  0  0  0
    9.6717    4.5089   23.8279 N   0  0  0  0  0  0  0  0  0  0  0  0
    9.8842    5.4225   24.1725 H   0  0  0  0  0  0  0  0  0  0  0  0
    7.8547    3.3460   21.5318 H   0  0  0  0  0  0  0  0  0  0  0  0
   11.0951    1.5058   23.4922 H   0  0  0  0  0  0  0  0  0  0  0  0
  1  2  2  0
  2  3  1  0
  3  4  2  0
  4  5  1  0
  5  6  1  0
  6  7  1  0
  7  8  1  0
  8  9  1  0
  9 10  1  0
 10 11  1  0
 11 12  1  0
 12 13  2  0
 13 14  1  0
 14 15  2  0
 15 16  1  0
 16 17  2  0
 17 18  1  0
 15 19  1  0
 14 20  1  0
 13 21  1  0
 11 22  1  6
 10 23  1  0
 10 24  1  0
  9 25  1  0
  9 26  1  0
  8 27  1  0
  8 28  1  0
  7 29  1  0
  7 30  1  0
  6 31  1  0
  5 32  1  0
  5 33  1  0
  4 34  1  0
 34 35  1  0
 35 36  2  0
 35 37  1  0
 37 38  1  0
 34 39  1  0
  3 40  1  0
 37  2  1  0
 11  6  1  0
 17 12  1  0
M  CHG  1   6   1
M  END
>  <cnnaffinity>  (1) 
5.10086

>  <plip>  (1) 
-0.10714285714285714

>  <filename>  (1) 
[H][c]1[n][c]([H])[c]([C@]2([H])[C]([H])([H])[C]([H])([H])[C]([H])([H])[C]([H])([H])[N+]2([H])[C]([H])([H])[c]2[c]([H])[c](=[O])[n]([H])[c](=[O])[n]2[H])[c]([H])[c]1[H]

>  <combo1>  (1) 
-0.6339934205064031

$$$$
