
     RDKit          3D

 33 35  0  0  0  0  0  0  0  0999 V2000
    8.7111    1.0487   21.9011 C   0  0  0  0  0  0  0  0  0  0  0  0
    8.6745   -0.3248   21.2413 C   0  0  0  0  0  0  0  0  0  0  0  0
    7.3228   -0.7276   20.8245 N   0  0  0  0  0  0  0  0  0  0  0  0
    6.5242   -1.6905   21.4655 C   0  0  0  0  0  0  0  0  0  0  0  0
    5.6435   -2.2831   20.8575 O   0  0  0  0  0  0  0  0  0  0  0  0
    6.7322   -2.0373   22.9184 C   0  0  0  0  0  0  0  0  0  0  0  0
    6.2748   -3.1438   23.5748 C   0  0  0  0  0  0  0  0  0  0  0  0
    6.7967   -3.0837   24.9069 C   0  0  0  0  0  0  0  0  0  0  0  0
    6.8076   -3.8920   26.0588 C   0  0  0  0  0  0  0  0  0  0  0  0
    7.5578   -3.4426   27.1437 C   0  0  0  0  0  0  0  0  0  0  0  0
    8.2225   -2.2015   27.0571 C   0  0  0  0  0  0  0  0  0  0  0  0
    8.2245   -1.4033   25.9823 N   0  0  0  0  0  0  0  0  0  0  0  0
    7.5254   -1.8762   24.9746 C   0  0  0  0  0  0  0  0  0  0  0  0
    7.4619   -1.2354   23.7787 O   0  0  0  0  0  0  0  0  0  0  0  0
    8.7888   -1.8218   27.9004 H   0  0  0  0  0  0  0  0  0  0  0  0
    7.6446   -4.0437   28.0444 H   0  0  0  0  0  0  0  0  0  0  0  0
    6.2616   -4.8319   26.1196 H   0  0  0  0  0  0  0  0  0  0  0  0
    5.6416   -3.9355   23.1820 H   0  0  0  0  0  0  0  0  0  0  0  0
    6.7107    0.0294   19.7628 C   0  0  0  0  0  0  0  0  0  0  0  0
    5.4950    0.6864   20.0128 C   0  0  0  0  0  0  0  0  0  0  0  0
    4.8702    1.3757   18.9744 C   0  0  0  0  0  0  0  0  0  0  0  0
    5.4826    1.4001   17.7177 C   0  0  0  0  0  0  0  0  0  0  0  0
    6.6492    0.7899   17.4551 N   0  0  0  0  0  0  0  0  0  0  0  0
    7.2483    0.1344   18.4608 C   0  0  0  0  0  0  0  0  0  0  0  0
    8.1830   -0.3690   18.2116 H   0  0  0  0  0  0  0  0  0  0  0  0
    5.0103    1.9196   16.8871 H   0  0  0  0  0  0  0  0  0  0  0  0
    3.9257    1.8870   19.1335 H   0  0  0  0  0  0  0  0  0  0  0  0
    5.0501    0.6300   21.0079 H   0  0  0  0  0  0  0  0  0  0  0  0
    9.0949   -1.0816   21.9084 H   0  0  0  0  0  0  0  0  0  0  0  0
    9.3168   -0.3125   20.3475 H   0  0  0  0  0  0  0  0  0  0  0  0
    8.1536    1.0508   22.8406 H   0  0  0  0  0  0  0  0  0  0  0  0
    9.7499    1.3328   22.1098 H   0  0  0  0  0  0  0  0  0  0  0  0
    8.2956    1.8129   21.2339 H   0  0  0  0  0  0  0  0  0  0  0  0
  1  2  1  0
  2  3  1  0
  3  4  1  0
  4  5  2  0
  4  6  1  0
  6  7  2  0
  7  8  1  0
  8  9  2  0
  9 10  1  0
 10 11  2  0
 11 12  1  0
 12 13  2  0
 13 14  1  0
 11 15  1  0
 10 16  1  0
  9 17  1  0
  7 18  1  0
  3 19  1  0
 19 20  2  0
 20 21  1  0
 21 22  2  0
 22 23  1  0
 23 24  2  0
 24 25  1  0
 22 26  1  0
 21 27  1  0
 20 28  1  0
  2 29  1  0
  2 30  1  0
  1 31  1  0
  1 32  1  0
  1 33  1  0
 14  6  1  0
 24 19  1  0
 13  8  1  0
M  END
>  <cnnaffinity>  (1) 
4.93413

>  <plip>  (1) 
-0.07142857142857142

>  <filename>  (1) 
[H][c]1[n][c]([H])[c]([N]([C](=[O])[c]2[o][c]3[n][c]([H])[c]([H])[c]([H])[c]3[c]2[H])[C]([H])([H])[C]([H])([H])[H])[c]([H])[c]1[H]

>  <combo1>  (1) 
-0.4395232322973189

$$$$
