
     RDKit          3D

 28 30  0  0  0  0  0  0  0  0999 V2000
    5.3573   -1.8962   20.5378 H   0  0  0  0  0  0  0  0  0  0  0  0
    5.7689   -2.4739   21.2705 N   0  0  0  0  0  0  0  0  0  0  0  0
    6.8600   -1.8868   21.5486 C   0  0  0  0  0  0  0  0  0  0  0  0
    8.0296   -2.4753   22.7401 S   0  0  0  0  0  0  0  0  0  0  0  0
    9.1021   -1.1634   22.3652 C   0  0  0  0  0  0  0  0  0  0  0  0
   10.0461   -1.0135   22.8589 H   0  0  0  0  0  0  0  0  0  0  0  0
    8.5917   -0.3092   21.4686 C   0  0  0  0  0  0  0  0  0  0  0  0
    9.2452    0.9260   20.9939 C   0  0  1  0  0  0  0  0  0  0  0  0
    9.8409    0.7570   20.1083 H   0  0  0  0  0  0  0  0  0  0  0  0
    8.5788    2.2707   21.0636 C   0  0  0  0  0  0  0  0  0  0  0  0
    7.5934    2.3059   21.5165 H   0  0  0  0  0  0  0  0  0  0  0  0
    8.7874    2.9635   20.2760 H   0  0  0  0  0  0  0  0  0  0  0  0
    9.7453    1.9835   21.9419 C   0  0  1  0  0  0  0  0  0  0  0  0
   10.6846    2.4641   21.6409 H   0  0  0  0  0  0  0  0  0  0  0  0
    9.4255    1.8358   23.3245 N   0  0  0  0  0  0  0  0  0  0  0  0
    9.1821    2.7254   23.7428 H   0  0  0  0  0  0  0  0  0  0  0  0
   10.1720    1.4116   23.8595 H   0  0  0  0  0  0  0  0  0  0  0  0
    7.3596   -0.7181   20.9417 N   0  0  0  0  0  0  0  0  0  0  0  0
    6.6634   -0.0086   19.8873 C   0  0  0  0  0  0  0  0  0  0  0  0
    7.1729    0.0725   18.5704 C   0  0  0  0  0  0  0  0  0  0  0  0
    8.1175   -0.4130   18.3369 H   0  0  0  0  0  0  0  0  0  0  0  0
    6.5532    0.6985   17.5565 N   0  0  0  0  0  0  0  0  0  0  0  0
    5.3891    1.3131   17.8180 C   0  0  0  0  0  0  0  0  0  0  0  0
    4.9128    1.8129   16.9752 H   0  0  0  0  0  0  0  0  0  0  0  0
    4.8049    1.3268   19.0893 C   0  0  0  0  0  0  0  0  0  0  0  0
    3.8647    1.8448   19.2395 H   0  0  0  0  0  0  0  0  0  0  0  0
    5.4527    0.6534   20.1383 C   0  0  0  0  0  0  0  0  0  0  0  0
    5.0528    0.6103   21.1509 H   0  0  0  0  0  0  0  0  0  0  0  0
  1  2  1  0
  2  3  2  3
  3  4  1  0
  4  5  1  0
  5  6  1  0
  5  7  2  0
  7  8  1  0
  8  9  1  6
  8 10  1  0
 10 11  1  0
 10 12  1  0
 10 13  1  0
 13 14  1  1
 13 15  1  0
 15 16  1  0
 15 17  1  0
  7 18  1  0
 18 19  1  0
 19 20  2  0
 20 21  1  0
 20 22  1  0
 22 23  2  0
 23 24  1  0
 23 25  1  0
 25 26  1  0
 25 27  2  0
 27 28  1  0
 18  3  1  0
 27 19  1  0
 13  8  1  0
M  END
>  <cnnaffinity>  (1) 
4.67293

>  <plip>  (1) 
-0.03571428571428571

>  <filename>  (1) 
[H][N]=[c]1[s][c]([H])[c]([C@@]2([H])[C]([H])([H])[C@@]2([H])[N]([H])[H])[n]1-[c]1[c]([H])[n][c]([H])[c]([H])[c]1[H]

>  <combo1>  (1) 
-0.23946295950109786

$$$$
