
     RDKit          3D

 36 36  0  0  0  0  0  0  0  0999 V2000
    4.9806    1.7718   16.9815 H   0  0  0  0  0  0  0  0  0  0  0  0
    5.4411    1.2908   17.8439 C   0  0  0  0  0  0  0  0  0  0  0  0
    6.6095    0.6772   17.6290 N   0  0  0  0  0  0  0  0  0  0  0  0
    7.1950    0.0862   18.6829 C   0  0  0  0  0  0  0  0  0  0  0  0
    8.1407   -0.4031   18.4649 H   0  0  0  0  0  0  0  0  0  0  0  0
    6.6802    0.0578   19.9848 C   0  0  0  0  0  0  0  0  0  0  0  0
    7.3478   -0.7509   21.1021 C   0  0  0  0  0  0  0  0  0  0  0  0
    7.3691    0.1132   22.2960 N   0  0  0  0  0  0  0  0  0  0  0  0
    7.3402    1.1032   22.1000 H   0  0  0  0  0  0  0  0  0  0  0  0
    7.7385   -0.2897   23.5434 C   0  0  0  0  0  0  0  0  0  0  0  0
    7.8337   -1.4843   23.8255 O   0  0  0  0  0  0  0  0  0  0  0  0
    7.9912    0.8431   24.5812 C   0  0  0  0  0  0  0  0  0  0  0  0
    7.6860    0.7334   25.8250 N   0  0  0  0  0  0  0  0  0  0  0  0
    7.0072   -0.3635   26.2694 N   0  0  0  0  0  0  0  0  0  0  0  0
    6.8013   -1.1530   25.6589 H   0  0  0  0  0  0  0  0  0  0  0  0
    6.5843   -0.5413   27.5561 C   0  0  0  0  0  0  0  0  0  0  0  0
    5.6026   -1.8270   27.9172 S   0  0  0  0  0  0  0  0  0  0  0  0
    6.9944    0.3561   28.4614 N   0  0  0  0  0  0  0  0  0  0  0  0
    6.9254    0.0193   29.4067 H   0  0  0  0  0  0  0  0  0  0  0  0
    7.7620    0.9507   28.1816 H   0  0  0  0  0  0  0  0  0  0  0  0
    8.6104    2.1818   24.1974 C   0  0  0  0  0  0  0  0  0  0  0  0
    9.3921    2.0998   23.4353 H   0  0  0  0  0  0  0  0  0  0  0  0
    7.8455    2.8739   23.8148 H   0  0  0  0  0  0  0  0  0  0  0  0
    9.0524    2.6328   25.0951 H   0  0  0  0  0  0  0  0  0  0  0  0
    8.8077   -1.1371   20.7913 C   0  0  0  0  0  0  0  0  0  0  0  0
    9.4030   -0.2445   20.5634 H   0  0  0  0  0  0  0  0  0  0  0  0
    8.8672   -1.8099   19.9358 H   0  0  0  0  0  0  0  0  0  0  0  0
    9.2337   -1.6491   21.6612 H   0  0  0  0  0  0  0  0  0  0  0  0
    6.5123   -2.0187   21.3422 C   0  0  0  0  0  0  0  0  0  0  0  0
    5.5229   -1.7470   21.7175 H   0  0  0  0  0  0  0  0  0  0  0  0
    6.9979   -2.6722   22.0681 H   0  0  0  0  0  0  0  0  0  0  0  0
    6.3669   -2.5455   20.3936 H   0  0  0  0  0  0  0  0  0  0  0  0
    5.4456    0.7086   20.1802 C   0  0  0  0  0  0  0  0  0  0  0  0
    4.9840    0.7317   21.1697 H   0  0  0  0  0  0  0  0  0  0  0  0
    4.8207    1.3284   19.0969 C   0  0  0  0  0  0  0  0  0  0  0  0
    3.8764    1.8465   19.2103 H   0  0  0  0  0  0  0  0  0  0  0  0
  1  2  1  0
  2  3  2  0
  3  4  1  0
  4  5  1  0
  4  6  2  0
  6  7  1  0
  7  8  1  0
  8  9  1  0
  8 10  1  0
 10 11  2  0
 10 12  1  0
 12 13  2  3
 13 14  1  0
 14 15  1  0
 14 16  1  0
 16 17  2  0
 16 18  1  0
 18 19  1  0
 18 20  1  0
 12 21  1  0
 21 22  1  0
 21 23  1  0
 21 24  1  0
  7 25  1  0
 25 26  1  0
 25 27  1  0
 25 28  1  0
  7 29  1  0
 29 30  1  0
 29 31  1  0
 29 32  1  0
  6 33  1  0
 33 34  1  0
 33 35  2  0
 35 36  1  0
 35  2  1  0
M  END
>  <cnnaffinity>  (1) 
4.70247

>  <plip>  (1) 
-0.07142857142857142

>  <filename>  (1) 
[H][c]1[n][c]([H])[c]([C]([N]([H])[C](=[O])[C](=[N][N]([H])[C](=[S])[N]([H])[H])[C]([H])([H])[H])([C]([H])([H])[H])[C]([H])([H])[H])[c]([H])[c]1[H]

>  <combo1>  (1) 
-0.40077306869613805

$$$$
