
     RDKit          3D

 31 32  0  0  0  0  0  0  0  0999 V2000
    8.2726   -5.3604   27.7685 H   0  0  0  0  0  0  0  0  0  0  0  0
    7.8384   -5.2916   26.8948 O   0  0  0  0  0  0  0  0  0  0  0  0
    7.8185   -3.9411   26.8528 C   0  0  0  0  0  0  0  0  0  0  0  0
    8.2799   -3.3542   27.7912 O   0  0  0  0  0  0  0  0  0  0  0  0
    7.2148   -3.3444   25.5862 C   0  0  0  0  0  0  0  0  0  0  0  0
    6.9318   -2.0184   25.6257 O   0  0  0  0  0  0  0  0  0  0  0  0
    6.5111   -1.7625   24.7842 H   0  0  0  0  0  0  0  0  0  0  0  0
    6.9544   -4.1028   24.5061 C   0  0  0  0  0  0  0  0  0  0  0  0
    7.0096   -5.1832   24.5431 H   0  0  0  0  0  0  0  0  0  0  0  0
    6.5851   -3.5921   23.1633 C   0  0  0  0  0  0  0  0  0  0  0  0
    5.7355   -4.1682   22.5109 O   0  0  0  0  0  0  0  0  0  0  0  0
    7.3246   -2.4107   22.5849 C   0  0  0  0  0  0  0  0  0  0  0  0
    8.6568   -2.0620   22.9671 C   0  0  0  0  0  0  0  0  0  0  0  0
    9.1792   -2.6191   23.7478 H   0  0  0  0  0  0  0  0  0  0  0  0
    9.2888   -1.0297   22.3511 C   0  0  0  0  0  0  0  0  0  0  0  0
   10.2879   -0.7111   22.5946 H   0  0  0  0  0  0  0  0  0  0  0  0
    8.6804   -0.2564   21.2898 C   0  0  0  0  0  0  0  0  0  0  0  0
    9.2404    0.6634   20.7156 O   0  0  0  0  0  0  0  0  0  0  0  0
    7.3495   -0.6718   20.9337 N   0  0  0  0  0  0  0  0  0  0  0  0
    6.6474    0.0060   19.8715 C   0  0  0  0  0  0  0  0  0  0  0  0
    7.1598    0.0548   18.5619 C   0  0  0  0  0  0  0  0  0  0  0  0
    8.1123   -0.4233   18.3465 H   0  0  0  0  0  0  0  0  0  0  0  0
    6.5379    0.6697   17.5506 N   0  0  0  0  0  0  0  0  0  0  0  0
    5.3827    1.2998   17.8197 C   0  0  0  0  0  0  0  0  0  0  0  0
    4.9159    1.8159   16.9857 H   0  0  0  0  0  0  0  0  0  0  0  0
    4.7886    1.3170   19.0868 C   0  0  0  0  0  0  0  0  0  0  0  0
    3.8600    1.8593   19.2451 H   0  0  0  0  0  0  0  0  0  0  0  0
    5.4307    0.6444   20.1333 C   0  0  0  0  0  0  0  0  0  0  0  0
    5.0255    0.6214   21.1468 H   0  0  0  0  0  0  0  0  0  0  0  0
    6.7229   -1.7156   21.5711 C   0  0  0  0  0  0  0  0  0  0  0  0
    5.7208   -1.9511   21.2151 H   0  0  0  0  0  0  0  0  0  0  0  0
  1  2  1  0
  2  3  1  0
  3  4  2  0
  3  5  1  0
  5  6  1  0
  6  7  1  0
  5  8  2  3
  8  9  1  0
  8 10  1  0
 10 11  2  0
 10 12  1  0
 12 13  1  0
 13 14  1  0
 13 15  2  0
 15 16  1  0
 15 17  1  0
 17 18  2  0
 17 19  1  0
 19 20  1  0
 20 21  2  0
 21 22  1  0
 21 23  1  0
 23 24  2  0
 24 25  1  0
 24 26  1  0
 26 27  1  0
 26 28  2  0
 28 29  1  0
 19 30  1  0
 30 31  1  0
 30 12  2  0
 28 20  1  0
M  END
>  <cnnaffinity>  (1) 
4.89502

>  <plip>  (1) 
-0.14285714285714285

>  <filename>  (1) 
[H][O][C](=[O])[C]([O][H])=[C]([H])[C](=[O])[c]1[c]([H])[c]([H])[c](=[O])[n](-[c]2[c]([H])[n][c]([H])[c]([H])[c]2[H])[c]1[H]

>  <combo1>  (1) 
-0.814329749465281

$$$$
