
     RDKit          3D

 41 44  0  0  0  0  0  0  0  0999 V2000
    9.1547    1.4895   21.5603 C   0  0  0  0  0  0  0  0  0  0  0  0
    8.4094    0.2912   21.2162 N   0  0  0  0  0  0  0  0  0  0  0  0
    9.0305   -0.9194   21.2564 C   0  0  0  0  0  0  0  0  0  0  0  0
   10.2247   -1.1244   21.3185 O   0  0  0  0  0  0  0  0  0  0  0  0
    8.0684   -1.9095   21.2184 N   0  0  0  0  0  0  0  0  0  0  0  0
    8.4070   -3.3135   21.3138 C   0  0  0  0  0  0  0  0  0  0  0  0
    8.6266   -3.8057   22.7352 C   0  0  0  0  0  0  0  0  0  0  0  0
    9.8316   -3.4881   23.4373 C   0  0  0  0  0  0  0  0  0  0  0  0
   10.0807   -4.0211   24.6821 C   0  0  0  0  0  0  0  0  0  0  0  0
    9.1336   -4.8828   25.3044 C   0  0  0  0  0  0  0  0  0  0  0  0
    9.3530   -5.5177   26.5601 C   0  0  0  0  0  0  0  0  0  0  0  0
    8.3353   -6.2617   27.1105 C   0  0  0  0  0  0  0  0  0  0  0  0
    7.1064   -6.3859   26.3991 C   0  0  0  0  0  0  0  0  0  0  0  0
    6.8817   -5.8741   25.2107 N   0  0  0  0  0  0  0  0  0  0  0  0
    7.8885   -5.1353   24.6473 C   0  0  0  0  0  0  0  0  0  0  0  0
    7.6808   -4.6042   23.3455 C   0  0  0  0  0  0  0  0  0  0  0  0
    6.7491   -4.8927   22.8727 H   0  0  0  0  0  0  0  0  0  0  0  0
    6.2986   -6.9649   26.8498 H   0  0  0  0  0  0  0  0  0  0  0  0
    8.4329   -6.7593   28.0675 H   0  0  0  0  0  0  0  0  0  0  0  0
   10.3218   -5.4151   27.0476 H   0  0  0  0  0  0  0  0  0  0  0  0
   11.0032   -3.8035   25.2115 H   0  0  0  0  0  0  0  0  0  0  0  0
   10.5569   -2.8439   22.9485 H   0  0  0  0  0  0  0  0  0  0  0  0
    7.5970   -3.8714   20.8351 H   0  0  0  0  0  0  0  0  0  0  0  0
    9.3147   -3.4439   20.7206 H   0  0  0  0  0  0  0  0  0  0  0  0
    6.8026   -1.3964   21.3244 C   0  0  0  0  0  0  0  0  0  0  0  0
    5.7987   -2.0465   21.4755 O   0  0  0  0  0  0  0  0  0  0  0  0
    6.9637    0.1359   21.1759 C   0  0  0  0  0  0  0  0  0  0  0  0
    6.3436    0.6918   19.9030 C   0  0  0  0  0  0  0  0  0  0  0  0
    5.0502    1.2241   19.9273 C   0  0  0  0  0  0  0  0  0  0  0  0
    4.4844    1.6717   18.7307 C   0  0  0  0  0  0  0  0  0  0  0  0
    5.2368    1.5729   17.5565 C   0  0  0  0  0  0  0  0  0  0  0  0
    6.4636    1.0323   17.5038 N   0  0  0  0  0  0  0  0  0  0  0  0
    6.9963    0.6196   18.6580 C   0  0  0  0  0  0  0  0  0  0  0  0
    7.9906    0.1888   18.5868 H   0  0  0  0  0  0  0  0  0  0  0  0
    4.8466    1.9386   16.6105 H   0  0  0  0  0  0  0  0  0  0  0  0
    3.4953    2.1162   18.7030 H   0  0  0  0  0  0  0  0  0  0  0  0
    4.4939    1.2859   20.8656 H   0  0  0  0  0  0  0  0  0  0  0  0
    6.4720    0.5909   22.0515 H   0  0  0  0  0  0  0  0  0  0  0  0
    9.8732    1.7278   20.7709 H   0  0  0  0  0  0  0  0  0  0  0  0
    8.4858    2.3402   21.7008 H   0  0  0  0  0  0  0  0  0  0  0  0
    9.7160    1.3188   22.4851 H   0  0  0  0  0  0  0  0  0  0  0  0
  1  2  1  0
  2  3  1  0
  3  4  2  0
  3  5  1  0
  5  6  1  0
  6  7  1  0
  7  8  2  0
  8  9  1  0
  9 10  2  0
 10 11  1  0
 11 12  2  0
 12 13  1  0
 13 14  2  0
 14 15  1  0
 15 16  2  0
 16 17  1  0
 13 18  1  0
 12 19  1  0
 11 20  1  0
  9 21  1  0
  8 22  1  0
  6 23  1  0
  6 24  1  0
  5 25  1  0
 25 26  2  0
 25 27  1  0
 27 28  1  0
 28 29  2  0
 29 30  1  0
 30 31  2  0
 31 32  1  0
 32 33  2  0
 33 34  1  0
 31 35  1  0
 30 36  1  0
 29 37  1  0
 27 38  1  0
  1 39  1  0
  1 40  1  0
  1 41  1  0
 27  2  1  0
 33 28  1  0
 16  7  1  0
 15 10  1  0
M  END
>  <cnnaffinity>  (1) 
5.60221

>  <plip>  (1) 
-0.10714285714285714

>  <filename>  (1) 
[H][c]1[n][c]([H])[c]([C]2([H])[C](=[O])[N]([C]([H])([H])[c]3[c]([H])[c]([H])[c]4[c]([H])[c]([H])[c]([H])[n][c]4[c]3[H])[C](=[O])[N]2[C]([H])([H])[H])[c]([H])[c]1[H]

>  <combo1>  (1) 
-0.601989176206222

$$$$
