
     RDKit          3D

 56 59  0  0  0  0  0  0  0  0999 V2000
   11.7073    6.1091   24.1750 C   0  0  0  0  0  0  0  0  0  0  0  0
   10.8341    5.4210   25.0093 C   0  0  0  0  0  0  0  0  0  0  0  0
   10.2639    4.2786   24.6734 N   0  0  0  0  0  0  0  0  0  0  0  0
   10.5321    3.8019   23.4433 C   0  0  0  0  0  0  0  0  0  0  0  0
    9.9487    2.6224   23.0922 N   0  0  0  0  0  0  0  0  0  0  0  0
    9.8649    2.2115   21.6842 C   0  0  0  0  0  0  0  0  0  0  0  0
   10.1073    0.7090   21.5800 C   0  0  0  0  0  0  0  0  0  0  0  0
    9.1729   -0.0773   22.4986 C   0  0  0  0  0  0  0  0  0  0  0  0
    7.7702    0.0806   22.0179 N   0  0  0  0  0  4  0  0  0  0  0  0
    7.2828   -0.8433   20.9330 C   0  0  0  0  0  0  0  0  0  0  0  0
    6.3899   -1.9699   21.4821 C   0  0  0  0  0  0  0  0  0  0  0  0
    7.1029   -2.9559   22.3417 N   0  0  0  0  0  4  0  0  0  0  0  0
    6.1853   -3.9426   23.0026 C   0  0  0  0  0  0  0  0  0  0  0  0
    7.1197   -5.0376   23.5172 C   0  0  0  0  0  0  0  0  0  0  0  0
    8.3593   -4.9912   22.5932 C   0  0  0  0  0  0  0  0  0  0  0  0
    8.1357   -3.8042   21.6474 C   0  0  0  0  0  0  0  0  0  0  0  0
    9.0471   -3.2281   21.4572 H   0  0  0  0  0  0  0  0  0  0  0  0
    7.7329   -4.1271   20.6794 H   0  0  0  0  0  0  0  0  0  0  0  0
    9.2699   -4.8382   23.1798 H   0  0  0  0  0  0  0  0  0  0  0  0
    8.4951   -5.9152   22.0249 H   0  0  0  0  0  0  0  0  0  0  0  0
    7.4030   -4.8334   24.5554 H   0  0  0  0  0  0  0  0  0  0  0  0
    6.6206   -6.0105   23.5122 H   0  0  0  0  0  0  0  0  0  0  0  0
    5.5880   -3.4569   23.7821 H   0  0  0  0  0  0  0  0  0  0  0  0
    5.4921   -4.3321   22.2455 H   0  0  0  0  0  0  0  0  0  0  0  0
    7.5896   -2.4391   23.1139 H   0  0  0  0  0  0  0  0  0  0  0  0
    5.9257   -2.4875   20.6346 H   0  0  0  0  0  0  0  0  0  0  0  0
    5.5824   -1.4902   22.0454 H   0  0  0  0  0  0  0  0  0  0  0  0
    6.5857    0.0105   19.8974 C   0  0  0  0  0  0  0  0  0  0  0  0
    5.3868    0.7051   20.1183 C   0  0  0  0  0  0  0  0  0  0  0  0
    4.8290    1.4287   19.0606 C   0  0  0  0  0  0  0  0  0  0  0  0
    5.4823    1.4354   17.8238 C   0  0  0  0  0  0  0  0  0  0  0  0
    6.6398    0.7979   17.5999 N   0  0  0  0  0  0  0  0  0  0  0  0
    7.1705    0.1252   18.6259 C   0  0  0  0  0  0  0  0  0  0  0  0
    8.1253   -0.3641   18.4309 H   0  0  0  0  0  0  0  0  0  0  0  0
    5.0594    1.9758   16.9766 H   0  0  0  0  0  0  0  0  0  0  0  0
    3.9195    2.0067   19.1857 H   0  0  0  0  0  0  0  0  0  0  0  0
    4.8985    0.7090   21.0971 H   0  0  0  0  0  0  0  0  0  0  0  0
    8.1595   -1.3097   20.4719 H   0  0  0  0  0  0  0  0  0  0  0  0
    7.1095    0.0469   22.8262 H   0  0  0  0  0  0  0  0  0  0  0  0
    7.6800    1.0398   21.5978 H   0  0  0  0  0  0  0  0  0  0  0  0
    9.2673    0.4354   23.9295 C   0  0  0  0  0  0  0  0  0  0  0  0
    9.0385    1.9403   24.0230 C   0  0  0  0  0  0  0  0  0  0  0  0
    7.9899    2.2054   23.8015 H   0  0  0  0  0  0  0  0  0  0  0  0
    9.2373    2.2956   25.0368 H   0  0  0  0  0  0  0  0  0  0  0  0
    8.5514   -0.1020   24.5581 H   0  0  0  0  0  0  0  0  0  0  0  0
   10.2739    0.2294   24.3060 H   0  0  0  0  0  0  0  0  0  0  0  0
    9.4397   -1.1420   22.4632 H   0  0  0  0  0  0  0  0  0  0  0  0
   11.1403    0.5084   21.8713 H   0  0  0  0  0  0  0  0  0  0  0  0
    9.9692    0.3711   20.5497 H   0  0  0  0  0  0  0  0  0  0  0  0
   10.6042    2.7581   21.0975 H   0  0  0  0  0  0  0  0  0  0  0  0
    8.8769    2.4779   21.2700 H   0  0  0  0  0  0  0  0  0  0  0  0
   11.3565    4.3844   22.5588 N   0  0  0  0  0  0  0  0  0  0  0  0
   11.9231    5.5182   22.9333 C   0  0  0  0  0  0  0  0  0  0  0  0
   12.5802    5.9789   22.1929 H   0  0  0  0  0  0  0  0  0  0  0  0
   10.5818    5.7988   26.0053 H   0  0  0  0  0  0  0  0  0  0  0  0
   12.1979    7.0227   24.4685 H   0  0  0  0  0  0  0  0  0  0  0  0
  1  2  2  0
  2  3  1  0
  3  4  2  0
  4  5  1  0
  5  6  1  0
  6  7  1  0
  7  8  1  0
  8  9  1  0
  9 10  1  0
 10 11  1  0
 11 12  1  0
 12 13  1  0
 13 14  1  0
 14 15  1  0
 15 16  1  0
 16 17  1  0
 16 18  1  0
 15 19  1  0
 15 20  1  0
 14 21  1  0
 14 22  1  0
 13 23  1  0
 13 24  1  0
 12 25  1  0
 11 26  1  0
 11 27  1  0
 10 28  1  0
 28 29  2  0
 29 30  1  0
 30 31  2  0
 31 32  1  0
 32 33  2  0
 33 34  1  0
 31 35  1  0
 30 36  1  0
 29 37  1  0
 10 38  1  0
  9 39  1  0
  9 40  1  0
  8 41  1  0
 41 42  1  0
 42 43  1  0
 42 44  1  0
 41 45  1  0
 41 46  1  0
  8 47  1  0
  7 48  1  0
  7 49  1  0
  6 50  1  0
  6 51  1  0
  4 52  1  0
 52 53  2  0
 53 54  1  0
  2 55  1  0
  1 56  1  0
 53  1  1  0
 42  5  1  0
 16 12  1  0
 33 28  1  0
M  CHG  2   9   1  12   1
M  END
>  <cnnaffinity>  (1) 
5.75258

>  <plip>  (1) 
-0.14285714285714285

>  <filename>  (1) 
[H][c]1[n][c]([N]2[C]([H])([H])[C]([H])([H])[C]([H])([N+]([H])([H])[C]([H])([c]3[c]([H])[n][c]([H])[c]([H])[c]3[H])[C]([H])([H])[N+]3([H])[C]([H])([H])[C]([H])([H])[C]([H])([H])[C]3([H])[H])[C]([H])([H])[C]2([H])[H])[n][c]([H])[c]1[H]

>  <combo1>  (1) 
-0.7727245007147521

$$$$
