
     RDKit          3D

 41 44  0  0  0  0  0  0  0  0999 V2000
   10.0519    3.2190   22.3603 C   0  0  0  0  0  0  0  0  0  0  0  0
    9.2315    1.9817   22.4008 C   0  0  0  0  0  0  0  0  0  0  0  0
    8.8240    1.3268   21.3300 N   0  0  0  0  0  0  0  0  0  0  0  0
    8.1377    0.2841   21.8551 N   0  0  0  0  0  0  0  0  0  0  0  0
    7.4399   -0.6601   20.9793 C   0  0  0  0  0  0  0  0  0  0  0  0
    6.6538    0.0117   19.8738 C   0  0  0  0  0  0  0  0  0  0  0  0
    5.4379    0.6583   20.1254 C   0  0  0  0  0  0  0  0  0  0  0  0
    4.7935    1.3120   19.0740 C   0  0  0  0  0  0  0  0  0  0  0  0
    5.3955    1.2983   17.8132 C   0  0  0  0  0  0  0  0  0  0  0  0
    6.5517    0.6741   17.5473 N   0  0  0  0  0  0  0  0  0  0  0  0
    7.1589    0.0584   18.5680 C   0  0  0  0  0  0  0  0  0  0  0  0
    8.1054   -0.4355   18.3315 H   0  0  0  0  0  0  0  0  0  0  0  0
    4.9305    1.8238   16.9822 H   0  0  0  0  0  0  0  0  0  0  0  0
    3.8570    1.8455   19.2176 H   0  0  0  0  0  0  0  0  0  0  0  0
    5.0050    0.6685   21.1288 H   0  0  0  0  0  0  0  0  0  0  0  0
    8.1883   -1.3380   20.5489 H   0  0  0  0  0  0  0  0  0  0  0  0
    6.7588   -1.2524   21.5963 H   0  0  0  0  0  0  0  0  0  0  0  0
    8.2262    0.3299   23.2104 C   0  0  0  0  0  0  0  0  0  0  0  0
    7.7806   -0.7550   24.1143 C   0  0  0  0  0  0  0  0  0  0  0  0
    7.2329   -0.3956   25.3606 C   0  0  0  0  0  0  0  0  0  0  0  0
    6.8008   -1.3674   26.2537 C   0  0  0  0  0  0  0  0  0  0  0  0
    6.9289   -2.7274   25.9458 C   0  0  0  0  0  0  0  0  0  0  0  0
    6.3954   -3.8061   26.8617 C   0  0  0  0  0  0  0  0  0  0  0  0
    7.2372   -5.0960   26.7973 C   0  0  0  0  0  0  0  0  0  0  0  0
    7.6099   -5.4707   25.3758 C   0  0  0  0  0  0  0  0  0  0  0  0
    7.7367   -4.5350   24.4300 C   0  0  0  0  0  0  0  0  0  0  0  0
    7.5291   -3.1019   24.7220 C   0  0  0  0  0  0  0  0  0  0  0  0
    7.9434   -2.1101   23.8170 C   0  0  0  0  0  0  0  0  0  0  0  0
    8.4411   -2.4239   22.8993 H   0  0  0  0  0  0  0  0  0  0  0  0
    8.0452   -4.7972   23.4215 H   0  0  0  0  0  0  0  0  0  0  0  0
    7.8646   -6.5054   25.1555 H   0  0  0  0  0  0  0  0  0  0  0  0
    6.7080   -5.9242   27.2826 H   0  0  0  0  0  0  0  0  0  0  0  0
    8.1767   -4.9473   27.3486 H   0  0  0  0  0  0  0  0  0  0  0  0
    6.3384   -3.4299   27.8875 H   0  0  0  0  0  0  0  0  0  0  0  0
    5.3633   -4.0352   26.5565 H   0  0  0  0  0  0  0  0  0  0  0  0
    6.3508   -1.0589   27.1962 H   0  0  0  0  0  0  0  0  0  0  0  0
    7.1603    0.6595   25.6057 H   0  0  0  0  0  0  0  0  0  0  0  0
    8.8717    1.4194   23.5824 N   0  0  0  0  0  0  0  0  0  0  0  0
    9.4202    4.0938   22.1826 H   0  0  0  0  0  0  0  0  0  0  0  0
   10.5696    3.3383   23.3121 H   0  0  0  0  0  0  0  0  0  0  0  0
   10.7957    3.1713   21.5643 H   0  0  0  0  0  0  0  0  0  0  0  0
  1  2  1  0
  2  3  2  0
  3  4  1  0
  4  5  1  0
  5  6  1  0
  6  7  2  0
  7  8  1  0
  8  9  2  0
  9 10  1  0
 10 11  2  0
 11 12  1  0
  9 13  1  0
  8 14  1  0
  7 15  1  0
  5 16  1  0
  5 17  1  0
  4 18  1  0
 18 19  1  0
 19 20  2  0
 20 21  1  0
 21 22  2  0
 22 23  1  0
 23 24  1  0
 24 25  1  0
 25 26  2  0
 26 27  1  0
 27 28  2  0
 28 29  1  0
 26 30  1  0
 25 31  1  0
 24 32  1  0
 24 33  1  0
 23 34  1  0
 23 35  1  0
 21 36  1  0
 20 37  1  0
 18 38  2  0
  1 39  1  0
  1 40  1  0
  1 41  1  0
 38  2  1  0
 11  6  1  0
 28 19  1  0
 27 22  1  0
M  END
>  <cnnaffinity>  (1) 
5.52628

>  <plip>  (1) 
-0.07142857142857142

>  <filename>  (1) 
[H][C]1=[C]([H])[C]([H])([H])[C]([H])([H])[c]2[c]([H])[c]([H])[c](-[c]3[n][c]([C]([H])([H])[H])[n][n]3[C]([H])([H])[c]3[c]([H])[n][c]([H])[c]([H])[c]3[H])[c]([H])[c]21

>  <combo1>  (1) 
-0.435140088954317

$$$$
