
     RDKit          3D

 31 34  0  0  0  0  0  0  0  0999 V2000
    4.8434    1.3596   19.1193 C   0  0  0  0  0  0  0  0  0  0  0  0
    5.4589    1.2944   17.8658 C   0  0  0  0  0  0  0  0  0  0  0  0
    6.6181    0.6485   17.6492 N   0  0  0  0  0  0  0  0  0  0  0  0
    7.1999    0.0642   18.6948 C   0  0  0  0  0  0  0  0  0  0  0  0
    6.6972    0.1337   20.0083 C   0  0  0  0  0  0  0  0  0  0  0  0
    7.4465   -0.5158   21.0204 N   0  0  0  0  0  0  0  0  0  0  0  0
    8.0461   -1.6842   20.7090 N   0  0  0  0  0  0  0  0  0  0  0  0
    8.4838   -2.1724   21.8557 C   0  0  0  0  0  0  0  0  0  0  0  0
    8.1994   -1.3207   22.9322 C   0  0  0  0  0  0  0  0  0  0  0  0
    7.5429   -0.2435   22.3698 C   0  0  0  0  0  0  0  0  0  0  0  0
    6.9580    0.8897   23.0512 C   0  0  0  0  0  0  0  0  0  0  0  0
    6.1542    0.8356   24.1678 C   0  0  0  0  0  0  0  0  0  0  0  0
    5.7955    2.0555   24.6194 N   0  0  0  0  0  0  0  0  0  0  0  0
    6.3946    2.9096   23.8028 C   0  0  0  0  0  0  0  0  0  0  0  0
    6.3924    4.3376   23.8411 C   0  0  0  0  0  0  0  0  0  0  0  0
    7.0842    5.0339   22.8892 C   0  0  0  0  0  0  0  0  0  0  0  0
    7.8656    4.3339   21.9116 C   0  0  0  0  0  0  0  0  0  0  0  0
    7.8733    2.9643   21.8755 C   0  0  0  0  0  0  0  0  0  0  0  0
    7.1286    2.2559   22.8090 N   0  0  0  0  0  0  0  0  0  0  0  0
    8.4344    2.3725   21.1653 H   0  0  0  0  0  0  0  0  0  0  0  0
    8.4230    4.9200   21.1959 H   0  0  0  0  0  0  0  0  0  0  0  0
    7.0698    6.1223   22.8628 H   0  0  0  0  0  0  0  0  0  0  0  0
    5.8372    4.8061   24.6410 H   0  0  0  0  0  0  0  0  0  0  0  0
    5.8081   -0.0875   24.6240 H   0  0  0  0  0  0  0  0  0  0  0  0
    8.4354   -1.4576   23.9766 H   0  0  0  0  0  0  0  0  0  0  0  0
    8.9635   -3.1421   21.8690 H   0  0  0  0  0  0  0  0  0  0  0  0
    5.4659    0.7690   20.2278 C   0  0  0  0  0  0  0  0  0  0  0  0
    4.9957    0.7722   21.2137 H   0  0  0  0  0  0  0  0  0  0  0  0
    8.1029   -0.5140   18.5113 H   0  0  0  0  0  0  0  0  0  0  0  0
    5.0036    1.7557   16.9918 H   0  0  0  0  0  0  0  0  0  0  0  0
    3.8867    1.8648   19.2111 H   0  0  0  0  0  0  0  0  0  0  0  0
  1  2  2  0
  2  3  1  0
  3  4  2  0
  4  5  1  0
  5  6  1  0
  6  7  1  0
  7  8  2  0
  8  9  1  0
  9 10  2  0
 10 11  1  0
 11 12  2  0
 12 13  1  0
 13 14  2  0
 14 15  1  0
 15 16  2  0
 16 17  1  0
 17 18  2  0
 18 19  1  0
 18 20  1  0
 17 21  1  0
 16 22  1  0
 15 23  1  0
 12 24  1  0
  9 25  1  0
  8 26  1  0
  5 27  2  0
 27 28  1  0
  4 29  1  0
  2 30  1  0
  1 31  1  0
 27  1  1  0
 10  6  1  0
 19 11  1  0
 19 14  1  0
M  END
>  <cnnaffinity>  (1) 
5.09629

>  <plip>  (1) 
-0.0

>  <filename>  (1) 
[H][c]1[n][c]([H])[c](-[n]2[n][c]([H])[c]([H])[c]2-[c]2[c]([H])[n][c]3[c]([H])[c]([H])[c]([H])[c]([H])[n]23)[c]([H])[c]1[H]

>  <combo1>  (1) 
-6.5014977087862195e-06

$$$$
