
     RDKit          3D

 37 39  0  0  0  0  0  0  0  0999 V2000
    6.7529    0.5721   23.8311 C   0  0  0  0  0  0  0  0  0  0  0  0
    7.4000    1.1770   22.5914 C   0  0  0  0  0  0  0  0  0  0  0  0
    7.9005    0.1507   21.6686 N   0  0  0  0  0  0  0  0  0  0  0  0
    6.9028   -0.6882   20.9846 C   0  0  0  0  0  0  0  0  0  0  0  0
    6.2511    0.0190   19.8221 C   0  0  0  0  0  0  0  0  0  0  0  0
    5.0590    0.7401   19.9593 C   0  0  0  0  0  0  0  0  0  0  0  0
    4.5737    1.4530   18.8603 C   0  0  0  0  0  0  0  0  0  0  0  0
    5.2997    1.4119   17.6661 C   0  0  0  0  0  0  0  0  0  0  0  0
    6.4281    0.7054   17.5025 N   0  0  0  0  0  0  0  0  0  0  0  0
    6.8804    0.0268   18.5643 C   0  0  0  0  0  0  0  0  0  0  0  0
    7.7953   -0.5453   18.4304 H   0  0  0  0  0  0  0  0  0  0  0  0
    4.9615    1.9718   16.7983 H   0  0  0  0  0  0  0  0  0  0  0  0
    3.6795    2.0642   18.9237 H   0  0  0  0  0  0  0  0  0  0  0  0
    4.5219    0.7626   20.9120 H   0  0  0  0  0  0  0  0  0  0  0  0
    7.3948   -1.6085   20.6429 H   0  0  0  0  0  0  0  0  0  0  0  0
    6.1410   -0.9907   21.7133 H   0  0  0  0  0  0  0  0  0  0  0  0
    9.1797    0.1501   21.1548 C   0  0  0  0  0  0  0  0  0  0  0  0
    9.4244   -0.2432   20.0216 O   0  0  0  0  0  0  0  0  0  0  0  0
   10.3105    0.5569   22.0506 C   0  0  0  0  0  0  0  0  0  0  0  0
   11.5703    0.8949   21.6340 C   0  0  0  0  0  0  0  0  0  0  0  0
   12.4431    0.7672   22.7571 C   0  0  0  0  0  0  0  0  0  0  0  0
   13.8417    0.7636   22.9727 C   0  0  0  0  0  0  0  0  0  0  0  0
   14.3756    0.4902   24.1571 N   0  0  0  0  0  0  0  0  0  0  0  0
   13.5547    0.2459   25.2024 C   0  0  0  0  0  0  0  0  0  0  0  0
   12.1782    0.1750   25.1189 C   0  0  0  0  0  0  0  0  0  0  0  0
   11.6295    0.4321   23.8619 C   0  0  0  0  0  0  0  0  0  0  0  0
   10.3417    0.3482   23.4324 N   0  0  0  0  0  0  0  0  0  0  0  0
    9.5641    0.1277   24.0353 H   0  0  0  0  0  0  0  0  0  0  0  0
   11.5657   -0.1111   25.9633 H   0  0  0  0  0  0  0  0  0  0  0  0
   14.0739    0.0623   26.1404 H   0  0  0  0  0  0  0  0  0  0  0  0
   14.5551    0.9567   22.1767 H   0  0  0  0  0  0  0  0  0  0  0  0
   11.8215    1.2353   20.6377 H   0  0  0  0  0  0  0  0  0  0  0  0
    8.2278    1.8423   22.8674 H   0  0  0  0  0  0  0  0  0  0  0  0
    6.6579    1.7980   22.0634 H   0  0  0  0  0  0  0  0  0  0  0  0
    6.5041    1.3641   24.5435 H   0  0  0  0  0  0  0  0  0  0  0  0
    5.8182    0.0661   23.5746 H   0  0  0  0  0  0  0  0  0  0  0  0
    7.4057   -0.1563   24.3261 H   0  0  0  0  0  0  0  0  0  0  0  0
  1  2  1  0
  2  3  1  0
  3  4  1  0
  4  5  1  0
  5  6  2  0
  6  7  1  0
  7  8  2  0
  8  9  1  0
  9 10  2  0
 10 11  1  0
  8 12  1  0
  7 13  1  0
  6 14  1  0
  4 15  1  0
  4 16  1  0
  3 17  1  0
 17 18  2  0
 17 19  1  0
 19 20  2  0
 20 21  1  0
 21 22  2  0
 22 23  1  0
 23 24  2  0
 24 25  1  0
 25 26  2  0
 26 27  1  0
 27 28  1  0
 25 29  1  0
 24 30  1  0
 22 31  1  0
 20 32  1  0
  2 33  1  0
  2 34  1  0
  1 35  1  0
  1 36  1  0
  1 37  1  0
 10  5  1  0
 27 19  1  0
 26 21  1  0
M  END
>  <cnnaffinity>  (1) 
5.47929

>  <plip>  (1) 
-0.13793103448275862

>  <filename>  (1) 
[H][c]1[n][c]([H])[c]([C]([H])([H])[N]([C](=[O])[c]2[c]([H])[c]3[c]([H])[n][c]([H])[c]([H])[c]3[n]2[H])[C]([H])([H])[C]([H])([H])[H])[c]([H])[c]1[H]

>  <combo1>  (1) 
-0.8986568710215602

$$$$
