
     RDKit          3D

 19 20  0  0  0  0  0  0  0  0999 V2000
    9.5094   -3.1536   25.3895 H   0  0  0  0  0  0  0  0  0  0  0  0
   10.2303   -3.3854   24.6869 N   0  0  0  0  0  0  0  0  0  0  0  0
    9.9425   -2.9194   23.6018 N   0  0  0  0  0  4  0  0  0  0  0  0
    9.8783   -2.5644   22.4411 N   0  0  0  0  0  0  0  0  0  0  0  0
    8.7468   -1.8008   22.0730 C   0  0  0  0  0  0  0  0  0  0  0  0
    7.7954   -1.4803   22.9335 N   0  0  0  0  0  0  0  0  0  0  0  0
    6.9177   -0.7594   22.1730 O   0  0  0  0  0  0  0  0  0  0  0  0
    7.4099   -0.7082   20.9313 C   0  0  0  0  0  0  0  0  0  0  0  0
    6.6548    0.0110   19.9055 C   0  0  0  0  0  0  0  0  0  0  0  0
    7.1826    0.0546   18.6095 C   0  0  0  0  0  0  0  0  0  0  0  0
    8.1292   -0.4352   18.3858 H   0  0  0  0  0  0  0  0  0  0  0  0
    6.5734    0.6709   17.5941 N   0  0  0  0  0  0  0  0  0  0  0  0
    5.4082    1.2868   17.8495 C   0  0  0  0  0  0  0  0  0  0  0  0
    4.9205    1.7728   17.0052 H   0  0  0  0  0  0  0  0  0  0  0  0
    4.8074    1.3081   19.1145 C   0  0  0  0  0  0  0  0  0  0  0  0
    3.8751    1.8442   19.2613 H   0  0  0  0  0  0  0  0  0  0  0  0
    5.4356    0.6529   20.1696 C   0  0  0  0  0  0  0  0  0  0  0  0
    4.9959    0.6363   21.1710 H   0  0  0  0  0  0  0  0  0  0  0  0
    8.5312   -1.3296   20.7947 N   0  0  0  0  0  0  0  0  0  0  0  0
  1  2  1  0
  2  3  2  0
  3  4  2  0
  4  5  1  0
  5  6  2  0
  6  7  1  0
  7  8  1  0
  8  9  1  0
  9 10  2  0
 10 11  1  0
 10 12  1  0
 12 13  2  0
 13 14  1  0
 13 15  1  0
 15 16  1  0
 15 17  2  0
 17 18  1  0
  8 19  2  0
 19  5  1  0
 17  9  1  0
M  CHG  1   3   1
M  END
>  <cnnaffinity>  (1) 
4.42117

>  <plip>  (1) 
-0.034482758620689655

>  <filename>  (1) 
[H][N]=[N+]=[N][c]1[n][o][c](-[c]2[c]([H])[n][c]([H])[c]([H])[c]2[H])[n]1

>  <combo1>  (1) 
-0.26865396111722206

$$$$
