
     RDKit          3D

 34 36  0  0  0  0  0  0  0  0999 V2000
    4.8014    1.3238   19.0467 C   0  0  0  0  0  0  0  0  0  0  0  0
    5.4101    1.2602   17.7882 C   0  0  0  0  0  0  0  0  0  0  0  0
    6.5405    0.5807   17.5464 N   0  0  0  0  0  0  0  0  0  0  0  0
    7.1172   -0.0399   18.5818 C   0  0  0  0  0  0  0  0  0  0  0  0
    6.6265    0.0061   19.8925 C   0  0  0  0  0  0  0  0  0  0  0  0
    7.4034   -0.6284   21.0037 C   0  0  0  0  0  0  0  0  0  0  0  0
    6.9988   -2.0487   21.0559 N   0  0  0  0  0  4  0  0  0  0  0  0
    7.4230   -2.8121   22.2509 C   0  0  0  0  0  0  0  0  0  0  0  0
    6.8356   -4.2361   22.1917 C   0  0  0  0  0  0  0  0  0  0  0  0
    7.2110   -5.1261   23.4073 C   0  0  0  0  0  0  0  0  0  0  0  0
    8.6494   -4.8934   23.7647 C   0  0  0  0  0  0  0  0  0  0  0  0
    9.4008   -3.8278   23.3616 C   0  0  0  0  0  0  0  0  0  0  0  0
    8.9644   -2.8644   22.3155 C   0  0  0  0  0  0  0  0  0  0  0  0
    9.4037   -1.8844   22.5259 H   0  0  0  0  0  0  0  0  0  0  0  0
    9.3237   -3.1762   21.3213 H   0  0  0  0  0  0  0  0  0  0  0  0
   10.5896   -3.7762   24.0370 N   0  0  0  0  0  0  0  0  0  0  0  0
   10.5670   -4.8025   24.8464 C   0  0  0  0  0  0  0  0  0  0  0  0
    9.4106   -5.5194   24.7369 N   0  0  0  0  0  0  0  0  0  0  0  0
    9.2514   -6.4202   25.1604 H   0  0  0  0  0  0  0  0  0  0  0  0
   11.3573   -5.0791   25.5369 H   0  0  0  0  0  0  0  0  0  0  0  0
    7.0315   -6.1860   23.1788 H   0  0  0  0  0  0  0  0  0  0  0  0
    6.5794   -4.8800   24.2805 H   0  0  0  0  0  0  0  0  0  0  0  0
    5.7474   -4.1871   22.1016 H   0  0  0  0  0  0  0  0  0  0  0  0
    7.2162   -4.7105   21.2768 H   0  0  0  0  0  0  0  0  0  0  0  0
    7.0601   -2.2929   23.1560 H   0  0  0  0  0  0  0  0  0  0  0  0
    7.3877   -2.5154   20.1939 H   0  0  0  0  0  0  0  0  0  0  0  0
    5.9590   -2.0513   20.9380 H   0  0  0  0  0  0  0  0  0  0  0  0
    7.1901   -0.1237   21.9566 H   0  0  0  0  0  0  0  0  0  0  0  0
    8.4791   -0.5256   20.8179 H   0  0  0  0  0  0  0  0  0  0  0  0
    5.4177    0.6753   20.1167 C   0  0  0  0  0  0  0  0  0  0  0  0
    4.9712    0.6857   21.1162 H   0  0  0  0  0  0  0  0  0  0  0  0
    8.0307   -0.5937   18.3541 H   0  0  0  0  0  0  0  0  0  0  0  0
    4.9540    1.7498   16.9291 H   0  0  0  0  0  0  0  0  0  0  0  0
    3.8738    1.8721   19.1719 H   0  0  0  0  0  0  0  0  0  0  0  0
  1  2  2  0
  2  3  1  0
  3  4  2  0
  4  5  1  0
  5  6  1  0
  6  7  1  0
  7  8  1  0
  8  9  1  0
  9 10  1  0
 10 11  1  0
 11 12  2  0
 12 13  1  0
 13 14  1  0
 13 15  1  0
 12 16  1  0
 16 17  2  0
 17 18  1  0
 18 19  1  0
 17 20  1  0
 10 21  1  0
 10 22  1  0
  9 23  1  0
  9 24  1  0
  8 25  1  0
  7 26  1  0
  7 27  1  0
  6 28  1  0
  6 29  1  0
  5 30  2  0
 30 31  1  0
  4 32  1  0
  2 33  1  0
  1 34  1  0
 30  1  1  0
 13  8  1  0
 18 11  1  0
M  CHG  1   7   1
M  END
>  <cnnaffinity>  (1) 
4.98194

>  <plip>  (1) 
-0.21428571428571427

>  <filename>  (1) 
[H][c]1[n][c]([H])[c]([C]([H])([H])[N+]([H])([H])[C]2([H])[C]([H])([H])[c]3[n][c]([H])[n]([H])[c]3[C]([H])([H])[C]2([H])[H])[c]([H])[c]1[H]

>  <combo1>  (1) 
-1.5518621635748446

$$$$
