
     RDKit          3D

 19 19  0  0  0  0  0  0  0  0999 V2000
   11.6842   -3.1473   21.8956 H   0  0  0  0  0  0  0  0  0  0  0  0
   11.0758   -2.7514   22.6336 N   0  0  0  0  0  0  0  0  0  0  0  0
   10.0128   -2.3491   22.2346 N   0  0  0  0  0  4  0  0  0  0  0  0
    8.8898   -1.8975   22.1089 N   0  0  0  0  0  0  0  0  0  0  0  0
    8.6116   -1.3229   20.7804 C   0  0  0  0  0  0  0  0  0  0  0  0
    9.3787   -0.6087   20.4245 H   0  0  0  0  0  0  0  0  0  0  0  0
    8.5202   -2.0983   20.0107 H   0  0  0  0  0  0  0  0  0  0  0  0
    7.3512   -0.6550   20.9538 N   0  0  0  0  0  0  0  0  0  0  0  0
    7.0290   -0.7429   21.9108 H   0  0  0  0  0  0  0  0  0  0  0  0
    6.6757   -0.0073   19.9351 C   0  0  0  0  0  0  0  0  0  0  0  0
    7.1725    0.0541   18.5960 C   0  0  0  0  0  0  0  0  0  0  0  0
    8.1208   -0.4259   18.3591 H   0  0  0  0  0  0  0  0  0  0  0  0
    6.5610    0.6713   17.5866 N   0  0  0  0  0  0  0  0  0  0  0  0
    5.4015    1.2952   17.8458 C   0  0  0  0  0  0  0  0  0  0  0  0
    4.9298    1.8033   17.0078 H   0  0  0  0  0  0  0  0  0  0  0  0
    4.8139    1.3017   19.1157 C   0  0  0  0  0  0  0  0  0  0  0  0
    3.8781    1.8373   19.2683 H   0  0  0  0  0  0  0  0  0  0  0  0
    5.4484    0.6448   20.1730 C   0  0  0  0  0  0  0  0  0  0  0  0
    5.0210    0.6325   21.1788 H   0  0  0  0  0  0  0  0  0  0  0  0
  1  2  1  0
  2  3  2  0
  3  4  2  0
  4  5  1  0
  5  6  1  0
  5  7  1  0
  5  8  1  0
  8  9  1  0
  8 10  1  0
 10 11  2  0
 11 12  1  0
 11 13  1  0
 13 14  2  0
 14 15  1  0
 14 16  1  0
 16 17  1  0
 16 18  2  0
 18 19  1  0
 18 10  1  0
M  CHG  1   3   1
M  END
>  <cnnaffinity>  (1) 
4.05558

>  <plip>  (1) 
-0.06666666666666667

>  <filename>  (1) 
[H][N]=[N+]=[N][C]([H])([H])[N]([H])[c]1[c]([H])[n][c]([H])[c]([H])[c]1[H]

>  <combo1>  (1) 
-0.6001664835347785

$$$$
