
     RDKit          3D

 34 36  0  0  0  0  0  0  0  0999 V2000
    4.7830    1.3285   19.0433 C   0  0  0  0  0  0  0  0  0  0  0  0
    5.3907    1.2810   17.7826 C   0  0  0  0  0  0  0  0  0  0  0  0
    6.5232    0.6058   17.5410 N   0  0  0  0  0  0  0  0  0  0  0  0
    7.1058   -0.0109   18.5729 C   0  0  0  0  0  0  0  0  0  0  0  0
    6.6112    0.0126   19.8859 C   0  0  0  0  0  0  0  0  0  0  0  0
    7.3897   -0.6348   20.9894 C   0  0  0  0  0  0  0  0  0  0  0  0
    6.9781   -2.0544   21.0303 N   0  0  0  0  0  4  0  0  0  0  0  0
    7.4526   -2.8515   22.1915 C   0  0  0  0  0  0  0  0  0  0  0  0
    6.8333   -4.2553   22.1580 C   0  0  0  0  0  0  0  0  0  0  0  0
    7.2045   -5.0902   23.4195 C   0  0  0  0  0  0  0  0  0  0  0  0
    8.6582   -4.8859   23.8397 C   0  0  0  0  0  0  0  0  0  0  0  0
    9.4240   -3.8697   23.3133 C   0  0  0  0  0  0  0  0  0  0  0  0
    8.9940   -2.9354   22.2318 C   0  0  0  0  0  0  0  0  0  0  0  0
    9.4428   -1.9441   22.3542 H   0  0  0  0  0  0  0  0  0  0  0  0
    9.3235   -3.3246   21.2613 H   0  0  0  0  0  0  0  0  0  0  0  0
   10.6303   -3.9250   23.9239 N   0  0  0  0  0  0  0  0  0  0  0  0
   10.7180   -4.9310   24.8074 N   0  0  0  0  0  0  0  0  0  0  0  0
    9.5245   -5.5159   24.7741 C   0  0  0  0  0  0  0  0  0  0  0  0
    9.3460   -6.3781   25.4138 H   0  0  0  0  0  0  0  0  0  0  0  0
   11.4159   -3.3018   23.7936 H   0  0  0  0  0  0  0  0  0  0  0  0
    6.9833   -6.1519   23.2389 H   0  0  0  0  0  0  0  0  0  0  0  0
    6.5390   -4.7865   24.2432 H   0  0  0  0  0  0  0  0  0  0  0  0
    7.1719   -4.7770   21.2490 H   0  0  0  0  0  0  0  0  0  0  0  0
    5.7411   -4.1547   22.0941 H   0  0  0  0  0  0  0  0  0  0  0  0
    7.1267   -2.3575   23.1220 H   0  0  0  0  0  0  0  0  0  0  0  0
    5.9309   -2.0453   20.9964 H   0  0  0  0  0  0  0  0  0  0  0  0
    7.2984   -2.5093   20.1323 H   0  0  0  0  0  0  0  0  0  0  0  0
    7.1900   -0.1417   21.9513 H   0  0  0  0  0  0  0  0  0  0  0  0
    8.4646   -0.5376   20.7967 H   0  0  0  0  0  0  0  0  0  0  0  0
    5.4001    0.6782   20.1114 C   0  0  0  0  0  0  0  0  0  0  0  0
    4.9527    0.6920   21.1095 H   0  0  0  0  0  0  0  0  0  0  0  0
    8.0356   -0.5346   18.3464 H   0  0  0  0  0  0  0  0  0  0  0  0
    4.9473    1.8026   16.9365 H   0  0  0  0  0  0  0  0  0  0  0  0
    3.8582    1.8797   19.1704 H   0  0  0  0  0  0  0  0  0  0  0  0
  1  2  2  0
  2  3  1  0
  3  4  2  0
  4  5  1  0
  5  6  1  0
  6  7  1  0
  7  8  1  0
  8  9  1  0
  9 10  1  0
 10 11  1  0
 11 12  2  0
 12 13  1  0
 13 14  1  0
 13 15  1  0
 12 16  1  0
 16 17  1  0
 17 18  2  0
 18 19  1  0
 16 20  1  0
 10 21  1  0
 10 22  1  0
  9 23  1  0
  9 24  1  0
  8 25  1  0
  7 26  1  0
  7 27  1  0
  6 28  1  0
  6 29  1  0
  5 30  2  0
 30 31  1  0
  4 32  1  0
  2 33  1  0
  1 34  1  0
 30  1  1  0
 13  8  1  0
 18 11  1  0
M  CHG  1   7   1
M  END
>  <cnnaffinity>  (1) 
4.86047

>  <plip>  (1) 
-0.1724137931034483

>  <filename>  (1) 
[H][c]1[n][c]([H])[c]([C]([H])([H])[N+]([H])([H])[C]2([H])[C]([H])([H])[c]3[c]([c]([H])[n][n]3[H])[C]([H])([H])[C]2([H])[H])[c]([H])[c]1[H]

>  <combo1>  (1) 
-1.218180676219387

$$$$
