
     RDKit          3D

 35 37  0  0  0  0  0  0  0  0999 V2000
    8.8137    4.6515   22.3078 C   0  0  0  0  0  0  0  0  0  0  0  0
    8.3077    3.3623   22.7304 N   0  0  0  0  0  0  0  0  0  0  0  0
    8.1646    2.2143   22.0246 C   0  0  0  0  0  0  0  0  0  0  0  0
    7.6252    1.2818   22.8806 C   0  0  0  0  0  0  0  0  0  0  0  0
    7.2769   -0.0361   22.5179 N   0  0  0  0  0  0  0  0  0  0  0  0
    7.5597   -0.8506   21.1234 S   0  0  0  0  0  0  0  0  0  0  0  0
    8.9431   -0.7213   20.7178 O   0  0  0  0  0  0  0  0  0  0  0  0
    6.9507   -2.1285   21.4481 O   0  0  0  0  0  0  0  0  0  0  0  0
    6.5984    0.0277   19.9768 C   0  0  0  0  0  0  0  0  0  0  0  0
    5.3912    0.6923   20.2173 C   0  0  0  0  0  0  0  0  0  0  0  0
    4.8137    1.3171   19.1129 C   0  0  0  0  0  0  0  0  0  0  0  0
    5.4582    1.2644   17.8719 C   0  0  0  0  0  0  0  0  0  0  0  0
    6.6248    0.6335   17.6732 N   0  0  0  0  0  0  0  0  0  0  0  0
    7.1794    0.0296   18.7172 C   0  0  0  0  0  0  0  0  0  0  0  0
    8.1314   -0.4635   18.5404 H   0  0  0  0  0  0  0  0  0  0  0  0
    5.0258    1.7530   17.0010 H   0  0  0  0  0  0  0  0  0  0  0  0
    3.8750    1.8517   19.1958 H   0  0  0  0  0  0  0  0  0  0  0  0
    4.9090    0.7477   21.1985 H   0  0  0  0  0  0  0  0  0  0  0  0
    6.7341   -0.7063   23.0388 H   0  0  0  0  0  0  0  0  0  0  0  0
    7.5033    1.9805   24.1309 C   0  0  0  0  0  0  0  0  0  0  0  0
    7.0257    1.5082   25.4495 C   0  0  0  0  0  0  0  0  0  0  0  0
    6.3000    2.3646   26.2949 C   0  0  0  0  0  0  0  0  0  0  0  0
    5.8632    1.8955   27.5336 C   0  0  0  0  0  0  0  0  0  0  0  0
    6.1194    0.6647   27.9963 N   0  0  0  0  0  0  0  0  0  0  0  0
    6.8390   -0.1401   27.2062 C   0  0  0  0  0  0  0  0  0  0  0  0
    7.3065    0.2232   25.9370 C   0  0  0  0  0  0  0  0  0  0  0  0
    7.9047   -0.4761   25.3653 H   0  0  0  0  0  0  0  0  0  0  0  0
    7.0587   -1.1278   27.6023 H   0  0  0  0  0  0  0  0  0  0  0  0
    5.2850    2.5440   28.1880 H   0  0  0  0  0  0  0  0  0  0  0  0
    6.0968    3.3877   26.0011 H   0  0  0  0  0  0  0  0  0  0  0  0
    7.9147    3.2405   23.9951 N   0  0  0  0  0  0  0  0  0  0  0  0
    8.4556    2.1200   20.9868 H   0  0  0  0  0  0  0  0  0  0  0  0
    8.4275    4.8879   21.3128 H   0  0  0  0  0  0  0  0  0  0  0  0
    9.9098    4.6685   22.3431 H   0  0  0  0  0  0  0  0  0  0  0  0
    8.4384    5.3968   23.0092 H   0  0  0  0  0  0  0  0  0  0  0  0
  1  2  1  0
  2  3  1  0
  3  4  2  0
  4  5  1  0
  5  6  1  0
  6  7  2  0
  6  8  2  0
  6  9  1  0
  9 10  2  0
 10 11  1  0
 11 12  2  0
 12 13  1  0
 13 14  2  0
 14 15  1  0
 12 16  1  0
 11 17  1  0
 10 18  1  0
  5 19  1  0
  4 20  1  0
 20 21  1  0
 21 22  2  0
 22 23  1  0
 23 24  2  0
 24 25  1  0
 25 26  2  0
 26 27  1  0
 25 28  1  0
 23 29  1  0
 22 30  1  0
 20 31  2  0
  3 32  1  0
  1 33  1  0
  1 34  1  0
  1 35  1  0
 31  2  1  0
 14  9  1  0
 26 21  1  0
M  END
>  <cnnaffinity>  (1) 
5.10673

>  <plip>  (1) 
-0.10714285714285714

>  <filename>  (1) 
[H][c]1[n][c]([H])[c]([S](=[O])(=[O])[N]([H])[c]2[c](-[c]3[c]([H])[c]([H])[n][c]([H])[c]3[H])[n][n]([C]([H])([H])[H])[c]2[H])[c]([H])[c]1[H]

>  <combo1>  (1) 
-0.578337046422524

$$$$
