
     RDKit          3D

 35 37  0  0  0  0  0  0  0  0999 V2000
    9.3995    0.4909   20.6238 O   0  0  0  0  0  0  0  0  0  0  0  0
    8.7524   -0.3741   21.1849 C   0  0  0  0  0  0  0  0  0  0  0  0
    9.4447   -1.2958   22.2321 C   0  0  0  0  0  0  0  0  0  0  0  0
    8.5856   -2.1630   23.0863 N   0  0  0  0  0  0  0  0  0  0  0  0
    9.0577   -2.9625   24.0707 C   0  0  0  0  0  0  0  0  0  0  0  0
   10.3860   -3.3756   23.9907 N   0  0  0  0  0  0  0  0  0  0  0  0
   10.8674   -4.1808   24.9830 C   0  0  0  0  0  0  0  0  0  0  0  0
   10.1050   -4.4779   26.0890 C   0  0  0  0  0  0  0  0  0  0  0  0
   10.7624   -5.1776   27.5380 Cl  0  0  0  0  0  0  0  0  0  0  0  0
    8.7246   -4.1718   25.9978 C   0  0  0  0  0  0  0  0  0  0  0  0
    7.6629   -4.7429   26.9944 C   0  0  0  0  0  0  0  0  0  0  0  0
    6.4160   -4.3367   26.7093 F   0  0  0  0  0  0  0  0  0  0  0  0
    7.6580   -6.0908   26.9891 F   0  0  0  0  0  0  0  0  0  0  0  0
    7.9092   -4.3663   28.2553 F   0  0  0  0  0  0  0  0  0  0  0  0
    8.2675   -3.3807   25.0173 N   0  0  0  0  0  0  0  0  0  0  0  0
   11.0284   -3.1545   23.2068 H   0  0  0  0  0  0  0  0  0  0  0  0
    7.1336   -1.9017   23.0169 C   0  0  0  0  0  0  0  0  0  0  0  0
    6.7399   -1.7869   21.5476 C   0  0  0  0  0  0  0  0  0  0  0  0
    7.4149   -0.6425   20.9117 N   0  0  0  0  0  0  0  0  0  0  0  0
    6.7218    0.0369   19.8612 C   0  0  0  0  0  0  0  0  0  0  0  0
    5.4961    0.6572   20.1304 C   0  0  0  0  0  0  0  0  0  0  0  0
    4.8325    1.3130   19.0901 C   0  0  0  0  0  0  0  0  0  0  0  0
    5.4052    1.2934   17.8121 C   0  0  0  0  0  0  0  0  0  0  0  0
    6.5618    0.6713   17.5300 N   0  0  0  0  0  0  0  0  0  0  0  0
    7.2063    0.0704   18.5361 C   0  0  0  0  0  0  0  0  0  0  0  0
    8.1481   -0.4210   18.2986 H   0  0  0  0  0  0  0  0  0  0  0  0
    4.9167    1.7880   16.9777 H   0  0  0  0  0  0  0  0  0  0  0  0
    3.8923    1.8282   19.2528 H   0  0  0  0  0  0  0  0  0  0  0  0
    5.1012    0.6307   21.1478 H   0  0  0  0  0  0  0  0  0  0  0  0
    5.6551   -1.6757   21.4554 H   0  0  0  0  0  0  0  0  0  0  0  0
    7.0091   -2.7247   21.0407 H   0  0  0  0  0  0  0  0  0  0  0  0
    6.8763   -0.9761   23.5523 H   0  0  0  0  0  0  0  0  0  0  0  0
    6.5736   -2.7161   23.4861 H   0  0  0  0  0  0  0  0  0  0  0  0
   10.0572   -0.6069   22.8256 H   0  0  0  0  0  0  0  0  0  0  0  0
   10.1293   -1.8859   21.6060 H   0  0  0  0  0  0  0  0  0  0  0  0
  1  2  2  0
  2  3  1  0
  3  4  1  0
  4  5  1  0
  5  6  2  0
  6  7  1  0
  7  8  2  0
  8  9  1  0
  8 10  1  0
 10 11  1  0
 11 12  1  0
 11 13  1  0
 11 14  1  0
 10 15  2  0
  7 16  1  0
  4 17  1  0
 17 18  1  0
 18 19  1  0
 19 20  1  0
 20 21  2  0
 21 22  1  0
 22 23  2  0
 23 24  1  0
 24 25  2  0
 25 26  1  0
 23 27  1  0
 22 28  1  0
 21 29  1  0
 18 30  1  0
 18 31  1  0
 17 32  1  0
 17 33  1  0
  3 34  1  0
  3 35  1  0
 19  2  1  0
 25 20  1  0
 15  5  1  0
M  END
>  <cnnaffinity>  (1) 
5.00814

>  <plip>  (1) 
-0.06666666666666667

>  <filename>  (1) 
[H][c]1[n][c]([H])[c]([N]2[C](=[O])[C]([H])([H])[N]([c]3[n][c]([H])[c]([Cl])[c]([C]([F])([F])[F])[n]3)[C]([H])([H])[C]2([H])[H])[c]([H])[c]1[H]

>  <combo1>  (1) 
-0.3111122292947337

$$$$
