
     RDKit          3D

 24 25  0  0  0  0  0  0  0  0999 V2000
    4.9678    1.8057   17.0206 H   0  0  0  0  0  0  0  0  0  0  0  0
    5.4297    1.2844   17.8545 C   0  0  0  0  0  0  0  0  0  0  0  0
    6.5911    0.6539   17.5886 N   0  0  0  0  0  0  0  0  0  0  0  0
    7.1923    0.0183   18.6015 C   0  0  0  0  0  0  0  0  0  0  0  0
    8.1367   -0.4877   18.3922 H   0  0  0  0  0  0  0  0  0  0  0  0
    6.6925   -0.0183   19.9253 C   0  0  0  0  0  0  0  0  0  0  0  0
    7.3928   -0.7458   20.9215 N   0  0  0  0  0  0  0  0  0  0  0  0
    7.5055   -0.3451   22.1280 C   0  0  0  0  0  0  0  0  0  0  0  0
    7.8926   -1.2900   23.0423 N   0  0  0  0  0  0  0  0  0  0  0  0
    8.3048   -2.0436   22.5130 H   0  0  0  0  0  0  0  0  0  0  0  0
    8.4612   -0.9241   23.7883 H   0  0  0  0  0  0  0  0  0  0  0  0
    7.3140    0.9596   22.6569 N   0  0  0  0  0  0  0  0  0  0  0  0
    7.5828    2.1552   21.9897 C   0  0  0  0  0  0  0  0  0  0  0  0
    8.0102    2.1386   20.9970 H   0  0  0  0  0  0  0  0  0  0  0  0
    7.1745    3.1889   22.7736 C   0  0  0  0  0  0  0  0  0  0  0  0
    7.2332    4.2413   22.5174 H   0  0  0  0  0  0  0  0  0  0  0  0
    6.6103    2.6292   23.9613 C   0  0  0  0  0  0  0  0  0  0  0  0
    6.1431    3.1597   24.7818 H   0  0  0  0  0  0  0  0  0  0  0  0
    6.7002    1.2745   23.8654 C   0  0  0  0  0  0  0  0  0  0  0  0
    6.3427    0.4793   24.5063 H   0  0  0  0  0  0  0  0  0  0  0  0
    5.4674    0.6287   20.1679 C   0  0  0  0  0  0  0  0  0  0  0  0
    5.0814    0.6364   21.1867 H   0  0  0  0  0  0  0  0  0  0  0  0
    4.8245    1.2848   19.1142 C   0  0  0  0  0  0  0  0  0  0  0  0
    3.8876    1.8137   19.2690 H   0  0  0  0  0  0  0  0  0  0  0  0
  1  2  1  0
  2  3  2  0
  3  4  1  0
  4  5  1  0
  4  6  2  0
  6  7  1  0
  7  8  2  3
  8  9  1  0
  9 10  1  0
  9 11  1  0
  8 12  1  0
 12 13  1  0
 13 14  1  0
 13 15  2  0
 15 16  1  0
 15 17  1  0
 17 18  1  0
 17 19  2  0
 19 20  1  0
  6 21  1  0
 21 22  1  0
 21 23  2  0
 23 24  1  0
 23  2  1  0
 19 12  1  0
M  END
>  <cnnaffinity>  (1) 
4.12759

>  <plip>  (1) 
-0.0

>  <filename>  (1) 
[H][c]1[n][c]([H])[c]([N]=[C]([N]([H])[H])[n]2[c]([H])[c]([H])[c]([H])[c]2[H])[c]([H])[c]1[H]

>  <combo1>  (1) 
-7.388455108170709e-06

$$$$
