
     RDKit          3D

 18 19  0  0  0  0  0  0  0  0999 V2000
    4.9097    1.7737   17.0037 H   0  0  0  0  0  0  0  0  0  0  0  0
    5.4000    1.2924   17.8435 C   0  0  0  0  0  0  0  0  0  0  0  0
    6.5687    0.6809   17.5790 N   0  0  0  0  0  0  0  0  0  0  0  0
    7.1816    0.0613   18.5926 C   0  0  0  0  0  0  0  0  0  0  0  0
    8.1270   -0.4321   18.3766 H   0  0  0  0  0  0  0  0  0  0  0  0
    6.6570    0.0128   19.8974 C   0  0  0  0  0  0  0  0  0  0  0  0
    7.3511   -0.6734   20.9324 C   0  0  0  0  0  0  0  0  0  0  0  0
    7.9404   -1.2473   21.8078 C   0  0  0  0  0  0  0  0  0  0  0  0
    8.6089   -1.9487   22.8313 C   0  0  0  0  0  0  0  0  0  0  0  0
    8.5541   -3.2378   23.0832 N   0  0  0  0  0  0  0  0  0  0  0  0
    9.3549   -3.4406   24.1435 N   0  0  0  0  0  0  0  0  0  0  0  0
    9.8925   -2.3359   24.5445 N   0  0  0  0  0  0  0  0  0  0  0  0
    9.4341   -1.3922   23.7313 N   0  0  0  0  0  0  0  0  0  0  0  0
    9.6961   -0.4311   23.8223 H   0  0  0  0  0  0  0  0  0  0  0  0
    5.4370    0.6553   20.1594 C   0  0  0  0  0  0  0  0  0  0  0  0
    5.0088    0.6293   21.1609 H   0  0  0  0  0  0  0  0  0  0  0  0
    4.8022    1.3133   19.1090 C   0  0  0  0  0  0  0  0  0  0  0  0
    3.8694    1.8470   19.2640 H   0  0  0  0  0  0  0  0  0  0  0  0
  1  2  1  0
  2  3  2  0
  3  4  1  0
  4  5  1  0
  4  6  2  0
  6  7  1  0
  7  8  3  0
  8  9  1  0
  9 10  2  0
 10 11  1  0
 11 12  2  0
 12 13  1  0
 13 14  1  0
  6 15  1  0
 15 16  1  0
 15 17  2  0
 17 18  1  0
 17  2  1  0
 13  9  1  0
M  END
>  <cnnaffinity>  (1) 
4.33191

>  <plip>  (1) 
-0.03571428571428571

>  <filename>  (1) 
[H][c]1[n][c]([H])[c]([C]#[C][c]2[n][n][n][n]2[H])[c]([H])[c]1[H]

>  <combo1>  (1) 
-0.30129383770357576

$$$$
