
     RDKit          3D

 40 43  0  0  0  0  0  0  0  0999 V2000
    6.7643   -3.5351   22.9017 H   0  0  0  0  0  0  0  0  0  0  0  0
    7.1564   -2.5534   22.6437 C   0  0  0  0  0  0  0  0  0  0  0  0
    8.0373   -1.9556   23.4661 C   0  0  0  0  0  0  0  0  0  0  0  0
    8.4944   -2.7158   24.6585 C   0  0  0  0  0  0  0  0  0  0  0  0
    9.7780   -3.2334   24.7087 C   0  0  0  0  0  0  0  0  0  0  0  0
   10.4823   -3.0160   23.9104 H   0  0  0  0  0  0  0  0  0  0  0  0
   10.2099   -4.0834   25.7608 C   0  0  0  0  0  0  0  0  0  0  0  0
   11.2204   -4.4861   25.7503 H   0  0  0  0  0  0  0  0  0  0  0  0
    9.3467   -4.4005   26.7825 C   0  0  0  0  0  0  0  0  0  0  0  0
    9.6162   -5.0663   27.5950 H   0  0  0  0  0  0  0  0  0  0  0  0
    8.0167   -3.9041   26.7832 C   0  0  0  0  0  0  0  0  0  0  0  0
    7.2094   -4.3362   27.8061 N   0  0  0  0  0  0  0  0  0  0  0  0
    5.9668   -3.9217   27.8143 C   0  0  0  0  0  0  0  0  0  0  0  0
    5.3378   -4.2989   28.6233 H   0  0  0  0  0  0  0  0  0  0  0  0
    5.4209   -3.0338   26.8492 C   0  0  0  0  0  0  0  0  0  0  0  0
    4.3908   -2.7172   26.9546 H   0  0  0  0  0  0  0  0  0  0  0  0
    6.2162   -2.5772   25.8220 C   0  0  0  0  0  0  0  0  0  0  0  0
    5.8158   -1.9074   25.0591 H   0  0  0  0  0  0  0  0  0  0  0  0
    7.5730   -3.0337   25.7316 C   0  0  0  0  0  0  0  0  0  0  0  0
    8.6260   -0.5819   23.1550 C   0  0  0  0  0  0  0  0  0  0  0  0
    9.6493   -0.6960   22.7618 H   0  0  0  0  0  0  0  0  0  0  0  0
    8.7289    0.0047   24.0758 H   0  0  0  0  0  0  0  0  0  0  0  0
    7.7623    0.1945   22.1379 C   0  0  0  0  0  0  0  0  0  0  0  0
    8.2804    1.1023   21.8011 H   0  0  0  0  0  0  0  0  0  0  0  0
    6.8347    0.5309   22.6277 H   0  0  0  0  0  0  0  0  0  0  0  0
    7.4105   -0.6944   20.9246 C   0  0  2  0  0  0  0  0  0  0  0  0
    8.3621   -1.0543   20.5013 H   0  0  0  0  0  0  0  0  0  0  0  0
    6.6672    0.0444   19.8173 C   0  0  0  0  0  0  0  0  0  0  0  0
    7.1526    0.0860   18.4943 C   0  0  0  0  0  0  0  0  0  0  0  0
    8.0841   -0.4213   18.2463 H   0  0  0  0  0  0  0  0  0  0  0  0
    6.5503    0.7109   17.4724 N   0  0  0  0  0  0  0  0  0  0  0  0
    5.3963    1.3416   17.7353 C   0  0  0  0  0  0  0  0  0  0  0  0
    4.9282    1.8623   16.8998 H   0  0  0  0  0  0  0  0  0  0  0  0
    4.8024    1.3504   19.0008 C   0  0  0  0  0  0  0  0  0  0  0  0
    3.8615    1.8684   19.1488 H   0  0  0  0  0  0  0  0  0  0  0  0
    5.4475    0.6967   20.0549 C   0  0  0  0  0  0  0  0  0  0  0  0
    5.0051    0.6950   21.0540 H   0  0  0  0  0  0  0  0  0  0  0  0
    6.6109   -1.9342   21.3939 C   0  0  0  0  0  0  0  0  0  0  0  0
    5.5585   -1.6637   21.5715 H   0  0  0  0  0  0  0  0  0  0  0  0
    6.5916   -2.6929   20.6019 H   0  0  0  0  0  0  0  0  0  0  0  0
  1  2  1  0
  2  3  2  0
  3  4  1  0
  4  5  2  0
  5  6  1  0
  5  7  1  0
  7  8  1  0
  7  9  2  0
  9 10  1  0
  9 11  1  0
 11 12  2  0
 12 13  1  0
 13 14  1  0
 13 15  2  0
 15 16  1  0
 15 17  1  0
 17 18  1  0
 17 19  2  0
  3 20  1  0
 20 21  1  0
 20 22  1  0
 20 23  1  0
 23 24  1  0
 23 25  1  0
 23 26  1  0
 26 27  1  6
 26 28  1  0
 28 29  2  0
 29 30  1  0
 29 31  1  0
 31 32  2  0
 32 33  1  0
 32 34  1  0
 34 35  1  0
 34 36  2  0
 36 37  1  0
 26 38  1  0
 38 39  1  0
 38 40  1  0
 38  2  1  0
 19  4  1  0
 36 28  1  0
 19 11  1  0
M  END
>  <cnnaffinity>  (1) 
5.21836

>  <plip>  (1) 
-0.03571428571428571

>  <filename>  (1) 
[H][C]1=[C]([c]2[c]([H])[c]([H])[c]([H])[c]3[n][c]([H])[c]([H])[c]([H])[c]23)[C]([H])([H])[C]([H])([H])[C@]([H])([c]2[c]([H])[n][c]([H])[c]([H])[c]2[H])[C]1([H])[H]

>  <combo1>  (1) 
-0.2169277435184732

$$$$
