
     RDKit          3D

 30 31  0  0  0  0  0  0  0  0999 V2000
    8.1314    4.7960   25.6712 H   0  0  0  0  0  0  0  0  0  0  0  0
    7.9203    3.7605   25.4163 C   0  0  0  0  0  0  0  0  0  0  0  0
    7.5122    2.9809   26.4063 N   0  0  0  0  0  0  0  0  0  0  0  0
    7.1971    1.7537   26.0325 C   0  0  0  0  0  0  0  0  0  0  0  0
    6.6756    0.9648   26.9854 N   0  0  0  0  0  0  0  0  0  0  0  0
    6.9395    0.0352   26.7148 H   0  0  0  0  0  0  0  0  0  0  0  0
    7.0492    1.3228   27.8477 H   0  0  0  0  0  0  0  0  0  0  0  0
    7.3559    1.1818   24.8477 N   0  0  0  0  0  0  0  0  0  0  0  0
    7.7879    1.9782   23.8539 C   0  0  0  0  0  0  0  0  0  0  0  0
    7.9289    1.4198   22.3755 C   0  0  0  0  0  0  0  0  0  0  0  0
    8.4919    2.0303   21.4871 O   0  0  0  0  0  0  0  0  0  0  0  0
    7.3003    0.2193   22.1918 N   0  0  0  0  0  0  0  0  0  0  0  0
    6.8914   -0.1912   23.0220 H   0  0  0  0  0  0  0  0  0  0  0  0
    7.3337   -0.4792   21.0006 N   0  0  0  0  0  0  0  0  0  0  0  0
    6.6105    0.1016   19.9244 C   0  0  0  0  0  0  0  0  0  0  0  0
    7.1567    0.1205   18.6242 C   0  0  0  0  0  0  0  0  0  0  0  0
    8.1266   -0.3518   18.4543 H   0  0  0  0  0  0  0  0  0  0  0  0
    6.5687    0.7023   17.5687 N   0  0  0  0  0  0  0  0  0  0  0  0
    5.3789    1.2910   17.7782 C   0  0  0  0  0  0  0  0  0  0  0  0
    4.9301    1.7793   16.9169 H   0  0  0  0  0  0  0  0  0  0  0  0
    4.7281    1.2986   19.0185 C   0  0  0  0  0  0  0  0  0  0  0  0
    3.7654    1.7881   19.1304 H   0  0  0  0  0  0  0  0  0  0  0  0
    5.3536    0.6972   20.1134 C   0  0  0  0  0  0  0  0  0  0  0  0
    4.9120    0.6792   21.1106 H   0  0  0  0  0  0  0  0  0  0  0  0
    7.4041   -1.9191   21.1538 C   0  0  0  0  0  0  0  0  0  0  0  0
    7.3399   -2.3632   20.1623 H   0  0  0  0  0  0  0  0  0  0  0  0
    6.5942   -2.3226   21.7805 H   0  0  0  0  0  0  0  0  0  0  0  0
    8.3626   -2.1827   21.6074 H   0  0  0  0  0  0  0  0  0  0  0  0
    8.0694    3.3241   24.1059 C   0  0  0  0  0  0  0  0  0  0  0  0
    8.3676    3.9985   23.3250 H   0  0  0  0  0  0  0  0  0  0  0  0
  1  2  1  0
  2  3  2  0
  3  4  1  0
  4  5  1  0
  5  6  1  0
  5  7  1  0
  4  8  2  0
  8  9  1  0
  9 10  1  0
 10 11  2  0
 10 12  1  0
 12 13  1  0
 12 14  1  0
 14 15  1  0
 15 16  2  0
 16 17  1  0
 16 18  1  0
 18 19  2  0
 19 20  1  0
 19 21  1  0
 21 22  1  0
 21 23  2  0
 23 24  1  0
 14 25  1  0
 25 26  1  0
 25 27  1  0
 25 28  1  0
  9 29  2  0
 29 30  1  0
 29  2  1  0
 23 15  1  0
M  END
>  <cnnaffinity>  (1) 
4.47602

>  <plip>  (1) 
-0.10714285714285714

>  <filename>  (1) 
[H][c]1[n][c]([N]([H])[H])[n][c]([C](=[O])[N]([H])[N]([c]2[c]([H])[n][c]([H])[c]([H])[c]2[H])[C]([H])([H])[H])[c]1[H]

>  <combo1>  (1) 
-0.6544631379232496

$$$$
