
     RDKit          3D

 45 47  0  0  0  0  0  0  0  0999 V2000
    6.3115   -2.3057   25.1117 Cl  0  0  0  0  0  0  0  0  0  0  0  0
    5.8686   -3.6895   24.1508 C   0  0  0  0  0  0  0  0  0  0  0  0
    5.0067   -4.6392   24.7202 C   0  0  0  0  0  0  0  0  0  0  0  0
    4.5841   -5.7248   24.0649 N   0  0  0  0  0  0  0  0  0  0  0  0
    5.0330   -5.9017   22.8181 C   0  0  0  0  0  0  0  0  0  0  0  0
    5.9053   -5.0115   22.1812 C   0  0  0  0  0  0  0  0  0  0  0  0
    6.3480   -3.8523   22.8381 C   0  0  0  0  0  0  0  0  0  0  0  0
    7.3385   -2.9141   22.1828 C   0  0  0  0  0  0  0  0  0  0  0  0
    6.6197   -1.7948   21.5220 N   0  0  0  0  0  4  0  0  0  0  0  0
    7.4120   -0.6552   20.9813 C   0  0  0  0  0  0  0  0  0  0  0  0
    7.8641    0.3198   22.0957 C   0  0  0  0  0  0  0  0  0  0  0  0
    8.8784    1.3318   21.6550 N   0  0  0  0  0  4  0  0  0  0  0  0
   10.1810    0.7268   21.1767 C   0  0  0  0  0  0  0  0  0  0  0  0
   11.2276    1.8214   21.3551 C   0  0  0  0  0  0  0  0  0  0  0  0
   10.6942    2.7379   22.4739 C   0  0  0  0  0  0  0  0  0  0  0  0
    9.2420    2.3169   22.7421 C   0  0  0  0  0  0  0  0  0  0  0  0
    8.5265    3.1453   22.7527 H   0  0  0  0  0  0  0  0  0  0  0  0
    9.1686    1.8013   23.7059 H   0  0  0  0  0  0  0  0  0  0  0  0
   10.7666    3.7862   22.1830 H   0  0  0  0  0  0  0  0  0  0  0  0
   11.2726    2.6127   23.3953 H   0  0  0  0  0  0  0  0  0  0  0  0
   12.1896    1.3714   21.6231 H   0  0  0  0  0  0  0  0  0  0  0  0
   11.3721    2.3786   20.4238 H   0  0  0  0  0  0  0  0  0  0  0  0
   10.4198   -0.1430   21.8010 H   0  0  0  0  0  0  0  0  0  0  0  0
   10.0706    0.3958   20.1413 H   0  0  0  0  0  0  0  0  0  0  0  0
    8.4547    1.8864   20.8666 H   0  0  0  0  0  0  0  0  0  0  0  0
    8.2954   -0.2808   22.9126 H   0  0  0  0  0  0  0  0  0  0  0  0
    6.9741    0.8116   22.5058 H   0  0  0  0  0  0  0  0  0  0  0  0
    6.5689    0.0042   19.9110 C   0  0  0  0  0  0  0  0  0  0  0  0
    5.3544    0.6779   20.1278 C   0  0  0  0  0  0  0  0  0  0  0  0
    4.7561    1.3384   19.0524 C   0  0  0  0  0  0  0  0  0  0  0  0
    5.3764    1.3106   17.7994 C   0  0  0  0  0  0  0  0  0  0  0  0
    6.5181    0.6501   17.5664 N   0  0  0  0  0  0  0  0  0  0  0  0
    7.0810    0.0239   18.6035 C   0  0  0  0  0  0  0  0  0  0  0  0
    8.0153   -0.4958   18.3894 H   0  0  0  0  0  0  0  0  0  0  0  0
    4.9474    1.8508   16.9554 H   0  0  0  0  0  0  0  0  0  0  0  0
    3.8339    1.8936   19.1710 H   0  0  0  0  0  0  0  0  0  0  0  0
    4.8753    0.7025   21.1123 H   0  0  0  0  0  0  0  0  0  0  0  0
    8.3231   -1.0443   20.5126 H   0  0  0  0  0  0  0  0  0  0  0  0
    6.0270   -2.1469   20.7314 H   0  0  0  0  0  0  0  0  0  0  0  0
    5.9557   -1.4041   22.2489 H   0  0  0  0  0  0  0  0  0  0  0  0
    8.0255   -2.5540   22.9562 H   0  0  0  0  0  0  0  0  0  0  0  0
    7.9452   -3.4848   21.4719 H   0  0  0  0  0  0  0  0  0  0  0  0
    6.2442   -5.2325   21.1782 H   0  0  0  0  0  0  0  0  0  0  0  0
    4.6857   -6.7928   22.3030 H   0  0  0  0  0  0  0  0  0  0  0  0
    4.6577   -4.5048   25.7411 H   0  0  0  0  0  0  0  0  0  0  0  0
  1  2  1  0
  2  3  2  0
  3  4  1  0
  4  5  2  0
  5  6  1  0
  6  7  2  0
  7  8  1  0
  8  9  1  0
  9 10  1  0
 10 11  1  0
 11 12  1  0
 12 13  1  0
 13 14  1  0
 14 15  1  0
 15 16  1  0
 16 17  1  0
 16 18  1  0
 15 19  1  0
 15 20  1  0
 14 21  1  0
 14 22  1  0
 13 23  1  0
 13 24  1  0
 12 25  1  0
 11 26  1  0
 11 27  1  0
 10 28  1  0
 28 29  2  0
 29 30  1  0
 30 31  2  0
 31 32  1  0
 32 33  2  0
 33 34  1  0
 31 35  1  0
 30 36  1  0
 29 37  1  0
 10 38  1  0
  9 39  1  0
  9 40  1  0
  8 41  1  0
  8 42  1  0
  6 43  1  0
  5 44  1  0
  3 45  1  0
  7  2  1  0
 16 12  1  0
 33 28  1  0
M  CHG  2   9   1  12   1
M  END
>  <cnnaffinity>  (1) 
4.91641

>  <plip>  (1) 
-0.17857142857142858

>  <filename>  (1) 
[H][c]1[n][c]([H])[c]([C]([H])([C]([H])([H])[N+]2([H])[C]([H])([H])[C]([H])([H])[C]([H])([H])[C]2([H])[H])[N+]([H])([H])[C]([H])([H])[c]2[c]([H])[c]([H])[n][c]([H])[c]2[Cl])[c]([H])[c]1[H]

>  <combo1>  (1) 
-0.9178034084181765

$$$$
