
     RDKit          3D

 23 24  0  0  0  0  0  0  0  0999 V2000
    9.5334   -2.1532   25.7597 H   0  0  0  0  0  0  0  0  0  0  0  0
    9.1703   -2.1284   24.7364 C   0  0  0  0  0  0  0  0  0  0  0  0
    9.1840   -3.0956   23.8881 N   0  0  0  0  0  0  0  0  0  0  0  0
    8.6177   -2.5637   22.7498 C   0  0  0  0  0  0  0  0  0  0  0  0
    8.4735   -3.1169   21.8318 H   0  0  0  0  0  0  0  0  0  0  0  0
    8.2802   -1.2711   22.9722 C   0  0  0  0  0  0  0  0  0  0  0  0
    7.6512   -0.2973   22.0758 C   0  0  0  0  0  0  0  0  0  0  0  0
    7.3598   -0.7282   20.8994 N   0  0  0  0  0  0  0  0  0  0  0  0
    6.6722    0.0131   19.9250 C   0  0  0  0  0  0  0  0  0  0  0  0
    7.1806    0.0568   18.6006 C   0  0  0  0  0  0  0  0  0  0  0  0
    8.1312   -0.4402   18.3871 H   0  0  0  0  0  0  0  0  0  0  0  0
    6.5704    0.6819   17.5888 N   0  0  0  0  0  0  0  0  0  0  0  0
    5.3963    1.2937   17.8464 C   0  0  0  0  0  0  0  0  0  0  0  0
    4.9038    1.7720   17.0059 H   0  0  0  0  0  0  0  0  0  0  0  0
    4.8041    1.3120   19.1092 C   0  0  0  0  0  0  0  0  0  0  0  0
    3.8720    1.8450   19.2689 H   0  0  0  0  0  0  0  0  0  0  0  0
    5.4442    0.6502   20.1594 C   0  0  0  0  0  0  0  0  0  0  0  0
    5.0137    0.6239   21.1557 H   0  0  0  0  0  0  0  0  0  0  0  0
    7.4158    1.1132   22.5544 C   0  0  0  0  0  0  0  0  0  0  0  0
    6.4257    1.1735   23.0157 H   0  0  0  0  0  0  0  0  0  0  0  0
    7.4714    1.8121   21.7179 H   0  0  0  0  0  0  0  0  0  0  0  0
    8.1617    1.3995   23.2957 H   0  0  0  0  0  0  0  0  0  0  0  0
    8.6408   -0.9767   24.2721 O   0  0  0  0  0  0  0  0  0  0  0  0
  1  2  1  0
  2  3  2  0
  3  4  1  0
  4  5  1  0
  4  6  2  0
  6  7  1  0
  7  8  2  3
  8  9  1  0
  9 10  2  0
 10 11  1  0
 10 12  1  0
 12 13  2  0
 13 14  1  0
 13 15  1  0
 15 16  1  0
 15 17  2  0
 17 18  1  0
  7 19  1  0
 19 20  1  0
 19 21  1  0
 19 22  1  0
  6 23  1  0
 23  2  1  0
 17  9  1  0
M  END
>  <cnnaffinity>  (1) 
4.23415

>  <plip>  (1) 
-0.03571428571428571

>  <filename>  (1) 
[H][c]1[n][c]([H])[c]([C](=[N][c]2[c]([H])[n][c]([H])[c]([H])[c]2[H])[C]([H])([H])[H])[o]1

>  <combo1>  (1) 
-0.2692628690881914

$$$$
