
     RDKit          3D

 31 33  0  0  0  0  0  0  0  0999 V2000
    9.0556    4.6374   26.6868 Cl  0  0  0  0  0  0  0  0  0  0  0  0
    8.9962    3.3063   25.5570 C   0  0  0  0  0  0  0  0  0  0  0  0
    8.5754    3.5864   24.2302 C   0  0  0  0  0  0  0  0  0  0  0  0
    8.4476    2.5389   23.3611 C   0  0  0  0  0  0  0  0  0  0  0  0
    8.7466    1.2101   23.7986 C   0  0  0  0  0  0  0  0  0  0  0  0
    8.5909    0.0101   23.0185 C   0  0  0  0  0  0  0  0  0  0  0  0
    8.2019    0.1514   21.7096 N   0  0  0  0  0  0  0  0  0  0  0  0
    7.4141   -0.7942   20.9600 C   0  0  0  0  0  0  0  0  0  0  0  0
    6.6591   -0.0364   19.8963 C   0  0  0  0  0  0  0  0  0  0  0  0
    5.4559    0.6424   20.1416 C   0  0  0  0  0  0  0  0  0  0  0  0
    4.8397    1.3066   19.0774 C   0  0  0  0  0  0  0  0  0  0  0  0
    5.4659    1.3129   17.8263 C   0  0  0  0  0  0  0  0  0  0  0  0
    6.6386    0.7057   17.5894 N   0  0  0  0  0  0  0  0  0  0  0  0
    7.2091    0.0637   18.6166 C   0  0  0  0  0  0  0  0  0  0  0  0
    8.1603   -0.4248   18.4092 H   0  0  0  0  0  0  0  0  0  0  0  0
    5.0119    1.8286   16.9800 H   0  0  0  0  0  0  0  0  0  0  0  0
    3.8975    1.8301   19.2029 H   0  0  0  0  0  0  0  0  0  0  0  0
    5.0180    0.6733   21.1429 H   0  0  0  0  0  0  0  0  0  0  0  0
    6.7102   -1.3265   21.6185 H   0  0  0  0  0  0  0  0  0  0  0  0
    8.0677   -1.5496   20.4945 H   0  0  0  0  0  0  0  0  0  0  0  0
    8.2382    1.0896   21.3560 H   0  0  0  0  0  0  0  0  0  0  0  0
    8.8558   -1.2288   23.5839 C   0  0  0  0  0  0  0  0  0  0  0  0
    9.3214   -1.3415   24.9223 C   0  0  0  0  0  0  0  0  0  0  0  0
    9.4860   -0.2088   25.6866 C   0  0  0  0  0  0  0  0  0  0  0  0
    9.1838    1.0711   25.1463 C   0  0  0  0  0  0  0  0  0  0  0  0
    9.3099    2.1349   26.0025 N   0  0  0  0  0  0  0  0  0  0  0  0
    9.8356   -0.2212   26.7115 H   0  0  0  0  0  0  0  0  0  0  0  0
    9.5434   -2.3243   25.3385 H   0  0  0  0  0  0  0  0  0  0  0  0
    8.7122   -2.1256   22.9905 H   0  0  0  0  0  0  0  0  0  0  0  0
    8.0843    2.7466   22.3538 H   0  0  0  0  0  0  0  0  0  0  0  0
    8.3598    4.6045   23.9399 H   0  0  0  0  0  0  0  0  0  0  0  0
  1  2  1  0
  2  3  2  0
  3  4  1  0
  4  5  2  0
  5  6  1  0
  6  7  1  0
  7  8  1  0
  8  9  1  0
  9 10  2  0
 10 11  1  0
 11 12  2  0
 12 13  1  0
 13 14  2  0
 14 15  1  0
 12 16  1  0
 11 17  1  0
 10 18  1  0
  8 19  1  0
  8 20  1  0
  7 21  1  0
  6 22  2  0
 22 23  1  0
 23 24  2  0
 24 25  1  0
 25 26  2  0
 24 27  1  0
 23 28  1  0
 22 29  1  0
  4 30  1  0
  3 31  1  0
 26  2  1  0
 25  5  1  0
 14  9  1  0
M  END
>  <cnnaffinity>  (1) 
4.97299

>  <plip>  (1) 
-0.034482758620689655

>  <filename>  (1) 
[H][c]1[n][c]([H])[c]([C]([H])([H])[N]([H])[c]2[c]([H])[c]([H])[c]([H])[c]3[n][c]([Cl])[c]([H])[c]([H])[c]23)[c]([H])[c]1[H]

>  <combo1>  (1) 
-0.21191467402339767

$$$$
