
     RDKit          3D

 33 35  0  0  0  0  0  0  0  0999 V2000
    4.9399    1.7888   17.0130 H   0  0  0  0  0  0  0  0  0  0  0  0
    5.4137    1.2727   17.8449 C   0  0  0  0  0  0  0  0  0  0  0  0
    6.5679    0.6391   17.5753 N   0  0  0  0  0  0  0  0  0  0  0  0
    7.1825    0.0207   18.5908 C   0  0  0  0  0  0  0  0  0  0  0  0
    8.1246   -0.4705   18.3634 H   0  0  0  0  0  0  0  0  0  0  0  0
    6.6787   -0.0178   19.9041 C   0  0  0  0  0  0  0  0  0  0  0  0
    7.4827   -0.5948   20.8606 O   0  0  0  0  0  0  0  0  0  0  0  0
    7.0012   -1.4615   21.8242 C   0  0  0  0  0  0  0  0  0  0  0  0
    5.8964   -2.3451   21.8306 C   0  0  0  0  0  0  0  0  0  0  0  0
    5.1393   -2.4852   21.0671 H   0  0  0  0  0  0  0  0  0  0  0  0
    5.8363   -3.0465   22.9594 N   0  0  0  0  0  0  0  0  0  0  0  0
    6.9225   -2.6487   23.6604 N   0  0  0  0  0  0  0  0  0  0  0  0
    7.0798   -2.9140   24.6259 H   0  0  0  0  0  0  0  0  0  0  0  0
    7.6575   -1.7201   23.0151 C   0  0  0  0  0  0  0  0  0  0  0  0
    8.7937   -1.3229   23.6253 O   0  0  0  0  0  0  0  0  0  0  0  0
    9.7626   -0.6511   22.7989 C   0  0  0  0  0  0  0  0  0  0  0  0
    9.3169    0.2691   22.4065 H   0  0  0  0  0  0  0  0  0  0  0  0
   10.2569   -1.5370   21.6366 C   0  0  0  0  0  0  0  0  0  0  0  0
    9.9879   -1.0623   20.6903 H   0  0  0  0  0  0  0  0  0  0  0  0
    9.7549   -2.5096   21.6796 H   0  0  0  0  0  0  0  0  0  0  0  0
   11.7826   -1.6476   21.8014 C   0  0  0  0  0  0  0  0  0  0  0  0
   12.0360   -2.5802   22.3243 H   0  0  0  0  0  0  0  0  0  0  0  0
   12.2938   -1.6603   20.8345 H   0  0  0  0  0  0  0  0  0  0  0  0
   12.1651   -0.4362   22.6673 C   0  0  0  0  0  0  0  0  0  0  0  0
   13.1290   -0.5652   23.1686 H   0  0  0  0  0  0  0  0  0  0  0  0
   12.2285    0.4666   22.0402 H   0  0  0  0  0  0  0  0  0  0  0  0
   10.9898   -0.3187   23.6482 C   0  0  0  0  0  0  0  0  0  0  0  0
   10.9178    0.6646   24.1290 H   0  0  0  0  0  0  0  0  0  0  0  0
   11.0541   -1.0653   24.4484 H   0  0  0  0  0  0  0  0  0  0  0  0
    5.4700    0.6280   20.1789 C   0  0  0  0  0  0  0  0  0  0  0  0
    5.0553    0.6339   21.1872 H   0  0  0  0  0  0  0  0  0  0  0  0
    4.8327    1.2842   19.1175 C   0  0  0  0  0  0  0  0  0  0  0  0
    3.9017    1.8157   19.2702 H   0  0  0  0  0  0  0  0  0  0  0  0
  1  2  1  0
  2  3  2  0
  3  4  1  0
  4  5  1  0
  4  6  2  0
  6  7  1  0
  7  8  1  0
  8  9  1  0
  9 10  1  0
  9 11  2  0
 11 12  1  0
 12 13  1  0
 12 14  1  0
 14 15  1  0
 15 16  1  0
 16 17  1  0
 16 18  1  0
 18 19  1  0
 18 20  1  0
 18 21  1  0
 21 22  1  0
 21 23  1  0
 21 24  1  0
 24 25  1  0
 24 26  1  0
 24 27  1  0
 27 28  1  0
 27 29  1  0
  6 30  1  0
 30 31  1  0
 30 32  2  0
 32 33  1  0
 32  2  1  0
 14  8  2  0
 27 16  1  0
M  END
>  <cnnaffinity>  (1) 
4.80565

>  <plip>  (1) 
-0.03571428571428571

>  <filename>  (1) 
[H][c]1[n][c]([H])[c]([O][c]2[c]([H])[n][n]([H])[c]2[O][C]2([H])[C]([H])([H])[C]([H])([H])[C]([H])([H])[C]2([H])[H])[c]([H])[c]1[H]

>  <combo1>  (1) 
-0.2332422234310672

$$$$
