
     RDKit          3D

 36 38  0  0  0  0  0  0  0  0999 V2000
    3.6290   -8.2586   24.0227 F   0  0  0  0  0  0  0  0  0  0  0  0
    3.1717   -7.1006   23.5218 C   0  0  0  0  0  0  0  0  0  0  0  0
    2.3113   -7.3825   22.5225 F   0  0  0  0  0  0  0  0  0  0  0  0
    2.2115   -6.3205   24.8158 Cl  0  0  0  0  0  0  0  0  0  0  0  0
    4.2640   -6.2022   23.0585 C   0  0  0  0  0  0  0  0  0  0  0  0
    5.6295   -6.5118   23.0797 C   0  0  0  0  0  0  0  0  0  0  0  0
    6.5409   -5.5046   22.8114 C   0  0  0  0  0  0  0  0  0  0  0  0
    6.0495   -4.2100   22.5249 C   0  0  0  0  0  0  0  0  0  0  0  0
    6.8753   -3.1283   22.3762 N   0  0  0  0  0  0  0  0  0  0  0  0
    8.2661   -3.0255   22.8335 C   0  0  0  0  0  0  0  0  0  0  0  0
    8.5613   -1.4959   22.8353 C   0  0  0  0  0  0  0  0  0  0  0  0
    7.4070   -0.8060   22.1046 C   0  0  0  0  0  0  0  0  0  0  0  0
    7.7395   -0.6308   20.7235 O   0  0  0  0  0  0  0  0  0  0  0  0
    6.8675   -0.0197   19.8661 C   0  0  0  0  0  0  0  0  0  0  0  0
    5.6294    0.5610   20.1830 C   0  0  0  0  0  0  0  0  0  0  0  0
    4.9312    1.2189   19.1570 C   0  0  0  0  0  0  0  0  0  0  0  0
    5.4635    1.2457   17.8664 C   0  0  0  0  0  0  0  0  0  0  0  0
    6.6185    0.6360   17.5362 N   0  0  0  0  0  0  0  0  0  0  0  0
    7.2908    0.0245   18.5160 C   0  0  0  0  0  0  0  0  0  0  0  0
    8.2239   -0.4719   18.2580 H   0  0  0  0  0  0  0  0  0  0  0  0
    4.9492    1.7719   17.0662 H   0  0  0  0  0  0  0  0  0  0  0  0
    3.9817    1.7083   19.3551 H   0  0  0  0  0  0  0  0  0  0  0  0
    5.2071    0.4992   21.1850 H   0  0  0  0  0  0  0  0  0  0  0  0
    6.2888   -1.7915   22.3624 C   0  0  0  0  0  0  0  0  0  0  0  0
    5.4650   -1.7240   21.6528 H   0  0  0  0  0  0  0  0  0  0  0  0
    5.9523   -1.5556   23.3806 H   0  0  0  0  0  0  0  0  0  0  0  0
    7.1648    0.1738   22.5433 H   0  0  0  0  0  0  0  0  0  0  0  0
    9.5098   -1.2653   22.3562 H   0  0  0  0  0  0  0  0  0  0  0  0
    8.5921   -1.1172   23.8634 H   0  0  0  0  0  0  0  0  0  0  0  0
    8.9516   -3.5587   22.1629 H   0  0  0  0  0  0  0  0  0  0  0  0
    8.4016   -3.4449   23.8439 H   0  0  0  0  0  0  0  0  0  0  0  0
    4.7327   -3.9716   22.3607 N   0  0  0  0  0  0  0  0  0  0  0  0
    3.8774   -4.9385   22.6371 C   0  0  0  0  0  0  0  0  0  0  0  0
    2.8225   -4.6885   22.5565 H   0  0  0  0  0  0  0  0  0  0  0  0
    7.6084   -5.6855   22.8158 H   0  0  0  0  0  0  0  0  0  0  0  0
    5.9458   -7.5281   23.2893 H   0  0  0  0  0  0  0  0  0  0  0  0
  1  2  1  0
  2  3  1  0
  2  4  1  0
  2  5  1  0
  5  6  2  0
  6  7  1  0
  7  8  2  0
  8  9  1  0
  9 10  1  0
 10 11  1  0
 11 12  1  0
 12 13  1  0
 13 14  1  0
 14 15  2  0
 15 16  1  0
 16 17  2  0
 17 18  1  0
 18 19  2  0
 19 20  1  0
 17 21  1  0
 16 22  1  0
 15 23  1  0
 12 24  1  0
 24 25  1  0
 24 26  1  0
 12 27  1  0
 11 28  1  0
 11 29  1  0
 10 30  1  0
 10 31  1  0
  8 32  1  0
 32 33  2  0
 33 34  1  0
  7 35  1  0
  6 36  1  0
 33  5  1  0
 24  9  1  0
 19 14  1  0
M  END
>  <cnnaffinity>  (1) 
5.21354

>  <plip>  (1) 
-0.10714285714285714

>  <filename>  (1) 
[H][c]1[n][c]([H])[c]([O][C]2([H])[C]([H])([H])[N]([c]3[n][c]([H])[c]([C]([F])([F])[Cl])[c]([H])[c]3[H])[C]([H])([H])[C]2([H])[H])[c]([H])[c]1[H]

>  <combo1>  (1) 
-0.5716044314983371

$$$$
