
     RDKit          3D

 38 41  0  0  0  0  0  0  0  0999 V2000
    5.6745   -1.6800   21.6785 H   0  0  0  0  0  0  0  0  0  0  0  0
    6.7264   -1.5176   21.8051 C   0  0  0  0  0  0  0  0  0  0  0  0
    7.3872   -0.6935   20.9767 C   0  0  0  0  0  0  0  0  0  0  0  0
    6.7004    0.0414   19.9105 C   0  0  0  0  0  0  0  0  0  0  0  0
    7.1973    0.0777   18.6004 C   0  0  0  0  0  0  0  0  0  0  0  0
    8.1303   -0.4315   18.3538 H   0  0  0  0  0  0  0  0  0  0  0  0
    6.5677    0.6719   17.5812 N   0  0  0  0  0  0  0  0  0  0  0  0
    5.4037    1.2897   17.8432 C   0  0  0  0  0  0  0  0  0  0  0  0
    4.9187    1.7769   17.0009 H   0  0  0  0  0  0  0  0  0  0  0  0
    4.8138    1.3100   19.1100 C   0  0  0  0  0  0  0  0  0  0  0  0
    3.8799    1.8369   19.2603 H   0  0  0  0  0  0  0  0  0  0  0  0
    5.4543    0.6555   20.1575 C   0  0  0  0  0  0  0  0  0  0  0  0
    5.0203    0.6288   21.1599 H   0  0  0  0  0  0  0  0  0  0  0  0
    8.7623   -0.5581   21.1399 N   0  0  0  0  0  0  0  0  0  0  0  0
    9.3072    0.0585   20.5675 H   0  0  0  0  0  0  0  0  0  0  0  0
    9.4612   -1.0278   22.2091 C   0  0  0  0  0  0  0  0  0  0  0  0
   11.0758   -0.6905   22.4228 S   0  0  0  0  0  0  0  0  0  0  0  0
    8.7611   -1.7762   23.0742 N   0  0  0  0  0  0  0  0  0  0  0  0
    9.3071   -2.1097   23.8458 H   0  0  0  0  0  0  0  0  0  0  0  0
    7.4127   -2.3005   22.8563 C   0  0  1  0  0  0  0  0  0  0  0  0
    7.5166   -3.3443   22.4962 H   0  0  0  0  0  0  0  0  0  0  0  0
    6.6070   -2.3592   24.1592 C   0  0  0  0  0  0  0  0  0  0  0  0
    6.0888   -3.5711   24.5655 C   0  0  0  0  0  0  0  0  0  0  0  0
    6.2833   -4.4698   23.9800 H   0  0  0  0  0  0  0  0  0  0  0  0
    5.2967   -3.6856   25.7386 C   0  0  0  0  0  0  0  0  0  0  0  0
    4.9141   -4.6602   26.0308 H   0  0  0  0  0  0  0  0  0  0  0  0
    5.0235   -2.5745   26.4952 C   0  0  0  0  0  0  0  0  0  0  0  0
    4.4216   -2.6448   27.3995 H   0  0  0  0  0  0  0  0  0  0  0  0
    5.5272   -1.2945   26.1117 C   0  0  0  0  0  0  0  0  0  0  0  0
    5.2407   -0.1334   26.8928 C   0  0  0  0  0  0  0  0  0  0  0  0
    4.6348   -0.2544   27.7893 H   0  0  0  0  0  0  0  0  0  0  0  0
    5.7166    1.1004   26.5267 C   0  0  0  0  0  0  0  0  0  0  0  0
    5.4949    1.9783   27.1310 H   0  0  0  0  0  0  0  0  0  0  0  0
    6.5064    1.2340   25.3502 C   0  0  0  0  0  0  0  0  0  0  0  0
    6.8774    2.2181   25.0740 H   0  0  0  0  0  0  0  0  0  0  0  0
    6.8043    0.1399   24.5716 C   0  0  0  0  0  0  0  0  0  0  0  0
    7.4062    0.2539   23.6728 H   0  0  0  0  0  0  0  0  0  0  0  0
    6.3309   -1.1731   24.9260 C   0  0  0  0  0  0  0  0  0  0  0  0
  1  2  1  0
  2  3  2  0
  3  4  1  0
  4  5  2  0
  5  6  1  0
  5  7  1  0
  7  8  2  0
  8  9  1  0
  8 10  1  0
 10 11  1  0
 10 12  2  0
 12 13  1  0
  3 14  1  0
 14 15  1  0
 14 16  1  0
 16 17  2  0
 16 18  1  0
 18 19  1  0
 18 20  1  0
 20 21  1  6
 20 22  1  0
 22 23  2  0
 23 24  1  0
 23 25  1  0
 25 26  1  0
 25 27  2  0
 27 28  1  0
 27 29  1  0
 29 30  2  0
 30 31  1  0
 30 32  1  0
 32 33  1  0
 32 34  2  0
 34 35  1  0
 34 36  1  0
 36 37  1  0
 36 38  2  0
 20  2  1  0
 38 22  1  0
 12  4  1  0
 38 29  1  0
M  END
>  <cnnaffinity>  (1) 
5.05882

>  <plip>  (1) 
-0.034482758620689655

>  <filename>  (1) 
[H][C]1=[C]([c]2[c]([H])[n][c]([H])[c]([H])[c]2[H])[N]([H])[C](=[S])[N]([H])[C@@]1([H])[c]1[c]([H])[c]([H])[c]([H])[c]2[c]([H])[c]([H])[c]([H])[c]([H])[c]12

>  <combo1>  (1) 
-0.18318916857584525

$$$$
