
     RDKit          3D

 32 33  0  0  0  0  0  0  0  0999 V2000
    9.7977   -3.6408   23.4027 O   0  0  0  0  0  0  0  0  0  0  0  0
    9.4671   -2.5402   22.5754 C   0  0  0  0  0  0  0  0  0  0  0  0
    8.2706   -2.9151   21.6868 C   0  0  0  0  0  0  0  0  0  0  0  0
    8.0060   -1.9469   20.5746 N   0  0  0  0  0  4  0  0  0  0  0  0
    7.3851   -0.6217   21.0515 C   0  0  0  0  0  0  0  0  0  0  0  0
    6.6517   -0.0139   19.8966 C   0  0  0  0  0  0  0  0  0  0  0  0
    5.4402    0.6467   20.1498 C   0  0  0  0  0  0  0  0  0  0  0  0
    4.8060    1.3089   19.1015 C   0  0  0  0  0  0  0  0  0  0  0  0
    5.4034    1.2896   17.8371 C   0  0  0  0  0  0  0  0  0  0  0  0
    6.5632    0.6676   17.5790 N   0  0  0  0  0  0  0  0  0  0  0  0
    7.1641    0.0311   18.5936 C   0  0  0  0  0  0  0  0  0  0  0  0
    8.1208   -0.4329   18.3439 H   0  0  0  0  0  0  0  0  0  0  0  0
    4.9264    1.7844   16.9952 H   0  0  0  0  0  0  0  0  0  0  0  0
    3.8786    1.8445   19.2531 H   0  0  0  0  0  0  0  0  0  0  0  0
    5.0112    0.6402   21.1567 H   0  0  0  0  0  0  0  0  0  0  0  0
    8.3658    0.3436   21.7018 C   0  0  0  0  0  0  0  0  0  0  0  0
    9.5252    0.7533   21.0222 C   0  0  0  0  0  0  0  0  0  0  0  0
   10.4038    1.6287   21.5373 N   0  0  0  0  0  0  0  0  0  0  0  0
   10.0967    2.0948   22.7585 C   0  0  0  0  0  0  0  0  0  0  0  0
    8.9407    1.6907   23.4487 C   0  0  0  0  0  0  0  0  0  0  0  0
    8.0640    0.8114   22.9299 N   0  0  0  0  0  0  0  0  0  0  0  0
    8.7101    2.0721   24.4363 H   0  0  0  0  0  0  0  0  0  0  0  0
   10.7824    2.8047   23.2078 H   0  0  0  0  0  0  0  0  0  0  0  0
    9.7362    0.3988   20.0202 H   0  0  0  0  0  0  0  0  0  0  0  0
    6.6867   -0.8607   21.8561 H   0  0  0  0  0  0  0  0  0  0  0  0
    8.9080   -1.7255   20.0847 H   0  0  0  0  0  0  0  0  0  0  0  0
    7.3626   -2.3370   19.8470 H   0  0  0  0  0  0  0  0  0  0  0  0
    7.3952   -2.9718   22.3487 H   0  0  0  0  0  0  0  0  0  0  0  0
    8.4474   -3.9262   21.3131 H   0  0  0  0  0  0  0  0  0  0  0  0
   10.3352   -2.3406   21.9340 H   0  0  0  0  0  0  0  0  0  0  0  0
    9.2879   -1.6193   23.1490 H   0  0  0  0  0  0  0  0  0  0  0  0
    9.1668   -3.6878   24.1346 H   0  0  0  0  0  0  0  0  0  0  0  0
  1  2  1  0
  2  3  1  0
  3  4  1  0
  4  5  1  0
  5  6  1  0
  6  7  2  0
  7  8  1  0
  8  9  2  0
  9 10  1  0
 10 11  2  0
 11 12  1  0
  9 13  1  0
  8 14  1  0
  7 15  1  0
  5 16  1  0
 16 17  2  0
 17 18  1  0
 18 19  2  0
 19 20  1  0
 20 21  2  0
 20 22  1  0
 19 23  1  0
 17 24  1  0
  5 25  1  0
  4 26  1  0
  4 27  1  0
  3 28  1  0
  3 29  1  0
  2 30  1  0
  2 31  1  0
  1 32  1  0
 11  6  1  0
 21 16  1  0
M  CHG  1   4   1
M  END
>  <cnnaffinity>  (1) 
4.82669

>  <plip>  (1) 
-0.06666666666666667

>  <filename>  (1) 
[H][O][C]([H])([H])[C]([H])([H])[N+]([H])([H])[C]([H])([c]1[n][c]([H])[c]([H])[n][c]1[H])[c]1[c]([H])[n][c]([H])[c]([H])[c]1[H]

>  <combo1>  (1) 
-0.46376790706366655

$$$$
