
     RDKit          3D

 33 35  0  0  0  0  0  0  0  0999 V2000
    7.8289    2.9320   26.7731 H   0  0  0  0  0  0  0  0  0  0  0  0
    8.4564    2.5054   25.9934 C   0  0  0  0  0  0  0  0  0  0  0  0
    8.5188    1.1690   25.9696 N   0  0  0  0  0  0  0  0  0  0  0  0
    9.2444    0.5914   25.0024 C   0  0  0  0  0  0  0  0  0  0  0  0
    9.2464   -0.9180   24.9496 C   0  0  0  0  0  0  0  0  0  0  0  0
    9.2357   -1.3292   25.9568 H   0  0  0  0  0  0  0  0  0  0  0  0
   10.1188   -1.2944   24.4032 H   0  0  0  0  0  0  0  0  0  0  0  0
    8.0474   -1.4549   24.3503 O   0  0  0  0  0  0  0  0  0  0  0  0
    8.0672   -1.3114   22.9874 N   0  0  0  0  0  0  0  0  0  0  0  0
    7.3649   -0.2915   22.3195 C   0  0  0  0  0  0  0  0  0  0  0  0
    6.9174    0.7070   22.8256 O   0  0  0  0  0  0  0  0  0  0  0  0
    7.3529   -0.6646   20.9758 N   0  0  0  0  0  0  0  0  0  0  0  0
    6.6722    0.0090   19.9315 C   0  0  0  0  0  0  0  0  0  0  0  0
    7.1766    0.0478   18.6070 C   0  0  0  0  0  0  0  0  0  0  0  0
    8.1238   -0.4312   18.3649 H   0  0  0  0  0  0  0  0  0  0  0  0
    6.5674    0.6649   17.5893 N   0  0  0  0  0  0  0  0  0  0  0  0
    5.4050    1.2852   17.8435 C   0  0  0  0  0  0  0  0  0  0  0  0
    4.9312    1.7829   17.0000 H   0  0  0  0  0  0  0  0  0  0  0  0
    4.8161    1.2983   19.1117 C   0  0  0  0  0  0  0  0  0  0  0  0
    3.8851    1.8311   19.2595 H   0  0  0  0  0  0  0  0  0  0  0  0
    5.4489    0.6526   20.1777 C   0  0  0  0  0  0  0  0  0  0  0  0
    5.0353    0.6417   21.1857 H   0  0  0  0  0  0  0  0  0  0  0  0
    8.0230   -1.9353   20.7873 C   0  0  0  0  0  0  0  0  0  0  0  0
    8.9181   -1.8668   20.1576 H   0  0  0  0  0  0  0  0  0  0  0  0
    7.3583   -2.7005   20.3798 H   0  0  0  0  0  0  0  0  0  0  0  0
    8.4411   -2.3514   22.1693 C   0  0  0  0  0  0  0  0  0  0  0  0
    8.9976   -3.3689   22.4983 O   0  0  0  0  0  0  0  0  0  0  0  0
    9.9711    1.3361   24.0612 C   0  0  0  0  0  0  0  0  0  0  0  0
   10.5394    0.8022   23.3109 H   0  0  0  0  0  0  0  0  0  0  0  0
    9.9221    2.7304   24.0997 C   0  0  0  0  0  0  0  0  0  0  0  0
   10.4712    3.3321   23.3722 H   0  0  0  0  0  0  0  0  0  0  0  0
    9.1384    3.3275   25.0898 C   0  0  0  0  0  0  0  0  0  0  0  0
    9.0529    4.4051   25.1743 H   0  0  0  0  0  0  0  0  0  0  0  0
  1  2  1  0
  2  3  2  0
  3  4  1  0
  4  5  1  0
  5  6  1  0
  5  7  1  0
  5  8  1  0
  8  9  1  0
  9 10  1  0
 10 11  2  0
 10 12  1  0
 12 13  1  0
 13 14  2  0
 14 15  1  0
 14 16  1  0
 16 17  2  0
 17 18  1  0
 17 19  1  0
 19 20  1  0
 19 21  2  0
 21 22  1  0
 12 23  1  0
 23 24  1  0
 23 25  1  0
 23 26  1  0
 26 27  2  0
  4 28  2  0
 28 29  1  0
 28 30  1  0
 30 31  1  0
 30 32  2  0
 32 33  1  0
 32  2  1  0
 26  9  1  0
 21 13  1  0
M  END
>  <cnnaffinity>  (1) 
4.83404

>  <plip>  (1) 
-0.07142857142857142

>  <filename>  (1) 
[H][c]1[n][c]([C]([H])([H])[O][N]2[C](=[O])[N]([c]3[c]([H])[n][c]([H])[c]([H])[c]3[H])[C]([H])([H])[C]2=[O])[c]([H])[c]([H])[c]1[H]

>  <combo1>  (1) 
-0.4048762306787106

$$$$
