
     RDKit          3D

 42 44  0  0  0  0  0  0  0  0999 V2000
    8.9833    2.7206   21.9116 O   0  0  0  0  0  0  0  0  0  0  0  0
    7.8037    2.5839   22.2359 C   0  0  0  0  0  0  0  0  0  0  0  0
    7.3150    1.2749   22.1243 N   0  0  0  0  0  0  0  0  0  0  0  0
    8.1103    0.1770   21.5434 C   0  0  0  0  0  0  0  0  0  0  0  0
    7.1897   -0.8541   20.8731 C   0  0  0  0  0  0  0  0  0  0  0  0
    6.5142   -0.2090   19.6908 C   0  0  0  0  0  0  0  0  0  0  0  0
    5.2606    0.3833   19.8298 C   0  0  0  0  0  0  0  0  0  0  0  0
    4.7510    1.0724   18.7294 C   0  0  0  0  0  0  0  0  0  0  0  0
    5.5052    1.1642   17.5531 C   0  0  0  0  0  0  0  0  0  0  0  0
    6.7024    0.5699   17.4089 N   0  0  0  0  0  0  0  0  0  0  0  0
    7.1911   -0.1095   18.4626 C   0  0  0  0  0  0  0  0  0  0  0  0
    8.1659   -0.5820   18.3771 H   0  0  0  0  0  0  0  0  0  0  0  0
    5.1073    1.7393   16.7238 H   0  0  0  0  0  0  0  0  0  0  0  0
    3.7874    1.5647   18.7773 H   0  0  0  0  0  0  0  0  0  0  0  0
    4.7228    0.3348   20.7774 H   0  0  0  0  0  0  0  0  0  0  0  0
    7.7864   -1.7002   20.5207 H   0  0  0  0  0  0  0  0  0  0  0  0
    6.4569   -1.2451   21.5882 H   0  0  0  0  0  0  0  0  0  0  0  0
    9.0228   -0.5030   22.5786 C   0  0  0  0  0  0  0  0  0  0  0  0
    9.8234   -1.6451   21.9453 C   0  0  0  0  0  0  0  0  0  0  0  0
   11.0578   -1.8211   22.8149 C   0  0  0  0  0  0  0  0  0  0  0  0
   11.2172   -0.5157   23.5984 C   0  0  0  0  0  0  0  0  0  0  0  0
   10.1136    0.4184   23.1215 C   0  0  0  0  0  0  0  0  0  0  0  0
    9.7429    1.0494   23.9346 H   0  0  0  0  0  0  0  0  0  0  0  0
   10.4971    1.0645   22.3229 H   0  0  0  0  0  0  0  0  0  0  0  0
   12.2053   -0.0733   23.4395 H   0  0  0  0  0  0  0  0  0  0  0  0
   11.0997   -0.7148   24.6685 H   0  0  0  0  0  0  0  0  0  0  0  0
   10.9208   -2.6608   23.5045 H   0  0  0  0  0  0  0  0  0  0  0  0
   11.9391   -2.0285   22.2000 H   0  0  0  0  0  0  0  0  0  0  0  0
   10.1347   -1.3655   20.9318 H   0  0  0  0  0  0  0  0  0  0  0  0
    9.2380   -2.5669   21.8868 H   0  0  0  0  0  0  0  0  0  0  0  0
    8.4167   -0.8875   23.4083 H   0  0  0  0  0  0  0  0  0  0  0  0
    8.7589    0.5852   20.7551 H   0  0  0  0  0  0  0  0  0  0  0  0
    6.3463    1.0957   22.3756 H   0  0  0  0  0  0  0  0  0  0  0  0
    6.9885    3.7801   22.7463 C   0  0  0  0  0  0  0  0  0  0  0  0
    7.5337    4.7224   23.5623 N   0  0  0  0  0  0  0  0  0  0  0  0
    6.7921    5.7331   24.0384 C   0  0  0  0  0  0  0  0  0  0  0  0
    5.4952    5.8834   23.7814 N   0  0  0  0  0  0  0  0  0  0  0  0
    4.9373    5.0275   22.9299 C   0  0  0  0  0  0  0  0  0  0  0  0
    5.6427    3.9585   22.3885 C   0  0  0  0  0  0  0  0  0  0  0  0
    4.7407    2.7844   21.1837 Br  0  0  0  0  0  0  0  0  0  0  0  0
    3.8852    5.1457   22.6940 H   0  0  0  0  0  0  0  0  0  0  0  0
    7.2580    6.4378   24.7208 H   0  0  0  0  0  0  0  0  0  0  0  0
  1  2  2  0
  2  3  1  0
  3  4  1  0
  4  5  1  0
  5  6  1  0
  6  7  2  0
  7  8  1  0
  8  9  2  0
  9 10  1  0
 10 11  2  0
 11 12  1  0
  9 13  1  0
  8 14  1  0
  7 15  1  0
  5 16  1  0
  5 17  1  0
  4 18  1  0
 18 19  1  0
 19 20  1  0
 20 21  1  0
 21 22  1  0
 22 23  1  0
 22 24  1  0
 21 25  1  0
 21 26  1  0
 20 27  1  0
 20 28  1  0
 19 29  1  0
 19 30  1  0
 18 31  1  0
  4 32  1  0
  3 33  1  0
  2 34  1  0
 34 35  2  0
 35 36  1  0
 36 37  2  0
 37 38  1  0
 38 39  2  0
 39 40  1  0
 38 41  1  0
 36 42  1  0
 11  6  1  0
 22 18  1  0
 39 34  1  0
M  END
>  <cnnaffinity>  (1) 
5.68664

>  <plip>  (1) 
-0.07142857142857142

>  <filename>  (1) 
[H][c]1[n][c]([H])[c]([Br])[c]([C](=[O])[N]([H])[C]([H])([C]([H])([H])[c]2[c]([H])[n][c]([H])[c]([H])[c]2[H])[C]2([H])[C]([H])([H])[C]([H])([H])[C]([H])([H])[C]2([H])[H])[n]1

>  <combo1>  (1) 
-0.3607967342878206

$$$$
