
     RDKit          3D

 32 34  0  0  0  0  0  0  0  0999 V2000
    5.1407   -3.4192   22.9345 H   0  0  0  0  0  0  0  0  0  0  0  0
    5.6638   -3.4102   23.8886 C   0  0  0  0  0  0  0  0  0  0  0  0
    6.8503   -2.8021   24.0401 C   0  0  0  0  0  0  0  0  0  0  0  0
    7.5044   -2.0349   22.9343 C   0  0  0  0  0  0  0  0  0  0  0  0
    8.8439   -1.9805   22.9092 N   0  0  0  0  0  0  0  0  0  0  0  0
    9.3936   -1.3047   21.9044 C   0  0  0  0  0  0  0  0  0  0  0  0
   10.4785   -1.2699   21.8851 H   0  0  0  0  0  0  0  0  0  0  0  0
    8.7610   -0.6737   20.9136 N   0  0  0  0  0  0  0  0  0  0  0  0
    7.4265   -0.7020   20.9635 C   0  0  0  0  0  0  0  0  0  0  0  0
    6.6754    0.0132   19.9118 C   0  0  0  0  0  0  0  0  0  0  0  0
    7.1859    0.0617   18.6088 C   0  0  0  0  0  0  0  0  0  0  0  0
    8.1274   -0.4276   18.3740 H   0  0  0  0  0  0  0  0  0  0  0  0
    6.5678    0.6685   17.5916 N   0  0  0  0  0  0  0  0  0  0  0  0
    5.4055    1.2869   17.8486 C   0  0  0  0  0  0  0  0  0  0  0  0
    4.9170    1.7727   17.0053 H   0  0  0  0  0  0  0  0  0  0  0  0
    4.8102    1.3086   19.1143 C   0  0  0  0  0  0  0  0  0  0  0  0
    3.8763    1.8414   19.2644 H   0  0  0  0  0  0  0  0  0  0  0  0
    5.4467    0.6474   20.1616 C   0  0  0  0  0  0  0  0  0  0  0  0
    5.0040    0.6409   21.1606 H   0  0  0  0  0  0  0  0  0  0  0  0
    6.7511   -1.3959   21.9563 C   0  0  0  0  0  0  0  0  0  0  0  0
    5.6772   -1.4326   21.9604 H   0  0  0  0  0  0  0  0  0  0  0  0
    7.5392   -2.8261   25.4066 C   0  0  0  0  0  0  0  0  0  0  0  0
    7.4496   -1.8301   25.8621 H   0  0  0  0  0  0  0  0  0  0  0  0
    8.6078   -3.0124   25.2722 H   0  0  0  0  0  0  0  0  0  0  0  0
    6.9330   -3.8627   26.3647 C   0  0  0  0  0  0  0  0  0  0  0  0
    7.2880   -3.6843   27.3861 H   0  0  0  0  0  0  0  0  0  0  0  0
    7.2761   -4.8686   26.0889 H   0  0  0  0  0  0  0  0  0  0  0  0
    5.4669   -3.8602   26.3478 N   0  0  0  0  0  0  0  0  0  0  0  0
    5.1756   -2.9020   26.5428 H   0  0  0  0  0  0  0  0  0  0  0  0
    4.9853   -4.1877   25.0030 C   0  0  0  0  0  0  0  0  0  0  0  0
    3.8988   -4.0493   24.9642 H   0  0  0  0  0  0  0  0  0  0  0  0
    5.1521   -5.2598   24.8286 H   0  0  0  0  0  0  0  0  0  0  0  0
  1  2  1  0
  2  3  2  0
  3  4  1  0
  4  5  2  0
  5  6  1  0
  6  7  1  0
  6  8  2  0
  8  9  1  0
  9 10  1  0
 10 11  2  0
 11 12  1  0
 11 13  1  0
 13 14  2  0
 14 15  1  0
 14 16  1  0
 16 17  1  0
 16 18  2  0
 18 19  1  0
  9 20  2  0
 20 21  1  0
  3 22  1  0
 22 23  1  0
 22 24  1  0
 22 25  1  0
 25 26  1  0
 25 27  1  0
 25 28  1  0
 28 29  1  0
 28 30  1  0
 30 31  1  0
 30 32  1  0
 30  2  1  0
 20  4  1  0
 18 10  1  0
M  END
>  <cnnaffinity>  (1) 
4.92443

>  <plip>  (1) 
-0.03571428571428571

>  <filename>  (1) 
[H][C]1=[C]([c]2[n][c]([H])[n][c](-[c]3[c]([H])[n][c]([H])[c]([H])[c]3[H])[c]2[H])[C]([H])([H])[C]([H])([H])[N]([H])[C]1([H])[H]

>  <combo1>  (1) 
-0.24601612573823367

$$$$
