
     RDKit          3D

 44 47  0  0  0  0  0  0  0  0999 V2000
    5.0181    1.7555   16.8541 H   0  0  0  0  0  0  0  0  0  0  0  0
    5.4197    1.3066   17.7620 C   0  0  0  0  0  0  0  0  0  0  0  0
    6.6115    0.7064   17.6438 N   0  0  0  0  0  0  0  0  0  0  0  0
    7.1358    0.1628   18.7557 C   0  0  0  0  0  0  0  0  0  0  0  0
    8.0820   -0.3563   18.5984 H   0  0  0  0  0  0  0  0  0  0  0  0
    6.5376    0.1901   20.0335 C   0  0  0  0  0  0  0  0  0  0  0  0
    7.1472   -0.5293   21.2530 C   0  0  1  0  0  0  0  0  0  0  0  0
    6.6262   -0.1779   22.1525 H   0  0  0  0  0  0  0  0  0  0  0  0
    6.7859   -2.0421   21.0895 C   0  0  0  0  0  0  0  0  0  0  0  0
    5.7530   -2.1847   21.4345 H   0  0  0  0  0  0  0  0  0  0  0  0
    6.7746   -2.3013   20.0228 H   0  0  0  0  0  0  0  0  0  0  0  0
    7.6884   -3.0598   21.7959 C   0  0  1  0  0  0  0  0  0  0  0  0
    7.3701   -4.0780   21.5426 H   0  0  0  0  0  0  0  0  0  0  0  0
    9.3775   -2.8066   21.1736 S   0  0  0  0  0  0  0  0  0  0  0  0
    9.4538   -1.3246   22.2138 C   0  0  2  0  0  0  0  0  0  0  0  0
   10.4989   -1.0108   22.2970 H   0  0  0  0  0  0  0  0  0  0  0  0
    8.8750   -1.7671   23.5763 C   0  0  0  0  0  0  0  0  0  0  0  0
    8.4628   -0.9037   24.1117 H   0  0  0  0  0  0  0  0  0  0  0  0
    9.6867   -2.1662   24.1912 H   0  0  0  0  0  0  0  0  0  0  0  0
    7.8144   -2.8674   23.3173 C   0  0  0  0  0  0  0  0  0  0  0  0
    8.1373   -3.8131   23.7698 H   0  0  0  0  0  0  0  0  0  0  0  0
    6.8420   -2.6162   23.7564 H   0  0  0  0  0  0  0  0  0  0  0  0
    8.6742   -0.1742   21.5259 C   0  0  2  0  0  0  0  0  0  0  0  0
    9.1479   -0.0464   20.5440 H   0  0  0  0  0  0  0  0  0  0  0  0
    8.9527    1.0535   22.3485 N   0  0  0  0  0  0  0  0  0  0  0  0
    7.8643    1.9366   22.6420 C   0  0  0  0  0  0  0  0  0  0  0  0
    7.3963    2.7700   21.6278 C   0  0  0  0  0  0  0  0  0  0  0  0
    7.8989    2.6579   20.6784 H   0  0  0  0  0  0  0  0  0  0  0  0
    6.2766    3.5810   21.8202 C   0  0  0  0  0  0  0  0  0  0  0  0
    5.8963    4.2065   21.0161 H   0  0  0  0  0  0  0  0  0  0  0  0
    5.6168    3.5746   23.0539 C   0  0  0  0  0  0  0  0  0  0  0  0
    4.7591    4.2308   23.2043 H   0  0  0  0  0  0  0  0  0  0  0  0
    6.0711    2.7338   24.0752 C   0  0  0  0  0  0  0  0  0  0  0  0
    5.5427    2.6881   25.0229 H   0  0  0  0  0  0  0  0  0  0  0  0
    7.2037    1.9264   23.8740 C   0  0  0  0  0  0  0  0  0  0  0  0
    7.5874    1.2662   24.6434 H   0  0  0  0  0  0  0  0  0  0  0  0
   10.1647    1.8016   21.9759 C   0  0  0  0  0  0  0  0  0  0  0  0
   10.5890    2.3011   22.8587 H   0  0  0  0  0  0  0  0  0  0  0  0
    9.9831    2.5790   21.2136 H   0  0  0  0  0  0  0  0  0  0  0  0
   10.9340    1.1292   21.5767 H   0  0  0  0  0  0  0  0  0  0  0  0
    5.2596    0.7702   20.1051 C   0  0  0  0  0  0  0  0  0  0  0  0
    4.7189    0.7874   21.0540 H   0  0  0  0  0  0  0  0  0  0  0  0
    4.6977    1.3507   18.9594 C   0  0  0  0  0  0  0  0  0  0  0  0
    3.7306    1.8429   18.9805 H   0  0  0  0  0  0  0  0  0  0  0  0
  1  2  1  0
  2  3  2  0
  3  4  1  0
  4  5  1  0
  4  6  2  0
  6  7  1  0
  7  8  1  1
  7  9  1  0
  9 10  1  0
  9 11  1  0
  9 12  1  0
 12 13  1  1
 12 14  1  0
 14 15  1  0
 15 16  1  1
 15 17  1  0
 17 18  1  0
 17 19  1  0
 17 20  1  0
 20 21  1  0
 20 22  1  0
 15 23  1  0
 23 24  1  6
 23 25  1  0
 25 26  1  0
 26 27  2  0
 27 28  1  0
 27 29  1  0
 29 30  1  0
 29 31  2  0
 31 32  1  0
 31 33  1  0
 33 34  1  0
 33 35  2  0
 35 36  1  0
 25 37  1  0
 37 38  1  0
 37 39  1  0
 37 40  1  0
  6 41  1  0
 41 42  1  0
 41 43  2  0
 43 44  1  0
 43  2  1  0
 23  7  1  0
 35 26  1  0
 20 12  1  0
M  END
>  <cnnaffinity>  (1) 
5.5229

>  <plip>  (1) 
-0.03571428571428571

>  <filename>  (1) 
[H][c]1[n][c]([H])[c]([C@@]2([H])[C]([H])([H])[C@@]3([H])[S][C@]([H])([C]([H])([H])[C]3([H])[H])[C@]2([H])[N]([c]2[c]([H])[c]([H])[c]([H])[c]([H])[c]2[H])[C]([H])([H])[H])[c]([H])[c]1[H]

>  <combo1>  (1) 
-0.2117745889205566

$$$$
