
     RDKit          3D

 30 31  0  0  0  0  0  0  0  0999 V2000
    4.9374    1.7931   16.9866 H   0  0  0  0  0  0  0  0  0  0  0  0
    5.4022    1.2935   17.8320 C   0  0  0  0  0  0  0  0  0  0  0  0
    6.5656    0.6782   17.5751 N   0  0  0  0  0  0  0  0  0  0  0  0
    7.1766    0.0677   18.5971 C   0  0  0  0  0  0  0  0  0  0  0  0
    8.1289   -0.4025   18.3661 H   0  0  0  0  0  0  0  0  0  0  0  0
    6.6559    0.0195   19.9029 C   0  0  0  0  0  0  0  0  0  0  0  0
    7.3725   -0.7540   20.9701 C   0  0  2  0  0  0  0  0  0  0  0  0
    7.0664   -0.4217   21.9740 H   0  0  0  0  0  0  0  0  0  0  0  0
    8.7846   -0.5246   20.8643 O   0  0  0  0  0  0  0  0  0  0  0  0
    9.4462   -1.6981   21.0197 C   0  0  0  0  0  0  0  0  0  0  0  0
   10.6315   -1.8233   21.1375 O   0  0  0  0  0  0  0  0  0  0  0  0
    8.5505   -2.7214   21.0266 N   0  0  0  0  0  0  0  0  0  0  0  0
    8.9279   -3.5999   20.7230 H   0  0  0  0  0  0  0  0  0  0  0  0
    7.1815   -2.2969   20.8735 C   0  0  1  0  0  0  0  0  0  0  0  0
    6.7059   -2.6059   19.9273 H   0  0  0  0  0  0  0  0  0  0  0  0
    6.3117   -2.8731   21.9885 C   0  0  0  0  0  0  0  0  0  0  0  0
    6.8376   -2.6935   22.9416 H   0  0  0  0  0  0  0  0  0  0  0  0
    5.3264   -2.3834   22.0240 H   0  0  0  0  0  0  0  0  0  0  0  0
    6.1440   -4.2592   21.7779 O   0  0  0  0  0  0  0  0  0  0  0  0
    5.4539   -4.8752   22.8460 C   0  0  0  0  0  0  0  0  0  0  0  0
    4.4569   -4.4133   22.9511 H   0  0  0  0  0  0  0  0  0  0  0  0
    5.9852   -4.6990   23.7992 H   0  0  0  0  0  0  0  0  0  0  0  0
    5.3342   -6.3630   22.5744 C   0  0  0  0  0  0  0  0  0  0  0  0
    4.8110   -6.5442   21.6304 H   0  0  0  0  0  0  0  0  0  0  0  0
    6.3205   -6.8359   22.5176 H   0  0  0  0  0  0  0  0  0  0  0  0
    4.7684   -6.8386   23.3837 H   0  0  0  0  0  0  0  0  0  0  0  0
    5.4359    0.6597   20.1505 C   0  0  0  0  0  0  0  0  0  0  0  0
    5.0029    0.6490   21.1546 H   0  0  0  0  0  0  0  0  0  0  0  0
    4.8012    1.3139   19.0949 C   0  0  0  0  0  0  0  0  0  0  0  0
    3.8679    1.8438   19.2376 H   0  0  0  0  0  0  0  0  0  0  0  0
  1  2  1  0
  2  3  2  0
  3  4  1  0
  4  5  1  0
  4  6  2  0
  6  7  1  0
  7  8  1  1
  7  9  1  0
  9 10  1  0
 10 11  2  0
 10 12  1  0
 12 13  1  0
 12 14  1  0
 14 15  1  6
 14 16  1  0
 16 17  1  0
 16 18  1  0
 16 19  1  0
 19 20  1  0
 20 21  1  0
 20 22  1  0
 20 23  1  0
 23 24  1  0
 23 25  1  0
 23 26  1  0
  6 27  1  0
 27 28  1  0
 27 29  2  0
 29 30  1  0
 29  2  1  0
 14  7  1  0
M  END
>  <cnnaffinity>  (1) 
4.46688

>  <plip>  (1) 
-0.10344827586206896

>  <filename>  (1) 
[H][c]1[n][c]([H])[c]([C@]2([H])[O][C](=[O])[N]([H])[C@@]2([H])[C]([H])([H])[O][C]([H])([H])[C]([H])([H])[H])[c]([H])[c]1[H]

>  <combo1>  (1) 
-0.6930686309983

$$$$
