
     RDKit          3D

 29 31  0  0  0  0  0  0  0  0999 V2000
    5.0291    1.3062   19.0796 C   0  0  0  0  0  0  0  0  0  0  0  0
    5.6332    1.2349   17.8183 C   0  0  0  0  0  0  0  0  0  0  0  0
    6.8028    0.6128   17.5943 N   0  0  0  0  0  0  0  0  0  0  0  0
    7.4067    0.0275   18.6367 C   0  0  0  0  0  0  0  0  0  0  0  0
    6.8518    0.0046   19.9367 C   0  0  0  0  0  0  0  0  0  0  0  0
    7.4867   -0.6698   21.0324 N   0  0  0  0  0  0  0  0  0  0  0  0
    6.9544   -1.6626   21.8243 C   0  0  0  0  0  0  0  0  0  0  0  0
    7.8383   -2.1328   22.6573 N   0  0  0  0  0  0  0  0  0  0  0  0
    9.0113   -1.4396   22.4376 N   0  0  0  0  0  0  0  0  0  0  0  0
    8.7766   -0.5752   21.4856 C   0  0  0  0  0  0  0  0  0  0  0  0
    9.6483    0.3400   20.9328 N   0  0  0  0  0  0  0  0  0  0  0  0
   10.9816    0.3768   21.5346 C   0  0  0  0  0  0  0  0  0  0  0  0
   10.9856    0.9039   22.9383 C   0  0  0  0  0  0  0  0  0  0  0  0
   11.1704    2.1598   23.4505 C   0  0  0  0  0  0  0  0  0  0  0  0
   11.1178    2.1383   24.8220 N   0  0  0  0  0  0  0  0  0  0  0  0
   10.8928    0.8914   25.1474 C   0  0  0  0  0  0  0  0  0  0  0  0
   10.8209    0.0968   24.0504 N   0  0  0  0  0  0  0  0  0  0  0  0
   10.4185   -0.8332   23.9982 H   0  0  0  0  0  0  0  0  0  0  0  0
   10.7669    0.5054   26.1528 H   0  0  0  0  0  0  0  0  0  0  0  0
   11.3395    3.0869   22.9118 H   0  0  0  0  0  0  0  0  0  0  0  0
   11.3813   -0.6471   21.5147 H   0  0  0  0  0  0  0  0  0  0  0  0
   11.6308    0.9877   20.8965 H   0  0  0  0  0  0  0  0  0  0  0  0
    9.1786    1.2386   20.9380 H   0  0  0  0  0  0  0  0  0  0  0  0
    5.9292   -1.9960   21.7411 H   0  0  0  0  0  0  0  0  0  0  0  0
    5.6462    0.6705   20.1616 C   0  0  0  0  0  0  0  0  0  0  0  0
    5.2308    0.7011   21.1708 H   0  0  0  0  0  0  0  0  0  0  0  0
    8.3698   -0.4532   18.4581 H   0  0  0  0  0  0  0  0  0  0  0  0
    5.1607    1.6903   16.9497 H   0  0  0  0  0  0  0  0  0  0  0  0
    4.1049    1.8593   19.2080 H   0  0  0  0  0  0  0  0  0  0  0  0
  1  2  2  0
  2  3  1  0
  3  4  2  0
  4  5  1  0
  5  6  1  0
  6  7  1  0
  7  8  2  0
  8  9  1  0
  9 10  2  0
 10 11  1  0
 11 12  1  0
 12 13  1  0
 13 14  2  0
 14 15  1  0
 15 16  2  0
 16 17  1  0
 17 18  1  0
 16 19  1  0
 14 20  1  0
 12 21  1  0
 12 22  1  0
 11 23  1  0
  7 24  1  0
  5 25  2  0
 25 26  1  0
  4 27  1  0
  2 28  1  0
  1 29  1  0
 25  1  1  0
 10  6  1  0
 17 13  1  0
M  END
>  <cnnaffinity>  (1) 
5.0155

>  <plip>  (1) 
-0.07142857142857142

>  <filename>  (1) 
[H][c]1[n][c]([H])[c](-[n]2[c]([H])[n][n][c]2[N]([H])[C]([H])([H])[c]2[c]([H])[n][c]([H])[n]2[H])[c]([H])[c]1[H]

>  <combo1>  (1) 
-0.49497495074429293

$$$$
