
     RDKit          3D

 34 36  0  0  0  0  0  0  0  0999 V2000
    5.0398    1.8914   16.9389 H   0  0  0  0  0  0  0  0  0  0  0  0
    5.4725    1.3401   17.7695 C   0  0  0  0  0  0  0  0  0  0  0  0
    6.6303    0.7038   17.5246 N   0  0  0  0  0  0  0  0  0  0  0  0
    7.2131    0.0580   18.5437 C   0  0  0  0  0  0  0  0  0  0  0  0
    8.1527   -0.4554   18.3387 H   0  0  0  0  0  0  0  0  0  0  0  0
    6.6670    0.0071   19.8411 C   0  0  0  0  0  0  0  0  0  0  0  0
    7.3700   -0.6180   20.9372 N   0  0  0  0  0  0  0  0  0  0  0  0
    8.5592   -0.0483   21.3629 C   0  0  0  0  0  0  0  0  0  0  0  0
    8.8890    0.8258   20.8062 H   0  0  0  0  0  0  0  0  0  0  0  0
    9.2830   -0.5452   22.4070 C   0  0  0  0  0  0  0  0  0  0  0  0
   10.6087    0.0541   22.7619 C   0  0  0  0  0  0  0  0  0  0  0  0
   10.6986    1.3839   23.2218 C   0  0  0  0  0  0  0  0  0  0  0  0
    9.7863    1.9630   23.3686 H   0  0  0  0  0  0  0  0  0  0  0  0
   11.9383    1.9577   23.5090 C   0  0  0  0  0  0  0  0  0  0  0  0
   11.9874    2.9770   23.8875 H   0  0  0  0  0  0  0  0  0  0  0  0
   13.1060    1.2206   23.3039 C   0  0  0  0  0  0  0  0  0  0  0  0
   14.0717    1.6808   23.4911 H   0  0  0  0  0  0  0  0  0  0  0  0
   13.0253   -0.1063   22.8703 C   0  0  0  0  0  0  0  0  0  0  0  0
   13.9377   -0.6885   22.7425 H   0  0  0  0  0  0  0  0  0  0  0  0
   11.7883   -0.7155   22.6172 C   0  0  0  0  0  0  0  0  0  0  0  0
   11.7624   -2.1807   22.2462 C   0  0  0  0  0  0  0  0  0  0  0  0
   11.0311   -2.4087   21.4620 H   0  0  0  0  0  0  0  0  0  0  0  0
   12.7495   -2.5018   21.9212 H   0  0  0  0  0  0  0  0  0  0  0  0
   11.4962   -2.7863   23.1194 H   0  0  0  0  0  0  0  0  0  0  0  0
    8.7638   -1.6922   23.0913 C   0  0  0  0  0  0  0  0  0  0  0  0
    9.3226   -2.1012   23.9341 H   0  0  0  0  0  0  0  0  0  0  0  0
    7.5915   -2.2730   22.6991 C   0  0  0  0  0  0  0  0  0  0  0  0
    7.1823   -3.1574   23.1596 H   0  0  0  0  0  0  0  0  0  0  0  0
    6.7973   -1.7651   21.5906 C   0  0  0  0  0  0  0  0  0  0  0  0
    5.7508   -2.2760   21.2183 O   0  0  0  0  0  0  0  0  0  0  0  0
    5.4322    0.6232   20.0654 C   0  0  0  0  0  0  0  0  0  0  0  0
    4.9690    0.5483   21.0471 H   0  0  0  0  0  0  0  0  0  0  0  0
    4.8320    1.3209   19.0140 C   0  0  0  0  0  0  0  0  0  0  0  0
    3.9026    1.8628   19.1552 H   0  0  0  0  0  0  0  0  0  0  0  0
  1  2  1  0
  2  3  2  0
  3  4  1  0
  4  5  1  0
  4  6  2  0
  6  7  1  0
  7  8  1  0
  8  9  1  0
  8 10  2  0
 10 11  1  0
 11 12  2  0
 12 13  1  0
 12 14  1  0
 14 15  1  0
 14 16  2  0
 16 17  1  0
 16 18  1  0
 18 19  1  0
 18 20  2  0
 20 21  1  0
 21 22  1  0
 21 23  1  0
 21 24  1  0
 10 25  1  0
 25 26  1  0
 25 27  2  0
 27 28  1  0
 27 29  1  0
 29 30  2  0
  6 31  1  0
 31 32  1  0
 31 33  2  0
 33 34  1  0
 33  2  1  0
 29  7  1  0
 20 11  1  0
M  END
>  <cnnaffinity>  (1) 
5.00122

>  <plip>  (1) 
-0.14285714285714285

>  <filename>  (1) 
[H][c]1[n][c]([H])[c](-[n]2[c]([H])[c](-[c]3[c]([H])[c]([H])[c]([H])[c]([H])[c]3[C]([H])([H])[H])[c]([H])[c]([H])[c]2=[O])[c]([H])[c]1[H]

>  <combo1>  (1) 
-0.9079010237173035

$$$$
