
     RDKit          3D

 28 28  0  0  0  0  0  0  0  0999 V2000
   10.8379   -0.1236   23.8050 H   0  0  0  0  0  0  0  0  0  0  0  0
   10.5204   -0.8580   24.3906 O   0  0  0  0  0  0  0  0  0  0  0  0
    9.8509   -1.3543   23.0906 P   0  0  0  0  0  0  0  0  0  0  0  0
   10.6988   -2.1732   22.2307 O   0  0  0  0  0  0  0  0  0  0  0  0
   10.0707    0.1159   23.2956 O   0  0  0  0  0  0  0  0  0  0  0  0
   10.1018   -0.0311   24.2702 H   0  0  0  0  0  0  0  0  0  0  0  0
    8.2604   -2.0391   22.8138 C   0  0  0  0  0  0  0  0  0  0  0  0
    8.3313   -2.6634   21.9308 H   0  0  0  0  0  0  0  0  0  0  0  0
    6.8916   -1.3266   22.8634 N   0  0  0  0  0  0  0  0  0  0  0  0
    6.0779   -1.8041   23.2914 H   0  0  0  0  0  0  0  0  0  0  0  0
    6.4692   -0.5771   21.8088 N   0  0  0  0  0  0  0  0  0  0  0  0
    7.1138   -0.6088   20.7073 N   0  0  0  0  0  0  0  0  0  0  0  0
    6.5587    0.1035   19.6438 C   0  0  0  0  0  0  0  0  0  0  0  0
    7.1971    0.0845   18.3921 C   0  0  0  0  0  0  0  0  0  0  0  0
    8.1154   -0.4879   18.2915 H   0  0  0  0  0  0  0  0  0  0  0  0
    6.7311    0.7336   17.3063 N   0  0  0  0  0  0  0  0  0  0  0  0
    5.5921    1.4416   17.4298 C   0  0  0  0  0  0  0  0  0  0  0  0
    5.2045    1.9751   16.5686 H   0  0  0  0  0  0  0  0  0  0  0  0
    4.8888    1.5123   18.6345 C   0  0  0  0  0  0  0  0  0  0  0  0
    3.9793    2.1007   18.6869 H   0  0  0  0  0  0  0  0  0  0  0  0
    5.3699    0.8395   19.7564 C   0  0  0  0  0  0  0  0  0  0  0  0
    4.8473    0.8779   20.7104 H   0  0  0  0  0  0  0  0  0  0  0  0
    9.0499   -2.8485   24.1081 P   0  0  0  0  0  0  0  0  0  0  0  0
   10.3226   -3.1549   24.7636 O   0  0  0  0  0  0  0  0  0  0  0  0
    9.2787   -4.2054   23.7653 O   0  0  0  0  0  0  0  0  0  0  0  0
   10.0575   -4.0022   24.3780 H   0  0  0  0  0  0  0  0  0  0  0  0
    8.9037   -2.2281   25.3978 O   0  0  0  0  0  0  0  0  0  0  0  0
    9.8023   -2.6967   25.4529 H   0  0  0  0  0  0  0  0  0  0  0  0
  1  2  1  0
  2  3  1  0
  3  4  2  0
  3  5  1  0
  5  6  1  0
  3  7  1  0
  7  8  1  0
  7  9  1  0
  9 10  1  0
  9 11  1  0
 11 12  2  3
 12 13  1  0
 13 14  2  0
 14 15  1  0
 14 16  1  0
 16 17  2  0
 17 18  1  0
 17 19  1  0
 19 20  1  0
 19 21  2  0
 21 22  1  0
  7 23  1  0
 23 24  2  0
 23 25  1  0
 25 26  1  0
 23 27  1  0
 27 28  1  0
 21 13  1  0
M  END
>  <cnnaffinity>  (1) 
4.40148

>  <plip>  (1) 
-0.06896551724137931

>  <filename>  (1) 
[H][O][P](=[O])([O][H])[C]([H])([N]([H])[N]=[N][c]1[c]([H])[n][c]([H])[c]([H])[c]1[H])[P](=[O])([O][H])[O][H]

>  <combo1>  (1) 
-0.3417020636367574

$$$$
