
     RDKit          3D

 37 39  0  0  0  0  0  0  0  0999 V2000
    8.7408   -0.3471   20.9484 O   0  0  0  0  0  0  0  0  0  0  0  0
    7.3430   -0.6243   21.0194 C   0  0  0  0  0  0  0  0  0  0  0  0
    7.2090   -2.1511   20.8159 C   0  0  0  0  0  0  0  0  0  0  0  0
    7.4200   -3.0513   22.0174 N   0  0  0  0  0  4  0  0  0  0  0  0
    8.7580   -2.8174   22.7276 C   0  0  0  0  0  0  0  0  0  0  0  0
    9.0118   -3.9859   23.6688 C   0  0  0  0  0  0  0  0  0  0  0  0
    7.8350   -4.3012   24.5801 C   0  0  0  0  0  0  0  0  0  0  0  0
    7.9941   -5.0602   25.7538 C   0  0  0  0  0  0  0  0  0  0  0  0
    6.9964   -5.4292   26.5632 N   0  0  0  0  0  0  0  0  0  0  0  0
    5.7625   -5.0452   26.2169 C   0  0  0  0  0  0  0  0  0  0  0  0
    5.4838   -4.2852   25.0815 C   0  0  0  0  0  0  0  0  0  0  0  0
    6.5351   -3.8926   24.2382 C   0  0  0  0  0  0  0  0  0  0  0  0
    6.2758   -3.0106   23.0337 C   0  0  0  0  0  0  0  0  0  0  0  0
    5.3499   -3.3173   22.5447 H   0  0  0  0  0  0  0  0  0  0  0  0
    6.1336   -1.9731   23.3570 H   0  0  0  0  0  0  0  0  0  0  0  0
    4.4564   -4.0146   24.8714 H   0  0  0  0  0  0  0  0  0  0  0  0
    4.9604   -5.3595   26.8809 H   0  0  0  0  0  0  0  0  0  0  0  0
    8.9882   -5.3857   26.0557 H   0  0  0  0  0  0  0  0  0  0  0  0
    9.2216   -4.8648   23.0476 H   0  0  0  0  0  0  0  0  0  0  0  0
    9.9178   -3.7968   24.2524 H   0  0  0  0  0  0  0  0  0  0  0  0
    8.7020   -1.8726   23.2711 H   0  0  0  0  0  0  0  0  0  0  0  0
    9.5495   -2.7260   21.9788 H   0  0  0  0  0  0  0  0  0  0  0  0
    7.4632   -4.0466   21.6832 H   0  0  0  0  0  0  0  0  0  0  0  0
    6.2556   -2.3864   20.3321 H   0  0  0  0  0  0  0  0  0  0  0  0
    7.9980   -2.3428   20.0958 H   0  0  0  0  0  0  0  0  0  0  0  0
    6.6134    0.1223   19.9301 C   0  0  0  0  0  0  0  0  0  0  0  0
    5.3683    0.7348   20.1248 C   0  0  0  0  0  0  0  0  0  0  0  0
    4.7564    1.3621   19.0386 C   0  0  0  0  0  0  0  0  0  0  0  0
    5.3968    1.3421   17.7954 C   0  0  0  0  0  0  0  0  0  0  0  0
    6.5721    0.7330   17.5858 N   0  0  0  0  0  0  0  0  0  0  0  0
    7.1597    0.1501   18.6350 C   0  0  0  0  0  0  0  0  0  0  0  0
    8.1186   -0.3323   18.4456 H   0  0  0  0  0  0  0  0  0  0  0  0
    4.9537    1.8264   16.9272 H   0  0  0  0  0  0  0  0  0  0  0  0
    3.8086    1.8778   19.1324 H   0  0  0  0  0  0  0  0  0  0  0  0
    4.8913    0.7485   21.1096 H   0  0  0  0  0  0  0  0  0  0  0  0
    6.9391   -0.3500   22.0068 H   0  0  0  0  0  0  0  0  0  0  0  0
    8.8453    0.6161   20.9571 H   0  0  0  0  0  0  0  0  0  0  0  0
  1  2  1  0
  2  3  1  0
  3  4  1  0
  4  5  1  0
  5  6  1  0
  6  7  1  0
  7  8  2  0
  8  9  1  0
  9 10  2  0
 10 11  1  0
 11 12  2  0
 12 13  1  0
 13 14  1  0
 13 15  1  0
 11 16  1  0
 10 17  1  0
  8 18  1  0
  6 19  1  0
  6 20  1  0
  5 21  1  0
  5 22  1  0
  4 23  1  0
  3 24  1  0
  3 25  1  0
  2 26  1  0
 26 27  2  0
 27 28  1  0
 28 29  2  0
 29 30  1  0
 30 31  2  0
 31 32  1  0
 29 33  1  0
 28 34  1  0
 27 35  1  0
  2 36  1  0
  1 37  1  0
 13  4  1  0
 31 26  1  0
 12  7  1  0
M  CHG  1   4   1
M  END
>  <cnnaffinity>  (1) 
4.34251

>  <plip>  (1) 
-0.06896551724137931

>  <filename>  (1) 
[H][O][C]([H])([c]1[c]([H])[n][c]([H])[c]([H])[c]1[H])[C]([H])([H])[N+]1([H])[C]([H])([H])[c]2[c]([H])[c]([H])[n][c]([H])[c]2[C]([H])([H])[C]1([H])[H]

>  <combo1>  (1) 
-0.38945190006575137

$$$$
