
     RDKit          3D

 48 52  0  0  0  0  0  0  0  0999 V2000
    5.1378    5.3450   27.8108 H   0  0  0  0  0  0  0  0  0  0  0  0
    5.1285    5.4297   26.7258 C   0  0  0  0  0  0  0  0  0  0  0  0
    5.4151    4.3101   26.0639 N   0  0  0  0  0  0  0  0  0  0  0  0
    5.4612    4.3931   24.7256 C   0  0  0  0  0  0  0  0  0  0  0  0
    5.8599    3.2536   24.0701 N   0  0  0  0  0  0  0  0  0  0  0  0
    6.3622    3.2876   22.6883 C   0  0  0  0  0  0  0  0  0  0  0  0
    6.8855    4.2298   22.4831 H   0  0  0  0  0  0  0  0  0  0  0  0
    5.5369    3.1741   21.9588 H   0  0  0  0  0  0  0  0  0  0  0  0
    7.3516    2.1455   22.4653 C   0  0  0  0  0  0  0  0  0  0  0  0
    7.6723    2.1167   21.4184 H   0  0  0  0  0  0  0  0  0  0  0  0
    8.2545    2.2889   23.0887 H   0  0  0  0  0  0  0  0  0  0  0  0
    6.6968    0.8709   22.8061 N   0  0  0  0  0  0  0  0  0  0  0  0
    7.3684   -0.2339   22.2876 C   0  0  0  0  0  0  0  0  0  0  0  0
    7.3919   -0.6371   20.9044 C   0  0  0  0  0  0  0  0  0  0  0  0
    6.6313    0.0089   19.8193 C   0  0  0  0  0  0  0  0  0  0  0  0
    7.1311    0.0148   18.5040 C   0  0  0  0  0  0  0  0  0  0  0  0
    8.0481   -0.5215   18.2677 H   0  0  0  0  0  0  0  0  0  0  0  0
    6.5486    0.6580   17.4883 N   0  0  0  0  0  0  0  0  0  0  0  0
    5.4085    1.3163   17.7482 C   0  0  0  0  0  0  0  0  0  0  0  0
    4.9625    1.8491   16.9125 H   0  0  0  0  0  0  0  0  0  0  0  0
    4.7965    1.3352   19.0055 C   0  0  0  0  0  0  0  0  0  0  0  0
    3.8579    1.8649   19.1374 H   0  0  0  0  0  0  0  0  0  0  0  0
    5.4192    0.6838   20.0661 C   0  0  0  0  0  0  0  0  0  0  0  0
    4.9735    0.6898   21.0624 H   0  0  0  0  0  0  0  0  0  0  0  0
    8.2310   -1.6580   20.7208 N   0  0  0  0  0  0  0  0  0  0  0  0
    8.7116   -1.8824   21.9451 N   0  0  0  0  0  0  0  0  0  0  0  0
    8.2731   -1.0710   22.9100 C   0  0  0  0  0  0  0  0  0  0  0  0
    8.9852   -1.3294   24.2055 C   0  0  0  0  0  0  0  0  0  0  0  0
    9.4853   -0.4287   24.5789 H   0  0  0  0  0  0  0  0  0  0  0  0
    8.2947   -1.6692   24.9886 H   0  0  0  0  0  0  0  0  0  0  0  0
   10.0285   -2.4059   23.7975 C   0  0  0  0  0  0  0  0  0  0  0  0
   10.0790   -3.2198   24.5192 H   0  0  0  0  0  0  0  0  0  0  0  0
   11.0109   -1.9507   23.7327 H   0  0  0  0  0  0  0  0  0  0  0  0
    9.6581   -2.8789   22.3666 C   0  0  0  0  0  0  0  0  0  0  0  0
    9.2029   -3.8734   22.3311 H   0  0  0  0  0  0  0  0  0  0  0  0
   10.5177   -2.8453   21.7003 H   0  0  0  0  0  0  0  0  0  0  0  0
    6.3364    0.8399   24.2272 C   0  0  0  0  0  0  0  0  0  0  0  0
    5.8873   -0.1256   24.4844 H   0  0  0  0  0  0  0  0  0  0  0  0
    7.2155    1.0019   24.8784 H   0  0  0  0  0  0  0  0  0  0  0  0
    5.3181    1.9523   24.4930 C   0  0  0  0  0  0  0  0  0  0  0  0
    5.0767    1.9871   25.5594 H   0  0  0  0  0  0  0  0  0  0  0  0
    4.3913    1.7276   23.9331 H   0  0  0  0  0  0  0  0  0  0  0  0
    5.1255    5.5630   24.0085 C   0  0  0  0  0  0  0  0  0  0  0  0
    5.1234    5.5229   22.9257 H   0  0  0  0  0  0  0  0  0  0  0  0
    4.7972    6.7055   24.7177 C   0  0  0  0  0  0  0  0  0  0  0  0
    4.5392    7.6224   24.1834 H   0  0  0  0  0  0  0  0  0  0  0  0
    4.8174    6.6472   26.1160 C   0  0  0  0  0  0  0  0  0  0  0  0
    4.5987    7.5174   26.7169 H   0  0  0  0  0  0  0  0  0  0  0  0
  1  2  1  0
  2  3  2  0
  3  4  1  0
  4  5  1  0
  5  6  1  0
  6  7  1  0
  6  8  1  0
  6  9  1  0
  9 10  1  0
  9 11  1  0
  9 12  1  0
 12 13  1  0
 13 14  1  0
 14 15  1  0
 15 16  2  0
 16 17  1  0
 16 18  1  0
 18 19  2  0
 19 20  1  0
 19 21  1  0
 21 22  1  0
 21 23  2  0
 23 24  1  0
 14 25  2  0
 25 26  1  0
 26 27  1  0
 27 28  1  0
 28 29  1  0
 28 30  1  0
 28 31  1  0
 31 32  1  0
 31 33  1  0
 31 34  1  0
 34 35  1  0
 34 36  1  0
 12 37  1  0
 37 38  1  0
 37 39  1  0
 37 40  1  0
 40 41  1  0
 40 42  1  0
  4 43  2  0
 43 44  1  0
 43 45  1  0
 45 46  1  0
 45 47  2  0
 47 48  1  0
 47  2  1  0
 40  5  1  0
 27 13  2  0
 23 15  1  0
 34 26  1  0
M  END
>  <cnnaffinity>  (1) 
5.74739

>  <plip>  (1) 
-0.06896551724137931

>  <filename>  (1) 
[H][c]1[n][c]([N]2[C]([H])([H])[C]([H])([H])[N]([c]3[c](-[c]4[c]([H])[n][c]([H])[c]([H])[c]4[H])[n][n]4[c]3[C]([H])([H])[C]([H])([H])[C]4([H])[H])[C]([H])([H])[C]2([H])[H])[c]([H])[c]([H])[c]1[H]

>  <combo1>  (1) 
-0.3813782207667087

$$$$
