
     RDKit          3D

 48 49  0  0  0  0  0  0  0  0999 V2000
    6.1343   -5.5403   31.1778 N   0  0  0  0  0  4  0  0  0  0  0  0
    4.7459   -4.9626   31.2999 C   0  0  0  0  0  0  0  0  0  0  0  0
    4.0014   -4.9500   29.9625 C   0  0  0  0  0  0  0  0  0  0  0  0
    4.5974   -4.0452   28.8701 C   0  0  0  0  0  0  0  0  0  0  0  0
    5.4692   -4.7939   27.8577 C   0  0  0  0  0  0  0  0  0  0  0  0
    6.2466   -3.8823   26.9094 C   0  0  0  0  0  0  0  0  0  0  0  0
    5.3296   -3.0858   25.9675 C   0  0  0  0  0  0  0  0  0  0  0  0
    6.0799   -2.2915   24.9786 N   0  0  0  0  0  4  0  0  0  0  0  0
    6.5840   -3.1036   23.8229 C   0  0  0  0  0  0  0  0  0  0  0  0
    7.3533   -2.2087   22.8943 C   0  0  0  0  0  0  0  0  0  0  0  0
    8.7425   -2.0325   23.0328 C   0  0  0  0  0  0  0  0  0  0  0  0
    9.4487   -1.1999   22.1588 C   0  0  0  0  0  0  0  0  0  0  0  0
    8.7771   -0.5401   21.1289 C   0  0  0  0  0  0  0  0  0  0  0  0
    7.3889   -0.7013   20.9722 C   0  0  0  0  0  0  0  0  0  0  0  0
    6.6582    0.0145   19.8999 C   0  0  0  0  0  0  0  0  0  0  0  0
    5.4313    0.6508   20.1501 C   0  0  0  0  0  0  0  0  0  0  0  0
    4.8035    1.3171   19.0992 C   0  0  0  0  0  0  0  0  0  0  0  0
    5.3986    1.2976   17.8308 C   0  0  0  0  0  0  0  0  0  0  0  0
    6.5579    0.6772   17.5679 N   0  0  0  0  0  0  0  0  0  0  0  0
    7.1675    0.0744   18.5901 C   0  0  0  0  0  0  0  0  0  0  0  0
    8.1082   -0.4231   18.3633 H   0  0  0  0  0  0  0  0  0  0  0  0
    4.9158    1.7871   16.9885 H   0  0  0  0  0  0  0  0  0  0  0  0
    3.8700    1.8485   19.2523 H   0  0  0  0  0  0  0  0  0  0  0  0
    5.0107    0.6383   21.1596 H   0  0  0  0  0  0  0  0  0  0  0  0
    6.6948   -1.5396   21.8566 C   0  0  0  0  0  0  0  0  0  0  0  0
    5.6254   -1.6675   21.6980 H   0  0  0  0  0  0  0  0  0  0  0  0
    9.3002    0.1248   20.4481 H   0  0  0  0  0  0  0  0  0  0  0  0
   10.5226   -1.0663   22.2739 H   0  0  0  0  0  0  0  0  0  0  0  0
    9.2720   -2.5471   23.8301 H   0  0  0  0  0  0  0  0  0  0  0  0
    7.2312   -3.9154   24.1675 H   0  0  0  0  0  0  0  0  0  0  0  0
    5.7407   -3.5684   23.3007 H   0  0  0  0  0  0  0  0  0  0  0  0
    5.5259   -1.5087   24.5449 H   0  0  0  0  0  0  0  0  0  0  0  0
    6.9286   -1.8599   25.4286 H   0  0  0  0  0  0  0  0  0  0  0  0
    4.6694   -2.4305   26.5411 H   0  0  0  0  0  0  0  0  0  0  0  0
    4.6798   -3.7979   25.4425 H   0  0  0  0  0  0  0  0  0  0  0  0
    6.9594   -4.4912   26.3332 H   0  0  0  0  0  0  0  0  0  0  0  0
    6.8466   -3.1721   27.4909 H   0  0  0  0  0  0  0  0  0  0  0  0
    4.8270   -5.4670   27.2736 H   0  0  0  0  0  0  0  0  0  0  0  0
    6.1684   -5.4593   28.3793 H   0  0  0  0  0  0  0  0  0  0  0  0
    3.7903   -3.5242   28.3390 H   0  0  0  0  0  0  0  0  0  0  0  0
    5.1854   -3.2392   29.3284 H   0  0  0  0  0  0  0  0  0  0  0  0
    2.9739   -4.6366   30.1768 H   0  0  0  0  0  0  0  0  0  0  0  0
    3.9126   -5.9774   29.5869 H   0  0  0  0  0  0  0  0  0  0  0  0
    4.1752   -5.5336   32.0385 H   0  0  0  0  0  0  0  0  0  0  0  0
    4.8153   -3.9350   31.6677 H   0  0  0  0  0  0  0  0  0  0  0  0
    6.0901   -6.4560   30.6909 H   0  0  0  0  0  0  0  0  0  0  0  0
    6.7041   -4.8925   30.6072 H   0  0  0  0  0  0  0  0  0  0  0  0
    6.5937   -5.6444   32.1012 H   0  0  0  0  0  0  0  0  0  0  0  0
  1  2  1  0
  2  3  1  0
  3  4  1  0
  4  5  1  0
  5  6  1  0
  6  7  1  0
  7  8  1  0
  8  9  1  0
  9 10  1  0
 10 11  2  0
 11 12  1  0
 12 13  2  0
 13 14  1  0
 14 15  1  0
 15 16  2  0
 16 17  1  0
 17 18  2  0
 18 19  1  0
 19 20  2  0
 20 21  1  0
 18 22  1  0
 17 23  1  0
 16 24  1  0
 14 25  2  0
 25 26  1  0
 13 27  1  0
 12 28  1  0
 11 29  1  0
  9 30  1  0
  9 31  1  0
  8 32  1  0
  8 33  1  0
  7 34  1  0
  7 35  1  0
  6 36  1  0
  6 37  1  0
  5 38  1  0
  5 39  1  0
  4 40  1  0
  4 41  1  0
  3 42  1  0
  3 43  1  0
  2 44  1  0
  2 45  1  0
  1 46  1  0
  1 47  1  0
  1 48  1  0
 25 10  1  0
 20 15  1  0
M  CHG  2   1   1   8   1
M  END
>  <cnnaffinity>  (1) 
4.44453

>  <plip>  (1) 
-0.06666666666666667

>  <filename>  (1) 
[H][c]1[n][c]([H])[c](-[c]2[c]([H])[c]([H])[c]([H])[c]([C]([H])([H])[N+]([H])([H])[C]([H])([H])[C]([H])([H])[C]([H])([H])[C]([H])([H])[C]([H])([H])[C]([H])([H])[N+]([H])([H])[H])[c]2[H])[c]([H])[c]1[H]

>  <combo1>  (1) 
-0.34602390503383784

$$$$
