
     RDKit          3D

 42 44  0  0  0  0  0  0  0  0999 V2000
    7.5099    1.2269   22.5178 C   0  0  0  0  0  0  0  0  0  0  0  0
    7.7431   -0.2297   22.1614 C   0  0  0  0  0  0  0  0  0  0  0  0
    7.4078   -0.7296   20.9584 C   0  0  0  0  0  0  0  0  0  0  0  0
    6.6485   -0.0110   19.9054 C   0  0  0  0  0  0  0  0  0  0  0  0
    5.4307    0.6521   20.1399 C   0  0  0  0  0  0  0  0  0  0  0  0
    4.7965    1.3141   19.0875 C   0  0  0  0  0  0  0  0  0  0  0  0
    5.3945    1.3009   17.8256 C   0  0  0  0  0  0  0  0  0  0  0  0
    6.5550    0.6721   17.5712 N   0  0  0  0  0  0  0  0  0  0  0  0
    7.1529    0.0434   18.5873 C   0  0  0  0  0  0  0  0  0  0  0  0
    8.1028   -0.4384   18.3536 H   0  0  0  0  0  0  0  0  0  0  0  0
    4.9313    1.8091   16.9818 H   0  0  0  0  0  0  0  0  0  0  0  0
    3.8654    1.8499   19.2325 H   0  0  0  0  0  0  0  0  0  0  0  0
    4.9896    0.6375   21.1350 H   0  0  0  0  0  0  0  0  0  0  0  0
    7.7380   -1.7432   20.6938 H   0  0  0  0  0  0  0  0  0  0  0  0
    8.4672   -1.1415   23.1361 C   0  0  0  0  0  0  0  0  0  0  0  0
    9.3939   -1.8675   22.7807 O   0  0  0  0  0  0  0  0  0  0  0  0
    8.0326   -1.1719   24.4361 N   0  0  0  0  0  0  0  0  0  0  0  0
    6.8360   -0.5340   24.9881 C   0  0  0  0  0  0  0  0  0  0  0  0
    6.6633   -1.1755   26.3804 C   0  0  0  0  0  0  0  0  0  0  0  0
    8.0114   -1.8451   26.7305 C   0  0  1  0  0  0  0  0  0  0  0  0
    7.8826   -3.2517   27.3239 C   0  0  0  0  0  0  0  0  0  0  0  0
    7.8335   -4.1986   26.1425 N   0  0  0  0  0  4  0  0  0  0  0  0
    8.2377   -5.5835   26.4798 C   0  0  0  0  0  0  0  0  0  0  0  0
    9.2706   -5.5825   26.8610 H   0  0  0  0  0  0  0  0  0  0  0  0
    8.2027   -6.2335   25.6009 H   0  0  0  0  0  0  0  0  0  0  0  0
    7.6000   -6.0106   27.2611 H   0  0  0  0  0  0  0  0  0  0  0  0
    8.6895   -3.5427   25.0665 C   0  0  0  0  0  0  0  0  0  0  0  0
    8.7475   -2.0302   25.3944 C   0  0  1  0  0  0  0  0  0  0  0  0
    9.7960   -1.7154   25.4381 H   0  0  0  0  0  0  0  0  0  0  0  0
    8.2717   -3.7168   24.0749 H   0  0  0  0  0  0  0  0  0  0  0  0
    9.6946   -3.9730   25.0944 H   0  0  0  0  0  0  0  0  0  0  0  0
    6.8421   -4.1743   25.7991 H   0  0  0  0  0  0  0  0  0  0  0  0
    6.9763   -3.3692   27.9213 H   0  0  0  0  0  0  0  0  0  0  0  0
    8.7473   -3.5208   27.9366 H   0  0  0  0  0  0  0  0  0  0  0  0
    8.5947   -1.1960   27.3930 H   0  0  0  0  0  0  0  0  0  0  0  0
    5.8557   -1.9194   26.3479 H   0  0  0  0  0  0  0  0  0  0  0  0
    6.3862   -0.4198   27.1237 H   0  0  0  0  0  0  0  0  0  0  0  0
    6.9538    0.5557   25.0546 H   0  0  0  0  0  0  0  0  0  0  0  0
    5.9704   -0.7210   24.3379 H   0  0  0  0  0  0  0  0  0  0  0  0
    8.2054    1.5811   23.2831 H   0  0  0  0  0  0  0  0  0  0  0  0
    7.6450    1.8490   21.6252 H   0  0  0  0  0  0  0  0  0  0  0  0
    6.4914    1.4219   22.8790 H   0  0  0  0  0  0  0  0  0  0  0  0
  1  2  1  0
  2  3  2  3
  3  4  1  0
  4  5  2  0
  5  6  1  0
  6  7  2  0
  7  8  1  0
  8  9  2  0
  9 10  1  0
  7 11  1  0
  6 12  1  0
  5 13  1  0
  3 14  1  0
  2 15  1  0
 15 16  2  0
 15 17  1  0
 17 18  1  0
 18 19  1  0
 19 20  1  0
 20 21  1  0
 21 22  1  0
 22 23  1  0
 23 24  1  0
 23 25  1  0
 23 26  1  0
 22 27  1  0
 27 28  1  0
 28 29  1  1
 27 30  1  0
 27 31  1  0
 22 32  1  0
 21 33  1  0
 21 34  1  0
 20 35  1  1
 19 36  1  0
 19 37  1  0
 18 38  1  0
 18 39  1  0
  1 40  1  0
  1 41  1  0
  1 42  1  0
  9  4  1  0
 28 17  1  0
 28 20  1  0
M  CHG  1  22   1
M  END
>  <cnnaffinity>  (1) 
4.80195

>  <plip>  (1) 
-0.0

>  <filename>  (1) 
[H][C](=[C]([C](=[O])[N]1[C]([H])([H])[C]([H])([H])[C@@]2([H])[C]([H])([H])[N+]([H])([C]([H])([H])[H])[C]([H])([H])[C@@]12[H])[C]([H])([H])[H])[c]1[c]([H])[n][c]([H])[c]([H])[c]1[H]

>  <combo1>  (1) 
-5.876705388219059e-06

$$$$
