
     RDKit          3D

 40 43  0  0  0  0  0  0  0  0999 V2000
    4.9610    1.7923   16.8872 H   0  0  0  0  0  0  0  0  0  0  0  0
    5.4132    1.2964   17.7468 C   0  0  0  0  0  0  0  0  0  0  0  0
    6.5637    0.6448   17.5117 N   0  0  0  0  0  0  0  0  0  0  0  0
    7.1511    0.0301   18.5474 C   0  0  0  0  0  0  0  0  0  0  0  0
    8.0633   -0.5212   18.3068 H   0  0  0  0  0  0  0  0  0  0  0  0
    6.6618    0.0406   19.8655 C   0  0  0  0  0  0  0  0  0  0  0  0
    7.4092   -0.6196   21.0178 C   0  0  0  0  0  0  0  0  0  0  0  0
    8.0006   -1.4599   20.6315 H   0  0  0  0  0  0  0  0  0  0  0  0
    6.6851   -1.0365   21.7297 H   0  0  0  0  0  0  0  0  0  0  0  0
    8.3355    0.2635   21.8062 C   0  0  0  0  0  0  0  0  0  0  0  0
    8.5746    1.5352   21.6030 N   0  0  0  0  0  0  0  0  0  0  0  0
    9.4798    1.9177   22.5362 N   0  0  0  0  0  0  0  0  0  0  0  0
    9.8041    0.9360   23.2930 N   0  0  0  0  0  0  0  0  0  0  0  0
    9.0936   -0.1355   22.8856 N   0  0  0  0  0  0  0  0  0  0  0  0
    9.3370   -1.3649   23.4982 N   0  0  0  0  0  0  0  0  0  0  0  0
    8.8805   -2.6280   22.9253 C   0  0  0  0  0  0  0  0  0  0  0  0
    7.7825   -2.6492   22.8221 H   0  0  0  0  0  0  0  0  0  0  0  0
    9.3174   -2.8048   21.9302 H   0  0  0  0  0  0  0  0  0  0  0  0
    9.3392   -3.6597   23.9647 C   0  0  0  0  0  0  0  0  0  0  0  0
    8.7600   -4.5863   23.9178 H   0  0  0  0  0  0  0  0  0  0  0  0
   10.3871   -3.9202   23.7821 H   0  0  0  0  0  0  0  0  0  0  0  0
    9.2175   -2.9405   25.3100 C   0  0  2  0  0  0  0  0  0  0  0  0
    9.9787   -3.2947   26.0099 H   0  0  0  0  0  0  0  0  0  0  0  0
    7.8605   -3.0126   26.0381 C   0  0  0  0  0  0  0  0  0  0  0  0
    7.0161   -3.1843   25.3381 H   0  0  0  0  0  0  0  0  0  0  0  0
    7.8325   -3.8374   26.7649 H   0  0  0  0  0  0  0  0  0  0  0  0
    7.7835   -1.7193   26.7163 N   0  0  0  0  0  0  0  0  0  0  0  0
    6.4903   -1.3733   27.2760 C   0  0  0  0  0  0  0  0  0  0  0  0
    6.1518   -2.1375   27.9842 H   0  0  0  0  0  0  0  0  0  0  0  0
    5.6989   -1.2464   26.5115 H   0  0  0  0  0  0  0  0  0  0  0  0
    6.5728   -0.4321   27.8310 H   0  0  0  0  0  0  0  0  0  0  0  0
    8.2917   -0.7236   25.7630 C   0  0  0  0  0  0  0  0  0  0  0  0
    8.6677    0.1620   26.2949 H   0  0  0  0  0  0  0  0  0  0  0  0
    7.5229   -0.3798   25.0537 H   0  0  0  0  0  0  0  0  0  0  0  0
    9.4110   -1.4364   24.9807 C   0  0  2  0  0  0  0  0  0  0  0  0
   10.3899   -1.0621   25.2984 H   0  0  0  0  0  0  0  0  0  0  0  0
    5.4446    0.7035   20.0781 C   0  0  0  0  0  0  0  0  0  0  0  0
    5.0043    0.7132   21.0764 H   0  0  0  0  0  0  0  0  0  0  0  0
    4.8075    1.3426   19.0057 C   0  0  0  0  0  0  0  0  0  0  0  0
    3.8722    1.8775   19.1292 H   0  0  0  0  0  0  0  0  0  0  0  0
  1  2  1  0
  2  3  2  0
  3  4  1  0
  4  5  1  0
  4  6  2  0
  6  7  1  0
  7  8  1  0
  7  9  1  0
  7 10  1  0
 10 11  2  0
 11 12  1  0
 12 13  2  0
 13 14  1  0
 14 15  1  0
 15 16  1  0
 16 17  1  0
 16 18  1  0
 16 19  1  0
 19 20  1  0
 19 21  1  0
 19 22  1  0
 22 23  1  1
 22 24  1  0
 24 25  1  0
 24 26  1  0
 24 27  1  0
 27 28  1  0
 28 29  1  0
 28 30  1  0
 28 31  1  0
 27 32  1  0
 32 33  1  0
 32 34  1  0
 32 35  1  0
 35 36  1  1
  6 37  1  0
 37 38  1  0
 37 39  2  0
 39 40  1  0
 39  2  1  0
 14 10  1  0
 35 15  1  0
 35 22  1  0
M  END
>  <cnnaffinity>  (1) 
5.16877

>  <plip>  (1) 
-0.10714285714285714

>  <filename>  (1) 
[H][c]1[n][c]([H])[c]([C]([H])([H])[c]2[n][n][n][n]2[N]2[C]([H])([H])[C]([H])([H])[C@]3([H])[C]([H])([H])[N]([C]([H])([H])[H])[C]([H])([H])[C@]23[H])[c]([H])[c]1[H]

>  <combo1>  (1) 
-0.6469097389967884

$$$$
