
     RDKit          3D

 34 35  0  0  0  0  0  0  0  0999 V2000
    8.2500   -1.9252   20.5384 O   0  0  0  0  0  0  0  0  0  0  0  0
    7.5203   -0.8354   21.1670 S   0  0  0  0  0  0  0  0  0  0  0  0
    6.6031   -1.0654   22.2758 O   0  0  0  0  0  0  0  0  0  0  0  0
    8.7897    0.2774   21.7476 C   0  0  0  0  0  0  0  0  0  0  0  0
    8.2937    1.5975   22.3570 C   0  0  0  0  0  0  0  0  0  0  0  0
    9.4337    2.4466   22.9049 C   0  0  0  0  0  0  0  0  0  0  0  0
    8.8512    3.6373   23.4198 O   0  0  0  0  0  0  0  0  0  0  0  0
    9.6251    4.6093   23.9657 C   0  0  0  0  0  0  0  0  0  0  0  0
   11.0218    4.5602   24.0979 C   0  0  0  0  0  0  0  0  0  0  0  0
   11.7254    5.6235   24.6852 C   0  0  0  0  0  0  0  0  0  0  0  0
   11.0436    6.7495   25.1479 C   0  0  0  0  0  0  0  0  0  0  0  0
    9.6476    6.8151   25.0213 C   0  0  0  0  0  0  0  0  0  0  0  0
    8.9573    5.7623   24.4411 C   0  0  0  0  0  0  0  0  0  0  0  0
    7.6176    5.8532   24.3378 F   0  0  0  0  0  0  0  0  0  0  0  0
    9.0686    7.6703   25.3638 H   0  0  0  0  0  0  0  0  0  0  0  0
   11.5846    7.5771   25.6020 H   0  0  0  0  0  0  0  0  0  0  0  0
   12.8086    5.5665   24.7728 H   0  0  0  0  0  0  0  0  0  0  0  0
   11.5526    3.6854   23.7334 H   0  0  0  0  0  0  0  0  0  0  0  0
    9.9730    1.9188   23.7060 H   0  0  0  0  0  0  0  0  0  0  0  0
   10.1519    2.6953   22.1092 H   0  0  0  0  0  0  0  0  0  0  0  0
    7.7492    2.1906   21.6064 H   0  0  0  0  0  0  0  0  0  0  0  0
    7.5787    1.3844   23.1655 H   0  0  0  0  0  0  0  0  0  0  0  0
    9.2709   -0.3866   22.4764 H   0  0  0  0  0  0  0  0  0  0  0  0
    9.4661    0.3766   20.8903 H   0  0  0  0  0  0  0  0  0  0  0  0
    6.6514    0.0218   19.9293 C   0  0  0  0  0  0  0  0  0  0  0  0
    5.4338    0.6571   20.2000 C   0  0  0  0  0  0  0  0  0  0  0  0
    4.8248    1.3005   19.1316 C   0  0  0  0  0  0  0  0  0  0  0  0
    5.4440    1.2646   17.8785 C   0  0  0  0  0  0  0  0  0  0  0  0
    6.6035    0.6381   17.6390 N   0  0  0  0  0  0  0  0  0  0  0  0
    7.2006    0.0193   18.6532 C   0  0  0  0  0  0  0  0  0  0  0  0
    8.1361   -0.4855   18.4106 H   0  0  0  0  0  0  0  0  0  0  0  0
    4.9852    1.7557   17.0242 H   0  0  0  0  0  0  0  0  0  0  0  0
    3.8894    1.8312   19.2552 H   0  0  0  0  0  0  0  0  0  0  0  0
    4.9780    0.6467   21.1948 H   0  0  0  0  0  0  0  0  0  0  0  0
  1  2  2  0
  2  3  2  0
  2  4  1  0
  4  5  1  0
  5  6  1  0
  6  7  1  0
  7  8  1  0
  8  9  2  0
  9 10  1  0
 10 11  2  0
 11 12  1  0
 12 13  2  0
 13 14  1  0
 12 15  1  0
 11 16  1  0
 10 17  1  0
  9 18  1  0
  6 19  1  0
  6 20  1  0
  5 21  1  0
  5 22  1  0
  4 23  1  0
  4 24  1  0
  2 25  1  0
 25 26  2  0
 26 27  1  0
 27 28  2  0
 28 29  1  0
 29 30  2  0
 30 31  1  0
 28 32  1  0
 27 33  1  0
 26 34  1  0
 13  8  1  0
 30 25  1  0
M  END
>  <cnnaffinity>  (1) 
4.67742

>  <plip>  (1) 
-0.10714285714285714

>  <filename>  (1) 
[H][c]1[n][c]([H])[c]([S](=[O])(=[O])[C]([H])([H])[C]([H])([H])[C]([H])([H])[O][c]2[c]([H])[c]([H])[c]([H])[c]([H])[c]2[F])[c]([H])[c]1[H]

>  <combo1>  (1) 
-0.5656312807006088

$$$$
