
     RDKit          3D

 26 28  0  0  0  0  0  0  0  0999 V2000
    4.9446    1.8970   16.9225 H   0  0  0  0  0  0  0  0  0  0  0  0
    5.4014    1.3656   17.7542 C   0  0  0  0  0  0  0  0  0  0  0  0
    6.5653    0.7493   17.4940 N   0  0  0  0  0  0  0  0  0  0  0  0
    7.1469    0.0835   18.4985 C   0  0  0  0  0  0  0  0  0  0  0  0
    8.1083   -0.3831   18.2799 H   0  0  0  0  0  0  0  0  0  0  0  0
    6.5805   -0.0383   19.7842 C   0  0  0  0  0  0  0  0  0  0  0  0
    7.2691   -0.7433   20.8399 N   0  0  0  0  0  0  0  0  0  0  0  0
    8.5077   -0.2684   21.1905 C   0  0  0  0  0  0  0  0  0  0  0  0
    8.8634    0.5818   20.6136 H   0  0  0  0  0  0  0  0  0  0  0  0
    9.2528   -0.8170   22.1938 C   0  0  0  0  0  0  0  0  0  0  0  0
   10.5753   -0.2411   22.4541 C   0  0  0  0  0  0  0  0  0  0  0  0
   11.2192    0.6316   21.7061 N   0  0  0  0  0  0  0  0  0  0  0  0
   12.3692    0.9186   22.3521 N   0  0  0  0  0  0  0  0  0  0  0  0
   12.4609    0.2624   23.4515 N   0  0  0  0  0  0  0  0  0  0  0  0
   11.3432   -0.4711   23.5316 N   0  0  0  0  0  0  0  0  0  0  0  0
   11.2440   -1.1349   24.2780 H   0  0  0  0  0  0  0  0  0  0  0  0
    8.7207   -1.9189   22.9358 C   0  0  0  0  0  0  0  0  0  0  0  0
    9.2880   -2.4109   23.7327 H   0  0  0  0  0  0  0  0  0  0  0  0
    7.4819   -2.3837   22.6358 C   0  0  0  0  0  0  0  0  0  0  0  0
    7.0219   -3.2101   23.1596 H   0  0  0  0  0  0  0  0  0  0  0  0
    6.6613   -1.8360   21.5601 C   0  0  0  0  0  0  0  0  0  0  0  0
    5.5682   -2.2868   21.2684 O   0  0  0  0  0  0  0  0  0  0  0  0
    5.3879    0.6356   20.0539 C   0  0  0  0  0  0  0  0  0  0  0  0
    4.9832    0.6235   21.0658 H   0  0  0  0  0  0  0  0  0  0  0  0
    4.7875    1.3440   19.0095 C   0  0  0  0  0  0  0  0  0  0  0  0
    3.8653    1.8870   19.1617 H   0  0  0  0  0  0  0  0  0  0  0  0
  1  2  1  0
  2  3  2  0
  3  4  1  0
  4  5  1  0
  4  6  2  0
  6  7  1  0
  7  8  1  0
  8  9  1  0
  8 10  2  0
 10 11  1  0
 11 12  2  0
 12 13  1  0
 13 14  2  0
 14 15  1  0
 15 16  1  0
 10 17  1  0
 17 18  1  0
 17 19  2  0
 19 20  1  0
 19 21  1  0
 21 22  2  0
  6 23  1  0
 23 24  1  0
 23 25  2  0
 25 26  1  0
 25  2  1  0
 21  7  1  0
 15 11  1  0
M  END
>  <cnnaffinity>  (1) 
4.99608

>  <plip>  (1) 
-0.14285714285714285

>  <filename>  (1) 
[H][c]1[n][c]([H])[c](-[n]2[c]([H])[c](-[c]3[n][n][n][n]3[H])[c]([H])[c]([H])[c]2=[O])[c]([H])[c]1[H]

>  <combo1>  (1) 
-0.990353131753313

$$$$
