
     RDKit          3D

 31 33  0  0  0  0  0  0  0  0999 V2000
    8.1968   -1.5727   20.6416 O   0  0  0  0  0  0  0  0  0  0  0  0
    7.4271   -0.6910   20.9695 C   0  0  0  0  0  0  0  0  0  0  0  0
    6.6649    0.0765   19.9497 C   0  0  0  0  0  0  0  0  0  0  0  0
    5.4335    0.7073   20.1832 C   0  0  0  0  0  0  0  0  0  0  0  0
    4.8094    1.3254   19.1073 C   0  0  0  0  0  0  0  0  0  0  0  0
    5.4333    1.2848   17.8545 C   0  0  0  0  0  0  0  0  0  0  0  0
    6.5987    0.6606   17.6204 N   0  0  0  0  0  0  0  0  0  0  0  0
    7.1915    0.0642   18.6550 C   0  0  0  0  0  0  0  0  0  0  0  0
    8.1265   -0.4565   18.4483 H   0  0  0  0  0  0  0  0  0  0  0  0
    4.9744    1.7714   16.9993 H   0  0  0  0  0  0  0  0  0  0  0  0
    3.8586    1.8360   19.2219 H   0  0  0  0  0  0  0  0  0  0  0  0
    4.9750    0.7037   21.1761 H   0  0  0  0  0  0  0  0  0  0  0  0
    7.1501   -0.4326   22.3176 N   0  0  0  0  0  0  0  0  0  0  0  0
    6.7608   -1.6342   23.0840 C   0  0  0  0  0  0  0  0  0  0  0  0
    6.5754   -1.3615   24.5701 C   0  0  0  0  0  0  0  0  0  0  0  0
    5.9537    0.0057   24.8930 C   0  0  0  0  0  0  0  0  0  0  0  0
    6.6695    1.1083   24.1352 C   0  0  0  0  0  0  0  0  0  0  0  0
    6.8268    2.4002   24.6512 C   0  0  0  0  0  0  0  0  0  0  0  0
    7.4577    3.4047   24.0308 N   0  0  0  0  0  0  0  0  0  0  0  0
    7.9798    3.1374   22.8230 C   0  0  0  0  0  0  0  0  0  0  0  0
    7.9027    1.8975   22.2025 C   0  0  0  0  0  0  0  0  0  0  0  0
    7.2319    0.8568   22.8700 C   0  0  0  0  0  0  0  0  0  0  0  0
    8.3477    1.7488   21.2239 H   0  0  0  0  0  0  0  0  0  0  0  0
    8.4895    3.9621   22.3260 H   0  0  0  0  0  0  0  0  0  0  0  0
    6.4213    2.6413   25.6369 H   0  0  0  0  0  0  0  0  0  0  0  0
    6.0543    0.1861   25.9724 H   0  0  0  0  0  0  0  0  0  0  0  0
    4.8721    0.0415   24.6773 H   0  0  0  0  0  0  0  0  0  0  0  0
    5.9746   -2.1709   25.0026 H   0  0  0  0  0  0  0  0  0  0  0  0
    7.5678   -1.3974   25.0360 H   0  0  0  0  0  0  0  0  0  0  0  0
    7.5503   -2.3818   22.9351 H   0  0  0  0  0  0  0  0  0  0  0  0
    5.8507   -2.0711   22.6431 H   0  0  0  0  0  0  0  0  0  0  0  0
  1  2  2  0
  2  3  1  0
  3  4  2  0
  4  5  1  0
  5  6  2  0
  6  7  1  0
  7  8  2  0
  8  9  1  0
  6 10  1  0
  5 11  1  0
  4 12  1  0
  2 13  1  0
 13 14  1  0
 14 15  1  0
 15 16  1  0
 16 17  1  0
 17 18  2  0
 18 19  1  0
 19 20  2  0
 20 21  1  0
 21 22  2  0
 21 23  1  0
 20 24  1  0
 18 25  1  0
 16 26  1  0
 16 27  1  0
 15 28  1  0
 15 29  1  0
 14 30  1  0
 14 31  1  0
  8  3  1  0
 22 13  1  0
 22 17  1  0
M  END
>  <cnnaffinity>  (1) 
4.56969

>  <plip>  (1) 
-0.03571428571428571

>  <filename>  (1) 
[H][c]1[n][c]([H])[c]([C](=[O])[N]2[c]3[c]([H])[c]([H])[n][c]([H])[c]3[C]([H])([H])[C]([H])([H])[C]2([H])[H])[c]([H])[c]1[H]

>  <combo1>  (1) 
-0.22735509085069003

$$$$
