
     RDKit          3D

 33 35  0  0  0  0  0  0  0  0999 V2000
    4.5481    1.4832   18.6355 C   0  0  0  0  0  0  0  0  0  0  0  0
    5.3240    1.6254   17.4822 C   0  0  0  0  0  0  0  0  0  0  0  0
    6.4349    0.9095   17.2506 N   0  0  0  0  0  0  0  0  0  0  0  0
    6.8319    0.0638   18.2082 C   0  0  0  0  0  0  0  0  0  0  0  0
    6.1527   -0.1330   19.4174 C   0  0  0  0  0  0  0  0  0  0  0  0
    6.8237   -0.8957   20.5240 C   0  0  0  0  0  0  0  0  0  0  0  0
    7.7343    0.1203   21.1371 N   0  0  0  0  0  4  0  0  0  0  0  0
    8.5280   -0.2049   22.3444 C   0  0  0  0  0  0  0  0  0  0  0  0
    9.7990   -1.0000   21.9853 C   0  0  0  0  0  0  0  0  0  0  0  0
   10.6072   -1.4530   23.2224 C   0  0  0  0  0  0  0  0  0  0  0  0
   10.6033   -0.3478   24.2416 C   0  0  0  0  0  0  0  0  0  0  0  0
    9.8333    0.7914   24.1908 C   0  0  0  0  0  0  0  0  0  0  0  0
    8.9241    1.1022   23.0465 C   0  0  0  0  0  0  0  0  0  0  0  0
    9.4468    1.7492   22.3329 H   0  0  0  0  0  0  0  0  0  0  0  0
    8.0372    1.6474   23.3739 H   0  0  0  0  0  0  0  0  0  0  0  0
    9.9829    1.4826   25.3486 N   0  0  0  0  0  0  0  0  0  0  0  0
   10.7892    0.8280   26.1196 N   0  0  0  0  0  0  0  0  0  0  0  0
   11.1763   -0.2696   25.4660 N   0  0  0  0  0  0  0  0  0  0  0  0
   11.7872   -0.9122   25.9476 H   0  0  0  0  0  0  0  0  0  0  0  0
   11.6229   -1.7197   22.9058 H   0  0  0  0  0  0  0  0  0  0  0  0
   10.1642   -2.3693   23.6476 H   0  0  0  0  0  0  0  0  0  0  0  0
    9.5222   -1.8626   21.3730 H   0  0  0  0  0  0  0  0  0  0  0  0
   10.4183   -0.3426   21.3575 H   0  0  0  0  0  0  0  0  0  0  0  0
    7.9253   -0.7945   23.0483 H   0  0  0  0  0  0  0  0  0  0  0  0
    8.4133    0.3940   20.3831 H   0  0  0  0  0  0  0  0  0  0  0  0
    7.1286    0.9632   21.3042 H   0  0  0  0  0  0  0  0  0  0  0  0
    6.0935   -1.2794   21.2477 H   0  0  0  0  0  0  0  0  0  0  0  0
    7.3839   -1.7567   20.1336 H   0  0  0  0  0  0  0  0  0  0  0  0
    4.9492    0.5601   19.6034 C   0  0  0  0  0  0  0  0  0  0  0  0
    4.3512    0.3910   20.5020 H   0  0  0  0  0  0  0  0  0  0  0  0
    7.7389   -0.5032   17.9847 H   0  0  0  0  0  0  0  0  0  0  0  0
    5.0376    2.3382   16.7085 H   0  0  0  0  0  0  0  0  0  0  0  0
    3.6829    2.1229   18.7805 H   0  0  0  0  0  0  0  0  0  0  0  0
  1  2  2  0
  2  3  1  0
  3  4  2  0
  4  5  1  0
  5  6  1  0
  6  7  1  0
  7  8  1  0
  8  9  1  0
  9 10  1  0
 10 11  1  0
 11 12  2  0
 12 13  1  0
 13 14  1  0
 13 15  1  0
 12 16  1  0
 16 17  2  0
 17 18  1  0
 18 19  1  0
 10 20  1  0
 10 21  1  0
  9 22  1  0
  9 23  1  0
  8 24  1  0
  7 25  1  0
  7 26  1  0
  6 27  1  0
  6 28  1  0
  5 29  2  0
 29 30  1  0
  4 31  1  0
  2 32  1  0
  1 33  1  0
 29  1  1  0
 13  8  1  0
 18 11  1  0
M  CHG  1   7   1
M  END
>  <cnnaffinity>  (1) 
4.61093

>  <plip>  (1) 
-0.03571428571428571

>  <filename>  (1) 
[H][c]1[n][c]([H])[c]([C]([H])([H])[N+]([H])([H])[C]2([H])[C]([H])([H])[c]3[n][n][n]([H])[c]3[C]([H])([H])[C]2([H])[H])[c]([H])[c]1[H]

>  <combo1>  (1) 
-0.23835525656016746

$$$$
