
     RDKit          3D

 37 39  0  0  0  0  0  0  0  0999 V2000
    9.1161    1.4064   21.1924 O   0  0  0  0  0  0  0  0  0  0  0  0
    8.3651    1.1931   22.1341 C   0  0  0  0  0  0  0  0  0  0  0  0
    7.5955    0.0510   22.1819 N   0  0  0  0  0  0  0  0  0  0  0  0
    7.3733   -0.7595   20.9848 C   0  0  0  0  0  0  0  0  0  0  0  0
    6.6600   -2.0710   21.3920 C   0  0  0  0  0  0  0  0  0  0  0  0
    6.5087   -3.0376   20.3664 O   0  0  0  0  0  0  0  0  0  0  0  0
    7.3601   -3.1931   19.9309 H   0  0  0  0  0  0  0  0  0  0  0  0
    5.6405   -1.8271   21.7125 H   0  0  0  0  0  0  0  0  0  0  0  0
    7.1943   -2.4802   22.2632 H   0  0  0  0  0  0  0  0  0  0  0  0
    6.6434    0.0257   19.9024 C   0  0  0  0  0  0  0  0  0  0  0  0
    5.4251    0.6841   20.1337 C   0  0  0  0  0  0  0  0  0  0  0  0
    4.7995    1.3310   19.0687 C   0  0  0  0  0  0  0  0  0  0  0  0
    5.4181    1.3113   17.8140 C   0  0  0  0  0  0  0  0  0  0  0  0
    6.5878    0.7056   17.5706 N   0  0  0  0  0  0  0  0  0  0  0  0
    7.1778    0.0949   18.6096 C   0  0  0  0  0  0  0  0  0  0  0  0
    8.1391   -0.3765   18.3918 H   0  0  0  0  0  0  0  0  0  0  0  0
    4.9405    1.7935   16.9648 H   0  0  0  0  0  0  0  0  0  0  0  0
    3.8527    1.8437   19.1954 H   0  0  0  0  0  0  0  0  0  0  0  0
    4.9792    0.7181   21.1316 H   0  0  0  0  0  0  0  0  0  0  0  0
    8.3642   -1.0337   20.5984 H   0  0  0  0  0  0  0  0  0  0  0  0
    6.8473    0.0917   22.8608 H   0  0  0  0  0  0  0  0  0  0  0  0
    8.2617    2.1419   23.3656 C   0  0  0  0  0  0  0  0  0  0  0  0
    7.1121    2.2107   24.0325 N   0  0  0  0  0  0  0  0  0  0  0  0
    6.9794    3.1192   25.0321 C   0  0  0  0  0  0  0  0  0  0  0  0
    7.9697    3.9977   25.3939 C   0  0  0  0  0  0  0  0  0  0  0  0
    9.2231    3.9506   24.7258 C   0  0  0  0  0  0  0  0  0  0  0  0
   10.3025    4.8391   25.0295 C   0  0  0  0  0  0  0  0  0  0  0  0
   11.5658    4.5668   24.5448 C   0  0  0  0  0  0  0  0  0  0  0  0
   11.7947    3.4257   23.7274 C   0  0  0  0  0  0  0  0  0  0  0  0
   10.7491    2.6337   23.3205 C   0  0  0  0  0  0  0  0  0  0  0  0
    9.4186    2.9110   23.7638 C   0  0  0  0  0  0  0  0  0  0  0  0
   10.9076    1.8280   22.6138 H   0  0  0  0  0  0  0  0  0  0  0  0
   12.8025    3.1778   23.4038 H   0  0  0  0  0  0  0  0  0  0  0  0
   12.4080    5.2154   24.7790 H   0  0  0  0  0  0  0  0  0  0  0  0
   10.1089    5.7114   25.6577 H   0  0  0  0  0  0  0  0  0  0  0  0
    7.8121    4.6904   26.2097 H   0  0  0  0  0  0  0  0  0  0  0  0
    6.0167    3.1119   25.5333 H   0  0  0  0  0  0  0  0  0  0  0  0
  1  2  2  0
  2  3  1  0
  3  4  1  0
  4  5  1  0
  5  6  1  0
  6  7  1  0
  5  8  1  0
  5  9  1  0
  4 10  1  0
 10 11  2  0
 11 12  1  0
 12 13  2  0
 13 14  1  0
 14 15  2  0
 15 16  1  0
 13 17  1  0
 12 18  1  0
 11 19  1  0
  4 20  1  0
  3 21  1  0
  2 22  1  0
 22 23  2  0
 23 24  1  0
 24 25  2  0
 25 26  1  0
 26 27  2  0
 27 28  1  0
 28 29  2  0
 29 30  1  0
 30 31  2  0
 30 32  1  0
 29 33  1  0
 28 34  1  0
 27 35  1  0
 25 36  1  0
 24 37  1  0
 15 10  1  0
 31 22  1  0
 31 26  1  0
M  END
>  <cnnaffinity>  (1) 
4.71703

>  <plip>  (1) 
-0.17857142857142858

>  <filename>  (1) 
[H][O][C]([H])([H])[C]([H])([c]1[c]([H])[n][c]([H])[c]([H])[c]1[H])[N]([H])[C](=[O])[c]1[n][c]([H])[c]([H])[c]2[c]([H])[c]([H])[c]([H])[c]([H])[c]12

>  <combo1>  (1) 
-0.9572134595572682

$$$$
