
     RDKit          3D

 39 41  0  0  0  0  0  0  0  0999 V2000
    4.9454    1.7357   16.9513 H   0  0  0  0  0  0  0  0  0  0  0  0
    5.4273    1.2927   17.8185 C   0  0  0  0  0  0  0  0  0  0  0  0
    6.5973    0.6837   17.5986 N   0  0  0  0  0  0  0  0  0  0  0  0
    7.2052    0.1132   18.6513 C   0  0  0  0  0  0  0  0  0  0  0  0
    8.1575   -0.3689   18.4248 H   0  0  0  0  0  0  0  0  0  0  0  0
    6.6936    0.1056   19.9537 C   0  0  0  0  0  0  0  0  0  0  0  0
    7.3530   -0.6939   21.0733 C   0  0  0  0  0  0  0  0  0  0  0  0
    7.3240    0.1392   22.2633 N   0  0  0  0  0  0  0  0  0  0  0  0
    6.7254    0.9539   22.2723 H   0  0  0  0  0  0  0  0  0  0  0  0
    7.6437   -0.2810   23.5017 C   0  0  0  0  0  0  0  0  0  0  0  0
    8.1655   -1.3723   23.7272 O   0  0  0  0  0  0  0  0  0  0  0  0
    7.4283    0.7061   24.6082 C   0  0  0  0  0  0  0  0  0  0  0  0
    8.2246    0.6204   25.7441 C   0  0  0  0  0  0  0  0  0  0  0  0
    8.9918   -0.1524   25.8128 H   0  0  0  0  0  0  0  0  0  0  0  0
    8.0392    1.5054   26.8280 C   0  0  0  0  0  0  0  0  0  0  0  0
    8.6522    1.3942   27.7114 H   0  0  0  0  0  0  0  0  0  0  0  0
    7.0562    2.4678   26.7979 C   0  0  0  0  0  0  0  0  0  0  0  0
    6.9090    3.1265   27.6530 H   0  0  0  0  0  0  0  0  0  0  0  0
    6.2008    2.5814   25.6684 C   0  0  0  0  0  0  0  0  0  0  0  0
    5.1058    3.4950   25.6140 C   0  0  0  0  0  0  0  0  0  0  0  0
    4.9576    4.1924   26.4393 H   0  0  0  0  0  0  0  0  0  0  0  0
    4.2476    3.4557   24.5414 C   0  0  0  0  0  0  0  0  0  0  0  0
    3.3534    4.0669   24.5058 H   0  0  0  0  0  0  0  0  0  0  0  0
    4.5317    2.5728   23.4698 C   0  0  0  0  0  0  0  0  0  0  0  0
    3.8474    2.5157   22.6221 H   0  0  0  0  0  0  0  0  0  0  0  0
    5.5803    1.7803   23.4426 N   0  0  0  0  0  0  0  0  0  0  0  0
    6.3958    1.6999   24.5464 C   0  0  0  0  0  0  0  0  0  0  0  0
    6.5433   -1.9833   21.2998 C   0  0  0  0  0  0  0  0  0  0  0  0
    5.5221   -1.7357   21.6071 H   0  0  0  0  0  0  0  0  0  0  0  0
    7.0007   -2.5670   22.0994 H   0  0  0  0  0  0  0  0  0  0  0  0
    6.5049   -2.5683   20.3772 H   0  0  0  0  0  0  0  0  0  0  0  0
    8.8237   -1.0454   20.8034 C   0  0  0  0  0  0  0  0  0  0  0  0
    9.2377   -1.5308   21.6887 H   0  0  0  0  0  0  0  0  0  0  0  0
    9.4076   -0.1372   20.6263 H   0  0  0  0  0  0  0  0  0  0  0  0
    8.9206   -1.7242   19.9553 H   0  0  0  0  0  0  0  0  0  0  0  0
    5.4563    0.7535   20.1540 C   0  0  0  0  0  0  0  0  0  0  0  0
    5.0062    0.7850   21.1528 H   0  0  0  0  0  0  0  0  0  0  0  0
    4.8163    1.3597   19.0746 C   0  0  0  0  0  0  0  0  0  0  0  0
    3.8830    1.8985   19.1995 H   0  0  0  0  0  0  0  0  0  0  0  0
  1  2  1  0
  2  3  2  0
  3  4  1  0
  4  5  1  0
  4  6  2  0
  6  7  1  0
  7  8  1  0
  8  9  1  0
  8 10  1  0
 10 11  2  0
 10 12  1  0
 12 13  2  0
 13 14  1  0
 13 15  1  0
 15 16  1  0
 15 17  2  0
 17 18  1  0
 17 19  1  0
 19 20  2  0
 20 21  1  0
 20 22  1  0
 22 23  1  0
 22 24  2  0
 24 25  1  0
 24 26  1  0
 26 27  2  0
  7 28  1  0
 28 29  1  0
 28 30  1  0
 28 31  1  0
  7 32  1  0
 32 33  1  0
 32 34  1  0
 32 35  1  0
  6 36  1  0
 36 37  1  0
 36 38  2  0
 38 39  1  0
 38  2  1  0
 27 12  1  0
 27 19  1  0
M  END
>  <cnnaffinity>  (1) 
5.07776

>  <plip>  (1) 
-0.07142857142857142

>  <filename>  (1) 
[H][c]1[n][c]([H])[c]([C]([N]([H])[C](=[O])[c]2[c]([H])[c]([H])[c]([H])[c]3[c]([H])[c]([H])[c]([H])[n][c]23)([C]([H])([H])[H])[C]([H])([H])[H])[c]([H])[c]1[H]

>  <combo1>  (1) 
-0.4149558530826678

$$$$
