
     RDKit          3D

 34 36  0  0  0  0  0  0  0  0999 V2000
    4.9580    1.8265   17.0197 H   0  0  0  0  0  0  0  0  0  0  0  0
    5.4494    1.3070   17.8402 C   0  0  0  0  0  0  0  0  0  0  0  0
    6.6173    0.7046   17.5538 N   0  0  0  0  0  0  0  0  0  0  0  0
    7.2441    0.0570   18.5450 C   0  0  0  0  0  0  0  0  0  0  0  0
    8.1882   -0.4352   18.3001 H   0  0  0  0  0  0  0  0  0  0  0  0
    6.7305   -0.0540   19.8546 C   0  0  0  0  0  0  0  0  0  0  0  0
    7.4192   -0.7689   20.8791 N   0  0  0  0  0  0  0  0  0  0  0  0
    6.8166   -1.7148   21.6890 C   0  0  0  0  0  0  0  0  0  0  0  0
    5.7299   -2.2191   21.5120 O   0  0  0  0  0  0  0  0  0  0  0  0
    7.7687   -2.0356   22.8227 C   0  0  0  0  0  0  0  0  0  0  0  0
    7.7158   -3.1045   23.0465 H   0  0  0  0  0  0  0  0  0  0  0  0
    7.4170   -1.4822   23.7011 H   0  0  0  0  0  0  0  0  0  0  0  0
    9.1315   -1.5461   22.3255 C   0  0  0  0  0  0  0  0  0  0  0  0
    9.7549   -2.3774   21.9913 H   0  0  0  0  0  0  0  0  0  0  0  0
    9.7110   -0.9924   23.0690 H   0  0  0  0  0  0  0  0  0  0  0  0
    8.8425   -0.6106   21.1340 C   0  0  2  0  0  0  0  0  0  0  0  0
    9.4252   -0.9277   20.2566 H   0  0  0  0  0  0  0  0  0  0  0  0
    9.2286    0.7519   21.4113 N   0  0  0  0  0  0  0  0  0  0  0  0
    9.2054    1.2782   20.5486 H   0  0  0  0  0  0  0  0  0  0  0  0
    8.4776    1.4822   22.4307 C   0  0  0  0  0  0  0  0  0  0  0  0
    7.4762    1.7413   22.0470 H   0  0  0  0  0  0  0  0  0  0  0  0
    8.3209    0.8355   23.3052 H   0  0  0  0  0  0  0  0  0  0  0  0
    9.1873    2.7475   22.8463 C   0  0  0  0  0  0  0  0  0  0  0  0
   10.4640    2.7597   24.0223 S   0  0  0  0  0  0  0  0  0  0  0  0
   10.7581    4.4380   23.7734 C   0  0  0  0  0  0  0  0  0  0  0  0
   11.5499    4.9356   24.3159 H   0  0  0  0  0  0  0  0  0  0  0  0
    9.9092    4.9693   22.8513 C   0  0  0  0  0  0  0  0  0  0  0  0
    9.9603    5.9912   22.4888 H   0  0  0  0  0  0  0  0  0  0  0  0
    8.9808    4.0043   22.3519 C   0  0  0  0  0  0  0  0  0  0  0  0
    8.2151    4.2411   21.6148 H   0  0  0  0  0  0  0  0  0  0  0  0
    5.5148    0.5853   20.1390 C   0  0  0  0  0  0  0  0  0  0  0  0
    5.0976    0.5273   21.1438 H   0  0  0  0  0  0  0  0  0  0  0  0
    4.8687    1.2804   19.1124 C   0  0  0  0  0  0  0  0  0  0  0  0
    3.9269    1.7922   19.2871 H   0  0  0  0  0  0  0  0  0  0  0  0
  1  2  1  0
  2  3  2  0
  3  4  1  0
  4  5  1  0
  4  6  2  0
  6  7  1  0
  7  8  1  0
  8  9  2  0
  8 10  1  0
 10 11  1  0
 10 12  1  0
 10 13  1  0
 13 14  1  0
 13 15  1  0
 13 16  1  0
 16 17  1  6
 16 18  1  0
 18 19  1  0
 18 20  1  0
 20 21  1  0
 20 22  1  0
 20 23  1  0
 23 24  1  0
 24 25  1  0
 25 26  1  0
 25 27  2  0
 27 28  1  0
 27 29  1  0
 29 30  1  0
  6 31  1  0
 31 32  1  0
 31 33  2  0
 33 34  1  0
 33  2  1  0
 16  7  1  0
 29 23  2  0
M  END
>  <cnnaffinity>  (1) 
4.98289

>  <plip>  (1) 
-0.07142857142857142

>  <filename>  (1) 
[H][c]1[n][c]([H])[c]([N]2[C](=[O])[C]([H])([H])[C]([H])([H])[C@]2([H])[N]([H])[C]([H])([H])[c]2[s][c]([H])[c]([H])[c]2[H])[c]([H])[c]1[H]

>  <combo1>  (1) 
-0.4340057217205017

$$$$
