
     RDKit          3D

 28 29  0  0  0  0  0  0  0  0999 V2000
    8.7406   -0.1263   21.2539 C   0  0  0  0  0  0  0  0  0  0  0  0
    7.3591   -0.7453   21.0898 C   0  0  2  0  0  0  0  0  0  0  0  0
    7.5201   -2.1722   20.8225 N   0  0  0  0  0  0  0  0  0  0  0  0
    7.7574   -3.0582   21.8557 C   0  0  0  0  0  0  0  0  0  0  0  0
    7.9861   -2.4832   23.0395 N   0  0  0  0  0  0  0  0  0  0  0  0
    8.2156   -3.2633   24.0903 C   0  0  0  0  0  0  0  0  0  0  0  0
    8.2452   -4.6553   23.9925 C   0  0  0  0  0  0  0  0  0  0  0  0
    7.9993   -5.2703   22.7698 C   0  0  0  0  0  0  0  0  0  0  0  0
    7.9866   -7.1697   22.6070 Br  0  0  0  0  0  0  0  0  0  0  0  0
    7.7377   -4.4537   21.6733 C   0  0  0  0  0  0  0  0  0  0  0  0
    7.4270   -5.0221   20.4830 F   0  0  0  0  0  0  0  0  0  0  0  0
    8.4484   -5.2495   24.8723 H   0  0  0  0  0  0  0  0  0  0  0  0
    8.3802   -2.7730   25.0438 H   0  0  0  0  0  0  0  0  0  0  0  0
    7.5011   -2.5170   19.8682 H   0  0  0  0  0  0  0  0  0  0  0  0
    6.6310   -0.0996   19.9575 C   0  0  0  0  0  0  0  0  0  0  0  0
    5.4321    0.5846   20.1785 C   0  0  0  0  0  0  0  0  0  0  0  0
    4.8566    1.2484   19.0993 C   0  0  0  0  0  0  0  0  0  0  0  0
    5.4805    1.2200   17.8494 C   0  0  0  0  0  0  0  0  0  0  0  0
    6.6262    0.5467   17.6350 N   0  0  0  0  0  0  0  0  0  0  0  0
    7.1891   -0.0990   18.6728 C   0  0  0  0  0  0  0  0  0  0  0  0
    8.1378   -0.6005   18.5040 H   0  0  0  0  0  0  0  0  0  0  0  0
    5.0253    1.7694   17.0303 H   0  0  0  0  0  0  0  0  0  0  0  0
    3.9398    1.8122   19.2205 H   0  0  0  0  0  0  0  0  0  0  0  0
    4.9760    0.6241   21.1676 H   0  0  0  0  0  0  0  0  0  0  0  0
    6.7873   -0.6055   22.0201 H   0  0  0  0  0  0  0  0  0  0  0  0
    9.3424   -0.2877   20.3537 H   0  0  0  0  0  0  0  0  0  0  0  0
    8.6444    0.9493   21.4264 H   0  0  0  0  0  0  0  0  0  0  0  0
    9.2596   -0.5737   22.1078 H   0  0  0  0  0  0  0  0  0  0  0  0
  1  2  1  0
  2  3  1  0
  3  4  1  0
  4  5  2  0
  5  6  1  0
  6  7  2  0
  7  8  1  0
  8  9  1  0
  8 10  2  0
 10 11  1  0
  7 12  1  0
  6 13  1  0
  3 14  1  0
  2 15  1  0
 15 16  2  0
 16 17  1  0
 17 18  2  0
 18 19  1  0
 19 20  2  0
 20 21  1  0
 18 22  1  0
 17 23  1  0
 16 24  1  0
  2 25  1  1
  1 26  1  0
  1 27  1  0
  1 28  1  0
 10  4  1  0
 20 15  1  0
M  END
>  <cnnaffinity>  (1) 
5.12159

>  <plip>  (1) 
-0.034482758620689655

>  <filename>  (1) 
[H][c]1[n][c]([H])[c]([C@@]([H])([N]([H])[c]2[n][c]([H])[c]([H])[c]([Br])[c]2[F])[C]([H])([H])[H])[c]([H])[c]1[H]

>  <combo1>  (1) 
-0.1987852171913997

$$$$
