
     RDKit          3D

 28 29  0  0  0  0  0  0  0  0999 V2000
    7.8466    4.0248   27.5245 H   0  0  0  0  0  0  0  0  0  0  0  0
    7.5426    4.1849   26.6098 O   0  0  0  0  0  0  0  0  0  0  0  0
    7.8466    2.9919   26.0982 C   0  0  0  0  0  0  0  0  0  0  0  0
    8.3556    2.1698   26.8286 O   0  0  0  0  0  0  0  0  0  0  0  0
    7.4922    2.7815   24.5576 C   0  0  0  0  0  0  0  0  0  0  0  0
    7.0411    3.7049   23.8843 O   0  0  0  0  0  0  0  0  0  0  0  0
    7.7355    1.4656   24.0099 C   0  0  0  0  0  0  0  0  0  0  0  0
    8.0101    0.6491   24.6711 H   0  0  0  0  0  0  0  0  0  0  0  0
    7.6062    1.2045   22.6721 C   0  0  0  0  0  0  0  0  0  0  0  0
    7.3218    2.1635   21.7976 O   0  0  0  0  0  0  0  0  0  0  0  0
    7.1278    2.9886   22.3195 H   0  0  0  0  0  0  0  0  0  0  0  0
    7.7636   -0.1986   22.1812 C   0  0  0  0  0  0  0  0  0  0  0  0
    8.3307   -1.1345   22.8942 N   0  0  0  0  0  0  0  0  0  0  0  0
    8.1132   -2.2782   22.1881 N   0  0  0  0  0  0  0  0  0  0  0  0
    8.2199   -3.1873   22.6094 H   0  0  0  0  0  0  0  0  0  0  0  0
    7.2796   -2.1237   21.1156 C   0  0  0  0  0  0  0  0  0  0  0  0
    6.7203   -2.9814   20.4683 O   0  0  0  0  0  0  0  0  0  0  0  0
    7.2005   -0.7213   21.0141 N   0  0  0  0  0  0  0  0  0  0  0  0
    6.5555   -0.0142   19.9408 C   0  0  0  0  0  0  0  0  0  0  0  0
    7.1404    0.0482   18.6606 C   0  0  0  0  0  0  0  0  0  0  0  0
    8.0955   -0.4469   18.4996 H   0  0  0  0  0  0  0  0  0  0  0  0
    6.5959    0.6924   17.6230 N   0  0  0  0  0  0  0  0  0  0  0  0
    5.4318    1.3285   17.8352 C   0  0  0  0  0  0  0  0  0  0  0  0
    5.0072    1.8482   16.9788 H   0  0  0  0  0  0  0  0  0  0  0  0
    4.7652    1.3200   19.0637 C   0  0  0  0  0  0  0  0  0  0  0  0
    3.8286    1.8584   19.1665 H   0  0  0  0  0  0  0  0  0  0  0  0
    5.3329    0.6281   20.1423 C   0  0  0  0  0  0  0  0  0  0  0  0
    4.8732    0.6192   21.1311 H   0  0  0  0  0  0  0  0  0  0  0  0
  1  2  1  0
  2  3  1  0
  3  4  2  0
  3  5  1  0
  5  6  2  0
  5  7  1  0
  7  8  1  0
  7  9  2  3
  9 10  1  0
 10 11  1  0
  9 12  1  0
 12 13  2  0
 13 14  1  0
 14 15  1  0
 14 16  1  0
 16 17  2  0
 16 18  1  0
 18 19  1  0
 19 20  2  0
 20 21  1  0
 20 22  1  0
 22 23  2  0
 23 24  1  0
 23 25  1  0
 25 26  1  0
 25 27  2  0
 27 28  1  0
 18 12  1  0
 27 19  1  0
M  END
>  <cnnaffinity>  (1) 
4.20065

>  <plip>  (1) 
-0.06896551724137931

>  <filename>  (1) 
[H][O][C](=[O])[C](=[O])[C]([H])=[C]([O][H])[c]1[n][n]([H])[c](=[O])[n]1-[c]1[c]([H])[n][c]([H])[c]([H])[c]1[H]

>  <combo1>  (1) 
-0.3496157485180251

$$$$
