
     RDKit          3D

 37 38  0  0  0  0  0  0  0  0999 V2000
    6.6188   -2.4428   25.0690 C   0  0  0  0  0  0  0  0  0  0  0  0
    6.7960   -3.9153   25.4226 C   0  0  0  0  0  0  0  0  0  0  0  0
    6.5335   -4.8425   24.2203 C   0  0  0  0  0  0  0  0  0  0  0  0
    7.6387   -4.8727   23.1684 C   0  0  0  0  0  0  0  0  0  0  0  0
    8.6526   -5.4960   23.3982 O   0  0  0  0  0  0  0  0  0  0  0  0
    7.4343   -4.2576   21.7397 C   0  0  0  0  0  0  0  0  0  0  0  0
    7.5718   -2.7975   21.5024 N   0  0  0  0  0  0  0  0  0  0  0  0
    8.7624   -2.1585   21.1669 C   0  0  0  0  0  0  0  0  0  0  0  0
    9.8664   -2.6076   21.3313 O   0  0  0  0  0  0  0  0  0  0  0  0
    8.4881   -0.9278   20.6344 N   0  0  0  0  0  0  0  0  0  0  0  0
    7.1307   -0.5090   20.9804 C   0  0  0  0  0  0  0  0  0  0  0  0
    7.2062    0.3868   22.2341 C   0  0  0  0  0  0  0  0  0  0  0  0
    6.2192    0.6674   22.6081 H   0  0  0  0  0  0  0  0  0  0  0  0
    7.7395   -0.1268   23.0422 H   0  0  0  0  0  0  0  0  0  0  0  0
    7.7608    1.3001   21.9952 H   0  0  0  0  0  0  0  0  0  0  0  0
    6.4437    0.2032   19.8025 C   0  0  0  0  0  0  0  0  0  0  0  0
    5.1991    0.8337   19.9661 C   0  0  0  0  0  0  0  0  0  0  0  0
    4.6228    1.5144   18.8859 C   0  0  0  0  0  0  0  0  0  0  0  0
    5.3110    1.5412   17.6705 C   0  0  0  0  0  0  0  0  0  0  0  0
    6.4892    0.9314   17.4769 N   0  0  0  0  0  0  0  0  0  0  0  0
    7.0268    0.2906   18.5222 C   0  0  0  0  0  0  0  0  0  0  0  0
    7.9849   -0.1802   18.3339 H   0  0  0  0  0  0  0  0  0  0  0  0
    4.9013    2.0718   16.8119 H   0  0  0  0  0  0  0  0  0  0  0  0
    3.6836    2.0546   18.9793 H   0  0  0  0  0  0  0  0  0  0  0  0
    4.6880    0.8163   20.9292 H   0  0  0  0  0  0  0  0  0  0  0  0
    6.5140   -1.9131   21.3558 C   0  0  0  0  0  0  0  0  0  0  0  0
    5.3651   -2.2329   21.5389 O   0  0  0  0  0  0  0  0  0  0  0  0
    9.2692   -0.3070   20.7658 H   0  0  0  0  0  0  0  0  0  0  0  0
    6.4276   -4.5530   21.4129 H   0  0  0  0  0  0  0  0  0  0  0  0
    8.1729   -4.7899   21.1323 H   0  0  0  0  0  0  0  0  0  0  0  0
    5.5760   -4.5739   23.7564 H   0  0  0  0  0  0  0  0  0  0  0  0
    6.4531   -5.8779   24.5724 H   0  0  0  0  0  0  0  0  0  0  0  0
    7.7988   -4.1085   25.8269 H   0  0  0  0  0  0  0  0  0  0  0  0
    6.0909   -4.1832   26.2222 H   0  0  0  0  0  0  0  0  0  0  0  0
    7.3313   -2.1300   24.2994 H   0  0  0  0  0  0  0  0  0  0  0  0
    5.6130   -2.2599   24.6741 H   0  0  0  0  0  0  0  0  0  0  0  0
    6.7631   -1.7911   25.9348 H   0  0  0  0  0  0  0  0  0  0  0  0
  1  2  1  0
  2  3  1  0
  3  4  1  0
  4  5  2  0
  4  6  1  0
  6  7  1  0
  7  8  1  0
  8  9  2  0
  8 10  1  0
 10 11  1  0
 11 12  1  0
 12 13  1  0
 12 14  1  0
 12 15  1  0
 11 16  1  0
 16 17  2  0
 17 18  1  0
 18 19  2  0
 19 20  1  0
 20 21  2  0
 21 22  1  0
 19 23  1  0
 18 24  1  0
 17 25  1  0
 11 26  1  0
 26 27  2  0
 10 28  1  0
  6 29  1  0
  6 30  1  0
  3 31  1  0
  3 32  1  0
  2 33  1  0
  2 34  1  0
  1 35  1  0
  1 36  1  0
  1 37  1  0
 26  7  1  0
 21 16  1  0
M  END
>  <cnnaffinity>  (1) 
5.08998

>  <plip>  (1) 
-0.07142857142857142

>  <filename>  (1) 
[H][c]1[n][c]([H])[c]([C]2([C]([H])([H])[H])[C](=[O])[N]([C]([H])([H])[C](=[O])[C]([H])([H])[C]([H])([H])[C]([H])([H])[H])[C](=[O])[N]2[H])[c]([H])[c]1[H]

>  <combo1>  (1) 
-0.44019788745695754

$$$$
