
     RDKit          3D

 38 39  0  0  0  0  0  0  0  0999 V2000
    6.2150   -4.1389   20.0669 C   0  0  0  0  0  0  0  0  0  0  0  0
    6.0814   -2.9088   20.9587 C   0  0  0  0  0  0  0  0  0  0  0  0
    5.8451   -3.2644   22.4362 C   0  0  0  0  0  0  0  0  0  0  0  0
    4.5406   -3.8191   22.5284 O   0  0  0  0  0  0  0  0  0  0  0  0
    4.3554   -4.0075   23.4591 H   0  0  0  0  0  0  0  0  0  0  0  0
    6.6172   -3.9759   22.7763 H   0  0  0  0  0  0  0  0  0  0  0  0
    5.9469   -2.3574   23.0542 H   0  0  0  0  0  0  0  0  0  0  0  0
    7.3078   -2.0832   20.7476 N   0  0  0  0  0  4  0  0  0  0  0  0
    7.2436   -0.6451   21.1028 C   0  0  0  0  0  0  0  0  0  0  0  0
    8.6472   -0.1289   21.3992 C   0  0  0  0  0  0  0  0  0  0  0  0
    9.8319   -0.7588   20.9707 C   0  0  0  0  0  0  0  0  0  0  0  0
   11.0851   -0.2089   21.2427 C   0  0  0  0  0  0  0  0  0  0  0  0
   11.1785    1.0252   21.8855 C   0  0  0  0  0  0  0  0  0  0  0  0
   12.4163    1.5504   22.0894 O   0  0  0  0  0  0  0  0  0  0  0  0
   12.2919    2.4716   22.3438 H   0  0  0  0  0  0  0  0  0  0  0  0
   10.0237    1.6620   22.3416 C   0  0  0  0  0  0  0  0  0  0  0  0
    8.7745    1.0709   22.1194 C   0  0  0  0  0  0  0  0  0  0  0  0
    7.8888    1.5456   22.5389 H   0  0  0  0  0  0  0  0  0  0  0  0
   10.1039    2.6004   22.8848 H   0  0  0  0  0  0  0  0  0  0  0  0
   11.9989   -0.7192   20.9615 H   0  0  0  0  0  0  0  0  0  0  0  0
    9.8062   -1.6890   20.4027 H   0  0  0  0  0  0  0  0  0  0  0  0
    6.5450    0.0659   19.9613 C   0  0  0  0  0  0  0  0  0  0  0  0
    5.3273    0.7309   20.1337 C   0  0  0  0  0  0  0  0  0  0  0  0
    4.7563    1.3621   19.0266 C   0  0  0  0  0  0  0  0  0  0  0  0
    5.4163    1.2944   17.7951 C   0  0  0  0  0  0  0  0  0  0  0  0
    6.5828    0.6532   17.6165 N   0  0  0  0  0  0  0  0  0  0  0  0
    7.1183    0.0494   18.6834 C   0  0  0  0  0  0  0  0  0  0  0  0
    8.0740   -0.4556   18.5228 H   0  0  0  0  0  0  0  0  0  0  0  0
    4.9859    1.7647   16.9118 H   0  0  0  0  0  0  0  0  0  0  0  0
    3.8188    1.9003   19.1049 H   0  0  0  0  0  0  0  0  0  0  0  0
    4.8356    0.7519   21.1102 H   0  0  0  0  0  0  0  0  0  0  0  0
    6.6070   -0.5133   21.9902 H   0  0  0  0  0  0  0  0  0  0  0  0
    8.1191   -2.4789   21.2760 H   0  0  0  0  0  0  0  0  0  0  0  0
    7.5073   -2.0910   19.7198 H   0  0  0  0  0  0  0  0  0  0  0  0
    5.1981   -2.3395   20.6526 H   0  0  0  0  0  0  0  0  0  0  0  0
    6.2039   -3.8297   19.0149 H   0  0  0  0  0  0  0  0  0  0  0  0
    5.3824   -4.8230   20.2327 H   0  0  0  0  0  0  0  0  0  0  0  0
    7.1490   -4.6763   20.2862 H   0  0  0  0  0  0  0  0  0  0  0  0
  1  2  1  0
  2  3  1  0
  3  4  1  0
  4  5  1  0
  3  6  1  0
  3  7  1  0
  2  8  1  0
  8  9  1  0
  9 10  1  0
 10 11  2  0
 11 12  1  0
 12 13  2  0
 13 14  1  0
 14 15  1  0
 13 16  1  0
 16 17  2  0
 17 18  1  0
 16 19  1  0
 12 20  1  0
 11 21  1  0
  9 22  1  0
 22 23  2  0
 23 24  1  0
 24 25  2  0
 25 26  1  0
 26 27  2  0
 27 28  1  0
 25 29  1  0
 24 30  1  0
 23 31  1  0
  9 32  1  0
  8 33  1  0
  8 34  1  0
  2 35  1  0
  1 36  1  0
  1 37  1  0
  1 38  1  0
 17 10  1  0
 27 22  1  0
M  CHG  1   8   1
M  END
>  <cnnaffinity>  (1) 
4.51276

>  <plip>  (1) 
-0.10714285714285714

>  <filename>  (1) 
[H][O][c]1[c]([H])[c]([H])[c]([C]([H])([c]2[c]([H])[n][c]([H])[c]([H])[c]2[H])[N+]([H])([H])[C]([H])([C]([H])([H])[H])[C]([H])([H])[O][H])[c]([H])[c]1[H]

>  <combo1>  (1) 
-0.6214885338701033

$$$$
