
     RDKit          3D

 21 22  0  0  0  0  0  0  0  0999 V2000
    9.9353   -3.2506   25.2724 H   0  0  0  0  0  0  0  0  0  0  0  0
   10.3145   -3.7339   24.4420 N   0  0  0  0  0  0  0  0  0  0  0  0
    9.8633   -3.3050   23.4137 N   0  0  0  0  0  4  0  0  0  0  0  0
    9.5392   -3.0264   22.2775 N   0  0  0  0  0  0  0  0  0  0  0  0
    8.6499   -2.0045   22.1091 C   0  0  0  0  0  0  0  0  0  0  0  0
    8.0464   -1.2726   23.0426 N   0  0  0  0  0  0  0  0  0  0  0  0
    7.2474   -0.4596   22.3468 C   0  0  0  0  0  0  0  0  0  0  0  0
    6.6617    0.2763   22.8906 H   0  0  0  0  0  0  0  0  0  0  0  0
    7.3411   -0.6719   20.9807 C   0  0  0  0  0  0  0  0  0  0  0  0
    6.6450   -0.0141   19.8795 C   0  0  0  0  0  0  0  0  0  0  0  0
    7.1617    0.0462   18.5690 C   0  0  0  0  0  0  0  0  0  0  0  0
    8.1228   -0.3930   18.3025 H   0  0  0  0  0  0  0  0  0  0  0  0
    6.5558    0.6732   17.5591 N   0  0  0  0  0  0  0  0  0  0  0  0
    5.3987    1.3036   17.8084 C   0  0  0  0  0  0  0  0  0  0  0  0
    4.9396    1.8218   16.9655 H   0  0  0  0  0  0  0  0  0  0  0  0
    4.8008    1.3153   19.0698 C   0  0  0  0  0  0  0  0  0  0  0  0
    3.8745    1.8548   19.2193 H   0  0  0  0  0  0  0  0  0  0  0  0
    5.4264    0.6502   20.1163 C   0  0  0  0  0  0  0  0  0  0  0  0
    4.9727    0.6553   21.1104 H   0  0  0  0  0  0  0  0  0  0  0  0
    8.2854   -1.6626   20.8526 N   0  0  0  0  0  0  0  0  0  0  0  0
    8.5806   -2.2135   20.0595 H   0  0  0  0  0  0  0  0  0  0  0  0
  1  2  1  0
  2  3  2  0
  3  4  2  0
  4  5  1  0
  5  6  2  0
  6  7  1  0
  7  8  1  0
  7  9  2  0
  9 10  1  0
 10 11  2  0
 11 12  1  0
 11 13  1  0
 13 14  2  0
 14 15  1  0
 14 16  1  0
 16 17  1  0
 16 18  2  0
 18 19  1  0
  9 20  1  0
 20 21  1  0
 20  5  1  0
 18 10  1  0
M  CHG  1   3   1
M  END
>  <cnnaffinity>  (1) 
4.61089

>  <plip>  (1) 
-0.03225806451612903

>  <filename>  (1) 
[H][N]=[N+]=[N][c]1[n][c]([H])[c](-[c]2[c]([H])[n][c]([H])[c]([H])[c]2[H])[n]1[H]

>  <combo1>  (1) 
-0.2648673638284455

$$$$
