
     RDKit          3D

 28 30  0  0  0  0  0  0  0  0999 V2000
    4.9422    1.7886   16.9929 H   0  0  0  0  0  0  0  0  0  0  0  0
    5.4058    1.2933   17.8446 C   0  0  0  0  0  0  0  0  0  0  0  0
    6.5669    0.6724   17.5956 N   0  0  0  0  0  0  0  0  0  0  0  0
    7.1638    0.0397   18.6067 C   0  0  0  0  0  0  0  0  0  0  0  0
    8.1135   -0.4424   18.3822 H   0  0  0  0  0  0  0  0  0  0  0  0
    6.6317   -0.0124   19.9023 C   0  0  0  0  0  0  0  0  0  0  0  0
    7.4153   -0.7676   20.9151 C   0  0  0  0  0  0  0  0  0  0  0  0
    8.2135   -1.6223   20.6282 O   0  0  0  0  0  0  0  0  0  0  0  0
    7.2021   -0.2743   22.6580 S   0  0  0  0  0  0  0  0  0  0  0  0
    8.5630    0.8890   22.7057 C   0  0  0  0  0  0  0  0  0  0  0  0
    9.8728    0.4540   22.9110 C   0  0  0  0  0  0  0  0  0  0  0  0
   10.0501   -0.6040   23.0789 H   0  0  0  0  0  0  0  0  0  0  0  0
   10.9565    1.3655   22.8613 C   0  0  0  0  0  0  0  0  0  0  0  0
   11.9686    0.9917   23.0231 H   0  0  0  0  0  0  0  0  0  0  0  0
   10.7384    2.7167   22.6145 C   0  0  0  0  0  0  0  0  0  0  0  0
   11.5736    3.4130   22.5610 H   0  0  0  0  0  0  0  0  0  0  0  0
    9.4065    3.1510   22.4410 C   0  0  0  0  0  0  0  0  0  0  0  0
    8.3070    2.2551   22.4502 C   0  0  0  0  0  0  0  0  0  0  0  0
    7.1329    3.0336   22.1704 C   0  0  0  0  0  0  0  0  0  0  0  0
    6.1193    2.6628   22.1203 H   0  0  0  0  0  0  0  0  0  0  0  0
    7.5335    4.3296   22.0237 C   0  0  0  0  0  0  0  0  0  0  0  0
    6.9655    5.2175   21.7744 H   0  0  0  0  0  0  0  0  0  0  0  0
    8.8956    4.4082   22.2275 N   0  0  0  0  0  0  0  0  0  0  0  0
    9.4794    5.1945   21.9879 H   0  0  0  0  0  0  0  0  0  0  0  0
    5.4245    0.6480   20.1600 C   0  0  0  0  0  0  0  0  0  0  0  0
    4.9759    0.6447   21.1543 H   0  0  0  0  0  0  0  0  0  0  0  0
    4.8042    1.3153   19.1062 C   0  0  0  0  0  0  0  0  0  0  0  0
    3.8726    1.8460   19.2463 H   0  0  0  0  0  0  0  0  0  0  0  0
  1  2  1  0
  2  3  2  0
  3  4  1  0
  4  5  1  0
  4  6  2  0
  6  7  1  0
  7  8  2  0
  7  9  1  0
  9 10  1  0
 10 11  2  0
 11 12  1  0
 11 13  1  0
 13 14  1  0
 13 15  2  0
 15 16  1  0
 15 17  1  0
 17 18  2  0
 18 19  1  0
 19 20  1  0
 19 21  2  0
 21 22  1  0
 21 23  1  0
 23 24  1  0
  6 25  1  0
 25 26  1  0
 25 27  2  0
 27 28  1  0
 27  2  1  0
 18 10  1  0
 23 17  1  0
M  END
>  <cnnaffinity>  (1) 
4.95974

>  <plip>  (1) 
-0.034482758620689655

>  <filename>  (1) 
[H][c]1[n][c]([H])[c]([C](=[O])[S][c]2[c]([H])[c]([H])[c]([H])[c]3[c]2[c]([H])[c]([H])[n]3[H])[c]([H])[c]1[H]

>  <combo1>  (1) 
-0.22416581763932156

$$$$
