
     RDKit          3D

 18 18  0  0  0  0  0  0  0  0999 V2000
    4.5911   -3.9829   24.0433 H   0  0  0  0  0  0  0  0  0  0  0  0
    4.5832   -3.5890   23.1021 N   0  0  0  0  0  0  0  0  0  0  0  0
    5.6688   -2.9874   22.9623 N   0  0  0  0  0  4  0  0  0  0  0  0
    5.9035   -2.2913   21.8880 N   0  0  0  0  0  0  0  0  0  0  0  0
    7.0632   -1.6626   21.7955 C   0  0  0  0  0  0  0  0  0  0  0  0
    8.0329   -2.0237   22.6459 F   0  0  0  0  0  0  0  0  0  0  0  0
    7.4302   -0.7232   20.8720 C   0  0  0  0  0  0  0  0  0  0  0  0
    8.4901   -0.4901   20.9026 H   0  0  0  0  0  0  0  0  0  0  0  0
    6.6445   -0.0362   19.8473 C   0  0  0  0  0  0  0  0  0  0  0  0
    7.1685    0.0837   18.5307 C   0  0  0  0  0  0  0  0  0  0  0  0
    8.1256   -0.3833   18.2802 H   0  0  0  0  0  0  0  0  0  0  0  0
    6.5628    0.7263   17.5388 N   0  0  0  0  0  0  0  0  0  0  0  0
    5.3942    1.3309   17.8163 C   0  0  0  0  0  0  0  0  0  0  0  0
    4.9160    1.8615   16.9915 H   0  0  0  0  0  0  0  0  0  0  0  0
    4.7978    1.2940   19.0759 C   0  0  0  0  0  0  0  0  0  0  0  0
    3.8746    1.8377   19.2366 H   0  0  0  0  0  0  0  0  0  0  0  0
    5.4195    0.5946   20.1125 C   0  0  0  0  0  0  0  0  0  0  0  0
    5.0007    0.5757   21.1228 H   0  0  0  0  0  0  0  0  0  0  0  0
  1  2  1  0
  2  3  2  0
  3  4  2  0
  4  5  1  0
  5  6  1  0
  5  7  2  3
  7  8  1  0
  7  9  1  0
  9 10  2  0
 10 11  1  0
 10 12  1  0
 12 13  2  0
 13 14  1  0
 13 15  1  0
 15 16  1  0
 15 17  2  0
 17 18  1  0
 17  9  1  0
M  CHG  1   3   1
M  END
>  <cnnaffinity>  (1) 
3.597

>  <plip>  (1) 
-0.03571428571428571

>  <filename>  (1) 
[H][N]=[N+]=[N][C]([F])=[C]([H])[c]1[c]([H])[n][c]([H])[c]([H])[c]1[H]

>  <combo1>  (1) 
-0.25928652306936417

$$$$
