
     RDKit          3D

 32 34  0  0  0  0  0  0  0  0999 V2000
    4.8254    1.3137   19.0939 C   0  0  0  0  0  0  0  0  0  0  0  0
    5.4241    1.2933   17.8287 C   0  0  0  0  0  0  0  0  0  0  0  0
    6.5766    0.6519   17.5720 N   0  0  0  0  0  0  0  0  0  0  0  0
    7.1800    0.0270   18.5986 C   0  0  0  0  0  0  0  0  0  0  0  0
    6.6708    0.0082   19.9198 C   0  0  0  0  0  0  0  0  0  0  0  0
    7.2954   -0.5875   21.0475 N   0  0  0  0  0  0  0  0  0  0  0  0
    8.6573   -0.7686   21.1803 C   0  0  0  0  0  0  0  0  0  0  0  0
    9.2351   -1.9064   21.4319 N   0  0  0  0  0  0  0  0  0  0  0  0
   10.5920   -1.6550   21.4964 N   0  0  0  0  0  0  0  0  0  0  0  0
   10.7576   -0.3795   21.3118 C   0  0  0  0  0  0  0  0  0  0  0  0
    9.5548    0.2607   21.1111 N   0  0  0  0  0  0  0  0  0  0  0  0
    9.2249    1.6914   21.0881 C   0  0  0  0  0  0  0  0  0  0  0  0
    8.5952    2.2210   22.3876 C   0  0  0  0  0  0  0  0  0  0  0  0
    8.1963    3.6668   22.2413 C   0  0  0  0  0  0  0  0  0  0  0  0
    9.0302    4.7131   22.5023 C   0  0  0  0  0  0  0  0  0  0  0  0
    8.3786    6.2240   22.0027 S   0  0  0  0  0  0  0  0  0  0  0  0
    6.9411    5.4599   21.4515 C   0  0  0  0  0  0  0  0  0  0  0  0
    6.9604    4.1173   21.6796 C   0  0  0  0  0  0  0  0  0  0  0  0
    6.1350    3.4527   21.4218 H   0  0  0  0  0  0  0  0  0  0  0  0
    6.1605    6.0368   20.9773 H   0  0  0  0  0  0  0  0  0  0  0  0
   10.0247    4.6523   22.9233 H   0  0  0  0  0  0  0  0  0  0  0  0
    7.7006    1.6278   22.6132 H   0  0  0  0  0  0  0  0  0  0  0  0
    9.3148    2.1307   23.2123 H   0  0  0  0  0  0  0  0  0  0  0  0
   10.1325    2.2703   20.8855 H   0  0  0  0  0  0  0  0  0  0  0  0
    8.5224    1.8716   20.2694 H   0  0  0  0  0  0  0  0  0  0  0  0
   11.7167    0.1246   21.3088 H   0  0  0  0  0  0  0  0  0  0  0  0
    6.8031   -1.3790   21.4371 H   0  0  0  0  0  0  0  0  0  0  0  0
    5.4577    0.6601   20.1544 C   0  0  0  0  0  0  0  0  0  0  0  0
    5.0571    0.6485   21.1687 H   0  0  0  0  0  0  0  0  0  0  0  0
    8.1150   -0.4875   18.3785 H   0  0  0  0  0  0  0  0  0  0  0  0
    4.9564    1.8052   16.9912 H   0  0  0  0  0  0  0  0  0  0  0  0
    3.8886    1.8384   19.2439 H   0  0  0  0  0  0  0  0  0  0  0  0
  1  2  2  0
  2  3  1  0
  3  4  2  0
  4  5  1  0
  5  6  1  0
  6  7  1  0
  7  8  2  0
  8  9  1  0
  9 10  2  0
 10 11  1  0
 11 12  1  0
 12 13  1  0
 13 14  1  0
 14 15  2  0
 15 16  1  0
 16 17  1  0
 17 18  2  0
 18 19  1  0
 17 20  1  0
 15 21  1  0
 13 22  1  0
 13 23  1  0
 12 24  1  0
 12 25  1  0
 10 26  1  0
  6 27  1  0
  5 28  2  0
 28 29  1  0
  4 30  1  0
  2 31  1  0
  1 32  1  0
 28  1  1  0
 11  7  1  0
 18 14  1  0
M  END
>  <cnnaffinity>  (1) 
5.35887

>  <plip>  (1) 
-0.07142857142857142

>  <filename>  (1) 
[H][c]1[n][c]([H])[c]([N]([H])[c]2[n][n][c]([H])[n]2[C]([H])([H])[C]([H])([H])[c]2[c]([H])[s][c]([H])[c]2[H])[c]([H])[c]1[H]

>  <combo1>  (1) 
-0.47021416278351075

$$$$
