
     RDKit          3D

 33 35  0  0  0  0  0  0  0  0999 V2000
    8.5003    5.3394   26.3167 H   0  0  0  0  0  0  0  0  0  0  0  0
    8.5696    4.4491   26.7067 O   0  0  0  0  0  0  0  0  0  0  0  0
    8.0649    3.8001   25.6406 C   0  0  0  0  0  0  0  0  0  0  0  0
    7.7291    4.4528   24.6779 O   0  0  0  0  0  0  0  0  0  0  0  0
    7.9777    2.3281   25.7878 C   0  0  0  0  0  0  0  0  0  0  0  0
    7.5304    1.3651   24.8921 C   0  0  0  0  0  0  0  0  0  0  0  0
    7.0758    1.5509   23.4751 C   0  0  0  0  0  0  0  0  0  0  0  0
    6.3423    0.7800   23.1946 H   0  0  0  0  0  0  0  0  0  0  0  0
    6.6213    2.5413   23.3440 H   0  0  0  0  0  0  0  0  0  0  0  0
    8.1954    1.4828   22.5360 N   0  0  0  0  0  0  0  0  0  0  0  0
    9.1334    2.4474   22.5263 N   0  0  0  0  0  0  0  0  0  0  0  0
   10.0111    2.1027   21.6606 N   0  0  0  0  0  0  0  0  0  0  0  0
    9.6961    0.9187   21.0843 N   0  0  0  0  0  0  0  0  0  0  0  0
    8.5678    0.5452   21.6426 C   0  0  0  0  0  0  0  0  0  0  0  0
    7.5605   -0.8336   21.1756 S   0  0  0  0  0  0  0  0  0  0  0  0
    6.6192   -0.0408   19.8656 C   0  0  0  0  0  0  0  0  0  0  0  0
    7.1467    0.0278   18.5639 C   0  0  0  0  0  0  0  0  0  0  0  0
    8.1100   -0.4333   18.3456 H   0  0  0  0  0  0  0  0  0  0  0  0
    6.5404    0.6651   17.5568 N   0  0  0  0  0  0  0  0  0  0  0  0
    5.3843    1.2939   17.8210 C   0  0  0  0  0  0  0  0  0  0  0  0
    4.9240    1.8140   16.9850 H   0  0  0  0  0  0  0  0  0  0  0  0
    4.7846    1.3027   19.0837 C   0  0  0  0  0  0  0  0  0  0  0  0
    3.8665    1.8575   19.2419 H   0  0  0  0  0  0  0  0  0  0  0  0
    5.4153    0.6218   20.1266 C   0  0  0  0  0  0  0  0  0  0  0  0
    4.9954    0.6258   21.1339 H   0  0  0  0  0  0  0  0  0  0  0  0
    7.7261    0.1305   25.5510 C   0  0  0  0  0  0  0  0  0  0  0  0
    7.4566   -1.2368   25.0122 C   0  0  0  0  0  0  0  0  0  0  0  0
    8.1578   -1.4570   24.1964 H   0  0  0  0  0  0  0  0  0  0  0  0
    6.4368   -1.2986   24.6081 H   0  0  0  0  0  0  0  0  0  0  0  0
    7.5787   -1.9806   25.8030 H   0  0  0  0  0  0  0  0  0  0  0  0
    8.2232    0.3211   26.7657 N   0  0  0  0  0  0  0  0  0  0  0  0
    8.3672    1.6406   26.8953 N   0  0  0  0  0  0  0  0  0  0  0  0
    8.7919    1.9997   27.7426 H   0  0  0  0  0  0  0  0  0  0  0  0
  1  2  1  0
  2  3  1  0
  3  4  2  0
  3  5  1  0
  5  6  2  0
  6  7  1  0
  7  8  1  0
  7  9  1  0
  7 10  1  0
 10 11  1  0
 11 12  2  0
 12 13  1  0
 13 14  2  0
 14 15  1  0
 15 16  1  0
 16 17  2  0
 17 18  1  0
 17 19  1  0
 19 20  2  0
 20 21  1  0
 20 22  1  0
 22 23  1  0
 22 24  2  0
 24 25  1  0
  6 26  1  0
 26 27  1  0
 27 28  1  0
 27 29  1  0
 27 30  1  0
 26 31  2  0
 31 32  1  0
 32 33  1  0
 32  5  1  0
 14 10  1  0
 24 16  1  0
M  END
>  <cnnaffinity>  (1) 
5.13246

>  <plip>  (1) 
-0.07142857142857142

>  <filename>  (1) 
[H][O][C](=[O])[c]1[c]([C]([H])([H])[n]2[n][n][n][c]2[S][c]2[c]([H])[n][c]([H])[c]([H])[c]2[H])[c]([C]([H])([H])[H])[n][n]1[H]

>  <combo1>  (1) 
-0.3850877264063371

$$$$
