
     RDKit          3D

 38 40  0  0  0  0  0  0  0  0999 V2000
    9.8112   -6.2107   26.4798 H   0  0  0  0  0  0  0  0  0  0  0  0
   10.6716   -5.8595   26.2137 O   0  0  0  0  0  0  0  0  0  0  0  0
   10.5247   -4.8539   25.2266 C   0  0  0  0  0  0  0  0  0  0  0  0
   11.5400   -4.5374   24.9607 H   0  0  0  0  0  0  0  0  0  0  0  0
   10.0472   -5.2474   24.3163 H   0  0  0  0  0  0  0  0  0  0  0  0
    9.7352   -3.6426   25.7247 C   0  0  0  0  0  0  0  0  0  0  0  0
   10.0779   -3.3698   26.7266 H   0  0  0  0  0  0  0  0  0  0  0  0
    8.6800   -3.9167   25.8483 H   0  0  0  0  0  0  0  0  0  0  0  0
    9.8455   -2.4954   24.8306 N   0  0  0  0  0  0  0  0  0  0  0  0
   10.2706   -2.5564   23.9182 H   0  0  0  0  0  0  0  0  0  0  0  0
    9.3160   -1.2823   25.1310 C   0  0  0  0  0  0  0  0  0  0  0  0
    8.8558   -1.0019   26.2282 O   0  0  0  0  0  0  0  0  0  0  0  0
    9.2464   -0.2518   23.9822 C   0  0  1  0  0  0  0  0  0  0  0  0
    9.4964    0.6914   24.4894 H   0  0  0  0  0  0  0  0  0  0  0  0
   10.1443   -0.4834   22.8915 O   0  0  0  0  0  0  0  0  0  0  0  0
    9.6858    0.3006   21.7922 C   0  0  0  0  0  0  0  0  0  0  0  0
   10.1076    1.3173   21.8341 H   0  0  0  0  0  0  0  0  0  0  0  0
   10.0637   -0.1556   20.8685 H   0  0  0  0  0  0  0  0  0  0  0  0
    8.1512    0.3281   21.8878 C   0  0  2  0  0  0  0  0  0  0  0  0
    7.7895    1.3437   21.6917 H   0  0  0  0  0  0  0  0  0  0  0  0
    7.8467   -0.1540   23.3223 C   0  0  1  0  0  0  0  0  0  0  0  0
    7.2205    0.5375   23.8956 H   0  0  0  0  0  0  0  0  0  0  0  0
    7.0948   -1.4845   23.0939 C   0  0  0  0  0  0  0  0  0  0  0  0
    6.2930   -1.6573   23.8184 H   0  0  0  0  0  0  0  0  0  0  0  0
    7.7733   -2.3516   23.1382 H   0  0  0  0  0  0  0  0  0  0  0  0
    6.5119   -1.3764   21.8130 O   0  0  0  0  0  0  0  0  0  0  0  0
    7.4070   -0.6772   20.9674 C   0  0  1  0  0  0  0  0  0  0  0  0
    8.1169   -1.4108   20.5478 H   0  0  0  0  0  0  0  0  0  0  0  0
    6.6302   -0.0153   19.8472 C   0  0  0  0  0  0  0  0  0  0  0  0
    7.1448    0.0519   18.5465 C   0  0  0  0  0  0  0  0  0  0  0  0
    8.0934   -0.4259   18.3041 H   0  0  0  0  0  0  0  0  0  0  0  0
    6.5474    0.6864   17.5288 N   0  0  0  0  0  0  0  0  0  0  0  0
    5.3907    1.3108   17.7908 C   0  0  0  0  0  0  0  0  0  0  0  0
    4.9282    1.8360   16.9569 H   0  0  0  0  0  0  0  0  0  0  0  0
    4.7811    1.3155   19.0522 C   0  0  0  0  0  0  0  0  0  0  0  0
    3.8547    1.8631   19.2083 H   0  0  0  0  0  0  0  0  0  0  0  0
    5.4162    0.6453   20.0968 C   0  0  0  0  0  0  0  0  0  0  0  0
    4.9952    0.6297   21.1030 H   0  0  0  0  0  0  0  0  0  0  0  0
  1  2  1  0
  2  3  1  0
  3  4  1  0
  3  5  1  0
  3  6  1  0
  6  7  1  0
  6  8  1  0
  6  9  1  0
  9 10  1  0
  9 11  1  0
 11 12  2  0
 11 13  1  0
 13 14  1  1
 13 15  1  0
 15 16  1  0
 16 17  1  0
 16 18  1  0
 16 19  1  0
 19 20  1  1
 19 21  1  0
 21 22  1  1
 21 23  1  0
 23 24  1  0
 23 25  1  0
 23 26  1  0
 26 27  1  0
 27 28  1  6
 27 29  1  0
 29 30  2  0
 30 31  1  0
 30 32  1  0
 32 33  2  0
 33 34  1  0
 33 35  1  0
 35 36  1  0
 35 37  2  0
 37 38  1  0
 21 13  1  0
 37 29  1  0
 27 19  1  0
M  END
>  <cnnaffinity>  (1) 
4.43489

>  <plip>  (1) 
-0.034482758620689655

>  <filename>  (1) 
[H][O][C]([H])([H])[C]([H])([H])[N]([H])[C](=[O])[C@@]1([H])[O][C]([H])([H])[C@]2([H])[C@@]1([H])[C]([H])([H])[O][C@@]2([H])[c]1[c]([H])[n][c]([H])[c]([H])[c]1[H]

>  <combo1>  (1) 
-0.1831630679909912

$$$$
