
     RDKit          3D

 23 24  0  0  0  0  0  0  0  0999 V2000
    5.0411    1.7948   16.7760 H   0  0  0  0  0  0  0  0  0  0  0  0
    5.4129    1.3475   17.6937 C   0  0  0  0  0  0  0  0  0  0  0  0
    6.5724    0.6804   17.5969 N   0  0  0  0  0  0  0  0  0  0  0  0
    7.0485    0.1325   18.7131 C   0  0  0  0  0  0  0  0  0  0  0  0
    7.9689   -0.4367   18.6187 H   0  0  0  0  0  0  0  0  0  0  0  0
    6.4312    0.2326   19.9728 C   0  0  0  0  0  0  0  0  0  0  0  0
    7.1680   -0.4020   21.0613 C   0  0  0  0  0  0  0  0  0  0  0  0
    8.2393   -1.1496   20.8493 N   0  0  0  0  0  0  0  0  0  0  0  0
    8.5826   -1.5741   22.0782 C   0  0  0  0  0  0  0  0  0  0  0  0
    9.7100   -2.4914   22.2447 C   0  0  0  0  0  0  0  0  0  0  0  0
    9.7796   -3.0742   21.3293 H   0  0  0  0  0  0  0  0  0  0  0  0
    9.5712   -3.1328   23.1105 H   0  0  0  0  0  0  0  0  0  0  0  0
   10.9955   -1.7382   22.3840 C   0  0  0  0  0  0  0  0  0  0  0  0
   11.9732   -2.6281   22.6260 F   0  0  0  0  0  0  0  0  0  0  0  0
   11.3229   -1.0836   21.2637 F   0  0  0  0  0  0  0  0  0  0  0  0
   10.9684   -0.8459   23.3852 F   0  0  0  0  0  0  0  0  0  0  0  0
    7.8382   -1.1278   23.0590 N   0  0  0  0  0  0  0  0  0  0  0  0
    6.9267   -0.3702   22.3880 N   0  0  0  0  0  0  0  0  0  0  0  0
    6.1850    0.1076   22.8799 H   0  0  0  0  0  0  0  0  0  0  0  0
    5.1852    0.8793   20.0480 C   0  0  0  0  0  0  0  0  0  0  0  0
    4.6126    0.9068   20.9761 H   0  0  0  0  0  0  0  0  0  0  0  0
    4.6771    1.4514   18.8795 C   0  0  0  0  0  0  0  0  0  0  0  0
    3.7239    1.9688   18.8707 H   0  0  0  0  0  0  0  0  0  0  0  0
  1  2  1  0
  2  3  2  0
  3  4  1  0
  4  5  1  0
  4  6  2  0
  6  7  1  0
  7  8  2  0
  8  9  1  0
  9 10  1  0
 10 11  1  0
 10 12  1  0
 10 13  1  0
 13 14  1  0
 13 15  1  0
 13 16  1  0
  9 17  2  0
 17 18  1  0
 18 19  1  0
  6 20  1  0
 20 21  1  0
 20 22  2  0
 22 23  1  0
 22  2  1  0
 18  7  1  0
M  END
>  <cnnaffinity>  (1) 
4.77486

>  <plip>  (1) 
-0.07142857142857142

>  <filename>  (1) 
[H][c]1[n][c]([H])[c](-[c]2[n][c]([C]([H])([H])[C]([F])([F])[F])[n][n]2[H])[c]([H])[c]1[H]

>  <combo1>  (1) 
-0.49824102717251456

$$$$
