
     RDKit          3D

 34 36  0  0  0  0  0  0  0  0999 V2000
    9.1386   -1.3181   23.1046 O   0  0  0  0  0  0  0  0  0  0  0  0
    9.1497   -0.1711   22.6890 C   0  0  0  0  0  0  0  0  0  0  0  0
    8.4194    0.2271   21.6116 N   0  0  0  0  0  0  0  0  0  0  0  0
    7.4440   -0.6770   21.0190 C   0  0  0  0  0  0  0  0  0  0  0  0
    6.6770    0.0229   19.9263 C   0  0  0  0  0  0  0  0  0  0  0  0
    5.4536    0.6666   20.1601 C   0  0  0  0  0  0  0  0  0  0  0  0
    4.8089    1.3143   19.1026 C   0  0  0  0  0  0  0  0  0  0  0  0
    5.4101    1.2934   17.8395 C   0  0  0  0  0  0  0  0  0  0  0  0
    6.5782    0.6817   17.5891 N   0  0  0  0  0  0  0  0  0  0  0  0
    7.1871    0.0784   18.6184 C   0  0  0  0  0  0  0  0  0  0  0  0
    8.1298   -0.4132   18.3764 H   0  0  0  0  0  0  0  0  0  0  0  0
    4.9410    1.7896   16.9902 H   0  0  0  0  0  0  0  0  0  0  0  0
    3.8650    1.8369   19.2388 H   0  0  0  0  0  0  0  0  0  0  0  0
    5.0034    0.6487   21.1567 H   0  0  0  0  0  0  0  0  0  0  0  0
    6.7624   -1.0691   21.7886 H   0  0  0  0  0  0  0  0  0  0  0  0
    7.9833   -1.5501   20.6311 H   0  0  0  0  0  0  0  0  0  0  0  0
    8.3362    1.2206   21.4570 H   0  0  0  0  0  0  0  0  0  0  0  0
   10.0699    0.8777   23.3204 C   0  0  0  0  0  0  0  0  0  0  0  0
   11.3159    1.1424   22.4515 C   0  0  0  0  0  0  0  0  0  0  0  0
   12.1519    2.1390   23.0400 O   0  0  0  0  0  0  0  0  0  0  0  0
   11.5099    3.2418   23.5309 C   0  0  0  0  0  0  0  0  0  0  0  0
   12.2572    4.3969   23.7751 C   0  0  0  0  0  0  0  0  0  0  0  0
   11.6339    5.5283   24.3158 C   0  0  0  0  0  0  0  0  0  0  0  0
   10.2640    5.4957   24.6168 C   0  0  0  0  0  0  0  0  0  0  0  0
    9.5169    4.3356   24.3746 C   0  0  0  0  0  0  0  0  0  0  0  0
   10.1331    3.2111   23.8302 C   0  0  0  0  0  0  0  0  0  0  0  0
    9.3570    2.1097   23.5497 O   0  0  0  0  0  0  0  0  0  0  0  0
    8.4551    4.2596   24.5839 H   0  0  0  0  0  0  0  0  0  0  0  0
    9.7681    6.3719   25.0229 H   0  0  0  0  0  0  0  0  0  0  0  0
   12.2164    6.4263   24.5027 H   0  0  0  0  0  0  0  0  0  0  0  0
   13.3148    4.3699   23.5227 H   0  0  0  0  0  0  0  0  0  0  0  0
   11.9440    0.2507   22.4086 H   0  0  0  0  0  0  0  0  0  0  0  0
   11.0305    1.4666   21.4381 H   0  0  0  0  0  0  0  0  0  0  0  0
   10.3736    0.4517   24.2838 H   0  0  0  0  0  0  0  0  0  0  0  0
  1  2  2  0
  2  3  1  0
  3  4  1  0
  4  5  1  0
  5  6  2  0
  6  7  1  0
  7  8  2  0
  8  9  1  0
  9 10  2  0
 10 11  1  0
  8 12  1  0
  7 13  1  0
  6 14  1  0
  4 15  1  0
  4 16  1  0
  3 17  1  0
  2 18  1  0
 18 19  1  0
 19 20  1  0
 20 21  1  0
 21 22  2  0
 22 23  1  0
 23 24  2  0
 24 25  1  0
 25 26  2  0
 26 27  1  0
 25 28  1  0
 24 29  1  0
 23 30  1  0
 22 31  1  0
 19 32  1  0
 19 33  1  0
 18 34  1  0
 10  5  1  0
 27 18  1  0
 26 21  1  0
M  END
>  <cnnaffinity>  (1) 
4.46711

>  <plip>  (1) 
-0.10714285714285714

>  <filename>  (1) 
[H][c]1[n][c]([H])[c]([C]([H])([H])[N]([H])[C](=[O])[C]2([H])[O][c]3[c]([H])[c]([H])[c]([H])[c]([H])[c]3[O][C]2([H])[H])[c]([H])[c]1[H]

>  <combo1>  (1) 
-0.590257957649407

$$$$
