
     RDKit          3D

 35 36  0  0  0  0  0  0  0  0999 V2000
   11.5962    0.0750   22.9575 O   0  0  0  0  0  0  0  0  0  0  0  0
   10.4829   -0.2273   23.3724 C   0  0  0  0  0  0  0  0  0  0  0  0
    9.9099   -1.5639   22.9886 C   0  0  0  0  0  0  0  0  0  0  0  0
   10.0203   -1.6405   21.4786 C   0  0  0  0  0  0  0  0  0  0  0  0
    9.1528   -0.5700   20.9872 N   0  0  0  0  0  0  0  0  0  0  0  0
    7.5174   -0.8991   21.2835 S   0  0  0  0  0  0  0  0  0  0  0  0
    7.2947   -2.3372   21.1013 O   0  0  0  0  0  0  0  0  0  0  0  0
    7.2632   -0.4092   22.6399 O   0  0  0  0  0  0  0  0  0  0  0  0
    6.6765    0.0454   20.0491 C   0  0  0  0  0  0  0  0  0  0  0  0
    5.4662    0.7131   20.2432 C   0  0  0  0  0  0  0  0  0  0  0  0
    4.9100    1.3021   19.1173 C   0  0  0  0  0  0  0  0  0  0  0  0
    5.5776    1.2307   17.8923 C   0  0  0  0  0  0  0  0  0  0  0  0
    6.7565    0.5983   17.7568 N   0  0  0  0  0  0  0  0  0  0  0  0
    7.2970    0.0086   18.8227 C   0  0  0  0  0  0  0  0  0  0  0  0
    8.2317   -0.5262   18.6843 H   0  0  0  0  0  0  0  0  0  0  0  0
    5.1275    1.6961   17.0180 H   0  0  0  0  0  0  0  0  0  0  0  0
    3.9600    1.8219   19.1660 H   0  0  0  0  0  0  0  0  0  0  0  0
    4.9485    0.7696   21.2049 H   0  0  0  0  0  0  0  0  0  0  0  0
    9.3338    0.2886   21.4888 H   0  0  0  0  0  0  0  0  0  0  0  0
    9.7091   -2.6248   21.1096 H   0  0  0  0  0  0  0  0  0  0  0  0
   11.0618   -1.4839   21.1563 H   0  0  0  0  0  0  0  0  0  0  0  0
    8.8671   -1.6198   23.3136 H   0  0  0  0  0  0  0  0  0  0  0  0
   10.4614   -2.3698   23.4779 H   0  0  0  0  0  0  0  0  0  0  0  0
    9.6847    0.6555   24.0840 N   0  0  0  0  0  0  0  0  0  0  0  0
    9.9870    2.0208   24.2795 C   0  0  0  0  0  0  0  0  0  0  0  0
   11.0217    2.6005   23.5470 C   0  0  0  0  0  0  0  0  0  0  0  0
   11.2839    3.9599   23.6961 C   0  0  0  0  0  0  0  0  0  0  0  0
   10.5271    4.7210   24.5954 C   0  0  0  0  0  0  0  0  0  0  0  0
   10.9712    6.5624   24.8349 Br  0  0  0  0  0  0  0  0  0  0  0  0
    9.5276    4.1836   25.3191 N   0  0  0  0  0  0  0  0  0  0  0  0
    9.2640    2.8665   25.1598 C   0  0  0  0  0  0  0  0  0  0  0  0
    8.4700    2.4262   25.7517 H   0  0  0  0  0  0  0  0  0  0  0  0
   12.0514    4.4317   23.0907 H   0  0  0  0  0  0  0  0  0  0  0  0
   11.6023    2.0251   22.8344 H   0  0  0  0  0  0  0  0  0  0  0  0
    8.7825    0.2969   24.3922 H   0  0  0  0  0  0  0  0  0  0  0  0
  1  2  2  0
  2  3  1  0
  3  4  1  0
  4  5  1  0
  5  6  1  0
  6  7  2  0
  6  8  2  0
  6  9  1  0
  9 10  2  0
 10 11  1  0
 11 12  2  0
 12 13  1  0
 13 14  2  0
 14 15  1  0
 12 16  1  0
 11 17  1  0
 10 18  1  0
  5 19  1  0
  4 20  1  0
  4 21  1  0
  3 22  1  0
  3 23  1  0
  2 24  1  0
 24 25  1  0
 25 26  2  0
 26 27  1  0
 27 28  2  0
 28 29  1  0
 28 30  1  0
 30 31  2  0
 31 32  1  0
 27 33  1  0
 26 34  1  0
 24 35  1  0
 14  9  1  0
 31 25  1  0
M  END
>  <cnnaffinity>  (1) 
5.40921

>  <plip>  (1) 
-0.10714285714285714

>  <filename>  (1) 
[H][c]1[n][c]([H])[c]([S](=[O])(=[O])[N]([H])[C]([H])([H])[C]([H])([H])[C](=[O])[N]([H])[c]2[c]([H])[n][c]([Br])[c]([H])[c]2[H])[c]([H])[c]1[H]

>  <combo1>  (1) 
-0.5014654943206532

$$$$
