
     RDKit          3D

 32 34  0  0  0  0  0  0  0  0999 V2000
    5.0499    1.8915   16.7092 H   0  0  0  0  0  0  0  0  0  0  0  0
    5.4038    1.3706   17.5975 C   0  0  0  0  0  0  0  0  0  0  0  0
    6.5497    0.6837   17.4636 N   0  0  0  0  0  0  0  0  0  0  0  0
    7.0240    0.0600   18.5463 C   0  0  0  0  0  0  0  0  0  0  0  0
    7.9605   -0.4874   18.4365 H   0  0  0  0  0  0  0  0  0  0  0  0
    6.3762    0.0844   19.7843 C   0  0  0  0  0  0  0  0  0  0  0  0
    7.0391   -0.6341   20.8918 C   0  0  0  0  0  0  0  0  0  0  0  0
    7.9386   -1.4206   20.7680 O   0  0  0  0  0  0  0  0  0  0  0  0
    6.4524   -0.2512   22.0977 O   0  0  0  0  0  0  0  0  0  0  0  0
    6.9876   -0.6636   23.3421 N   0  0  0  0  0  0  0  0  0  0  0  0
    6.6412   -1.6045   23.5126 H   0  0  0  0  0  0  0  0  0  0  0  0
    8.4012   -0.6431   23.3964 C   0  0  0  0  0  0  0  0  0  0  0  0
    9.0689   -1.8123   23.6853 C   0  0  0  0  0  0  0  0  0  0  0  0
    8.4934   -2.6864   23.9657 H   0  0  0  0  0  0  0  0  0  0  0  0
   10.4732   -1.8870   23.5436 C   0  0  0  0  0  0  0  0  0  0  0  0
   10.9580   -2.8455   23.7077 H   0  0  0  0  0  0  0  0  0  0  0  0
   11.2033   -0.7636   23.2229 C   0  0  0  0  0  0  0  0  0  0  0  0
   12.2846   -0.8054   23.1214 H   0  0  0  0  0  0  0  0  0  0  0  0
   10.5540    0.4949   23.0406 C   0  0  0  0  0  0  0  0  0  0  0  0
   11.2722    1.7145   22.8147 C   0  0  0  0  0  0  0  0  0  0  0  0
   12.3604    1.6998   22.8066 H   0  0  0  0  0  0  0  0  0  0  0  0
   10.5978    2.9027   22.6298 C   0  0  0  0  0  0  0  0  0  0  0  0
   11.1444    3.8294   22.4655 H   0  0  0  0  0  0  0  0  0  0  0  0
    9.1775    2.9426   22.6651 C   0  0  0  0  0  0  0  0  0  0  0  0
    8.6554    3.8844   22.5115 H   0  0  0  0  0  0  0  0  0  0  0  0
    8.4541    1.7986   22.8989 C   0  0  0  0  0  0  0  0  0  0  0  0
    7.3691    1.8090   22.9596 H   0  0  0  0  0  0  0  0  0  0  0  0
    9.1229    0.5530   23.1024 C   0  0  0  0  0  0  0  0  0  0  0  0
    5.1702    0.7849   19.9198 C   0  0  0  0  0  0  0  0  0  0  0  0
    4.6528    0.8120   20.8788 H   0  0  0  0  0  0  0  0  0  0  0  0
    4.6780    1.4416   18.7931 C   0  0  0  0  0  0  0  0  0  0  0  0
    3.7607    2.0179   18.8402 H   0  0  0  0  0  0  0  0  0  0  0  0
  1  2  1  0
  2  3  2  0
  3  4  1  0
  4  5  1  0
  4  6  2  0
  6  7  1  0
  7  8  2  0
  7  9  1  0
  9 10  1  0
 10 11  1  0
 10 12  1  0
 12 13  2  0
 13 14  1  0
 13 15  1  0
 15 16  1  0
 15 17  2  0
 17 18  1  0
 17 19  1  0
 19 20  2  0
 20 21  1  0
 20 22  1  0
 22 23  1  0
 22 24  2  0
 24 25  1  0
 24 26  1  0
 26 27  1  0
 26 28  2  0
  6 29  1  0
 29 30  1  0
 29 31  2  0
 31 32  1  0
 31  2  1  0
 28 12  1  0
 28 19  1  0
M  END
>  <cnnaffinity>  (1) 
5.15525

>  <plip>  (1) 
-0.07142857142857142

>  <filename>  (1) 
[H][c]1[n][c]([H])[c]([C](=[O])[O][N]([H])[c]2[c]([H])[c]([H])[c]([H])[c]3[c]([H])[c]([H])[c]([H])[c]([H])[c]23)[c]([H])[c]1[H]

>  <combo1>  (1) 
-0.4644399495203933

$$$$
