
     RDKit          3D

 40 42  0  0  0  0  0  0  0  0999 V2000
    6.6619   -1.6872   21.7215 C   0  0  0  0  0  0  0  0  0  0  0  0
    7.3930   -0.6691   20.9583 N   0  0  0  0  0  0  0  0  0  0  0  0
    8.6924   -0.2636   21.2674 C   0  0  0  0  0  0  0  0  0  0  0  0
    9.2815    0.5655   20.5884 O   0  0  0  0  0  0  0  0  0  0  0  0
    9.4012   -0.9309   22.4493 C   0  0  0  0  0  0  0  0  0  0  0  0
   10.4925   -0.0567   23.0972 C   0  0  0  0  0  0  0  0  0  0  0  0
    9.9381    1.2146   23.7686 C   0  0  0  0  0  0  0  0  0  0  0  0
    8.9474    0.9019   24.8439 C   0  0  0  0  0  0  0  0  0  0  0  0
    9.3199    0.4106   26.0123 N   0  0  0  0  0  0  0  0  0  0  0  0
    8.1824    0.1932   26.7071 N   0  0  0  0  0  0  0  0  0  0  0  0
    7.0625    0.5311   26.0052 C   0  0  0  0  0  0  0  0  0  0  0  0
    5.6850    0.4775   26.3183 C   0  0  0  0  0  0  0  0  0  0  0  0
    4.7975    0.9125   25.3507 C   0  0  0  0  0  0  0  0  0  0  0  0
    5.2493    1.3897   24.0881 C   0  0  0  0  0  0  0  0  0  0  0  0
    6.5932    1.4374   23.7770 C   0  0  0  0  0  0  0  0  0  0  0  0
    7.5216    1.0055   24.7578 C   0  0  0  0  0  0  0  0  0  0  0  0
    6.9382    1.8108   22.8145 H   0  0  0  0  0  0  0  0  0  0  0  0
    4.5261    1.7435   23.3615 H   0  0  0  0  0  0  0  0  0  0  0  0
    3.7302    0.8929   25.5506 H   0  0  0  0  0  0  0  0  0  0  0  0
    5.3430    0.1093   27.2798 H   0  0  0  0  0  0  0  0  0  0  0  0
    8.2368   -0.1769   27.6435 H   0  0  0  0  0  0  0  0  0  0  0  0
   10.7561    1.8217   24.1778 H   0  0  0  0  0  0  0  0  0  0  0  0
    9.4219    1.8236   23.0176 H   0  0  0  0  0  0  0  0  0  0  0  0
   11.2205    0.2439   22.3335 H   0  0  0  0  0  0  0  0  0  0  0  0
   11.0340   -0.6483   23.8482 H   0  0  0  0  0  0  0  0  0  0  0  0
    8.6729   -1.2636   23.1978 H   0  0  0  0  0  0  0  0  0  0  0  0
    9.8697   -1.8391   22.0437 H   0  0  0  0  0  0  0  0  0  0  0  0
    6.6839    0.0101   19.9025 C   0  0  0  0  0  0  0  0  0  0  0  0
    5.4613    0.6432   20.1598 C   0  0  0  0  0  0  0  0  0  0  0  0
    4.8136    1.3074   19.1091 C   0  0  0  0  0  0  0  0  0  0  0  0
    5.3915    1.2906   17.8360 C   0  0  0  0  0  0  0  0  0  0  0  0
    6.5497    0.6662   17.5653 N   0  0  0  0  0  0  0  0  0  0  0  0
    7.1787    0.0602   18.5802 C   0  0  0  0  0  0  0  0  0  0  0  0
    8.1316   -0.4095   18.3468 H   0  0  0  0  0  0  0  0  0  0  0  0
    4.9181    1.7960   16.9965 H   0  0  0  0  0  0  0  0  0  0  0  0
    3.8791    1.8328   19.2588 H   0  0  0  0  0  0  0  0  0  0  0  0
    5.0524    0.6109   21.1707 H   0  0  0  0  0  0  0  0  0  0  0  0
    6.3435   -1.3326   22.7152 H   0  0  0  0  0  0  0  0  0  0  0  0
    7.2534   -2.6036   21.8508 H   0  0  0  0  0  0  0  0  0  0  0  0
    5.7726   -1.9571   21.1442 H   0  0  0  0  0  0  0  0  0  0  0  0
  1  2  1  0
  2  3  1  0
  3  4  2  0
  3  5  1  0
  5  6  1  0
  6  7  1  0
  7  8  1  0
  8  9  2  0
  9 10  1  0
 10 11  1  0
 11 12  2  0
 12 13  1  0
 13 14  2  0
 14 15  1  0
 15 16  2  0
 15 17  1  0
 14 18  1  0
 13 19  1  0
 12 20  1  0
 10 21  1  0
  7 22  1  0
  7 23  1  0
  6 24  1  0
  6 25  1  0
  5 26  1  0
  5 27  1  0
  2 28  1  0
 28 29  2  0
 29 30  1  0
 30 31  2  0
 31 32  1  0
 32 33  2  0
 33 34  1  0
 31 35  1  0
 30 36  1  0
 29 37  1  0
  1 38  1  0
  1 39  1  0
  1 40  1  0
 16  8  1  0
 33 28  1  0
 16 11  1  0
M  END
>  <cnnaffinity>  (1) 
5.37635

>  <plip>  (1) 
-0.07142857142857142

>  <filename>  (1) 
[H][c]1[n][c]([H])[c]([N]([C](=[O])[C]([H])([H])[C]([H])([H])[C]([H])([H])[c]2[n][n]([H])[c]3[c]([H])[c]([H])[c]([H])[c]([H])[c]23)[C]([H])([H])[H])[c]([H])[c]1[H]

>  <combo1>  (1) 
-0.43487295515438124

$$$$
