
     RDKit          3D

 34 36  0  0  0  0  0  0  0  0999 V2000
    4.7969    1.3528   19.0569 C   0  0  0  0  0  0  0  0  0  0  0  0
    5.3940    1.3311   17.7952 C   0  0  0  0  0  0  0  0  0  0  0  0
    6.5606    0.7173   17.5462 N   0  0  0  0  0  0  0  0  0  0  0  0
    7.1667    0.1115   18.5757 C   0  0  0  0  0  0  0  0  0  0  0  0
    6.6591    0.0656   19.8879 C   0  0  0  0  0  0  0  0  0  0  0  0
    7.3512   -0.7138   20.9888 C   0  0  0  0  0  0  0  0  0  0  0  0
    6.8731   -2.1704   21.0105 C   0  0  0  0  0  0  0  0  0  0  0  0
    7.4253   -2.9898   22.1311 N   0  0  0  0  0  4  0  0  0  0  0  0
    6.7904   -4.3771   22.1991 C   0  0  0  0  0  0  0  0  0  0  0  0
    7.1239   -5.0549   23.5294 C   0  0  0  0  0  0  0  0  0  0  0  0
    8.5812   -4.8859   23.8354 C   0  0  0  0  0  0  0  0  0  0  0  0
    9.3870   -3.9091   23.3179 C   0  0  0  0  0  0  0  0  0  0  0  0
   10.5955   -4.0092   24.0389 C   0  0  0  0  0  0  0  0  0  0  0  0
   10.5658   -5.0276   24.8892 N   0  0  0  0  0  0  0  0  0  0  0  0
    9.3320   -5.5514   24.7536 N   0  0  0  0  0  0  0  0  0  0  0  0
    9.1026   -6.4097   25.2383 H   0  0  0  0  0  0  0  0  0  0  0  0
   11.4889   -3.3914   23.9655 H   0  0  0  0  0  0  0  0  0  0  0  0
    8.9588   -3.0690   22.1516 C   0  0  0  0  0  0  0  0  0  0  0  0
    9.3633   -2.0601   22.2331 H   0  0  0  0  0  0  0  0  0  0  0  0
    9.2886   -3.4766   21.1845 H   0  0  0  0  0  0  0  0  0  0  0  0
    6.8484   -6.1084   23.4786 H   0  0  0  0  0  0  0  0  0  0  0  0
    6.5268   -4.5847   24.3227 H   0  0  0  0  0  0  0  0  0  0  0  0
    5.7060   -4.2695   22.0860 H   0  0  0  0  0  0  0  0  0  0  0  0
    7.1679   -4.9626   21.3540 H   0  0  0  0  0  0  0  0  0  0  0  0
    7.1756   -2.5258   23.0359 H   0  0  0  0  0  0  0  0  0  0  0  0
    5.7776   -2.1796   21.0601 H   0  0  0  0  0  0  0  0  0  0  0  0
    7.1335   -2.6390   20.0528 H   0  0  0  0  0  0  0  0  0  0  0  0
    7.1375   -0.2707   21.9698 H   0  0  0  0  0  0  0  0  0  0  0  0
    8.4374   -0.6822   20.8423 H   0  0  0  0  0  0  0  0  0  0  0  0
    5.4381    0.7118   20.1179 C   0  0  0  0  0  0  0  0  0  0  0  0
    4.9965    0.7209   21.1180 H   0  0  0  0  0  0  0  0  0  0  0  0
    8.1146   -0.3773   18.3331 H   0  0  0  0  0  0  0  0  0  0  0  0
    4.9179    1.8226   16.9473 H   0  0  0  0  0  0  0  0  0  0  0  0
    3.8522    1.8638   19.1917 H   0  0  0  0  0  0  0  0  0  0  0  0
  1  2  2  0
  2  3  1  0
  3  4  2  0
  4  5  1  0
  5  6  1  0
  6  7  1  0
  7  8  1  0
  8  9  1  0
  9 10  1  0
 10 11  1  0
 11 12  2  0
 12 13  1  0
 13 14  2  0
 14 15  1  0
 15 16  1  0
 13 17  1  0
 12 18  1  0
 18 19  1  0
 18 20  1  0
 10 21  1  0
 10 22  1  0
  9 23  1  0
  9 24  1  0
  8 25  1  0
  7 26  1  0
  7 27  1  0
  6 28  1  0
  6 29  1  0
  5 30  2  0
 30 31  1  0
  4 32  1  0
  2 33  1  0
  1 34  1  0
 30  1  1  0
 18  8  1  0
 15 11  1  0
M  CHG  1   8   1
M  END
>  <cnnaffinity>  (1) 
4.83505

>  <plip>  (1) 
-0.13793103448275862

>  <filename>  (1) 
[H][c]1[n][c]([H])[c]([C]([H])([H])[C]([H])([H])[N+]2([H])[C]([H])([H])[c]3[c]([H])[n][n]([H])[c]3[C]([H])([H])[C]2([H])[H])[c]([H])[c]1[H]

>  <combo1>  (1) 
-0.9694477247763357

$$$$
