
     RDKit          3D

 47 49  0  0  0  0  0  0  0  0999 V2000
    7.1376    2.7709   22.1602 O   0  0  0  0  0  0  0  0  0  0  0  0
    8.3748    2.9296   22.7762 C   0  0  0  0  0  0  0  0  0  0  0  0
    8.5638    3.9223   23.7306 C   0  0  0  0  0  0  0  0  0  0  0  0
    9.7702    3.9630   24.4439 C   0  0  0  0  0  0  0  0  0  0  0  0
   10.7786    3.0280   24.1802 C   0  0  0  0  0  0  0  0  0  0  0  0
   10.5844    2.0543   23.1910 C   0  0  0  0  0  0  0  0  0  0  0  0
    9.3842    2.0049   22.4708 C   0  0  0  0  0  0  0  0  0  0  0  0
    9.0844    0.9835   21.4164 C   0  0  0  0  0  0  0  0  0  0  0  0
    7.8706    0.2874   21.9052 N   0  0  0  0  0  4  0  0  0  0  0  0
    7.3203   -0.7582   21.0117 C   0  0  0  0  0  0  0  0  0  0  0  0
    6.4161   -1.7524   21.7533 C   0  0  0  0  0  0  0  0  0  0  0  0
    7.0875   -2.9686   22.3112 N   0  0  0  0  0  4  0  0  0  0  0  0
    7.8383   -3.8903   21.3640 C   0  0  0  0  0  0  0  0  0  0  0  0
    7.8295   -5.2665   22.0636 C   0  0  0  0  0  0  0  0  0  0  0  0
    6.9706   -5.0798   23.3330 C   0  0  0  0  0  0  0  0  0  0  0  0
    6.1179   -3.8618   23.0255 C   0  0  0  0  0  0  0  0  0  0  0  0
    5.7079   -3.3620   23.9118 H   0  0  0  0  0  0  0  0  0  0  0  0
    5.2903   -4.0977   22.3401 H   0  0  0  0  0  0  0  0  0  0  0  0
    6.3693   -5.9573   23.5874 H   0  0  0  0  0  0  0  0  0  0  0  0
    7.6140   -4.8376   24.1909 H   0  0  0  0  0  0  0  0  0  0  0  0
    8.8394   -5.6085   22.3095 H   0  0  0  0  0  0  0  0  0  0  0  0
    7.3952   -6.0116   21.3886 H   0  0  0  0  0  0  0  0  0  0  0  0
    8.8418   -3.4974   21.1650 H   0  0  0  0  0  0  0  0  0  0  0  0
    7.2939   -3.9347   20.4152 H   0  0  0  0  0  0  0  0  0  0  0  0
    7.7798   -2.6602   23.0365 H   0  0  0  0  0  0  0  0  0  0  0  0
    5.6220   -2.0587   21.0620 H   0  0  0  0  0  0  0  0  0  0  0  0
    5.9357   -1.2020   22.5737 H   0  0  0  0  0  0  0  0  0  0  0  0
    6.5856   -0.0180   19.9105 C   0  0  0  0  0  0  0  0  0  0  0  0
    5.3673    0.6532   20.1069 C   0  0  0  0  0  0  0  0  0  0  0  0
    4.8293    1.3937   19.0481 C   0  0  0  0  0  0  0  0  0  0  0  0
    5.5178    1.4191   17.8331 C   0  0  0  0  0  0  0  0  0  0  0  0
    6.6651    0.7609   17.6188 N   0  0  0  0  0  0  0  0  0  0  0  0
    7.1781    0.0685   18.6456 C   0  0  0  0  0  0  0  0  0  0  0  0
    8.1182   -0.4528   18.4470 H   0  0  0  0  0  0  0  0  0  0  0  0
    5.1202    1.9803   16.9863 H   0  0  0  0  0  0  0  0  0  0  0  0
    3.9111    1.9620   19.1543 H   0  0  0  0  0  0  0  0  0  0  0  0
    4.8389    0.6089   21.0631 H   0  0  0  0  0  0  0  0  0  0  0  0
    8.1512   -1.3305   20.5711 H   0  0  0  0  0  0  0  0  0  0  0  0
    8.0837   -0.0437   22.8629 H   0  0  0  0  0  0  0  0  0  0  0  0
    7.1694    1.0630   22.0012 H   0  0  0  0  0  0  0  0  0  0  0  0
    9.9182    0.2938   21.2404 H   0  0  0  0  0  0  0  0  0  0  0  0
    8.8421    1.4636   20.4651 H   0  0  0  0  0  0  0  0  0  0  0  0
   11.3657    1.3237   22.9765 H   0  0  0  0  0  0  0  0  0  0  0  0
   11.7135    3.0380   24.7325 H   0  0  0  0  0  0  0  0  0  0  0  0
    9.9215    4.7233   25.2115 H   0  0  0  0  0  0  0  0  0  0  0  0
    7.7548    4.6226   23.9219 H   0  0  0  0  0  0  0  0  0  0  0  0
    6.9287    3.5986   21.7085 H   0  0  0  0  0  0  0  0  0  0  0  0
  1  2  1  0
  2  3  2  0
  3  4  1  0
  4  5  2  0
  5  6  1  0
  6  7  2  0
  7  8  1  0
  8  9  1  0
  9 10  1  0
 10 11  1  0
 11 12  1  0
 12 13  1  0
 13 14  1  0
 14 15  1  0
 15 16  1  0
 16 17  1  0
 16 18  1  0
 15 19  1  0
 15 20  1  0
 14 21  1  0
 14 22  1  0
 13 23  1  0
 13 24  1  0
 12 25  1  0
 11 26  1  0
 11 27  1  0
 10 28  1  0
 28 29  2  0
 29 30  1  0
 30 31  2  0
 31 32  1  0
 32 33  2  0
 33 34  1  0
 31 35  1  0
 30 36  1  0
 29 37  1  0
 10 38  1  0
  9 39  1  0
  9 40  1  0
  8 41  1  0
  8 42  1  0
  6 43  1  0
  5 44  1  0
  4 45  1  0
  3 46  1  0
  1 47  1  0
  7  2  1  0
 16 12  1  0
 33 28  1  0
M  CHG  2   9   1  12   1
M  END
>  <cnnaffinity>  (1) 
4.82961

>  <plip>  (1) 
-0.13793103448275862

>  <filename>  (1) 
[H][O][c]1[c]([H])[c]([H])[c]([H])[c]([H])[c]1[C]([H])([H])[N+]([H])([H])[C]([H])([c]1[c]([H])[n][c]([H])[c]([H])[c]1[H])[C]([H])([H])[N+]1([H])[C]([H])([H])[C]([H])([H])[C]([H])([H])[C]1([H])[H]

>  <combo1>  (1) 
-0.7416088360845331

$$$$
