
     RDKit          3D

 35 36  0  0  0  0  0  0  0  0999 V2000
    7.9718   -1.4842   23.7511 O   0  0  0  0  0  0  0  0  0  0  0  0
    7.6809   -0.3047   23.6881 C   0  0  0  0  0  0  0  0  0  0  0  0
    7.6143    0.5262   24.9515 C   0  0  0  0  0  0  0  0  0  0  0  0
    6.2331    0.4834   25.6179 C   0  0  0  0  0  0  0  0  0  0  0  0
    4.9716    1.2447   24.5289 S   0  0  0  0  0  0  0  0  0  0  0  0
    3.5724    0.8828   25.5445 C   0  0  0  0  0  0  0  0  0  0  0  0
    2.9092   -0.3394   25.4192 C   0  0  0  0  0  0  0  0  0  0  0  0
    1.7385   -0.6027   26.1285 C   0  0  0  0  0  0  0  0  0  0  0  0
    1.2709    0.3186   27.0601 C   0  0  0  0  0  0  0  0  0  0  0  0
   -0.2802   -0.0931   28.0832 Br  0  0  0  0  0  0  0  0  0  0  0  0
    1.9687    1.5139   27.2559 C   0  0  0  0  0  0  0  0  0  0  0  0
    3.0989    1.8065   26.4800 C   0  0  0  0  0  0  0  0  0  0  0  0
    3.6254    2.7448   26.6093 H   0  0  0  0  0  0  0  0  0  0  0  0
    1.6305    2.2145   28.0110 H   0  0  0  0  0  0  0  0  0  0  0  0
    1.2036   -1.5337   25.9757 H   0  0  0  0  0  0  0  0  0  0  0  0
    3.3115   -1.1030   24.7755 H   0  0  0  0  0  0  0  0  0  0  0  0
    6.2716    1.0442   26.5568 H   0  0  0  0  0  0  0  0  0  0  0  0
    5.9435   -0.5490   25.8532 H   0  0  0  0  0  0  0  0  0  0  0  0
    8.3634    0.1277   25.6388 H   0  0  0  0  0  0  0  0  0  0  0  0
    7.8824    1.5541   24.6989 H   0  0  0  0  0  0  0  0  0  0  0  0
    7.4698    0.2437   22.4727 N   0  0  0  0  0  0  0  0  0  0  0  0
    7.5081   -0.8393   21.2191 S   0  0  0  0  0  0  0  0  0  0  0  0
    6.7960   -2.0591   21.6089 O   0  0  0  0  0  0  0  0  0  0  0  0
    8.9006   -1.0480   20.8106 O   0  0  0  0  0  0  0  0  0  0  0  0
    6.6045    0.0524   20.0071 C   0  0  0  0  0  0  0  0  0  0  0  0
    5.3908    0.6967   20.2366 C   0  0  0  0  0  0  0  0  0  0  0  0
    4.8264    1.3061   19.1326 C   0  0  0  0  0  0  0  0  0  0  0  0
    5.4803    1.2592   17.9008 C   0  0  0  0  0  0  0  0  0  0  0  0
    6.6542    0.6234   17.7319 N   0  0  0  0  0  0  0  0  0  0  0  0
    7.2134    0.0223   18.7777 C   0  0  0  0  0  0  0  0  0  0  0  0
    8.1608   -0.4943   18.6254 H   0  0  0  0  0  0  0  0  0  0  0  0
    5.0097    1.7444   17.0505 H   0  0  0  0  0  0  0  0  0  0  0  0
    3.8850    1.8313   19.2222 H   0  0  0  0  0  0  0  0  0  0  0  0
    4.8989    0.7408   21.2132 H   0  0  0  0  0  0  0  0  0  0  0  0
    7.3022    1.2195   22.3008 H   0  0  0  0  0  0  0  0  0  0  0  0
  1  2  2  0
  2  3  1  0
  3  4  1  0
  4  5  1  0
  5  6  1  0
  6  7  2  0
  7  8  1  0
  8  9  2  0
  9 10  1  0
  9 11  1  0
 11 12  2  0
 12 13  1  0
 11 14  1  0
  8 15  1  0
  7 16  1  0
  4 17  1  0
  4 18  1  0
  3 19  1  0
  3 20  1  0
  2 21  1  0
 21 22  1  0
 22 23  2  0
 22 24  2  0
 22 25  1  0
 25 26  2  0
 26 27  1  0
 27 28  2  0
 28 29  1  0
 29 30  2  0
 30 31  1  0
 28 32  1  0
 27 33  1  0
 26 34  1  0
 21 35  1  0
 12  6  1  0
 30 25  1  0
M  END
>  <cnnaffinity>  (1) 
4.99384

>  <plip>  (1) 
-0.034482758620689655

>  <filename>  (1) 
[H][c]1[n][c]([H])[c]([S](=[O])(=[O])[N]([H])[C](=[O])[C]([H])([H])[C]([H])([H])[S][c]2[c]([H])[c]([H])[c]([Br])[c]([H])[c]2[H])[c]([H])[c]1[H]

>  <combo1>  (1) 
-0.14303378652780768

$$$$
