
     RDKit          3D

 38 40  0  0  0  0  0  0  0  0999 V2000
    4.9143    1.7907   16.9899 H   0  0  0  0  0  0  0  0  0  0  0  0
    5.3936    1.3007   17.8329 C   0  0  0  0  0  0  0  0  0  0  0  0
    6.5528    0.6812   17.5673 N   0  0  0  0  0  0  0  0  0  0  0  0
    7.1546    0.0646   18.5871 C   0  0  0  0  0  0  0  0  0  0  0  0
    8.1033   -0.4191   18.3552 H   0  0  0  0  0  0  0  0  0  0  0  0
    6.6573   -0.0049   19.9057 C   0  0  0  0  0  0  0  0  0  0  0  0
    7.4827   -0.7719   20.9412 C   0  0  1  0  0  0  0  0  0  0  0  0
    7.6685   -1.7651   20.4997 H   0  0  0  0  0  0  0  0  0  0  0  0
    8.8601   -0.1216   21.2102 C   0  0  0  0  0  0  0  0  0  0  0  0
    9.3345    0.1584   20.2639 H   0  0  0  0  0  0  0  0  0  0  0  0
    9.5216   -0.8517   21.6922 H   0  0  0  0  0  0  0  0  0  0  0  0
    8.8056    1.0670   22.0620 N   0  0  0  0  0  0  0  0  0  0  0  0
    8.1874    1.7438   21.6152 H   0  0  0  0  0  0  0  0  0  0  0  0
    8.2240    0.7455   23.3656 C   0  0  0  0  0  0  0  0  0  0  0  0
    8.8815    0.0137   23.8496 H   0  0  0  0  0  0  0  0  0  0  0  0
    8.2357    1.6491   23.9872 H   0  0  0  0  0  0  0  0  0  0  0  0
    6.8039    0.1826   23.2453 C   0  0  0  0  0  0  0  0  0  0  0  0
    6.1422    0.9794   22.8868 H   0  0  0  0  0  0  0  0  0  0  0  0
    6.4406   -0.1154   24.2343 H   0  0  0  0  0  0  0  0  0  0  0  0
    6.7614   -1.0305   22.2887 C   0  0  2  0  0  0  0  0  0  0  0  0
    5.7243   -1.2577   22.0039 H   0  0  0  0  0  0  0  0  0  0  0  0
    7.3669   -2.1726   22.9896 N   0  0  0  0  0  0  0  0  0  0  0  0
    7.7639   -2.8180   22.3183 H   0  0  0  0  0  0  0  0  0  0  0  0
    6.4272   -2.9493   23.8146 C   0  0  0  0  0  0  0  0  0  0  0  0
    5.6713   -3.4969   23.2219 H   0  0  0  0  0  0  0  0  0  0  0  0
    5.8625   -2.2520   24.4482 H   0  0  0  0  0  0  0  0  0  0  0  0
    7.1865   -3.8820   24.7176 C   0  0  0  0  0  0  0  0  0  0  0  0
    7.4500   -5.5441   24.3197 S   0  0  0  0  0  0  0  0  0  0  0  0
    8.3860   -5.7949   25.7396 C   0  0  0  0  0  0  0  0  0  0  0  0
    8.8091   -6.7691   25.9374 H   0  0  0  0  0  0  0  0  0  0  0  0
    8.4900   -4.6642   26.4888 C   0  0  0  0  0  0  0  0  0  0  0  0
    9.0472   -4.6067   27.4178 H   0  0  0  0  0  0  0  0  0  0  0  0
    7.7945   -3.5652   25.8960 C   0  0  0  0  0  0  0  0  0  0  0  0
    7.7678   -2.5678   26.3202 H   0  0  0  0  0  0  0  0  0  0  0  0
    5.4416    0.6500   20.1550 C   0  0  0  0  0  0  0  0  0  0  0  0
    4.9888    0.6377   21.1479 H   0  0  0  0  0  0  0  0  0  0  0  0
    4.8102    1.3157   19.1012 C   0  0  0  0  0  0  0  0  0  0  0  0
    3.8781    1.8401   19.2558 H   0  0  0  0  0  0  0  0  0  0  0  0
  1  2  1  0
  2  3  2  0
  3  4  1  0
  4  5  1  0
  4  6  2  0
  6  7  1  0
  7  8  1  6
  7  9  1  0
  9 10  1  0
  9 11  1  0
  9 12  1  0
 12 13  1  0
 12 14  1  0
 14 15  1  0
 14 16  1  0
 14 17  1  0
 17 18  1  0
 17 19  1  0
 17 20  1  0
 20 21  1  6
 20 22  1  0
 22 23  1  0
 22 24  1  0
 24 25  1  0
 24 26  1  0
 24 27  1  0
 27 28  1  0
 28 29  1  0
 29 30  1  0
 29 31  2  0
 31 32  1  0
 31 33  1  0
 33 34  1  0
  6 35  1  0
 35 36  1  0
 35 37  2  0
 37 38  1  0
 37  2  1  0
 20  7  1  0
 33 27  2  0
M  END
>  <cnnaffinity>  (1) 
4.81803

>  <plip>  (1) 
-0.07142857142857142

>  <filename>  (1) 
[H][c]1[n][c]([H])[c]([C@@]2([H])[C]([H])([H])[N]([H])[C]([H])([H])[C]([H])([H])[C@]2([H])[N]([H])[C]([H])([H])[c]2[s][c]([H])[c]([H])[c]2[H])[c]([H])[c]1[H]

>  <combo1>  (1) 
-0.4195790128198094

$$$$
