
     RDKit          3D

 42 45  0  0  0  0  0  0  0  0999 V2000
    4.9146    1.7885   16.9932 H   0  0  0  0  0  0  0  0  0  0  0  0
    5.4000    1.2962   17.8345 C   0  0  0  0  0  0  0  0  0  0  0  0
    6.5663    0.6861   17.5691 N   0  0  0  0  0  0  0  0  0  0  0  0
    7.1895    0.0748   18.5899 C   0  0  0  0  0  0  0  0  0  0  0  0
    8.1304   -0.4200   18.3545 H   0  0  0  0  0  0  0  0  0  0  0  0
    6.6879   -0.0110   19.9139 C   0  0  0  0  0  0  0  0  0  0  0  0
    7.3582   -0.6973   20.9479 N   0  0  0  0  0  0  0  0  0  0  0  0
    6.6622   -1.6874   21.7475 C   0  0  0  0  0  0  0  0  0  0  0  0
    5.9098   -1.2088   22.3722 H   0  0  0  0  0  0  0  0  0  0  0  0
    6.1370   -2.4117   21.1044 H   0  0  0  0  0  0  0  0  0  0  0  0
    7.7506   -2.3405   22.6107 C   0  0  0  0  0  0  0  0  0  0  0  0
    7.6046   -3.4218   22.6939 H   0  0  0  0  0  0  0  0  0  0  0  0
    7.7239   -1.9174   23.6199 H   0  0  0  0  0  0  0  0  0  0  0  0
    9.0646   -1.9741   21.9087 C   0  0  0  0  0  0  0  0  0  0  0  0
    9.8866   -1.8759   22.6210 H   0  0  0  0  0  0  0  0  0  0  0  0
    9.3463   -2.7260   21.1689 H   0  0  0  0  0  0  0  0  0  0  0  0
    8.7878   -0.6500   21.1723 C   0  0  2  0  0  0  0  0  0  0  0  0
    9.3133   -0.6418   20.1982 H   0  0  0  0  0  0  0  0  0  0  0  0
    9.2430    0.5057   21.9569 N   0  0  0  0  0  0  0  0  0  0  0  0
    8.5207    1.7598   21.6849 C   0  0  0  0  0  0  0  0  0  0  0  0
    7.4644    1.6306   21.9380 H   0  0  0  0  0  0  0  0  0  0  0  0
    8.5190    1.9995   20.6050 H   0  0  0  0  0  0  0  0  0  0  0  0
    9.0557    2.9557   22.4523 C   0  0  0  0  0  0  0  0  0  0  0  0
    8.2806    4.1229   22.5558 C   0  0  0  0  0  0  0  0  0  0  0  0
    7.2890    4.1543   22.1061 H   0  0  0  0  0  0  0  0  0  0  0  0
    8.7693    5.2461   23.2277 C   0  0  0  0  0  0  0  0  0  0  0  0
    8.1563    6.1420   23.2987 H   0  0  0  0  0  0  0  0  0  0  0  0
   10.0460    5.2139   23.8005 C   0  0  0  0  0  0  0  0  0  0  0  0
   10.4347    6.0825   24.3267 H   0  0  0  0  0  0  0  0  0  0  0  0
   10.8238    4.0581   23.6953 C   0  0  0  0  0  0  0  0  0  0  0  0
   11.8194    4.0184   24.1335 H   0  0  0  0  0  0  0  0  0  0  0  0
   10.3396    2.9270   23.0220 C   0  0  0  0  0  0  0  0  0  0  0  0
   11.1725    1.6624   22.9351 C   0  0  0  0  0  0  0  0  0  0  0  0
   11.1363    1.1433   23.8996 H   0  0  0  0  0  0  0  0  0  0  0  0
   12.2227    1.9113   22.7543 H   0  0  0  0  0  0  0  0  0  0  0  0
   10.6887    0.7212   21.8353 C   0  0  0  0  0  0  0  0  0  0  0  0
   10.9462    1.1611   20.8521 H   0  0  0  0  0  0  0  0  0  0  0  0
   11.2303   -0.2319   21.9077 H   0  0  0  0  0  0  0  0  0  0  0  0
    5.4542    0.6273   20.1611 C   0  0  0  0  0  0  0  0  0  0  0  0
    5.0354    0.6164   21.1691 H   0  0  0  0  0  0  0  0  0  0  0  0
    4.8179    1.2996   19.1067 C   0  0  0  0  0  0  0  0  0  0  0  0
    3.8880    1.8322   19.2618 H   0  0  0  0  0  0  0  0  0  0  0  0
  1  2  1  0
  2  3  2  0
  3  4  1  0
  4  5  1  0
  4  6  2  0
  6  7  1  0
  7  8  1  0
  8  9  1  0
  8 10  1  0
  8 11  1  0
 11 12  1  0
 11 13  1  0
 11 14  1  0
 14 15  1  0
 14 16  1  0
 14 17  1  0
 17 18  1  6
 17 19  1  0
 19 20  1  0
 20 21  1  0
 20 22  1  0
 20 23  1  0
 23 24  2  0
 24 25  1  0
 24 26  1  0
 26 27  1  0
 26 28  2  0
 28 29  1  0
 28 30  1  0
 30 31  1  0
 30 32  2  0
 32 33  1  0
 33 34  1  0
 33 35  1  0
 33 36  1  0
 36 37  1  0
 36 38  1  0
  6 39  1  0
 39 40  1  0
 39 41  2  0
 41 42  1  0
 41  2  1  0
 17  7  1  0
 36 19  1  0
 32 23  1  0
M  END
>  <cnnaffinity>  (1) 
5.2852

>  <plip>  (1) 
-0.07142857142857142

>  <filename>  (1) 
[H][c]1[n][c]([H])[c]([N]2[C]([H])([H])[C]([H])([H])[C]([H])([H])[C@]2([H])[N]2[C]([H])([H])[c]3[c]([H])[c]([H])[c]([H])[c]([H])[c]3[C]([H])([H])[C]2([H])[H])[c]([H])[c]1[H]

>  <combo1>  (1) 
-0.45040784015754215

$$$$
