
     RDKit          3D

 29 31  0  0  0  0  0  0  0  0999 V2000
    4.9004    1.8224   17.0506 H   0  0  0  0  0  0  0  0  0  0  0  0
    5.4127    1.2948   17.8520 C   0  0  0  0  0  0  0  0  0  0  0  0
    6.5688    0.6967   17.5196 N   0  0  0  0  0  0  0  0  0  0  0  0
    7.2247    0.0428   18.4840 C   0  0  0  0  0  0  0  0  0  0  0  0
    8.1691   -0.4323   18.2348 H   0  0  0  0  0  0  0  0  0  0  0  0
    6.7532   -0.0659   19.8080 C   0  0  0  0  0  0  0  0  0  0  0  0
    7.4731   -0.7781   20.8254 N   0  0  0  0  0  0  0  0  0  0  0  0
    8.8181   -0.6539   21.1453 C   0  0  0  0  0  0  0  0  0  0  0  0
    9.6228    0.0349   20.5729 O   0  0  0  0  0  0  0  0  0  0  0  0
    8.9997   -1.5872   22.3722 C   0  0  0  0  0  0  0  0  0  0  0  0
   10.0036   -1.9846   22.9067 O   0  0  0  0  0  0  0  0  0  0  0  0
    7.7170   -1.9290   22.7560 N   0  0  0  0  0  0  0  0  0  0  0  0
    7.4207   -3.0050   23.7042 C   0  0  0  0  0  0  0  0  0  0  0  0
    8.1680   -2.9689   24.5041 H   0  0  0  0  0  0  0  0  0  0  0  0
    6.4273   -2.8373   24.1352 H   0  0  0  0  0  0  0  0  0  0  0  0
    7.4575   -4.2932   23.0527 N   0  0  0  0  0  0  0  0  0  0  0  0
    8.6018   -4.9913   22.7917 C   0  0  0  0  0  0  0  0  0  0  0  0
    9.5491   -4.6922   23.2209 H   0  0  0  0  0  0  0  0  0  0  0  0
    8.4011   -6.0106   22.0006 N   0  0  0  0  0  0  0  0  0  0  0  0
    7.0575   -5.9702   21.6991 C   0  0  0  0  0  0  0  0  0  0  0  0
    6.6041   -6.6951   21.0364 H   0  0  0  0  0  0  0  0  0  0  0  0
    6.4610   -4.9113   22.3138 C   0  0  0  0  0  0  0  0  0  0  0  0
    5.4680   -4.5043   22.2150 H   0  0  0  0  0  0  0  0  0  0  0  0
    6.8626   -1.6702   21.6993 C   0  0  0  0  0  0  0  0  0  0  0  0
    5.7724   -2.1615   21.5606 O   0  0  0  0  0  0  0  0  0  0  0  0
    5.5372    0.5359   20.1369 C   0  0  0  0  0  0  0  0  0  0  0  0
    5.1465    0.4366   21.1496 H   0  0  0  0  0  0  0  0  0  0  0  0
    4.8624    1.2459   19.1387 C   0  0  0  0  0  0  0  0  0  0  0  0
    3.9300    1.7589   19.3499 H   0  0  0  0  0  0  0  0  0  0  0  0
  1  2  1  0
  2  3  2  0
  3  4  1  0
  4  5  1  0
  4  6  2  0
  6  7  1  0
  7  8  1  0
  8  9  2  0
  8 10  1  0
 10 11  2  0
 10 12  1  0
 12 13  1  0
 13 14  1  0
 13 15  1  0
 13 16  1  0
 16 17  1  0
 17 18  1  0
 17 19  2  0
 19 20  1  0
 20 21  1  0
 20 22  2  0
 22 23  1  0
 12 24  1  0
 24 25  2  0
  6 26  1  0
 26 27  1  0
 26 28  2  0
 28 29  1  0
 28  2  1  0
 24  7  1  0
 22 16  1  0
M  END
>  <cnnaffinity>  (1) 
4.82973

>  <plip>  (1) 
-0.06896551724137931

>  <filename>  (1) 
[H][c]1[n][c]([H])[c]([N]2[C](=[O])[C](=[O])[N]([C]([H])([H])[n]3[c]([H])[n][c]([H])[c]3[H])[C]2=[O])[c]([H])[c]1[H]

>  <combo1>  (1) 
-0.40934195999818956

$$$$
