
     RDKit          3D

 33 35  0  0  0  0  0  0  0  0999 V2000
    4.9181    1.7954   16.9840 H   0  0  0  0  0  0  0  0  0  0  0  0
    5.3864    1.2987   17.8307 C   0  0  0  0  0  0  0  0  0  0  0  0
    6.5465    0.6735   17.5718 N   0  0  0  0  0  0  0  0  0  0  0  0
    7.1544    0.0535   18.5873 C   0  0  0  0  0  0  0  0  0  0  0  0
    8.1153   -0.4151   18.3874 H   0  0  0  0  0  0  0  0  0  0  0  0
    6.6314   -0.0037   19.8936 C   0  0  0  0  0  0  0  0  0  0  0  0
    7.3548   -0.6840   20.9032 N   0  0  0  0  0  0  0  0  0  0  0  0
    8.7571   -0.6632   21.1351 C   0  0  0  0  0  0  0  0  0  0  0  0
    9.5735   -0.0528   20.4651 O   0  0  0  0  0  0  0  0  0  0  0  0
    8.9243   -1.5001   22.2963 C   0  0  0  0  0  0  0  0  0  0  0  0
    9.8863   -1.6746   22.7388 H   0  0  0  0  0  0  0  0  0  0  0  0
    7.7096   -1.9401   22.7177 C   0  0  0  0  0  0  0  0  0  0  0  0
    7.3766   -2.8102   23.8692 C   0  0  0  0  0  0  0  0  0  0  0  0
    6.0996   -2.8340   24.4529 C   0  0  0  0  0  0  0  0  0  0  0  0
    5.3267   -2.1897   24.0715 H   0  0  0  0  0  0  0  0  0  0  0  0
    5.8137   -3.6573   25.5423 C   0  0  0  0  0  0  0  0  0  0  0  0
    4.8118   -3.6588   25.9688 H   0  0  0  0  0  0  0  0  0  0  0  0
    6.8120   -4.4685   26.0833 C   0  0  0  0  0  0  0  0  0  0  0  0
    6.5601   -5.1339   26.9100 H   0  0  0  0  0  0  0  0  0  0  0  0
    8.1092   -4.4486   25.5338 C   0  0  0  0  0  0  0  0  0  0  0  0
    9.2179   -5.3141   26.0661 C   0  0  0  0  0  0  0  0  0  0  0  0
   10.1904   -5.6651   25.4219 O   0  0  0  0  0  0  0  0  0  0  0  0
    9.0966   -5.7354   27.3452 N   0  0  0  0  0  0  0  0  0  0  0  0
    9.8895   -6.2973   27.5991 H   0  0  0  0  0  0  0  0  0  0  0  0
    8.4448   -5.3664   28.0087 H   0  0  0  0  0  0  0  0  0  0  0  0
    8.3716   -3.6297   24.4253 C   0  0  0  0  0  0  0  0  0  0  0  0
    9.3639   -3.6525   23.9763 H   0  0  0  0  0  0  0  0  0  0  0  0
    6.7552   -1.4111   21.9069 N   0  0  0  0  0  0  0  0  0  0  0  0
    5.7693   -1.6107   21.8948 H   0  0  0  0  0  0  0  0  0  0  0  0
    5.4206    0.6505   20.1555 C   0  0  0  0  0  0  0  0  0  0  0  0
    5.0127    0.6441   21.1657 H   0  0  0  0  0  0  0  0  0  0  0  0
    4.7958    1.3168   19.1000 C   0  0  0  0  0  0  0  0  0  0  0  0
    3.8669    1.8510   19.2506 H   0  0  0  0  0  0  0  0  0  0  0  0
  1  2  1  0
  2  3  2  0
  3  4  1  0
  4  5  1  0
  4  6  2  0
  6  7  1  0
  7  8  1  0
  8  9  2  0
  8 10  1  0
 10 11  1  0
 10 12  2  0
 12 13  1  0
 13 14  2  0
 14 15  1  0
 14 16  1  0
 16 17  1  0
 16 18  2  0
 18 19  1  0
 18 20  1  0
 20 21  1  0
 21 22  2  0
 21 23  1  0
 23 24  1  0
 23 25  1  0
 20 26  2  0
 26 27  1  0
 12 28  1  0
 28 29  1  0
  6 30  1  0
 30 31  1  0
 30 32  2  0
 32 33  1  0
 32  2  1  0
 28  7  1  0
 26 13  1  0
M  END
>  <cnnaffinity>  (1) 
5.06081

>  <plip>  (1) 
-0.14285714285714285

>  <filename>  (1) 
[H][c]1[n][c]([H])[c](-[n]2[c](=[O])[c]([H])[c](-[c]3[c]([H])[c]([H])[c]([H])[c]([C](=[O])[N]([H])[H])[c]3[H])[n]2[H])[c]([H])[c]1[H]

>  <combo1>  (1) 
-0.8598006770950931

$$$$
