
     RDKit          3D

 27 29  0  0  0  0  0  0  0  0999 V2000
    4.9111    1.7831   16.9968 H   0  0  0  0  0  0  0  0  0  0  0  0
    5.3969    1.2965   17.8391 C   0  0  0  0  0  0  0  0  0  0  0  0
    6.5618    0.6817   17.5740 N   0  0  0  0  0  0  0  0  0  0  0  0
    7.1740    0.0602   18.5920 C   0  0  0  0  0  0  0  0  0  0  0  0
    8.1207   -0.4300   18.3717 H   0  0  0  0  0  0  0  0  0  0  0  0
    6.6667   -0.0098   19.9165 C   0  0  0  0  0  0  0  0  0  0  0  0
    7.3242   -0.6981   20.9424 N   0  0  0  0  0  0  0  0  0  0  0  0
    6.7768   -1.1285   21.6813 H   0  0  0  0  0  0  0  0  0  0  0  0
    8.7060   -0.7528   21.1029 C   0  0  0  0  0  0  0  0  0  0  0  0
    9.6884    0.1623   20.6682 C   0  0  0  0  0  0  0  0  0  0  0  0
    9.5124    1.0491   20.0846 H   0  0  0  0  0  0  0  0  0  0  0  0
   10.9036   -0.1787   21.0733 N   0  0  0  0  0  0  0  0  0  0  0  0
   10.7202   -1.3127   21.7515 N   0  0  0  0  0  0  0  0  0  0  0  0
   11.5389   -1.7469   22.1522 H   0  0  0  0  0  0  0  0  0  0  0  0
    9.4157   -1.7120   21.8044 C   0  0  0  0  0  0  0  0  0  0  0  0
    8.9473   -2.8956   22.4796 C   0  0  0  0  0  0  0  0  0  0  0  0
    7.6862   -3.3183   22.3871 N   0  0  0  0  0  0  0  0  0  0  0  0
    7.6601   -4.4420   23.1185 N   0  0  0  0  0  0  0  0  0  0  0  0
    6.7970   -4.9593   23.1964 H   0  0  0  0  0  0  0  0  0  0  0  0
    8.8488   -4.7430   23.6903 C   0  0  0  0  0  0  0  0  0  0  0  0
    8.9966   -5.6113   24.3210 H   0  0  0  0  0  0  0  0  0  0  0  0
    9.7102   -3.7555   23.3042 C   0  0  0  0  0  0  0  0  0  0  0  0
   10.7531   -3.6615   23.5590 H   0  0  0  0  0  0  0  0  0  0  0  0
    5.4452    0.6343   20.1644 C   0  0  0  0  0  0  0  0  0  0  0  0
    5.0197    0.6226   21.1687 H   0  0  0  0  0  0  0  0  0  0  0  0
    4.8119    1.3060   19.1110 C   0  0  0  0  0  0  0  0  0  0  0  0
    3.8799    1.8387   19.2656 H   0  0  0  0  0  0  0  0  0  0  0  0
  1  2  1  0
  2  3  2  0
  3  4  1  0
  4  5  1  0
  4  6  2  0
  6  7  1  0
  7  8  1  0
  7  9  1  0
  9 10  1  0
 10 11  1  0
 10 12  2  0
 12 13  1  0
 13 14  1  0
 13 15  1  0
 15 16  1  0
 16 17  2  0
 17 18  1  0
 18 19  1  0
 18 20  1  0
 20 21  1  0
 20 22  2  0
 22 23  1  0
  6 24  1  0
 24 25  1  0
 24 26  2  0
 26 27  1  0
 26  2  1  0
 15  9  2  0
 22 16  1  0
M  END
>  <cnnaffinity>  (1) 
5.36744

>  <plip>  (1) 
-0.1

>  <filename>  (1) 
[H][c]1[n][c]([H])[c]([N]([H])[c]2[c]([H])[n][n]([H])[c]2-[c]2[n][n]([H])[c]([H])[c]2[H])[c]([H])[c]1[H]

>  <combo1>  (1) 
-0.7908075240633596

$$$$
