
     RDKit          3D

 34 37  0  0  0  0  0  0  0  0999 V2000
    4.9380    1.7939   16.9956 H   0  0  0  0  0  0  0  0  0  0  0  0
    5.4001    1.2910   17.8431 C   0  0  0  0  0  0  0  0  0  0  0  0
    6.5634    0.6693   17.5939 N   0  0  0  0  0  0  0  0  0  0  0  0
    7.1657    0.0511   18.6086 C   0  0  0  0  0  0  0  0  0  0  0  0
    8.1183   -0.4333   18.3886 H   0  0  0  0  0  0  0  0  0  0  0  0
    6.6402    0.0022   19.9061 C   0  0  0  0  0  0  0  0  0  0  0  0
    7.4006   -0.7250   20.9138 C   0  0  0  0  0  0  0  0  0  0  0  0
    8.5355   -1.3367   20.7692 N   0  0  0  0  0  0  0  0  0  0  0  0
    8.8525   -1.8411   22.0213 N   0  0  0  0  0  0  0  0  0  0  0  0
    7.8963   -1.5078   22.8215 C   0  0  0  0  0  0  0  0  0  0  0  0
    7.7586   -1.8057   24.2853 C   0  0  0  0  0  0  0  0  0  0  0  0
    6.9860   -3.0682   24.5981 C   0  0  0  0  0  0  0  0  0  0  0  0
    5.6227   -3.0191   24.9302 C   0  0  0  0  0  0  0  0  0  0  0  0
    5.1390   -2.0427   24.9550 H   0  0  0  0  0  0  0  0  0  0  0  0
    4.9164   -4.1803   25.2477 C   0  0  0  0  0  0  0  0  0  0  0  0
    3.8637   -4.1160   25.5197 H   0  0  0  0  0  0  0  0  0  0  0  0
    5.5696   -5.4235   25.2535 C   0  0  0  0  0  0  0  0  0  0  0  0
    5.0214   -6.3263   25.5117 H   0  0  0  0  0  0  0  0  0  0  0  0
    6.9280   -5.4900   24.9395 C   0  0  0  0  0  0  0  0  0  0  0  0
    7.4905   -6.4151   25.0049 H   0  0  0  0  0  0  0  0  0  0  0  0
    7.6274   -4.3279   24.5850 C   0  0  0  0  0  0  0  0  0  0  0  0
    9.0414   -4.4405   24.3018 C   0  0  0  0  0  0  0  0  0  0  0  0
   10.1852   -4.5237   24.1447 N   0  0  0  0  0  0  0  0  0  0  0  0
    8.9478   -1.4478   25.1570 C   0  0  0  0  0  0  0  0  0  0  0  0
    9.8180   -1.0284   24.6490 H   0  0  0  0  0  0  0  0  0  0  0  0
    9.2016   -2.1413   25.9584 H   0  0  0  0  0  0  0  0  0  0  0  0
    7.6749   -0.6503   25.2621 C   0  0  0  0  0  0  0  0  0  0  0  0
    7.0507   -0.7988   26.1447 H   0  0  0  0  0  0  0  0  0  0  0  0
    7.6352    0.3611   24.8613 H   0  0  0  0  0  0  0  0  0  0  0  0
    6.9292   -0.8050   22.1770 O   0  0  0  0  0  0  0  0  0  0  0  0
    5.4251    0.6570   20.1619 C   0  0  0  0  0  0  0  0  0  0  0  0
    4.9826    0.6574   21.1563 H   0  0  0  0  0  0  0  0  0  0  0  0
    4.7965    1.3119   19.1067 C   0  0  0  0  0  0  0  0  0  0  0  0
    3.8627    1.8500   19.2367 H   0  0  0  0  0  0  0  0  0  0  0  0
  1  2  1  0
  2  3  2  0
  3  4  1  0
  4  5  1  0
  4  6  2  0
  6  7  1  0
  7  8  2  0
  8  9  1  0
  9 10  2  0
 10 11  1  0
 11 12  1  0
 12 13  2  0
 13 14  1  0
 13 15  1  0
 15 16  1  0
 15 17  2  0
 17 18  1  0
 17 19  1  0
 19 20  1  0
 19 21  2  0
 21 22  1  0
 22 23  3  0
 11 24  1  0
 24 25  1  0
 24 26  1  0
 24 27  1  0
 27 28  1  0
 27 29  1  0
 10 30  1  0
  6 31  1  0
 31 32  1  0
 31 33  2  0
 33 34  1  0
 33  2  1  0
 30  7  1  0
 27 11  1  0
 21 12  1  0
M  END
>  <cnnaffinity>  (1) 
5.33685

>  <plip>  (1) 
-0.03571428571428571

>  <filename>  (1) 
[H][c]1[n][c]([H])[c](-[c]2[n][n][c]([C]3([c]4[c]([H])[c]([H])[c]([H])[c]([H])[c]4[C]#[N])[C]([H])([H])[C]3([H])[H])[o]2)[c]([H])[c]1[H]

>  <combo1>  (1) 
-0.22036671836366603

$$$$
