
     RDKit          3D

 39 40  0  0  0  0  0  0  0  0999 V2000
   11.8445    3.9254   23.7356 C   0  0  0  0  0  0  0  0  0  0  0  0
   11.9161    2.5214   23.1975 C   0  0  0  0  0  0  0  0  0  0  0  0
   13.1297    1.9561   22.7681 C   0  0  0  0  0  0  0  0  0  0  0  0
   13.1600    0.6580   22.2361 C   0  0  0  0  0  0  0  0  0  0  0  0
   11.9704   -0.0698   22.1145 C   0  0  0  0  0  0  0  0  0  0  0  0
   10.7542    0.4918   22.5336 C   0  0  0  0  0  0  0  0  0  0  0  0
    9.4803   -0.2925   22.4330 C   0  0  0  0  0  0  0  0  0  0  0  0
    8.5959    0.2900   21.3955 N   0  0  0  0  0  4  0  0  0  0  0  0
    7.4554   -0.5519   21.1114 C   0  0  0  0  0  0  0  0  0  0  0  0
    6.6193   -0.7599   22.3605 C   0  0  0  0  0  0  0  0  0  0  0  0
    7.2416   -1.1551   23.1700 H   0  0  0  0  0  0  0  0  0  0  0  0
    6.1725    0.1866   22.6818 H   0  0  0  0  0  0  0  0  0  0  0  0
    5.8364   -1.4894   22.1437 H   0  0  0  0  0  0  0  0  0  0  0  0
    7.9926   -1.8927   20.6622 C   0  0  0  0  0  0  0  0  0  0  0  0
    7.1736   -2.5035   20.2724 H   0  0  0  0  0  0  0  0  0  0  0  0
    8.7650   -1.7462   19.8988 H   0  0  0  0  0  0  0  0  0  0  0  0
    8.4562   -2.4065   21.5077 H   0  0  0  0  0  0  0  0  0  0  0  0
    6.7164    0.1298   20.0059 C   0  0  0  0  0  0  0  0  0  0  0  0
    5.4733    0.7540   20.1911 C   0  0  0  0  0  0  0  0  0  0  0  0
    4.8794    1.3498   19.0837 C   0  0  0  0  0  0  0  0  0  0  0  0
    5.5237    1.3092   17.8463 C   0  0  0  0  0  0  0  0  0  0  0  0
    6.7203    0.7187   17.6741 N   0  0  0  0  0  0  0  0  0  0  0  0
    7.3076    0.1494   18.7374 C   0  0  0  0  0  0  0  0  0  0  0  0
    8.2784   -0.3244   18.5983 H   0  0  0  0  0  0  0  0  0  0  0  0
    5.0394    1.7711   16.9924 H   0  0  0  0  0  0  0  0  0  0  0  0
    3.9238    1.8526   19.1637 H   0  0  0  0  0  0  0  0  0  0  0  0
    4.9847    0.7796   21.1659 H   0  0  0  0  0  0  0  0  0  0  0  0
    8.2526    1.2007   21.6986 H   0  0  0  0  0  0  0  0  0  0  0  0
    9.1167    0.4130   20.5296 H   0  0  0  0  0  0  0  0  0  0  0  0
    8.9732   -0.3077   23.4093 H   0  0  0  0  0  0  0  0  0  0  0  0
    9.7256   -1.3338   22.1816 H   0  0  0  0  0  0  0  0  0  0  0  0
   10.7302    1.7808   23.0808 C   0  0  0  0  0  0  0  0  0  0  0  0
    9.0486    2.5224   23.6343 Br  0  0  0  0  0  0  0  0  0  0  0  0
   11.9816   -1.0644   21.6730 H   0  0  0  0  0  0  0  0  0  0  0  0
   14.0938    0.2147   21.8874 H   0  0  0  0  0  0  0  0  0  0  0  0
   14.0496    2.5324   22.8218 H   0  0  0  0  0  0  0  0  0  0  0  0
   10.8332    4.3227   23.6060 H   0  0  0  0  0  0  0  0  0  0  0  0
   12.5537    4.5726   23.2090 H   0  0  0  0  0  0  0  0  0  0  0  0
   12.0644    3.9451   24.8004 H   0  0  0  0  0  0  0  0  0  0  0  0
  1  2  1  0
  2  3  2  0
  3  4  1  0
  4  5  2  0
  5  6  1  0
  6  7  1  0
  7  8  1  0
  8  9  1  0
  9 10  1  0
 10 11  1  0
 10 12  1  0
 10 13  1  0
  9 14  1  0
 14 15  1  0
 14 16  1  0
 14 17  1  0
  9 18  1  0
 18 19  2  0
 19 20  1  0
 20 21  2  0
 21 22  1  0
 22 23  2  0
 23 24  1  0
 21 25  1  0
 20 26  1  0
 19 27  1  0
  8 28  1  0
  8 29  1  0
  7 30  1  0
  7 31  1  0
  6 32  2  0
 32 33  1  0
  5 34  1  0
  4 35  1  0
  3 36  1  0
  1 37  1  0
  1 38  1  0
  1 39  1  0
 32  2  1  0
 23 18  1  0
M  CHG  1   8   1
M  END
>  <cnnaffinity>  (1) 
4.5653

>  <plip>  (1) 
-0.14285714285714285

>  <filename>  (1) 
[H][c]1[n][c]([H])[c]([C]([C]([H])([H])[H])([C]([H])([H])[H])[N+]([H])([H])[C]([H])([H])[c]2[c]([H])[c]([H])[c]([H])[c]([C]([H])([H])[H])[c]2[Br])[c]([H])[c]1[H]

>  <combo1>  (1) 
-0.6788213046370635

$$$$
