
     RDKit          3D

 32 34  0  0  0  0  0  0  0  0999 V2000
    4.7565    1.3812   19.0183 C   0  0  0  0  0  0  0  0  0  0  0  0
    5.4263    1.3132   17.7936 C   0  0  0  0  0  0  0  0  0  0  0  0
    6.6089    0.6997   17.6336 N   0  0  0  0  0  0  0  0  0  0  0  0
    7.1667    0.1447   18.7193 C   0  0  0  0  0  0  0  0  0  0  0  0
    6.5917    0.1631   19.9998 C   0  0  0  0  0  0  0  0  0  0  0  0
    7.2664   -0.5491   21.1547 C   0  0  0  0  0  0  0  0  0  0  0  0
    6.8870   -2.0452   21.1738 C   0  0  0  0  0  0  0  0  0  0  0  0
    7.7631   -2.9041   22.1206 C   0  0  0  0  0  0  0  0  0  0  0  0
    7.5184   -4.3422   21.9245 N   0  0  0  0  0  0  0  0  0  0  0  0
    7.0445   -5.2640   22.8082 C   0  0  0  0  0  0  0  0  0  0  0  0
    6.8554   -6.4327   22.1024 C   0  0  0  0  0  0  0  0  0  0  0  0
    7.2786   -6.1225   20.7933 C   0  0  0  0  0  0  0  0  0  0  0  0
    7.6943   -4.8707   20.7096 N   0  0  0  0  0  0  0  0  0  0  0  0
    7.3521   -6.7208   19.8951 H   0  0  0  0  0  0  0  0  0  0  0  0
    6.4445   -7.3556   22.4890 H   0  0  0  0  0  0  0  0  0  0  0  0
    6.8947   -5.0343   23.8603 H   0  0  0  0  0  0  0  0  0  0  0  0
    9.2488   -2.5386   21.9337 C   0  0  0  0  0  0  0  0  0  0  0  0
    9.4404   -1.0286   22.0146 C   0  0  0  0  0  0  0  0  0  0  0  0
    8.6750   -0.3773   21.0133 O   0  0  0  0  0  0  0  0  0  0  0  0
    9.1599   -0.6634   23.0194 H   0  0  0  0  0  0  0  0  0  0  0  0
   10.4893   -0.7571   21.8454 H   0  0  0  0  0  0  0  0  0  0  0  0
    9.5683   -2.8755   20.9424 H   0  0  0  0  0  0  0  0  0  0  0  0
    9.8649   -3.0407   22.6859 H   0  0  0  0  0  0  0  0  0  0  0  0
    7.4874   -2.7086   23.1592 H   0  0  0  0  0  0  0  0  0  0  0  0
    6.9994   -2.4519   20.1591 H   0  0  0  0  0  0  0  0  0  0  0  0
    5.8334   -2.1225   21.4577 H   0  0  0  0  0  0  0  0  0  0  0  0
    6.9400   -0.0667   22.0961 H   0  0  0  0  0  0  0  0  0  0  0  0
    5.3506    0.7991   20.1400 C   0  0  0  0  0  0  0  0  0  0  0  0
    4.8576    0.8458   21.1129 H   0  0  0  0  0  0  0  0  0  0  0  0
    8.1251   -0.3461   18.5600 H   0  0  0  0  0  0  0  0  0  0  0  0
    4.9895    1.7660   16.9044 H   0  0  0  0  0  0  0  0  0  0  0  0
    3.8028    1.8946   19.0831 H   0  0  0  0  0  0  0  0  0  0  0  0
  1  2  2  0
  2  3  1  0
  3  4  2  0
  4  5  1  0
  5  6  1  0
  6  7  1  0
  7  8  1  0
  8  9  1  0
  9 10  1  0
 10 11  2  0
 11 12  1  0
 12 13  2  0
 12 14  1  0
 11 15  1  0
 10 16  1  0
  8 17  1  0
 17 18  1  0
 18 19  1  0
 18 20  1  0
 18 21  1  0
 17 22  1  0
 17 23  1  0
  8 24  1  0
  7 25  1  0
  7 26  1  0
  6 27  1  0
  5 28  2  0
 28 29  1  0
  4 30  1  0
  2 31  1  0
  1 32  1  0
 28  1  1  0
 19  6  1  0
 13  9  1  0
M  END
>  <cnnaffinity>  (1) 
4.61056

>  <plip>  (1) 
-0.1

>  <filename>  (1) 
[H][c]1[n][c]([H])[c]([C]2([H])[O][C]([H])([H])[C]([H])([H])[C]([H])([n]3[n][c]([H])[c]([H])[c]3[H])[C]2([H])[H])[c]([H])[c]1[H]

>  <combo1>  (1) 
-0.670286647214723

$$$$
