
     RDKit          3D

 22 23  0  0  0  0  0  0  0  0999 V2000
    7.3101    4.4779   23.0365 H   0  0  0  0  0  0  0  0  0  0  0  0
    7.3265    3.3949   23.0962 C   0  0  0  0  0  0  0  0  0  0  0  0
    6.9027    2.7112   24.1173 N   0  0  0  0  0  0  0  0  0  0  0  0
    6.9953    1.3698   23.8601 C   0  0  0  0  0  0  0  0  0  0  0  0
    6.6870    0.6486   24.6136 H   0  0  0  0  0  0  0  0  0  0  0  0
    7.4581    1.0327   22.6322 C   0  0  0  0  0  0  0  0  0  0  0  0
    7.5455   -0.3237   22.1014 C   0  0  0  0  0  0  0  0  0  0  0  0
    7.3735   -0.7363   20.9170 N   0  0  0  0  0  0  0  0  0  0  0  0
    6.6745   -0.0165   19.9213 C   0  0  0  0  0  0  0  0  0  0  0  0
    7.1851    0.0170   18.6031 C   0  0  0  0  0  0  0  0  0  0  0  0
    8.1376   -0.4790   18.4103 H   0  0  0  0  0  0  0  0  0  0  0  0
    6.5844    0.6433   17.5840 N   0  0  0  0  0  0  0  0  0  0  0  0
    5.4185    1.2702   17.8442 C   0  0  0  0  0  0  0  0  0  0  0  0
    4.9622    1.7935   17.0090 H   0  0  0  0  0  0  0  0  0  0  0  0
    4.8010    1.2687   19.1004 C   0  0  0  0  0  0  0  0  0  0  0  0
    3.8644    1.8022   19.2529 H   0  0  0  0  0  0  0  0  0  0  0  0
    5.4389    0.6085   20.1567 C   0  0  0  0  0  0  0  0  0  0  0  0
    5.0286    0.5753   21.1668 H   0  0  0  0  0  0  0  0  0  0  0  0
    7.9010   -1.2560   23.0416 N   0  0  0  0  0  0  0  0  0  0  0  0
    8.5079   -0.8612   23.7414 H   0  0  0  0  0  0  0  0  0  0  0  0
    8.2875   -2.0485   22.5491 H   0  0  0  0  0  0  0  0  0  0  0  0
    7.8937    2.4537   21.7605 S   0  0  0  0  0  0  0  0  0  0  0  0
  1  2  1  0
  2  3  2  0
  3  4  1  0
  4  5  1  0
  4  6  2  0
  6  7  1  0
  7  8  2  3
  8  9  1  0
  9 10  2  0
 10 11  1  0
 10 12  1  0
 12 13  2  0
 13 14  1  0
 13 15  1  0
 15 16  1  0
 15 17  2  0
 17 18  1  0
  7 19  1  0
 19 20  1  0
 19 21  1  0
  6 22  1  0
 22  2  1  0
 17  9  1  0
M  END
>  <cnnaffinity>  (1) 
4.32516

>  <plip>  (1) 
-0.0

>  <filename>  (1) 
[H][c]1[n][c]([H])[c]([C](=[N][c]2[c]([H])[n][c]([H])[c]([H])[c]2[H])[N]([H])[H])[s]1

>  <combo1>  (1) 
-7.058328192775802e-06

$$$$
