
     RDKit          3D

 29 31  0  0  0  0  0  0  0  0999 V2000
    9.9981   -2.7644   24.6842 Cl  0  0  0  0  0  0  0  0  0  0  0  0
    8.8394   -3.3920   23.5506 C   0  0  0  0  0  0  0  0  0  0  0  0
    8.3000   -2.4970   22.7356 N   0  0  0  0  0  0  0  0  0  0  0  0
    7.4072   -2.9578   21.8622 C   0  0  0  0  0  0  0  0  0  0  0  0
    7.0318   -2.0519   20.9561 N   0  0  0  0  0  0  0  0  0  0  0  0
    7.4323   -0.6575   21.0214 C   0  0  0  0  0  0  0  0  0  0  0  0
    6.6779    0.0519   19.9471 C   0  0  0  0  0  0  0  0  0  0  0  0
    5.4470    0.6754   20.1727 C   0  0  0  0  0  0  0  0  0  0  0  0
    4.8164    1.2976   19.0943 C   0  0  0  0  0  0  0  0  0  0  0  0
    5.4289    1.2477   17.8372 C   0  0  0  0  0  0  0  0  0  0  0  0
    6.5731    0.5877   17.5943 N   0  0  0  0  0  0  0  0  0  0  0  0
    7.1652   -0.0046   18.6372 C   0  0  0  0  0  0  0  0  0  0  0  0
    8.0873   -0.5499   18.4281 H   0  0  0  0  0  0  0  0  0  0  0  0
    4.9865    1.7670   16.9900 H   0  0  0  0  0  0  0  0  0  0  0  0
    3.8781    1.8265   19.2195 H   0  0  0  0  0  0  0  0  0  0  0  0
    4.9917    0.6530   21.1662 H   0  0  0  0  0  0  0  0  0  0  0  0
    7.2232   -0.2452   22.0196 H   0  0  0  0  0  0  0  0  0  0  0  0
    8.5185   -0.5894   20.8617 H   0  0  0  0  0  0  0  0  0  0  0  0
    6.2940   -2.3065   20.3258 H   0  0  0  0  0  0  0  0  0  0  0  0
    6.9095   -4.3396   21.8340 C   0  0  0  0  0  0  0  0  0  0  0  0
    5.9067   -4.8408   21.0247 N   0  0  0  0  0  0  0  0  0  0  0  0
    5.6651   -6.1425   21.1010 C   0  0  0  0  0  0  0  0  0  0  0  0
    6.3936   -7.0274   21.9414 C   0  0  0  0  0  0  0  0  0  0  0  0
    7.4028   -6.5240   22.7269 C   0  0  0  0  0  0  0  0  0  0  0  0
    7.6664   -5.1311   22.7307 C   0  0  0  0  0  0  0  0  0  0  0  0
    8.6251   -4.6699   23.5912 N   0  0  0  0  0  0  0  0  0  0  0  0
    8.0588   -7.1157   23.3500 H   0  0  0  0  0  0  0  0  0  0  0  0
    6.1455   -8.0830   21.9452 H   0  0  0  0  0  0  0  0  0  0  0  0
    4.8962   -6.5410   20.4494 H   0  0  0  0  0  0  0  0  0  0  0  0
  1  2  1  0
  2  3  2  0
  3  4  1  0
  4  5  1  0
  5  6  1  0
  6  7  1  0
  7  8  2  0
  8  9  1  0
  9 10  2  0
 10 11  1  0
 11 12  2  0
 12 13  1  0
 10 14  1  0
  9 15  1  0
  8 16  1  0
  6 17  1  0
  6 18  1  0
  5 19  1  0
  4 20  2  0
 20 21  1  0
 21 22  2  0
 22 23  1  0
 23 24  2  0
 24 25  1  0
 25 26  2  0
 24 27  1  0
 23 28  1  0
 22 29  1  0
 26  2  1  0
 12  7  1  0
 25 20  1  0
M  END
>  <cnnaffinity>  (1) 
5.00899

>  <plip>  (1) 
-0.12903225806451613

>  <filename>  (1) 
[H][c]1[n][c]([H])[c]([C]([H])([H])[N]([H])[c]2[n][c]([Cl])[n][c]3[c]([H])[c]([H])[c]([H])[n][c]23)[c]([H])[c]1[H]

>  <combo1>  (1) 
-0.7929028641001907

$$$$
