
     RDKit          3D

 42 44  0  0  0  0  0  0  0  0999 V2000
    5.7643    5.2633   25.0744 F   0  0  0  0  0  0  0  0  0  0  0  0
    6.2956    4.0275   24.9514 C   0  0  0  0  0  0  0  0  0  0  0  0
    6.5392    3.5753   26.2038 F   0  0  0  0  0  0  0  0  0  0  0  0
    5.3545    3.2367   24.4272 F   0  0  0  0  0  0  0  0  0  0  0  0
    7.6055    4.0968   24.1448 C   0  0  0  0  0  0  0  0  0  0  0  0
    8.6697    4.8747   24.6258 C   0  0  0  0  0  0  0  0  0  0  0  0
    9.8649    4.9101   23.9016 C   0  0  0  0  0  0  0  0  0  0  0  0
    9.9674    4.1352   22.7479 C   0  0  0  0  0  0  0  0  0  0  0  0
    8.8560    3.3707   22.3404 C   0  0  0  0  0  0  0  0  0  0  0  0
    8.9251    2.5143   21.0808 C   0  0  0  0  0  0  0  0  0  0  0  0
    9.2415    1.0044   21.2558 N   0  0  0  0  0  4  0  0  0  0  0  0
   10.4963    0.7690   22.0715 C   0  0  0  0  0  0  0  0  0  0  0  0
    9.9961    0.3682   23.4630 C   0  0  0  0  0  0  0  0  0  0  0  0
    8.6923   -0.3969   23.1909 C   0  0  0  0  0  0  0  0  0  0  0  0
    8.0649    0.2643   21.9645 C   0  0  0  0  0  0  0  0  0  0  0  0
    7.3752   -0.7148   21.0026 C   0  0  0  0  0  0  0  0  0  0  0  0
    6.6318   -0.0232   19.8790 C   0  0  0  0  0  0  0  0  0  0  0  0
    5.4290    0.6505   20.1253 C   0  0  0  0  0  0  0  0  0  0  0  0
    4.7929    1.3212   19.0797 C   0  0  0  0  0  0  0  0  0  0  0  0
    5.3886    1.3119   17.8152 C   0  0  0  0  0  0  0  0  0  0  0  0
    6.5518    0.6936   17.5608 N   0  0  0  0  0  0  0  0  0  0  0  0
    7.1501    0.0564   18.5753 C   0  0  0  0  0  0  0  0  0  0  0  0
    8.1135   -0.4047   18.3406 H   0  0  0  0  0  0  0  0  0  0  0  0
    4.9195    1.8200   16.9724 H   0  0  0  0  0  0  0  0  0  0  0  0
    3.8628    1.8593   19.2273 H   0  0  0  0  0  0  0  0  0  0  0  0
    5.0098    0.6553   21.1355 H   0  0  0  0  0  0  0  0  0  0  0  0
    8.1457   -1.3906   20.6119 H   0  0  0  0  0  0  0  0  0  0  0  0
    6.6822   -1.3325   21.5800 H   0  0  0  0  0  0  0  0  0  0  0  0
    7.3819    1.0689   22.2515 H   0  0  0  0  0  0  0  0  0  0  0  0
    8.9026   -1.4536   22.9803 H   0  0  0  0  0  0  0  0  0  0  0  0
    7.9899   -0.3720   24.0313 H   0  0  0  0  0  0  0  0  0  0  0  0
   10.7376   -0.2256   24.0070 H   0  0  0  0  0  0  0  0  0  0  0  0
    9.7966    1.2761   24.0441 H   0  0  0  0  0  0  0  0  0  0  0  0
   11.1020    1.6756   22.0783 H   0  0  0  0  0  0  0  0  0  0  0  0
   11.0960   -0.0126   21.5996 H   0  0  0  0  0  0  0  0  0  0  0  0
    9.2904    0.5606   20.3160 H   0  0  0  0  0  0  0  0  0  0  0  0
    7.9473    2.5688   20.5979 H   0  0  0  0  0  0  0  0  0  0  0  0
    9.6799    2.9592   20.4313 H   0  0  0  0  0  0  0  0  0  0  0  0
    7.6953    3.3920   23.0071 N   0  0  0  0  0  0  0  0  0  0  0  0
   10.8796    4.1017   22.1557 H   0  0  0  0  0  0  0  0  0  0  0  0
   10.7101    5.5156   24.2316 H   0  0  0  0  0  0  0  0  0  0  0  0
    8.5496    5.4375   25.5410 H   0  0  0  0  0  0  0  0  0  0  0  0
  1  2  1  0
  2  3  1  0
  2  4  1  0
  2  5  1  0
  5  6  2  0
  6  7  1  0
  7  8  2  0
  8  9  1  0
  9 10  1  0
 10 11  1  0
 11 12  1  0
 12 13  1  0
 13 14  1  0
 14 15  1  0
 15 16  1  0
 16 17  1  0
 17 18  2  0
 18 19  1  0
 19 20  2  0
 20 21  1  0
 21 22  2  0
 22 23  1  0
 20 24  1  0
 19 25  1  0
 18 26  1  0
 16 27  1  0
 16 28  1  0
 15 29  1  0
 14 30  1  0
 14 31  1  0
 13 32  1  0
 13 33  1  0
 12 34  1  0
 12 35  1  0
 11 36  1  0
 10 37  1  0
 10 38  1  0
  9 39  2  0
  8 40  1  0
  7 41  1  0
  6 42  1  0
 39  5  1  0
 15 11  1  0
 22 17  1  0
M  CHG  1  11   1
M  END
>  <cnnaffinity>  (1) 
5.36006

>  <plip>  (1) 
-0.07142857142857142

>  <filename>  (1) 
[H][c]1[n][c]([H])[c]([C]([H])([H])[C]2([H])[C]([H])([H])[C]([H])([H])[C]([H])([H])[N+]2([H])[C]([H])([H])[c]2[n][c]([C]([F])([F])[F])[c]([H])[c]([H])[c]2[H])[c]([H])[c]1[H]

>  <combo1>  (1) 
-0.3959016366804083

$$$$
