
     RDKit          3D

 37 39  0  0  0  0  0  0  0  0999 V2000
    4.9155    0.9082   25.1323 C   0  0  0  0  0  0  0  0  0  0  0  0
    6.1423    1.1996   24.3023 C   0  0  0  0  0  0  0  0  0  0  0  0
    6.1644    2.2270   23.3360 C   0  0  0  0  0  0  0  0  0  0  0  0
    7.3550    2.5188   22.6646 C   0  0  0  0  0  0  0  0  0  0  0  0
    8.5083    1.7844   22.9867 C   0  0  0  0  0  0  0  0  0  0  0  0
    9.8007    2.0085   22.2502 C   0  0  0  0  0  0  0  0  0  0  0  0
    9.7790    1.2977   20.8842 C   0  0  0  0  0  0  0  0  0  0  0  0
    9.7722   -0.1744   20.9248 N   0  0  0  0  0  0  0  0  0  0  0  0
   10.8285   -1.0324   21.1683 C   0  0  0  0  0  0  0  0  0  0  0  0
   10.4130   -2.2077   21.5313 N   0  0  0  0  0  0  0  0  0  0  0  0
    9.0325   -2.1733   21.5454 N   0  0  0  0  0  0  0  0  0  0  0  0
    8.6788   -0.9877   21.1371 C   0  0  0  0  0  0  0  0  0  0  0  0
    7.3755   -0.5732   20.9865 N   0  0  0  0  0  0  0  0  0  0  0  0
    6.7242    0.0098   19.8899 C   0  0  0  0  0  0  0  0  0  0  0  0
    5.5031    0.6407   20.1496 C   0  0  0  0  0  0  0  0  0  0  0  0
    4.8363    1.2882   19.1031 C   0  0  0  0  0  0  0  0  0  0  0  0
    5.4110    1.2877   17.8265 C   0  0  0  0  0  0  0  0  0  0  0  0
    6.5641    0.6614   17.5440 N   0  0  0  0  0  0  0  0  0  0  0  0
    7.1971    0.0362   18.5530 C   0  0  0  0  0  0  0  0  0  0  0  0
    8.1184   -0.4781   18.2923 H   0  0  0  0  0  0  0  0  0  0  0  0
    4.9237    1.8109   17.0049 H   0  0  0  0  0  0  0  0  0  0  0  0
    3.8922    1.7963   19.2655 H   0  0  0  0  0  0  0  0  0  0  0  0
    5.1365    0.6372   21.1759 H   0  0  0  0  0  0  0  0  0  0  0  0
    6.7889   -0.8764   21.7478 H   0  0  0  0  0  0  0  0  0  0  0  0
   11.8684   -0.7642   21.0156 H   0  0  0  0  0  0  0  0  0  0  0  0
    8.8683    1.6094   20.3591 H   0  0  0  0  0  0  0  0  0  0  0  0
   10.6534    1.6352   20.3263 H   0  0  0  0  0  0  0  0  0  0  0  0
   10.6736    1.6980   22.8419 H   0  0  0  0  0  0  0  0  0  0  0  0
    9.9382    3.0835   22.0595 H   0  0  0  0  0  0  0  0  0  0  0  0
    8.3643    0.7379   23.9095 C   0  0  0  0  0  0  0  0  0  0  0  0
    7.2219    0.4450   24.5435 N   0  0  0  0  0  0  0  0  0  0  0  0
    9.2240    0.1033   24.1381 H   0  0  0  0  0  0  0  0  0  0  0  0
    7.3917    3.3215   21.9163 H   0  0  0  0  0  0  0  0  0  0  0  0
    5.2617    2.7911   23.1261 H   0  0  0  0  0  0  0  0  0  0  0  0
    5.1693    0.1836   25.9151 H   0  0  0  0  0  0  0  0  0  0  0  0
    4.1097    0.4946   24.5158 H   0  0  0  0  0  0  0  0  0  0  0  0
    4.5329    1.8280   25.5936 H   0  0  0  0  0  0  0  0  0  0  0  0
  1  2  1  0
  2  3  2  0
  3  4  1  0
  4  5  2  0
  5  6  1  0
  6  7  1  0
  7  8  1  0
  8  9  1  0
  9 10  2  0
 10 11  1  0
 11 12  2  0
 12 13  1  0
 13 14  1  0
 14 15  2  0
 15 16  1  0
 16 17  2  0
 17 18  1  0
 18 19  2  0
 19 20  1  0
 17 21  1  0
 16 22  1  0
 15 23  1  0
 13 24  1  0
  9 25  1  0
  7 26  1  0
  7 27  1  0
  6 28  1  0
  6 29  1  0
  5 30  1  0
 30 31  2  0
 30 32  1  0
  4 33  1  0
  3 34  1  0
  1 35  1  0
  1 36  1  0
  1 37  1  0
 31  2  1  0
 12  8  1  0
 19 14  1  0
M  END
>  <cnnaffinity>  (1) 
5.50705

>  <plip>  (1) 
-0.07142857142857142

>  <filename>  (1) 
[H][c]1[n][c]([H])[c]([N]([H])[c]2[n][n][c]([H])[n]2[C]([H])([H])[C]([H])([H])[c]2[c]([H])[n][c]([C]([H])([H])[H])[c]([H])[c]2[H])[c]([H])[c]1[H]

>  <combo1>  (1) 
-0.46772696272401976

$$$$
