
     RDKit          3D

 28 30  0  0  0  0  0  0  0  0999 V2000
    6.2203   -1.2672   22.5812 H   0  0  0  0  0  0  0  0  0  0  0  0
    6.3890   -1.6770   21.7139 O   0  0  0  0  0  0  0  0  0  0  0  0
    7.2596   -0.8024   21.0673 N   0  0  0  0  0  0  0  0  0  0  0  0
    6.7004   -0.1068   19.9840 C   0  0  0  0  0  0  0  0  0  0  0  0
    7.3010   -0.0332   18.7077 C   0  0  0  0  0  0  0  0  0  0  0  0
    8.2266   -0.5681   18.4954 H   0  0  0  0  0  0  0  0  0  0  0  0
    6.7703    0.6444   17.6753 N   0  0  0  0  0  0  0  0  0  0  0  0
    5.6123    1.2904   17.8815 C   0  0  0  0  0  0  0  0  0  0  0  0
    5.2050    1.8234   17.0251 H   0  0  0  0  0  0  0  0  0  0  0  0
    4.9311    1.2718   19.1054 C   0  0  0  0  0  0  0  0  0  0  0  0
    3.9947    1.8074   19.2176 H   0  0  0  0  0  0  0  0  0  0  0  0
    5.4709    0.5513   20.1673 C   0  0  0  0  0  0  0  0  0  0  0  0
    4.9769    0.4773   21.1356 H   0  0  0  0  0  0  0  0  0  0  0  0
    8.6189   -0.9947   21.3156 C   0  0  0  0  0  0  0  0  0  0  0  0
    9.1929   -2.1758   21.7046 C   0  0  0  0  0  0  0  0  0  0  0  0
    8.7151   -3.1431   21.7960 H   0  0  0  0  0  0  0  0  0  0  0  0
   10.5037   -1.9581   22.0277 N   0  0  0  0  0  0  0  0  0  0  0  0
   11.1815   -2.6653   22.2558 H   0  0  0  0  0  0  0  0  0  0  0  0
   10.7987   -0.6245   21.8741 C   0  0  0  0  0  0  0  0  0  0  0  0
   11.9831    0.0630   22.1815 C   0  0  0  0  0  0  0  0  0  0  0  0
   12.8014   -0.4493   22.6716 H   0  0  0  0  0  0  0  0  0  0  0  0
   12.0500    1.4062   21.8396 C   0  0  0  0  0  0  0  0  0  0  0  0
   12.9590    1.9577   22.0529 H   0  0  0  0  0  0  0  0  0  0  0  0
   10.9555    2.0681   21.2424 C   0  0  0  0  0  0  0  0  0  0  0  0
   11.0771    3.1202   21.0095 H   0  0  0  0  0  0  0  0  0  0  0  0
    9.7563    1.3941   21.0152 C   0  0  0  0  0  0  0  0  0  0  0  0
    8.9078    1.9055   20.5652 H   0  0  0  0  0  0  0  0  0  0  0  0
    9.6569    0.0276   21.3589 C   0  0  0  0  0  0  0  0  0  0  0  0
  1  2  1  0
  2  3  1  0
  3  4  1  0
  4  5  2  0
  5  6  1  0
  5  7  1  0
  7  8  2  0
  8  9  1  0
  8 10  1  0
 10 11  1  0
 10 12  2  0
 12 13  1  0
  3 14  1  0
 14 15  2  0
 15 16  1  0
 15 17  1  0
 17 18  1  0
 17 19  1  0
 19 20  2  0
 20 21  1  0
 20 22  1  0
 22 23  1  0
 22 24  2  0
 24 25  1  0
 24 26  1  0
 26 27  1  0
 26 28  2  0
 12  4  1  0
 28 14  1  0
 28 19  1  0
M  END
>  <cnnaffinity>  (1) 
5.27399

>  <plip>  (1) 
-0.10344827586206896

>  <filename>  (1) 
[H][O][N]([c]1[c]([H])[n][c]([H])[c]([H])[c]1[H])[c]1[c]([H])[n]([H])[c]2[c]([H])[c]([H])[c]([H])[c]([H])[c]12

>  <combo1>  (1) 
-0.80737365933084

$$$$
