
     RDKit          3D

 38 42  0  0  0  0  0  0  0  0999 V2000
    4.9625    1.7984   17.0045 H   0  0  0  0  0  0  0  0  0  0  0  0
    5.4231    1.2874   17.8472 C   0  0  0  0  0  0  0  0  0  0  0  0
    6.5826    0.6597   17.5994 N   0  0  0  0  0  0  0  0  0  0  0  0
    7.1729    0.0365   18.6225 C   0  0  0  0  0  0  0  0  0  0  0  0
    8.1203   -0.4551   18.4025 H   0  0  0  0  0  0  0  0  0  0  0  0
    6.6452   -0.0083   19.9242 C   0  0  0  0  0  0  0  0  0  0  0  0
    7.4051   -0.7559   20.9379 C   0  0  0  0  0  0  0  0  0  0  0  0
    8.5102   -1.4177   20.7846 N   0  0  0  0  0  0  0  0  0  0  0  0
    8.8211   -1.9589   22.0248 N   0  0  0  0  0  0  0  0  0  0  0  0
    7.8923   -1.5899   22.8419 C   0  0  0  0  0  0  0  0  0  0  0  0
    7.7919   -1.8932   24.3137 C   0  0  0  0  0  0  0  0  0  0  0  0
    7.2035   -3.2348   24.6835 C   0  0  0  0  0  0  0  0  0  0  0  0
    8.0238   -4.3430   24.8125 C   0  0  0  0  0  0  0  0  0  0  0  0
    9.0976   -4.2293   24.6832 H   0  0  0  0  0  0  0  0  0  0  0  0
    7.5067   -5.6296   25.1231 C   0  0  0  0  0  0  0  0  0  0  0  0
    8.1918   -6.4635   25.2711 H   0  0  0  0  0  0  0  0  0  0  0  0
    6.1480   -5.8144   25.2394 C   0  0  0  0  0  0  0  0  0  0  0  0
    5.6906   -6.7724   25.4597 H   0  0  0  0  0  0  0  0  0  0  0  0
    5.2575   -4.7179   25.0666 C   0  0  0  0  0  0  0  0  0  0  0  0
    3.9135   -4.9949   25.0999 N   0  0  0  0  0  0  0  0  0  0  0  0
    3.0817   -3.9874   24.9916 C   0  0  0  0  0  0  0  0  0  0  0  0
    2.0241   -4.2424   24.9792 H   0  0  0  0  0  0  0  0  0  0  0  0
    3.4849   -2.6249   24.9292 C   0  0  0  0  0  0  0  0  0  0  0  0
    2.7479   -1.8313   24.8766 H   0  0  0  0  0  0  0  0  0  0  0  0
    4.8263   -2.3344   24.9240 C   0  0  0  0  0  0  0  0  0  0  0  0
    5.1340   -1.2892   24.8772 H   0  0  0  0  0  0  0  0  0  0  0  0
    5.7827   -3.3971   24.8810 C   0  0  0  0  0  0  0  0  0  0  0  0
    8.9395   -1.3798   25.1758 C   0  0  0  0  0  0  0  0  0  0  0  0
    9.7403   -0.8492   24.6642 H   0  0  0  0  0  0  0  0  0  0  0  0
    9.2580   -2.0205   25.9978 H   0  0  0  0  0  0  0  0  0  0  0  0
    7.5962   -0.7320   25.2745 C   0  0  0  0  0  0  0  0  0  0  0  0
    7.4641    0.2643   24.8555 H   0  0  0  0  0  0  0  0  0  0  0  0
    6.9968   -0.9373   26.1601 H   0  0  0  0  0  0  0  0  0  0  0  0
    6.9566   -0.8167   22.2166 O   0  0  0  0  0  0  0  0  0  0  0  0
    5.4275    0.6515   20.1711 C   0  0  0  0  0  0  0  0  0  0  0  0
    4.9747    0.6668   21.1644 H   0  0  0  0  0  0  0  0  0  0  0  0
    4.8099    1.3058   19.1054 C   0  0  0  0  0  0  0  0  0  0  0  0
    3.8743    1.8386   19.2348 H   0  0  0  0  0  0  0  0  0  0  0  0
  1  2  1  0
  2  3  2  0
  3  4  1  0
  4  5  1  0
  4  6  2  0
  6  7  1  0
  7  8  2  0
  8  9  1  0
  9 10  2  0
 10 11  1  0
 11 12  1  0
 12 13  2  0
 13 14  1  0
 13 15  1  0
 15 16  1  0
 15 17  2  0
 17 18  1  0
 17 19  1  0
 19 20  2  0
 20 21  1  0
 21 22  1  0
 21 23  2  0
 23 24  1  0
 23 25  1  0
 25 26  1  0
 25 27  2  0
 11 28  1  0
 28 29  1  0
 28 30  1  0
 28 31  1  0
 31 32  1  0
 31 33  1  0
 10 34  1  0
  6 35  1  0
 35 36  1  0
 35 37  2  0
 37 38  1  0
 37  2  1  0
 34  7  1  0
 31 11  1  0
 27 12  1  0
 27 19  1  0
M  END
>  <cnnaffinity>  (1) 
5.75956

>  <plip>  (1) 
-0.06666666666666667

>  <filename>  (1) 
[H][c]1[n][c]([H])[c](-[c]2[n][n][c]([C]3([c]4[c]([H])[c]([H])[c]([H])[c]5[n][c]([H])[c]([H])[c]([H])[c]45)[C]([H])([H])[C]3([H])[H])[o]2)[c]([H])[c]1[H]

>  <combo1>  (1) 
-0.40716092426935185

$$$$
