
     RDKit          3D

 24 25  0  0  0  0  0  0  0  0999 V2000
    5.9557   -0.9639   22.3377 H   0  0  0  0  0  0  0  0  0  0  0  0
    6.9968   -1.0848   22.0181 C   0  0  0  0  0  0  0  0  0  0  0  0
    7.4359   -0.6955   20.8822 N   0  0  0  0  0  0  0  0  0  0  0  0
    6.6538   -0.0078   19.9242 C   0  0  0  0  0  0  0  0  0  0  0  0
    7.1660    0.0595   18.6022 C   0  0  0  0  0  0  0  0  0  0  0  0
    8.1138   -0.4281   18.4035 H   0  0  0  0  0  0  0  0  0  0  0  0
    6.5639    0.6740   17.5822 N   0  0  0  0  0  0  0  0  0  0  0  0
    5.3958    1.2941   17.8382 C   0  0  0  0  0  0  0  0  0  0  0  0
    4.9206    1.7864   16.9931 H   0  0  0  0  0  0  0  0  0  0  0  0
    4.8098    1.3049   19.1066 C   0  0  0  0  0  0  0  0  0  0  0  0
    3.8793    1.8377   19.2584 H   0  0  0  0  0  0  0  0  0  0  0  0
    5.4328    0.6406   20.1736 C   0  0  0  0  0  0  0  0  0  0  0  0
    5.0000    0.6436   21.1758 H   0  0  0  0  0  0  0  0  0  0  0  0
    7.8745   -1.7765   22.9747 C   0  0  0  0  0  0  0  0  0  0  0  0
    7.4626   -2.2319   24.1648 N   0  0  0  0  0  0  0  0  0  0  0  0
    8.5503   -2.7824   24.7113 N   0  0  0  0  0  0  0  0  0  0  0  0
    8.5398   -3.3293   26.0523 C   0  0  0  0  0  0  0  0  0  0  0  0
    9.1971   -4.1995   26.0866 H   0  0  0  0  0  0  0  0  0  0  0  0
    8.8941   -2.6014   26.7888 H   0  0  0  0  0  0  0  0  0  0  0  0
    7.5280   -3.6393   26.3091 H   0  0  0  0  0  0  0  0  0  0  0  0
    9.6401   -2.6828   23.9141 C   0  0  0  0  0  0  0  0  0  0  0  0
   10.6028   -3.0719   24.2305 H   0  0  0  0  0  0  0  0  0  0  0  0
    9.2476   -2.0433   22.7774 C   0  0  0  0  0  0  0  0  0  0  0  0
    9.8178   -1.7722   21.9030 H   0  0  0  0  0  0  0  0  0  0  0  0
  1  2  1  0
  2  3  2  3
  3  4  1  0
  4  5  2  0
  5  6  1  0
  5  7  1  0
  7  8  2  0
  8  9  1  0
  8 10  1  0
 10 11  1  0
 10 12  2  0
 12 13  1  0
  2 14  1  0
 14 15  2  0
 15 16  1  0
 16 17  1  0
 17 18  1  0
 17 19  1  0
 17 20  1  0
 16 21  1  0
 21 22  1  0
 21 23  2  0
 23 24  1  0
 12  4  1  0
 23 14  1  0
M  END
>  <cnnaffinity>  (1) 
4.20891

>  <plip>  (1) 
-0.03571428571428571

>  <filename>  (1) 
[H][C](=[N][c]1[c]([H])[n][c]([H])[c]([H])[c]1[H])[c]1[n][n]([C]([H])([H])[H])[c]([H])[c]1[H]

>  <combo1>  (1) 
-0.26907211670499864

$$$$
