
     RDKit          3D

 22 22  0  0  0  0  0  0  0  0999 V2000
    5.0334    1.7344   16.9728 H   0  0  0  0  0  0  0  0  0  0  0  0
    5.4611    1.2402   17.8419 C   0  0  0  0  0  0  0  0  0  0  0  0
    6.6239    0.5996   17.6359 N   0  0  0  0  0  0  0  0  0  0  0  0
    7.1937    0.0092   18.6892 C   0  0  0  0  0  0  0  0  0  0  0  0
    8.1535   -0.4817   18.5332 H   0  0  0  0  0  0  0  0  0  0  0  0
    6.6282    0.0531   19.9639 C   0  0  0  0  0  0  0  0  0  0  0  0
    7.6739   -0.6606   21.2250 S   0  0  0  0  0  4  0  0  0  0  0  0
    9.0245   -0.2271   20.8500 O   0  0  0  0  0  0  0  0  0  0  0  0
    7.5294   -2.2320   20.6484 O   0  0  0  0  0  0  0  0  0  0  0  0
    6.8750   -3.2427   21.4598 C   0  0  0  0  0  0  0  0  0  0  0  0
    5.7976   -3.0289   21.4851 H   0  0  0  0  0  0  0  0  0  0  0  0
    7.2649   -3.2200   22.4887 H   0  0  0  0  0  0  0  0  0  0  0  0
    7.1141   -4.6294   20.8404 C   0  0  0  0  0  0  0  0  0  0  0  0
    6.7588   -4.6252   19.8024 H   0  0  0  0  0  0  0  0  0  0  0  0
    8.1956   -4.8189   20.8084 H   0  0  0  0  0  0  0  0  0  0  0  0
    6.4699   -5.7531   21.5279 N   0  0  0  0  0  0  0  0  0  0  0  0
    5.4572   -5.6404   21.5478 H   0  0  0  0  0  0  0  0  0  0  0  0
    6.7614   -5.7949   22.5032 H   0  0  0  0  0  0  0  0  0  0  0  0
    5.3990    0.6733   20.1874 C   0  0  0  0  0  0  0  0  0  0  0  0
    4.9185    0.6877   21.1709 H   0  0  0  0  0  0  0  0  0  0  0  0
    4.8147    1.2906   19.0812 C   0  0  0  0  0  0  0  0  0  0  0  0
    3.8670    1.8100   19.1681 H   0  0  0  0  0  0  0  0  0  0  0  0
  1  2  1  0
  2  3  2  0
  3  4  1  0
  4  5  1  0
  4  6  2  0
  6  7  1  0
  7  8  2  0
  7  9  1  1
  9 10  1  0
 10 11  1  0
 10 12  1  0
 10 13  1  0
 13 14  1  0
 13 15  1  0
 13 16  1  0
 16 17  1  0
 16 18  1  0
  6 19  1  0
 19 20  1  0
 19 21  2  0
 21 22  1  0
 21  2  1  0
M  END
>  <cnnaffinity>  (1) 
3.47061

>  <plip>  (1) 
-0.06666666666666667

>  <filename>  (1) 
[H][c]1[n][c]([H])[c]([S@@](=[O])[O][C]([H])([H])[C]([H])([H])[N]([H])[H])[c]([H])[c]1[H]

>  <combo1>  (1) 
-0.4141232987535527

$$$$
