
     RDKit          3D

 31 33  0  0  0  0  0  0  0  0999 V2000
    4.7892    1.3343   19.0366 C   0  0  0  0  0  0  0  0  0  0  0  0
    5.4040    1.3290   17.7819 C   0  0  0  0  0  0  0  0  0  0  0  0
    6.5620    0.6979   17.5361 N   0  0  0  0  0  0  0  0  0  0  0  0
    7.1403    0.0609   18.5638 C   0  0  0  0  0  0  0  0  0  0  0  0
    6.6137   -0.0025   19.8664 C   0  0  0  0  0  0  0  0  0  0  0  0
    7.2887   -0.7623   20.9849 C   0  0  0  0  0  0  0  0  0  0  0  0
    8.3524    0.3829   21.9655 S   0  0  0  0  0  0  0  0  0  0  0  0
    9.1235   -0.7735   23.0572 C   0  0  0  0  0  0  0  0  0  0  0  0
    8.8326   -0.9401   24.3193 N   0  0  0  0  0  0  0  0  0  0  0  0
    9.5828   -1.9904   24.7869 N   0  0  0  0  0  0  0  0  0  0  0  0
   10.3142   -2.4158   23.8000 C   0  0  0  0  0  0  0  0  0  0  0  0
   10.0862   -1.6815   22.6637 N   0  0  0  0  0  0  0  0  0  0  0  0
   11.0245   -1.4971   21.5455 C   0  0  0  0  0  0  0  0  0  0  0  0
   11.9935   -0.3877   21.8068 C   0  0  0  0  0  0  0  0  0  0  0  0
   13.2405   -0.3309   22.3405 C   0  0  0  0  0  0  0  0  0  0  0  0
   13.5427    1.0684   22.4569 C   0  0  0  0  0  0  0  0  0  0  0  0
   12.4701    1.7422   21.9695 C   0  0  0  0  0  0  0  0  0  0  0  0
   11.5223    0.8618   21.5660 O   0  0  0  0  0  0  0  0  0  0  0  0
   12.2287    2.7894   21.8338 H   0  0  0  0  0  0  0  0  0  0  0  0
   14.4314    1.5191   22.8672 H   0  0  0  0  0  0  0  0  0  0  0  0
   13.8654   -1.1864   22.5811 H   0  0  0  0  0  0  0  0  0  0  0  0
   11.5608   -2.4313   21.4071 H   0  0  0  0  0  0  0  0  0  0  0  0
   10.4457   -1.2763   20.6458 H   0  0  0  0  0  0  0  0  0  0  0  0
   10.9815   -3.2730   23.8452 H   0  0  0  0  0  0  0  0  0  0  0  0
    6.5398   -1.1891   21.6628 H   0  0  0  0  0  0  0  0  0  0  0  0
    7.9062   -1.5818   20.5971 H   0  0  0  0  0  0  0  0  0  0  0  0
    5.4007    0.6614   20.0946 C   0  0  0  0  0  0  0  0  0  0  0  0
    4.9488    0.6561   21.0896 H   0  0  0  0  0  0  0  0  0  0  0  0
    8.0789   -0.4385   18.3249 H   0  0  0  0  0  0  0  0  0  0  0  0
    4.9495    1.8506   16.9396 H   0  0  0  0  0  0  0  0  0  0  0  0
    3.8571    1.8673   19.1765 H   0  0  0  0  0  0  0  0  0  0  0  0
  1  2  2  0
  2  3  1  0
  3  4  2  0
  4  5  1  0
  5  6  1  0
  6  7  1  0
  7  8  1  0
  8  9  2  0
  9 10  1  0
 10 11  2  0
 11 12  1  0
 12 13  1  0
 13 14  1  0
 14 15  2  0
 15 16  1  0
 16 17  2  0
 17 18  1  0
 17 19  1  0
 16 20  1  0
 15 21  1  0
 13 22  1  0
 13 23  1  0
 11 24  1  0
  6 25  1  0
  6 26  1  0
  5 27  2  0
 27 28  1  0
  4 29  1  0
  2 30  1  0
  1 31  1  0
 27  1  1  0
 12  8  1  0
 18 14  1  0
M  END
>  <cnnaffinity>  (1) 
5.18432

>  <plip>  (1) 
-0.07142857142857142

>  <filename>  (1) 
[H][c]1[n][c]([H])[c]([C]([H])([H])[S][c]2[n][n][c]([H])[n]2[C]([H])([H])[c]2[o][c]([H])[c]([H])[c]2[H])[c]([H])[c]1[H]

>  <combo1>  (1) 
-0.45325462017526513

$$$$
