
     RDKit          3D

 32 34  0  0  0  0  0  0  0  0999 V2000
    4.8835    1.8641   17.0721 H   0  0  0  0  0  0  0  0  0  0  0  0
    5.4187    1.3014   17.8390 C   0  0  0  0  0  0  0  0  0  0  0  0
    6.5686    0.7150   17.4634 N   0  0  0  0  0  0  0  0  0  0  0  0
    7.2568    0.0387   18.3955 C   0  0  0  0  0  0  0  0  0  0  0  0
    8.1942   -0.3964   18.0612 H   0  0  0  0  0  0  0  0  0  0  0  0
    6.8370   -0.1280   19.7471 C   0  0  0  0  0  0  0  0  0  0  0  0
    7.5851   -0.8713   20.7299 N   0  0  0  0  0  0  0  0  0  0  0  0
    8.9118   -0.6057   21.0502 C   0  0  0  0  0  0  0  0  0  0  0  0
    9.5374    0.3787   20.7769 O   0  0  0  0  0  0  0  0  0  0  0  0
    9.4382   -1.6709   21.7104 O   0  0  0  0  0  0  0  0  0  0  0  0
    8.4559   -2.6898   21.8670 C   0  0  0  0  0  0  0  0  0  0  0  0
    8.6801   -3.5388   21.2120 H   0  0  0  0  0  0  0  0  0  0  0  0
    8.4552   -3.0209   22.9101 H   0  0  0  0  0  0  0  0  0  0  0  0
    7.1202   -2.0081   21.5100 C   0  0  1  0  0  0  0  0  0  0  0  0
    6.4772   -2.6486   20.8956 H   0  0  0  0  0  0  0  0  0  0  0  0
    6.3912   -1.6985   22.7128 N   0  0  0  0  0  0  0  0  0  0  0  0
    5.3935   -1.6775   22.5543 H   0  0  0  0  0  0  0  0  0  0  0  0
    6.7776   -0.6362   23.6419 C   0  0  0  0  0  0  0  0  0  0  0  0
    6.7252    0.3748   23.1957 H   0  0  0  0  0  0  0  0  0  0  0  0
    7.8217   -0.7915   23.9482 H   0  0  0  0  0  0  0  0  0  0  0  0
    5.8801   -0.6543   24.8746 C   0  0  0  0  0  0  0  0  0  0  0  0
    4.5710    0.4826   25.0272 S   0  0  0  0  0  0  0  0  0  0  0  0
    4.0074   -0.2417   26.4787 C   0  0  0  0  0  0  0  0  0  0  0  0
    3.1077    0.1226   26.9571 H   0  0  0  0  0  0  0  0  0  0  0  0
    4.8044   -1.2722   26.8653 C   0  0  0  0  0  0  0  0  0  0  0  0
    4.6238   -1.8511   27.7659 H   0  0  0  0  0  0  0  0  0  0  0  0
    5.8763   -1.5029   25.9477 C   0  0  0  0  0  0  0  0  0  0  0  0
    6.6024   -2.2939   26.1025 H   0  0  0  0  0  0  0  0  0  0  0  0
    5.6383    0.4979   20.1088 C   0  0  0  0  0  0  0  0  0  0  0  0
    5.2993    0.4524   21.1420 H   0  0  0  0  0  0  0  0  0  0  0  0
    4.9198    1.2199   19.1424 C   0  0  0  0  0  0  0  0  0  0  0  0
    3.9951    1.7300   19.3958 H   0  0  0  0  0  0  0  0  0  0  0  0
  1  2  1  0
  2  3  2  0
  3  4  1  0
  4  5  1  0
  4  6  2  0
  6  7  1  0
  7  8  1  0
  8  9  2  0
  8 10  1  0
 10 11  1  0
 11 12  1  0
 11 13  1  0
 11 14  1  0
 14 15  1  6
 14 16  1  0
 16 17  1  0
 16 18  1  0
 18 19  1  0
 18 20  1  0
 18 21  1  0
 21 22  1  0
 22 23  1  0
 23 24  1  0
 23 25  2  0
 25 26  1  0
 25 27  1  0
 27 28  1  0
  6 29  1  0
 29 30  1  0
 29 31  2  0
 31 32  1  0
 31  2  1  0
 14  7  1  0
 27 21  2  0
M  END
>  <cnnaffinity>  (1) 
4.16398

>  <plip>  (1) 
-0.10714285714285714

>  <filename>  (1) 
[H][c]1[n][c]([H])[c]([N]2[C](=[O])[O][C]([H])([H])[C@@]2([H])[N]([H])[C]([H])([H])[c]2[s][c]([H])[c]([H])[c]2[H])[c]([H])[c]1[H]

>  <combo1>  (1) 
-0.5401225840294167

$$$$
