
     RDKit          3D

 36 39  0  0  0  0  0  0  0  0999 V2000
    4.9367    1.7854   16.9978 H   0  0  0  0  0  0  0  0  0  0  0  0
    5.4029    1.2877   17.8479 C   0  0  0  0  0  0  0  0  0  0  0  0
    6.5656    0.6678   17.5984 N   0  0  0  0  0  0  0  0  0  0  0  0
    7.1703    0.0523   18.6170 C   0  0  0  0  0  0  0  0  0  0  0  0
    8.1192   -0.4315   18.3910 H   0  0  0  0  0  0  0  0  0  0  0  0
    6.6481    0.0063   19.9173 C   0  0  0  0  0  0  0  0  0  0  0  0
    7.4045   -0.7290   20.9304 C   0  0  0  0  0  0  0  0  0  0  0  0
    8.5371   -1.3439   20.7960 N   0  0  0  0  0  0  0  0  0  0  0  0
    8.8265   -1.8966   22.0358 N   0  0  0  0  0  0  0  0  0  0  0  0
    7.8535   -1.5801   22.8237 C   0  0  0  0  0  0  0  0  0  0  0  0
    7.7236   -1.8953   24.2701 C   0  0  0  0  0  0  0  0  0  0  0  0
    6.9897   -3.1664   24.5659 C   0  0  0  0  0  0  0  0  0  0  0  0
    6.4591   -3.8381   23.5300 N   0  0  0  0  0  0  0  0  0  0  0  0
    5.8068   -4.9559   23.7944 C   0  0  0  0  0  0  0  0  0  0  0  0
    5.2493   -5.6703   22.8003 O   0  0  0  0  0  0  0  0  0  0  0  0
    5.3566   -5.2210   21.4570 C   0  0  0  0  0  0  0  0  0  0  0  0
    6.4036   -5.1659   21.1329 H   0  0  0  0  0  0  0  0  0  0  0  0
    4.9009   -4.2297   21.3376 H   0  0  0  0  0  0  0  0  0  0  0  0
    4.8188   -5.9792   20.8867 H   0  0  0  0  0  0  0  0  0  0  0  0
    5.6307   -5.5018   25.0764 C   0  0  0  0  0  0  0  0  0  0  0  0
    5.0743   -6.4258   25.1584 H   0  0  0  0  0  0  0  0  0  0  0  0
    6.1816   -4.8204   26.1457 C   0  0  0  0  0  0  0  0  0  0  0  0
    6.0811   -5.1976   27.1645 H   0  0  0  0  0  0  0  0  0  0  0  0
    6.8741   -3.6278   25.8844 C   0  0  0  0  0  0  0  0  0  0  0  0
    7.3175   -3.0706   26.6958 H   0  0  0  0  0  0  0  0  0  0  0  0
    7.6412   -0.7142   25.2441 C   0  0  0  0  0  0  0  0  0  0  0  0
    7.0429   -0.8233   26.1500 H   0  0  0  0  0  0  0  0  0  0  0  0
    7.5984    0.2877   24.8171 H   0  0  0  0  0  0  0  0  0  0  0  0
    8.9177   -1.4718   25.1308 C   0  0  0  0  0  0  0  0  0  0  0  0
    9.2418   -2.1129   25.9523 H   0  0  0  0  0  0  0  0  0  0  0  0
    9.7424   -0.9971   24.5987 H   0  0  0  0  0  0  0  0  0  0  0  0
    6.9079   -0.8416   22.1864 O   0  0  0  0  0  0  0  0  0  0  0  0
    5.4279    0.6553   20.1707 C   0  0  0  0  0  0  0  0  0  0  0  0
    4.9839    0.6508   21.1655 H   0  0  0  0  0  0  0  0  0  0  0  0
    4.8014    1.3095   19.1109 C   0  0  0  0  0  0  0  0  0  0  0  0
    3.8690    1.8457   19.2444 H   0  0  0  0  0  0  0  0  0  0  0  0
  1  2  1  0
  2  3  2  0
  3  4  1  0
  4  5  1  0
  4  6  2  0
  6  7  1  0
  7  8  2  0
  8  9  1  0
  9 10  2  0
 10 11  1  0
 11 12  1  0
 12 13  2  0
 13 14  1  0
 14 15  1  0
 15 16  1  0
 16 17  1  0
 16 18  1  0
 16 19  1  0
 14 20  2  0
 20 21  1  0
 20 22  1  0
 22 23  1  0
 22 24  2  0
 24 25  1  0
 11 26  1  0
 26 27  1  0
 26 28  1  0
 26 29  1  0
 29 30  1  0
 29 31  1  0
 10 32  1  0
  6 33  1  0
 33 34  1  0
 33 35  2  0
 35 36  1  0
 35  2  1  0
 32  7  1  0
 29 11  1  0
 24 12  1  0
M  END
>  <cnnaffinity>  (1) 
5.28976

>  <plip>  (1) 
-0.07142857142857142

>  <filename>  (1) 
[H][c]1[n][c]([H])[c](-[c]2[n][n][c]([C]3([c]4[n][c]([O][C]([H])([H])[H])[c]([H])[c]([H])[c]4[H])[C]([H])([H])[C]3([H])[H])[o]2)[c]([H])[c]1[H]

>  <combo1>  (1) 
-0.42793297861014645

$$$$
