
     RDKit          3D

 34 36  0  0  0  0  0  0  0  0999 V2000
    9.7983   -0.6656   21.3084 C   0  0  0  0  0  0  0  0  0  0  0  0
    8.5089   -0.0290   21.5754 N   0  0  0  0  0  0  0  0  0  0  0  0
    7.2766   -0.6865   21.1201 C   0  0  0  0  0  0  0  0  0  0  0  0
    6.6118    0.0435   19.9796 C   0  0  0  0  0  0  0  0  0  0  0  0
    5.4058    0.7280   20.1591 C   0  0  0  0  0  0  0  0  0  0  0  0
    4.8169    1.3484   19.0566 C   0  0  0  0  0  0  0  0  0  0  0  0
    5.4780    1.2898   17.8261 C   0  0  0  0  0  0  0  0  0  0  0  0
    6.6473    0.6576   17.6409 N   0  0  0  0  0  0  0  0  0  0  0  0
    7.1923    0.0560   18.7050 C   0  0  0  0  0  0  0  0  0  0  0  0
    8.1260   -0.4801   18.5233 H   0  0  0  0  0  0  0  0  0  0  0  0
    5.0459    1.7662   16.9478 H   0  0  0  0  0  0  0  0  0  0  0  0
    3.8694    1.8689   19.1440 H   0  0  0  0  0  0  0  0  0  0  0  0
    4.9549    0.7725   21.1520 H   0  0  0  0  0  0  0  0  0  0  0  0
    7.5185   -1.7080   20.8014 H   0  0  0  0  0  0  0  0  0  0  0  0
    6.5697   -0.7489   21.9557 H   0  0  0  0  0  0  0  0  0  0  0  0
    8.3541    1.2097   22.1827 C   0  0  0  0  0  0  0  0  0  0  0  0
    7.2501    1.5545   22.6011 O   0  0  0  0  0  0  0  0  0  0  0  0
    9.5392    2.1543   22.3200 C   0  0  0  0  0  0  0  0  0  0  0  0
   10.6298    2.1387   21.5438 N   0  0  0  0  0  0  0  0  0  0  0  0
   11.3508    3.2127   21.8950 N   0  0  0  0  0  0  0  0  0  0  0  0
   10.7503    3.9687   22.8557 C   0  0  0  0  0  0  0  0  0  0  0  0
   11.1031    5.2133   23.4196 C   0  0  0  0  0  0  0  0  0  0  0  0
   10.2364    5.7541   24.3545 C   0  0  0  0  0  0  0  0  0  0  0  0
    9.0406    5.0827   24.7283 C   0  0  0  0  0  0  0  0  0  0  0  0
    8.6998    3.8615   24.1664 C   0  0  0  0  0  0  0  0  0  0  0  0
    9.5646    3.3017   23.1876 C   0  0  0  0  0  0  0  0  0  0  0  0
    7.7979    3.3334   24.4508 H   0  0  0  0  0  0  0  0  0  0  0  0
    8.3813    5.5474   25.4585 H   0  0  0  0  0  0  0  0  0  0  0  0
   10.4629    6.7243   24.7944 H   0  0  0  0  0  0  0  0  0  0  0  0
   12.0031    5.7201   23.0913 H   0  0  0  0  0  0  0  0  0  0  0  0
   12.1319    3.5015   21.3314 H   0  0  0  0  0  0  0  0  0  0  0  0
    9.6758   -1.7482   21.2011 H   0  0  0  0  0  0  0  0  0  0  0  0
   10.4774   -0.4987   22.1476 H   0  0  0  0  0  0  0  0  0  0  0  0
   10.2831   -0.2653   20.4165 H   0  0  0  0  0  0  0  0  0  0  0  0
  1  2  1  0
  2  3  1  0
  3  4  1  0
  4  5  2  0
  5  6  1  0
  6  7  2  0
  7  8  1  0
  8  9  2  0
  9 10  1  0
  7 11  1  0
  6 12  1  0
  5 13  1  0
  3 14  1  0
  3 15  1  0
  2 16  1  0
 16 17  2  0
 16 18  1  0
 18 19  2  0
 19 20  1  0
 20 21  1  0
 21 22  2  0
 22 23  1  0
 23 24  2  0
 24 25  1  0
 25 26  2  0
 25 27  1  0
 24 28  1  0
 23 29  1  0
 22 30  1  0
 20 31  1  0
  1 32  1  0
  1 33  1  0
  1 34  1  0
  9  4  1  0
 26 18  1  0
 26 21  1  0
M  END
>  <cnnaffinity>  (1) 
4.88652

>  <plip>  (1) 
-0.07142857142857142

>  <filename>  (1) 
[H][c]1[n][c]([H])[c]([C]([H])([H])[N]([C](=[O])[c]2[n][n]([H])[c]3[c]([H])[c]([H])[c]([H])[c]([H])[c]23)[C]([H])([H])[H])[c]([H])[c]1[H]

>  <combo1>  (1) 
-0.43689059978713934

$$$$
