
     RDKit          3D

 38 40  0  0  0  0  0  0  0  0999 V2000
    4.9620    1.8480   16.7655 H   0  0  0  0  0  0  0  0  0  0  0  0
    5.3259    1.4228   17.7000 C   0  0  0  0  0  0  0  0  0  0  0  0
    6.5036    0.7830   17.6279 N   0  0  0  0  0  0  0  0  0  0  0  0
    6.9863    0.2582   18.7602 C   0  0  0  0  0  0  0  0  0  0  0  0
    7.9713   -0.2133   18.6886 H   0  0  0  0  0  0  0  0  0  0  0  0
    6.3254    0.2909   20.0047 C   0  0  0  0  0  0  0  0  0  0  0  0
    6.9993   -0.3243   21.2254 C   0  0  2  0  0  0  0  0  0  0  0  0
    6.3198   -0.2630   22.0815 H   0  0  0  0  0  0  0  0  0  0  0  0
    8.3364    0.4181   21.5431 C   0  0  0  0  0  0  0  0  0  0  0  0
    8.5177    1.2447   20.8376 H   0  0  0  0  0  0  0  0  0  0  0  0
    8.3275    0.8552   22.5553 H   0  0  0  0  0  0  0  0  0  0  0  0
    9.3587   -0.5840   21.3744 N   0  0  0  0  0  0  0  0  0  0  0  0
   10.3550   -0.4395   21.4184 H   0  0  0  0  0  0  0  0  0  0  0  0
    8.9471   -1.8324   21.0490 C   0  0  0  0  0  0  0  0  0  0  0  0
    9.7059   -2.7287   20.7600 O   0  0  0  0  0  0  0  0  0  0  0  0
    7.3668   -1.8307   21.0179 C   0  0  1  0  0  0  0  0  0  0  0  0
    7.1366   -2.1047   19.9802 H   0  0  0  0  0  0  0  0  0  0  0  0
    6.5538   -2.7722   21.8022 N   0  0  0  0  0  0  0  0  0  0  0  0
    5.9846   -3.4523   21.2841 H   0  0  0  0  0  0  0  0  0  0  0  0
    6.8675   -3.2982   23.0279 C   0  0  0  0  0  0  0  0  0  0  0  0
    7.6283   -2.5694   23.9555 C   0  0  0  0  0  0  0  0  0  0  0  0
    7.9334   -1.5615   23.6853 H   0  0  0  0  0  0  0  0  0  0  0  0
    7.9977   -3.1284   25.1760 C   0  0  0  0  0  0  0  0  0  0  0  0
    8.5917   -2.5470   25.8762 H   0  0  0  0  0  0  0  0  0  0  0  0
    7.5832   -4.4259   25.4983 C   0  0  0  0  0  0  0  0  0  0  0  0
    7.8954   -4.8791   26.4366 H   0  0  0  0  0  0  0  0  0  0  0  0
    6.7805   -5.1375   24.6094 C   0  0  0  0  0  0  0  0  0  0  0  0
    6.4780   -6.1448   24.8892 H   0  0  0  0  0  0  0  0  0  0  0  0
    6.3839   -4.5955   23.3666 C   0  0  0  0  0  0  0  0  0  0  0  0
    5.5556   -5.3544   22.3866 C   0  0  0  0  0  0  0  0  0  0  0  0
    5.3053   -5.0036   21.2325 O   0  0  0  0  0  0  0  0  0  0  0  0
    5.0670   -6.5760   22.7618 N   0  0  0  0  0  0  0  0  0  0  0  0
    4.7156   -6.6654   23.7017 H   0  0  0  0  0  0  0  0  0  0  0  0
    4.4677   -6.9083   22.0214 H   0  0  0  0  0  0  0  0  0  0  0  0
    5.1023    0.9752   20.0569 C   0  0  0  0  0  0  0  0  0  0  0  0
    4.5660    1.0742   21.0032 H   0  0  0  0  0  0  0  0  0  0  0  0
    4.5974    1.5525   18.8855 C   0  0  0  0  0  0  0  0  0  0  0  0
    3.6750    2.1227   18.8790 H   0  0  0  0  0  0  0  0  0  0  0  0
  1  2  1  0
  2  3  2  0
  3  4  1  0
  4  5  1  0
  4  6  2  0
  6  7  1  0
  7  8  1  1
  7  9  1  0
  9 10  1  0
  9 11  1  0
  9 12  1  0
 12 13  1  0
 12 14  1  0
 14 15  2  0
 14 16  1  0
 16 17  1  6
 16 18  1  0
 18 19  1  0
 18 20  1  0
 20 21  2  0
 21 22  1  0
 21 23  1  0
 23 24  1  0
 23 25  2  0
 25 26  1  0
 25 27  1  0
 27 28  1  0
 27 29  2  0
 29 30  1  0
 30 31  2  0
 30 32  1  0
 32 33  1  0
 32 34  1  0
  6 35  1  0
 35 36  1  0
 35 37  2  0
 37 38  1  0
 37  2  1  0
 16  7  1  0
 29 20  1  0
M  END
>  <cnnaffinity>  (1) 
5.42145

>  <plip>  (1) 
-0.10344827586206896

>  <filename>  (1) 
[H][c]1[n][c]([H])[c]([C@]2([H])[C]([H])([H])[N]([H])[C](=[O])[C@@]2([H])[N]([H])[c]2[c]([H])[c]([H])[c]([H])[c]([H])[c]2[C](=[O])[N]([H])[H])[c]([H])[c]1[H]

>  <combo1>  (1) 
-0.630872850282246

$$$$
