
     RDKit          3D

 32 33  0  0  0  0  0  0  0  0999 V2000
    4.9210    1.8030   16.9693 H   0  0  0  0  0  0  0  0  0  0  0  0
    5.4003    1.3040   17.8108 C   0  0  0  0  0  0  0  0  0  0  0  0
    6.5599    0.6819   17.5474 N   0  0  0  0  0  0  0  0  0  0  0  0
    7.1789    0.0908   18.5790 C   0  0  0  0  0  0  0  0  0  0  0  0
    8.1156   -0.4091   18.3328 H   0  0  0  0  0  0  0  0  0  0  0  0
    6.6942    0.0694   19.8958 C   0  0  0  0  0  0  0  0  0  0  0  0
    7.4361   -0.6860   20.9827 C   0  0  1  0  0  0  0  0  0  0  0  0
    8.4425   -0.9177   20.6067 H   0  0  0  0  0  0  0  0  0  0  0  0
    7.5232    0.0402   22.2439 N   0  0  0  0  0  0  0  0  0  0  0  0
    8.0132    1.3353   22.4127 C   0  0  0  0  0  0  0  0  0  0  0  0
    7.6872    1.9925   23.4613 N   0  0  0  0  0  0  0  0  0  0  0  0
    8.1653    3.2505   23.7189 N   0  0  0  0  0  0  0  0  0  0  0  0
    8.6887    3.8338   23.0817 H   0  0  0  0  0  0  0  0  0  0  0  0
    7.8955    3.9392   24.8693 C   0  0  0  0  0  0  0  0  0  0  0  0
    8.4811    5.4809   25.0592 S   0  0  0  0  0  0  0  0  0  0  0  0
    7.1696    3.3207   25.7950 N   0  0  0  0  0  0  0  0  0  0  0  0
    6.9844    3.8329   26.6379 H   0  0  0  0  0  0  0  0  0  0  0  0
    6.8672    2.3748   25.6158 H   0  0  0  0  0  0  0  0  0  0  0  0
    8.9107    1.8908   21.3369 C   0  0  0  0  0  0  0  0  0  0  0  0
    9.8338    2.2781   21.7775 H   0  0  0  0  0  0  0  0  0  0  0  0
    9.1687    1.1382   20.5974 H   0  0  0  0  0  0  0  0  0  0  0  0
    8.4004    2.7171   20.8365 H   0  0  0  0  0  0  0  0  0  0  0  0
    6.8697   -0.6217   23.2809 C   0  0  0  0  0  0  0  0  0  0  0  0
    6.6997   -0.2828   24.4107 O   0  0  0  0  0  0  0  0  0  0  0  0
    6.4551   -1.8252   22.8130 O   0  0  0  0  0  0  0  0  0  0  0  0
    6.7060   -1.9723   21.4272 C   0  0  0  0  0  0  0  0  0  0  0  0
    7.3112   -2.8685   21.2801 H   0  0  0  0  0  0  0  0  0  0  0  0
    5.7467   -2.0874   20.9090 H   0  0  0  0  0  0  0  0  0  0  0  0
    5.4580    0.6865   20.1383 C   0  0  0  0  0  0  0  0  0  0  0  0
    5.0121    0.6647   21.1354 H   0  0  0  0  0  0  0  0  0  0  0  0
    4.8064    1.3250   19.0791 C   0  0  0  0  0  0  0  0  0  0  0  0
    3.8617    1.8428   19.2269 H   0  0  0  0  0  0  0  0  0  0  0  0
  1  2  1  0
  2  3  2  0
  3  4  1  0
  4  5  1  0
  4  6  2  0
  6  7  1  0
  7  8  1  6
  7  9  1  0
  9 10  1  0
 10 11  2  3
 11 12  1  0
 12 13  1  0
 12 14  1  0
 14 15  2  0
 14 16  1  0
 16 17  1  0
 16 18  1  0
 10 19  1  0
 19 20  1  0
 19 21  1  0
 19 22  1  0
  9 23  1  0
 23 24  2  0
 23 25  1  0
 25 26  1  0
 26 27  1  0
 26 28  1  0
  6 29  1  0
 29 30  1  0
 29 31  2  0
 31 32  1  0
 31  2  1  0
 26  7  1  0
M  END
>  <cnnaffinity>  (1) 
4.45254

>  <plip>  (1) 
-0.0

>  <filename>  (1) 
[H][c]1[n][c]([H])[c]([C@@]2([H])[N]([C](=[N][N]([H])[C](=[S])[N]([H])[H])[C]([H])([H])[H])[C](=[O])[O][C]2([H])[H])[c]([H])[c]1[H]

>  <combo1>  (1) 
-5.313452071959186e-06

$$$$
