
     RDKit          3D

 34 35  0  0  0  0  0  0  0  0999 V2000
    9.9532    0.2839   25.3754 N   0  0  0  0  0  4  0  0  0  0  0  0
    9.0662    0.6209   24.1715 C   0  0  0  0  0  0  0  0  0  0  0  0
    8.9687   -0.5491   23.1774 C   0  0  0  0  0  0  0  0  0  0  0  0
    7.9851   -0.2590   22.0922 N   0  0  0  0  0  4  0  0  0  0  0  0
    7.5233   -1.4419   21.1256 C   0  0  0  0  0  0  0  0  0  0  0  0
    6.7537   -0.6415   20.0963 C   0  0  0  0  0  0  0  0  0  0  0  0
    5.4767   -0.1202   20.3453 C   0  0  0  0  0  0  0  0  0  0  0  0
    4.9746    0.8476   19.4711 C   0  0  0  0  0  0  0  0  0  0  0  0
    5.7355    1.2206   18.3625 C   0  0  0  0  0  0  0  0  0  0  0  0
    6.9161    0.6590   18.0630 N   0  0  0  0  0  0  0  0  0  0  0  0
    7.3925   -0.2549   18.9126 C   0  0  0  0  0  0  0  0  0  0  0  0
    8.3447   -0.7112   18.6448 H   0  0  0  0  0  0  0  0  0  0  0  0
    5.3898    1.9920   17.6728 H   0  0  0  0  0  0  0  0  0  0  0  0
    4.0201    1.3273   19.6419 H   0  0  0  0  0  0  0  0  0  0  0  0
    4.9023   -0.4623   21.2064 H   0  0  0  0  0  0  0  0  0  0  0  0
    6.7559   -2.6014   21.8194 C   0  0  0  0  0  0  0  0  0  0  0  0
    6.7395   -3.8983   21.2852 C   0  0  0  0  0  0  0  0  0  0  0  0
    5.9731   -4.8427   21.9568 C   0  0  0  0  0  0  0  0  0  0  0  0
    5.2352   -4.5519   23.0288 N   0  0  0  0  0  0  0  0  0  0  0  0
    5.3260   -3.2957   23.4700 C   0  0  0  0  0  0  0  0  0  0  0  0
    6.0939   -2.3351   22.9555 N   0  0  0  0  0  0  0  0  0  0  0  0
    4.6847   -3.0327   24.3106 H   0  0  0  0  0  0  0  0  0  0  0  0
    5.9362   -5.8820   21.6085 H   0  0  0  0  0  0  0  0  0  0  0  0
    7.2619   -4.1501   20.3770 H   0  0  0  0  0  0  0  0  0  0  0  0
    8.4124   -1.8757   20.6587 H   0  0  0  0  0  0  0  0  0  0  0  0
    7.0524   -0.0124   22.5226 H   0  0  0  0  0  0  0  0  0  0  0  0
    8.2346    0.5379   21.4540 H   0  0  0  0  0  0  0  0  0  0  0  0
    9.9624   -0.7689   22.7585 H   0  0  0  0  0  0  0  0  0  0  0  0
    8.6575   -1.4626   23.7057 H   0  0  0  0  0  0  0  0  0  0  0  0
    8.0577    0.8661   24.5215 H   0  0  0  0  0  0  0  0  0  0  0  0
    9.4481    1.5070   23.6524 H   0  0  0  0  0  0  0  0  0  0  0  0
    9.5905   -0.5556   25.8686 H   0  0  0  0  0  0  0  0  0  0  0  0
    9.9933    1.0407   26.0792 H   0  0  0  0  0  0  0  0  0  0  0  0
   10.9254    0.0820   25.0721 H   0  0  0  0  0  0  0  0  0  0  0  0
  1  2  1  0
  2  3  1  0
  3  4  1  0
  4  5  1  0
  5  6  1  0
  6  7  2  0
  7  8  1  0
  8  9  2  0
  9 10  1  0
 10 11  2  0
 11 12  1  0
  9 13  1  0
  8 14  1  0
  7 15  1  0
  5 16  1  0
 16 17  2  0
 17 18  1  0
 18 19  2  0
 19 20  1  0
 20 21  2  0
 20 22  1  0
 18 23  1  0
 17 24  1  0
  5 25  1  0
  4 26  1  0
  4 27  1  0
  3 28  1  0
  3 29  1  0
  2 30  1  0
  2 31  1  0
  1 32  1  0
  1 33  1  0
  1 34  1  0
 11  6  1  0
 21 16  1  0
M  CHG  2   1   1   4   1
M  END
>  <cnnaffinity>  (1) 
4.3509

>  <plip>  (1) 
-0.10714285714285714

>  <filename>  (1) 
[H][c]1[n][c]([H])[c]([H])[c]([C]([H])([c]2[c]([H])[n][c]([H])[c]([H])[c]2[H])[N+]([H])([H])[C]([H])([H])[C]([H])([H])[N+]([H])([H])[H])[n]1

>  <combo1>  (1) 
-0.6717996987254191

$$$$
