
     RDKit          3D

 38 39  0  0  0  0  0  0  0  0999 V2000
    6.7668   -0.4086   23.4646 O   0  0  0  0  0  0  0  0  0  0  0  0
    7.0186    0.2742   22.4916 C   0  0  0  0  0  0  0  0  0  0  0  0
    7.4318    1.5803   22.5868 N   0  0  0  0  0  0  0  0  0  0  0  0
    8.0434    2.0583   23.8495 C   0  0  0  0  0  0  0  0  0  0  0  0
    9.4586    1.5820   24.2464 C   0  0  0  0  0  0  0  0  0  0  0  0
    9.5507    1.0955   25.4874 N   0  0  0  0  0  0  0  0  0  0  0  0
   10.7001    0.5684   25.9237 C   0  0  0  0  0  0  0  0  0  0  0  0
   11.8581    0.5488   25.1423 C   0  0  0  0  0  0  0  0  0  0  0  0
   11.8128    1.1429   23.8849 C   0  0  0  0  0  0  0  0  0  0  0  0
   10.6019    1.6765   23.4340 C   0  0  0  0  0  0  0  0  0  0  0  0
   10.4928    2.3157   22.0948 C   0  0  0  0  0  0  0  0  0  0  0  0
    9.9895    1.4746   21.1605 F   0  0  0  0  0  0  0  0  0  0  0  0
    9.6569    3.3790   22.1300 F   0  0  0  0  0  0  0  0  0  0  0  0
   11.6746    2.7467   21.6312 F   0  0  0  0  0  0  0  0  0  0  0  0
   12.7075    1.2244   23.2652 H   0  0  0  0  0  0  0  0  0  0  0  0
   12.7687    0.1039   25.5220 H   0  0  0  0  0  0  0  0  0  0  0  0
   10.6802    0.1413   26.9265 H   0  0  0  0  0  0  0  0  0  0  0  0
    8.0395    3.1485   23.8490 H   0  0  0  0  0  0  0  0  0  0  0  0
    7.3924    1.7425   24.6650 H   0  0  0  0  0  0  0  0  0  0  0  0
    7.8159    1.9278   21.7185 H   0  0  0  0  0  0  0  0  0  0  0  0
    7.0349   -0.2805   21.1769 N   0  0  0  0  0  0  0  0  0  0  0  0
    7.6653   -1.5990   21.0858 C   0  0  0  0  0  0  0  0  0  0  0  0
    9.1884   -1.5330   20.9952 C   0  0  0  0  0  0  0  0  0  0  0  0
    9.6510   -2.8030   20.9151 F   0  0  0  0  0  0  0  0  0  0  0  0
    9.6806   -0.9856   22.1543 F   0  0  0  0  0  0  0  0  0  0  0  0
    9.5782   -0.9686   20.1383 H   0  0  0  0  0  0  0  0  0  0  0  0
    7.2830   -2.1529   20.2240 H   0  0  0  0  0  0  0  0  0  0  0  0
    7.4388   -2.1809   21.9880 H   0  0  0  0  0  0  0  0  0  0  0  0
    6.4431    0.3047   20.0122 C   0  0  0  0  0  0  0  0  0  0  0  0
    5.2097    0.9806   20.0893 C   0  0  0  0  0  0  0  0  0  0  0  0
    4.6555    1.5054   18.9147 C   0  0  0  0  0  0  0  0  0  0  0  0
    5.3511    1.3745   17.7087 C   0  0  0  0  0  0  0  0  0  0  0  0
    6.5169    0.7165   17.6063 N   0  0  0  0  0  0  0  0  0  0  0  0
    7.0278    0.1859   18.7228 C   0  0  0  0  0  0  0  0  0  0  0  0
    7.9607   -0.3602   18.5974 H   0  0  0  0  0  0  0  0  0  0  0  0
    4.9694    1.8182   16.7919 H   0  0  0  0  0  0  0  0  0  0  0  0
    3.7033    2.0290   18.9223 H   0  0  0  0  0  0  0  0  0  0  0  0
    4.7013    1.0807   21.0472 H   0  0  0  0  0  0  0  0  0  0  0  0
  1  2  2  0
  2  3  1  0
  3  4  1  0
  4  5  1  0
  5  6  2  0
  6  7  1  0
  7  8  2  0
  8  9  1  0
  9 10  2  0
 10 11  1  0
 11 12  1  0
 11 13  1  0
 11 14  1  0
  9 15  1  0
  8 16  1  0
  7 17  1  0
  4 18  1  0
  4 19  1  0
  3 20  1  0
  2 21  1  0
 21 22  1  0
 22 23  1  0
 23 24  1  0
 23 25  1  0
 23 26  1  0
 22 27  1  0
 22 28  1  0
 21 29  1  0
 29 30  2  0
 30 31  1  0
 31 32  2  0
 32 33  1  0
 33 34  2  0
 34 35  1  0
 32 36  1  0
 31 37  1  0
 30 38  1  0
 10  5  1  0
 34 29  1  0
M  END
>  <cnnaffinity>  (1) 
4.93362

>  <plip>  (1) 
-0.06896551724137931

>  <filename>  (1) 
[H][c]1[n][c]([H])[c]([N]([C](=[O])[N]([H])[C]([H])([H])[c]2[n][c]([H])[c]([H])[c]([H])[c]2[C]([F])([F])[F])[C]([H])([H])[C]([H])([F])[F])[c]([H])[c]1[H]

>  <combo1>  (1) 
-0.31479588916621226

$$$$
