
     RDKit          3D

 27 28  0  0  0  0  0  0  0  0999 V2000
    4.9336    1.8040   16.9870 H   0  0  0  0  0  0  0  0  0  0  0  0
    5.4023    1.3011   17.8298 C   0  0  0  0  0  0  0  0  0  0  0  0
    6.5672    0.6723   17.5708 N   0  0  0  0  0  0  0  0  0  0  0  0
    7.1727    0.0598   18.5924 C   0  0  0  0  0  0  0  0  0  0  0  0
    8.1112   -0.4502   18.3871 H   0  0  0  0  0  0  0  0  0  0  0  0
    6.6849    0.0369   19.9233 C   0  0  0  0  0  0  0  0  0  0  0  0
    7.4168   -0.6893   20.8830 N   0  0  0  0  0  0  0  0  0  0  0  0
    7.6606   -0.3014   22.0841 C   0  0  0  0  0  0  0  0  0  0  0  0
    8.2472   -1.3073   23.0204 C   0  0  0  0  0  0  0  0  0  0  0  0
    8.4978   -1.0699   24.3124 N   0  0  0  0  0  0  0  0  0  0  0  0
    9.0357   -2.1975   24.7824 N   0  0  0  0  0  0  0  0  0  0  0  0
    9.2584   -2.3311   26.2094 C   0  0  0  0  0  0  0  0  0  0  0  0
    9.8717   -3.2173   26.4008 H   0  0  0  0  0  0  0  0  0  0  0  0
    8.3065   -2.4089   26.7426 H   0  0  0  0  0  0  0  0  0  0  0  0
    9.7764   -1.4356   26.5744 H   0  0  0  0  0  0  0  0  0  0  0  0
    9.1092   -3.1685   23.8393 C   0  0  0  0  0  0  0  0  0  0  0  0
    9.5100   -4.1429   24.0961 H   0  0  0  0  0  0  0  0  0  0  0  0
    8.6136   -2.6340   22.6789 C   0  0  0  0  0  0  0  0  0  0  0  0
    8.4944   -3.0662   21.6961 H   0  0  0  0  0  0  0  0  0  0  0  0
    7.4231    1.1151   22.5576 C   0  0  0  0  0  0  0  0  0  0  0  0
    7.4563    1.8169   21.7210 H   0  0  0  0  0  0  0  0  0  0  0  0
    6.4343    1.1865   23.0171 H   0  0  0  0  0  0  0  0  0  0  0  0
    8.1587    1.4105   23.3064 H   0  0  0  0  0  0  0  0  0  0  0  0
    5.4468    0.6570   20.1574 C   0  0  0  0  0  0  0  0  0  0  0  0
    5.0156    0.6237   21.1570 H   0  0  0  0  0  0  0  0  0  0  0  0
    4.8040    1.3059   19.0929 C   0  0  0  0  0  0  0  0  0  0  0  0
    3.8645    1.8295   19.2426 H   0  0  0  0  0  0  0  0  0  0  0  0
  1  2  1  0
  2  3  2  0
  3  4  1  0
  4  5  1  0
  4  6  2  0
  6  7  1  0
  7  8  2  3
  8  9  1  0
  9 10  2  0
 10 11  1  0
 11 12  1  0
 12 13  1  0
 12 14  1  0
 12 15  1  0
 11 16  1  0
 16 17  1  0
 16 18  2  0
 18 19  1  0
  8 20  1  0
 20 21  1  0
 20 22  1  0
 20 23  1  0
  6 24  1  0
 24 25  1  0
 24 26  2  0
 26 27  1  0
 26  2  1  0
 18  9  1  0
M  END
>  <cnnaffinity>  (1) 
4.31571

>  <plip>  (1) 
-0.0

>  <filename>  (1) 
[H][c]1[n][c]([H])[c]([N]=[C]([c]2[n][n]([C]([H])([H])[H])[c]([H])[c]2[H])[C]([H])([H])[H])[c]([H])[c]1[H]

>  <combo1>  (1) 
-7.184049539314336e-06

$$$$
