
     RDKit          3D

 39 41  0  0  0  0  0  0  0  0999 V2000
    7.3507   -2.0846   21.0597 C   0  0  0  0  0  0  0  0  0  0  0  0
    7.2683   -0.5620   21.1677 C   0  0  1  0  0  0  0  0  0  0  0  0
    8.6703    0.0469   21.2413 N   0  0  0  0  0  4  0  0  0  0  0  0
    9.4374   -0.3383   22.4468 C   0  0  0  0  0  0  0  0  0  0  0  0
    8.7504    0.2673   23.6423 C   0  0  0  0  0  0  0  0  0  0  0  0
    7.9102   -0.2125   24.6238 C   0  0  0  0  0  0  0  0  0  0  0  0
    7.4413    0.9274   25.3339 C   0  0  0  0  0  0  0  0  0  0  0  0
    6.4677    0.9680   26.4730 C   0  0  0  0  0  0  0  0  0  0  0  0
    5.8323   -0.2054   26.9266 C   0  0  0  0  0  0  0  0  0  0  0  0
    4.9457   -0.1422   28.0050 C   0  0  0  0  0  0  0  0  0  0  0  0
    4.6389    0.9881   28.6523 N   0  0  0  0  0  0  0  0  0  0  0  0
    5.2319    2.1107   28.2224 C   0  0  0  0  0  0  0  0  0  0  0  0
    6.1330    2.1596   27.1547 C   0  0  0  0  0  0  0  0  0  0  0  0
    6.5645    3.1154   26.8708 H   0  0  0  0  0  0  0  0  0  0  0  0
    4.9750    3.0188   28.7659 H   0  0  0  0  0  0  0  0  0  0  0  0
    4.4632   -1.0489   28.3664 H   0  0  0  0  0  0  0  0  0  0  0  0
    6.0130   -1.1716   26.4645 H   0  0  0  0  0  0  0  0  0  0  0  0
    7.9932    2.0321   24.8277 N   0  0  0  0  0  0  0  0  0  0  0  0
    8.7512    1.6132   23.8064 N   0  0  0  0  0  0  0  0  0  0  0  0
    9.3356    2.3050   23.3582 H   0  0  0  0  0  0  0  0  0  0  0  0
    7.6357   -1.2407   24.8003 H   0  0  0  0  0  0  0  0  0  0  0  0
   10.4795   -0.0072   22.3874 H   0  0  0  0  0  0  0  0  0  0  0  0
    9.4568   -1.4260   22.5774 H   0  0  0  0  0  0  0  0  0  0  0  0
    8.4925    1.0823   21.2655 H   0  0  0  0  0  0  0  0  0  0  0  0
    9.1553   -0.1901   20.3625 H   0  0  0  0  0  0  0  0  0  0  0  0
    6.6016    0.1504   20.0302 C   0  0  0  0  0  0  0  0  0  0  0  0
    5.3635    0.8065   20.1604 C   0  0  0  0  0  0  0  0  0  0  0  0
    4.7983    1.4016   19.0300 C   0  0  0  0  0  0  0  0  0  0  0  0
    5.4925    1.3296   17.8186 C   0  0  0  0  0  0  0  0  0  0  0  0
    6.6653    0.6972   17.6715 N   0  0  0  0  0  0  0  0  0  0  0  0
    7.1943    0.1327   18.7626 C   0  0  0  0  0  0  0  0  0  0  0  0
    8.1428   -0.3838   18.6061 H   0  0  0  0  0  0  0  0  0  0  0  0
    5.0870    1.7824   16.9164 H   0  0  0  0  0  0  0  0  0  0  0  0
    3.8492    1.9270   19.0671 H   0  0  0  0  0  0  0  0  0  0  0  0
    4.8522    0.8645   21.1266 H   0  0  0  0  0  0  0  0  0  0  0  0
    6.7493   -0.3034   22.0996 H   0  0  0  0  0  0  0  0  0  0  0  0
    6.4621   -2.4960   20.5826 H   0  0  0  0  0  0  0  0  0  0  0  0
    7.4645   -2.5262   22.0571 H   0  0  0  0  0  0  0  0  0  0  0  0
    8.2266   -2.3594   20.4696 H   0  0  0  0  0  0  0  0  0  0  0  0
  1  2  1  0
  2  3  1  0
  3  4  1  0
  4  5  1  0
  5  6  2  0
  6  7  1  0
  7  8  1  0
  8  9  2  0
  9 10  1  0
 10 11  2  0
 11 12  1  0
 12 13  2  0
 13 14  1  0
 12 15  1  0
 10 16  1  0
  9 17  1  0
  7 18  2  0
 18 19  1  0
 19 20  1  0
  6 21  1  0
  4 22  1  0
  4 23  1  0
  3 24  1  0
  3 25  1  0
  2 26  1  0
 26 27  2  0
 27 28  1  0
 28 29  2  0
 29 30  1  0
 30 31  2  0
 31 32  1  0
 29 33  1  0
 28 34  1  0
 27 35  1  0
  2 36  1  1
  1 37  1  0
  1 38  1  0
  1 39  1  0
 19  5  1  0
 31 26  1  0
 13  8  1  0
M  CHG  1   3   1
M  END
>  <cnnaffinity>  (1) 
4.84691

>  <plip>  (1) 
-0.06896551724137931

>  <filename>  (1) 
[H][c]1[n][c]([H])[c]([C@@]([H])([C]([H])([H])[H])[N+]([H])([H])[C]([H])([H])[c]2[c]([H])[c](-[c]3[c]([H])[c]([H])[n][c]([H])[c]3[H])[n][n]2[H])[c]([H])[c]1[H]

>  <combo1>  (1) 
-0.39743617339018267

$$$$
