
     RDKit          3D

 39 40  0  0  0  0  0  0  0  0999 V2000
    5.9783    3.1250   22.0328 O   0  0  0  0  0  0  0  0  0  0  0  0
    6.7461    4.0174   22.4795 C   0  0  0  0  0  0  0  0  0  0  0  0
    6.6991    5.2354   22.2993 O   0  0  0  0  0  1  0  0  0  0  0  0
    7.8336    3.4908   23.4548 C   0  0  0  0  0  0  0  0  0  0  0  0
    8.7485    2.4244   22.8522 C   0  0  0  0  0  0  0  0  0  0  0  0
    7.8885    1.4958   22.1476 N   0  0  0  0  0  0  0  0  0  0  0  0
    8.3647    0.3882   21.5330 C   0  0  0  0  0  0  0  0  0  0  0  0
    9.5500    0.0986   21.4983 O   0  0  0  0  0  0  0  0  0  0  0  0
    7.2811   -0.5227   20.9369 C   0  0  0  0  0  0  0  0  0  0  0  0
    6.5206    0.0704   19.7628 C   0  0  0  0  0  0  0  0  0  0  0  0
    5.3414    0.8047   19.9542 C   0  0  0  0  0  0  0  0  0  0  0  0
    4.7299    1.4064   18.8498 C   0  0  0  0  0  0  0  0  0  0  0  0
    5.3254    1.2655   17.5951 C   0  0  0  0  0  0  0  0  0  0  0  0
    6.4465    0.5578   17.3878 N   0  0  0  0  0  0  0  0  0  0  0  0
    7.0239   -0.0143   18.4501 C   0  0  0  0  0  0  0  0  0  0  0  0
    7.9516   -0.5587   18.2567 H   0  0  0  0  0  0  0  0  0  0  0  0
    4.8990    1.7552   16.7220 H   0  0  0  0  0  0  0  0  0  0  0  0
    3.8429    2.0194   18.9652 H   0  0  0  0  0  0  0  0  0  0  0  0
    4.9287    0.9478   20.9563 H   0  0  0  0  0  0  0  0  0  0  0  0
    6.5850   -0.7787   21.7456 H   0  0  0  0  0  0  0  0  0  0  0  0
    7.7909   -1.4504   20.6660 H   0  0  0  0  0  0  0  0  0  0  0  0
    6.9415    1.8712   21.9769 H   0  0  0  0  0  0  0  0  0  0  0  0
    9.5281    1.7002   23.9664 C   0  0  0  0  0  0  0  0  0  0  0  0
    8.8099    0.8620   24.8413 C   0  0  0  0  0  0  0  0  0  0  0  0
    9.4293    0.2335   25.9193 C   0  0  0  0  0  0  0  0  0  0  0  0
   10.7934    0.4106   26.1188 C   0  0  0  0  0  0  0  0  0  0  0  0
   11.5444    1.1484   25.2031 C   0  0  0  0  0  0  0  0  0  0  0  0
   10.9213    1.8201   24.1441 C   0  0  0  0  0  0  0  0  0  0  0  0
   11.7748    2.6793   23.2188 C   0  0  0  0  0  0  0  0  0  0  0  0
   11.6676    2.3098   21.9259 F   0  0  0  0  0  0  0  0  0  0  0  0
   13.0849    2.6366   23.5223 F   0  0  0  0  0  0  0  0  0  0  0  0
   11.4072    3.9770   23.2937 F   0  0  0  0  0  0  0  0  0  0  0  0
   12.6225    1.2204   25.3026 H   0  0  0  0  0  0  0  0  0  0  0  0
   11.2374   -0.0055   27.0094 H   0  0  0  0  0  0  0  0  0  0  0  0
    8.8653   -0.3940   26.6046 H   0  0  0  0  0  0  0  0  0  0  0  0
    7.7541    0.6812   24.6509 H   0  0  0  0  0  0  0  0  0  0  0  0
    9.4574    2.8922   22.1511 H   0  0  0  0  0  0  0  0  0  0  0  0
    7.2823    3.0476   24.2947 H   0  0  0  0  0  0  0  0  0  0  0  0
    8.4009    4.3409   23.8309 H   0  0  0  0  0  0  0  0  0  0  0  0
  1  2  2  0
  2  3  1  0
  2  4  1  0
  4  5  1  0
  5  6  1  0
  6  7  1  0
  7  8  2  0
  7  9  1  0
  9 10  1  0
 10 11  2  0
 11 12  1  0
 12 13  2  0
 13 14  1  0
 14 15  2  0
 15 16  1  0
 13 17  1  0
 12 18  1  0
 11 19  1  0
  9 20  1  0
  9 21  1  0
  6 22  1  0
  5 23  1  0
 23 24  2  0
 24 25  1  0
 25 26  2  0
 26 27  1  0
 27 28  2  0
 28 29  1  0
 29 30  1  0
 29 31  1  0
 29 32  1  0
 27 33  1  0
 26 34  1  0
 25 35  1  0
 24 36  1  0
  5 37  1  0
  4 38  1  0
  4 39  1  0
 15 10  1  0
 28 23  1  0
M  CHG  1   3  -1
M  END
>  <cnnaffinity>  (1) 
4.95344

>  <plip>  (1) 
-0.16129032258064516

>  <filename>  (1) 
[H][c]1[n][c]([H])[c]([C]([H])([H])[C](=[O])[N]([H])[C]([H])([c]2[c]([H])[c]([H])[c]([H])[c]([H])[c]2[C]([F])([F])[F])[C]([H])([H])[C](=[O])[O-])[c]([H])[c]1[H]

>  <combo1>  (1) 
-0.75807271905422

$$$$
