
     RDKit          3D

 33 35  0  0  0  0  0  0  0  0999 V2000
    4.9407    1.7494   16.8470 H   0  0  0  0  0  0  0  0  0  0  0  0
    5.3873    1.3268   17.7439 C   0  0  0  0  0  0  0  0  0  0  0  0
    6.5713    0.7204   17.5751 N   0  0  0  0  0  0  0  0  0  0  0  0
    7.1590    0.2090   18.6620 C   0  0  0  0  0  0  0  0  0  0  0  0
    8.1055   -0.3047   18.5038 H   0  0  0  0  0  0  0  0  0  0  0  0
    6.6184    0.2792   19.9561 C   0  0  0  0  0  0  0  0  0  0  0  0
    7.3519   -0.3985   21.0901 C   0  0  2  0  0  0  0  0  0  0  0  0
    7.1534    0.1274   22.0345 H   0  0  0  0  0  0  0  0  0  0  0  0
    8.7238   -0.2867   20.8659 F   0  0  0  0  0  0  0  0  0  0  0  0
    6.9436   -1.8738   21.1592 C   0  0  0  0  0  0  0  0  0  0  0  0
    5.8767   -1.8512   21.4223 H   0  0  0  0  0  0  0  0  0  0  0  0
    6.9999   -2.2641   20.1355 H   0  0  0  0  0  0  0  0  0  0  0  0
    7.6644   -2.8244   22.0942 C   0  0  0  0  0  0  0  0  0  0  0  0
    8.4732   -2.3869   23.1210 C   0  0  0  0  0  0  0  0  0  0  0  0
    8.6344   -1.3240   23.2642 H   0  0  0  0  0  0  0  0  0  0  0  0
    9.1089   -3.2924   24.0181 C   0  0  0  0  0  0  0  0  0  0  0  0
    9.6867   -2.8909   24.8480 H   0  0  0  0  0  0  0  0  0  0  0  0
    8.9555   -4.6471   23.8615 C   0  0  0  0  0  0  0  0  0  0  0  0
    9.4394   -5.3406   24.5484 H   0  0  0  0  0  0  0  0  0  0  0  0
    8.1084   -5.1551   22.8235 C   0  0  0  0  0  0  0  0  0  0  0  0
    7.8678   -6.5507   22.6808 C   0  0  0  0  0  0  0  0  0  0  0  0
    8.4567   -7.2326   23.2747 H   0  0  0  0  0  0  0  0  0  0  0  0
    6.8947   -7.0321   21.8409 C   0  0  0  0  0  0  0  0  0  0  0  0
    6.6546   -8.0928   21.8242 H   0  0  0  0  0  0  0  0  0  0  0  0
    6.1859   -6.1359   21.0052 C   0  0  0  0  0  0  0  0  0  0  0  0
    5.4235   -6.5125   20.3308 H   0  0  0  0  0  0  0  0  0  0  0  0
    6.4666   -4.7893   21.0355 C   0  0  0  0  0  0  0  0  0  0  0  0
    5.9229   -4.1193   20.3787 H   0  0  0  0  0  0  0  0  0  0  0  0
    7.4232   -4.2444   21.9542 C   0  0  0  0  0  0  0  0  0  0  0  0
    5.3624    0.8843   20.1073 C   0  0  0  0  0  0  0  0  0  0  0  0
    4.8724    0.9346   21.0818 H   0  0  0  0  0  0  0  0  0  0  0  0
    4.7369    1.4216   18.9780 C   0  0  0  0  0  0  0  0  0  0  0  0
    3.7733    1.9172   19.0388 H   0  0  0  0  0  0  0  0  0  0  0  0
  1  2  1  0
  2  3  2  0
  3  4  1  0
  4  5  1  0
  4  6  2  0
  6  7  1  0
  7  8  1  1
  7  9  1  0
  7 10  1  0
 10 11  1  0
 10 12  1  0
 10 13  1  0
 13 14  2  0
 14 15  1  0
 14 16  1  0
 16 17  1  0
 16 18  2  0
 18 19  1  0
 18 20  1  0
 20 21  2  0
 21 22  1  0
 21 23  1  0
 23 24  1  0
 23 25  2  0
 25 26  1  0
 25 27  1  0
 27 28  1  0
 27 29  2  0
  6 30  1  0
 30 31  1  0
 30 32  2  0
 32 33  1  0
 32  2  1  0
 29 13  1  0
 29 20  1  0
M  END
>  <cnnaffinity>  (1) 
4.94094

>  <plip>  (1) 
-0.06451612903225806

>  <filename>  (1) 
[H][c]1[n][c]([H])[c]([C@]([H])([F])[C]([H])([H])[c]2[c]([H])[c]([H])[c]([H])[c]3[c]([H])[c]([H])[c]([H])[c]([H])[c]23)[c]([H])[c]1[H]

>  <combo1>  (1) 
-0.4228216590008452

$$$$
