
     RDKit          3D

 25 26  0  0  0  0  0  0  0  0999 V2000
    3.1778   -5.6097   22.9122 H   0  0  0  0  0  0  0  0  0  0  0  0
    3.8310   -4.7523   22.9813 C   0  0  0  0  0  0  0  0  0  0  0  0
    4.2187   -4.2233   24.1755 N   0  0  0  0  0  0  0  0  0  0  0  0
    5.0006   -3.2316   23.8202 C   0  0  0  0  0  0  0  0  0  0  0  0
    5.5939   -2.5828   24.4454 H   0  0  0  0  0  0  0  0  0  0  0  0
    5.0510   -3.1805   22.4602 N   0  0  0  0  0  0  0  0  0  0  0  0
    5.5937   -2.2339   21.5953 O   0  0  0  0  0  0  0  0  0  0  0  0
    6.8648   -1.7608   21.8963 C   0  0  0  0  0  0  0  0  0  0  0  0
    7.4631   -2.1155   22.8830 O   0  0  0  0  0  0  0  0  0  0  0  0
    7.3532   -0.8654   20.9597 N   0  0  0  0  0  0  0  0  0  0  0  0
    6.5922   -0.2240   19.9226 C   0  0  0  0  0  0  0  0  0  0  0  0
    7.1267   -0.1213   18.6187 C   0  0  0  0  0  0  0  0  0  0  0  0
    8.0642   -0.6306   18.3951 H   0  0  0  0  0  0  0  0  0  0  0  0
    6.5700    0.5797   17.6259 N   0  0  0  0  0  0  0  0  0  0  0  0
    5.4390    1.2491   17.9040 C   0  0  0  0  0  0  0  0  0  0  0  0
    5.0284    1.8466   17.0942 H   0  0  0  0  0  0  0  0  0  0  0  0
    4.8067    1.1996   19.1499 C   0  0  0  0  0  0  0  0  0  0  0  0
    3.9010    1.7796   19.3090 H   0  0  0  0  0  0  0  0  0  0  0  0
    5.3717    0.4260   20.1737 C   0  0  0  0  0  0  0  0  0  0  0  0
    4.8907    0.3479   21.1450 H   0  0  0  0  0  0  0  0  0  0  0  0
    8.7695   -0.4673   21.1065 C   0  0  0  0  0  0  0  0  0  0  0  0
    9.4503   -1.2063   20.6605 H   0  0  0  0  0  0  0  0  0  0  0  0
    9.0231   -0.3668   22.1653 H   0  0  0  0  0  0  0  0  0  0  0  0
    8.9203    0.5001   20.6181 H   0  0  0  0  0  0  0  0  0  0  0  0
    4.3109   -4.1354   21.9130 N   0  0  0  0  0  0  0  0  0  0  0  0
  1  2  1  0
  2  3  1  0
  3  4  2  0
  4  5  1  0
  4  6  1  0
  6  7  1  0
  7  8  1  0
  8  9  2  0
  8 10  1  0
 10 11  1  0
 11 12  2  0
 12 13  1  0
 12 14  1  0
 14 15  2  0
 15 16  1  0
 15 17  1  0
 17 18  1  0
 17 19  2  0
 19 20  1  0
 10 21  1  0
 21 22  1  0
 21 23  1  0
 21 24  1  0
  6 25  1  0
 25  2  2  0
 19 11  1  0
M  END
>  <cnnaffinity>  (1) 
4.44379

>  <plip>  (1) 
-0.07142857142857142

>  <filename>  (1) 
[H][c]1[n][c]([H])[n]([O][C](=[O])[N]([c]2[c]([H])[n][c]([H])[c]([H])[c]2[H])[C]([H])([H])[H])[n]1

>  <combo1>  (1) 
-0.4826760634364509

$$$$
