
     RDKit          3D

 33 35  0  0  0  0  0  0  0  0999 V2000
    7.6295   -2.0640   20.8958 C   0  0  0  0  0  0  0  0  0  0  0  0
    7.2742   -0.6003   21.1545 C   0  0  0  0  0  0  0  0  0  0  0  0
    8.4923    0.1383   21.3786 N   0  0  0  0  0  0  0  0  0  0  0  0
    9.1866    0.1941   22.5420 C   0  0  0  0  0  0  0  0  0  0  0  0
    8.8211   -0.5614   23.6494 C   0  0  0  0  0  0  0  0  0  0  0  0
    9.4501   -0.3135   24.8828 C   0  0  0  0  0  0  0  0  0  0  0  0
   10.3971    0.5828   25.0653 N   0  0  0  0  0  0  0  0  0  0  0  0
   10.8011    1.2922   23.9670 C   0  0  0  0  0  0  0  0  0  0  0  0
   11.7777    2.3132   24.1553 C   0  0  0  0  0  0  0  0  0  0  0  0
   12.2032    3.0537   23.0752 C   0  0  0  0  0  0  0  0  0  0  0  0
   11.6732    2.7776   21.7815 C   0  0  0  0  0  0  0  0  0  0  0  0
   10.7611    1.8489   21.5558 N   0  0  0  0  0  0  0  0  0  0  0  0
   10.2996    1.1299   22.6436 C   0  0  0  0  0  0  0  0  0  0  0  0
   11.9993    3.3650   20.9242 H   0  0  0  0  0  0  0  0  0  0  0  0
   12.9289    3.8469   23.1908 H   0  0  0  0  0  0  0  0  0  0  0  0
   12.1162    2.4444   25.1744 H   0  0  0  0  0  0  0  0  0  0  0  0
    9.1365   -0.8671   25.7711 H   0  0  0  0  0  0  0  0  0  0  0  0
    8.0435   -1.3116   23.5848 H   0  0  0  0  0  0  0  0  0  0  0  0
    8.9062    0.6620   20.6191 H   0  0  0  0  0  0  0  0  0  0  0  0
    6.5553    0.0710   20.0181 C   0  0  0  0  0  0  0  0  0  0  0  0
    5.3369    0.7429   20.1670 C   0  0  0  0  0  0  0  0  0  0  0  0
    4.7746    1.3564   19.0467 C   0  0  0  0  0  0  0  0  0  0  0  0
    5.4600    1.2953   17.8265 C   0  0  0  0  0  0  0  0  0  0  0  0
    6.6332    0.6602   17.6732 N   0  0  0  0  0  0  0  0  0  0  0  0
    7.1582    0.0782   18.7573 C   0  0  0  0  0  0  0  0  0  0  0  0
    8.1140   -0.4307   18.6133 H   0  0  0  0  0  0  0  0  0  0  0  0
    5.0520    1.7687   16.9353 H   0  0  0  0  0  0  0  0  0  0  0  0
    3.8259    1.8776   19.1049 H   0  0  0  0  0  0  0  0  0  0  0  0
    4.8483    0.8009   21.1446 H   0  0  0  0  0  0  0  0  0  0  0  0
    6.6447   -0.5252   22.0575 H   0  0  0  0  0  0  0  0  0  0  0  0
    7.8994   -2.5564   21.8321 H   0  0  0  0  0  0  0  0  0  0  0  0
    6.7977   -2.6037   20.4400 H   0  0  0  0  0  0  0  0  0  0  0  0
    8.5153   -2.1043   20.2574 H   0  0  0  0  0  0  0  0  0  0  0  0
  1  2  1  0
  2  3  1  0
  3  4  1  0
  4  5  2  0
  5  6  1  0
  6  7  2  0
  7  8  1  0
  8  9  2  0
  9 10  1  0
 10 11  2  0
 11 12  1  0
 12 13  2  0
 11 14  1  0
 10 15  1  0
  9 16  1  0
  6 17  1  0
  5 18  1  0
  3 19  1  0
  2 20  1  0
 20 21  2  0
 21 22  1  0
 22 23  2  0
 23 24  1  0
 24 25  2  0
 25 26  1  0
 23 27  1  0
 22 28  1  0
 21 29  1  0
  2 30  1  0
  1 31  1  0
  1 32  1  0
  1 33  1  0
 13  4  1  0
 25 20  1  0
 13  8  1  0
M  END
>  <cnnaffinity>  (1) 
5.17521

>  <plip>  (1) 
-0.10714285714285714

>  <filename>  (1) 
[H][c]1[n][c]([H])[c]([C]([H])([N]([H])[c]2[c]([H])[c]([H])[n][c]3[c]([H])[c]([H])[c]([H])[n][c]23)[C]([H])([H])[H])[c]([H])[c]1[H]

>  <combo1>  (1) 
-0.7384148481709455

$$$$
