
     RDKit          3D

 23 24  0  0  0  0  0  0  0  0999 V2000
    5.3796    1.8357   16.9458 H   0  0  0  0  0  0  0  0  0  0  0  0
    5.6525    1.2612   17.8292 C   0  0  0  0  0  0  0  0  0  0  0  0
    6.7472    0.4917   17.7311 N   0  0  0  0  0  0  0  0  0  0  0  0
    7.1252   -0.2130   18.8121 C   0  0  0  0  0  0  0  0  0  0  0  0
    7.9932   -0.8578   18.6743 H   0  0  0  0  0  0  0  0  0  0  0  0
    6.4484   -0.1744   20.0638 C   0  0  0  0  0  0  0  0  0  0  0  0
    6.8529   -0.8417   21.2384 N   0  0  0  0  0  0  0  0  0  0  0  0
    6.2973   -0.6198   22.0563 H   0  0  0  0  0  0  0  0  0  0  0  0
    8.3938   -1.4402   21.5793 S   0  0  0  0  0  0  0  0  0  0  0  0
    9.3153    0.0256   22.0251 C   0  0  0  0  0  0  0  0  0  0  0  0
    9.5736    0.3238   23.3722 C   0  0  0  0  0  0  0  0  0  0  0  0
    9.0673   -0.2302   24.1650 H   0  0  0  0  0  0  0  0  0  0  0  0
   10.4227    1.2934   23.7443 N   0  0  0  0  0  0  0  0  0  0  0  0
   11.0500    2.0072   22.7920 C   0  0  0  0  0  0  0  0  0  0  0  0
   11.7621    2.7674   23.1118 H   0  0  0  0  0  0  0  0  0  0  0  0
   10.7980    1.8034   21.4311 C   0  0  0  0  0  0  0  0  0  0  0  0
   11.4238    2.5309   20.4968 F   0  0  0  0  0  0  0  0  0  0  0  0
    9.9028    0.8208   21.0333 C   0  0  0  0  0  0  0  0  0  0  0  0
    9.6774    0.6941   19.9813 H   0  0  0  0  0  0  0  0  0  0  0  0
    5.2697    0.5856   20.1118 C   0  0  0  0  0  0  0  0  0  0  0  0
    4.6854    0.5956   21.0329 H   0  0  0  0  0  0  0  0  0  0  0  0
    4.8780    1.3248   18.9939 C   0  0  0  0  0  0  0  0  0  0  0  0
    4.0050    1.9687   19.0120 H   0  0  0  0  0  0  0  0  0  0  0  0
  1  2  1  0
  2  3  2  0
  3  4  1  0
  4  5  1  0
  4  6  2  0
  6  7  1  0
  7  8  1  0
  7  9  1  0
  9 10  1  0
 10 11  2  0
 11 12  1  0
 11 13  1  0
 13 14  2  0
 14 15  1  0
 14 16  1  0
 16 17  1  0
 16 18  2  0
 18 19  1  0
  6 20  1  0
 20 21  1  0
 20 22  2  0
 22 23  1  0
 22  2  1  0
 18 10  1  0
M  END
>  <cnnaffinity>  (1) 
4.87724

>  <plip>  (1) 
-0.07142857142857142

>  <filename>  (1) 
[H][c]1[n][c]([H])[c]([N]([H])[S][c]2[c]([H])[n][c]([H])[c]([F])[c]2[H])[c]([H])[c]1[H]

>  <combo1>  (1) 
-0.5248339596165682

$$$$
