
     RDKit          3D

 37 40  0  0  0  0  0  0  0  0999 V2000
    5.0078    1.7592   17.0793 H   0  0  0  0  0  0  0  0  0  0  0  0
    5.4720    1.2678   17.9293 C   0  0  0  0  0  0  0  0  0  0  0  0
    6.6296    0.6339   17.6777 N   0  0  0  0  0  0  0  0  0  0  0  0
    7.2212    0.0176   18.7079 C   0  0  0  0  0  0  0  0  0  0  0  0
    8.1638   -0.4839   18.5087 H   0  0  0  0  0  0  0  0  0  0  0  0
    6.6984   -0.0117   20.0219 C   0  0  0  0  0  0  0  0  0  0  0  0
    7.3756   -0.6718   21.0841 N   0  0  0  0  0  0  0  0  0  0  0  0
    7.5913   -2.0388   21.1597 C   0  0  0  0  0  0  0  0  0  0  0  0
    6.9426   -2.9344   20.6665 O   0  0  0  0  0  0  0  0  0  0  0  0
    8.7188   -2.1958   21.9171 N   0  0  0  0  0  0  0  0  0  0  0  0
    8.9428   -3.1511   22.1296 H   0  0  0  0  0  0  0  0  0  0  0  0
    9.1080   -1.0107   22.6568 C   0  0  0  0  0  0  0  0  0  0  0  0
    9.0247   -1.1361   23.7461 H   0  0  0  0  0  0  0  0  0  0  0  0
   10.1486   -0.7339   22.4471 H   0  0  0  0  0  0  0  0  0  0  0  0
    8.1113    0.0534   22.1205 C   0  0  2  0  0  0  0  0  0  0  0  0
    8.6799    0.8629   21.6425 H   0  0  0  0  0  0  0  0  0  0  0  0
    7.1910    0.6914   23.1578 C   0  0  0  0  0  0  0  0  0  0  0  0
    7.1930    2.0687   23.2591 C   0  0  0  0  0  0  0  0  0  0  0  0
    7.9038    2.6386   22.6647 H   0  0  0  0  0  0  0  0  0  0  0  0
    6.3009    2.7631   24.1118 C   0  0  0  0  0  0  0  0  0  0  0  0
    6.3678    3.8477   24.1693 H   0  0  0  0  0  0  0  0  0  0  0  0
    5.3632    2.0662   24.8393 C   0  0  0  0  0  0  0  0  0  0  0  0
    4.6832    2.5843   25.5088 H   0  0  0  0  0  0  0  0  0  0  0  0
    5.3295    0.6372   24.7952 C   0  0  0  0  0  0  0  0  0  0  0  0
    4.3838   -0.1149   25.5688 C   0  0  0  0  0  0  0  0  0  0  0  0
    3.6207    0.4248   26.1240 H   0  0  0  0  0  0  0  0  0  0  0  0
    4.4402   -1.4864   25.6249 C   0  0  0  0  0  0  0  0  0  0  0  0
    3.7266   -2.0471   26.2252 H   0  0  0  0  0  0  0  0  0  0  0  0
    5.4483   -2.1895   24.9175 C   0  0  0  0  0  0  0  0  0  0  0  0
    5.5088   -3.2718   24.9998 H   0  0  0  0  0  0  0  0  0  0  0  0
    6.3465   -1.4978   24.1324 C   0  0  0  0  0  0  0  0  0  0  0  0
    7.0839   -2.0479   23.5649 H   0  0  0  0  0  0  0  0  0  0  0  0
    6.3014   -0.0681   24.0032 C   0  0  0  0  0  0  0  0  0  0  0  0
    5.5062    0.6729   20.2688 C   0  0  0  0  0  0  0  0  0  0  0  0
    5.1193    0.6754   21.2907 H   0  0  0  0  0  0  0  0  0  0  0  0
    4.8762    1.3141   19.1955 C   0  0  0  0  0  0  0  0  0  0  0  0
    3.9563    1.8721   19.3367 H   0  0  0  0  0  0  0  0  0  0  0  0
  1  2  1  0
  2  3  2  0
  3  4  1  0
  4  5  1  0
  4  6  2  0
  6  7  1  0
  7  8  1  0
  8  9  2  0
  8 10  1  0
 10 11  1  0
 10 12  1  0
 12 13  1  0
 12 14  1  0
 12 15  1  0
 15 16  1  6
 15 17  1  0
 17 18  2  0
 18 19  1  0
 18 20  1  0
 20 21  1  0
 20 22  2  0
 22 23  1  0
 22 24  1  0
 24 25  2  0
 25 26  1  0
 25 27  1  0
 27 28  1  0
 27 29  2  0
 29 30  1  0
 29 31  1  0
 31 32  1  0
 31 33  2  0
  6 34  1  0
 34 35  1  0
 34 36  2  0
 36 37  1  0
 36  2  1  0
 15  7  1  0
 33 17  1  0
 33 24  1  0
M  END
>  <cnnaffinity>  (1) 
4.89372

>  <plip>  (1) 
-0.034482758620689655

>  <filename>  (1) 
[H][c]1[n][c]([H])[c]([N]2[C](=[O])[N]([H])[C]([H])([H])[C@]2([H])[c]2[c]([H])[c]([H])[c]([H])[c]3[c]([H])[c]([H])[c]([H])[c]([H])[c]23)[c]([H])[c]1[H]

>  <combo1>  (1) 
-0.1944081149811424

$$$$
