
     RDKit          3D

 43 44  0  0  0  0  0  0  0  0999 V2000
    4.9848    1.7593   16.9111 H   0  0  0  0  0  0  0  0  0  0  0  0
    5.4433    1.2710   17.7701 C   0  0  0  0  0  0  0  0  0  0  0  0
    6.6083    0.6560   17.5487 N   0  0  0  0  0  0  0  0  0  0  0  0
    7.1893    0.0570   18.6018 C   0  0  0  0  0  0  0  0  0  0  0  0
    8.1446   -0.4193   18.3930 H   0  0  0  0  0  0  0  0  0  0  0  0
    6.6603    0.0075   19.8936 C   0  0  0  0  0  0  0  0  0  0  0  0
    7.3721   -0.7810   21.0063 C   0  0  0  0  0  0  0  0  0  0  0  0
    7.3229   -0.0288   22.2624 N   0  0  0  0  0  0  0  0  0  0  0  0
    6.7207   -0.3614   23.0032 H   0  0  0  0  0  0  0  0  0  0  0  0
    7.8214    1.2289   22.3432 C   0  0  0  0  0  0  0  0  0  0  0  0
    8.4937    1.6936   21.4306 O   0  0  0  0  0  0  0  0  0  0  0  0
    7.4316    2.0453   23.6734 C   0  0  0  0  0  0  0  0  0  0  0  0
    6.5784    1.6306   24.4500 O   0  0  0  0  0  0  0  0  0  0  0  0
    8.0806    3.2303   23.8758 N   0  0  0  0  0  0  0  0  0  0  0  0
    9.3427    3.6480   23.2331 C   0  0  0  0  0  0  0  0  0  0  0  0
    9.1331    4.4772   22.5536 H   0  0  0  0  0  0  0  0  0  0  0  0
    9.7651    2.8379   22.6464 H   0  0  0  0  0  0  0  0  0  0  0  0
   10.3283    4.1285   24.2882 C   0  0  0  0  0  0  0  0  0  0  0  0
   11.2604    4.4293   23.7955 H   0  0  0  0  0  0  0  0  0  0  0  0
   10.5738    3.2594   24.9211 H   0  0  0  0  0  0  0  0  0  0  0  0
    9.7408    5.2615   25.0098 N   0  0  0  0  0  0  0  0  0  0  0  0
   10.6358    6.0065   25.8731 C   0  0  0  0  0  0  0  0  0  0  0  0
   10.8630    5.4919   26.8257 H   0  0  0  0  0  0  0  0  0  0  0  0
   11.5792    6.2258   25.3575 H   0  0  0  0  0  0  0  0  0  0  0  0
   10.1622    6.9673   26.1153 H   0  0  0  0  0  0  0  0  0  0  0  0
    8.5136    4.8562   25.7055 C   0  0  0  0  0  0  0  0  0  0  0  0
    8.7172    4.1211   26.5170 H   0  0  0  0  0  0  0  0  0  0  0  0
    8.0692    5.7486   26.1681 H   0  0  0  0  0  0  0  0  0  0  0  0
    7.4843    4.2804   24.7247 C   0  0  0  0  0  0  0  0  0  0  0  0
    7.1223    5.0901   24.0728 H   0  0  0  0  0  0  0  0  0  0  0  0
    6.6327    3.8578   25.2690 H   0  0  0  0  0  0  0  0  0  0  0  0
    8.8635   -1.0442   20.7110 C   0  0  0  0  0  0  0  0  0  0  0  0
    9.3825   -0.1032   20.5258 H   0  0  0  0  0  0  0  0  0  0  0  0
    9.0075   -1.7075   19.8573 H   0  0  0  0  0  0  0  0  0  0  0  0
    9.3213   -1.5061   21.5901 H   0  0  0  0  0  0  0  0  0  0  0  0
    6.6239   -2.0870   21.2756 C   0  0  0  0  0  0  0  0  0  0  0  0
    5.5829   -1.8776   21.5488 H   0  0  0  0  0  0  0  0  0  0  0  0
    6.6146   -2.7330   20.3932 H   0  0  0  0  0  0  0  0  0  0  0  0
    7.1016   -2.6274   22.1011 H   0  0  0  0  0  0  0  0  0  0  0  0
    5.4390    0.6763   20.1028 C   0  0  0  0  0  0  0  0  0  0  0  0
    4.9854    0.7250   21.0969 H   0  0  0  0  0  0  0  0  0  0  0  0
    4.8167    1.3075   19.0225 C   0  0  0  0  0  0  0  0  0  0  0  0
    3.8752    1.8315   19.1353 H   0  0  0  0  0  0  0  0  0  0  0  0
  1  2  1  0
  2  3  2  0
  3  4  1  0
  4  5  1  0
  4  6  2  0
  6  7  1  0
  7  8  1  0
  8  9  1  0
  8 10  1  0
 10 11  2  0
 10 12  1  0
 12 13  2  0
 12 14  1  0
 14 15  1  0
 15 16  1  0
 15 17  1  0
 15 18  1  0
 18 19  1  0
 18 20  1  0
 18 21  1  0
 21 22  1  0
 22 23  1  0
 22 24  1  0
 22 25  1  0
 21 26  1  0
 26 27  1  0
 26 28  1  0
 26 29  1  0
 29 30  1  0
 29 31  1  0
  7 32  1  0
 32 33  1  0
 32 34  1  0
 32 35  1  0
  7 36  1  0
 36 37  1  0
 36 38  1  0
 36 39  1  0
  6 40  1  0
 40 41  1  0
 40 42  2  0
 42 43  1  0
 42  2  1  0
 29 14  1  0
M  END
>  <cnnaffinity>  (1) 
4.53403

>  <plip>  (1) 
-0.10714285714285714

>  <filename>  (1) 
[H][c]1[n][c]([H])[c]([C]([N]([H])[C](=[O])[C](=[O])[N]2[C]([H])([H])[C]([H])([H])[N]([C]([H])([H])[H])[C]([H])([H])[C]2([H])[H])([C]([H])([H])[H])[C]([H])([H])[H])[c]([H])[c]1[H]

>  <combo1>  (1) 
-0.5576723348629246

$$$$
