
     RDKit          3D

 45 48  0  0  0  0  0  0  0  0999 V2000
    4.5600    1.4830   18.8040 C   0  0  0  0  0  0  0  0  0  0  0  0
    5.4007    1.4261   17.6853 C   0  0  0  0  0  0  0  0  0  0  0  0
    6.5606    0.7535   17.6705 N   0  0  0  0  0  0  0  0  0  0  0  0
    6.9202    0.1308   18.7984 C   0  0  0  0  0  0  0  0  0  0  0  0
    6.1619    0.1159   19.9818 C   0  0  0  0  0  0  0  0  0  0  0  0
    6.7453   -0.5719   21.2072 C   0  0  0  0  0  0  0  0  0  0  0  0
    6.7978   -2.1019   21.0490 C   0  0  0  0  0  0  0  0  0  0  0  0
    7.1268   -2.9274   22.3121 C   0  0  0  0  0  0  0  0  0  0  0  0
    8.5309   -2.7585   22.9291 C   0  0  0  0  0  0  0  0  0  0  0  0
    8.6832   -4.0445   23.7451 C   0  0  0  0  0  0  0  0  0  0  0  0
    8.0279   -5.0497   22.9838 O   0  0  0  0  0  0  0  0  0  0  0  0
    7.0921   -4.4611   22.0880 C   0  0  0  0  0  0  0  0  0  0  0  0
    6.1005   -4.9016   22.2652 H   0  0  0  0  0  0  0  0  0  0  0  0
    7.3795   -4.7259   21.0579 H   0  0  0  0  0  0  0  0  0  0  0  0
    9.7248   -4.3533   23.9046 H   0  0  0  0  0  0  0  0  0  0  0  0
    8.2118   -3.9522   24.7381 H   0  0  0  0  0  0  0  0  0  0  0  0
    8.6486   -1.8620   23.5510 H   0  0  0  0  0  0  0  0  0  0  0  0
    9.3021   -2.7417   22.1433 H   0  0  0  0  0  0  0  0  0  0  0  0
    6.3867   -2.6811   23.0910 H   0  0  0  0  0  0  0  0  0  0  0  0
    7.5359   -2.3065   20.2668 H   0  0  0  0  0  0  0  0  0  0  0  0
    5.8344   -2.4356   20.6410 H   0  0  0  0  0  0  0  0  0  0  0  0
    8.0805   -0.0480   21.4021 N   0  0  0  0  0  0  0  0  0  0  0  0
    8.3921    1.1939   21.8592 C   0  0  0  0  0  0  0  0  0  0  0  0
    7.5011    2.2747   22.1787 C   0  0  0  0  0  0  0  0  0  0  0  0
    7.9602    3.4551   22.6324 N   0  0  0  0  0  0  0  0  0  0  0  0
    9.2985    3.5699   22.7614 C   0  0  0  0  0  0  0  0  0  0  0  0
   10.1735    2.5040   22.4375 C   0  0  0  0  0  0  0  0  0  0  0  0
   11.6372    2.6149   22.5694 C   0  0  0  0  0  0  0  0  0  0  0  0
   12.5050    1.6137   22.9027 C   0  0  0  0  0  0  0  0  0  0  0  0
   13.8555    2.0524   22.9595 C   0  0  0  0  0  0  0  0  0  0  0  0
   13.9852    3.3700   22.6310 C   0  0  0  0  0  0  0  0  0  0  0  0
   12.4719    4.1083   22.3096 S   0  0  0  0  0  0  0  0  0  0  0  0
   14.8905    3.9504   22.5102 H   0  0  0  0  0  0  0  0  0  0  0  0
   14.6976    1.4046   23.1920 H   0  0  0  0  0  0  0  0  0  0  0  0
   12.1617    0.5928   23.0569 H   0  0  0  0  0  0  0  0  0  0  0  0
    9.7191    1.3121   22.0120 N   0  0  0  0  0  0  0  0  0  0  0  0
    9.6980    4.5140   23.1278 H   0  0  0  0  0  0  0  0  0  0  0  0
    6.4210    2.1613   22.0817 H   0  0  0  0  0  0  0  0  0  0  0  0
    8.8934   -0.6268   21.5550 H   0  0  0  0  0  0  0  0  0  0  0  0
    6.1127   -0.3194   22.0787 H   0  0  0  0  0  0  0  0  0  0  0  0
    4.9418    0.8030   19.9679 C   0  0  0  0  0  0  0  0  0  0  0  0
    4.2948    0.8059   20.8489 H   0  0  0  0  0  0  0  0  0  0  0  0
    7.8726   -0.3959   18.7529 H   0  0  0  0  0  0  0  0  0  0  0  0
    5.1331    1.9275   16.7578 H   0  0  0  0  0  0  0  0  0  0  0  0
    3.6467    2.0656   18.7507 H   0  0  0  0  0  0  0  0  0  0  0  0
  1  2  2  0
  2  3  1  0
  3  4  2  0
  4  5  1  0
  5  6  1  0
  6  7  1  0
  7  8  1  0
  8  9  1  0
  9 10  1  0
 10 11  1  0
 11 12  1  0
 12 13  1  0
 12 14  1  0
 10 15  1  0
 10 16  1  0
  9 17  1  0
  9 18  1  0
  8 19  1  0
  7 20  1  0
  7 21  1  0
  6 22  1  0
 22 23  1  0
 23 24  2  0
 24 25  1  0
 25 26  2  0
 26 27  1  0
 27 28  1  0
 28 29  2  0
 29 30  1  0
 30 31  2  0
 31 32  1  0
 31 33  1  0
 30 34  1  0
 29 35  1  0
 27 36  2  0
 26 37  1  0
 24 38  1  0
 22 39  1  0
  6 40  1  0
  5 41  2  0
 41 42  1  0
  4 43  1  0
  2 44  1  0
  1 45  1  0
 41  1  1  0
 12  8  1  0
 36 23  1  0
 32 28  1  0
M  END
>  <cnnaffinity>  (1) 
6.4242

>  <plip>  (1) 
-0.034482758620689655

>  <filename>  (1) 
[H][c]1[n][c]([H])[c]([N]([H])[C]([H])([c]2[c]([H])[n][c]([H])[c]([H])[c]2[H])[C]([H])([H])[C]2([H])[C]([H])([H])[O][C]([H])([H])[C]2([H])[H])[n][c]1-[c]1[s][c]([H])[c]([H])[c]1[H]

>  <combo1>  (1) 
-0.20950108042644147

$$$$
