
     RDKit          3D

 27 29  0  0  0  0  0  0  0  0999 V2000
    4.9298    1.8070   16.9689 H   0  0  0  0  0  0  0  0  0  0  0  0
    5.3872    1.2938   17.8129 C   0  0  0  0  0  0  0  0  0  0  0  0
    6.5497    0.6686   17.5635 N   0  0  0  0  0  0  0  0  0  0  0  0
    7.1472    0.0522   18.5932 C   0  0  0  0  0  0  0  0  0  0  0  0
    8.1010   -0.4280   18.3652 H   0  0  0  0  0  0  0  0  0  0  0  0
    6.6348    0.0263   19.8999 C   0  0  0  0  0  0  0  0  0  0  0  0
    7.3469   -0.6805   20.9978 C   0  0  0  0  0  0  0  0  0  0  0  0
    7.5438   -2.0514   20.8493 C   0  0  0  0  0  0  0  0  0  0  0  0
    7.1242   -2.5274   19.9771 H   0  0  0  0  0  0  0  0  0  0  0  0
    8.1672   -2.7660   21.8645 C   0  0  0  0  0  0  0  0  0  0  0  0
    8.3711   -3.8346   21.7628 H   0  0  0  0  0  0  0  0  0  0  0  0
    8.5294   -2.2041   23.0256 N   0  0  0  0  0  0  0  0  0  0  0  0
    8.3020   -0.9020   23.1989 C   0  0  0  0  0  0  0  0  0  0  0  0
    8.5950   -0.4989   24.1703 H   0  0  0  0  0  0  0  0  0  0  0  0
    7.7536   -0.0689   22.2040 C   0  0  0  0  0  0  0  0  0  0  0  0
    7.6675    1.3788   22.3801 C   0  0  0  0  0  0  0  0  0  0  0  0
    7.3721    1.8723   23.6058 O   0  0  0  0  0  0  0  0  0  0  0  0
    7.3287    3.2239   23.4914 C   0  0  0  0  0  0  0  0  0  0  0  0
    7.0815    3.7382   24.4063 H   0  0  0  0  0  0  0  0  0  0  0  0
    7.6165    3.6151   22.2216 C   0  0  0  0  0  0  0  0  0  0  0  0
    7.6476    4.6312   21.8483 H   0  0  0  0  0  0  0  0  0  0  0  0
    7.8471    2.4034   21.4992 C   0  0  0  0  0  0  0  0  0  0  0  0
    8.0613    2.2334   20.4550 H   0  0  0  0  0  0  0  0  0  0  0  0
    5.4067    0.6575   20.1334 C   0  0  0  0  0  0  0  0  0  0  0  0
    4.9905    0.6441   21.1434 H   0  0  0  0  0  0  0  0  0  0  0  0
    4.7788    1.3104   19.0734 C   0  0  0  0  0  0  0  0  0  0  0  0
    3.8514    1.8502   19.2149 H   0  0  0  0  0  0  0  0  0  0  0  0
  1  2  1  0
  2  3  2  0
  3  4  1  0
  4  5  1  0
  4  6  2  0
  6  7  1  0
  7  8  2  0
  8  9  1  0
  8 10  1  0
 10 11  1  0
 10 12  2  0
 12 13  1  0
 13 14  1  0
 13 15  2  0
 15 16  1  0
 16 17  1  0
 17 18  1  0
 18 19  1  0
 18 20  2  0
 20 21  1  0
 20 22  1  0
 22 23  1  0
  6 24  1  0
 24 25  1  0
 24 26  2  0
 26 27  1  0
 26  2  1  0
 15  7  1  0
 22 16  2  0
M  END
>  <cnnaffinity>  (1) 
4.54121

>  <plip>  (1) 
-0.03571428571428571

>  <filename>  (1) 
[H][c]1[n][c]([H])[c](-[c]2[c]([H])[c]([H])[n][c]([H])[c]2-[c]2[o][c]([H])[c]([H])[c]2[H])[c]([H])[c]1[H]

>  <combo1>  (1) 
-0.2432519845465802

$$$$
