
     RDKit          3D

 20 20  0  0  0  0  0  0  0  0999 V2000
    7.4069    4.0144   21.1319 H   0  0  0  0  0  0  0  0  0  0  0  0
    8.2463    3.6793   21.6140 N   0  0  0  0  0  0  0  0  0  0  0  0
    8.5700    2.4544   21.4981 N   0  0  0  0  0  4  0  0  0  0  0  0
    8.8866    1.2224   21.4479 N   0  0  0  0  0  0  0  0  0  0  0  0
    7.9187    0.2764   22.0528 C   0  0  0  0  0  0  0  0  0  0  0  0
    7.0546    0.7906   22.4972 H   0  0  0  0  0  0  0  0  0  0  0  0
    8.4069   -0.2796   22.8601 H   0  0  0  0  0  0  0  0  0  0  0  0
    7.4264   -0.7081   20.9911 C   0  0  1  0  0  0  0  0  0  0  0  0
    8.3024   -1.2047   20.5542 H   0  0  0  0  0  0  0  0  0  0  0  0
    6.2491   -2.0917   21.8142 Br  0  0  0  0  0  0  0  0  0  0  0  0
    6.6672    0.0179   19.9002 C   0  0  0  0  0  0  0  0  0  0  0  0
    7.1786    0.0583   18.5877 C   0  0  0  0  0  0  0  0  0  0  0  0
    8.1252   -0.4358   18.3986 H   0  0  0  0  0  0  0  0  0  0  0  0
    6.5662    0.6761   17.5631 N   0  0  0  0  0  0  0  0  0  0  0  0
    5.4020    1.2964   17.8225 C   0  0  0  0  0  0  0  0  0  0  0  0
    4.8825    1.8053   17.0125 H   0  0  0  0  0  0  0  0  0  0  0  0
    4.8238    1.3040   19.1027 C   0  0  0  0  0  0  0  0  0  0  0  0
    3.8843    1.8263   19.2558 H   0  0  0  0  0  0  0  0  0  0  0  0
    5.4512    0.6509   20.1674 C   0  0  0  0  0  0  0  0  0  0  0  0
    5.0061    0.6350   21.1669 H   0  0  0  0  0  0  0  0  0  0  0  0
  1  2  1  0
  2  3  2  0
  3  4  2  0
  4  5  1  0
  5  6  1  0
  5  7  1  0
  5  8  1  0
  8  9  1  6
  8 10  1  0
  8 11  1  0
 11 12  2  0
 12 13  1  0
 12 14  1  0
 14 15  2  0
 15 16  1  0
 15 17  1  0
 17 18  1  0
 17 19  2  0
 19 20  1  0
 19 11  1  0
M  CHG  1   3   1
M  END
>  <cnnaffinity>  (1) 
3.64787

>  <plip>  (1) 
-0.07142857142857142

>  <filename>  (1) 
[H][N]=[N+]=[N][C]([H])([H])[C@@]([H])([Br])[c]1[c]([H])[n][c]([H])[c]([H])[c]1[H]

>  <combo1>  (1) 
-0.38081687713603807

$$$$
