
     RDKit          3D

 42 44  0  0  0  0  0  0  0  0999 V2000
    4.9125    1.7815   16.9971 H   0  0  0  0  0  0  0  0  0  0  0  0
    5.3997    1.2945   17.8403 C   0  0  0  0  0  0  0  0  0  0  0  0
    6.5668    0.6819   17.5825 N   0  0  0  0  0  0  0  0  0  0  0  0
    7.1834    0.0717   18.6012 C   0  0  0  0  0  0  0  0  0  0  0  0
    8.1217   -0.4257   18.3676 H   0  0  0  0  0  0  0  0  0  0  0  0
    6.6893   -0.0071   19.9324 C   0  0  0  0  0  0  0  0  0  0  0  0
    7.3614   -0.7715   20.8948 N   0  0  0  0  0  0  0  0  0  0  0  0
    6.8215   -1.0623   22.2261 C   0  0  1  0  0  0  0  0  0  0  0  0
    5.7842   -1.3775   22.1213 H   0  0  0  0  0  0  0  0  0  0  0  0
    7.7037   -2.2578   22.6398 C   0  0  0  0  0  0  0  0  0  0  0  0
    7.2649   -3.1825   22.2587 H   0  0  0  0  0  0  0  0  0  0  0  0
    7.7785   -2.3505   23.7261 H   0  0  0  0  0  0  0  0  0  0  0  0
    9.0556   -1.9746   21.9588 C   0  0  0  0  0  0  0  0  0  0  0  0
    9.8635   -1.8306   22.6800 H   0  0  0  0  0  0  0  0  0  0  0  0
    9.3394   -2.7994   21.3031 H   0  0  0  0  0  0  0  0  0  0  0  0
    8.8100   -0.6947   21.1266 C   0  0  2  0  0  0  0  0  0  0  0  0
    9.3520   -0.7407   20.1773 H   0  0  0  0  0  0  0  0  0  0  0  0
    9.1943    0.6044   21.8910 C   0  0  0  0  0  0  0  0  0  0  0  0
    9.4971    1.3684   21.1653 H   0  0  0  0  0  0  0  0  0  0  0  0
   10.0878    0.3946   22.4953 H   0  0  0  0  0  0  0  0  0  0  0  0
    8.0345    1.1901   22.7640 C   0  0  2  0  0  0  0  0  0  0  0  0
    7.5007    1.8799   22.1017 H   0  0  0  0  0  0  0  0  0  0  0  0
    8.5483    2.0215   23.9333 C   0  0  0  0  0  0  0  0  0  0  0  0
    8.2543    3.2704   23.8963 N   0  0  0  0  0  0  0  0  0  0  0  0
    8.6432    4.1542   24.8726 N   0  0  0  0  0  0  0  0  0  0  0  0
    9.1801    3.9289   25.6985 H   0  0  0  0  0  0  0  0  0  0  0  0
    8.3506    5.4910   24.8684 C   0  0  0  0  0  0  0  0  0  0  0  0
    8.8738    6.4765   26.1061 S   0  0  0  0  0  0  0  0  0  0  0  0
    7.6395    5.9711   23.8529 N   0  0  0  0  0  0  0  0  0  0  0  0
    7.3334    5.3681   23.1088 H   0  0  0  0  0  0  0  0  0  0  0  0
    7.4454    6.9540   23.8830 H   0  0  0  0  0  0  0  0  0  0  0  0
    9.3453    1.3305   25.0260 C   0  0  0  0  0  0  0  0  0  0  0  0
   10.3543    1.7548   25.1075 H   0  0  0  0  0  0  0  0  0  0  0  0
    9.4523    0.2584   24.8175 H   0  0  0  0  0  0  0  0  0  0  0  0
    8.8478    1.4293   25.9998 H   0  0  0  0  0  0  0  0  0  0  0  0
    6.9619    0.1411   23.2064 C   0  0  0  0  0  0  0  0  0  0  0  0
    7.1848   -0.2531   24.2085 H   0  0  0  0  0  0  0  0  0  0  0  0
    5.9955    0.6513   23.3111 H   0  0  0  0  0  0  0  0  0  0  0  0
    5.4547    0.6436   20.1707 C   0  0  0  0  0  0  0  0  0  0  0  0
    5.0064    0.6212   21.1637 H   0  0  0  0  0  0  0  0  0  0  0  0
    4.8189    1.3057   19.1128 C   0  0  0  0  0  0  0  0  0  0  0  0
    3.8835    1.8344   19.2646 H   0  0  0  0  0  0  0  0  0  0  0  0
  1  2  1  0
  2  3  2  0
  3  4  1  0
  4  5  1  0
  4  6  2  0
  6  7  1  0
  7  8  1  0
  8  9  1  6
  8 10  1  0
 10 11  1  0
 10 12  1  0
 10 13  1  0
 13 14  1  0
 13 15  1  0
 13 16  1  0
 16 17  1  6
 16 18  1  0
 18 19  1  0
 18 20  1  0
 18 21  1  0
 21 22  1  6
 21 23  1  0
 23 24  2  3
 24 25  1  0
 25 26  1  0
 25 27  1  0
 27 28  2  0
 27 29  1  0
 29 30  1  0
 29 31  1  0
 23 32  1  0
 32 33  1  0
 32 34  1  0
 32 35  1  0
 21 36  1  0
 36 37  1  0
 36 38  1  0
  6 39  1  0
 39 40  1  0
 39 41  2  0
 41 42  1  0
 41  2  1  0
 16  7  1  0
 36  8  1  0
M  END
>  <cnnaffinity>  (1) 
5.25626

>  <plip>  (1) 
-0.07142857142857142

>  <filename>  (1) 
[H][c]1[n][c]([H])[c]([N]2[C@@]3([H])[C]([H])([H])[C]([H])([H])[C@]2([H])[C]([H])([H])[C@]([H])([C](=[N][N]([H])[C](=[S])[N]([H])[H])[C]([H])([H])[H])[C]3([H])[H])[c]([H])[c]1[H]

>  <combo1>  (1) 
-0.41244104213109106

$$$$
