
     RDKit          3D

 32 35  0  0  0  0  0  0  0  0999 V2000
   10.1710    2.8277   25.3339 H   0  0  0  0  0  0  0  0  0  0  0  0
   10.3484    2.2279   24.4492 C   0  0  0  0  0  0  0  0  0  0  0  0
   11.3271    2.5210   23.5457 N   0  0  0  0  0  0  0  0  0  0  0  0
   11.2065    1.5345   22.6825 C   0  0  0  0  0  0  0  0  0  0  0  0
   11.7905    1.3477   21.7838 H   0  0  0  0  0  0  0  0  0  0  0  0
   10.1998    0.7084   23.0512 N   0  0  0  0  0  0  0  0  0  0  0  0
    9.8377   -0.5313   22.5247 N   0  0  0  0  0  0  0  0  0  0  0  0
    9.7544   -0.5939   21.0358 C   0  0  0  0  0  0  0  0  0  0  0  0
    9.5715    0.3977   20.5904 H   0  0  0  0  0  0  0  0  0  0  0  0
   10.6675   -1.0183   20.6109 H   0  0  0  0  0  0  0  0  0  0  0  0
    8.5090   -1.4801   20.8322 C   0  0  2  0  0  0  0  0  0  0  0  0
    8.4974   -1.9875   19.8890 H   0  0  0  0  0  0  0  0  0  0  0  0
    7.3123   -0.6605   21.0030 N   0  0  0  0  0  0  0  0  0  0  0  0
    6.6970    0.0260   19.9634 C   0  0  0  0  0  0  0  0  0  0  0  0
    7.2057    0.0625   18.6292 C   0  0  0  0  0  0  0  0  0  0  0  0
    8.1425   -0.4380   18.4009 H   0  0  0  0  0  0  0  0  0  0  0  0
    6.6179    0.6786   17.5943 N   0  0  0  0  0  0  0  0  0  0  0  0
    5.4523    1.3009   17.8284 C   0  0  0  0  0  0  0  0  0  0  0  0
    4.9879    1.8077   16.9837 H   0  0  0  0  0  0  0  0  0  0  0  0
    4.8452    1.3169   19.0903 C   0  0  0  0  0  0  0  0  0  0  0  0
    3.9002    1.8308   19.2233 H   0  0  0  0  0  0  0  0  0  0  0  0
    5.4662    0.6804   20.1683 C   0  0  0  0  0  0  0  0  0  0  0  0
    5.0240    0.6665   21.1635 H   0  0  0  0  0  0  0  0  0  0  0  0
    7.3319   -0.2417   22.4271 C   0  0  0  0  0  0  0  0  0  0  0  0
    7.5247    0.8364   22.5556 H   0  0  0  0  0  0  0  0  0  0  0  0
    6.3916   -0.5362   22.9085 H   0  0  0  0  0  0  0  0  0  0  0  0
    8.5158   -1.0859   22.9913 C   0  0  1  0  0  0  0  0  0  0  0  0
    8.4900   -1.2231   24.0738 H   0  0  0  0  0  0  0  0  0  0  0  0
    8.4595   -2.3258   22.1068 C   0  0  0  0  0  0  0  0  0  0  0  0
    9.3108   -2.9924   22.2569 H   0  0  0  0  0  0  0  0  0  0  0  0
    7.5290   -2.8897   22.1992 H   0  0  0  0  0  0  0  0  0  0  0  0
    9.6457    1.1451   24.1999 N   0  0  0  0  0  0  0  0  0  0  0  0
  1  2  1  0
  2  3  1  0
  3  4  2  0
  4  5  1  0
  4  6  1  0
  6  7  1  0
  7  8  1  0
  8  9  1  0
  8 10  1  0
  8 11  1  0
 11 12  1  6
 11 13  1  0
 13 14  1  0
 14 15  2  0
 15 16  1  0
 15 17  1  0
 17 18  2  0
 18 19  1  0
 18 20  1  0
 20 21  1  0
 20 22  2  0
 22 23  1  0
 13 24  1  0
 24 25  1  0
 24 26  1  0
 24 27  1  0
 27 28  1  1
 27 29  1  0
 29 30  1  0
 29 31  1  0
  6 32  1  0
 32  2  2  0
 27  7  1  0
 29 11  1  0
 22 14  1  0
M  END
>  <cnnaffinity>  (1) 
5.02157

>  <plip>  (1) 
-0.03571428571428571

>  <filename>  (1) 
[H][c]1[n][c]([H])[n]([N]2[C]([H])([H])[C@]3([H])[N]([c]4[c]([H])[n][c]([H])[c]([H])[c]4[H])[C]([H])([H])[C@@]2([H])[C]3([H])[H])[n]1

>  <combo1>  (1) 
-0.24673565636518505

$$$$
