
     RDKit          3D

 37 40  0  0  0  0  0  0  0  0999 V2000
    5.0489    1.7800   16.9974 H   0  0  0  0  0  0  0  0  0  0  0  0
    5.5074    1.2810   17.8471 C   0  0  0  0  0  0  0  0  0  0  0  0
    6.6979    0.6989   17.6146 N   0  0  0  0  0  0  0  0  0  0  0  0
    7.2802    0.0716   18.6407 C   0  0  0  0  0  0  0  0  0  0  0  0
    8.2637   -0.3675   18.4910 H   0  0  0  0  0  0  0  0  0  0  0  0
    6.6821   -0.0596   19.9057 C   0  0  0  0  0  0  0  0  0  0  0  0
    7.3703   -0.7897   20.9202 N   0  0  0  0  0  0  0  0  0  0  0  0
    8.7415   -0.5274   20.9513 N   0  0  0  0  0  0  0  0  0  0  0  0
    9.3915   -0.8756   22.0091 C   0  0  0  0  0  0  0  0  0  0  0  0
   10.8356   -0.5994   22.0531 C   0  0  0  0  0  0  0  0  0  0  0  0
   11.6812   -1.6836   22.0636 C   0  0  0  0  0  0  0  0  0  0  0  0
   11.2734   -2.6916   21.9594 H   0  0  0  0  0  0  0  0  0  0  0  0
   13.0273   -1.5960   22.2060 N   0  0  0  0  0  0  0  0  0  0  0  0
   13.5517   -0.3980   22.3769 C   0  0  0  0  0  0  0  0  0  0  0  0
   14.6346   -0.3492   22.5123 H   0  0  0  0  0  0  0  0  0  0  0  0
   12.7970    0.8163   22.3912 C   0  0  0  0  0  0  0  0  0  0  0  0
   13.3920    2.0998   22.5987 C   0  0  0  0  0  0  0  0  0  0  0  0
   14.4763    2.1684   22.7074 H   0  0  0  0  0  0  0  0  0  0  0  0
   12.6075    3.2310   22.5860 C   0  0  0  0  0  0  0  0  0  0  0  0
   13.0421    4.2091   22.7689 H   0  0  0  0  0  0  0  0  0  0  0  0
   11.2141    3.1425   22.3142 C   0  0  0  0  0  0  0  0  0  0  0  0
   10.6063    4.0437   22.3248 H   0  0  0  0  0  0  0  0  0  0  0  0
   10.6209    1.9199   22.0931 C   0  0  0  0  0  0  0  0  0  0  0  0
    9.5591    1.8375   21.8808 H   0  0  0  0  0  0  0  0  0  0  0  0
   11.3895    0.7172   22.1544 C   0  0  0  0  0  0  0  0  0  0  0  0
    8.7110   -1.5226   23.1958 C   0  0  0  0  0  0  0  0  0  0  0  0
    8.3744   -0.7068   23.8544 H   0  0  0  0  0  0  0  0  0  0  0  0
    9.4295   -2.1068   23.7783 H   0  0  0  0  0  0  0  0  0  0  0  0
    7.5241   -2.3970   22.7786 C   0  0  0  0  0  0  0  0  0  0  0  0
    7.8421   -3.3991   22.4652 H   0  0  0  0  0  0  0  0  0  0  0  0
    6.8223   -2.5348   23.6048 H   0  0  0  0  0  0  0  0  0  0  0  0
    6.7189   -1.8330   21.6215 C   0  0  0  0  0  0  0  0  0  0  0  0
    5.6288   -2.2677   21.3144 O   0  0  0  0  0  0  0  0  0  0  0  0
    5.4558    0.5652   20.1530 C   0  0  0  0  0  0  0  0  0  0  0  0
    4.9954    0.5172   21.1406 H   0  0  0  0  0  0  0  0  0  0  0  0
    4.8658    1.2598   19.0911 C   0  0  0  0  0  0  0  0  0  0  0  0
    3.9269    1.7888   19.2166 H   0  0  0  0  0  0  0  0  0  0  0  0
  1  2  1  0
  2  3  2  0
  3  4  1  0
  4  5  1  0
  4  6  2  0
  6  7  1  0
  7  8  1  0
  8  9  2  0
  9 10  1  0
 10 11  2  0
 11 12  1  0
 11 13  1  0
 13 14  2  0
 14 15  1  0
 14 16  1  0
 16 17  2  0
 17 18  1  0
 17 19  1  0
 19 20  1  0
 19 21  2  0
 21 22  1  0
 21 23  1  0
 23 24  1  0
 23 25  2  0
  9 26  1  0
 26 27  1  0
 26 28  1  0
 26 29  1  0
 29 30  1  0
 29 31  1  0
 29 32  1  0
 32 33  2  0
  6 34  1  0
 34 35  1  0
 34 36  2  0
 36 37  1  0
 36  2  1  0
 32  7  1  0
 25 10  1  0
 25 16  1  0
M  END
>  <cnnaffinity>  (1) 
6.15068

>  <plip>  (1) 
-0.10714285714285714

>  <filename>  (1) 
[H][c]1[n][c]([H])[c]([N]2[N]=[C]([c]3[c]([H])[n][c]([H])[c]4[c]([H])[c]([H])[c]([H])[c]([H])[c]34)[C]([H])([H])[C]([H])([H])[C]2=[O])[c]([H])[c]1[H]

>  <combo1>  (1) 
-0.7265638769225824

$$$$
