
     RDKit          3D

 30 31  0  0  0  0  0  0  0  0999 V2000
    4.9208    1.8163   16.9554 H   0  0  0  0  0  0  0  0  0  0  0  0
    5.3821    1.3079   17.8015 C   0  0  0  0  0  0  0  0  0  0  0  0
    6.5426    0.6823   17.5478 N   0  0  0  0  0  0  0  0  0  0  0  0
    7.1496    0.0720   18.5753 C   0  0  0  0  0  0  0  0  0  0  0  0
    8.0956   -0.4181   18.3467 H   0  0  0  0  0  0  0  0  0  0  0  0
    6.6546    0.0522   19.8921 C   0  0  0  0  0  0  0  0  0  0  0  0
    7.3754   -0.6637   20.9862 C   0  0  0  0  0  0  0  0  0  0  0  0
    7.5723   -2.0363   20.8532 C   0  0  0  0  0  0  0  0  0  0  0  0
    7.1304   -2.5305   19.9970 H   0  0  0  0  0  0  0  0  0  0  0  0
    8.2348   -2.7479   21.8555 C   0  0  0  0  0  0  0  0  0  0  0  0
    8.4641   -3.8029   21.7398 H   0  0  0  0  0  0  0  0  0  0  0  0
    8.6235   -2.1830   23.0055 N   0  0  0  0  0  0  0  0  0  0  0  0
    8.3814   -0.8738   23.1749 C   0  0  0  0  0  0  0  0  0  0  0  0
    8.6546   -0.4539   24.1452 H   0  0  0  0  0  0  0  0  0  0  0  0
    7.8050   -0.0330   22.1877 C   0  0  0  0  0  0  0  0  0  0  0  0
    7.6844    1.3426   22.3444 N   0  0  0  0  0  0  0  0  0  0  0  0
    7.3955    1.8194   21.4998 H   0  0  0  0  0  0  0  0  0  0  0  0
    7.3885    1.9664   23.6242 C   0  0  0  0  0  0  0  0  0  0  0  0
    8.2356    1.7893   24.3036 H   0  0  0  0  0  0  0  0  0  0  0  0
    7.3451    3.0455   23.4398 H   0  0  0  0  0  0  0  0  0  0  0  0
    6.0964    1.5195   24.3758 C   0  0  0  0  0  0  0  0  0  0  0  0
    5.2129    1.7014   23.7466 H   0  0  0  0  0  0  0  0  0  0  0  0
    6.1256    0.4310   24.5345 H   0  0  0  0  0  0  0  0  0  0  0  0
    5.8631    2.1752   25.6710 N   0  0  0  0  0  0  0  0  0  0  0  0
    5.7987    3.1837   25.5498 H   0  0  0  0  0  0  0  0  0  0  0  0
    6.6470    2.0132   26.3020 H   0  0  0  0  0  0  0  0  0  0  0  0
    5.4236    0.6824   20.1214 C   0  0  0  0  0  0  0  0  0  0  0  0
    4.9908    0.6492   21.1230 H   0  0  0  0  0  0  0  0  0  0  0  0
    4.7759    1.3264   19.0633 C   0  0  0  0  0  0  0  0  0  0  0  0
    3.8416    1.8589   19.2106 H   0  0  0  0  0  0  0  0  0  0  0  0
  1  2  1  0
  2  3  2  0
  3  4  1  0
  4  5  1  0
  4  6  2  0
  6  7  1  0
  7  8  2  0
  8  9  1  0
  8 10  1  0
 10 11  1  0
 10 12  2  0
 12 13  1  0
 13 14  1  0
 13 15  2  0
 15 16  1  0
 16 17  1  0
 16 18  1  0
 18 19  1  0
 18 20  1  0
 18 21  1  0
 21 22  1  0
 21 23  1  0
 21 24  1  0
 24 25  1  0
 24 26  1  0
  6 27  1  0
 27 28  1  0
 27 29  2  0
 29 30  1  0
 29  2  1  0
 15  7  1  0
M  END
>  <cnnaffinity>  (1) 
4.54102

>  <plip>  (1) 
-0.0

>  <filename>  (1) 
[H][c]1[n][c]([H])[c](-[c]2[c]([H])[c]([H])[n][c]([H])[c]2[N]([H])[C]([H])([H])[C]([H])([H])[N]([H])[H])[c]([H])[c]1[H]

>  <combo1>  (1) 
-7.064261001592988e-06

$$$$
