
     RDKit          3D

 32 34  0  0  0  0  0  0  0  0999 V2000
    4.9266    1.7741   16.9985 H   0  0  0  0  0  0  0  0  0  0  0  0
    5.4110    1.2865   17.8450 C   0  0  0  0  0  0  0  0  0  0  0  0
    6.5737    0.6625   17.6029 N   0  0  0  0  0  0  0  0  0  0  0  0
    7.1726    0.0511   18.6318 C   0  0  0  0  0  0  0  0  0  0  0  0
    8.1191   -0.4274   18.3873 H   0  0  0  0  0  0  0  0  0  0  0  0
    6.6485   -0.0114   19.9328 C   0  0  0  0  0  0  0  0  0  0  0  0
    7.3667   -0.7494   21.0204 C   0  0  0  0  0  0  0  0  0  0  0  0
    6.6594   -1.3666   21.8938 N   0  0  0  0  0  0  0  0  0  0  0  0
    7.1572   -2.1801   22.9190 C   0  0  0  0  0  0  0  0  0  0  0  0
    8.3805   -2.6509   22.9278 N   0  0  0  0  0  0  0  0  0  0  0  0
    8.7373   -3.4739   23.9769 C   0  0  0  0  0  0  0  0  0  0  0  0
   10.0566   -3.9913   24.0120 C   0  0  0  0  0  0  0  0  0  0  0  0
   10.7124   -3.7032   23.2016 H   0  0  0  0  0  0  0  0  0  0  0  0
   10.4659   -4.8165   25.0436 C   0  0  0  0  0  0  0  0  0  0  0  0
   11.4784   -5.2132   25.0589 H   0  0  0  0  0  0  0  0  0  0  0  0
    9.5811   -5.1603   26.0989 C   0  0  0  0  0  0  0  0  0  0  0  0
    9.9199   -5.8083   26.9049 H   0  0  0  0  0  0  0  0  0  0  0  0
    8.2940   -4.6739   26.1038 C   0  0  0  0  0  0  0  0  0  0  0  0
    7.5937   -4.9228   26.9034 H   0  0  0  0  0  0  0  0  0  0  0  0
    7.8595   -3.8324   25.0511 C   0  0  0  0  0  0  0  0  0  0  0  0
    6.5359   -3.3070   25.0108 C   0  0  0  0  0  0  0  0  0  0  0  0
    5.8133   -3.5453   25.7980 H   0  0  0  0  0  0  0  0  0  0  0  0
    6.2017   -2.5117   23.9685 C   0  0  0  0  0  0  0  0  0  0  0  0
    5.1989   -2.1714   23.9882 H   0  0  0  0  0  0  0  0  0  0  0  0
    8.8631   -0.6677   21.0294 C   0  0  0  0  0  0  0  0  0  0  0  0
    9.2225   -0.4995   22.0477 H   0  0  0  0  0  0  0  0  0  0  0  0
    9.2456    0.1245   20.3825 H   0  0  0  0  0  0  0  0  0  0  0  0
    9.2775   -1.6280   20.7152 H   0  0  0  0  0  0  0  0  0  0  0  0
    5.4293    0.6503   20.1636 C   0  0  0  0  0  0  0  0  0  0  0  0
    4.9958    0.6297   21.1636 H   0  0  0  0  0  0  0  0  0  0  0  0
    4.8105    1.3130   19.1081 C   0  0  0  0  0  0  0  0  0  0  0  0
    3.8764    1.8443   19.2561 H   0  0  0  0  0  0  0  0  0  0  0  0
  1  2  1  0
  2  3  2  0
  3  4  1  0
  4  5  1  0
  4  6  2  0
  6  7  1  0
  7  8  2  3
  8  9  1  0
  9 10  2  0
 10 11  1  0
 11 12  2  0
 12 13  1  0
 12 14  1  0
 14 15  1  0
 14 16  2  0
 16 17  1  0
 16 18  1  0
 18 19  1  0
 18 20  2  0
 20 21  1  0
 21 22  1  0
 21 23  2  0
 23 24  1  0
  7 25  1  0
 25 26  1  0
 25 27  1  0
 25 28  1  0
  6 29  1  0
 29 30  1  0
 29 31  2  0
 31 32  1  0
 31  2  1  0
 23  9  1  0
 20 11  1  0
M  END
>  <cnnaffinity>  (1) 
4.86754

>  <plip>  (1) 
-0.06896551724137931

>  <filename>  (1) 
[H][c]1[n][c]([H])[c]([C](=[N][c]2[n][c]3[c]([H])[c]([H])[c]([H])[c]([H])[c]3[c]([H])[c]2[H])[C]([H])([H])[H])[c]([H])[c]1[H]

>  <combo1>  (1) 
-0.45247480303099374

$$$$
