
     RDKit          3D

 34 35  0  0  0  0  0  0  0  0999 V2000
    7.2406    0.9567   22.5267 O   0  0  0  0  0  0  0  0  0  0  0  0
    7.4474   -0.2005   22.2266 C   0  0  0  0  0  0  0  0  0  0  0  0
    7.9555   -1.2258   23.2677 C   0  0  0  0  0  0  0  0  0  0  0  0
    6.9488   -1.8463   24.1144 O   0  0  0  0  0  0  0  0  0  0  0  0
    6.0246   -2.6306   23.5216 C   0  0  0  0  0  0  0  0  0  0  0  0
    6.1112   -3.0384   22.3838 O   0  0  0  0  0  0  0  0  0  0  0  0
    4.8654   -2.8864   24.4424 C   0  0  0  0  0  0  0  0  0  0  0  0
    5.1852   -4.0408   25.3407 C   0  0  0  0  0  0  0  0  0  0  0  0
    5.7680   -3.8543   26.5974 C   0  0  0  0  0  0  0  0  0  0  0  0
    5.9541   -4.9407   27.4581 C   0  0  0  0  0  0  0  0  0  0  0  0
    5.5785   -6.2243   27.0423 C   0  0  0  0  0  0  0  0  0  0  0  0
    5.7615   -7.5513   28.1418 Cl  0  0  0  0  0  0  0  0  0  0  0  0
    5.0548   -6.4041   25.7516 C   0  0  0  0  0  0  0  0  0  0  0  0
    4.6620   -7.6006   25.3127 F   0  0  0  0  0  0  0  0  0  0  0  0
    4.8977   -5.3266   24.8908 C   0  0  0  0  0  0  0  0  0  0  0  0
    4.5352   -5.5120   23.8838 H   0  0  0  0  0  0  0  0  0  0  0  0
    6.3618   -4.8122   28.4600 H   0  0  0  0  0  0  0  0  0  0  0  0
    6.0759   -2.8569   26.8934 H   0  0  0  0  0  0  0  0  0  0  0  0
    4.6453   -1.9809   25.0148 H   0  0  0  0  0  0  0  0  0  0  0  0
    4.0136   -3.1127   23.7994 H   0  0  0  0  0  0  0  0  0  0  0  0
    8.5333   -2.0053   22.7661 H   0  0  0  0  0  0  0  0  0  0  0  0
    8.5748   -0.6699   23.9661 H   0  0  0  0  0  0  0  0  0  0  0  0
    7.3116   -0.7151   20.9509 N   0  0  0  0  0  0  0  0  0  0  0  0
    6.6851    0.0096   19.8899 C   0  0  0  0  0  0  0  0  0  0  0  0
    5.4923    0.7021   20.1145 C   0  0  0  0  0  0  0  0  0  0  0  0
    4.8727    1.3261   19.0259 C   0  0  0  0  0  0  0  0  0  0  0  0
    5.4771    1.2626   17.7664 C   0  0  0  0  0  0  0  0  0  0  0  0
    6.6368    0.6218   17.5387 N   0  0  0  0  0  0  0  0  0  0  0  0
    7.2189    0.0146   18.5830 C   0  0  0  0  0  0  0  0  0  0  0  0
    8.1582   -0.5044   18.3997 H   0  0  0  0  0  0  0  0  0  0  0  0
    5.0152    1.7367   16.9038 H   0  0  0  0  0  0  0  0  0  0  0  0
    3.9392    1.8631   19.1485 H   0  0  0  0  0  0  0  0  0  0  0  0
    5.0773    0.7482   21.1221 H   0  0  0  0  0  0  0  0  0  0  0  0
    7.1392   -1.7117   20.9300 H   0  0  0  0  0  0  0  0  0  0  0  0
  1  2  2  0
  2  3  1  0
  3  4  1  0
  4  5  1  0
  5  6  2  0
  5  7  1  0
  7  8  1  0
  8  9  2  0
  9 10  1  0
 10 11  2  0
 11 12  1  0
 11 13  1  0
 13 14  1  0
 13 15  2  0
 15 16  1  0
 10 17  1  0
  9 18  1  0
  7 19  1  0
  7 20  1  0
  3 21  1  0
  3 22  1  0
  2 23  1  0
 23 24  1  0
 24 25  2  0
 25 26  1  0
 26 27  2  0
 27 28  1  0
 28 29  2  0
 29 30  1  0
 27 31  1  0
 26 32  1  0
 25 33  1  0
 23 34  1  0
 15  8  1  0
 29 24  1  0
M  END
>  <cnnaffinity>  (1) 
5.0936

>  <plip>  (1) 
-0.03333333333333333

>  <filename>  (1) 
[H][c]1[n][c]([H])[c]([N]([H])[C](=[O])[C]([H])([H])[O][C](=[O])[C]([H])([H])[c]2[c]([H])[c]([H])[c]([Cl])[c]([F])[c]2[H])[c]([H])[c]1[H]

>  <combo1>  (1) 
-0.17536883195667977

$$$$
