
     RDKit          3D

 40 42  0  0  0  0  0  0  0  0999 V2000
    5.1522    4.5686   23.9212 C   0  0  0  0  0  0  0  0  0  0  0  0
    5.4943    4.0392   25.1860 O   0  0  0  0  0  0  0  0  0  0  0  0
    6.0538    2.8026   25.2743 C   0  0  0  0  0  0  0  0  0  0  0  0
    6.3582    2.3826   26.5786 C   0  0  0  0  0  0  0  0  0  0  0  0
    6.9441    1.1366   26.7878 C   0  0  0  0  0  0  0  0  0  0  0  0
    7.2346    0.2527   25.7300 C   0  0  0  0  0  0  0  0  0  0  0  0
    7.8846   -1.0782   26.0413 C   0  0  0  0  0  0  0  0  0  0  0  0
    7.1307   -1.8657   26.1212 H   0  0  0  0  0  0  0  0  0  0  0  0
    8.4385   -1.0323   26.9830 H   0  0  0  0  0  0  0  0  0  0  0  0
    8.5745   -1.3876   25.2508 H   0  0  0  0  0  0  0  0  0  0  0  0
    6.8882    0.6875   24.4328 C   0  0  0  0  0  0  0  0  0  0  0  0
    7.1034   -0.1481   23.2904 N   0  0  0  0  0  0  0  0  0  0  0  0
    7.7543    0.2810   22.1543 C   0  0  0  0  0  0  0  0  0  0  0  0
    8.5068    1.2186   22.0780 O   0  0  0  0  0  0  0  0  0  0  0  0
    7.3857   -0.6976   21.0277 C   0  0  0  0  0  0  0  0  0  0  0  0
    6.6353   -0.0194   19.8852 C   0  0  0  0  0  0  0  0  0  0  0  0
    5.4276    0.6436   20.1295 C   0  0  0  0  0  0  0  0  0  0  0  0
    4.7961    1.3098   19.0809 C   0  0  0  0  0  0  0  0  0  0  0  0
    5.3973    1.2925   17.8173 C   0  0  0  0  0  0  0  0  0  0  0  0
    6.5545    0.6640   17.5592 N   0  0  0  0  0  0  0  0  0  0  0  0
    7.1532    0.0352   18.5811 C   0  0  0  0  0  0  0  0  0  0  0  0
    8.1135   -0.4291   18.3468 H   0  0  0  0  0  0  0  0  0  0  0  0
    4.9305    1.8033   16.9761 H   0  0  0  0  0  0  0  0  0  0  0  0
    3.8699    1.8512   19.2343 H   0  0  0  0  0  0  0  0  0  0  0  0
    5.0026    0.6442   21.1353 H   0  0  0  0  0  0  0  0  0  0  0  0
    6.6028   -1.6865   21.7423 N   0  0  0  0  0  0  0  0  0  0  0  0
    6.0006   -2.8526   21.1250 C   0  0  0  0  0  0  0  0  0  0  0  0
    6.3721   -3.7794   21.5757 H   0  0  0  0  0  0  0  0  0  0  0  0
    6.2650   -2.8277   20.0632 H   0  0  0  0  0  0  0  0  0  0  0  0
    4.9107   -2.8431   21.2232 H   0  0  0  0  0  0  0  0  0  0  0  0
    6.5654   -1.4237   23.0818 C   0  0  0  0  0  0  0  0  0  0  0  0
    6.1727   -2.1839   23.9378 O   0  0  0  0  0  0  0  0  0  0  0  0
    8.3130   -1.1425   20.6345 H   0  0  0  0  0  0  0  0  0  0  0  0
    6.3397    1.9588   24.1984 C   0  0  0  0  0  0  0  0  0  0  0  0
    6.1466    2.2771   23.1785 H   0  0  0  0  0  0  0  0  0  0  0  0
    7.1897    0.8206   27.8020 H   0  0  0  0  0  0  0  0  0  0  0  0
    6.1285    3.0612   27.3945 H   0  0  0  0  0  0  0  0  0  0  0  0
    6.0349    4.6654   23.2727 H   0  0  0  0  0  0  0  0  0  0  0  0
    4.4002    3.9452   23.4171 H   0  0  0  0  0  0  0  0  0  0  0  0
    4.7369    5.5547   24.1390 H   0  0  0  0  0  0  0  0  0  0  0  0
  1  2  1  0
  2  3  1  0
  3  4  2  0
  4  5  1  0
  5  6  2  0
  6  7  1  0
  7  8  1  0
  7  9  1  0
  7 10  1  0
  6 11  1  0
 11 12  1  0
 12 13  1  0
 13 14  2  0
 13 15  1  0
 15 16  1  0
 16 17  2  0
 17 18  1  0
 18 19  2  0
 19 20  1  0
 20 21  2  0
 21 22  1  0
 19 23  1  0
 18 24  1  0
 17 25  1  0
 15 26  1  0
 26 27  1  0
 27 28  1  0
 27 29  1  0
 27 30  1  0
 26 31  1  0
 31 32  2  0
 15 33  1  0
 11 34  2  0
 34 35  1  0
  5 36  1  0
  4 37  1  0
  1 38  1  0
  1 39  1  0
  1 40  1  0
 34  3  1  0
 31 12  1  0
 21 16  1  0
M  END
>  <cnnaffinity>  (1) 
4.84432

>  <plip>  (1) 
-0.03571428571428571

>  <filename>  (1) 
[H][c]1[n][c]([H])[c]([C]2([H])[C](=[O])[N]([c]3[c]([H])[c]([O][C]([H])([H])[H])[c]([H])[c]([H])[c]3[C]([H])([H])[H])[C](=[O])[N]2[C]([H])([H])[H])[c]([H])[c]1[H]

>  <combo1>  (1) 
-0.18523251415803316

$$$$
