
     RDKit          3D

 44 47  0  0  0  0  0  0  0  0999 V2000
    4.9312    1.7861   17.0217 H   0  0  0  0  0  0  0  0  0  0  0  0
    5.4100    1.2770   17.8535 C   0  0  0  0  0  0  0  0  0  0  0  0
    6.5669    0.6563   17.5713 N   0  0  0  0  0  0  0  0  0  0  0  0
    7.2052    0.0549   18.5819 C   0  0  0  0  0  0  0  0  0  0  0  0
    8.1527   -0.4234   18.3482 H   0  0  0  0  0  0  0  0  0  0  0  0
    6.7117    0.0087   19.9080 C   0  0  0  0  0  0  0  0  0  0  0  0
    7.4160   -0.6656   20.9717 N   0  0  0  0  0  0  0  0  0  0  0  0
    6.8130   -1.6044   21.8195 C   0  0  0  0  0  0  0  0  0  0  0  0
    5.7005   -2.0573   21.6569 O   0  0  0  0  0  0  0  0  0  0  0  0
    7.7612   -1.9444   22.7806 N   0  0  0  0  0  0  0  0  0  0  0  0
    7.6452   -2.7699   23.9023 N   0  0  0  0  0  0  0  0  0  0  0  0
    6.7870   -2.1407   24.9489 C   0  0  0  0  0  0  0  0  0  0  0  0
    5.7785   -1.9749   24.5356 H   0  0  0  0  0  0  0  0  0  0  0  0
    7.2186   -1.1729   25.2205 H   0  0  0  0  0  0  0  0  0  0  0  0
    6.6943   -3.0313   26.1982 C   0  0  0  0  0  0  0  0  0  0  0  0
    6.0104   -2.5649   26.9218 H   0  0  0  0  0  0  0  0  0  0  0  0
    7.6908   -3.0867   26.6765 H   0  0  0  0  0  0  0  0  0  0  0  0
    6.1922   -4.3610   25.8483 N   0  0  0  0  0  0  0  0  0  0  0  0
    5.4594   -5.1178   26.7840 C   0  0  0  0  0  0  0  0  0  0  0  0
    5.8837   -6.3764   27.2484 C   0  0  0  0  0  0  0  0  0  0  0  0
    6.8387   -6.7529   26.8999 H   0  0  0  0  0  0  0  0  0  0  0  0
    5.0910   -7.1088   28.1412 C   0  0  0  0  0  0  0  0  0  0  0  0
    5.4309   -8.0840   28.4893 H   0  0  0  0  0  0  0  0  0  0  0  0
    3.8624   -6.5988   28.5762 C   0  0  0  0  0  0  0  0  0  0  0  0
    3.2436   -7.1720   29.2647 H   0  0  0  0  0  0  0  0  0  0  0  0
    3.4320   -5.3463   28.1212 C   0  0  0  0  0  0  0  0  0  0  0  0
    2.4770   -4.9384   28.4507 H   0  0  0  0  0  0  0  0  0  0  0  0
    4.2305   -4.6103   27.2416 C   0  0  0  0  0  0  0  0  0  0  0  0
    3.9245   -3.6432   26.8589 H   0  0  0  0  0  0  0  0  0  0  0  0
    6.9740   -5.0053   24.7988 C   0  0  0  0  0  0  0  0  0  0  0  0
    6.4668   -5.9396   24.5171 H   0  0  0  0  0  0  0  0  0  0  0  0
    7.9998   -5.2568   25.1309 H   0  0  0  0  0  0  0  0  0  0  0  0
    7.0673   -4.1007   23.5571 C   0  0  0  0  0  0  0  0  0  0  0  0
    6.0685   -3.9551   23.1197 H   0  0  0  0  0  0  0  0  0  0  0  0
    7.7054   -4.5766   22.8071 H   0  0  0  0  0  0  0  0  0  0  0  0
    9.0791   -1.4888   22.4012 C   0  0  0  0  0  0  0  0  0  0  0  0
    9.5816   -0.9040   23.1737 H   0  0  0  0  0  0  0  0  0  0  0  0
    9.7410   -2.3112   22.1171 H   0  0  0  0  0  0  0  0  0  0  0  0
    8.7862   -0.6351   21.2028 C   0  0  0  0  0  0  0  0  0  0  0  0
    9.5983   -0.0457   20.5348 O   0  0  0  0  0  0  0  0  0  0  0  0
    5.4834    0.6237   20.1747 C   0  0  0  0  0  0  0  0  0  0  0  0
    5.0574    0.5682   21.1748 H   0  0  0  0  0  0  0  0  0  0  0  0
    4.8305    1.2894   19.1272 C   0  0  0  0  0  0  0  0  0  0  0  0
    3.8951    1.8201   19.2842 H   0  0  0  0  0  0  0  0  0  0  0  0
  1  2  1  0
  2  3  2  0
  3  4  1  0
  4  5  1  0
  4  6  2  0
  6  7  1  0
  7  8  1  0
  8  9  2  0
  8 10  1  0
 10 11  1  0
 11 12  1  0
 12 13  1  0
 12 14  1  0
 12 15  1  0
 15 16  1  0
 15 17  1  0
 15 18  1  0
 18 19  1  0
 19 20  2  0
 20 21  1  0
 20 22  1  0
 22 23  1  0
 22 24  2  0
 24 25  1  0
 24 26  1  0
 26 27  1  0
 26 28  2  0
 28 29  1  0
 18 30  1  0
 30 31  1  0
 30 32  1  0
 30 33  1  0
 33 34  1  0
 33 35  1  0
 10 36  1  0
 36 37  1  0
 36 38  1  0
 36 39  1  0
 39 40  2  0
  6 41  1  0
 41 42  1  0
 41 43  2  0
 43 44  1  0
 43  2  1  0
 39  7  1  0
 33 11  1  0
 28 19  1  0
M  END
>  <cnnaffinity>  (1) 
5.27749

>  <plip>  (1) 
-0.10714285714285714

>  <filename>  (1) 
[H][c]1[n][c]([H])[c]([N]2[C](=[O])[N]([N]3[C]([H])([H])[C]([H])([H])[N]([c]4[c]([H])[c]([H])[c]([H])[c]([H])[c]4[H])[C]([H])([H])[C]3([H])[H])[C]([H])([H])[C]2=[O])[c]([H])[c]1[H]

>  <combo1>  (1) 
-0.5586582184469452

$$$$
