
     RDKit          3D

 38 40  0  0  0  0  0  0  0  0999 V2000
    4.9222    1.7980   16.9814 H   0  0  0  0  0  0  0  0  0  0  0  0
    5.3906    1.3005   17.8294 C   0  0  0  0  0  0  0  0  0  0  0  0
    6.5544    0.6840   17.5706 N   0  0  0  0  0  0  0  0  0  0  0  0
    7.1535    0.0633   18.5924 C   0  0  0  0  0  0  0  0  0  0  0  0
    8.1096   -0.4099   18.3615 H   0  0  0  0  0  0  0  0  0  0  0  0
    6.6333   -0.0058   19.8954 C   0  0  0  0  0  0  0  0  0  0  0  0
    7.4188   -0.6765   21.0007 C   0  0  0  0  0  0  0  0  0  0  0  0
    7.8157   -1.6446   20.6788 H   0  0  0  0  0  0  0  0  0  0  0  0
    6.7978   -0.8583   21.8825 H   0  0  0  0  0  0  0  0  0  0  0  0
    8.5653    0.1374   21.4121 N   0  0  0  0  0  0  0  0  0  0  0  0
    9.8505   -0.0156   20.9686 C   0  0  0  0  0  0  0  0  0  0  0  0
   10.1477   -0.8766   20.3814 H   0  0  0  0  0  0  0  0  0  0  0  0
   10.6294    0.9746   21.3138 N   0  0  0  0  0  0  0  0  0  0  0  0
    9.8153    1.8422   22.0060 C   0  0  0  0  0  0  0  0  0  0  0  0
   10.1960    2.7537   22.4463 H   0  0  0  0  0  0  0  0  0  0  0  0
    8.5341    1.3512   22.0710 C   0  0  0  0  0  0  0  0  0  0  0  0
    7.3482    1.8832   22.6232 N   0  0  0  0  0  0  0  0  0  0  0  0
    7.1817    2.8689   22.5113 H   0  0  0  0  0  0  0  0  0  0  0  0
    6.5730    1.2687   23.5842 C   0  0  0  0  0  0  0  0  0  0  0  0
    6.8630    0.2073   24.0961 O   0  0  0  0  0  0  0  0  0  0  0  0
    5.3022    2.0148   23.9632 C   0  0  0  0  0  0  0  0  0  0  0  0
    4.8727    2.5421   23.1019 H   0  0  0  0  0  0  0  0  0  0  0  0
    4.6030    1.2292   24.2564 H   0  0  0  0  0  0  0  0  0  0  0  0
    5.5521    2.9706   25.1143 C   0  0  0  0  0  0  0  0  0  0  0  0
    5.5756    2.5017   26.4361 C   0  0  0  0  0  0  0  0  0  0  0  0
    5.3798    1.4472   26.6225 H   0  0  0  0  0  0  0  0  0  0  0  0
    5.8618    3.3733   27.4944 C   0  0  0  0  0  0  0  0  0  0  0  0
    5.8692    3.0026   28.5174 H   0  0  0  0  0  0  0  0  0  0  0  0
    6.1415    4.7205   27.2328 C   0  0  0  0  0  0  0  0  0  0  0  0
    6.3619    5.4018   28.0511 H   0  0  0  0  0  0  0  0  0  0  0  0
    6.1379    5.1912   25.9146 C   0  0  0  0  0  0  0  0  0  0  0  0
    6.3549    6.2342   25.6985 H   0  0  0  0  0  0  0  0  0  0  0  0
    5.8462    4.3150   24.8639 C   0  0  0  0  0  0  0  0  0  0  0  0
    5.8423    4.6717   23.8351 H   0  0  0  0  0  0  0  0  0  0  0  0
    5.4202    0.6434   20.1444 C   0  0  0  0  0  0  0  0  0  0  0  0
    5.0097    0.6367   21.1586 H   0  0  0  0  0  0  0  0  0  0  0  0
    4.7920    1.3146   19.0921 C   0  0  0  0  0  0  0  0  0  0  0  0
    3.8653    1.8529   19.2369 H   0  0  0  0  0  0  0  0  0  0  0  0
  1  2  1  0
  2  3  2  0
  3  4  1  0
  4  5  1  0
  4  6  2  0
  6  7  1  0
  7  8  1  0
  7  9  1  0
  7 10  1  0
 10 11  1  0
 11 12  1  0
 11 13  2  0
 13 14  1  0
 14 15  1  0
 14 16  2  0
 16 17  1  0
 17 18  1  0
 17 19  1  0
 19 20  2  0
 19 21  1  0
 21 22  1  0
 21 23  1  0
 21 24  1  0
 24 25  2  0
 25 26  1  0
 25 27  1  0
 27 28  1  0
 27 29  2  0
 29 30  1  0
 29 31  1  0
 31 32  1  0
 31 33  2  0
 33 34  1  0
  6 35  1  0
 35 36  1  0
 35 37  2  0
 37 38  1  0
 37  2  1  0
 16 10  1  0
 33 24  1  0
M  END
>  <cnnaffinity>  (1) 
4.89072

>  <plip>  (1) 
-0.03571428571428571

>  <filename>  (1) 
[H][c]1[n][c]([H])[c]([C]([H])([H])[n]2[c]([H])[n][c]([H])[c]2[N]([H])[C](=[O])[C]([H])([H])[c]2[c]([H])[c]([H])[c]([H])[c]([H])[c]2[H])[c]([H])[c]1[H]

>  <combo1>  (1) 
-0.19916008354207448

$$$$
