
     RDKit          3D

 29 31  0  0  0  0  0  0  0  0999 V2000
    4.9222    1.9421   16.6384 H   0  0  0  0  0  0  0  0  0  0  0  0
    5.3643    1.3948   17.4686 C   0  0  0  0  0  0  0  0  0  0  0  0
    6.4828    0.7013   17.2001 N   0  0  0  0  0  0  0  0  0  0  0  0
    7.0691    0.0600   18.2213 C   0  0  0  0  0  0  0  0  0  0  0  0
    7.9653   -0.5030   17.9639 H   0  0  0  0  0  0  0  0  0  0  0  0
    6.5996    0.0745   19.5559 C   0  0  0  0  0  0  0  0  0  0  0  0
    7.3702   -0.4994   20.6832 C   0  0  0  0  0  0  0  0  0  0  0  0
    6.9606   -0.6250   22.0439 C   0  0  0  0  0  0  0  0  0  0  0  0
    5.9812   -0.4252   22.4542 H   0  0  0  0  0  0  0  0  0  0  0  0
    7.9369   -1.0566   22.8238 N   0  0  0  0  0  0  0  0  0  0  0  0
    8.9782   -1.1846   22.0108 N   0  0  0  0  0  0  0  0  0  0  0  0
   10.1231   -1.7135   22.5744 N   0  0  0  0  0  0  0  0  0  0  0  0
    9.8300   -1.8060   23.5410 H   0  0  0  0  0  0  0  0  0  0  0  0
   11.3210   -0.9544   22.4697 C   0  0  0  0  0  0  0  0  0  0  0  0
   12.5233   -1.6025   22.2184 C   0  0  0  0  0  0  0  0  0  0  0  0
   12.5417   -2.6782   22.1397 H   0  0  0  0  0  0  0  0  0  0  0  0
   13.6833   -0.8418   22.1570 C   0  0  0  0  0  0  0  0  0  0  0  0
   14.6308   -1.3423   21.9600 H   0  0  0  0  0  0  0  0  0  0  0  0
   13.7195    0.4785   22.3762 N   0  0  0  0  0  0  0  0  0  0  0  0
   12.5546    1.0826   22.6510 C   0  0  0  0  0  0  0  0  0  0  0  0
   12.6248    2.1435   22.8813 H   0  0  0  0  0  0  0  0  0  0  0  0
   11.3259    0.4237   22.6824 C   0  0  0  0  0  0  0  0  0  0  0  0
   10.4022    0.9420   22.8945 H   0  0  0  0  0  0  0  0  0  0  0  0
    8.6977   -0.9148   20.7189 C   0  0  0  0  0  0  0  0  0  0  0  0
    9.5018   -1.0312   20.0062 H   0  0  0  0  0  0  0  0  0  0  0  0
    5.3894    0.7531   19.7840 C   0  0  0  0  0  0  0  0  0  0  0  0
    4.9595    0.7722   20.7845 H   0  0  0  0  0  0  0  0  0  0  0  0
    4.7703    1.4282   18.7343 C   0  0  0  0  0  0  0  0  0  0  0  0
    3.8571    1.9915   18.8937 H   0  0  0  0  0  0  0  0  0  0  0  0
  1  2  1  0
  2  3  2  0
  3  4  1  0
  4  5  1  0
  4  6  2  0
  6  7  1  0
  7  8  1  0
  8  9  1  0
  8 10  2  0
 10 11  1  0
 11 12  1  0
 12 13  1  0
 12 14  1  0
 14 15  2  0
 15 16  1  0
 15 17  1  0
 17 18  1  0
 17 19  2  0
 19 20  1  0
 20 21  1  0
 20 22  2  0
 22 23  1  0
 11 24  1  0
 24 25  1  0
  6 26  1  0
 26 27  1  0
 26 28  2  0
 28 29  1  0
 28  2  1  0
 24  7  2  0
 22 14  1  0
M  END
>  <cnnaffinity>  (1) 
4.75707

>  <plip>  (1) 
-0.07142857142857142

>  <filename>  (1) 
[H][c]1[n][c]([H])[c](-[c]2[c]([H])[n][n]([N]([H])[c]3[c]([H])[c]([H])[n][c]([H])[c]3[H])[c]2[H])[c]([H])[c]1[H]

>  <combo1>  (1) 
-0.4773695827829162

$$$$
