
     RDKit          3D

 30 31  0  0  0  0  0  0  0  0999 V2000
    4.9295    1.7887   16.9940 H   0  0  0  0  0  0  0  0  0  0  0  0
    5.4028    1.2923   17.8393 C   0  0  0  0  0  0  0  0  0  0  0  0
    6.5717    0.6713   17.5864 N   0  0  0  0  0  0  0  0  0  0  0  0
    7.1777    0.0510   18.6080 C   0  0  0  0  0  0  0  0  0  0  0  0
    8.1216   -0.4502   18.3926 H   0  0  0  0  0  0  0  0  0  0  0  0
    6.6683    0.0159   19.9279 C   0  0  0  0  0  0  0  0  0  0  0  0
    7.3250   -0.7114   20.9313 N   0  0  0  0  0  0  0  0  0  0  0  0
    7.7588   -0.2091   22.0202 C   0  0  0  0  0  0  0  0  0  0  0  0
    7.6577    1.2366   22.3971 C   0  0  0  0  0  0  0  0  0  0  0  0
    6.6226    1.5213   22.6061 H   0  0  0  0  0  0  0  0  0  0  0  0
    8.2647    1.4404   23.2801 H   0  0  0  0  0  0  0  0  0  0  0  0
    8.0020    1.8553   21.5637 H   0  0  0  0  0  0  0  0  0  0  0  0
    8.4952   -1.1423   22.9661 C   0  0  0  0  0  0  0  0  0  0  0  0
    8.1275   -2.1573   22.7983 H   0  0  0  0  0  0  0  0  0  0  0  0
    8.3332   -0.8492   24.0063 H   0  0  0  0  0  0  0  0  0  0  0  0
    9.9237   -1.1553   22.7410 N   0  0  0  0  0  0  0  0  0  0  0  0
   10.7756   -0.2254   23.3192 N   0  0  0  0  0  0  0  0  0  0  0  0
   11.8823   -0.4784   22.7168 C   0  0  0  0  0  0  0  0  0  0  0  0
   13.0737    0.0504   22.9041 O   0  0  0  0  0  0  0  0  0  0  0  0
   13.1736    1.0725   23.9095 C   0  0  0  0  0  0  0  0  0  0  0  0
   12.9134    0.6817   24.9007 H   0  0  0  0  0  0  0  0  0  0  0  0
   14.2185    1.3724   23.8742 H   0  0  0  0  0  0  0  0  0  0  0  0
   12.5274    1.9255   23.6724 H   0  0  0  0  0  0  0  0  0  0  0  0
   11.8509   -1.4184   21.7583 O   0  0  0  0  0  0  0  0  0  0  0  0
   10.5329   -1.8294   21.7251 C   0  0  0  0  0  0  0  0  0  0  0  0
   10.0408   -2.5892   20.9433 O   0  0  0  0  0  0  0  0  0  0  0  0
    5.4440    0.6495   20.1624 C   0  0  0  0  0  0  0  0  0  0  0  0
    5.0207    0.6102   21.1646 H   0  0  0  0  0  0  0  0  0  0  0  0
    4.8078    1.3051   19.1040 C   0  0  0  0  0  0  0  0  0  0  0  0
    3.8756    1.8336   19.2549 H   0  0  0  0  0  0  0  0  0  0  0  0
  1  2  1  0
  2  3  2  0
  3  4  1  0
  4  5  1  0
  4  6  2  0
  6  7  1  0
  7  8  2  3
  8  9  1  0
  9 10  1  0
  9 11  1  0
  9 12  1  0
  8 13  1  0
 13 14  1  0
 13 15  1  0
 13 16  1  0
 16 17  1  0
 17 18  2  0
 18 19  1  0
 19 20  1  0
 20 21  1  0
 20 22  1  0
 20 23  1  0
 18 24  1  0
 24 25  1  0
 25 26  2  0
  6 27  1  0
 27 28  1  0
 27 29  2  0
 29 30  1  0
 29  2  1  0
 25 16  1  0
M  END
>  <cnnaffinity>  (1) 
5.13539

>  <plip>  (1) 
-0.07142857142857142

>  <filename>  (1) 
[H][c]1[n][c]([H])[c]([N]=[C]([C]([H])([H])[H])[C]([H])([H])[n]2[n][c]([O][C]([H])([H])[H])[o][c]2=[O])[c]([H])[c]1[H]

>  <combo1>  (1) 
-0.4925483619862492

$$$$
