
     RDKit          3D

 29 30  0  0  0  0  0  0  0  0999 V2000
    6.6913   -1.0379   21.8347 H   0  0  0  0  0  0  0  0  0  0  0  0
    7.3408   -0.7008   21.0258 C   0  0  0  0  0  0  0  0  0  0  0  0
    8.6684   -0.9126   21.1022 C   0  0  0  0  0  0  0  0  0  0  0  0
    9.3260   -0.4997   20.3305 H   0  0  0  0  0  0  0  0  0  0  0  0
    9.2982   -1.6242   22.0909 N   0  0  0  0  0  0  0  0  0  0  0  0
   10.3045   -1.6419   22.0867 H   0  0  0  0  0  0  0  0  0  0  0  0
    8.6396   -1.9966   23.3327 C   0  0  0  0  0  0  0  0  0  0  0  0
    9.3379   -2.6190   23.8933 H   0  0  0  0  0  0  0  0  0  0  0  0
    7.7731   -2.6246   23.1059 H   0  0  0  0  0  0  0  0  0  0  0  0
    8.1900   -0.8494   24.2264 C   0  0  0  0  0  0  0  0  0  0  0  0
    6.8557   -0.6706   24.6112 C   0  0  0  0  0  0  0  0  0  0  0  0
    6.0816   -1.3653   24.2997 H   0  0  0  0  0  0  0  0  0  0  0  0
    6.5176    0.4287   25.4067 C   0  0  0  0  0  0  0  0  0  0  0  0
    5.4855    0.5778   25.7071 H   0  0  0  0  0  0  0  0  0  0  0  0
    7.3934    1.3422   25.8393 N   0  0  0  0  0  0  0  0  0  0  0  0
    8.6677    1.1585   25.4744 C   0  0  0  0  0  0  0  0  0  0  0  0
    9.3800    1.8981   25.8247 H   0  0  0  0  0  0  0  0  0  0  0  0
    9.1101    0.0961   24.6884 C   0  0  0  0  0  0  0  0  0  0  0  0
   10.1585    0.0197   24.4272 H   0  0  0  0  0  0  0  0  0  0  0  0
    6.6728    0.0011   19.9154 C   0  0  0  0  0  0  0  0  0  0  0  0
    7.1781    0.0720   18.5965 C   0  0  0  0  0  0  0  0  0  0  0  0
    8.1156   -0.4228   18.3561 H   0  0  0  0  0  0  0  0  0  0  0  0
    6.5648    0.6807   17.5728 N   0  0  0  0  0  0  0  0  0  0  0  0
    5.3998    1.2947   17.8381 C   0  0  0  0  0  0  0  0  0  0  0  0
    4.9161    1.7831   16.9941 H   0  0  0  0  0  0  0  0  0  0  0  0
    4.8046    1.3085   19.1060 C   0  0  0  0  0  0  0  0  0  0  0  0
    3.8724    1.8439   19.2569 H   0  0  0  0  0  0  0  0  0  0  0  0
    5.4405    0.6383   20.1537 C   0  0  0  0  0  0  0  0  0  0  0  0
    5.0130    0.6253   21.1598 H   0  0  0  0  0  0  0  0  0  0  0  0
  1  2  1  0
  2  3  2  3
  3  4  1  0
  3  5  1  0
  5  6  1  0
  5  7  1  0
  7  8  1  0
  7  9  1  0
  7 10  1  0
 10 11  2  0
 11 12  1  0
 11 13  1  0
 13 14  1  0
 13 15  2  0
 15 16  1  0
 16 17  1  0
 16 18  2  0
 18 19  1  0
  2 20  1  0
 20 21  2  0
 21 22  1  0
 21 23  1  0
 23 24  2  0
 24 25  1  0
 24 26  1  0
 26 27  1  0
 26 28  2  0
 28 29  1  0
 18 10  1  0
 28 20  1  0
M  END
>  <cnnaffinity>  (1) 
4.20398

>  <plip>  (1) 
-0.0

>  <filename>  (1) 
[H][C](=[C]([H])[N]([H])[C]([H])([H])[c]1[c]([H])[c]([H])[n][c]([H])[c]1[H])[c]1[c]([H])[n][c]([H])[c]([H])[c]1[H]

>  <combo1>  (1) 
-6.632933840745719e-06

$$$$
