
     RDKit          3D

 38 41  0  0  0  0  0  0  0  0999 V2000
    5.0850    1.7271   17.0331 H   0  0  0  0  0  0  0  0  0  0  0  0
    5.5336    1.2040   17.8743 C   0  0  0  0  0  0  0  0  0  0  0  0
    6.7020    0.5966   17.6374 N   0  0  0  0  0  0  0  0  0  0  0  0
    7.2858   -0.0235   18.6725 C   0  0  0  0  0  0  0  0  0  0  0  0
    8.2439   -0.4839   18.4444 H   0  0  0  0  0  0  0  0  0  0  0  0
    6.7636   -0.0884   19.9795 C   0  0  0  0  0  0  0  0  0  0  0  0
    7.5050   -0.7566   21.1595 C   0  0  0  0  0  0  0  0  0  0  0  0
    6.7117   -2.0038   21.6530 C   0  0  0  0  0  0  0  0  0  0  0  0
    6.2403   -2.1637   22.9952 C   0  0  0  0  0  0  0  0  0  0  0  0
    6.3628   -1.3654   23.7220 H   0  0  0  0  0  0  0  0  0  0  0  0
    5.5703   -3.2953   23.4281 C   0  0  0  0  0  0  0  0  0  0  0  0
    5.1969   -3.3266   24.4474 H   0  0  0  0  0  0  0  0  0  0  0  0
    5.4155   -4.3539   22.5036 C   0  0  0  0  0  0  0  0  0  0  0  0
    5.8742   -4.2416   21.1751 C   0  0  0  0  0  0  0  0  0  0  0  0
    5.5870   -5.5165   20.5998 C   0  0  0  0  0  0  0  0  0  0  0  0
    5.7869   -5.8515   19.5911 H   0  0  0  0  0  0  0  0  0  0  0  0
    4.9866   -6.3128   21.4558 N   0  0  0  0  0  0  0  0  0  0  0  0
    4.8765   -5.6004   22.6012 N   0  0  0  0  0  0  0  0  0  0  0  0
    4.3811   -5.9801   23.3905 H   0  0  0  0  0  0  0  0  0  0  0  0
    6.4805   -3.0368   20.7497 C   0  0  0  0  0  0  0  0  0  0  0  0
    6.7121   -2.8925   19.7048 H   0  0  0  0  0  0  0  0  0  0  0  0
    8.9440   -1.1655   20.7180 C   0  0  0  0  0  0  0  0  0  0  0  0
    9.4471   -0.2730   20.3227 H   0  0  0  0  0  0  0  0  0  0  0  0
    8.9247   -1.8982   19.9147 H   0  0  0  0  0  0  0  0  0  0  0  0
    9.7682   -1.6744   21.8861 C   0  0  0  0  0  0  0  0  0  0  0  0
    9.2778   -2.5543   22.3483 H   0  0  0  0  0  0  0  0  0  0  0  0
   10.7691   -1.9729   21.5588 H   0  0  0  0  0  0  0  0  0  0  0  0
    9.9619   -0.6227   22.8168 O   0  0  0  0  0  0  0  0  0  0  0  0
    8.7610   -0.0956   23.3520 C   0  0  0  0  0  0  0  0  0  0  0  0
    9.0637    0.7848   23.9306 H   0  0  0  0  0  0  0  0  0  0  0  0
    8.3333   -0.8182   24.0621 H   0  0  0  0  0  0  0  0  0  0  0  0
    7.7312    0.3128   22.2796 C   0  0  0  0  0  0  0  0  0  0  0  0
    8.0904    1.2300   21.7968 H   0  0  0  0  0  0  0  0  0  0  0  0
    6.7842    0.5797   22.7619 H   0  0  0  0  0  0  0  0  0  0  0  0
    5.5190    0.5255   20.1840 C   0  0  0  0  0  0  0  0  0  0  0  0
    5.0448    0.5027   21.1669 H   0  0  0  0  0  0  0  0  0  0  0  0
    4.9009    1.1866   19.1212 C   0  0  0  0  0  0  0  0  0  0  0  0
    3.9679    1.7199   19.2567 H   0  0  0  0  0  0  0  0  0  0  0  0
  1  2  1  0
  2  3  2  0
  3  4  1  0
  4  5  1  0
  4  6  2  0
  6  7  1  0
  7  8  1  0
  8  9  2  0
  9 10  1  0
  9 11  1  0
 11 12  1  0
 11 13  2  0
 13 14  1  0
 14 15  1  0
 15 16  1  0
 15 17  2  0
 17 18  1  0
 18 19  1  0
 14 20  2  0
 20 21  1  0
  7 22  1  0
 22 23  1  0
 22 24  1  0
 22 25  1  0
 25 26  1  0
 25 27  1  0
 25 28  1  0
 28 29  1  0
 29 30  1  0
 29 31  1  0
 29 32  1  0
 32 33  1  0
 32 34  1  0
  6 35  1  0
 35 36  1  0
 35 37  2  0
 37 38  1  0
 37  2  1  0
 32  7  1  0
 20  8  1  0
 18 13  1  0
M  END
>  <cnnaffinity>  (1) 
5.26609

>  <plip>  (1) 
-0.034482758620689655

>  <filename>  (1) 
[H][c]1[n][c]([H])[c]([C]2([c]3[c]([H])[c]([H])[c]4[c]([c]([H])[n][n]4[H])[c]3[H])[C]([H])([H])[C]([H])([H])[O][C]([H])([H])[C]2([H])[H])[c]([H])[c]1[H]

>  <combo1>  (1) 
-0.21668618907558992

$$$$
