
     RDKit          3D

 30 32  0  0  0  0  0  0  0  0999 V2000
    4.7291    1.3433   18.9974 C   0  0  0  0  0  0  0  0  0  0  0  0
    5.3803    1.3448   17.7597 C   0  0  0  0  0  0  0  0  0  0  0  0
    6.5400    0.7070   17.5319 N   0  0  0  0  0  0  0  0  0  0  0  0
    7.0909    0.0615   18.5638 C   0  0  0  0  0  0  0  0  0  0  0  0
    6.5179   -0.0221   19.8404 C   0  0  0  0  0  0  0  0  0  0  0  0
    7.3211   -0.6923   20.9174 C   0  0  0  0  0  0  0  0  0  0  0  0
    8.4896    0.1523   21.1481 N   0  0  0  0  0  0  0  0  0  0  0  0
    9.4040   -0.1126   22.1370 C   0  0  0  0  0  0  0  0  0  0  0  0
    9.2912   -1.2239   22.9406 C   0  0  0  0  0  0  0  0  0  0  0  0
   10.1455   -1.3444   24.0474 C   0  0  0  0  0  0  0  0  0  0  0  0
   11.1451   -0.5398   24.3002 N   0  0  0  0  0  0  0  0  0  0  0  0
   11.4136    0.4079   23.3650 C   0  0  0  0  0  0  0  0  0  0  0  0
   12.6395    0.9765   23.5183 N   0  0  0  0  0  0  0  0  0  0  0  0
   12.9777    1.9186   22.6734 C   0  0  0  0  0  0  0  0  0  0  0  0
   12.1180    2.4296   21.6555 C   0  0  0  0  0  0  0  0  0  0  0  0
   10.8722    1.8774   21.4943 C   0  0  0  0  0  0  0  0  0  0  0  0
   10.5184    0.7654   22.3129 C   0  0  0  0  0  0  0  0  0  0  0  0
   10.1731    2.2468   20.7427 H   0  0  0  0  0  0  0  0  0  0  0  0
   12.4656    3.2139   20.9903 H   0  0  0  0  0  0  0  0  0  0  0  0
   13.9809    2.3326   22.7761 H   0  0  0  0  0  0  0  0  0  0  0  0
    9.9763   -2.1667   24.7439 H   0  0  0  0  0  0  0  0  0  0  0  0
    8.5475   -1.9730   22.7303 H   0  0  0  0  0  0  0  0  0  0  0  0
    8.2663    1.1356   21.1128 H   0  0  0  0  0  0  0  0  0  0  0  0
    6.7114   -0.8613   21.8218 H   0  0  0  0  0  0  0  0  0  0  0  0
    7.6576   -1.6815   20.5808 H   0  0  0  0  0  0  0  0  0  0  0  0
    5.3051    0.6386   20.0593 C   0  0  0  0  0  0  0  0  0  0  0  0
    4.8369    0.6306   21.0467 H   0  0  0  0  0  0  0  0  0  0  0  0
    8.0597   -0.4033   18.3774 H   0  0  0  0  0  0  0  0  0  0  0  0
    4.9614    1.8866   16.9142 H   0  0  0  0  0  0  0  0  0  0  0  0
    3.8067    1.9037   19.1193 H   0  0  0  0  0  0  0  0  0  0  0  0
  1  2  2  0
  2  3  1  0
  3  4  2  0
  4  5  1  0
  5  6  1  0
  6  7  1  0
  7  8  1  0
  8  9  2  0
  9 10  1  0
 10 11  2  0
 11 12  1  0
 12 13  2  0
 13 14  1  0
 14 15  2  0
 15 16  1  0
 16 17  2  0
 16 18  1  0
 15 19  1  0
 14 20  1  0
 10 21  1  0
  9 22  1  0
  7 23  1  0
  6 24  1  0
  6 25  1  0
  5 26  2  0
 26 27  1  0
  4 28  1  0
  2 29  1  0
  1 30  1  0
 26  1  1  0
 17  8  1  0
 17 12  1  0
M  END
>  <cnnaffinity>  (1) 
4.48392

>  <plip>  (1) 
-0.07142857142857142

>  <filename>  (1) 
[H][c]1[n][c]([H])[c]([C]([H])([H])[N]([H])[c]2[c]([H])[c]([H])[n][c]3[n][c]([H])[c]([H])[c]([H])[c]23)[c]([H])[c]1[H]

>  <combo1>  (1) 
-0.4518406284122939

$$$$
