
     RDKit          3D

 24 25  0  0  0  0  0  0  0  0999 V2000
    6.4497   -5.5022   25.5159 H   0  0  0  0  0  0  0  0  0  0  0  0
    6.8730   -4.5365   25.2706 C   0  0  0  0  0  0  0  0  0  0  0  0
    7.5447   -3.6415   25.9883 C   0  0  0  0  0  0  0  0  0  0  0  0
    7.8791   -3.6239   27.0182 H   0  0  0  0  0  0  0  0  0  0  0  0
    7.9081   -2.5046   25.1016 C   0  0  0  0  0  0  0  0  0  0  0  0
    8.6032   -1.5575   25.3788 O   0  0  0  0  0  0  0  0  0  0  0  0
    7.3180   -2.7569   23.8465 N   0  0  0  0  0  0  0  0  0  0  0  0
    7.6052   -1.9910   22.7042 N   0  0  0  0  0  0  0  0  0  0  0  0
    8.2312   -1.2120   22.8384 H   0  0  0  0  0  0  0  0  0  0  0  0
    6.7037   -1.6245   21.7095 C   0  0  0  0  0  0  0  0  0  0  0  0
    5.6487   -2.0944   21.4048 O   0  0  0  0  0  0  0  0  0  0  0  0
    7.3451   -0.5706   21.0792 O   0  0  0  0  0  0  0  0  0  0  0  0
    6.7180    0.0576   20.0076 C   0  0  0  0  0  0  0  0  0  0  0  0
    7.3341    0.0894   18.7461 C   0  0  0  0  0  0  0  0  0  0  0  0
    8.3164   -0.3570   18.6144 H   0  0  0  0  0  0  0  0  0  0  0  0
    6.7651    0.6587   17.6738 N   0  0  0  0  0  0  0  0  0  0  0  0
    5.5764    1.2615   17.8371 C   0  0  0  0  0  0  0  0  0  0  0  0
    5.1321    1.7118   16.9509 H   0  0  0  0  0  0  0  0  0  0  0  0
    4.9111    1.3124   19.0653 C   0  0  0  0  0  0  0  0  0  0  0  0
    3.9601    1.8289   19.1360 H   0  0  0  0  0  0  0  0  0  0  0  0
    5.4935    0.7022   20.1807 C   0  0  0  0  0  0  0  0  0  0  0  0
    5.0267    0.7304   21.1628 H   0  0  0  0  0  0  0  0  0  0  0  0
    6.7639   -4.0602   23.8574 C   0  0  0  0  0  0  0  0  0  0  0  0
    6.3243   -4.6916   22.9372 O   0  0  0  0  0  0  0  0  0  0  0  0
  1  2  1  0
  2  3  2  0
  3  4  1  0
  3  5  1  0
  5  6  2  0
  5  7  1  0
  7  8  1  0
  8  9  1  0
  8 10  1  0
 10 11  2  0
 10 12  1  0
 12 13  1  0
 13 14  2  0
 14 15  1  0
 14 16  1  0
 16 17  2  0
 17 18  1  0
 17 19  1  0
 19 20  1  0
 19 21  2  0
 21 22  1  0
  7 23  1  0
 23 24  2  0
 23  2  1  0
 21 13  1  0
M  END
>  <cnnaffinity>  (1) 
4.51711

>  <plip>  (1) 
-0.07142857142857142

>  <filename>  (1) 
[H][C]1=[C]([H])[C](=[O])[N]([N]([H])[C](=[O])[O][c]2[c]([H])[n][c]([H])[c]([H])[c]2[H])[C]1=[O]

>  <combo1>  (1) 
-0.46122675364515464

$$$$
