
     RDKit          3D

 28 30  0  0  0  0  0  0  0  0999 V2000
    6.1904    4.4105   27.0932 H   0  0  0  0  0  0  0  0  0  0  0  0
    5.8125    4.2174   26.0937 C   0  0  0  0  0  0  0  0  0  0  0  0
    6.3382    3.1516   25.4869 N   0  0  0  0  0  0  0  0  0  0  0  0
    5.9003    2.8723   24.2452 C   0  0  0  0  0  0  0  0  0  0  0  0
    6.4631    1.7186   23.6016 C   0  0  0  0  0  0  0  0  0  0  0  0
    6.9092    0.7626   23.0122 C   0  0  0  0  0  0  0  0  0  0  0  0
    7.4717   -0.3480   22.3329 C   0  0  0  0  0  0  0  0  0  0  0  0
    7.4062   -0.7030   20.9374 C   0  0  0  0  0  0  0  0  0  0  0  0
    6.6533   -0.0061   19.8877 C   0  0  0  0  0  0  0  0  0  0  0  0
    7.1697    0.0472   18.5837 C   0  0  0  0  0  0  0  0  0  0  0  0
    8.1192   -0.4322   18.3528 H   0  0  0  0  0  0  0  0  0  0  0  0
    6.5647    0.6781   17.5751 N   0  0  0  0  0  0  0  0  0  0  0  0
    5.4031    1.2916   17.8390 C   0  0  0  0  0  0  0  0  0  0  0  0
    4.9241    1.7847   16.9968 H   0  0  0  0  0  0  0  0  0  0  0  0
    4.8077    1.3068   19.1049 C   0  0  0  0  0  0  0  0  0  0  0  0
    3.8785    1.8406   19.2530 H   0  0  0  0  0  0  0  0  0  0  0  0
    5.4379    0.6454   20.1545 C   0  0  0  0  0  0  0  0  0  0  0  0
    5.0056    0.6298   21.1571 H   0  0  0  0  0  0  0  0  0  0  0  0
    8.1296   -1.7691   20.6925 N   0  0  0  0  0  0  0  0  0  0  0  0
    8.6607   -2.1619   21.8989 O   0  0  0  0  0  0  0  0  0  0  0  0
    8.2735   -1.3139   22.8471 C   0  0  0  0  0  0  0  0  0  0  0  0
    8.6484   -1.5071   23.8412 H   0  0  0  0  0  0  0  0  0  0  0  0
    4.9301    3.6512   23.5883 C   0  0  0  0  0  0  0  0  0  0  0  0
    4.6262    3.3781   22.5859 H   0  0  0  0  0  0  0  0  0  0  0  0
    4.3873    4.7620   24.2331 C   0  0  0  0  0  0  0  0  0  0  0  0
    3.6362    5.3869   23.7468 H   0  0  0  0  0  0  0  0  0  0  0  0
    4.8433    5.0496   25.5209 C   0  0  0  0  0  0  0  0  0  0  0  0
    4.4684    5.8972   26.0809 H   0  0  0  0  0  0  0  0  0  0  0  0
  1  2  1  0
  2  3  2  0
  3  4  1  0
  4  5  1  0
  5  6  3  0
  6  7  1  0
  7  8  1  0
  8  9  1  0
  9 10  2  0
 10 11  1  0
 10 12  1  0
 12 13  2  0
 13 14  1  0
 13 15  1  0
 15 16  1  0
 15 17  2  0
 17 18  1  0
  8 19  2  0
 19 20  1  0
 20 21  1  0
 21 22  1  0
  4 23  2  0
 23 24  1  0
 23 25  1  0
 25 26  1  0
 25 27  2  0
 27 28  1  0
 27  2  1  0
 21  7  2  0
 17  9  1  0
M  END
>  <cnnaffinity>  (1) 
4.93001

>  <plip>  (1) 
-0.034482758620689655

>  <filename>  (1) 
[H][c]1[n][c]([C]#[C][c]2[c](-[c]3[c]([H])[n][c]([H])[c]([H])[c]3[H])[n][o][c]2[H])[c]([H])[c]([H])[c]1[H]

>  <combo1>  (1) 
-0.229181708138477

$$$$
