
     RDKit          3D

 34 36  0  0  0  0  0  0  0  0999 V2000
    7.2373   -2.0672   21.0931 C   0  0  0  0  0  0  0  0  0  0  0  0
    7.2378   -0.5207   21.1695 C   0  0  0  0  0  0  0  0  0  0  0  0
    8.7031   -0.0386   21.3510 C   0  0  0  0  0  0  0  0  0  0  0  0
    9.6404   -0.5239   20.7471 O   0  0  0  0  0  0  0  0  0  0  0  0
    8.8728    0.9777   22.2547 N   0  0  0  0  0  0  0  0  0  0  0  0
   10.0953    1.5450   22.5519 C   0  0  0  0  0  0  0  0  0  0  0  0
   11.2963    0.8228   22.7501 C   0  0  0  0  0  0  0  0  0  0  0  0
   12.4523    1.5331   23.0746 C   0  0  0  0  0  0  0  0  0  0  0  0
   12.3654    2.9375   23.1783 C   0  0  0  0  0  0  0  0  0  0  0  0
   13.2316    4.0617   23.4364 C   0  0  0  0  0  0  0  0  0  0  0  0
   12.4635    5.1876   23.4046 C   0  0  0  0  0  0  0  0  0  0  0  0
   11.1517    4.8340   23.1487 N   0  0  0  0  0  0  0  0  0  0  0  0
   11.0702    3.4882   22.9820 C   0  0  0  0  0  0  0  0  0  0  0  0
    9.9390    2.8552   22.6985 N   0  0  0  0  0  0  0  0  0  0  0  0
   10.3686    5.4036   22.8938 H   0  0  0  0  0  0  0  0  0  0  0  0
   12.7618    6.2195   23.5605 H   0  0  0  0  0  0  0  0  0  0  0  0
   14.2998    4.0387   23.5995 H   0  0  0  0  0  0  0  0  0  0  0  0
   13.3939    1.0141   23.2599 H   0  0  0  0  0  0  0  0  0  0  0  0
   11.2654   -0.2563   22.6670 H   0  0  0  0  0  0  0  0  0  0  0  0
    8.2000    1.7260   22.2568 H   0  0  0  0  0  0  0  0  0  0  0  0
    6.5514    0.1573   19.9714 C   0  0  0  0  0  0  0  0  0  0  0  0
    5.3296    0.8347   20.1203 C   0  0  0  0  0  0  0  0  0  0  0  0
    4.7260    1.4182   19.0004 C   0  0  0  0  0  0  0  0  0  0  0  0
    5.3664    1.3154   17.7622 C   0  0  0  0  0  0  0  0  0  0  0  0
    6.5371    0.6844   17.5923 N   0  0  0  0  0  0  0  0  0  0  0  0
    7.1043    0.1303   18.6738 C   0  0  0  0  0  0  0  0  0  0  0  0
    8.0760   -0.3359   18.5079 H   0  0  0  0  0  0  0  0  0  0  0  0
    4.9255    1.7596   16.8695 H   0  0  0  0  0  0  0  0  0  0  0  0
    3.7799    1.9447   19.0727 H   0  0  0  0  0  0  0  0  0  0  0  0
    4.8678    0.9144   21.1073 H   0  0  0  0  0  0  0  0  0  0  0  0
    6.6978   -0.2093   22.0740 H   0  0  0  0  0  0  0  0  0  0  0  0
    7.4935   -2.5083   22.0635 H   0  0  0  0  0  0  0  0  0  0  0  0
    8.0344   -2.3705   20.4162 H   0  0  0  0  0  0  0  0  0  0  0  0
    6.2839   -2.4892   20.7528 H   0  0  0  0  0  0  0  0  0  0  0  0
  1  2  1  0
  2  3  1  0
  3  4  2  0
  3  5  1  0
  5  6  1  0
  6  7  2  0
  7  8  1  0
  8  9  2  0
  9 10  1  0
 10 11  2  0
 11 12  1  0
 12 13  1  0
 13 14  2  0
 12 15  1  0
 11 16  1  0
 10 17  1  0
  8 18  1  0
  7 19  1  0
  5 20  1  0
  2 21  1  0
 21 22  2  0
 22 23  1  0
 23 24  2  0
 24 25  1  0
 25 26  2  0
 26 27  1  0
 24 28  1  0
 23 29  1  0
 22 30  1  0
  2 31  1  0
  1 32  1  0
  1 33  1  0
  1 34  1  0
 14  6  1  0
 26 21  1  0
 13  9  1  0
M  END
>  <cnnaffinity>  (1) 
5.17136

>  <plip>  (1) 
-0.07142857142857142

>  <filename>  (1) 
[H][c]1[n][c]([H])[c]([C]([H])([C](=[O])[N]([H])[c]2[n][c]3[c]([c]([H])[c]2[H])[c]([H])[c]([H])[n]3[H])[C]([H])([H])[H])[c]([H])[c]1[H]

>  <combo1>  (1) 
-0.46235737746191974

$$$$
