
     RDKit          3D

 41 43  0  0  0  0  0  0  0  0999 V2000
    9.2344    1.6203   25.1798 C   0  0  0  0  0  0  0  0  0  0  0  0
    8.2467    0.9828   26.1349 C   0  0  0  0  0  0  0  0  0  0  0  0
    8.0602    1.5466   27.4047 C   0  0  0  0  0  0  0  0  0  0  0  0
    7.3381    0.8865   28.4037 C   0  0  0  0  0  0  0  0  0  0  0  0
    6.7416   -0.3418   28.1163 C   0  0  0  0  0  0  0  0  0  0  0  0
    6.8540   -0.8805   26.8294 C   0  0  0  0  0  0  0  0  0  0  0  0
    7.5668   -0.2167   25.8158 C   0  0  0  0  0  0  0  0  0  0  0  0
    7.6639   -0.8368   24.4285 C   0  0  0  0  0  0  0  0  0  0  0  0
    8.7309   -1.9443   24.3143 C   0  0  0  0  0  0  0  0  0  0  0  0
    8.8639   -2.5326   22.9045 C   0  0  0  0  0  0  0  0  0  0  0  0
    9.3830   -1.5497   21.9547 N   0  0  0  0  0  0  0  0  0  0  0  0
   10.6833   -1.1169   21.9078 C   0  0  0  0  0  0  0  0  0  0  0  0
   10.8263   -0.1061   21.1097 N   0  0  0  0  0  0  0  0  0  0  0  0
    9.5802    0.1693   20.5773 N   0  0  0  0  0  0  0  0  0  0  0  0
    8.7439   -0.6895   21.0965 C   0  0  0  0  0  0  0  0  0  0  0  0
    7.3802   -0.7953   20.8673 N   0  0  0  0  0  0  0  0  0  0  0  0
    6.7093   -0.0608   19.8532 C   0  0  0  0  0  0  0  0  0  0  0  0
    5.4901    0.5623   20.1439 C   0  0  0  0  0  0  0  0  0  0  0  0
    4.8325    1.2565   19.1203 C   0  0  0  0  0  0  0  0  0  0  0  0
    5.3975    1.2931   17.8408 C   0  0  0  0  0  0  0  0  0  0  0  0
    6.5581    0.6881   17.5353 N   0  0  0  0  0  0  0  0  0  0  0  0
    7.1960    0.0454   18.5235 C   0  0  0  0  0  0  0  0  0  0  0  0
    8.1573   -0.4061   18.2897 H   0  0  0  0  0  0  0  0  0  0  0  0
    4.9068    1.8304   17.0316 H   0  0  0  0  0  0  0  0  0  0  0  0
    3.9044    1.7830   19.3114 H   0  0  0  0  0  0  0  0  0  0  0  0
    5.0828    0.5259   21.1559 H   0  0  0  0  0  0  0  0  0  0  0  0
    6.8856   -0.8332   21.7489 H   0  0  0  0  0  0  0  0  0  0  0  0
   11.4815   -1.5915   22.4659 H   0  0  0  0  0  0  0  0  0  0  0  0
    9.5633   -3.3810   22.9109 H   0  0  0  0  0  0  0  0  0  0  0  0
    7.9054   -2.9096   22.5248 H   0  0  0  0  0  0  0  0  0  0  0  0
    8.5114   -2.7625   25.0103 H   0  0  0  0  0  0  0  0  0  0  0  0
    9.7073   -1.5384   24.6200 H   0  0  0  0  0  0  0  0  0  0  0  0
    7.8835   -0.0539   23.6871 H   0  0  0  0  0  0  0  0  0  0  0  0
    6.6841   -1.2558   24.1557 H   0  0  0  0  0  0  0  0  0  0  0  0
    6.3876   -1.8376   26.6025 H   0  0  0  0  0  0  0  0  0  0  0  0
    6.2041   -0.8820   28.8938 H   0  0  0  0  0  0  0  0  0  0  0  0
    7.2761    1.3203   29.4004 H   0  0  0  0  0  0  0  0  0  0  0  0
    8.5153    2.5118   27.6098 H   0  0  0  0  0  0  0  0  0  0  0  0
    8.7565    2.1512   24.3478 H   0  0  0  0  0  0  0  0  0  0  0  0
    9.8822    0.8459   24.7492 H   0  0  0  0  0  0  0  0  0  0  0  0
    9.8759    2.3431   25.6934 H   0  0  0  0  0  0  0  0  0  0  0  0
  1  2  1  0
  2  3  2  0
  3  4  1  0
  4  5  2  0
  5  6  1  0
  6  7  2  0
  7  8  1  0
  8  9  1  0
  9 10  1  0
 10 11  1  0
 11 12  1  0
 12 13  2  0
 13 14  1  0
 14 15  2  0
 15 16  1  0
 16 17  1  0
 17 18  2  0
 18 19  1  0
 19 20  2  0
 20 21  1  0
 21 22  2  0
 22 23  1  0
 20 24  1  0
 19 25  1  0
 18 26  1  0
 16 27  1  0
 12 28  1  0
 10 29  1  0
 10 30  1  0
  9 31  1  0
  9 32  1  0
  8 33  1  0
  8 34  1  0
  6 35  1  0
  5 36  1  0
  4 37  1  0
  3 38  1  0
  1 39  1  0
  1 40  1  0
  1 41  1  0
  7  2  1  0
 15 11  1  0
 22 17  1  0
M  END
>  <cnnaffinity>  (1) 
5.27155

>  <plip>  (1) 
-0.10714285714285714

>  <filename>  (1) 
[H][c]1[n][c]([H])[c]([N]([H])[c]2[n][n][c]([H])[n]2[C]([H])([H])[C]([H])([H])[C]([H])([H])[c]2[c]([H])[c]([H])[c]([H])[c]([H])[c]2[C]([H])([H])[H])[c]([H])[c]1[H]

>  <combo1>  (1) 
-0.6417393595108739

$$$$
