
     RDKit          3D

 38 40  0  0  0  0  0  0  0  0999 V2000
   10.6544   -0.7715   22.4444 C   0  0  0  0  0  0  0  0  0  0  0  0
    9.9269   -0.4946   21.1439 C   0  0  0  0  0  0  0  0  0  0  0  0
    8.5959    0.0770   21.3624 N   0  0  0  0  0  0  0  0  0  0  0  0
    7.4039   -0.6819   20.9995 C   0  0  0  0  0  0  0  0  0  0  0  0
    6.6354   -0.0008   19.8995 C   0  0  0  0  0  0  0  0  0  0  0  0
    5.4262    0.6507   20.1539 C   0  0  0  0  0  0  0  0  0  0  0  0
    4.7981    1.3155   19.0995 C   0  0  0  0  0  0  0  0  0  0  0  0
    5.4002    1.2934   17.8373 C   0  0  0  0  0  0  0  0  0  0  0  0
    6.5646    0.6789   17.5775 N   0  0  0  0  0  0  0  0  0  0  0  0
    7.1647    0.0652   18.6027 C   0  0  0  0  0  0  0  0  0  0  0  0
    8.1136   -0.4189   18.3704 H   0  0  0  0  0  0  0  0  0  0  0  0
    4.9176    1.7817   16.9938 H   0  0  0  0  0  0  0  0  0  0  0  0
    3.8672    1.8499   19.2512 H   0  0  0  0  0  0  0  0  0  0  0  0
    5.0063    0.6341   21.1656 H   0  0  0  0  0  0  0  0  0  0  0  0
    7.7209   -1.6785   20.6621 H   0  0  0  0  0  0  0  0  0  0  0  0
    6.7737   -0.8152   21.8855 H   0  0  0  0  0  0  0  0  0  0  0  0
    8.5384    1.4009   21.7735 C   0  0  0  0  0  0  0  0  0  0  0  0
    9.4298    2.1842   21.4657 O   0  0  0  0  0  0  0  0  0  0  0  0
    7.3544    1.9059   22.6309 C   0  0  0  0  0  0  0  0  0  0  0  0
    6.9519    3.2321   22.5501 C   0  0  0  0  0  0  0  0  0  0  0  0
    5.8836    3.6626   23.3731 C   0  0  0  0  0  0  0  0  0  0  0  0
    5.3682    4.9941   23.3600 C   0  0  0  0  0  0  0  0  0  0  0  0
    4.3165    5.3335   24.1841 C   0  0  0  0  0  0  0  0  0  0  0  0
    3.7361    4.3611   25.0595 C   0  0  0  0  0  0  0  0  0  0  0  0
    4.2169    3.0710   25.0989 C   0  0  0  0  0  0  0  0  0  0  0  0
    5.3096    2.6913   24.2558 C   0  0  0  0  0  0  0  0  0  0  0  0
    5.7867    1.3969   24.3031 N   0  0  0  0  0  0  0  0  0  0  0  0
    6.7514    1.0229   23.5144 N   0  0  0  0  0  0  0  0  0  0  0  0
    3.7965    2.3118   25.7550 H   0  0  0  0  0  0  0  0  0  0  0  0
    2.9050    4.6659   25.6965 H   0  0  0  0  0  0  0  0  0  0  0  0
    3.9228    6.3492   24.1659 H   0  0  0  0  0  0  0  0  0  0  0  0
    5.8246    5.7187   22.6806 H   0  0  0  0  0  0  0  0  0  0  0  0
    7.4356    3.9444   21.8808 H   0  0  0  0  0  0  0  0  0  0  0  0
   10.5047    0.2260   20.5816 H   0  0  0  0  0  0  0  0  0  0  0  0
    9.8314   -1.4110   20.5512 H   0  0  0  0  0  0  0  0  0  0  0  0
   10.0689   -1.4484   23.0685 H   0  0  0  0  0  0  0  0  0  0  0  0
   11.6328   -1.2214   22.2475 H   0  0  0  0  0  0  0  0  0  0  0  0
   10.8142    0.1654   22.9854 H   0  0  0  0  0  0  0  0  0  0  0  0
  1  2  1  0
  2  3  1  0
  3  4  1  0
  4  5  1  0
  5  6  2  0
  6  7  1  0
  7  8  2  0
  8  9  1  0
  9 10  2  0
 10 11  1  0
  8 12  1  0
  7 13  1  0
  6 14  1  0
  4 15  1  0
  4 16  1  0
  3 17  1  0
 17 18  2  0
 17 19  1  0
 19 20  2  0
 20 21  1  0
 21 22  2  0
 22 23  1  0
 23 24  2  0
 24 25  1  0
 25 26  2  0
 26 27  1  0
 27 28  2  0
 25 29  1  0
 24 30  1  0
 23 31  1  0
 22 32  1  0
 20 33  1  0
  2 34  1  0
  2 35  1  0
  1 36  1  0
  1 37  1  0
  1 38  1  0
 10  5  1  0
 28 19  1  0
 26 21  1  0
M  END
>  <cnnaffinity>  (1) 
5.18659

>  <plip>  (1) 
-0.10714285714285714

>  <filename>  (1) 
[H][c]1[n][c]([H])[c]([C]([H])([H])[N]([C](=[O])[c]2[n][n][c]3[c]([H])[c]([H])[c]([H])[c]([H])[c]3[c]2[H])[C]([H])([H])[C]([H])([H])[H])[c]([H])[c]1[H]

>  <combo1>  (1) 
-0.6336255383860591

$$$$
