
     RDKit          3D

 41 43  0  0  0  0  0  0  0  0999 V2000
    9.5214    2.6861   20.9136 O   0  0  0  0  0  0  0  0  0  0  0  0
    8.1816    2.5380   21.3646 C   0  0  0  0  0  0  0  0  0  0  0  0
    8.1865    1.3023   22.2521 C   0  0  0  0  0  0  0  0  0  0  0  0
    8.5861    0.0447   21.4569 N   0  0  0  0  0  4  0  0  0  0  0  0
    7.3705   -0.7297   20.9588 C   0  0  0  0  0  0  0  0  0  0  0  0
    6.6361    0.0033   19.8831 C   0  0  0  0  0  0  0  0  0  0  0  0
    5.4229    0.6569   20.1342 C   0  0  0  0  0  0  0  0  0  0  0  0
    4.7949    1.3259   19.0824 C   0  0  0  0  0  0  0  0  0  0  0  0
    5.3973    1.3109   17.8202 C   0  0  0  0  0  0  0  0  0  0  0  0
    6.5635    0.6968   17.5713 N   0  0  0  0  0  0  0  0  0  0  0  0
    7.1672    0.0760   18.5898 C   0  0  0  0  0  0  0  0  0  0  0  0
    8.1254   -0.3950   18.3623 H   0  0  0  0  0  0  0  0  0  0  0  0
    4.9284    1.8068   16.9703 H   0  0  0  0  0  0  0  0  0  0  0  0
    3.8616    1.8600   19.2236 H   0  0  0  0  0  0  0  0  0  0  0  0
    4.9923    0.6563   21.1381 H   0  0  0  0  0  0  0  0  0  0  0  0
    6.7141   -0.9122   21.8155 H   0  0  0  0  0  0  0  0  0  0  0  0
    7.7154   -1.7152   20.6238 H   0  0  0  0  0  0  0  0  0  0  0  0
    9.5150   -0.8674   22.2577 C   0  0  0  0  0  0  0  0  0  0  0  0
    8.8862   -1.4856   23.4849 C   0  0  0  0  0  0  0  0  0  0  0  0
    9.0342   -0.8461   24.7674 C   0  0  0  0  0  0  0  0  0  0  0  0
    8.4769   -1.3070   25.8664 N   0  0  0  0  0  0  0  0  0  0  0  0
    7.7240   -2.4520   25.7271 C   0  0  0  0  0  0  0  0  0  0  0  0
    7.1002   -2.9933   26.8728 C   0  0  0  0  0  0  0  0  0  0  0  0
    6.3377   -4.1396   26.7646 C   0  0  0  0  0  0  0  0  0  0  0  0
    6.1507   -4.7618   25.4968 C   0  0  0  0  0  0  0  0  0  0  0  0
    6.7455   -4.2452   24.3617 C   0  0  0  0  0  0  0  0  0  0  0  0
    7.5704   -3.0991   24.4607 C   0  0  0  0  0  0  0  0  0  0  0  0
    8.2057   -2.6151   23.3397 N   0  0  0  0  0  0  0  0  0  0  0  0
    6.6295   -4.6605   23.3649 H   0  0  0  0  0  0  0  0  0  0  0  0
    5.5369   -5.6576   25.4292 H   0  0  0  0  0  0  0  0  0  0  0  0
    5.8700   -4.5777   27.6426 H   0  0  0  0  0  0  0  0  0  0  0  0
    7.2816   -2.4163   27.7699 H   0  0  0  0  0  0  0  0  0  0  0  0
    9.6405    0.0544   24.8535 H   0  0  0  0  0  0  0  0  0  0  0  0
    9.8333   -1.6991   21.6237 H   0  0  0  0  0  0  0  0  0  0  0  0
   10.4007   -0.3080   22.5708 H   0  0  0  0  0  0  0  0  0  0  0  0
    9.0556    0.4537   20.6104 H   0  0  0  0  0  0  0  0  0  0  0  0
    7.2017    1.1394   22.6996 H   0  0  0  0  0  0  0  0  0  0  0  0
    8.9233    1.4608   23.0451 H   0  0  0  0  0  0  0  0  0  0  0  0
    7.4791    2.3783   20.5342 H   0  0  0  0  0  0  0  0  0  0  0  0
    7.8220    3.3959   21.9435 H   0  0  0  0  0  0  0  0  0  0  0  0
    9.7039    3.5928   20.5967 H   0  0  0  0  0  0  0  0  0  0  0  0
  1  2  1  0
  2  3  1  0
  3  4  1  0
  4  5  1  0
  5  6  1  0
  6  7  2  0
  7  8  1  0
  8  9  2  0
  9 10  1  0
 10 11  2  0
 11 12  1  0
  9 13  1  0
  8 14  1  0
  7 15  1  0
  5 16  1  0
  5 17  1  0
  4 18  1  0
 18 19  1  0
 19 20  2  0
 20 21  1  0
 21 22  2  0
 22 23  1  0
 23 24  2  0
 24 25  1  0
 25 26  2  0
 26 27  1  0
 27 28  2  0
 26 29  1  0
 25 30  1  0
 24 31  1  0
 23 32  1  0
 20 33  1  0
 18 34  1  0
 18 35  1  0
  4 36  1  0
  3 37  1  0
  3 38  1  0
  2 39  1  0
  2 40  1  0
  1 41  1  0
 11  6  1  0
 28 19  1  0
 27 22  1  0
M  CHG  1   4   1
M  END
>  <cnnaffinity>  (1) 
5.03149

>  <plip>  (1) 
-0.10344827586206896

>  <filename>  (1) 
[H][O][C]([H])([H])[C]([H])([H])[N+]([H])([C]([H])([H])[c]1[n][c]2[c]([H])[c]([H])[c]([H])[c]([H])[c]2[n][c]1[H])[C]([H])([H])[c]1[c]([H])[n][c]([H])[c]([H])[c]1[H]

>  <combo1>  (1) 
-0.5874056430747409

$$$$
