
     RDKit          3D

 37 39  0  0  0  0  0  0  0  0999 V2000
    4.8165    1.2987   19.1183 C   0  0  0  0  0  0  0  0  0  0  0  0
    5.4020    1.2870   17.8534 C   0  0  0  0  0  0  0  0  0  0  0  0
    6.5667    0.6693   17.5921 N   0  0  0  0  0  0  0  0  0  0  0  0
    7.1760    0.0475   18.6017 C   0  0  0  0  0  0  0  0  0  0  0  0
    6.6663   -0.0019   19.9194 C   0  0  0  0  0  0  0  0  0  0  0  0
    7.4269   -0.6856   20.8139 O   0  0  0  0  0  0  0  0  0  0  0  0
    7.0527   -0.7464   22.1832 C   0  0  0  0  0  0  0  0  0  0  0  0
    7.3818    0.5797   22.8997 C   0  0  0  0  0  0  0  0  0  0  0  0
    6.9060    0.6082   24.3144 N   0  0  0  0  0  4  0  0  0  0  0  0
    7.6777   -0.3220   25.2561 C   0  0  0  0  0  0  0  0  0  0  0  0
    7.2313   -0.0679   26.6502 C   0  0  0  0  0  0  0  0  0  0  0  0
    7.6885    0.8340   27.5402 C   0  0  0  0  0  0  0  0  0  0  0  0
    6.9154    0.6467   28.7393 C   0  0  0  0  0  0  0  0  0  0  0  0
    6.9008    1.2468   30.0081 C   0  0  0  0  0  0  0  0  0  0  0  0
    5.9844    0.7848   30.9433 C   0  0  0  0  0  0  0  0  0  0  0  0
    5.0935   -0.2642   30.6330 C   0  0  0  0  0  0  0  0  0  0  0  0
    5.0925   -0.8785   29.3792 C   0  0  0  0  0  0  0  0  0  0  0  0
    6.0214   -0.3943   28.4505 C   0  0  0  0  0  0  0  0  0  0  0  0
    6.2114   -0.8321   27.1694 O   0  0  0  0  0  0  0  0  0  0  0  0
    4.4150   -1.6892   29.1350 H   0  0  0  0  0  0  0  0  0  0  0  0
    4.3959   -0.6007   31.3966 H   0  0  0  0  0  0  0  0  0  0  0  0
    5.9569    1.2364   31.9322 H   0  0  0  0  0  0  0  0  0  0  0  0
    7.5988    2.0461   30.2342 H   0  0  0  0  0  0  0  0  0  0  0  0
    8.4861    1.5428   27.3747 H   0  0  0  0  0  0  0  0  0  0  0  0
    8.7488   -0.1132   25.1723 H   0  0  0  0  0  0  0  0  0  0  0  0
    7.5186   -1.3685   24.9911 H   0  0  0  0  0  0  0  0  0  0  0  0
    6.9415    1.5559   24.7618 H   0  0  0  0  0  0  0  0  0  0  0  0
    5.8982    0.2985   24.3894 H   0  0  0  0  0  0  0  0  0  0  0  0
    6.9793    1.4220   22.3275 H   0  0  0  0  0  0  0  0  0  0  0  0
    8.4741    0.6860   22.8631 H   0  0  0  0  0  0  0  0  0  0  0  0
    7.6441   -1.5774   22.5868 H   0  0  0  0  0  0  0  0  0  0  0  0
    5.9917   -1.0086   22.2695 H   0  0  0  0  0  0  0  0  0  0  0  0
    5.4509    0.6425   20.1825 C   0  0  0  0  0  0  0  0  0  0  0  0
    5.0245    0.6383   21.1843 H   0  0  0  0  0  0  0  0  0  0  0  0
    8.1263   -0.4452   18.4018 H   0  0  0  0  0  0  0  0  0  0  0  0
    4.9366    1.7887   17.0101 H   0  0  0  0  0  0  0  0  0  0  0  0
    3.8849    1.8295   19.2606 H   0  0  0  0  0  0  0  0  0  0  0  0
  1  2  2  0
  2  3  1  0
  3  4  2  0
  4  5  1  0
  5  6  1  0
  6  7  1  0
  7  8  1  0
  8  9  1  0
  9 10  1  0
 10 11  1  0
 11 12  2  0
 12 13  1  0
 13 14  2  0
 14 15  1  0
 15 16  2  0
 16 17  1  0
 17 18  2  0
 18 19  1  0
 17 20  1  0
 16 21  1  0
 15 22  1  0
 14 23  1  0
 12 24  1  0
 10 25  1  0
 10 26  1  0
  9 27  1  0
  9 28  1  0
  8 29  1  0
  8 30  1  0
  7 31  1  0
  7 32  1  0
  5 33  2  0
 33 34  1  0
  4 35  1  0
  2 36  1  0
  1 37  1  0
 33  1  1  0
 19 11  1  0
 18 13  1  0
M  CHG  1   9   1
M  END
>  <cnnaffinity>  (1) 
4.15443

>  <plip>  (1) 
-0.07142857142857142

>  <filename>  (1) 
[H][c]1[n][c]([H])[c]([O][C]([H])([H])[C]([H])([H])[N+]([H])([H])[C]([H])([H])[c]2[o][c]3[c]([H])[c]([H])[c]([H])[c]([H])[c]3[c]2[H])[c]([H])[c]1[H]

>  <combo1>  (1) 
-0.3672713905927432

$$$$
