
     RDKit          3D

 26 27  0  0  0  0  0  0  0  0999 V2000
    8.8951    0.3169   21.3810 H   0  0  0  0  0  0  0  0  0  0  0  0
    8.7011   -0.5421   20.9630 O   0  0  0  0  0  0  0  0  0  0  0  0
    7.3070   -0.6695   20.9960 N   0  0  0  0  0  0  0  0  0  0  0  0
    6.7687   -1.6829   21.8253 C   0  0  0  0  0  0  0  0  0  0  0  0
    5.6412   -2.2885   21.4299 N   0  0  0  0  0  0  0  0  0  0  0  0
    5.0360   -3.1010   22.3030 C   0  0  0  0  0  0  0  0  0  0  0  0
    4.0824   -3.5038   21.9618 H   0  0  0  0  0  0  0  0  0  0  0  0
    5.5060   -3.3799   23.5968 C   0  0  0  0  0  0  0  0  0  0  0  0
    4.7057   -4.2007   24.5790 C   0  0  0  0  0  0  0  0  0  0  0  0
    4.1527   -3.5588   25.2760 H   0  0  0  0  0  0  0  0  0  0  0  0
    5.3523   -4.8489   25.1832 H   0  0  0  0  0  0  0  0  0  0  0  0
    3.9673   -4.8344   24.0748 H   0  0  0  0  0  0  0  0  0  0  0  0
    6.7660   -2.8376   23.9351 C   0  0  0  0  0  0  0  0  0  0  0  0
    7.2233   -3.0769   24.8981 H   0  0  0  0  0  0  0  0  0  0  0  0
    7.4130   -1.9903   23.0460 C   0  0  0  0  0  0  0  0  0  0  0  0
    8.3752   -1.5244   23.2431 H   0  0  0  0  0  0  0  0  0  0  0  0
    6.6421   -0.0061   19.9237 C   0  0  0  0  0  0  0  0  0  0  0  0
    7.1889    0.0551   18.6185 C   0  0  0  0  0  0  0  0  0  0  0  0
    8.1450   -0.4158   18.4055 H   0  0  0  0  0  0  0  0  0  0  0  0
    6.5872    0.6693   17.5916 N   0  0  0  0  0  0  0  0  0  0  0  0
    5.4221    1.2976   17.8254 C   0  0  0  0  0  0  0  0  0  0  0  0
    4.9673    1.7924   16.9692 H   0  0  0  0  0  0  0  0  0  0  0  0
    4.8058    1.3253   19.0828 C   0  0  0  0  0  0  0  0  0  0  0  0
    3.8709    1.8660   19.2147 H   0  0  0  0  0  0  0  0  0  0  0  0
    5.4242    0.6610   20.1469 C   0  0  0  0  0  0  0  0  0  0  0  0
    4.9881    0.6536   21.1457 H   0  0  0  0  0  0  0  0  0  0  0  0
  1  2  1  0
  2  3  1  0
  3  4  1  0
  4  5  2  0
  5  6  1  0
  6  7  1  0
  6  8  2  0
  8  9  1  0
  9 10  1  0
  9 11  1  0
  9 12  1  0
  8 13  1  0
 13 14  1  0
 13 15  2  0
 15 16  1  0
  3 17  1  0
 17 18  2  0
 18 19  1  0
 18 20  1  0
 20 21  2  0
 21 22  1  0
 21 23  1  0
 23 24  1  0
 23 25  2  0
 25 26  1  0
 15  4  1  0
 25 17  1  0
M  END
>  <cnnaffinity>  (1) 
4.3095

>  <plip>  (1) 
-0.10344827586206896

>  <filename>  (1) 
[H][O][N]([c]1[n][c]([H])[c]([C]([H])([H])[H])[c]([H])[c]1[H])[c]1[c]([H])[n][c]([H])[c]([H])[c]1[H]

>  <combo1>  (1) 
-0.7384792861658215

$$$$
