
     RDKit          3D

 32 33  0  0  0  0  0  0  0  0999 V2000
    8.0746    3.2560   25.9973 H   0  0  0  0  0  0  0  0  0  0  0  0
    8.1870    2.6643   25.0913 C   0  0  0  0  0  0  0  0  0  0  0  0
    9.1126    1.7027   25.1573 N   0  0  0  0  0  0  0  0  0  0  0  0
    9.3058    0.9268   24.0987 C   0  0  0  0  0  0  0  0  0  0  0  0
   10.2294   -0.0500   24.1858 O   0  0  0  0  0  0  0  0  0  0  0  0
   10.8917   -0.2402   25.4374 C   0  0  0  0  0  0  0  0  0  0  0  0
   11.4975   -1.1205   25.2967 H   0  0  0  0  0  0  0  0  0  0  0  0
   11.5203    0.6178   25.6739 H   0  0  0  0  0  0  0  0  0  0  0  0
   10.1676   -0.3665   26.2463 H   0  0  0  0  0  0  0  0  0  0  0  0
    8.5464    1.0441   22.8716 C   0  0  0  0  0  0  0  0  0  0  0  0
    8.6823    0.2353   21.6797 N   0  0  0  0  0  0  0  0  0  0  0  0
    9.9826    0.2429   21.0173 C   0  0  0  0  0  0  0  0  0  0  0  0
   10.7649   -0.0737   21.7157 H   0  0  0  0  0  0  0  0  0  0  0  0
    9.9755   -0.4460   20.1720 H   0  0  0  0  0  0  0  0  0  0  0  0
   10.2102    1.2502   20.6503 H   0  0  0  0  0  0  0  0  0  0  0  0
    7.5078   -0.8614   21.1544 S   0  0  0  0  0  0  0  0  0  0  0  0
    6.6009   -1.1593   22.2371 O   0  0  0  0  0  0  0  0  0  0  0  0
    8.2454   -1.8923   20.4552 O   0  0  0  0  0  0  0  0  0  0  0  0
    6.6369    0.0495   19.9607 C   0  0  0  0  0  0  0  0  0  0  0  0
    7.2067    0.0333   18.6989 C   0  0  0  0  0  0  0  0  0  0  0  0
    8.1222   -0.5234   18.5019 H   0  0  0  0  0  0  0  0  0  0  0  0
    6.6319    0.6422   17.6653 N   0  0  0  0  0  0  0  0  0  0  0  0
    5.4666    1.2783   17.8677 C   0  0  0  0  0  0  0  0  0  0  0  0
    5.0204    1.7688   17.0019 H   0  0  0  0  0  0  0  0  0  0  0  0
    4.8237    1.3144   19.1107 C   0  0  0  0  0  0  0  0  0  0  0  0
    3.8814    1.8363   19.2188 H   0  0  0  0  0  0  0  0  0  0  0  0
    5.4215    0.6879   20.2011 C   0  0  0  0  0  0  0  0  0  0  0  0
    4.9605    0.6706   21.1908 H   0  0  0  0  0  0  0  0  0  0  0  0
    7.6246    2.0854   22.8382 C   0  0  0  0  0  0  0  0  0  0  0  0
    7.0809    2.2283   21.9074 H   0  0  0  0  0  0  0  0  0  0  0  0
    7.4277    2.9037   23.9623 C   0  0  0  0  0  0  0  0  0  0  0  0
    6.7066    3.7086   23.9498 H   0  0  0  0  0  0  0  0  0  0  0  0
  1  2  1  0
  2  3  2  0
  3  4  1  0
  4  5  1  0
  5  6  1  0
  6  7  1  0
  6  8  1  0
  6  9  1  0
  4 10  2  0
 10 11  1  0
 11 12  1  0
 12 13  1  0
 12 14  1  0
 12 15  1  0
 11 16  1  0
 16 17  2  0
 16 18  2  0
 16 19  1  0
 19 20  2  0
 20 21  1  0
 20 22  1  0
 22 23  2  0
 23 24  1  0
 23 25  1  0
 25 26  1  0
 25 27  2  0
 27 28  1  0
 10 29  1  0
 29 30  1  0
 29 31  2  0
 31 32  1  0
 31  2  1  0
 27 19  1  0
M  END
>  <cnnaffinity>  (1) 
4.45337

>  <plip>  (1) 
-0.034482758620689655

>  <filename>  (1) 
[H][c]1[n][c]([O][C]([H])([H])[H])[c]([N]([C]([H])([H])[H])[S](=[O])(=[O])[c]2[c]([H])[n][c]([H])[c]([H])[c]2[H])[c]([H])[c]1[H]

>  <combo1>  (1) 
-0.1832592641424749

$$$$
