
     RDKit          3D

 52 54  0  0  0  0  0  0  0  0999 V2000
    3.9390   -6.7682   25.2471 C   0  0  0  0  0  0  0  0  0  0  0  0
    4.7291   -5.7116   24.5106 C   0  0  0  0  0  0  0  0  0  0  0  0
    4.8489   -4.4054   25.0210 C   0  0  0  0  0  0  0  0  0  0  0  0
    5.5868   -3.4198   24.3564 C   0  0  0  0  0  0  0  0  0  0  0  0
    6.2436   -3.7497   23.1635 C   0  0  0  0  0  0  0  0  0  0  0  0
    6.1751   -5.0634   22.6768 C   0  0  0  0  0  0  0  0  0  0  0  0
    5.3937   -6.0204   23.3149 C   0  0  0  0  0  0  0  0  0  0  0  0
    5.2873   -7.0128   22.8781 H   0  0  0  0  0  0  0  0  0  0  0  0
    7.0407   -5.2520   21.4544 C   0  0  0  0  0  0  0  0  0  0  0  0
    7.5008   -3.8179   21.1140 C   0  0  0  0  0  0  0  0  0  0  0  0
    7.1540   -2.9005   22.3140 C   0  0  0  0  0  0  0  0  0  0  0  0
    6.4883   -1.6363   21.8504 N   0  0  0  0  0  4  0  0  0  0  0  0
    7.3275   -0.6547   21.1075 C   0  0  0  0  0  0  0  0  0  0  0  0
    7.9368    0.3430   22.0999 C   0  0  0  0  0  0  0  0  0  0  0  0
    8.9462    1.3085   21.4972 C   0  0  0  0  0  0  0  0  0  0  0  0
    9.6571    2.0669   22.5998 N   0  0  0  0  0  4  0  0  0  0  0  0
   10.9790    2.5990   22.1531 C   0  0  0  0  0  0  0  0  0  0  0  0
   11.3474    3.3435   22.8615 H   0  0  0  0  0  0  0  0  0  0  0  0
   11.7248    1.7997   22.0797 H   0  0  0  0  0  0  0  0  0  0  0  0
   10.8920    3.0828   21.1736 H   0  0  0  0  0  0  0  0  0  0  0  0
    8.7823    3.1533   23.1667 C   0  0  0  0  0  0  0  0  0  0  0  0
    7.9459    2.7240   23.7241 H   0  0  0  0  0  0  0  0  0  0  0  0
    9.3542    3.8030   23.8353 H   0  0  0  0  0  0  0  0  0  0  0  0
    8.3677    3.7782   22.3669 H   0  0  0  0  0  0  0  0  0  0  0  0
    9.8385    1.3650   23.3506 H   0  0  0  0  0  0  0  0  0  0  0  0
    8.4668    2.0318   20.8260 H   0  0  0  0  0  0  0  0  0  0  0  0
    9.7055    0.7800   20.9067 H   0  0  0  0  0  0  0  0  0  0  0  0
    7.1146    0.8850   22.5841 H   0  0  0  0  0  0  0  0  0  0  0  0
    8.4508   -0.2391   22.8758 H   0  0  0  0  0  0  0  0  0  0  0  0
    6.5276   -0.0204   19.9820 C   0  0  0  0  0  0  0  0  0  0  0  0
    5.3112    0.6643   20.1537 C   0  0  0  0  0  0  0  0  0  0  0  0
    4.7618    1.3418   19.0613 C   0  0  0  0  0  0  0  0  0  0  0  0
    5.4242    1.3028   17.8320 C   0  0  0  0  0  0  0  0  0  0  0  0
    6.5620    0.6222   17.6319 N   0  0  0  0  0  0  0  0  0  0  0  0
    7.0757   -0.0190   18.6876 C   0  0  0  0  0  0  0  0  0  0  0  0
    7.9945   -0.5745   18.4924 H   0  0  0  0  0  0  0  0  0  0  0  0
    5.0161    1.8197   16.9630 H   0  0  0  0  0  0  0  0  0  0  0  0
    3.8332    1.8973   19.1480 H   0  0  0  0  0  0  0  0  0  0  0  0
    4.8080    0.6765   21.1231 H   0  0  0  0  0  0  0  0  0  0  0  0
    8.1646   -1.1842   20.6317 H   0  0  0  0  0  0  0  0  0  0  0  0
    5.7087   -1.9446   21.2192 H   0  0  0  0  0  0  0  0  0  0  0  0
    6.0261   -1.1770   22.6796 H   0  0  0  0  0  0  0  0  0  0  0  0
    8.0669   -2.6419   22.8661 H   0  0  0  0  0  0  0  0  0  0  0  0
    8.5669   -3.7627   20.8711 H   0  0  0  0  0  0  0  0  0  0  0  0
    6.9183   -3.4526   20.2590 H   0  0  0  0  0  0  0  0  0  0  0  0
    7.8848   -5.9182   21.6678 H   0  0  0  0  0  0  0  0  0  0  0  0
    6.4852   -5.7092   20.6264 H   0  0  0  0  0  0  0  0  0  0  0  0
    5.6518   -2.4114   24.7638 H   0  0  0  0  0  0  0  0  0  0  0  0
    4.3644   -4.1627   25.9619 H   0  0  0  0  0  0  0  0  0  0  0  0
    4.5652   -7.3291   25.9510 H   0  0  0  0  0  0  0  0  0  0  0  0
    3.4979   -7.5008   24.5640 H   0  0  0  0  0  0  0  0  0  0  0  0
    3.1222   -6.3330   25.8291 H   0  0  0  0  0  0  0  0  0  0  0  0
  1  2  1  0
  2  3  2  0
  3  4  1  0
  4  5  2  0
  5  6  1  0
  6  7  2  0
  7  8  1  0
  6  9  1  0
  9 10  1  0
 10 11  1  0
 11 12  1  0
 12 13  1  0
 13 14  1  0
 14 15  1  0
 15 16  1  0
 16 17  1  0
 17 18  1  0
 17 19  1  0
 17 20  1  0
 16 21  1  0
 21 22  1  0
 21 23  1  0
 21 24  1  0
 16 25  1  0
 15 26  1  0
 15 27  1  0
 14 28  1  0
 14 29  1  0
 13 30  1  0
 30 31  2  0
 31 32  1  0
 32 33  2  0
 33 34  1  0
 34 35  2  0
 35 36  1  0
 33 37  1  0
 32 38  1  0
 31 39  1  0
 13 40  1  0
 12 41  1  0
 12 42  1  0
 11 43  1  0
 10 44  1  0
 10 45  1  0
  9 46  1  0
  9 47  1  0
  4 48  1  0
  3 49  1  0
  1 50  1  0
  1 51  1  0
  1 52  1  0
  7  2  1  0
 35 30  1  0
 11  5  1  0
M  CHG  2  12   1  16   1
M  END
>  <cnnaffinity>  (1) 
4.90381

>  <plip>  (1) 
-0.10714285714285714

>  <filename>  (1) 
[H][c]1[n][c]([H])[c]([C]([H])([C]([H])([H])[C]([H])([H])[N+]([H])([C]([H])([H])[H])[C]([H])([H])[H])[N+]([H])([H])[C]2([H])[c]3[c]([H])[c]([H])[c]([C]([H])([H])[H])[c]([H])[c]3[C]([H])([H])[C]2([H])[H])[c]([H])[c]1[H]

>  <combo1>  (1) 
-0.5622833164626518

$$$$
