
     RDKit          3D

 46 48  0  0  0  0  0  0  0  0999 V2000
    4.7988    1.3204   19.0967 C   0  0  0  0  0  0  0  0  0  0  0  0
    5.3922    1.3020   17.8298 C   0  0  0  0  0  0  0  0  0  0  0  0
    6.5590    0.6933   17.5689 N   0  0  0  0  0  0  0  0  0  0  0  0
    7.1590    0.0659   18.5866 C   0  0  0  0  0  0  0  0  0  0  0  0
    6.6430   -0.0084   19.8922 C   0  0  0  0  0  0  0  0  0  0  0  0
    7.4084   -0.7172   20.9836 C   0  0  0  0  0  0  0  0  0  0  0  0
    8.6182    0.0880   21.4682 C   0  0  0  0  0  0  0  0  0  0  0  0
    8.2590    1.4390   22.0098 N   0  0  0  0  0  4  0  0  0  0  0  0
    7.5025    1.3423   23.3383 C   0  0  0  0  0  0  0  0  0  0  0  0
    7.1867    2.7169   23.9039 C   0  0  0  0  0  0  0  0  0  0  0  0
    8.4398    3.5660   24.0913 N   0  0  0  0  0  4  0  0  0  0  0  0
    8.1158    4.9221   24.6332 C   0  0  1  0  0  0  0  0  0  0  0  0
    7.4225    4.8731   25.9853 C   0  0  0  0  0  0  0  0  0  0  0  0
    7.7417    6.2039   26.6823 C   0  0  0  0  0  0  0  0  0  0  0  0
    9.0076    6.7460   25.9840 N   0  0  0  0  0  4  0  0  0  0  0  0
    9.3662    5.7644   24.8733 C   0  0  0  0  0  0  0  0  0  0  0  0
    9.6858    6.2631   23.9575 H   0  0  0  0  0  0  0  0  0  0  0  0
   10.1609    5.0713   25.1649 H   0  0  0  0  0  0  0  0  0  0  0  0
    9.7949    6.8490   26.6658 H   0  0  0  0  0  0  0  0  0  0  0  0
    8.8126    7.6938   25.5639 H   0  0  0  0  0  0  0  0  0  0  0  0
    7.9157    6.0683   27.7531 H   0  0  0  0  0  0  0  0  0  0  0  0
    6.9155    6.9159   26.5776 H   0  0  0  0  0  0  0  0  0  0  0  0
    7.8125    4.0097   26.5385 H   0  0  0  0  0  0  0  0  0  0  0  0
    6.3455    4.7149   25.8732 H   0  0  0  0  0  0  0  0  0  0  0  0
    7.4718    5.4324   23.9048 H   0  0  0  0  0  0  0  0  0  0  0  0
    9.1921    3.6521   22.7684 C   0  0  0  0  0  0  0  0  0  0  0  0
    9.5073    2.2805   22.1990 C   0  0  0  0  0  0  0  0  0  0  0  0
   10.1719    1.7635   22.9057 H   0  0  0  0  0  0  0  0  0  0  0  0
   10.0433    2.3923   21.2500 H   0  0  0  0  0  0  0  0  0  0  0  0
    8.5674    4.1929   22.0456 H   0  0  0  0  0  0  0  0  0  0  0  0
   10.1232    4.2112   22.8913 H   0  0  0  0  0  0  0  0  0  0  0  0
    9.0435    3.0834   24.7988 H   0  0  0  0  0  0  0  0  0  0  0  0
    6.5188    3.2375   23.2052 H   0  0  0  0  0  0  0  0  0  0  0  0
    6.6601    2.6065   24.8566 H   0  0  0  0  0  0  0  0  0  0  0  0
    6.5743    0.7814   23.2039 H   0  0  0  0  0  0  0  0  0  0  0  0
    8.1275    0.8031   24.0628 H   0  0  0  0  0  0  0  0  0  0  0  0
    7.6267    1.8914   21.2910 H   0  0  0  0  0  0  0  0  0  0  0  0
    9.3166    0.2244   20.6348 H   0  0  0  0  0  0  0  0  0  0  0  0
    9.1543   -0.4761   22.2464 H   0  0  0  0  0  0  0  0  0  0  0  0
    6.7489   -0.9321   21.8331 H   0  0  0  0  0  0  0  0  0  0  0  0
    7.7844   -1.6819   20.6222 H   0  0  0  0  0  0  0  0  0  0  0  0
    5.4362    0.6542   20.1457 C   0  0  0  0  0  0  0  0  0  0  0  0
    5.0142    0.6384   21.1574 H   0  0  0  0  0  0  0  0  0  0  0  0
    8.1105   -0.4176   18.3634 H   0  0  0  0  0  0  0  0  0  0  0  0
    4.9136    1.7921   16.9840 H   0  0  0  0  0  0  0  0  0  0  0  0
    3.8666    1.8494   19.2466 H   0  0  0  0  0  0  0  0  0  0  0  0
  1  2  2  0
  2  3  1  0
  3  4  2  0
  4  5  1  0
  5  6  1  0
  6  7  1  0
  7  8  1  0
  8  9  1  0
  9 10  1  0
 10 11  1  0
 11 12  1  0
 12 13  1  0
 13 14  1  0
 14 15  1  0
 15 16  1  0
 16 17  1  0
 16 18  1  0
 15 19  1  0
 15 20  1  0
 14 21  1  0
 14 22  1  0
 13 23  1  0
 13 24  1  0
 12 25  1  6
 11 26  1  0
 26 27  1  0
 27 28  1  0
 27 29  1  0
 26 30  1  0
 26 31  1  0
 11 32  1  0
 10 33  1  0
 10 34  1  0
  9 35  1  0
  9 36  1  0
  8 37  1  0
  7 38  1  0
  7 39  1  0
  6 40  1  0
  6 41  1  0
  5 42  2  0
 42 43  1  0
  4 44  1  0
  2 45  1  0
  1 46  1  0
 42  1  1  0
 27  8  1  0
 16 12  1  0
M  CHG  3   8   1  11   1  15   1
M  END
>  <cnnaffinity>  (1) 
3.79437

>  <plip>  (1) 
-0.07142857142857142

>  <filename>  (1) 
[H][c]1[n][c]([H])[c]([C]([H])([H])[C]([H])([H])[N+]2([H])[C]([H])([H])[C]([H])([H])[N+]([H])([C@@]3([H])[C]([H])([H])[C]([H])([H])[N+]([H])([H])[C]3([H])[H])[C]([H])([H])[C]2([H])[H])[c]([H])[c]1[H]

>  <combo1>  (1) 
-0.34297287813682453

$$$$
