
     RDKit          3D

 21 22  0  0  0  0  0  0  0  0999 V2000
    4.9521    1.7792   17.0340 H   0  0  0  0  0  0  0  0  0  0  0  0
    5.4300    1.2669   17.8647 C   0  0  0  0  0  0  0  0  0  0  0  0
    6.5914    0.6518   17.5882 N   0  0  0  0  0  0  0  0  0  0  0  0
    7.2208    0.0248   18.5866 C   0  0  0  0  0  0  0  0  0  0  0  0
    8.1671   -0.4415   18.3195 H   0  0  0  0  0  0  0  0  0  0  0  0
    6.7184   -0.0362   19.9078 C   0  0  0  0  0  0  0  0  0  0  0  0
    7.2971   -0.6837   21.0405 N   0  0  0  0  0  0  0  0  0  0  0  0
    8.3992   -1.2330   20.8148 N   0  0  0  0  0  0  0  0  0  0  0  0
    8.9616   -1.8343   21.8997 N   0  0  0  0  0  0  0  0  0  0  0  0
    8.5024   -1.9815   23.2029 C   0  0  0  0  0  0  0  0  0  0  0  0
    7.5670   -1.5049   23.4369 H   0  0  0  0  0  0  0  0  0  0  0  0
    9.4429   -2.6994   23.8873 C   0  0  0  0  0  0  0  0  0  0  0  0
    9.4064   -2.9829   24.9332 H   0  0  0  0  0  0  0  0  0  0  0  0
   10.5148   -2.9955   22.9840 C   0  0  0  0  0  0  0  0  0  0  0  0
   11.3986   -3.5714   23.2207 H   0  0  0  0  0  0  0  0  0  0  0  0
   10.1921   -2.4383   21.7776 C   0  0  0  0  0  0  0  0  0  0  0  0
   10.6800   -2.3499   20.8228 H   0  0  0  0  0  0  0  0  0  0  0  0
    5.5030    0.6106   20.1721 C   0  0  0  0  0  0  0  0  0  0  0  0
    5.1042    0.5809   21.1858 H   0  0  0  0  0  0  0  0  0  0  0  0
    4.8497    1.2731   19.1350 C   0  0  0  0  0  0  0  0  0  0  0  0
    3.9155    1.7997   19.2993 H   0  0  0  0  0  0  0  0  0  0  0  0
  1  2  1  0
  2  3  2  0
  3  4  1  0
  4  5  1  0
  4  6  2  0
  6  7  1  0
  7  8  2  3
  8  9  1  0
  9 10  1  0
 10 11  1  0
 10 12  2  0
 12 13  1  0
 12 14  1  0
 14 15  1  0
 14 16  2  0
 16 17  1  0
  6 18  1  0
 18 19  1  0
 18 20  2  0
 20 21  1  0
 20  2  1  0
 16  9  1  0
M  END
>  <cnnaffinity>  (1) 
4.1881

>  <plip>  (1) 
-0.06896551724137931

>  <filename>  (1) 
[H][c]1[n][c]([H])[c]([N]=[N][n]2[c]([H])[c]([H])[c]([H])[c]2[H])[c]([H])[c]1[H]

>  <combo1>  (1) 
-0.5591358486769936

$$$$
