
     RDKit          3D

 33 36  0  0  0  0  0  0  0  0999 V2000
    9.3005   -5.0111   27.6264 C   0  0  0  0  0  0  0  0  0  0  0  0
    9.8764   -4.3464   26.6195 C   0  0  0  0  0  0  0  0  0  0  0  0
    8.8364   -3.6591   25.8422 C   0  0  0  0  0  0  0  0  0  0  0  0
    8.9215   -2.8819   24.6970 C   0  0  0  0  0  0  0  0  0  0  0  0
    7.7555   -2.4536   24.0461 C   0  0  0  0  0  0  0  0  0  0  0  0
    7.8492   -1.7564   22.7469 C   0  0  0  0  0  0  0  0  0  0  0  0
    6.8433   -1.1626   22.0178 C   0  0  0  0  0  0  0  0  0  0  0  0
    7.3781   -0.6566   20.8795 N   0  0  0  0  0  0  0  0  0  0  0  0
    6.6912    0.0352   19.8480 C   0  0  0  0  0  0  0  0  0  0  0  0
    5.4844    0.7011   20.1009 C   0  0  0  0  0  0  0  0  0  0  0  0
    4.8447    1.3361   19.0359 C   0  0  0  0  0  0  0  0  0  0  0  0
    5.4392    1.3013   17.7695 C   0  0  0  0  0  0  0  0  0  0  0  0
    6.6001    0.6713   17.5211 N   0  0  0  0  0  0  0  0  0  0  0  0
    7.2080    0.0573   18.5414 C   0  0  0  0  0  0  0  0  0  0  0  0
    8.1437   -0.4462   18.3216 H   0  0  0  0  0  0  0  0  0  0  0  0
    4.9668    1.7936   16.9237 H   0  0  0  0  0  0  0  0  0  0  0  0
    3.9038    1.8589   19.1777 H   0  0  0  0  0  0  0  0  0  0  0  0
    5.0635    0.7393   21.1074 H   0  0  0  0  0  0  0  0  0  0  0  0
    8.6978   -0.9146   20.7969 N   0  0  0  0  0  0  0  0  0  0  0  0
    8.9878   -1.5631   21.9082 C   0  0  0  0  0  0  0  0  0  0  0  0
   10.0030   -1.8960   22.0730 H   0  0  0  0  0  0  0  0  0  0  0  0
    5.7816   -1.0870   22.1854 H   0  0  0  0  0  0  0  0  0  0  0  0
    6.5054   -2.7445   24.6411 C   0  0  0  0  0  0  0  0  0  0  0  0
    6.4149   -3.4721   25.8329 C   0  0  0  0  0  0  0  0  0  0  0  0
    7.5847   -3.9549   26.4150 C   0  0  0  0  0  0  0  0  0  0  0  0
    7.7976   -4.8859   27.5803 C   0  0  0  0  0  0  0  0  0  0  0  0
    7.3259   -5.8675   27.4107 H   0  0  0  0  0  0  0  0  0  0  0  0
    7.4032   -4.5169   28.5331 H   0  0  0  0  0  0  0  0  0  0  0  0
    5.4449   -3.6516   26.2910 H   0  0  0  0  0  0  0  0  0  0  0  0
    5.5812   -2.3920   24.1891 H   0  0  0  0  0  0  0  0  0  0  0  0
    9.8926   -2.6087   24.3024 H   0  0  0  0  0  0  0  0  0  0  0  0
   10.9364   -4.3045   26.3786 H   0  0  0  0  0  0  0  0  0  0  0  0
    9.7934   -5.6088   28.3819 H   0  0  0  0  0  0  0  0  0  0  0  0
  1  2  2  0
  2  3  1  0
  3  4  2  0
  4  5  1  0
  5  6  1  0
  6  7  2  0
  7  8  1  0
  8  9  1  0
  9 10  2  0
 10 11  1  0
 11 12  2  0
 12 13  1  0
 13 14  2  0
 14 15  1  0
 12 16  1  0
 11 17  1  0
 10 18  1  0
  8 19  1  0
 19 20  2  0
 20 21  1  0
  7 22  1  0
  5 23  2  0
 23 24  1  0
 24 25  2  0
 25 26  1  0
 26 27  1  0
 26 28  1  0
 24 29  1  0
 23 30  1  0
  4 31  1  0
  2 32  1  0
  1 33  1  0
 26  1  1  0
 25  3  1  0
 20  6  1  0
 14  9  1  0
M  END
>  <cnnaffinity>  (1) 
5.25403

>  <plip>  (1) 
-0.03571428571428571

>  <filename>  (1) 
[H][C]1=[C]([H])[C]([H])([H])[c]2[c]([H])[c]([H])[c](-[c]3[c]([H])[n][n](-[c]4[c]([H])[n][c]([H])[c]([H])[c]4[H])[c]3[H])[c]([H])[c]21

>  <combo1>  (1) 
-0.24120741111277608

$$$$
