
     RDKit          3D

 43 45  0  0  0  0  0  0  0  0999 V2000
    6.6279    0.8009   23.5945 O   0  0  0  0  0  0  0  0  0  0  0  0
    7.0655    1.7356   22.9332 C   0  0  0  0  0  0  0  0  0  0  0  0
    7.9222    1.5751   21.8925 N   0  0  0  0  0  0  0  0  0  0  0  0
    8.4236    0.2853   21.4627 C   0  0  0  0  0  0  0  0  0  0  0  0
    7.3164   -0.6507   20.9453 C   0  0  0  0  0  0  0  0  0  0  0  0
    6.5519   -0.0416   19.8083 C   0  0  0  0  0  0  0  0  0  0  0  0
    5.3521    0.6326   20.0551 C   0  0  0  0  0  0  0  0  0  0  0  0
    4.7467    1.3208   19.0039 C   0  0  0  0  0  0  0  0  0  0  0  0
    5.3702    1.3234   17.7522 C   0  0  0  0  0  0  0  0  0  0  0  0
    6.5117    0.6698   17.4891 N   0  0  0  0  0  0  0  0  0  0  0  0
    7.0843    0.0134   18.5087 C   0  0  0  0  0  0  0  0  0  0  0  0
    8.0271   -0.4900   18.2851 H   0  0  0  0  0  0  0  0  0  0  0  0
    4.9369    1.8867   16.9275 H   0  0  0  0  0  0  0  0  0  0  0  0
    3.8280    1.8718   19.1545 H   0  0  0  0  0  0  0  0  0  0  0  0
    4.9305    0.6342   21.0647 H   0  0  0  0  0  0  0  0  0  0  0  0
    7.7815   -1.5906   20.6185 H   0  0  0  0  0  0  0  0  0  0  0  0
    6.6489   -0.8621   21.7874 H   0  0  0  0  0  0  0  0  0  0  0  0
    9.2195   -0.3945   22.5684 C   0  0  0  0  0  0  0  0  0  0  0  0
    9.8936   -1.6831   22.0881 C   0  0  0  0  0  0  0  0  0  0  0  0
   11.0415   -1.9254   23.0657 C   0  0  0  0  0  0  0  0  0  0  0  0
   11.3053   -0.5582   23.7669 C   0  0  0  0  0  0  0  0  0  0  0  0
   10.3688    0.4558   23.1112 C   0  0  0  0  0  0  0  0  0  0  0  0
   10.0153    1.2135   23.8215 H   0  0  0  0  0  0  0  0  0  0  0  0
   10.8864    0.9725   22.2881 H   0  0  0  0  0  0  0  0  0  0  0  0
   11.0799   -0.6512   24.8364 H   0  0  0  0  0  0  0  0  0  0  0  0
   12.3538   -0.2486   23.6914 H   0  0  0  0  0  0  0  0  0  0  0  0
   11.9307   -2.3133   22.5553 H   0  0  0  0  0  0  0  0  0  0  0  0
   10.7629   -2.6779   23.8137 H   0  0  0  0  0  0  0  0  0  0  0  0
   10.2783   -1.5317   21.0681 H   0  0  0  0  0  0  0  0  0  0  0  0
    9.1845   -2.5188   22.0689 H   0  0  0  0  0  0  0  0  0  0  0  0
    8.5381   -0.6291   23.4000 H   0  0  0  0  0  0  0  0  0  0  0  0
    9.1104    0.5080   20.6349 H   0  0  0  0  0  0  0  0  0  0  0  0
    8.4202    2.4162   21.6288 H   0  0  0  0  0  0  0  0  0  0  0  0
    6.6562    3.2004   23.1792 C   0  0  0  0  0  0  0  0  0  0  0  0
    7.5272    4.1787   22.8180 N   0  0  0  0  0  0  0  0  0  0  0  0
    7.2187    5.4515   23.0563 C   0  0  0  0  0  0  0  0  0  0  0  0
    6.0158    5.8300   23.6621 C   0  0  0  0  0  0  0  0  0  0  0  0
    5.0869    4.8511   24.0088 C   0  0  0  0  0  0  0  0  0  0  0  0
    5.4064    3.5172   23.7449 C   0  0  0  0  0  0  0  0  0  0  0  0
    4.2073    2.3210   24.1078 Cl  0  0  0  0  0  0  0  0  0  0  0  0
    4.1270    5.0955   24.4649 H   0  0  0  0  0  0  0  0  0  0  0  0
    5.8125    6.8732   23.8452 H   0  0  0  0  0  0  0  0  0  0  0  0
    7.9531    6.1924   22.7466 H   0  0  0  0  0  0  0  0  0  0  0  0
  1  2  2  0
  2  3  1  0
  3  4  1  0
  4  5  1  0
  5  6  1  0
  6  7  2  0
  7  8  1  0
  8  9  2  0
  9 10  1  0
 10 11  2  0
 11 12  1  0
  9 13  1  0
  8 14  1  0
  7 15  1  0
  5 16  1  0
  5 17  1  0
  4 18  1  0
 18 19  1  0
 19 20  1  0
 20 21  1  0
 21 22  1  0
 22 23  1  0
 22 24  1  0
 21 25  1  0
 21 26  1  0
 20 27  1  0
 20 28  1  0
 19 29  1  0
 19 30  1  0
 18 31  1  0
  4 32  1  0
  3 33  1  0
  2 34  1  0
 34 35  2  0
 35 36  1  0
 36 37  2  0
 37 38  1  0
 38 39  2  0
 39 40  1  0
 38 41  1  0
 37 42  1  0
 36 43  1  0
 11  6  1  0
 22 18  1  0
 39 34  1  0
M  END
>  <cnnaffinity>  (1) 
5.79459

>  <plip>  (1) 
-0.06896551724137931

>  <filename>  (1) 
[H][c]1[n][c]([C](=[O])[N]([H])[C]([H])([C]([H])([H])[c]2[c]([H])[n][c]([H])[c]([H])[c]2[H])[C]2([H])[C]([H])([H])[C]([H])([H])[C]([H])([H])[C]2([H])[H])[c]([Cl])[c]([H])[c]1[H]

>  <combo1>  (1) 
-0.4038703624499861

$$$$
