
     RDKit          3D

 35 37  0  0  0  0  0  0  0  0999 V2000
    5.1281   -2.8307   21.9910 H   0  0  0  0  0  0  0  0  0  0  0  0
    5.4783   -2.2104   21.2644 N   0  0  0  0  0  0  0  0  0  0  0  0
    6.6057   -1.7664   21.6276 C   0  0  0  0  0  0  0  0  0  0  0  0
    7.5096   -2.2375   23.0856 S   0  0  0  0  0  0  0  0  0  0  0  0
    8.7857   -1.1259   22.6828 C   0  0  0  0  0  0  0  0  0  0  0  0
    9.6165   -0.9653   23.3402 H   0  0  0  0  0  0  0  0  0  0  0  0
    8.5425   -0.5037   21.5089 C   0  0  0  0  0  0  0  0  0  0  0  0
    9.2995    0.3715   20.8512 O   0  0  0  0  0  0  0  0  0  0  0  0
   10.6053    0.7448   21.3516 C   0  0  0  0  0  0  0  0  0  0  0  0
   10.9549    1.4236   20.5728 H   0  0  0  0  0  0  0  0  0  0  0  0
   11.5808   -0.4478   21.4287 C   0  0  0  0  0  0  0  0  0  0  0  0
   11.0786   -1.3566   21.7700 H   0  0  0  0  0  0  0  0  0  0  0  0
   11.9128   -0.6791   20.4137 H   0  0  0  0  0  0  0  0  0  0  0  0
   12.7831   -0.1407   22.3590 C   0  0  0  0  0  0  0  0  0  0  0  0
   13.6822   -0.6896   22.0485 H   0  0  0  0  0  0  0  0  0  0  0  0
   12.5527   -0.4747   23.3772 H   0  0  0  0  0  0  0  0  0  0  0  0
   13.1167    1.2774   22.4611 N   0  0  0  0  0  0  0  0  0  0  0  0
   13.4149    1.6059   21.5465 H   0  0  0  0  0  0  0  0  0  0  0  0
   12.0077    2.1258   22.9279 C   0  0  0  0  0  0  0  0  0  0  0  0
   12.1184    3.1022   22.4386 H   0  0  0  0  0  0  0  0  0  0  0  0
   12.1187    2.3122   24.0057 H   0  0  0  0  0  0  0  0  0  0  0  0
   10.5833    1.5775   22.6375 C   0  0  0  0  0  0  0  0  0  0  0  0
   10.2045    1.0002   23.4877 H   0  0  0  0  0  0  0  0  0  0  0  0
    9.8925    2.4139   22.5127 H   0  0  0  0  0  0  0  0  0  0  0  0
    7.3303   -0.8170   20.9024 N   0  0  0  0  0  0  0  0  0  0  0  0
    6.6941   -0.0598   19.8366 C   0  0  0  0  0  0  0  0  0  0  0  0
    7.2270    0.0435   18.5338 C   0  0  0  0  0  0  0  0  0  0  0  0
    8.1760   -0.4296   18.2897 H   0  0  0  0  0  0  0  0  0  0  0  0
    6.6173    0.6979   17.5339 N   0  0  0  0  0  0  0  0  0  0  0  0
    5.4544    1.3156   17.8000 C   0  0  0  0  0  0  0  0  0  0  0  0
    4.9811    1.8419   16.9722 H   0  0  0  0  0  0  0  0  0  0  0  0
    4.8592    1.3025   19.0655 C   0  0  0  0  0  0  0  0  0  0  0  0
    3.9278    1.8306   19.2307 H   0  0  0  0  0  0  0  0  0  0  0  0
    5.4813    0.5921   20.0975 C   0  0  0  0  0  0  0  0  0  0  0  0
    5.0498    0.5156   21.0920 H   0  0  0  0  0  0  0  0  0  0  0  0
  1  2  1  0
  2  3  2  3
  3  4  1  0
  4  5  1  0
  5  6  1  0
  5  7  2  0
  7  8  1  0
  8  9  1  0
  9 10  1  0
  9 11  1  0
 11 12  1  0
 11 13  1  0
 11 14  1  0
 14 15  1  0
 14 16  1  0
 14 17  1  0
 17 18  1  0
 17 19  1  0
 19 20  1  0
 19 21  1  0
 19 22  1  0
 22 23  1  0
 22 24  1  0
  7 25  1  0
 25 26  1  0
 26 27  2  0
 27 28  1  0
 27 29  1  0
 29 30  2  0
 30 31  1  0
 30 32  1  0
 32 33  1  0
 32 34  2  0
 34 35  1  0
 25  3  1  0
 34 26  1  0
 22  9  1  0
M  END
>  <cnnaffinity>  (1) 
4.46854

>  <plip>  (1) 
-0.13793103448275862

>  <filename>  (1) 
[H][N]=[c]1[s][c]([H])[c]([O][C]2([H])[C]([H])([H])[C]([H])([H])[N]([H])[C]([H])([H])[C]2([H])[H])[n]1-[c]1[c]([H])[n][c]([H])[c]([H])[c]1[H]

>  <combo1>  (1) 
-0.7434013530748419

$$$$
