
     RDKit          3D

 35 37  0  0  0  0  0  0  0  0999 V2000
    8.7200   -0.5674   21.0480 C   0  0  0  0  0  0  0  0  0  0  0  0
    7.3920   -0.6196   20.9128 C   0  0  0  0  0  0  0  0  0  0  0  0
    6.6709    0.0795   19.8185 C   0  0  0  0  0  0  0  0  0  0  0  0
    5.4388    0.7189   20.0404 C   0  0  0  0  0  0  0  0  0  0  0  0
    4.8075    1.3701   18.9825 C   0  0  0  0  0  0  0  0  0  0  0  0
    5.4176    1.3564   17.7248 C   0  0  0  0  0  0  0  0  0  0  0  0
    6.5865    0.7400   17.4779 N   0  0  0  0  0  0  0  0  0  0  0  0
    7.1871    0.1308   18.5060 C   0  0  0  0  0  0  0  0  0  0  0  0
    8.1185   -0.3836   18.2708 H   0  0  0  0  0  0  0  0  0  0  0  0
    4.9465    1.8482   16.8766 H   0  0  0  0  0  0  0  0  0  0  0  0
    3.8586    1.8795   19.1197 H   0  0  0  0  0  0  0  0  0  0  0  0
    4.9916    0.7113   21.0354 H   0  0  0  0  0  0  0  0  0  0  0  0
    6.5094   -1.3462   21.9247 C   0  0  0  0  0  0  0  0  0  0  0  0
    7.2867   -2.3962   22.6967 N   0  0  0  0  0  4  0  0  0  0  0  0
    6.5296   -3.1901   23.7499 C   0  0  0  0  0  0  0  0  0  0  0  0
    7.3301   -4.4028   24.1649 C   0  0  0  0  0  0  0  0  0  0  0  0
    7.7730   -4.8104   25.3925 C   0  0  0  0  0  0  0  0  0  0  0  0
    8.5319   -5.9368   25.1486 N   0  0  0  0  0  0  0  0  0  0  0  0
    8.5076   -6.1628   23.8105 C   0  0  0  0  0  0  0  0  0  0  0  0
    7.7905   -5.2606   23.1907 N   0  0  0  0  0  0  0  0  0  0  0  0
    8.9850   -7.0276   23.3577 H   0  0  0  0  0  0  0  0  0  0  0  0
    9.0768   -6.4576   25.8193 H   0  0  0  0  0  0  0  0  0  0  0  0
    7.6390   -4.3774   26.3727 H   0  0  0  0  0  0  0  0  0  0  0  0
    5.5749   -3.5276   23.3318 H   0  0  0  0  0  0  0  0  0  0  0  0
    6.3118   -2.5770   24.6303 H   0  0  0  0  0  0  0  0  0  0  0  0
    8.5756   -1.7855   23.2621 C   0  0  0  0  0  0  0  0  0  0  0  0
    9.4655   -1.3425   22.1084 C   0  0  0  0  0  0  0  0  0  0  0  0
   10.2891   -0.7474   22.5093 H   0  0  0  0  0  0  0  0  0  0  0  0
    9.9137   -2.2274   21.6411 H   0  0  0  0  0  0  0  0  0  0  0  0
    8.3004   -0.9451   23.9073 H   0  0  0  0  0  0  0  0  0  0  0  0
    9.0746   -2.5397   23.8752 H   0  0  0  0  0  0  0  0  0  0  0  0
    7.5938   -3.1306   22.0053 H   0  0  0  0  0  0  0  0  0  0  0  0
    5.6585   -1.7935   21.4041 H   0  0  0  0  0  0  0  0  0  0  0  0
    6.1008   -0.6096   22.6279 H   0  0  0  0  0  0  0  0  0  0  0  0
    9.3170    0.0365   20.3598 H   0  0  0  0  0  0  0  0  0  0  0  0
  1  2  2  0
  2  3  1  0
  3  4  2  0
  4  5  1  0
  5  6  2  0
  6  7  1  0
  7  8  2  0
  8  9  1  0
  6 10  1  0
  5 11  1  0
  4 12  1  0
  2 13  1  0
 13 14  1  0
 14 15  1  0
 15 16  1  0
 16 17  2  0
 17 18  1  0
 18 19  1  0
 19 20  2  0
 19 21  1  0
 18 22  1  0
 17 23  1  0
 15 24  1  0
 15 25  1  0
 14 26  1  0
 26 27  1  0
 27 28  1  0
 27 29  1  0
 26 30  1  0
 26 31  1  0
 14 32  1  0
 13 33  1  0
 13 34  1  0
  1 35  1  0
 27  1  1  0
  8  3  1  0
 20 16  1  0
M  CHG  1  14   1
M  END
>  <cnnaffinity>  (1) 
4.90507

>  <plip>  (1) 
-0.10344827586206896

>  <filename>  (1) 
[H][C]1=[C]([c]2[c]([H])[n][c]([H])[c]([H])[c]2[H])[C]([H])([H])[N+]([H])([C]([H])([H])[c]2[n][c]([H])[n]([H])[c]2[H])[C]([H])([H])[C]1([H])[H]

>  <combo1>  (1) 
-0.7009023149022708

$$$$
