
     RDKit          3D

 33 33  0  0  0  0  0  0  0  0999 V2000
    7.0157    1.4227   27.0521 C   0  0  0  0  0  0  0  0  0  0  0  0
    7.0405    1.0167   25.7799 C   0  0  0  0  0  0  0  0  0  0  0  0
    6.7120   -0.3887   25.3460 C   0  0  0  0  0  0  0  0  0  0  0  0
    7.8378   -1.0350   24.6621 N   0  0  0  0  0  0  0  0  0  0  0  0
    8.9820   -1.4198   25.5012 C   0  0  0  0  0  0  0  0  0  0  0  0
   10.0429   -0.3003   25.5817 C   0  0  0  0  0  0  0  0  0  0  0  0
   10.8453   -0.1358   24.3661 C   0  0  0  0  0  0  0  0  0  0  0  0
   11.4940    0.0220   23.4242 N   0  0  0  0  0  0  0  0  0  0  0  0
    9.5525    0.6615   25.7587 H   0  0  0  0  0  0  0  0  0  0  0  0
   10.7187   -0.4694   26.4259 H   0  0  0  0  0  0  0  0  0  0  0  0
    8.6087   -1.6034   26.5145 H   0  0  0  0  0  0  0  0  0  0  0  0
    9.4185   -2.3559   25.1310 H   0  0  0  0  0  0  0  0  0  0  0  0
    7.9686   -1.1583   23.2986 C   0  0  0  0  0  0  0  0  0  0  0  0
    8.8234   -1.8979   22.8178 O   0  0  0  0  0  0  0  0  0  0  0  0
    7.0240   -0.2911   22.3272 C   0  0  0  0  0  0  0  0  0  0  0  0
    6.2930    0.6022   22.7216 O   0  0  0  0  0  0  0  0  0  0  0  0
    7.1636   -0.6291   21.0032 N   0  0  0  0  0  0  0  0  0  0  0  0
    6.5720    0.0103   19.8800 C   0  0  0  0  0  0  0  0  0  0  0  0
    5.3825    0.7451   20.0042 C   0  0  0  0  0  0  0  0  0  0  0  0
    4.8585    1.3541   18.8560 C   0  0  0  0  0  0  0  0  0  0  0  0
    5.5311    1.2199   17.6384 C   0  0  0  0  0  0  0  0  0  0  0  0
    6.6655    0.5138   17.5023 N   0  0  0  0  0  0  0  0  0  0  0  0
    7.1691   -0.0694   18.5978 C   0  0  0  0  0  0  0  0  0  0  0  0
    8.1057   -0.6117   18.4568 H   0  0  0  0  0  0  0  0  0  0  0  0
    5.1464    1.6943   16.7385 H   0  0  0  0  0  0  0  0  0  0  0  0
    3.9602    1.9644   18.9035 H   0  0  0  0  0  0  0  0  0  0  0  0
    4.9118    0.8554   20.9786 H   0  0  0  0  0  0  0  0  0  0  0  0
    7.9399   -1.2554   20.8337 H   0  0  0  0  0  0  0  0  0  0  0  0
    6.4638   -1.0057   26.2229 H   0  0  0  0  0  0  0  0  0  0  0  0
    5.8342   -0.3854   24.6973 H   0  0  0  0  0  0  0  0  0  0  0  0
    7.3408    1.6906   24.9715 H   0  0  0  0  0  0  0  0  0  0  0  0
    7.2779    2.4357   27.3388 H   0  0  0  0  0  0  0  0  0  0  0  0
    6.7217    0.7616   27.8691 H   0  0  0  0  0  0  0  0  0  0  0  0
  1  2  2  3
  2  3  1  0
  3  4  1  0
  4  5  1  0
  5  6  1  0
  6  7  1  0
  7  8  3  0
  6  9  1  0
  6 10  1  0
  5 11  1  0
  5 12  1  0
  4 13  1  0
 13 14  2  0
 13 15  1  0
 15 16  2  0
 15 17  1  0
 17 18  1  0
 18 19  2  0
 19 20  1  0
 20 21  2  0
 21 22  1  0
 22 23  2  0
 23 24  1  0
 21 25  1  0
 20 26  1  0
 19 27  1  0
 17 28  1  0
  3 29  1  0
  3 30  1  0
  2 31  1  0
  1 32  1  0
  1 33  1  0
 23 18  1  0
M  END
>  <cnnaffinity>  (1) 
4.73738

>  <plip>  (1) 
-0.06896551724137931

>  <filename>  (1) 
[H][C]([H])=[C]([H])[C]([H])([H])[N]([C](=[O])[C](=[O])[N]([H])[c]1[c]([H])[n][c]([H])[c]([H])[c]1[H])[C]([H])([H])[C]([H])([H])[C]#[N]

>  <combo1>  (1) 
-0.42165427327725163

$$$$
