
     RDKit          3D

 33 35  0  0  0  0  0  0  0  0999 V2000
    4.9110    1.8261   16.9535 H   0  0  0  0  0  0  0  0  0  0  0  0
    5.4039    1.3251   17.7834 C   0  0  0  0  0  0  0  0  0  0  0  0
    6.5630    0.7157   17.4976 N   0  0  0  0  0  0  0  0  0  0  0  0
    7.2111    0.0858   18.4866 C   0  0  0  0  0  0  0  0  0  0  0  0
    8.1663   -0.3784   18.2431 H   0  0  0  0  0  0  0  0  0  0  0  0
    6.7079    0.0232   19.8000 C   0  0  0  0  0  0  0  0  0  0  0  0
    7.2699   -0.7174   20.8392 O   0  0  0  0  0  0  0  0  0  0  0  0
    8.5869   -0.8078   21.0383 C   0  0  0  0  0  0  0  0  0  0  0  0
    9.5747   -0.1493   20.4780 N   0  0  0  0  0  0  0  0  0  0  0  0
   10.6989   -0.6074   21.0958 N   0  0  0  0  0  0  0  0  0  0  0  0
   10.4271   -1.5010   21.9678 N   0  0  0  0  0  0  0  0  0  0  0  0
    9.0843   -1.6488   21.9798 N   0  0  0  0  0  0  0  0  0  0  0  0
    8.5388   -2.6705   22.7553 N   0  0  0  0  0  0  0  0  0  0  0  0
    9.2938   -3.1707   23.2197 H   0  0  0  0  0  0  0  0  0  0  0  0
    7.4092   -2.4299   23.5841 C   0  0  0  0  0  0  0  0  0  0  0  0
    7.1021   -1.1850   24.1453 C   0  0  0  0  0  0  0  0  0  0  0  0
    7.7780   -0.3510   23.9824 H   0  0  0  0  0  0  0  0  0  0  0  0
    5.9435   -1.0299   24.9211 C   0  0  0  0  0  0  0  0  0  0  0  0
    5.7080   -0.0645   25.3564 H   0  0  0  0  0  0  0  0  0  0  0  0
    5.0755   -2.1138   25.1176 C   0  0  0  0  0  0  0  0  0  0  0  0
    3.9032   -2.0512   25.8121 O   0  0  0  0  0  0  0  0  0  0  0  0
    3.2219   -0.8121   25.8735 C   0  0  0  0  0  0  0  0  0  0  0  0
    3.2237   -0.2914   24.9091 H   0  0  0  0  0  0  0  0  0  0  0  0
    2.1893   -1.0470   26.1328 H   0  0  0  0  0  0  0  0  0  0  0  0
    3.6559   -0.1479   26.6328 H   0  0  0  0  0  0  0  0  0  0  0  0
    5.4115   -3.3752   24.5958 C   0  0  0  0  0  0  0  0  0  0  0  0
    4.7568   -4.2100   24.8071 H   0  0  0  0  0  0  0  0  0  0  0  0
    6.5784   -3.5323   23.8511 C   0  0  0  0  0  0  0  0  0  0  0  0
    6.8735   -4.4978   23.4478 H   0  0  0  0  0  0  0  0  0  0  0  0
    5.4965    0.6529   20.0930 C   0  0  0  0  0  0  0  0  0  0  0  0
    5.0986    0.6140   21.1065 H   0  0  0  0  0  0  0  0  0  0  0  0
    4.8326    1.3203   19.0610 C   0  0  0  0  0  0  0  0  0  0  0  0
    3.8943    1.8372   19.2320 H   0  0  0  0  0  0  0  0  0  0  0  0
  1  2  1  0
  2  3  2  0
  3  4  1  0
  4  5  1  0
  4  6  2  0
  6  7  1  0
  7  8  1  0
  8  9  2  0
  9 10  1  0
 10 11  2  0
 11 12  1  0
 12 13  1  0
 13 14  1  0
 13 15  1  0
 15 16  2  0
 16 17  1  0
 16 18  1  0
 18 19  1  0
 18 20  2  0
 20 21  1  0
 21 22  1  0
 22 23  1  0
 22 24  1  0
 22 25  1  0
 20 26  1  0
 26 27  1  0
 26 28  2  0
 28 29  1  0
  6 30  1  0
 30 31  1  0
 30 32  2  0
 32 33  1  0
 32  2  1  0
 12  8  1  0
 28 15  1  0
M  END
>  <cnnaffinity>  (1) 
4.70369

>  <plip>  (1) 
-0.06896551724137931

>  <filename>  (1) 
[H][c]1[n][c]([H])[c]([O][c]2[n][n][n][n]2[N]([H])[c]2[c]([H])[c]([H])[c]([O][C]([H])([H])[H])[c]([H])[c]2[H])[c]([H])[c]1[H]

>  <combo1>  (1) 
-0.3803685977427145

$$$$
