
     RDKit          3D

 36 39  0  0  0  0  0  0  0  0999 V2000
    4.7933    1.3212   19.0894 C   0  0  0  0  0  0  0  0  0  0  0  0
    5.3941    1.3022   17.8228 C   0  0  0  0  0  0  0  0  0  0  0  0
    6.5541    0.6838   17.5529 N   0  0  0  0  0  0  0  0  0  0  0  0
    7.1573    0.0693   18.5772 C   0  0  0  0  0  0  0  0  0  0  0  0
    6.6549    0.0399   19.8870 C   0  0  0  0  0  0  0  0  0  0  0  0
    7.3872   -0.7027   20.9259 C   0  0  0  0  0  0  0  0  0  0  0  0
    7.5907   -2.0564   21.0132 C   0  0  0  0  0  0  0  0  0  0  0  0
    8.3237   -2.2293   22.1988 C   0  0  0  0  0  0  0  0  0  0  0  0
    8.5626   -1.0676   22.7983 N   0  0  0  0  0  0  0  0  0  0  0  0
    7.9941   -0.1401   22.0060 N   0  0  0  0  0  0  0  0  0  0  0  0
    8.0366    1.2752   22.3460 C   0  0  0  0  0  0  0  0  0  0  0  0
    6.7940    1.7923   23.0457 C   0  0  0  0  0  0  0  0  0  0  0  0
    6.0841    2.9111   22.5630 C   0  0  0  0  0  0  0  0  0  0  0  0
    4.9202    3.3605   23.1962 C   0  0  0  0  0  0  0  0  0  0  0  0
    4.4895    2.6852   24.3378 C   0  0  0  0  0  0  0  0  0  0  0  0
    3.3155    2.9293   25.2342 C   0  0  0  0  0  0  0  0  0  0  0  0
    3.3912    1.9285   26.2446 O   0  0  0  0  0  0  0  0  0  0  0  0
    4.5211    1.0797   26.0623 C   0  0  0  0  0  0  0  0  0  0  0  0
    5.2045    1.5891   24.8324 C   0  0  0  0  0  0  0  0  0  0  0  0
    6.3545    1.1371   24.2026 C   0  0  0  0  0  0  0  0  0  0  0  0
    6.9106    0.2804   24.5805 H   0  0  0  0  0  0  0  0  0  0  0  0
    5.1659    1.1243   26.9532 H   0  0  0  0  0  0  0  0  0  0  0  0
    4.1854    0.0369   25.9607 H   0  0  0  0  0  0  0  0  0  0  0  0
    2.3587    2.8446   24.6995 H   0  0  0  0  0  0  0  0  0  0  0  0
    3.3439    3.9279   25.6946 H   0  0  0  0  0  0  0  0  0  0  0  0
    4.3659    4.2188   22.8148 H   0  0  0  0  0  0  0  0  0  0  0  0
    6.4145    3.4158   21.6534 H   0  0  0  0  0  0  0  0  0  0  0  0
    8.1875    1.8328   21.4211 H   0  0  0  0  0  0  0  0  0  0  0  0
    8.9169    1.4149   22.9751 H   0  0  0  0  0  0  0  0  0  0  0  0
    8.6942   -3.1558   22.6189 H   0  0  0  0  0  0  0  0  0  0  0  0
    7.2100   -2.7798   20.3097 H   0  0  0  0  0  0  0  0  0  0  0  0
    5.4278    0.6662   20.1448 C   0  0  0  0  0  0  0  0  0  0  0  0
    5.0144    0.6309   21.1588 H   0  0  0  0  0  0  0  0  0  0  0  0
    8.1050   -0.4201   18.3680 H   0  0  0  0  0  0  0  0  0  0  0  0
    4.9139    1.7931   16.9822 H   0  0  0  0  0  0  0  0  0  0  0  0
    3.8598    1.8520   19.2442 H   0  0  0  0  0  0  0  0  0  0  0  0
  1  2  2  0
  2  3  1  0
  3  4  2  0
  4  5  1  0
  5  6  1  0
  6  7  2  0
  7  8  1  0
  8  9  2  0
  9 10  1  0
 10 11  1  0
 11 12  1  0
 12 13  2  0
 13 14  1  0
 14 15  2  0
 15 16  1  0
 16 17  1  0
 17 18  1  0
 18 19  1  0
 19 20  2  0
 20 21  1  0
 18 22  1  0
 18 23  1  0
 16 24  1  0
 16 25  1  0
 14 26  1  0
 13 27  1  0
 11 28  1  0
 11 29  1  0
  8 30  1  0
  7 31  1  0
  5 32  2  0
 32 33  1  0
  4 34  1  0
  2 35  1  0
  1 36  1  0
 32  1  1  0
 10  6  1  0
 20 12  1  0
 19 15  1  0
M  END
>  <cnnaffinity>  (1) 
4.77993

>  <plip>  (1) 
-0.07142857142857142

>  <filename>  (1) 
[H][c]1[n][c]([H])[c](-[c]2[c]([H])[c]([H])[n][n]2[C]([H])([H])[c]2[c]([H])[c]([H])[c]3[c]([c]2[H])[C]([H])([H])[O][C]3([H])[H])[c]([H])[c]1[H]

>  <combo1>  (1) 
-0.4103742410326337

$$$$
