
     RDKit          3D

 36 37  0  0  0  0  0  0  0  0999 V2000
    8.0531    3.9202   25.7396 C   0  0  0  0  0  0  0  0  0  0  0  0
    8.4546    4.3656   24.4586 O   0  0  0  0  0  0  0  0  0  0  0  0
    8.3813    3.5049   23.4314 C   0  0  0  0  0  0  0  0  0  0  0  0
    8.7925    3.9885   22.1731 C   0  0  0  0  0  0  0  0  0  0  0  0
    8.8095    3.2084   21.1020 N   0  0  0  0  0  0  0  0  0  0  0  0
    8.3966    1.9602   21.1463 N   0  0  0  0  0  0  0  0  0  0  0  0
    7.9646    1.4368   22.3024 C   0  0  0  0  0  0  0  0  0  0  0  0
    7.5908   -0.0329   22.2634 C   0  0  0  0  0  0  0  0  0  0  0  0
    7.5853   -0.6904   23.2958 O   0  0  0  0  0  0  0  0  0  0  0  0
    7.3327   -0.6072   21.0161 N   0  0  0  0  0  0  0  0  0  0  0  0
    6.6606    0.0533   19.9272 C   0  0  0  0  0  0  0  0  0  0  0  0
    5.4334    0.6773   20.1537 C   0  0  0  0  0  0  0  0  0  0  0  0
    4.7983    1.3158   19.0851 C   0  0  0  0  0  0  0  0  0  0  0  0
    5.3960    1.2962   17.8217 C   0  0  0  0  0  0  0  0  0  0  0  0
    6.5584    0.6713   17.5718 N   0  0  0  0  0  0  0  0  0  0  0  0
    7.1687    0.0720   18.6034 C   0  0  0  0  0  0  0  0  0  0  0  0
    8.1196   -0.4087   18.3673 H   0  0  0  0  0  0  0  0  0  0  0  0
    4.9299    1.8034   16.9791 H   0  0  0  0  0  0  0  0  0  0  0  0
    3.8639    1.8451   19.2329 H   0  0  0  0  0  0  0  0  0  0  0  0
    5.0033    0.6464   21.1560 H   0  0  0  0  0  0  0  0  0  0  0  0
    7.5656   -2.0491   20.8665 C   0  0  0  0  0  0  0  0  0  0  0  0
    8.9901   -2.4465   21.2570 C   0  0  0  0  0  0  0  0  0  0  0  0
    9.1485   -2.3433   22.3344 H   0  0  0  0  0  0  0  0  0  0  0  0
    9.7457   -1.8433   20.7430 H   0  0  0  0  0  0  0  0  0  0  0  0
    9.1366   -3.4910   20.9863 H   0  0  0  0  0  0  0  0  0  0  0  0
    6.5155   -2.9090   21.5697 C   0  0  0  0  0  0  0  0  0  0  0  0
    5.5149   -2.6267   21.2308 H   0  0  0  0  0  0  0  0  0  0  0  0
    6.5633   -2.8308   22.6593 H   0  0  0  0  0  0  0  0  0  0  0  0
    6.6821   -3.9526   21.2832 H   0  0  0  0  0  0  0  0  0  0  0  0
    7.4039   -2.1985   19.7976 H   0  0  0  0  0  0  0  0  0  0  0  0
    7.9565    2.1789   23.5041 C   0  0  0  0  0  0  0  0  0  0  0  0
    7.6579    1.6954   24.4330 H   0  0  0  0  0  0  0  0  0  0  0  0
    9.1236    5.0192   22.0589 H   0  0  0  0  0  0  0  0  0  0  0  0
    8.6816    3.0856   26.0769 H   0  0  0  0  0  0  0  0  0  0  0  0
    7.0033    3.6004   25.7251 H   0  0  0  0  0  0  0  0  0  0  0  0
    8.1830    4.7872   26.3864 H   0  0  0  0  0  0  0  0  0  0  0  0
  1  2  1  0
  2  3  1  0
  3  4  2  0
  4  5  1  0
  5  6  2  0
  6  7  1  0
  7  8  1  0
  8  9  2  0
  8 10  1  0
 10 11  1  0
 11 12  2  0
 12 13  1  0
 13 14  2  0
 14 15  1  0
 15 16  2  0
 16 17  1  0
 14 18  1  0
 13 19  1  0
 12 20  1  0
 10 21  1  0
 21 22  1  0
 22 23  1  0
 22 24  1  0
 22 25  1  0
 21 26  1  0
 26 27  1  0
 26 28  1  0
 26 29  1  0
 21 30  1  0
  7 31  2  0
 31 32  1  0
  4 33  1  0
  1 34  1  0
  1 35  1  0
  1 36  1  0
 31  3  1  0
 16 11  1  0
M  END
>  <cnnaffinity>  (1) 
4.3764

>  <plip>  (1) 
-0.07142857142857142

>  <filename>  (1) 
[H][c]1[n][c]([H])[c]([N]([C](=[O])[c]2[n][n][c]([H])[c]([O][C]([H])([H])[H])[c]2[H])[C]([H])([C]([H])([H])[H])[C]([H])([H])[H])[c]([H])[c]1[H]

>  <combo1>  (1) 
-0.38265493485318103

$$$$
