
     RDKit          3D

 37 38  0  0  0  0  0  0  0  0999 V2000
   11.0719   -3.2926   23.5360 C   0  0  0  0  0  0  0  0  0  0  0  0
   10.4634   -2.0455   23.7666 O   0  0  0  0  0  0  0  0  0  0  0  0
    9.7369   -1.5903   22.6469 C   0  0  0  0  0  0  0  0  0  0  0  0
    8.9981   -0.2631   22.9160 C   0  0  0  0  0  0  0  0  0  0  0  0
    8.3441    0.1763   21.5812 N   0  0  0  0  0  4  0  0  0  0  0  0
    7.3684   -0.7445   20.9532 C   0  0  0  0  0  0  0  0  0  0  0  0
    6.6311    0.0165   19.8839 C   0  0  0  0  0  0  0  0  0  0  0  0
    5.4151    0.6748   20.1201 C   0  0  0  0  0  0  0  0  0  0  0  0
    4.7941    1.3449   19.0618 C   0  0  0  0  0  0  0  0  0  0  0  0
    5.4283    1.3459   17.8162 C   0  0  0  0  0  0  0  0  0  0  0  0
    6.5982    0.7395   17.5726 N   0  0  0  0  0  0  0  0  0  0  0  0
    7.1769    0.1013   18.5948 C   0  0  0  0  0  0  0  0  0  0  0  0
    8.1346   -0.3757   18.3705 H   0  0  0  0  0  0  0  0  0  0  0  0
    4.9557    1.8451   16.9711 H   0  0  0  0  0  0  0  0  0  0  0  0
    3.8452    1.8580   19.1928 H   0  0  0  0  0  0  0  0  0  0  0  0
    4.9772    0.6877   21.1223 H   0  0  0  0  0  0  0  0  0  0  0  0
    7.8664   -1.6137   20.5021 H   0  0  0  0  0  0  0  0  0  0  0  0
    6.6767   -1.1342   21.7110 H   0  0  0  0  0  0  0  0  0  0  0  0
    7.8301    1.0721   21.7608 H   0  0  0  0  0  0  0  0  0  0  0  0
    9.0851    0.4073   20.8787 H   0  0  0  0  0  0  0  0  0  0  0  0
    7.9383   -0.3700   24.0302 C   0  0  0  0  0  0  0  0  0  0  0  0
    8.6510   -0.0694   25.3611 C   0  0  0  0  0  0  0  0  0  0  0  0
    9.8816    0.7858   24.9906 C   0  0  0  0  0  0  0  0  0  0  0  0
    9.9073    0.8544   23.4398 C   0  0  0  0  0  0  0  0  0  0  0  0
   10.9205    0.7878   23.0310 H   0  0  0  0  0  0  0  0  0  0  0  0
    9.4843    1.8131   23.1210 H   0  0  0  0  0  0  0  0  0  0  0  0
    9.8386    1.7888   25.4278 H   0  0  0  0  0  0  0  0  0  0  0  0
   10.7909    0.3256   25.3808 H   0  0  0  0  0  0  0  0  0  0  0  0
    8.9693   -0.9968   25.8381 H   0  0  0  0  0  0  0  0  0  0  0  0
    7.9762    0.4286   26.0656 H   0  0  0  0  0  0  0  0  0  0  0  0
    7.4301   -1.3394   24.0269 H   0  0  0  0  0  0  0  0  0  0  0  0
    7.1820    0.4015   23.8402 H   0  0  0  0  0  0  0  0  0  0  0  0
    8.9806   -2.3395   22.3521 H   0  0  0  0  0  0  0  0  0  0  0  0
   10.4039   -1.4221   21.7802 H   0  0  0  0  0  0  0  0  0  0  0  0
   10.3255   -4.0451   23.2439 H   0  0  0  0  0  0  0  0  0  0  0  0
   11.8574   -3.2326   22.7653 H   0  0  0  0  0  0  0  0  0  0  0  0
   11.5432   -3.6151   24.4662 H   0  0  0  0  0  0  0  0  0  0  0  0
  1  2  1  0
  2  3  1  0
  3  4  1  0
  4  5  1  0
  5  6  1  0
  6  7  1  0
  7  8  2  0
  8  9  1  0
  9 10  2  0
 10 11  1  0
 11 12  2  0
 12 13  1  0
 10 14  1  0
  9 15  1  0
  8 16  1  0
  6 17  1  0
  6 18  1  0
  5 19  1  0
  5 20  1  0
  4 21  1  0
 21 22  1  0
 22 23  1  0
 23 24  1  0
 24 25  1  0
 24 26  1  0
 23 27  1  0
 23 28  1  0
 22 29  1  0
 22 30  1  0
 21 31  1  0
 21 32  1  0
  3 33  1  0
  3 34  1  0
  1 35  1  0
  1 36  1  0
  1 37  1  0
 24  4  1  0
 12  7  1  0
M  CHG  1   5   1
M  END
>  <cnnaffinity>  (1) 
4.58316

>  <plip>  (1) 
-0.10714285714285714

>  <filename>  (1) 
[H][c]1[n][c]([H])[c]([C]([H])([H])[N+]([H])([H])[C]2([C]([H])([H])[O][C]([H])([H])[H])[C]([H])([H])[C]([H])([H])[C]([H])([H])[C]2([H])[H])[c]([H])[c]1[H]

>  <combo1>  (1) 
-0.7395686220847518

$$$$
