
     RDKit          3D

 47 49  0  0  0  0  0  0  0  0999 V2000
    7.2317   -2.5292   25.8310 O   0  0  0  0  0  0  0  0  0  0  0  0
    8.2795   -2.6820   25.2400 C   0  0  0  0  0  0  0  0  0  0  0  0
    8.8095   -1.7172   24.1711 C   0  0  0  0  0  0  0  0  0  0  0  0
    8.9161   -2.3302   22.7511 N   0  0  0  0  0  4  0  0  0  0  0  0
    7.5107   -2.7357   22.2427 C   0  0  0  0  0  0  0  0  0  0  0  0
    6.6665   -1.5254   21.8209 C   0  0  0  0  0  0  0  0  0  0  0  0
    7.3893   -0.7808   20.7899 N   0  0  0  0  0  0  0  0  0  0  0  0
    6.6724   -0.0152   19.8377 C   0  0  0  0  0  0  0  0  0  0  0  0
    5.4524    0.6318   20.1131 C   0  0  0  0  0  0  0  0  0  0  0  0
    4.8078    1.3191   19.0764 C   0  0  0  0  0  0  0  0  0  0  0  0
    5.3828    1.3367   17.8015 C   0  0  0  0  0  0  0  0  0  0  0  0
    6.5444    0.7268   17.5117 N   0  0  0  0  0  0  0  0  0  0  0  0
    7.1660    0.0897   18.5111 C   0  0  0  0  0  0  0  0  0  0  0  0
    8.1096   -0.4023   18.2735 H   0  0  0  0  0  0  0  0  0  0  0  0
    4.8985    1.8541   16.9772 H   0  0  0  0  0  0  0  0  0  0  0  0
    3.8734    1.8423   19.2461 H   0  0  0  0  0  0  0  0  0  0  0  0
    5.0453    0.6030   21.1247 H   0  0  0  0  0  0  0  0  0  0  0  0
    8.6824   -0.2709   21.2761 C   0  0  0  0  0  0  0  0  0  0  0  0
    9.5739   -1.4468   21.6908 C   0  0  0  0  0  0  0  0  0  0  0  0
   10.5395   -1.0854   22.0563 H   0  0  0  0  0  0  0  0  0  0  0  0
    9.7431   -2.0695   20.8076 H   0  0  0  0  0  0  0  0  0  0  0  0
    9.1802    0.2746   20.4703 H   0  0  0  0  0  0  0  0  0  0  0  0
    8.5728    0.4281   22.1266 H   0  0  0  0  0  0  0  0  0  0  0  0
    6.4165   -0.9103   22.7067 H   0  0  0  0  0  0  0  0  0  0  0  0
    5.7268   -1.9005   21.4084 H   0  0  0  0  0  0  0  0  0  0  0  0
    7.0102   -3.2869   23.0404 H   0  0  0  0  0  0  0  0  0  0  0  0
    7.6389   -3.3868   21.3747 H   0  0  0  0  0  0  0  0  0  0  0  0
    9.5020   -3.1963   22.8331 H   0  0  0  0  0  0  0  0  0  0  0  0
    8.1180   -0.8776   24.1706 H   0  0  0  0  0  0  0  0  0  0  0  0
    9.7962   -1.3783   24.4989 H   0  0  0  0  0  0  0  0  0  0  0  0
    9.0837   -3.7928   25.4173 N   0  0  0  0  0  0  0  0  0  0  0  0
    8.8052   -4.7079   26.4372 C   0  0  0  0  0  0  0  0  0  0  0  0
    9.7273   -5.0258   27.1541 O   0  0  0  0  0  0  0  0  0  0  0  0
    7.5340   -5.1731   26.4211 N   0  0  0  0  0  0  0  0  0  0  0  0
    6.9350   -5.9408   27.4401 C   0  0  0  0  0  0  0  0  0  0  0  0
    7.3837   -5.8310   28.7579 C   0  0  0  0  0  0  0  0  0  0  0  0
    6.7998   -6.5562   29.7939 C   0  0  0  0  0  0  0  0  0  0  0  0
    5.7562   -7.4338   29.5068 C   0  0  0  0  0  0  0  0  0  0  0  0
    5.2995   -7.5732   28.1904 C   0  0  0  0  0  0  0  0  0  0  0  0
    5.8746   -6.8180   27.1757 C   0  0  0  0  0  0  0  0  0  0  0  0
    5.4138   -6.9357   25.9170 F   0  0  0  0  0  0  0  0  0  0  0  0
    4.5044   -8.2541   27.9269 H   0  0  0  0  0  0  0  0  0  0  0  0
    5.2915   -7.9938   30.3081 H   0  0  0  0  0  0  0  0  0  0  0  0
    7.1642   -6.4397   30.8108 H   0  0  0  0  0  0  0  0  0  0  0  0
    8.2177   -5.1708   28.8824 H   0  0  0  0  0  0  0  0  0  0  0  0
    6.9439   -4.6693   25.7855 H   0  0  0  0  0  0  0  0  0  0  0  0
   10.0650   -3.5977   25.5256 H   0  0  0  0  0  0  0  0  0  0  0  0
  1  2  2  0
  2  3  1  0
  3  4  1  0
  4  5  1  0
  5  6  1  0
  6  7  1  0
  7  8  1  0
  8  9  2  0
  9 10  1  0
 10 11  2  0
 11 12  1  0
 12 13  2  0
 13 14  1  0
 11 15  1  0
 10 16  1  0
  9 17  1  0
  7 18  1  0
 18 19  1  0
 19 20  1  0
 19 21  1  0
 18 22  1  0
 18 23  1  0
  6 24  1  0
  6 25  1  0
  5 26  1  0
  5 27  1  0
  4 28  1  0
  3 29  1  0
  3 30  1  0
  2 31  1  0
 31 32  1  0
 32 33  2  0
 32 34  1  0
 34 35  1  0
 35 36  2  0
 36 37  1  0
 37 38  2  0
 38 39  1  0
 39 40  2  0
 40 41  1  0
 39 42  1  0
 38 43  1  0
 37 44  1  0
 36 45  1  0
 34 46  1  0
 31 47  1  0
 19  4  1  0
 40 35  1  0
 13  8  1  0
M  CHG  1   4   1
M  END
>  <cnnaffinity>  (1) 
4.70892

>  <plip>  (1) 
-0.03571428571428571

>  <filename>  (1) 
[H][c]1[n][c]([H])[c]([N]2[C]([H])([H])[C]([H])([H])[N+]([H])([C]([H])([H])[C](=[O])[N]([H])[C](=[O])[N]([H])[c]3[c]([H])[c]([H])[c]([H])[c]([H])[c]3[F])[C]([H])([H])[C]2([H])[H])[c]([H])[c]1[H]

>  <combo1>  (1) 
-0.1564147340200152

$$$$
