
     RDKit          3D

 53 56  0  0  0  0  0  0  0  0999 V2000
   11.3670    6.8426   23.9206 O   0  0  0  0  0  0  0  0  0  0  0  0
   11.8319    5.7632   23.5978 C   0  0  0  0  0  0  0  0  0  0  0  0
   11.0878    4.5700   23.3874 C   0  0  0  0  0  0  0  0  0  0  0  0
   11.7248    3.3698   23.2301 C   0  0  0  0  0  0  0  0  0  0  0  0
   10.9932    2.2134   23.1692 N   0  0  0  0  0  0  0  0  0  0  0  0
   11.4391    1.0622   22.3770 C   0  0  0  0  0  0  0  0  0  0  0  0
   10.2342    0.3964   21.7045 C   0  0  0  0  0  0  0  0  0  0  0  0
    9.1378   -0.0273   22.7074 C   0  0  0  0  0  0  0  0  0  0  0  0
    7.7828    0.1662   22.0782 N   0  0  0  0  0  4  0  0  0  0  0  0
    7.3440   -0.8015   21.0110 C   0  0  0  0  0  0  0  0  0  0  0  0
    6.6205    0.0028   19.9435 C   0  0  0  0  0  0  0  0  0  0  0  0
    5.4075    0.6852   20.1466 C   0  0  0  0  0  0  0  0  0  0  0  0
    4.8108    1.3368   19.0630 C   0  0  0  0  0  0  0  0  0  0  0  0
    5.4503    1.3200   17.8189 C   0  0  0  0  0  0  0  0  0  0  0  0
    6.6258    0.7120   17.6126 N   0  0  0  0  0  0  0  0  0  0  0  0
    7.1814    0.0868   18.6587 C   0  0  0  0  0  0  0  0  0  0  0  0
    8.1446   -0.3798   18.4623 H   0  0  0  0  0  0  0  0  0  0  0  0
    5.0109    1.8348   16.9619 H   0  0  0  0  0  0  0  0  0  0  0  0
    3.8826    1.8864   19.1736 H   0  0  0  0  0  0  0  0  0  0  0  0
    4.9377    0.7339   21.1334 H   0  0  0  0  0  0  0  0  0  0  0  0
    6.5016   -1.9910   21.5845 C   0  0  0  0  0  0  0  0  0  0  0  0
    6.4380   -3.2187   20.6650 C   0  0  0  0  0  0  0  0  0  0  0  0
    7.5642   -4.1126   21.2097 C   0  0  0  0  0  0  0  0  0  0  0  0
    7.4890   -3.8149   22.7050 C   0  0  0  0  0  0  0  0  0  0  0  0
    7.0923   -2.4479   22.8105 O   0  0  0  0  0  0  0  0  0  0  0  0
    6.7376   -4.4719   23.1700 H   0  0  0  0  0  0  0  0  0  0  0  0
    8.4322   -3.9567   23.2524 H   0  0  0  0  0  0  0  0  0  0  0  0
    8.5461   -3.8175   20.8311 H   0  0  0  0  0  0  0  0  0  0  0  0
    7.4172   -5.1772   21.0002 H   0  0  0  0  0  0  0  0  0  0  0  0
    6.5107   -2.9322   19.6107 H   0  0  0  0  0  0  0  0  0  0  0  0
    5.4677   -3.7146   20.7847 H   0  0  0  0  0  0  0  0  0  0  0  0
    5.5030   -1.6032   21.8035 H   0  0  0  0  0  0  0  0  0  0  0  0
    8.2391   -1.2470   20.5675 H   0  0  0  0  0  0  0  0  0  0  0  0
    7.7230    1.1297   21.6573 H   0  0  0  0  0  0  0  0  0  0  0  0
    7.0612    0.0713   22.8340 H   0  0  0  0  0  0  0  0  0  0  0  0
    9.1890    0.7836   24.0063 C   0  0  0  0  0  0  0  0  0  0  0  0
    9.6615    2.2134   23.7758 C   0  0  0  0  0  0  0  0  0  0  0  0
    8.9442    2.7814   23.1547 H   0  0  0  0  0  0  0  0  0  0  0  0
    9.7016    2.7289   24.7446 H   0  0  0  0  0  0  0  0  0  0  0  0
    9.8853    0.3054   24.7040 H   0  0  0  0  0  0  0  0  0  0  0  0
    8.2136    0.7923   24.5028 H   0  0  0  0  0  0  0  0  0  0  0  0
    9.2633   -1.0875   22.9577 H   0  0  0  0  0  0  0  0  0  0  0  0
   10.5539   -0.4633   21.1081 H   0  0  0  0  0  0  0  0  0  0  0  0
    9.8032    1.1349   21.0123 H   0  0  0  0  0  0  0  0  0  0  0  0
   12.0010    0.3416   22.9983 H   0  0  0  0  0  0  0  0  0  0  0  0
   12.1245    1.4105   21.5942 H   0  0  0  0  0  0  0  0  0  0  0  0
   13.1667    3.3182   23.1647 C   0  0  0  0  0  0  0  0  0  0  0  0
   13.8789    4.4664   23.2698 C   0  0  0  0  0  0  0  0  0  0  0  0
   13.2198    5.6514   23.4586 N   0  0  0  0  0  0  0  0  0  0  0  0
   13.6654    6.5331   23.6596 H   0  0  0  0  0  0  0  0  0  0  0  0
   14.9663    4.4930   23.2037 H   0  0  0  0  0  0  0  0  0  0  0  0
   13.6529    2.3557   23.0663 H   0  0  0  0  0  0  0  0  0  0  0  0
   10.0152    4.6719   23.3833 H   0  0  0  0  0  0  0  0  0  0  0  0
  1  2  2  0
  2  3  1  0
  3  4  2  0
  4  5  1  0
  5  6  1  0
  6  7  1  0
  7  8  1  0
  8  9  1  0
  9 10  1  0
 10 11  1  0
 11 12  2  0
 12 13  1  0
 13 14  2  0
 14 15  1  0
 15 16  2  0
 16 17  1  0
 14 18  1  0
 13 19  1  0
 12 20  1  0
 10 21  1  0
 21 22  1  0
 22 23  1  0
 23 24  1  0
 24 25  1  0
 24 26  1  0
 24 27  1  0
 23 28  1  0
 23 29  1  0
 22 30  1  0
 22 31  1  0
 21 32  1  0
 10 33  1  0
  9 34  1  0
  9 35  1  0
  8 36  1  0
 36 37  1  0
 37 38  1  0
 37 39  1  0
 36 40  1  0
 36 41  1  0
  8 42  1  0
  7 43  1  0
  7 44  1  0
  6 45  1  0
  6 46  1  0
  4 47  1  0
 47 48  2  0
 48 49  1  0
 49 50  1  0
 48 51  1  0
 47 52  1  0
  3 53  1  0
 49  2  1  0
 37  5  1  0
 16 11  1  0
 25 21  1  0
M  CHG  1   9   1
M  END
>  <cnnaffinity>  (1) 
5.41093

>  <plip>  (1) 
-0.06666666666666667

>  <filename>  (1) 
[H][c]1[n][c]([H])[c]([C]([H])([C]2([H])[O][C]([H])([H])[C]([H])([H])[C]2([H])[H])[N+]([H])([H])[C]2([H])[C]([H])([H])[C]([H])([H])[N]([c]3[c]([H])[c]([H])[n]([H])[c](=[O])[c]3[H])[C]([H])([H])[C]2([H])[H])[c]([H])[c]1[H]

>  <combo1>  (1) 
-0.3382721328549577

$$$$
