
     RDKit          3D

 24 25  0  0  0  0  0  0  0  0999 V2000
    4.9128    1.7841   16.9929 H   0  0  0  0  0  0  0  0  0  0  0  0
    5.3979    1.2977   17.8362 C   0  0  0  0  0  0  0  0  0  0  0  0
    6.5665    0.6789   17.5769 N   0  0  0  0  0  0  0  0  0  0  0  0
    7.1730    0.0624   18.5963 C   0  0  0  0  0  0  0  0  0  0  0  0
    8.1168   -0.4341   18.3855 H   0  0  0  0  0  0  0  0  0  0  0  0
    6.6710    0.0163   19.9178 C   0  0  0  0  0  0  0  0  0  0  0  0
    7.3648   -0.7377   20.8879 N   0  0  0  0  0  0  0  0  0  0  0  0
    7.6485   -0.3017   22.0635 C   0  0  0  0  0  0  0  0  0  0  0  0
    8.2798   -1.2567   23.0223 C   0  0  0  0  0  0  0  0  0  0  0  0
    8.6138   -0.9976   24.2748 N   0  0  0  0  0  0  0  0  0  0  0  0
    9.1470   -2.1503   24.7663 C   0  0  0  0  0  0  0  0  0  0  0  0
    9.4990   -2.2226   25.7846 H   0  0  0  0  0  0  0  0  0  0  0  0
    9.1530   -3.1288   23.8107 C   0  0  0  0  0  0  0  0  0  0  0  0
    9.5031   -4.1527   23.8493 H   0  0  0  0  0  0  0  0  0  0  0  0
    8.5995   -2.5491   22.7027 N   0  0  0  0  0  0  0  0  0  0  0  0
    8.4310   -2.9461   21.7948 H   0  0  0  0  0  0  0  0  0  0  0  0
    7.4139    1.1131   22.5393 C   0  0  0  0  0  0  0  0  0  0  0  0
    6.4373    1.1795   23.0286 H   0  0  0  0  0  0  0  0  0  0  0  0
    7.4371    1.8209   21.7070 H   0  0  0  0  0  0  0  0  0  0  0  0
    8.1617    1.3913   23.2860 H   0  0  0  0  0  0  0  0  0  0  0  0
    5.4442    0.6478   20.1602 C   0  0  0  0  0  0  0  0  0  0  0  0
    5.0180    0.6178   21.1645 H   0  0  0  0  0  0  0  0  0  0  0  0
    4.8045    1.3069   19.1025 C   0  0  0  0  0  0  0  0  0  0  0  0
    3.8731    1.8413   19.2619 H   0  0  0  0  0  0  0  0  0  0  0  0
  1  2  1  0
  2  3  2  0
  3  4  1  0
  4  5  1  0
  4  6  2  0
  6  7  1  0
  7  8  2  3
  8  9  1  0
  9 10  2  0
 10 11  1  0
 11 12  1  0
 11 13  2  0
 13 14  1  0
 13 15  1  0
 15 16  1  0
  8 17  1  0
 17 18  1  0
 17 19  1  0
 17 20  1  0
  6 21  1  0
 21 22  1  0
 21 23  2  0
 23 24  1  0
 23  2  1  0
 15  9  1  0
M  END
>  <cnnaffinity>  (1) 
4.28219

>  <plip>  (1) 
-0.0

>  <filename>  (1) 
[H][c]1[n][c]([H])[c]([N]=[C]([c]2[n][c]([H])[c]([H])[n]2[H])[C]([H])([H])[H])[c]([H])[c]1[H]

>  <combo1>  (1) 
-7.66519169289041e-06

$$$$
