
     RDKit          3D

 28 30  0  0  0  0  0  0  0  0999 V2000
    4.9852    1.8140   16.8913 H   0  0  0  0  0  0  0  0  0  0  0  0
    5.4104    1.3095   17.7554 C   0  0  0  0  0  0  0  0  0  0  0  0
    6.5605    0.6436   17.5505 N   0  0  0  0  0  0  0  0  0  0  0  0
    7.1275    0.0512   18.6011 C   0  0  0  0  0  0  0  0  0  0  0  0
    8.0621   -0.4771   18.4238 H   0  0  0  0  0  0  0  0  0  0  0  0
    6.5815    0.0692   19.8998 C   0  0  0  0  0  0  0  0  0  0  0  0
    7.3133   -0.5716   20.9406 N   0  0  0  0  0  0  0  0  0  0  0  0
    8.6500   -0.7712   20.8052 N   0  0  0  0  0  0  0  0  0  0  0  0
    8.9708   -1.4010   21.9211 C   0  0  0  0  0  0  0  0  0  0  0  0
   10.3815   -1.7803   22.3039 C   0  0  1  0  0  0  0  0  0  0  0  0
   10.2621   -2.6110   23.0082 H   0  0  0  0  0  0  0  0  0  0  0  0
   11.1395   -2.2277   21.2018 O   0  0  0  0  0  0  0  0  0  0  0  0
   12.1691   -1.3074   20.9035 C   0  0  0  0  0  0  0  0  0  0  0  0
   11.7521   -0.5072   20.2828 H   0  0  0  0  0  0  0  0  0  0  0  0
   12.9470   -1.8373   20.3453 H   0  0  0  0  0  0  0  0  0  0  0  0
   12.5908   -0.7734   22.2508 C   0  0  0  0  0  0  0  0  0  0  0  0
   13.1689    0.1539   22.1655 H   0  0  0  0  0  0  0  0  0  0  0  0
   13.2043   -1.5363   22.7378 H   0  0  0  0  0  0  0  0  0  0  0  0
   11.2147   -0.6133   22.9223 C   0  0  0  0  0  0  0  0  0  0  0  0
   10.7526    0.3338   22.6208 H   0  0  0  0  0  0  0  0  0  0  0  0
   11.2344   -0.6326   24.0158 H   0  0  0  0  0  0  0  0  0  0  0  0
    7.9266   -1.6383   22.7638 N   0  0  0  0  0  0  0  0  0  0  0  0
    6.9114   -1.1120   22.1146 C   0  0  0  0  0  0  0  0  0  0  0  0
    5.8913   -1.1273   22.4363 H   0  0  0  0  0  0  0  0  0  0  0  0
    5.3594    0.7304   20.1030 C   0  0  0  0  0  0  0  0  0  0  0  0
    4.8704    0.7748   21.0767 H   0  0  0  0  0  0  0  0  0  0  0  0
    4.7796    1.3680   19.0004 C   0  0  0  0  0  0  0  0  0  0  0  0
    3.8563    1.9278   19.1013 H   0  0  0  0  0  0  0  0  0  0  0  0
  1  2  1  0
  2  3  2  0
  3  4  1  0
  4  5  1  0
  4  6  2  0
  6  7  1  0
  7  8  1  0
  8  9  2  0
  9 10  1  0
 10 11  1  1
 10 12  1  0
 12 13  1  0
 13 14  1  0
 13 15  1  0
 13 16  1  0
 16 17  1  0
 16 18  1  0
 16 19  1  0
 19 20  1  0
 19 21  1  0
  9 22  1  0
 22 23  2  0
 23 24  1  0
  6 25  1  0
 25 26  1  0
 25 27  2  0
 27 28  1  0
 27  2  1  0
 23  7  1  0
 19 10  1  0
M  END
>  <cnnaffinity>  (1) 
4.88906

>  <plip>  (1) 
-0.03571428571428571

>  <filename>  (1) 
[H][c]1[n][c]([H])[c](-[n]2[n][c]([C@@]3([H])[O][C]([H])([H])[C]([H])([H])[C]3([H])[H])[n][c]2[H])[c]([H])[c]1[H]

>  <combo1>  (1) 
-0.26915472909350185

$$$$
