
     RDKit          3D

 34 36  0  0  0  0  0  0  0  0999 V2000
    8.6816   -0.2282   21.0063 O   0  0  0  0  0  0  0  0  0  0  0  0
    7.3052   -0.4964   21.1523 C   0  0  0  0  0  0  0  0  0  0  0  0
    7.0480   -2.0004   20.9942 C   0  0  0  0  0  0  0  0  0  0  0  0
    7.7641   -3.1033   22.2640 S   0  0  0  0  0  0  0  0  0  0  0  0
    6.5359   -2.9913   23.5200 C   0  0  0  0  0  0  0  0  0  0  0  0
    6.5532   -2.1987   24.5541 N   0  0  0  0  0  0  0  0  0  0  0  0
    5.3461   -2.3095   25.1900 N   0  0  0  0  0  0  0  0  0  0  0  0
    4.6200   -3.1800   24.5368 C   0  0  0  0  0  0  0  0  0  0  0  0
    3.1970   -3.5195   24.8201 C   0  0  0  0  0  0  0  0  0  0  0  0
    2.4566   -2.7799   25.7639 C   0  0  0  0  0  0  0  0  0  0  0  0
    1.1444   -3.1628   26.0476 C   0  0  0  0  0  0  0  0  0  0  0  0
    0.5204   -4.1922   25.4572 N   0  0  0  0  0  0  0  0  0  0  0  0
    1.2122   -4.8653   24.5310 C   0  0  0  0  0  0  0  0  0  0  0  0
    2.5279   -4.5693   24.1706 C   0  0  0  0  0  0  0  0  0  0  0  0
    2.9956   -5.1680   23.3977 H   0  0  0  0  0  0  0  0  0  0  0  0
    0.6964   -5.6936   24.0468 H   0  0  0  0  0  0  0  0  0  0  0  0
    0.5734   -2.6148   26.7949 H   0  0  0  0  0  0  0  0  0  0  0  0
    2.8938   -1.9294   26.2749 H   0  0  0  0  0  0  0  0  0  0  0  0
    5.3525   -3.6698   23.4896 N   0  0  0  0  0  0  0  0  0  0  0  0
    5.1337   -4.4343   22.8838 H   0  0  0  0  0  0  0  0  0  0  0  0
    5.9765   -2.1696   20.8857 H   0  0  0  0  0  0  0  0  0  0  0  0
    7.5251   -2.2937   20.0627 H   0  0  0  0  0  0  0  0  0  0  0  0
    6.5947    0.2171   20.0276 C   0  0  0  0  0  0  0  0  0  0  0  0
    5.3405    0.8172   20.1618 C   0  0  0  0  0  0  0  0  0  0  0  0
    4.7444    1.3771   19.0288 C   0  0  0  0  0  0  0  0  0  0  0  0
    5.4172    1.3089   17.8057 C   0  0  0  0  0  0  0  0  0  0  0  0
    6.6088    0.7121   17.6525 N   0  0  0  0  0  0  0  0  0  0  0  0
    7.1733    0.1897   18.7473 C   0  0  0  0  0  0  0  0  0  0  0  0
    8.1292   -0.3108   18.6110 H   0  0  0  0  0  0  0  0  0  0  0  0
    4.9756    1.7480   16.9105 H   0  0  0  0  0  0  0  0  0  0  0  0
    3.7814    1.8729   19.0814 H   0  0  0  0  0  0  0  0  0  0  0  0
    4.8332    0.8321   21.1295 H   0  0  0  0  0  0  0  0  0  0  0  0
    6.9258   -0.1231   22.1224 H   0  0  0  0  0  0  0  0  0  0  0  0
    9.1522   -0.8001   21.6291 H   0  0  0  0  0  0  0  0  0  0  0  0
  1  2  1  0
  2  3  1  0
  3  4  1  0
  4  5  1  0
  5  6  2  0
  6  7  1  0
  7  8  2  0
  8  9  1  0
  9 10  2  0
 10 11  1  0
 11 12  2  0
 12 13  1  0
 13 14  2  0
 14 15  1  0
 13 16  1  0
 11 17  1  0
 10 18  1  0
  8 19  1  0
 19 20  1  0
  3 21  1  0
  3 22  1  0
  2 23  1  0
 23 24  2  0
 24 25  1  0
 25 26  2  0
 26 27  1  0
 27 28  2  0
 28 29  1  0
 26 30  1  0
 25 31  1  0
 24 32  1  0
  2 33  1  0
  1 34  1  0
 19  5  1  0
 28 23  1  0
 14  9  1  0
M  END
>  <cnnaffinity>  (1) 
4.65078

>  <plip>  (1) 
-0.06896551724137931

>  <filename>  (1) 
[H][O][C]([H])([c]1[c]([H])[n][c]([H])[c]([H])[c]1[H])[C]([H])([H])[S][c]1[n][n][c](-[c]2[c]([H])[c]([H])[n][c]([H])[c]2[H])[n]1[H]

>  <combo1>  (1) 
-0.3571447083889935

$$$$
