
     RDKit          3D

 30 32  0  0  0  0  0  0  0  0999 V2000
    7.0173   -2.0852   21.1296 C   0  0  0  0  0  0  0  0  0  0  0  0
    7.1791   -0.5679   21.1586 C   0  0  1  0  0  0  0  0  0  0  0  0
    8.5815   -0.2414   21.1437 N   0  0  0  0  0  0  0  0  0  0  0  0
    9.1484    0.9336   21.5218 C   0  0  0  0  0  0  0  0  0  0  0  0
   10.4636    0.9282   21.5197 N   0  0  0  0  0  0  0  0  0  0  0  0
   11.0272    2.0961   21.9703 N   0  0  0  0  0  0  0  0  0  0  0  0
   12.3457    2.4041   22.1271 C   0  0  0  0  0  0  0  0  0  0  0  0
   12.4751    3.6118   22.6275 N   0  0  0  0  0  0  0  0  0  0  0  0
   11.2336    4.1385   22.8111 N   0  0  0  0  0  0  0  0  0  0  0  0
   10.3597    3.2255   22.4185 C   0  0  0  0  0  0  0  0  0  0  0  0
    8.9310    3.2078   22.3413 C   0  0  0  0  0  0  0  0  0  0  0  0
    8.3305    2.0662   21.9111 C   0  0  0  0  0  0  0  0  0  0  0  0
    7.2542    1.9579   21.8791 H   0  0  0  0  0  0  0  0  0  0  0  0
    8.3922    4.1060   22.6352 H   0  0  0  0  0  0  0  0  0  0  0  0
   13.1304    1.7000   21.8940 H   0  0  0  0  0  0  0  0  0  0  0  0
    9.2912   -0.9154   20.9230 H   0  0  0  0  0  0  0  0  0  0  0  0
    6.4952    0.1374   20.0091 C   0  0  0  0  0  0  0  0  0  0  0  0
    5.2638    0.7887   20.1342 C   0  0  0  0  0  0  0  0  0  0  0  0
    4.6972    1.3783   19.0023 C   0  0  0  0  0  0  0  0  0  0  0  0
    5.3973    1.3158   17.7940 C   0  0  0  0  0  0  0  0  0  0  0  0
    6.5845    0.7085   17.6585 N   0  0  0  0  0  0  0  0  0  0  0  0
    7.1124    0.1444   18.7490 C   0  0  0  0  0  0  0  0  0  0  0  0
    8.0849   -0.3276   18.6103 H   0  0  0  0  0  0  0  0  0  0  0  0
    4.9882    1.7647   16.8923 H   0  0  0  0  0  0  0  0  0  0  0  0
    3.7453    1.8942   19.0469 H   0  0  0  0  0  0  0  0  0  0  0  0
    4.7647    0.8384   21.1043 H   0  0  0  0  0  0  0  0  0  0  0  0
    6.7317   -0.2087   22.1005 H   0  0  0  0  0  0  0  0  0  0  0  0
    7.1660   -2.4894   20.1271 H   0  0  0  0  0  0  0  0  0  0  0  0
    7.7437   -2.5443   21.8053 H   0  0  0  0  0  0  0  0  0  0  0  0
    6.0259   -2.3973   21.4697 H   0  0  0  0  0  0  0  0  0  0  0  0
  1  2  1  0
  2  3  1  0
  3  4  1  0
  4  5  2  0
  5  6  1  0
  6  7  1  0
  7  8  2  0
  8  9  1  0
  9 10  2  0
 10 11  1  0
 11 12  2  0
 12 13  1  0
 11 14  1  0
  7 15  1  0
  3 16  1  0
  2 17  1  0
 17 18  2  0
 18 19  1  0
 19 20  2  0
 20 21  1  0
 21 22  2  0
 22 23  1  0
 20 24  1  0
 19 25  1  0
 18 26  1  0
  2 27  1  1
  1 28  1  0
  1 29  1  0
  1 30  1  0
 12  4  1  0
 22 17  1  0
 10  6  1  0
M  END
>  <cnnaffinity>  (1) 
5.02908

>  <plip>  (1) 
-0.06896551724137931

>  <filename>  (1) 
[H][c]1[n][c]([H])[c]([C@]([H])([N]([H])[c]2[n][n]3[c]([H])[n][n][c]3[c]([H])[c]2[H])[C]([H])([H])[H])[c]([H])[c]1[H]

>  <combo1>  (1) 
-0.48117132593648215

$$$$
