
     RDKit          3D

 31 33  0  0  0  0  0  0  0  0999 V2000
    4.8178    1.3032   19.1088 C   0  0  0  0  0  0  0  0  0  0  0  0
    5.3993    1.2946   17.8357 C   0  0  0  0  0  0  0  0  0  0  0  0
    6.5661    0.6806   17.5688 N   0  0  0  0  0  0  0  0  0  0  0  0
    7.1780    0.0639   18.5860 C   0  0  0  0  0  0  0  0  0  0  0  0
    6.6806   -0.0075   19.9193 C   0  0  0  0  0  0  0  0  0  0  0  0
    7.3701   -0.6820   20.9102 N   0  0  0  0  0  0  0  0  0  0  0  0
    6.8986   -0.8348   22.2683 C   0  0  0  0  0  0  0  0  0  0  0  0
    7.8468   -1.6750   23.0874 C   0  0  0  0  0  0  0  0  0  0  0  0
    8.6443   -1.0747   24.0418 C   0  0  0  0  0  0  0  0  0  0  0  0
    9.5578   -1.8216   24.8293 C   0  0  0  0  0  0  0  0  0  0  0  0
    9.6703   -3.1796   24.6637 C   0  0  0  0  0  0  0  0  0  0  0  0
    8.8677   -3.8423   23.6951 C   0  0  0  0  0  0  0  0  0  0  0  0
    8.9386   -5.2410   23.4921 C   0  0  0  0  0  0  0  0  0  0  0  0
    8.1704   -5.8332   22.5243 C   0  0  0  0  0  0  0  0  0  0  0  0
    7.3019   -5.1573   21.7266 N   0  0  0  0  0  0  0  0  0  0  0  0
    7.2028   -3.8523   21.9242 C   0  0  0  0  0  0  0  0  0  0  0  0
    7.9505   -3.0986   22.8888 C   0  0  0  0  0  0  0  0  0  0  0  0
    6.5011   -3.3234   21.2884 H   0  0  0  0  0  0  0  0  0  0  0  0
    8.2347   -6.9017   22.3516 H   0  0  0  0  0  0  0  0  0  0  0  0
    9.6211   -5.8244   24.1062 H   0  0  0  0  0  0  0  0  0  0  0  0
   10.3592   -3.7796   25.2559 H   0  0  0  0  0  0  0  0  0  0  0  0
   10.1574   -1.2968   25.5640 H   0  0  0  0  0  0  0  0  0  0  0  0
    8.5872    0.0006   24.2018 H   0  0  0  0  0  0  0  0  0  0  0  0
    6.7728    0.1556   22.7322 H   0  0  0  0  0  0  0  0  0  0  0  0
    5.9102   -1.3051   22.2584 H   0  0  0  0  0  0  0  0  0  0  0  0
    8.2631   -1.0917   20.6794 H   0  0  0  0  0  0  0  0  0  0  0  0
    5.4540    0.6417   20.1658 C   0  0  0  0  0  0  0  0  0  0  0  0
    5.0157    0.6275   21.1657 H   0  0  0  0  0  0  0  0  0  0  0  0
    8.1260   -0.4264   18.3614 H   0  0  0  0  0  0  0  0  0  0  0  0
    4.9084    1.7828   16.9955 H   0  0  0  0  0  0  0  0  0  0  0  0
    3.8836    1.8353   19.2668 H   0  0  0  0  0  0  0  0  0  0  0  0
  1  2  2  0
  2  3  1  0
  3  4  2  0
  4  5  1  0
  5  6  1  0
  6  7  1  0
  7  8  1  0
  8  9  2  0
  9 10  1  0
 10 11  2  0
 11 12  1  0
 12 13  2  0
 13 14  1  0
 14 15  2  0
 15 16  1  0
 16 17  2  0
 16 18  1  0
 14 19  1  0
 13 20  1  0
 11 21  1  0
 10 22  1  0
  9 23  1  0
  7 24  1  0
  7 25  1  0
  6 26  1  0
  5 27  2  0
 27 28  1  0
  4 29  1  0
  2 30  1  0
  1 31  1  0
 27  1  1  0
 17  8  1  0
 17 12  1  0
M  END
>  <cnnaffinity>  (1) 
4.83429

>  <plip>  (1) 
-0.10344827586206896

>  <filename>  (1) 
[H][c]1[n][c]([H])[c]([N]([H])[C]([H])([H])[c]2[c]([H])[c]([H])[c]([H])[c]3[c]([H])[c]([H])[n][c]([H])[c]23)[c]([H])[c]1[H]

>  <combo1>  (1) 
-0.7084859329865858

$$$$
