
     RDKit          3D

 33 35  0  0  0  0  0  0  0  0999 V2000
    8.1909    0.4144   24.0696 H   0  0  0  0  0  0  0  0  0  0  0  0
    8.2769    0.9055   23.0887 C   0  0  0  0  0  0  0  0  0  0  0  0
    8.4076    2.2400   22.9748 C   0  0  0  0  0  0  0  0  0  0  0  0
    8.6058    3.4297   24.2645 S   0  0  0  0  0  0  0  0  0  0  0  0
    8.5618    4.7866   23.0734 C   0  0  0  0  0  0  0  0  0  0  0  0
    8.7612    5.9435   23.2946 O   0  0  0  0  0  0  0  0  0  0  0  0
    8.2547    4.2738   21.8426 N   0  0  0  0  0  0  0  0  0  0  0  0
    8.4100    4.8535   21.0380 H   0  0  0  0  0  0  0  0  0  0  0  0
    8.4047    2.9218   21.6653 C   0  0  0  0  0  0  0  0  0  0  0  0
    8.5559    2.4328   20.5701 O   0  0  0  0  0  0  0  0  0  0  0  0
    8.3982    0.1123   21.9499 N   0  0  0  0  0  0  0  0  0  0  0  0
    9.6915   -0.0203   21.2852 C   0  0  0  0  0  0  0  0  0  0  0  0
   10.4200    0.6271   21.7789 H   0  0  0  0  0  0  0  0  0  0  0  0
    9.6263    0.2591   20.2265 H   0  0  0  0  0  0  0  0  0  0  0  0
   10.0664   -1.4915   21.3373 C   0  0  0  0  0  0  0  0  0  0  0  0
   11.0394   -1.6761   20.8766 H   0  0  0  0  0  0  0  0  0  0  0  0
   10.1092   -1.8300   22.3843 H   0  0  0  0  0  0  0  0  0  0  0  0
    9.0927   -2.2143   20.5954 O   0  0  0  0  0  0  0  0  0  0  0  0
    7.7636   -2.0930   21.1076 C   0  0  0  0  0  0  0  0  0  0  0  0
    7.6827   -2.6521   22.0508 H   0  0  0  0  0  0  0  0  0  0  0  0
    7.1029   -2.5597   20.3685 H   0  0  0  0  0  0  0  0  0  0  0  0
    7.2862   -0.6326   21.3732 C   0  0  2  0  0  0  0  0  0  0  0  0
    6.5105   -0.6657   22.1520 H   0  0  0  0  0  0  0  0  0  0  0  0
    6.6504    0.0461   20.1536 C   0  0  0  0  0  0  0  0  0  0  0  0
    7.2446   -0.0164   18.8855 C   0  0  0  0  0  0  0  0  0  0  0  0
    8.1812   -0.5574   18.7391 H   0  0  0  0  0  0  0  0  0  0  0  0
    6.7136    0.5237   17.7759 N   0  0  0  0  0  0  0  0  0  0  0  0
    5.5587    1.1896   17.9081 C   0  0  0  0  0  0  0  0  0  0  0  0
    5.1558    1.6323   17.0006 H   0  0  0  0  0  0  0  0  0  0  0  0
    4.8863    1.3314   19.1244 C   0  0  0  0  0  0  0  0  0  0  0  0
    3.9581    1.8889   19.1679 H   0  0  0  0  0  0  0  0  0  0  0  0
    5.4478    0.7593   20.2671 C   0  0  0  0  0  0  0  0  0  0  0  0
    4.9600    0.8711   21.2379 H   0  0  0  0  0  0  0  0  0  0  0  0
  1  2  1  0
  2  3  2  3
  3  4  1  0
  4  5  1  0
  5  6  2  0
  5  7  1  0
  7  8  1  0
  7  9  1  0
  9 10  2  0
  2 11  1  0
 11 12  1  0
 12 13  1  0
 12 14  1  0
 12 15  1  0
 15 16  1  0
 15 17  1  0
 15 18  1  0
 18 19  1  0
 19 20  1  0
 19 21  1  0
 19 22  1  0
 22 23  1  1
 22 24  1  0
 24 25  2  0
 25 26  1  0
 25 27  1  0
 27 28  2  0
 28 29  1  0
 28 30  1  0
 30 31  1  0
 30 32  2  0
 32 33  1  0
  9  3  1  0
 22 11  1  0
 32 24  1  0
M  END
>  <cnnaffinity>  (1) 
4.63477

>  <plip>  (1) 
-0.10344827586206896

>  <filename>  (1) 
[H][C](=[C]1[S][C](=[O])[N]([H])[C]1=[O])[N]1[C]([H])([H])[C]([H])([H])[O][C]([H])([H])[C@]1([H])[c]1[c]([H])[n][c]([H])[c]([H])[c]1[H]

>  <combo1>  (1) 
-0.548582562754568

$$$$
