
     RDKit          3D

 38 40  0  0  0  0  0  0  0  0999 V2000
    4.8933    1.7911   16.9854 H   0  0  0  0  0  0  0  0  0  0  0  0
    5.4043    1.2694   17.7926 C   0  0  0  0  0  0  0  0  0  0  0  0
    6.5735    0.6860   17.4839 N   0  0  0  0  0  0  0  0  0  0  0  0
    7.2480    0.0713   18.4649 C   0  0  0  0  0  0  0  0  0  0  0  0
    8.1959   -0.3870   18.1951 H   0  0  0  0  0  0  0  0  0  0  0  0
    6.7827   -0.0015   19.7972 C   0  0  0  0  0  0  0  0  0  0  0  0
    7.5240   -0.6047   20.8692 N   0  0  0  0  0  0  0  0  0  0  0  0
    8.8578   -0.3326   21.1575 C   0  0  0  0  0  0  0  0  0  0  0  0
    9.6273    0.2518   20.4376 O   0  0  0  0  0  0  0  0  0  0  0  0
    9.1137   -0.8728   22.4449 N   0  0  0  0  0  0  0  0  0  0  0  0
   10.0639   -0.5518   23.4614 N   0  0  0  0  0  0  0  0  0  0  0  0
   10.9694   -0.2433   23.1285 H   0  0  0  0  0  0  0  0  0  0  0  0
    9.9083    0.6607   24.6711 S   0  0  0  0  0  0  0  0  0  0  0  0
   11.2375    1.2374   24.6043 O   0  0  0  0  0  0  0  0  0  0  0  0
    9.3440    0.0808   25.8623 O   0  0  0  0  0  0  0  0  0  0  0  0
    8.7394    1.7600   23.9207 C   0  0  0  0  0  0  0  0  0  0  0  0
    9.1737    2.5412   22.8434 C   0  0  0  0  0  0  0  0  0  0  0  0
   10.2201    2.6026   22.5372 H   0  0  0  0  0  0  0  0  0  0  0  0
    8.2283    3.2582   22.1230 C   0  0  0  0  0  0  0  0  0  0  0  0
    8.5461    3.9006   21.3125 H   0  0  0  0  0  0  0  0  0  0  0  0
    6.8651    3.2221   22.4352 C   0  0  0  0  0  0  0  0  0  0  0  0
    5.8972    4.0024   21.5932 C   0  0  0  0  0  0  0  0  0  0  0  0
    5.0164    4.3059   22.1579 H   0  0  0  0  0  0  0  0  0  0  0  0
    6.3728    4.8983   21.1836 H   0  0  0  0  0  0  0  0  0  0  0  0
    5.5506    3.4136   20.7433 H   0  0  0  0  0  0  0  0  0  0  0  0
    6.4626    2.4598   23.5417 C   0  0  0  0  0  0  0  0  0  0  0  0
    5.4167    2.4337   23.8311 H   0  0  0  0  0  0  0  0  0  0  0  0
    7.3892    1.7374   24.2976 C   0  0  0  0  0  0  0  0  0  0  0  0
    7.0596    1.1770   25.1743 H   0  0  0  0  0  0  0  0  0  0  0  0
    7.9602   -1.5683   22.9627 C   0  0  0  0  0  0  0  0  0  0  0  0
    8.1675   -2.6123   23.2020 H   0  0  0  0  0  0  0  0  0  0  0  0
    7.5616   -1.0708   23.8562 H   0  0  0  0  0  0  0  0  0  0  0  0
    6.9944   -1.4681   21.8241 C   0  0  0  0  0  0  0  0  0  0  0  0
    5.9627   -2.0780   21.7201 O   0  0  0  0  0  0  0  0  0  0  0  0
    5.5417    0.5643   20.0895 C   0  0  0  0  0  0  0  0  0  0  0  0
    5.1465    0.4866   21.1009 H   0  0  0  0  0  0  0  0  0  0  0  0
    4.8516    1.2340   19.0766 C   0  0  0  0  0  0  0  0  0  0  0  0
    3.9171    1.7519   19.2738 H   0  0  0  0  0  0  0  0  0  0  0  0
  1  2  1  0
  2  3  2  0
  3  4  1  0
  4  5  1  0
  4  6  2  0
  6  7  1  0
  7  8  1  0
  8  9  2  0
  8 10  1  0
 10 11  1  0
 11 12  1  0
 11 13  1  0
 13 14  2  0
 13 15  2  0
 13 16  1  0
 16 17  2  0
 17 18  1  0
 17 19  1  0
 19 20  1  0
 19 21  2  0
 21 22  1  0
 22 23  1  0
 22 24  1  0
 22 25  1  0
 21 26  1  0
 26 27  1  0
 26 28  2  0
 28 29  1  0
 10 30  1  0
 30 31  1  0
 30 32  1  0
 30 33  1  0
 33 34  2  0
  6 35  1  0
 35 36  1  0
 35 37  2  0
 37 38  1  0
 37  2  1  0
 33  7  1  0
 28 16  1  0
M  END
>  <cnnaffinity>  (1) 
5.28694

>  <plip>  (1) 
-0.07142857142857142

>  <filename>  (1) 
[H][c]1[n][c]([H])[c]([N]2[C](=[O])[N]([N]([H])[S](=[O])(=[O])[c]3[c]([H])[c]([H])[c]([C]([H])([H])[H])[c]([H])[c]3[H])[C]([H])([H])[C]2=[O])[c]([H])[c]1[H]

>  <combo1>  (1) 
-0.3634271174286418

$$$$
