
     RDKit          3D

 27 28  0  0  0  0  0  0  0  0999 V2000
    8.5148   -0.5124   20.9305 H   0  0  0  0  0  0  0  0  0  0  0  0
    7.4441   -0.6957   20.8921 C   0  0  0  0  0  0  0  0  0  0  0  0
    6.9479   -1.5603   21.7837 C   0  0  0  0  0  0  0  0  0  0  0  0
    5.6530   -1.9399   21.6695 F   0  0  0  0  0  0  0  0  0  0  0  0
    7.6764   -2.2219   22.9043 C   0  0  0  0  0  0  0  0  0  0  0  0
    7.0482   -2.4711   24.1402 C   0  0  0  0  0  0  0  0  0  0  0  0
    6.0197   -2.1573   24.2884 H   0  0  0  0  0  0  0  0  0  0  0  0
    7.7601   -3.1036   25.1656 C   0  0  0  0  0  0  0  0  0  0  0  0
    7.2745   -3.3013   26.1187 H   0  0  0  0  0  0  0  0  0  0  0  0
    9.0943   -3.4762   24.9799 C   0  0  0  0  0  0  0  0  0  0  0  0
    9.6576   -3.9798   25.7592 H   0  0  0  0  0  0  0  0  0  0  0  0
    9.7430   -3.1761   23.7758 C   0  0  0  0  0  0  0  0  0  0  0  0
   11.1065   -3.3962   23.6239 N   0  0  0  0  0  0  0  0  0  0  0  0
   11.3829   -3.5392   22.6637 H   0  0  0  0  0  0  0  0  0  0  0  0
   11.4769   -4.1265   24.2138 H   0  0  0  0  0  0  0  0  0  0  0  0
    9.0236   -2.5808   22.7354 C   0  0  0  0  0  0  0  0  0  0  0  0
    9.5350   -2.4242   21.7899 H   0  0  0  0  0  0  0  0  0  0  0  0
    6.6871    0.0357   19.8453 C   0  0  0  0  0  0  0  0  0  0  0  0
    7.1938    0.1139   18.5299 C   0  0  0  0  0  0  0  0  0  0  0  0
    8.1396   -0.3687   18.2841 H   0  0  0  0  0  0  0  0  0  0  0  0
    6.5648    0.7213   17.5182 N   0  0  0  0  0  0  0  0  0  0  0  0
    5.3957    1.3206   17.7999 C   0  0  0  0  0  0  0  0  0  0  0  0
    4.9058    1.8214   16.9703 H   0  0  0  0  0  0  0  0  0  0  0  0
    4.8059    1.3223   19.0664 C   0  0  0  0  0  0  0  0  0  0  0  0
    3.8640    1.8370   19.2238 H   0  0  0  0  0  0  0  0  0  0  0  0
    5.4565    0.6575   20.1081 C   0  0  0  0  0  0  0  0  0  0  0  0
    5.0320    0.6168   21.1100 H   0  0  0  0  0  0  0  0  0  0  0  0
  1  2  1  0
  2  3  2  3
  3  4  1  0
  3  5  1  0
  5  6  2  0
  6  7  1  0
  6  8  1  0
  8  9  1  0
  8 10  2  0
 10 11  1  0
 10 12  1  0
 12 13  1  0
 13 14  1  0
 13 15  1  0
 12 16  2  0
 16 17  1  0
  2 18  1  0
 18 19  2  0
 19 20  1  0
 19 21  1  0
 21 22  2  0
 22 23  1  0
 22 24  1  0
 24 25  1  0
 24 26  2  0
 26 27  1  0
 16  5  1  0
 26 18  1  0
M  END
>  <cnnaffinity>  (1) 
4.49524

>  <plip>  (1) 
-0.034482758620689655

>  <filename>  (1) 
[H][C](=[C]([F])[c]1[c]([H])[c]([H])[c]([H])[c]([N]([H])[H])[c]1[H])[c]1[c]([H])[n][c]([H])[c]([H])[c]1[H]

>  <combo1>  (1) 
-0.24117205830461821

$$$$
