
     RDKit          3D

 28 28  0  0  0  0  0  0  0  0999 V2000
    4.9130    1.7854   16.9919 H   0  0  0  0  0  0  0  0  0  0  0  0
    5.3984    1.2978   17.8345 C   0  0  0  0  0  0  0  0  0  0  0  0
    6.5660    0.6791   17.5731 N   0  0  0  0  0  0  0  0  0  0  0  0
    7.1709    0.0621   18.5961 C   0  0  0  0  0  0  0  0  0  0  0  0
    8.1148   -0.4370   18.3811 H   0  0  0  0  0  0  0  0  0  0  0  0
    6.6657    0.0187   19.9155 C   0  0  0  0  0  0  0  0  0  0  0  0
    7.3127   -0.7319   20.9169 N   0  0  0  0  0  0  0  0  0  0  0  0
    7.7581   -0.2291   22.0041 C   0  0  0  0  0  0  0  0  0  0  0  0
    7.6828    1.2341   22.3620 C   0  0  0  0  0  0  0  0  0  0  0  0
    8.0637    1.8470   21.5411 H   0  0  0  0  0  0  0  0  0  0  0  0
    8.2752    1.4464   23.2529 H   0  0  0  0  0  0  0  0  0  0  0  0
    6.6550    1.5500   22.5502 H   0  0  0  0  0  0  0  0  0  0  0  0
    8.4982   -1.1503   22.9790 C   0  0  0  0  0  0  0  0  0  0  0  0
    8.0805   -0.9922   23.9807 H   0  0  0  0  0  0  0  0  0  0  0  0
    8.2653   -2.1888   22.6930 H   0  0  0  0  0  0  0  0  0  0  0  0
    9.9456   -0.8790   23.0013 N   0  0  0  0  0  0  0  0  0  0  0  0
   10.3578   -1.2920   23.8369 H   0  0  0  0  0  0  0  0  0  0  0  0
   10.6276   -1.4456   21.8388 C   0  0  0  0  0  0  0  0  0  0  0  0
   10.5585   -2.5458   21.8142 H   0  0  0  0  0  0  0  0  0  0  0  0
   10.1246   -1.0969   20.9337 H   0  0  0  0  0  0  0  0  0  0  0  0
   12.0720   -1.0076   21.8038 C   0  0  0  0  0  0  0  0  0  0  0  0
   12.6048   -1.3573   22.6896 H   0  0  0  0  0  0  0  0  0  0  0  0
   12.5771   -1.4180   20.9256 H   0  0  0  0  0  0  0  0  0  0  0  0
   12.1401    0.0824   21.7743 H   0  0  0  0  0  0  0  0  0  0  0  0
    5.4453    0.6531   20.1601 C   0  0  0  0  0  0  0  0  0  0  0  0
    5.0211    0.6145   21.1675 H   0  0  0  0  0  0  0  0  0  0  0  0
    4.8047    1.3079   19.1022 C   0  0  0  0  0  0  0  0  0  0  0  0
    3.8723    1.8411   19.2609 H   0  0  0  0  0  0  0  0  0  0  0  0
  1  2  1  0
  2  3  2  0
  3  4  1  0
  4  5  1  0
  4  6  2  0
  6  7  1  0
  7  8  2  3
  8  9  1  0
  9 10  1  0
  9 11  1  0
  9 12  1  0
  8 13  1  0
 13 14  1  0
 13 15  1  0
 13 16  1  0
 16 17  1  0
 16 18  1  0
 18 19  1  0
 18 20  1  0
 18 21  1  0
 21 22  1  0
 21 23  1  0
 21 24  1  0
  6 25  1  0
 25 26  1  0
 25 27  2  0
 27 28  1  0
 27  2  1  0
M  END
>  <cnnaffinity>  (1) 
3.9579

>  <plip>  (1) 
-0.03571428571428571

>  <filename>  (1) 
[H][c]1[n][c]([H])[c]([N]=[C]([C]([H])([H])[H])[C]([H])([H])[N]([H])[C]([H])([H])[C]([H])([H])[H])[c]([H])[c]1[H]

>  <combo1>  (1) 
-0.2658256209717132

$$$$
