
     RDKit          3D

 29 31  0  0  0  0  0  0  0  0999 V2000
   13.2066    0.6283   24.7755 H   0  0  0  0  0  0  0  0  0  0  0  0
   12.6799    0.2323   23.9133 C   0  0  0  0  0  0  0  0  0  0  0  0
   13.1305   -0.2348   22.7544 C   0  0  0  0  0  0  0  0  0  0  0  0
   14.1125   -0.3020   22.2990 H   0  0  0  0  0  0  0  0  0  0  0  0
   11.9821   -0.7123   21.9360 C   0  0  0  0  0  0  0  0  0  0  0  0
   12.0364   -1.1259   20.8111 O   0  0  0  0  0  0  0  0  0  0  0  0
   10.8350   -0.5830   22.7469 N   0  0  0  0  0  0  0  0  0  0  0  0
    9.5550   -1.0154   22.4313 N   0  0  0  0  0  0  0  0  0  0  0  0
    8.9301   -0.4363   21.3229 C   0  0  0  0  0  0  0  0  0  0  0  0
    9.5677    0.2603   20.7852 H   0  0  0  0  0  0  0  0  0  0  0  0
    7.6541   -0.7112   20.9649 C   0  0  0  0  0  0  0  0  0  0  0  0
    6.9305    0.0085   19.8702 C   0  0  0  0  0  0  0  0  0  0  0  0
    7.4086    0.1225   18.5403 C   0  0  0  0  0  0  0  0  0  0  0  0
    8.3585   -0.3355   18.2624 H   0  0  0  0  0  0  0  0  0  0  0  0
    6.7498    0.7332   17.5443 N   0  0  0  0  0  0  0  0  0  0  0  0
    5.5644    1.2917   17.8413 C   0  0  0  0  0  0  0  0  0  0  0  0
    5.0475    1.7916   17.0211 H   0  0  0  0  0  0  0  0  0  0  0  0
    4.9922    1.2450   19.1165 C   0  0  0  0  0  0  0  0  0  0  0  0
    4.0304    1.7143   19.2942 H   0  0  0  0  0  0  0  0  0  0  0  0
    5.6759    0.5839   20.1373 C   0  0  0  0  0  0  0  0  0  0  0  0
    5.2543    0.4948   21.1388 H   0  0  0  0  0  0  0  0  0  0  0  0
    6.9150   -1.7465   21.7288 C   0  0  0  0  0  0  0  0  0  0  0  0
    5.8658   -2.2890   21.4539 O   0  0  0  0  0  0  0  0  0  0  0  0
    7.5477   -2.1505   22.8831 N   0  0  0  0  0  0  0  0  0  0  0  0
    7.1134   -2.9456   23.3096 H   0  0  0  0  0  0  0  0  0  0  0  0
    8.8810   -2.0795   23.1446 C   0  0  0  0  0  0  0  0  0  0  0  0
    9.3979   -2.8456   23.9120 O   0  0  0  0  0  0  0  0  0  0  0  0
   11.1796    0.1485   23.9143 C   0  0  0  0  0  0  0  0  0  0  0  0
   10.4323    0.6314   24.7164 O   0  0  0  0  0  0  0  0  0  0  0  0
  1  2  1  0
  2  3  2  0
  3  4  1  0
  3  5  1  0
  5  6  2  0
  5  7  1  0
  7  8  1  0
  8  9  1  0
  9 10  1  0
  9 11  2  0
 11 12  1  0
 12 13  2  0
 13 14  1  0
 13 15  1  0
 15 16  2  0
 16 17  1  0
 16 18  1  0
 18 19  1  0
 18 20  2  0
 20 21  1  0
 11 22  1  0
 22 23  2  0
 22 24  1  0
 24 25  1  0
 24 26  1  0
 26 27  2  0
  7 28  1  0
 28 29  2  0
 28  2  1  0
 26  8  1  0
 20 12  1  0
M  END
>  <cnnaffinity>  (1) 
5.16227

>  <plip>  (1) 
-0.07142857142857142

>  <filename>  (1) 
[H][C]1=[C]([H])[C](=[O])[N]([n]2[c]([H])[c](-[c]3[c]([H])[n][c]([H])[c]([H])[c]3[H])[c](=[O])[n]([H])[c]2=[O])[C]1=[O]

>  <combo1>  (1) 
-0.43243414854885803

$$$$
