
     RDKit          3D

 38 41  0  0  0  0  0  0  0  0999 V2000
    4.9965    1.7985   16.8905 H   0  0  0  0  0  0  0  0  0  0  0  0
    5.4290    1.2866   17.7451 C   0  0  0  0  0  0  0  0  0  0  0  0
    6.5705    0.6229   17.5110 N   0  0  0  0  0  0  0  0  0  0  0  0
    7.1433    0.0025   18.5454 C   0  0  0  0  0  0  0  0  0  0  0  0
    8.0618   -0.5427   18.3387 H   0  0  0  0  0  0  0  0  0  0  0  0
    6.6286    0.0270   19.8539 C   0  0  0  0  0  0  0  0  0  0  0  0
    7.4071   -0.5771   20.9459 C   0  0  0  0  0  0  0  0  0  0  0  0
    8.5832   -1.1825   20.6972 N   0  0  0  0  0  0  0  0  0  0  0  0
    8.9691   -1.5979   21.9299 N   0  0  0  0  0  0  0  0  0  0  0  0
   10.1435   -2.0905   22.4936 C   0  0  0  0  0  0  0  0  0  0  0  0
   10.9497   -2.4274   21.8642 H   0  0  0  0  0  0  0  0  0  0  0  0
    9.9813   -2.0490   23.8391 C   0  0  0  0  0  0  0  0  0  0  0  0
   10.6606   -2.3322   24.6326 H   0  0  0  0  0  0  0  0  0  0  0  0
    8.6662   -1.5704   24.1251 N   0  0  0  0  0  0  0  0  0  0  0  0
    8.0796   -0.7854   25.5068 S   0  0  0  0  0  0  0  0  0  0  0  0
    9.1726   -0.7734   26.4647 O   0  0  0  0  0  0  0  0  0  0  0  0
    6.7831   -1.3118   25.8663 O   0  0  0  0  0  0  0  0  0  0  0  0
    7.7978    0.7915   24.9118 N   0  0  0  0  0  0  0  0  0  0  0  0
    8.9522    1.4764   24.2863 C   0  0  0  0  0  0  0  0  0  0  0  0
    9.5092    0.7969   23.6237 H   0  0  0  0  0  0  0  0  0  0  0  0
    8.5368    2.2533   23.6281 H   0  0  0  0  0  0  0  0  0  0  0  0
    9.8725    2.1275   25.3398 C   0  0  0  0  0  0  0  0  0  0  0  0
   10.6229    2.7430   24.8397 H   0  0  0  0  0  0  0  0  0  0  0  0
   10.3633    1.3330   25.9182 H   0  0  0  0  0  0  0  0  0  0  0  0
    9.1558    2.9930   26.2237 O   0  0  0  0  0  0  0  0  0  0  0  0
    8.0835    2.3101   26.8762 C   0  0  0  0  0  0  0  0  0  0  0  0
    7.5664    3.0564   27.4811 H   0  0  0  0  0  0  0  0  0  0  0  0
    8.4657    1.5011   27.5182 H   0  0  0  0  0  0  0  0  0  0  0  0
    7.1130    1.7031   25.8483 C   0  0  0  0  0  0  0  0  0  0  0  0
    6.7047    2.5241   25.2396 H   0  0  0  0  0  0  0  0  0  0  0  0
    6.2684    1.1906   26.3201 H   0  0  0  0  0  0  0  0  0  0  0  0
    8.0907   -1.2907   22.8869 C   0  0  0  0  0  0  0  0  0  0  0  0
    7.0548   -0.5860   22.3188 C   0  0  0  0  0  0  0  0  0  0  0  0
    6.2735   -0.0710   22.8478 H   0  0  0  0  0  0  0  0  0  0  0  0
    5.3914    0.6633   20.0627 C   0  0  0  0  0  0  0  0  0  0  0  0
    4.8983    0.6417   21.0363 H   0  0  0  0  0  0  0  0  0  0  0  0
    4.7916    1.3181   18.9894 C   0  0  0  0  0  0  0  0  0  0  0  0
    3.8532    1.8524   19.0967 H   0  0  0  0  0  0  0  0  0  0  0  0
  1  2  1  0
  2  3  2  0
  3  4  1  0
  4  5  1  0
  4  6  2  0
  6  7  1  0
  7  8  2  0
  8  9  1  0
  9 10  1  0
 10 11  1  0
 10 12  2  0
 12 13  1  0
 12 14  1  0
 14 15  1  0
 15 16  2  0
 15 17  2  0
 15 18  1  0
 18 19  1  0
 19 20  1  0
 19 21  1  0
 19 22  1  0
 22 23  1  0
 22 24  1  0
 22 25  1  0
 25 26  1  0
 26 27  1  0
 26 28  1  0
 26 29  1  0
 29 30  1  0
 29 31  1  0
 14 32  1  0
 32 33  2  0
 33 34  1  0
  6 35  1  0
 35 36  1  0
 35 37  2  0
 37 38  1  0
 37  2  1  0
 33  7  1  0
 32  9  1  0
 29 18  1  0
M  END
>  <cnnaffinity>  (1) 
5.39669

>  <plip>  (1) 
-0.07142857142857142

>  <filename>  (1) 
[H][c]1[n][c]([H])[c](-[c]2[n][n]3[c]([H])[c]([H])[n]([S](=[O])(=[O])[N]4[C]([H])([H])[C]([H])([H])[O][C]([H])([H])[C]4([H])[H])[c]3[c]2[H])[c]([H])[c]1[H]

>  <combo1>  (1) 
-0.38543199073595963

$$$$
