
     RDKit          3D

 35 36  0  0  0  0  0  0  0  0999 V2000
   10.5642   -4.6142   25.9058 H   0  0  0  0  0  0  0  0  0  0  0  0
    9.7114   -5.1188   25.9475 O   0  0  0  0  0  0  0  0  0  0  0  0
    9.3586   -4.5410   24.5611 P   0  0  0  0  0  0  0  0  0  0  0  0
    8.8533   -5.4895   23.5545 O   0  0  0  0  0  0  0  0  0  0  0  0
   10.7819   -4.5791   24.9911 O   0  0  0  0  0  0  0  0  0  0  0  0
   10.5114   -5.3768   25.5180 H   0  0  0  0  0  0  0  0  0  0  0  0
    8.6438   -2.9330   24.3432 C   0  0  0  0  0  0  0  0  0  0  0  0
    9.1120   -2.2822   25.0783 H   0  0  0  0  0  0  0  0  0  0  0  0
    8.3493   -2.1300   23.0351 N   0  0  0  0  0  0  0  0  0  0  0  0
    8.8370   -2.3192   22.1422 H   0  0  0  0  0  0  0  0  0  0  0  0
    7.7498   -0.8593   23.0370 C   0  0  0  0  0  0  0  0  0  0  0  0
    7.3999   -0.0958   21.9526 C   0  0  0  0  0  0  0  0  0  0  0  0
    7.5190   -0.3986   20.5746 N   0  0  0  0  0  0  0  0  0  0  0  0
    8.0962   -1.2007   20.3147 H   0  0  0  0  0  0  0  0  0  0  0  0
    6.8260    0.2739   19.5441 C   0  0  0  0  0  0  0  0  0  0  0  0
    7.1973    0.1320   18.1870 C   0  0  0  0  0  0  0  0  0  0  0  0
    8.0442   -0.5098   17.9633 H   0  0  0  0  0  0  0  0  0  0  0  0
    6.5733    0.7485   17.1577 N   0  0  0  0  0  0  0  0  0  0  0  0
    5.5240    1.5394   17.4497 C   0  0  0  0  0  0  0  0  0  0  0  0
    5.0158    2.0514   16.6399 H   0  0  0  0  0  0  0  0  0  0  0  0
    5.0673    1.7188   18.7604 C   0  0  0  0  0  0  0  0  0  0  0  0
    4.2165    2.3675   18.9375 H   0  0  0  0  0  0  0  0  0  0  0  0
    5.7190    1.0815   19.8210 C   0  0  0  0  0  0  0  0  0  0  0  0
    5.3688    1.1997   20.8425 H   0  0  0  0  0  0  0  0  0  0  0  0
    6.8783    1.1418   22.5377 C   0  0  0  0  0  0  0  0  0  0  0  0
    6.5455    1.9929   21.9522 H   0  0  0  0  0  0  0  0  0  0  0  0
    6.8911    1.1236   23.8545 N   0  0  0  0  0  0  0  0  0  0  0  0
    7.4053   -0.1080   24.1496 N   0  0  0  0  0  0  0  0  0  0  0  0
    7.5642   -0.4438   25.0971 H   0  0  0  0  0  0  0  0  0  0  0  0
    7.5596   -4.0663   25.1832 P   0  0  0  0  0  0  0  0  0  0  0  0
    7.3478   -5.3964   25.7714 O   0  0  0  0  0  0  0  0  0  0  0  0
    6.5971   -4.6840   24.3277 O   0  0  0  0  0  0  0  0  0  0  0  0
    6.7215   -5.3848   25.0445 H   0  0  0  0  0  0  0  0  0  0  0  0
    7.5920   -3.8336   26.5967 O   0  0  0  0  0  0  0  0  0  0  0  0
    7.3642   -4.8220   26.5387 H   0  0  0  0  0  0  0  0  0  0  0  0
  1  2  1  0
  2  3  1  0
  3  4  2  0
  3  5  1  0
  5  6  1  0
  3  7  1  0
  7  8  1  0
  7  9  1  0
  9 10  1  0
  9 11  1  0
 11 12  2  0
 12 13  1  0
 13 14  1  0
 13 15  1  0
 15 16  2  0
 16 17  1  0
 16 18  1  0
 18 19  2  0
 19 20  1  0
 19 21  1  0
 21 22  1  0
 21 23  2  0
 23 24  1  0
 12 25  1  0
 25 26  1  0
 25 27  2  0
 27 28  1  0
 28 29  1  0
  7 30  1  0
 30 31  2  0
 30 32  1  0
 32 33  1  0
 30 34  1  0
 34 35  1  0
 28 11  1  0
 23 15  1  0
M  END
>  <cnnaffinity>  (1) 
4.78148

>  <plip>  (1) 
-0.1

>  <filename>  (1) 
[H][O][P](=[O])([O][H])[C]([H])([N]([H])[c]1[c]([N]([H])[c]2[c]([H])[n][c]([H])[c]([H])[c]2[H])[c]([H])[n][n]1[H])[P](=[O])([O][H])[O][H]

>  <combo1>  (1) 
-0.45644844110964744

$$$$
