
     RDKit          3D

 37 39  0  0  0  0  0  0  0  0999 V2000
    8.5350   -3.5338   22.2178 C   0  0  0  0  0  0  0  0  0  0  0  0
    8.0600   -2.1617   21.8912 C   0  0  0  0  0  0  0  0  0  0  0  0
    7.6607   -1.8048   20.6894 N   0  0  0  0  0  0  0  0  0  0  0  0
    7.1756   -0.5553   20.8930 N   0  0  0  0  0  0  0  0  0  0  0  0
    6.5161    0.1213   19.8396 C   0  0  0  0  0  0  0  0  0  0  0  0
    5.3125    0.8201   20.0126 C   0  0  0  0  0  0  0  0  0  0  0  0
    4.7454    1.4385   18.8925 C   0  0  0  0  0  0  0  0  0  0  0  0
    5.4082    1.3518   17.6646 C   0  0  0  0  0  0  0  0  0  0  0  0
    6.5538    0.6678   17.4925 N   0  0  0  0  0  0  0  0  0  0  0  0
    7.0781    0.0517   18.5534 C   0  0  0  0  0  0  0  0  0  0  0  0
    7.9843   -0.5305   18.3971 H   0  0  0  0  0  0  0  0  0  0  0  0
    5.0071    1.8383   16.7792 H   0  0  0  0  0  0  0  0  0  0  0  0
    3.8196    2.0012   18.9664 H   0  0  0  0  0  0  0  0  0  0  0  0
    4.8255    0.8813   20.9863 H   0  0  0  0  0  0  0  0  0  0  0  0
    7.3841   -0.1995   22.1981 C   0  0  0  0  0  0  0  0  0  0  0  0
    7.0789    1.1563   22.7684 C   0  0  0  0  0  0  0  0  0  0  0  0
    8.1839    1.6521   23.6758 C   0  0  0  0  0  0  0  0  0  0  0  0
    8.1933    1.3964   24.9851 C   0  0  0  0  0  0  0  0  0  0  0  0
    9.4483    1.4980   25.8283 C   0  0  0  0  0  0  0  0  0  0  0  0
   10.7173    1.5787   24.9609 C   0  0  0  0  0  0  0  0  0  0  0  0
   10.5363    2.6447   23.8757 C   0  0  0  0  0  0  0  0  0  0  0  0
    9.3804    2.2376   22.9437 C   0  0  0  0  0  0  0  0  0  0  0  0
    9.0662    3.0764   22.3118 H   0  0  0  0  0  0  0  0  0  0  0  0
    9.7287    1.4688   22.2411 H   0  0  0  0  0  0  0  0  0  0  0  0
   11.4589    2.7796   23.2986 H   0  0  0  0  0  0  0  0  0  0  0  0
   10.3190    3.6125   24.3505 H   0  0  0  0  0  0  0  0  0  0  0  0
   11.5947    1.7940   25.5744 H   0  0  0  0  0  0  0  0  0  0  0  0
   10.8956    0.6059   24.4762 H   0  0  0  0  0  0  0  0  0  0  0  0
    9.3706    2.3980   26.4533 H   0  0  0  0  0  0  0  0  0  0  0  0
    9.5057    0.6515   26.5231 H   0  0  0  0  0  0  0  0  0  0  0  0
    7.2721    1.0961   25.4849 H   0  0  0  0  0  0  0  0  0  0  0  0
    6.1300    1.0938   23.3156 H   0  0  0  0  0  0  0  0  0  0  0  0
    6.9502    1.8560   21.9389 H   0  0  0  0  0  0  0  0  0  0  0  0
    7.9174   -1.2118   22.8496 N   0  0  0  0  0  0  0  0  0  0  0  0
    8.3489   -4.2006   21.3777 H   0  0  0  0  0  0  0  0  0  0  0  0
    7.9761   -3.8833   23.0881 H   0  0  0  0  0  0  0  0  0  0  0  0
    9.6020   -3.5348   22.4529 H   0  0  0  0  0  0  0  0  0  0  0  0
  1  2  1  0
  2  3  2  0
  3  4  1  0
  4  5  1  0
  5  6  2  0
  6  7  1  0
  7  8  2  0
  8  9  1  0
  9 10  2  0
 10 11  1  0
  8 12  1  0
  7 13  1  0
  6 14  1  0
  4 15  1  0
 15 16  1  0
 16 17  1  0
 17 18  2  0
 18 19  1  0
 19 20  1  0
 20 21  1  0
 21 22  1  0
 22 23  1  0
 22 24  1  0
 21 25  1  0
 21 26  1  0
 20 27  1  0
 20 28  1  0
 19 29  1  0
 19 30  1  0
 18 31  1  0
 16 32  1  0
 16 33  1  0
 15 34  2  0
  1 35  1  0
  1 36  1  0
  1 37  1  0
 34  2  1  0
 10  5  1  0
 22 17  1  0
M  END
>  <cnnaffinity>  (1) 
5.49934

>  <plip>  (1) 
-0.10714285714285714

>  <filename>  (1) 
[H][C]1=[C]([C]([H])([H])[c]2[n][c]([C]([H])([H])[H])[n][n]2-[c]2[c]([H])[n][c]([H])[c]([H])[c]2[H])[C]([H])([H])[C]([H])([H])[C]([H])([H])[C]1([H])[H]

>  <combo1>  (1) 
-0.7722234672894621

$$$$
