
     RDKit          3D

 44 46  0  0  0  0  0  0  0  0999 V2000
    3.5592   -4.8408   25.9186 C   0  0  0  0  0  0  0  0  0  0  0  0
    4.2954   -5.7616   24.9751 C   0  0  0  0  0  0  0  0  0  0  0  0
    3.6519   -6.8707   24.4010 C   0  0  0  0  0  0  0  0  0  0  0  0
    4.1761   -7.6540   23.4554 N   0  0  0  0  0  0  0  0  0  0  0  0
    5.3852   -7.3132   22.9908 C   0  0  0  0  0  0  0  0  0  0  0  0
    6.1284   -6.2559   23.5031 C   0  0  0  0  0  0  0  0  0  0  0  0
    5.6394   -5.5433   24.6032 C   0  0  0  0  0  0  0  0  0  0  0  0
    6.5870   -4.5979   25.3221 C   0  0  0  0  0  0  0  0  0  0  0  0
    7.1264   -3.4909   24.3999 C   0  0  0  0  0  0  0  0  0  0  0  0
    5.9988   -2.6585   23.7919 C   0  0  0  0  0  0  0  0  0  0  0  0
    6.5015   -1.7110   22.8109 N   0  0  0  0  0  0  0  0  0  0  0  0
    6.6690   -1.9554   21.4759 C   0  0  0  0  0  0  0  0  0  0  0  0
    6.3808   -2.9798   20.9072 O   0  0  0  0  0  0  0  0  0  0  0  0
    7.3989   -0.7154   20.8909 C   0  0  0  0  0  0  0  0  0  0  0  0
    6.6619    0.0518   19.7994 C   0  0  0  0  0  0  0  0  0  0  0  0
    5.4339    0.6843   20.0309 C   0  0  0  0  0  0  0  0  0  0  0  0
    4.8240    1.3597   18.9692 C   0  0  0  0  0  0  0  0  0  0  0  0
    5.4589    1.3760   17.7204 C   0  0  0  0  0  0  0  0  0  0  0  0
    6.6331    0.7698   17.4797 N   0  0  0  0  0  0  0  0  0  0  0  0
    7.2085    0.1381   18.5083 C   0  0  0  0  0  0  0  0  0  0  0  0
    8.1613   -0.3456   18.2936 H   0  0  0  0  0  0  0  0  0  0  0  0
    5.0090    1.8941   16.8733 H   0  0  0  0  0  0  0  0  0  0  0  0
    3.8744    1.8739   19.0955 H   0  0  0  0  0  0  0  0  0  0  0  0
    4.9735    0.6591   21.0214 H   0  0  0  0  0  0  0  0  0  0  0  0
    7.6405    0.0716   22.0951 N   0  0  0  0  0  0  0  0  0  0  0  0
    8.3394    1.3407   22.2053 C   0  0  0  0  0  0  0  0  0  0  0  0
    9.1677    1.2565   22.9190 H   0  0  0  0  0  0  0  0  0  0  0  0
    8.7313    1.6336   21.2282 H   0  0  0  0  0  0  0  0  0  0  0  0
    7.6699    2.1287   22.5710 H   0  0  0  0  0  0  0  0  0  0  0  0
    7.1214   -0.5369   23.1985 C   0  0  0  0  0  0  0  0  0  0  0  0
    7.1884   -0.1490   24.3465 O   0  0  0  0  0  0  0  0  0  0  0  0
    8.3342   -1.0945   20.4498 H   0  0  0  0  0  0  0  0  0  0  0  0
    5.5020   -2.0844   24.5846 H   0  0  0  0  0  0  0  0  0  0  0  0
    5.2529   -3.2985   23.3038 H   0  0  0  0  0  0  0  0  0  0  0  0
    7.7962   -2.8170   24.9517 H   0  0  0  0  0  0  0  0  0  0  0  0
    7.7268   -3.9329   23.5913 H   0  0  0  0  0  0  0  0  0  0  0  0
    7.4368   -5.1853   25.6980 H   0  0  0  0  0  0  0  0  0  0  0  0
    6.1044   -4.1622   26.2071 H   0  0  0  0  0  0  0  0  0  0  0  0
    7.0983   -6.0199   23.0746 H   0  0  0  0  0  0  0  0  0  0  0  0
    5.8110   -7.9326   22.2072 H   0  0  0  0  0  0  0  0  0  0  0  0
    2.6319   -7.1163   24.7030 H   0  0  0  0  0  0  0  0  0  0  0  0
    2.4851   -5.0466   25.8852 H   0  0  0  0  0  0  0  0  0  0  0  0
    3.8774   -4.9322   26.9661 H   0  0  0  0  0  0  0  0  0  0  0  0
    3.7145   -3.7983   25.6125 H   0  0  0  0  0  0  0  0  0  0  0  0
  1  2  1  0
  2  3  2  0
  3  4  1  0
  4  5  2  0
  5  6  1  0
  6  7  2  0
  7  8  1  0
  8  9  1  0
  9 10  1  0
 10 11  1  0
 11 12  1  0
 12 13  2  0
 12 14  1  0
 14 15  1  0
 15 16  2  0
 16 17  1  0
 17 18  2  0
 18 19  1  0
 19 20  2  0
 20 21  1  0
 18 22  1  0
 17 23  1  0
 16 24  1  0
 14 25  1  0
 25 26  1  0
 26 27  1  0
 26 28  1  0
 26 29  1  0
 25 30  1  0
 30 31  2  0
 14 32  1  0
 10 33  1  0
 10 34  1  0
  9 35  1  0
  9 36  1  0
  8 37  1  0
  8 38  1  0
  6 39  1  0
  5 40  1  0
  3 41  1  0
  1 42  1  0
  1 43  1  0
  1 44  1  0
  7  2  1  0
 30 11  1  0
 20 15  1  0
M  END
>  <cnnaffinity>  (1) 
5.51695

>  <plip>  (1) 
-0.10344827586206896

>  <filename>  (1) 
[H][c]1[n][c]([H])[c]([C]2([H])[C](=[O])[N]([C]([H])([H])[C]([H])([H])[C]([H])([H])[c]3[c]([H])[c]([H])[n][c]([H])[c]3[C]([H])([H])[H])[C](=[O])[N]2[C]([H])([H])[H])[c]([H])[c]1[H]

>  <combo1>  (1) 
-0.5864643606725793

$$$$
