
     RDKit          3D

 32 34  0  0  0  0  0  0  0  0999 V2000
    4.8394    1.9781   16.8075 H   0  0  0  0  0  0  0  0  0  0  0  0
    5.3161    1.4301   17.6159 C   0  0  0  0  0  0  0  0  0  0  0  0
    6.4710    0.8080   17.3068 N   0  0  0  0  0  0  0  0  0  0  0  0
    7.0924    0.1580   18.2944 C   0  0  0  0  0  0  0  0  0  0  0  0
    8.0208   -0.3480   18.0516 H   0  0  0  0  0  0  0  0  0  0  0  0
    6.6371    0.0859   19.6340 C   0  0  0  0  0  0  0  0  0  0  0  0
    7.3924   -0.6637   20.5631 N   0  0  0  0  0  0  0  0  0  0  0  0
    7.6655   -0.2688   21.7533 C   0  0  0  0  0  0  0  0  0  0  0  0
    8.3116   -1.2416   22.7314 C   0  0  0  0  0  0  0  0  0  0  0  0
    8.5368   -0.7770   23.9469 N   0  0  0  0  0  0  0  0  0  0  0  0
    8.8844   -1.6457   24.9295 C   0  0  0  0  0  0  0  0  0  0  0  0
    9.0587   -1.1014   26.2281 C   0  0  0  0  0  0  0  0  0  0  0  0
    8.9382   -0.0248   26.3243 H   0  0  0  0  0  0  0  0  0  0  0  0
    9.3644   -1.9288   27.2742 C   0  0  0  0  0  0  0  0  0  0  0  0
    9.4979   -1.4706   28.2509 H   0  0  0  0  0  0  0  0  0  0  0  0
    9.5266   -3.3399   27.0646 C   0  0  0  0  0  0  0  0  0  0  0  0
    9.8093   -4.0001   27.8853 H   0  0  0  0  0  0  0  0  0  0  0  0
    9.3733   -3.8859   25.8144 C   0  0  0  0  0  0  0  0  0  0  0  0
    9.4773   -4.9600   25.6542 H   0  0  0  0  0  0  0  0  0  0  0  0
    9.0739   -3.0452   24.7019 C   0  0  0  0  0  0  0  0  0  0  0  0
    8.9744   -3.4965   23.3488 C   0  0  0  0  0  0  0  0  0  0  0  0
    9.1758   -4.5514   23.1383 H   0  0  0  0  0  0  0  0  0  0  0  0
    8.6071   -2.6070   22.3679 C   0  0  0  0  0  0  0  0  0  0  0  0
    8.4953   -2.8839   21.3225 H   0  0  0  0  0  0  0  0  0  0  0  0
    7.3767    1.1264   22.2548 C   0  0  0  0  0  0  0  0  0  0  0  0
    7.3774    1.8448   21.4347 H   0  0  0  0  0  0  0  0  0  0  0  0
    8.1119    1.4050   23.0087 H   0  0  0  0  0  0  0  0  0  0  0  0
    6.4012    1.1487   22.7526 H   0  0  0  0  0  0  0  0  0  0  0  0
    5.4090    0.7016   19.9194 C   0  0  0  0  0  0  0  0  0  0  0  0
    5.0027    0.6384   20.9278 H   0  0  0  0  0  0  0  0  0  0  0  0
    4.7502    1.3910   18.8931 C   0  0  0  0  0  0  0  0  0  0  0  0
    3.8163    1.9066   19.0812 H   0  0  0  0  0  0  0  0  0  0  0  0
  1  2  1  0
  2  3  2  0
  3  4  1  0
  4  5  1  0
  4  6  2  0
  6  7  1  0
  7  8  2  3
  8  9  1  0
  9 10  2  0
 10 11  1  0
 11 12  2  0
 12 13  1  0
 12 14  1  0
 14 15  1  0
 14 16  2  0
 16 17  1  0
 16 18  1  0
 18 19  1  0
 18 20  2  0
 20 21  1  0
 21 22  1  0
 21 23  2  0
 23 24  1  0
  8 25  1  0
 25 26  1  0
 25 27  1  0
 25 28  1  0
  6 29  1  0
 29 30  1  0
 29 31  2  0
 31 32  1  0
 31  2  1  0
 23  9  1  0
 20 11  1  0
M  END
>  <cnnaffinity>  (1) 
4.62889

>  <plip>  (1) 
-0.06896551724137931

>  <filename>  (1) 
[H][c]1[n][c]([H])[c]([N]=[C]([c]2[n][c]3[c]([H])[c]([H])[c]([H])[c]([H])[c]3[c]([H])[c]2[H])[C]([H])([H])[H])[c]([H])[c]1[H]

>  <combo1>  (1) 
-0.43029047342233173

$$$$
