
     RDKit          3D

 41 43  0  0  0  0  0  0  0  0999 V2000
   12.7073    5.0341   21.3126 F   0  0  0  0  0  0  0  0  0  0  0  0
   11.7598    5.2742   22.2676 C   0  0  0  0  0  0  0  0  0  0  0  0
   12.4030    5.8924   23.3009 F   0  0  0  0  0  0  0  0  0  0  0  0
   11.0895    3.9963   22.7096 C   0  0  0  0  0  0  0  0  0  0  0  0
    9.6887    3.9272   22.6605 C   0  0  0  0  0  0  0  0  0  0  0  0
    9.0235    2.7326   22.9226 C   0  0  0  0  0  0  0  0  0  0  0  0
    9.7376    1.5712   23.2607 C   0  0  0  0  0  0  0  0  0  0  0  0
    8.9889    0.2786   23.4931 C   0  0  0  0  0  0  0  0  0  0  0  0
    9.4368   -0.8466   22.5181 N   0  0  0  0  0  4  0  0  0  0  0  0
    8.9463   -2.2226   22.9103 C   0  0  0  0  0  0  0  0  0  0  0  0
    7.4136   -2.2444   22.9952 C   0  0  0  0  0  0  0  0  0  0  0  0
    6.7481   -1.5634   21.8166 C   0  0  0  0  0  0  0  0  0  0  0  0
    7.3937   -0.7616   20.9587 C   0  0  0  0  0  0  0  0  0  0  0  0
    6.6824   -0.0287   19.8662 C   0  0  0  0  0  0  0  0  0  0  0  0
    5.4568    0.6271   20.0998 C   0  0  0  0  0  0  0  0  0  0  0  0
    4.8389    1.3208   19.0576 C   0  0  0  0  0  0  0  0  0  0  0  0
    5.4479    1.3237   17.7981 C   0  0  0  0  0  0  0  0  0  0  0  0
    6.5986    0.6844   17.5384 N   0  0  0  0  0  0  0  0  0  0  0  0
    7.1891    0.0405   18.5527 C   0  0  0  0  0  0  0  0  0  0  0  0
    8.1186   -0.4703   18.3010 H   0  0  0  0  0  0  0  0  0  0  0  0
    4.9943    1.8548   16.9628 H   0  0  0  0  0  0  0  0  0  0  0  0
    3.9062    1.8573   19.2042 H   0  0  0  0  0  0  0  0  0  0  0  0
    5.0147    0.6083   21.0971 H   0  0  0  0  0  0  0  0  0  0  0  0
    8.9059   -0.5713   21.0724 C   0  0  0  0  0  0  0  0  0  0  0  0
    9.1751    0.4479   20.7995 H   0  0  0  0  0  0  0  0  0  0  0  0
    9.4162   -1.2563   20.3842 H   0  0  0  0  0  0  0  0  0  0  0  0
    5.6730   -1.7155   21.7014 H   0  0  0  0  0  0  0  0  0  0  0  0
    7.0646   -3.2769   23.0950 H   0  0  0  0  0  0  0  0  0  0  0  0
    7.0947   -1.7371   23.9157 H   0  0  0  0  0  0  0  0  0  0  0  0
    9.3861   -2.5277   23.8653 H   0  0  0  0  0  0  0  0  0  0  0  0
    9.2779   -2.9340   22.1487 H   0  0  0  0  0  0  0  0  0  0  0  0
   10.4774   -0.7913   22.5113 H   0  0  0  0  0  0  0  0  0  0  0  0
    9.1166   -0.0761   24.5227 H   0  0  0  0  0  0  0  0  0  0  0  0
    7.9240    0.4480   23.3238 H   0  0  0  0  0  0  0  0  0  0  0  0
   11.1353    1.6550   23.3738 C   0  0  0  0  0  0  0  0  0  0  0  0
   11.8081    2.8536   23.1117 C   0  0  0  0  0  0  0  0  0  0  0  0
   12.8911    2.8969   23.2206 H   0  0  0  0  0  0  0  0  0  0  0  0
   11.7007    0.7667   23.6510 H   0  0  0  0  0  0  0  0  0  0  0  0
    7.9392    2.7026   22.8358 H   0  0  0  0  0  0  0  0  0  0  0  0
    9.1019    4.7986   22.3544 H   0  0  0  0  0  0  0  0  0  0  0  0
   11.0335    5.9858   21.8515 H   0  0  0  0  0  0  0  0  0  0  0  0
  1  2  1  0
  2  3  1  0
  2  4  1  0
  4  5  2  0
  5  6  1  0
  6  7  2  0
  7  8  1  0
  8  9  1  0
  9 10  1  0
 10 11  1  0
 11 12  1  0
 12 13  2  0
 13 14  1  0
 14 15  2  0
 15 16  1  0
 16 17  2  0
 17 18  1  0
 18 19  2  0
 19 20  1  0
 17 21  1  0
 16 22  1  0
 15 23  1  0
 13 24  1  0
 24 25  1  0
 24 26  1  0
 12 27  1  0
 11 28  1  0
 11 29  1  0
 10 30  1  0
 10 31  1  0
  9 32  1  0
  8 33  1  0
  8 34  1  0
  7 35  1  0
 35 36  2  0
 36 37  1  0
 35 38  1  0
  6 39  1  0
  5 40  1  0
  2 41  1  0
 36  4  1  0
 24  9  1  0
 19 14  1  0
M  CHG  1   9   1
M  END
>  <cnnaffinity>  (1) 
5.10354

>  <plip>  (1) 
-0.034482758620689655

>  <filename>  (1) 
[H][C]1=[C]([c]2[c]([H])[n][c]([H])[c]([H])[c]2[H])[C]([H])([H])[N+]([H])([C]([H])([H])[c]2[c]([H])[c]([H])[c]([C]([H])([F])[F])[c]([H])[c]2[H])[C]([H])([H])[C]1([H])[H]

>  <combo1>  (1) 
-0.1946554928004542

$$$$
