
     RDKit          3D

 39 41  0  0  0  0  0  0  0  0999 V2000
    5.7483    2.3213   27.1265 C   0  0  0  0  0  0  0  0  0  0  0  0
    4.8684    1.1177   26.9545 C   0  0  0  0  0  0  0  0  0  0  0  0
    3.7255    0.9674   27.7378 C   0  0  0  0  0  0  0  0  0  0  0  0
    2.9262   -0.1617   27.5789 C   0  0  0  0  0  0  0  0  0  0  0  0
    3.1880   -1.1306   26.7017 N   0  0  0  0  0  0  0  0  0  0  0  0
    4.2844   -0.9831   25.9523 C   0  0  0  0  0  0  0  0  0  0  0  0
    5.1652    0.1011   26.0229 C   0  0  0  0  0  0  0  0  0  0  0  0
    6.3918    0.1259   25.1585 C   0  0  0  0  0  0  0  0  0  0  0  0
    6.0257    0.7566   23.8321 N   0  0  0  0  0  4  0  0  0  0  0  0
    7.1917    0.9586   22.9284 C   0  0  0  0  0  0  0  0  0  0  0  0
    7.6133   -0.3224   22.2721 C   0  0  0  0  0  0  0  0  0  0  0  0
    8.4037   -1.3071   22.8256 C   0  0  0  0  0  0  0  0  0  0  0  0
    8.6169   -2.2145   21.8455 N   0  0  0  0  0  0  0  0  0  0  0  0
    8.0415   -1.8763   20.6837 N   0  0  0  0  0  0  0  0  0  0  0  0
    7.4089   -0.7347   20.9283 C   0  0  0  0  0  0  0  0  0  0  0  0
    6.6537   -0.0115   19.8992 C   0  0  0  0  0  0  0  0  0  0  0  0
    5.4396    0.6447   20.1565 C   0  0  0  0  0  0  0  0  0  0  0  0
    4.8040    1.3074   19.1095 C   0  0  0  0  0  0  0  0  0  0  0  0
    5.4022    1.2926   17.8459 C   0  0  0  0  0  0  0  0  0  0  0  0
    6.5671    0.6808   17.5880 N   0  0  0  0  0  0  0  0  0  0  0  0
    7.1697    0.0479   18.5970 C   0  0  0  0  0  0  0  0  0  0  0  0
    8.1173   -0.4315   18.3668 H   0  0  0  0  0  0  0  0  0  0  0  0
    4.9235    1.7815   16.9998 H   0  0  0  0  0  0  0  0  0  0  0  0
    3.8765    1.8418   19.2572 H   0  0  0  0  0  0  0  0  0  0  0  0
    5.0001    0.6316   21.1561 H   0  0  0  0  0  0  0  0  0  0  0  0
    9.1830   -3.0495   21.8697 H   0  0  0  0  0  0  0  0  0  0  0  0
    8.8546   -1.3898   23.8101 H   0  0  0  0  0  0  0  0  0  0  0  0
    6.9820    1.7280   22.1837 H   0  0  0  0  0  0  0  0  0  0  0  0
    8.0368    1.3291   23.5236 H   0  0  0  0  0  0  0  0  0  0  0  0
    5.5310    1.6451   24.0664 H   0  0  0  0  0  0  0  0  0  0  0  0
    5.3609    0.0767   23.3761 H   0  0  0  0  0  0  0  0  0  0  0  0
    6.7738   -0.8810   24.9721 H   0  0  0  0  0  0  0  0  0  0  0  0
    7.2081    0.6878   25.6292 H   0  0  0  0  0  0  0  0  0  0  0  0
    4.4829   -1.8063   25.2671 H   0  0  0  0  0  0  0  0  0  0  0  0
    2.0313   -0.2876   28.1851 H   0  0  0  0  0  0  0  0  0  0  0  0
    3.4619    1.7266   28.4642 H   0  0  0  0  0  0  0  0  0  0  0  0
    5.9653    2.7936   26.1624 H   0  0  0  0  0  0  0  0  0  0  0  0
    6.7056    2.0506   27.5863 H   0  0  0  0  0  0  0  0  0  0  0  0
    5.2713    3.0698   27.7629 H   0  0  0  0  0  0  0  0  0  0  0  0
  1  2  1  0
  2  3  2  0
  3  4  1  0
  4  5  2  0
  5  6  1  0
  6  7  2  0
  7  8  1  0
  8  9  1  0
  9 10  1  0
 10 11  1  0
 11 12  2  0
 12 13  1  0
 13 14  1  0
 14 15  2  0
 15 16  1  0
 16 17  2  0
 17 18  1  0
 18 19  2  0
 19 20  1  0
 20 21  2  0
 21 22  1  0
 19 23  1  0
 18 24  1  0
 17 25  1  0
 13 26  1  0
 12 27  1  0
 10 28  1  0
 10 29  1  0
  9 30  1  0
  9 31  1  0
  8 32  1  0
  8 33  1  0
  6 34  1  0
  4 35  1  0
  3 36  1  0
  1 37  1  0
  1 38  1  0
  1 39  1  0
  7  2  1  0
 15 11  1  0
 21 16  1  0
M  CHG  1   9   1
M  END
>  <cnnaffinity>  (1) 
4.57847

>  <plip>  (1) 
-0.06896551724137931

>  <filename>  (1) 
[H][c]1[n][c]([H])[c](-[c]2[n][n]([H])[c]([H])[c]2[C]([H])([H])[N+]([H])([H])[C]([H])([H])[c]2[c]([H])[n][c]([H])[c]([H])[c]2[C]([H])([H])[H])[c]([H])[c]1[H]

>  <combo1>  (1) 
-0.3754246719624979

$$$$
