
     RDKit          3D

 46 48  0  0  0  0  0  0  0  0999 V2000
    6.2994   -5.0912   20.2639 Cl  0  0  0  0  0  0  0  0  0  0  0  0
    5.8463   -4.9721   21.9460 C   0  0  0  0  0  0  0  0  0  0  0  0
    4.9948   -5.9536   22.4594 C   0  0  0  0  0  0  0  0  0  0  0  0
    4.5800   -5.8674   23.7887 C   0  0  0  0  0  0  0  0  0  0  0  0
    5.0245   -4.8196   24.5995 C   0  0  0  0  0  0  0  0  0  0  0  0
    5.8947   -3.8618   24.0738 C   0  0  0  0  0  0  0  0  0  0  0  0
    6.3293   -3.9124   22.7377 C   0  0  0  0  0  0  0  0  0  0  0  0
    7.3348   -2.9079   22.2268 C   0  0  0  0  0  0  0  0  0  0  0  0
    6.6198   -1.8350   21.4989 N   0  0  0  0  0  4  0  0  0  0  0  0
    7.3991   -0.6770   20.9798 C   0  0  0  0  0  0  0  0  0  0  0  0
    7.8421    0.2938   22.1028 C   0  0  0  0  0  0  0  0  0  0  0  0
    8.8259    1.3462   21.6737 N   0  0  0  0  0  4  0  0  0  0  0  0
    9.1730    2.3079   22.7882 C   0  0  0  0  0  0  0  0  0  0  0  0
   10.6013    2.7961   22.5075 C   0  0  0  0  0  0  0  0  0  0  0  0
   11.1537    1.9281   21.3573 C   0  0  0  0  0  0  0  0  0  0  0  0
   10.1447    0.8000   21.1605 C   0  0  0  0  0  0  0  0  0  0  0  0
   10.4274   -0.0695   21.7659 H   0  0  0  0  0  0  0  0  0  0  0  0
   10.0246    0.4960   20.1166 H   0  0  0  0  0  0  0  0  0  0  0  0
   12.1404    1.5188   21.6038 H   0  0  0  0  0  0  0  0  0  0  0  0
   11.2577    2.5193   20.4418 H   0  0  0  0  0  0  0  0  0  0  0  0
   11.1995    2.6820   23.4175 H   0  0  0  0  0  0  0  0  0  0  0  0
   10.6291    3.8522   22.2346 H   0  0  0  0  0  0  0  0  0  0  0  0
    8.4213    3.1054   22.8439 H   0  0  0  0  0  0  0  0  0  0  0  0
    9.1481    1.7591   23.7351 H   0  0  0  0  0  0  0  0  0  0  0  0
    8.3751    1.9070   20.9056 H   0  0  0  0  0  0  0  0  0  0  0  0
    6.9459    0.7567   22.5315 H   0  0  0  0  0  0  0  0  0  0  0  0
    8.2974   -0.3064   22.9035 H   0  0  0  0  0  0  0  0  0  0  0  0
    6.5590   -0.0116   19.9114 C   0  0  0  0  0  0  0  0  0  0  0  0
    5.3510    0.6708   20.1313 C   0  0  0  0  0  0  0  0  0  0  0  0
    4.7591    1.3362   19.0532 C   0  0  0  0  0  0  0  0  0  0  0  0
    5.3819    1.3084   17.8023 C   0  0  0  0  0  0  0  0  0  0  0  0
    6.5227    0.6468   17.5685 N   0  0  0  0  0  0  0  0  0  0  0  0
    7.0757    0.0142   18.6080 C   0  0  0  0  0  0  0  0  0  0  0  0
    8.0100   -0.5066   18.3964 H   0  0  0  0  0  0  0  0  0  0  0  0
    4.9529    1.8499   16.9569 H   0  0  0  0  0  0  0  0  0  0  0  0
    3.8372    1.8906   19.1709 H   0  0  0  0  0  0  0  0  0  0  0  0
    4.8737    0.6925   21.1174 H   0  0  0  0  0  0  0  0  0  0  0  0
    8.3148   -1.0535   20.5127 H   0  0  0  0  0  0  0  0  0  0  0  0
    6.1162   -2.2721   20.6879 H   0  0  0  0  0  0  0  0  0  0  0  0
    5.8726   -1.4533   22.1425 H   0  0  0  0  0  0  0  0  0  0  0  0
    8.0667   -3.4131   21.5886 H   0  0  0  0  0  0  0  0  0  0  0  0
    7.8933   -2.5169   23.0870 H   0  0  0  0  0  0  0  0  0  0  0  0
    6.2512   -3.0588   24.7157 H   0  0  0  0  0  0  0  0  0  0  0  0
    4.7113   -4.7545   25.6377 H   0  0  0  0  0  0  0  0  0  0  0  0
    3.9206   -6.6279   24.1970 H   0  0  0  0  0  0  0  0  0  0  0  0
    4.6824   -6.7756   21.8193 H   0  0  0  0  0  0  0  0  0  0  0  0
  1  2  1  0
  2  3  2  0
  3  4  1  0
  4  5  2  0
  5  6  1  0
  6  7  2  0
  7  8  1  0
  8  9  1  0
  9 10  1  0
 10 11  1  0
 11 12  1  0
 12 13  1  0
 13 14  1  0
 14 15  1  0
 15 16  1  0
 16 17  1  0
 16 18  1  0
 15 19  1  0
 15 20  1  0
 14 21  1  0
 14 22  1  0
 13 23  1  0
 13 24  1  0
 12 25  1  0
 11 26  1  0
 11 27  1  0
 10 28  1  0
 28 29  2  0
 29 30  1  0
 30 31  2  0
 31 32  1  0
 32 33  2  0
 33 34  1  0
 31 35  1  0
 30 36  1  0
 29 37  1  0
 10 38  1  0
  9 39  1  0
  9 40  1  0
  8 41  1  0
  8 42  1  0
  6 43  1  0
  5 44  1  0
  4 45  1  0
  3 46  1  0
  7  2  1  0
 16 12  1  0
 33 28  1  0
M  CHG  2   9   1  12   1
M  END
>  <cnnaffinity>  (1) 
4.52009

>  <plip>  (1) 
-0.14285714285714285

>  <filename>  (1) 
[H][c]1[n][c]([H])[c]([C]([H])([C]([H])([H])[N+]2([H])[C]([H])([H])[C]([H])([H])[C]([H])([H])[C]2([H])[H])[N+]([H])([H])[C]([H])([H])[c]2[c]([H])[c]([H])[c]([H])[c]([H])[c]2[Cl])[c]([H])[c]1[H]

>  <combo1>  (1) 
-0.6771524329662404

$$$$
