
     RDKit          3D

 33 35  0  0  0  0  0  0  0  0999 V2000
    7.6280   -2.0641   20.8957 C   0  0  0  0  0  0  0  0  0  0  0  0
    7.2742   -0.6000   21.1547 C   0  0  1  0  0  0  0  0  0  0  0  0
    8.4944    0.1362   21.3777 N   0  0  0  0  0  0  0  0  0  0  0  0
    9.1876    0.1930   22.5422 C   0  0  0  0  0  0  0  0  0  0  0  0
    8.8221   -0.5616   23.6501 C   0  0  0  0  0  0  0  0  0  0  0  0
    9.4508   -0.3134   24.8839 C   0  0  0  0  0  0  0  0  0  0  0  0
   10.3980    0.5829   25.0666 N   0  0  0  0  0  0  0  0  0  0  0  0
   10.8023    1.2921   23.9680 C   0  0  0  0  0  0  0  0  0  0  0  0
   11.7787    2.3133   24.1555 C   0  0  0  0  0  0  0  0  0  0  0  0
   12.2038    3.0533   23.0749 C   0  0  0  0  0  0  0  0  0  0  0  0
   11.6733    2.7764   21.7816 C   0  0  0  0  0  0  0  0  0  0  0  0
   10.7615    1.8475   21.5567 N   0  0  0  0  0  0  0  0  0  0  0  0
   10.3004    1.1290   22.6444 C   0  0  0  0  0  0  0  0  0  0  0  0
   11.9991    3.3636   20.9240 H   0  0  0  0  0  0  0  0  0  0  0  0
   12.9294    3.8465   23.1897 H   0  0  0  0  0  0  0  0  0  0  0  0
   12.1173    2.4450   25.1746 H   0  0  0  0  0  0  0  0  0  0  0  0
    9.1365   -0.8669   25.7720 H   0  0  0  0  0  0  0  0  0  0  0  0
    8.0438   -1.3110   23.5851 H   0  0  0  0  0  0  0  0  0  0  0  0
    8.9060    0.6643   20.6197 H   0  0  0  0  0  0  0  0  0  0  0  0
    6.5545    0.0712   20.0189 C   0  0  0  0  0  0  0  0  0  0  0  0
    5.3348    0.7415   20.1667 C   0  0  0  0  0  0  0  0  0  0  0  0
    4.7737    1.3546   19.0457 C   0  0  0  0  0  0  0  0  0  0  0  0
    5.4601    1.2945   17.8259 C   0  0  0  0  0  0  0  0  0  0  0  0
    6.6340    0.6601   17.6734 N   0  0  0  0  0  0  0  0  0  0  0  0
    7.1581    0.0789   18.7584 C   0  0  0  0  0  0  0  0  0  0  0  0
    8.1143   -0.4298   18.6151 H   0  0  0  0  0  0  0  0  0  0  0  0
    5.0526    1.7681   16.9347 H   0  0  0  0  0  0  0  0  0  0  0  0
    3.8248    1.8755   19.1030 H   0  0  0  0  0  0  0  0  0  0  0  0
    4.8448    0.7989   21.1437 H   0  0  0  0  0  0  0  0  0  0  0  0
    6.6457   -0.5239   22.0584 H   0  0  0  0  0  0  0  0  0  0  0  0
    8.5137   -2.1050   20.2574 H   0  0  0  0  0  0  0  0  0  0  0  0
    6.7962   -2.6034   20.4394 H   0  0  0  0  0  0  0  0  0  0  0  0
    7.8976   -2.5571   21.8317 H   0  0  0  0  0  0  0  0  0  0  0  0
  1  2  1  0
  2  3  1  0
  3  4  1  0
  4  5  2  0
  5  6  1  0
  6  7  2  0
  7  8  1  0
  8  9  2  0
  9 10  1  0
 10 11  2  0
 11 12  1  0
 12 13  2  0
 11 14  1  0
 10 15  1  0
  9 16  1  0
  6 17  1  0
  5 18  1  0
  3 19  1  0
  2 20  1  0
 20 21  2  0
 21 22  1  0
 22 23  2  0
 23 24  1  0
 24 25  2  0
 25 26  1  0
 23 27  1  0
 22 28  1  0
 21 29  1  0
  2 30  1  1
  1 31  1  0
  1 32  1  0
  1 33  1  0
 13  4  1  0
 25 20  1  0
 13  8  1  0
M  END
>  <cnnaffinity>  (1) 
5.1752

>  <plip>  (1) 
-0.10714285714285714

>  <filename>  (1) 
[H][c]1[n][c]([H])[c]([C@]([H])([N]([H])[c]2[c]([H])[c]([H])[n][c]3[c]([H])[c]([H])[c]([H])[n][c]23)[C]([H])([H])[H])[c]([H])[c]1[H]

>  <combo1>  (1) 
-0.7384134213402505

$$$$
