
     RDKit          3D

 24 25  0  0  0  0  0  0  0  0999 V2000
    4.9219    1.7812   16.9965 H   0  0  0  0  0  0  0  0  0  0  0  0
    5.4029    1.2921   17.8436 C   0  0  0  0  0  0  0  0  0  0  0  0
    6.5638    0.6717   17.5870 N   0  0  0  0  0  0  0  0  0  0  0  0
    7.1814    0.0669   18.6059 C   0  0  0  0  0  0  0  0  0  0  0  0
    8.1203   -0.4356   18.3833 H   0  0  0  0  0  0  0  0  0  0  0  0
    6.6730    0.0448   19.9100 C   0  0  0  0  0  0  0  0  0  0  0  0
    7.5242   -0.9562   21.1735 S   0  0  0  0  0  4  0  0  0  0  0  0
    6.4164   -1.4570   22.0681 O   0  0  0  0  0  0  0  0  0  0  0  0
    8.5686    0.3856   22.0790 C   0  0  0  0  0  0  0  0  0  0  0  0
    9.7608    0.2819   22.1288 O   0  0  0  0  0  0  0  0  0  0  0  0
    7.8114    1.5847   22.6390 C   0  0  0  0  0  0  0  0  0  0  0  0
    6.5635    1.5280   23.2894 C   0  0  0  0  0  0  0  0  0  0  0  0
    6.0171    0.5996   23.4106 H   0  0  0  0  0  0  0  0  0  0  0  0
    6.0093    2.7110   23.8086 C   0  0  0  0  0  0  0  0  0  0  0  0
    5.0456    2.6861   24.3059 H   0  0  0  0  0  0  0  0  0  0  0  0
    6.5980    3.9109   23.7452 N   0  0  0  0  0  0  0  0  0  0  0  0
    7.7895    3.9637   23.1292 C   0  0  0  0  0  0  0  0  0  0  0  0
    8.2727    4.9342   23.0874 H   0  0  0  0  0  0  0  0  0  0  0  0
    8.4246    2.8473   22.5732 C   0  0  0  0  0  0  0  0  0  0  0  0
    9.4006    2.9648   22.1175 H   0  0  0  0  0  0  0  0  0  0  0  0
    5.4471    0.6622   20.1697 C   0  0  0  0  0  0  0  0  0  0  0  0
    4.9935    0.6160   21.1609 H   0  0  0  0  0  0  0  0  0  0  0  0
    4.8116    1.3143   19.1111 C   0  0  0  0  0  0  0  0  0  0  0  0
    3.8756    1.8407   19.2558 H   0  0  0  0  0  0  0  0  0  0  0  0
  1  2  1  0
  2  3  2  0
  3  4  1  0
  4  5  1  0
  4  6  2  0
  6  7  1  0
  7  8  2  0
  7  9  1  6
  9 10  2  0
  9 11  1  0
 11 12  2  0
 12 13  1  0
 12 14  1  0
 14 15  1  0
 14 16  2  0
 16 17  1  0
 17 18  1  0
 17 19  2  0
 19 20  1  0
  6 21  1  0
 21 22  1  0
 21 23  2  0
 23 24  1  0
 23  2  1  0
 19 11  1  0
M  END
>  <cnnaffinity>  (1) 
4.33476

>  <plip>  (1) 
-0.03571428571428571

>  <filename>  (1) 
[H][c]1[n][c]([H])[c]([S@@](=[O])[C](=[O])[c]2[c]([H])[c]([H])[n][c]([H])[c]2[H])[c]([H])[c]1[H]

>  <combo1>  (1) 
-0.222179441128568

$$$$
