
     RDKit          3D

 27 29  0  0  0  0  0  0  0  0999 V2000
    4.8502    1.8525   16.9057 H   0  0  0  0  0  0  0  0  0  0  0  0
    5.3208    1.3604   17.7540 C   0  0  0  0  0  0  0  0  0  0  0  0
    6.4804    0.7632   17.4634 N   0  0  0  0  0  0  0  0  0  0  0  0
    7.1389    0.1900   18.4843 C   0  0  0  0  0  0  0  0  0  0  0  0
    8.0590   -0.2880   18.2051 H   0  0  0  0  0  0  0  0  0  0  0  0
    6.6715    0.2009   19.8012 C   0  0  0  0  0  0  0  0  0  0  0  0
    7.4713   -0.6364   20.8622 N   0  0  0  0  0  0  0  0  0  0  0  0
    7.6576   -2.0931   20.6931 C   0  0  0  0  0  0  0  0  0  0  0  0
    7.6577   -2.0929   20.6929 O   0  0  0  0  0  0  0  0  0  0  0  0
    9.6765   -1.8157   22.2213 N   0  0  0  0  0  0  0  0  0  0  0  0
    9.9437   -2.8296   22.3714 H   0  0  0  0  0  0  0  0  0  0  0  0
    9.1042   -0.9705   22.9454 C   0  0  0  0  0  0  0  0  0  0  0  0
    9.3980   -0.6024   24.1245 O   0  0  0  0  0  0  0  0  0  0  0  0
    7.7857   -0.2648   22.1373 C   0  0  2  0  0  0  0  0  0  0  0  0
    8.0082    0.8311   22.1681 H   0  0  0  0  0  0  0  0  0  0  0  0
    6.6533   -0.2510   23.2442 N   0  0  0  0  0  0  0  0  0  0  0  0
    6.0829    0.8903   24.0260 C   0  0  0  0  0  0  0  0  0  0  0  0
    6.4303    1.9016   23.9175 H   0  0  0  0  0  0  0  0  0  0  0  0
    5.2100    0.6496   25.0780 N   0  0  0  0  0  0  0  0  0  0  0  0
    5.2052   -0.7703   24.8647 C   0  0  0  0  0  0  0  0  0  0  0  0
    4.2655   -1.2048   25.3857 H   0  0  0  0  0  0  0  0  0  0  0  0
    6.1907   -1.3798   23.7917 C   0  0  0  0  0  0  0  0  0  0  0  0
    6.0048   -2.1588   23.0080 H   0  0  0  0  0  0  0  0  0  0  0  0
    5.4353    0.7495   20.1255 C   0  0  0  0  0  0  0  0  0  0  0  0
    5.0016    0.6515   21.1513 H   0  0  0  0  0  0  0  0  0  0  0  0
    4.7454    1.3695   19.0422 C   0  0  0  0  0  0  0  0  0  0  0  0
    3.7923    1.8901   19.1963 H   0  0  0  0  0  0  0  0  0  0  0  0
  1  2  1  0
  2  3  2  0
  3  4  1  0
  4  5  1  0
  4  6  2  0
  6  7  1  0
  7  8  1  0
  8  9  2  0
  8 10  1  0
 10 11  1  0
 10 12  1  0
 12 13  2  0
 12 14  1  0
 14 15  1  6
 14 16  1  0
 16 17  1  0
 17 18  1  0
 17 19  2  0
 19 20  1  0
 20 21  1  0
 20 22  2  0
 22 23  1  0
  6 24  1  0
 24 25  1  0
 24 26  2  0
 26 27  1  0
 26  2  1  0
 14  7  1  0
 22 16  1  0
M  END
>  <cnnaffinity>  (1) 
4.40302

>  <plip>  (1) 
-0.1

>  <filename>  (1) 
[H][c]1[n][c]([H])[c]([N]2[C](=[O])[N]([H])[C](=[O])[C@]2([H])[n]2[c]([H])[n][c]([H])[c]2[H])[c]([H])[c]1[H]

>  <combo1>  (1) 
-0.6034195905591232

$$$$
