
     RDKit          3D

 36 38  0  0  0  0  0  0  0  0999 V2000
    4.9209    1.8004   16.9784 H   0  0  0  0  0  0  0  0  0  0  0  0
    5.3844    1.3001   17.8263 C   0  0  0  0  0  0  0  0  0  0  0  0
    6.5426    0.6719   17.5676 N   0  0  0  0  0  0  0  0  0  0  0  0
    7.1482    0.0517   18.5845 C   0  0  0  0  0  0  0  0  0  0  0  0
    8.1116   -0.4107   18.3870 H   0  0  0  0  0  0  0  0  0  0  0  0
    6.6261   -0.0071   19.8905 C   0  0  0  0  0  0  0  0  0  0  0  0
    7.3542   -0.6828   20.9001 N   0  0  0  0  0  0  0  0  0  0  0  0
    8.7570   -0.6491   21.1425 C   0  0  0  0  0  0  0  0  0  0  0  0
    9.5763   -0.0450   20.4684 O   0  0  0  0  0  0  0  0  0  0  0  0
    8.9195   -1.4685   22.3159 C   0  0  0  0  0  0  0  0  0  0  0  0
    9.8867   -1.6853   22.7296 H   0  0  0  0  0  0  0  0  0  0  0  0
    7.7084   -1.9251   22.7258 C   0  0  0  0  0  0  0  0  0  0  0  0
    7.3648   -2.8035   23.8692 C   0  0  0  0  0  0  0  0  0  0  0  0
    8.2801   -2.9264   24.9293 C   0  0  0  0  0  0  0  0  0  0  0  0
    9.2017   -2.3551   24.8855 H   0  0  0  0  0  0  0  0  0  0  0  0
    8.0134   -3.7601   26.0167 C   0  0  0  0  0  0  0  0  0  0  0  0
    8.7488   -3.8462   26.8139 H   0  0  0  0  0  0  0  0  0  0  0  0
    6.8160   -4.4830   26.0679 C   0  0  0  0  0  0  0  0  0  0  0  0
    6.5953   -5.1319   26.9113 H   0  0  0  0  0  0  0  0  0  0  0  0
    5.8850   -4.3458   25.0269 C   0  0  0  0  0  0  0  0  0  0  0  0
    4.6680   -5.0661   25.0759 N   0  0  0  0  0  0  0  0  0  0  0  0
    4.6581   -5.9336   25.5792 H   0  0  0  0  0  0  0  0  0  0  0  0
    3.4675   -4.6053   24.6055 C   0  0  0  0  0  0  0  0  0  0  0  0
    3.3071   -3.4577   24.2318 O   0  0  0  0  0  0  0  0  0  0  0  0
    2.3393   -5.6205   24.5828 C   0  0  0  0  0  0  0  0  0  0  0  0
    1.6070   -5.2413   23.8714 H   0  0  0  0  0  0  0  0  0  0  0  0
    2.6414   -6.6300   24.2818 H   0  0  0  0  0  0  0  0  0  0  0  0
    1.8416   -5.6844   25.5557 H   0  0  0  0  0  0  0  0  0  0  0  0
    6.1617   -3.5242   23.9286 C   0  0  0  0  0  0  0  0  0  0  0  0
    5.4212   -3.4711   23.1376 H   0  0  0  0  0  0  0  0  0  0  0  0
    6.7595   -1.4459   21.8801 N   0  0  0  0  0  0  0  0  0  0  0  0
    5.7630   -1.5580   21.9553 H   0  0  0  0  0  0  0  0  0  0  0  0
    5.4170    0.6497   20.1535 C   0  0  0  0  0  0  0  0  0  0  0  0
    5.0118    0.6490   21.1665 H   0  0  0  0  0  0  0  0  0  0  0  0
    4.7939    1.3177   19.0966 C   0  0  0  0  0  0  0  0  0  0  0  0
    3.8657    1.8523   19.2465 H   0  0  0  0  0  0  0  0  0  0  0  0
  1  2  1  0
  2  3  2  0
  3  4  1  0
  4  5  1  0
  4  6  2  0
  6  7  1  0
  7  8  1  0
  8  9  2  0
  8 10  1  0
 10 11  1  0
 10 12  2  0
 12 13  1  0
 13 14  2  0
 14 15  1  0
 14 16  1  0
 16 17  1  0
 16 18  2  0
 18 19  1  0
 18 20  1  0
 20 21  1  0
 21 22  1  0
 21 23  1  0
 23 24  2  0
 23 25  1  0
 25 26  1  0
 25 27  1  0
 25 28  1  0
 20 29  2  0
 29 30  1  0
 12 31  1  0
 31 32  1  0
  6 33  1  0
 33 34  1  0
 33 35  2  0
 35 36  1  0
 35  2  1  0
 31  7  1  0
 29 13  1  0
M  END
>  <cnnaffinity>  (1) 
5.2687

>  <plip>  (1) 
-0.07142857142857142

>  <filename>  (1) 
[H][c]1[n][c]([H])[c](-[n]2[c](=[O])[c]([H])[c](-[c]3[c]([H])[c]([H])[c]([H])[c]([N]([H])[C](=[O])[C]([H])([H])[H])[c]3[H])[n]2[H])[c]([H])[c]1[H]

>  <combo1>  (1) 
-0.4262292588705874

$$$$
