
     RDKit          3D

 31 32  0  0  0  0  0  0  0  0999 V2000
    5.0252    1.7297   17.0401 H   0  0  0  0  0  0  0  0  0  0  0  0
    5.4761    1.2366   17.8998 C   0  0  0  0  0  0  0  0  0  0  0  0
    6.6425    0.6095   17.6760 N   0  0  0  0  0  0  0  0  0  0  0  0
    7.2284    0.0034   18.7177 C   0  0  0  0  0  0  0  0  0  0  0  0
    8.1825   -0.4901   18.5538 H   0  0  0  0  0  0  0  0  0  0  0  0
    6.6725   -0.0257   20.0046 C   0  0  0  0  0  0  0  0  0  0  0  0
    7.4256   -0.5928   21.0235 O   0  0  0  0  0  0  0  0  0  0  0  0
    6.8715   -1.4704   21.9092 C   0  0  0  0  0  0  0  0  0  0  0  0
    5.7919   -2.0039   21.7383 O   0  0  0  0  0  0  0  0  0  0  0  0
    7.7102   -1.6814   22.9606 N   0  0  0  0  0  0  0  0  0  0  0  0
    9.1128   -1.2655   22.9565 C   0  0  0  0  0  0  0  0  0  0  0  0
    9.2132   -0.1780   22.8691 H   0  0  0  0  0  0  0  0  0  0  0  0
    9.6533   -1.7403   22.1306 H   0  0  0  0  0  0  0  0  0  0  0  0
    9.5784   -1.5772   23.8960 H   0  0  0  0  0  0  0  0  0  0  0  0
    7.1453   -2.3604   24.1111 C   0  0  1  0  0  0  0  0  0  0  0  0
    7.9383   -2.4503   24.8673 H   0  0  0  0  0  0  0  0  0  0  0  0
    6.0701   -1.5438   24.6562 N   0  0  0  0  0  0  0  0  0  0  0  0
    5.5939   -1.1611   23.8466 H   0  0  0  0  0  0  0  0  0  0  0  0
    5.1368   -2.4742   25.2971 C   0  0  0  0  0  0  0  0  0  0  0  0
    5.5082   -2.7673   26.2954 H   0  0  0  0  0  0  0  0  0  0  0  0
    4.1645   -1.9870   25.4401 H   0  0  0  0  0  0  0  0  0  0  0  0
    5.0940   -3.6746   24.3399 C   0  0  0  0  0  0  0  0  0  0  0  0
    4.7426   -4.5946   24.8188 H   0  0  0  0  0  0  0  0  0  0  0  0
    4.4452   -3.4252   23.4902 H   0  0  0  0  0  0  0  0  0  0  0  0
    6.5513   -3.7757   23.8446 C   0  0  0  0  0  0  0  0  0  0  0  0
    6.6007   -4.0457   22.7861 H   0  0  0  0  0  0  0  0  0  0  0  0
    7.1190   -4.5154   24.4209 H   0  0  0  0  0  0  0  0  0  0  0  0
    5.4457    0.5890   20.2290 C   0  0  0  0  0  0  0  0  0  0  0  0
    4.9992    0.5585   21.2201 H   0  0  0  0  0  0  0  0  0  0  0  0
    4.8458    1.2479   19.1489 C   0  0  0  0  0  0  0  0  0  0  0  0
    3.9112    1.7805   19.2690 H   0  0  0  0  0  0  0  0  0  0  0  0
  1  2  1  0
  2  3  2  0
  3  4  1  0
  4  5  1  0
  4  6  2  0
  6  7  1  0
  7  8  1  0
  8  9  2  0
  8 10  1  0
 10 11  1  0
 11 12  1  0
 11 13  1  0
 11 14  1  0
 10 15  1  0
 15 16  1  1
 15 17  1  0
 17 18  1  0
 17 19  1  0
 19 20  1  0
 19 21  1  0
 19 22  1  0
 22 23  1  0
 22 24  1  0
 22 25  1  0
 25 26  1  0
 25 27  1  0
  6 28  1  0
 28 29  1  0
 28 30  2  0
 30 31  1  0
 30  2  1  0
 25 15  1  0
M  END
>  <cnnaffinity>  (1) 
4.24188

>  <plip>  (1) 
-0.07142857142857142

>  <filename>  (1) 
[H][c]1[n][c]([H])[c]([O][C](=[O])[N]([C]([H])([H])[H])[C@@]2([H])[N]([H])[C]([H])([H])[C]([H])([H])[C]2([H])[H])[c]([H])[c]1[H]

>  <combo1>  (1) 
-0.4564636303766738

$$$$
