
     RDKit          3D

 31 33  0  0  0  0  0  0  0  0999 V2000
    8.1674   -1.6194   20.6192 O   0  0  0  0  0  0  0  0  0  0  0  0
    7.4147   -0.7236   20.9403 C   0  0  0  0  0  0  0  0  0  0  0  0
    6.6573    0.0526   19.9221 C   0  0  0  0  0  0  0  0  0  0  0  0
    5.4361    0.6932   20.1672 C   0  0  0  0  0  0  0  0  0  0  0  0
    4.8154    1.3238   19.0957 C   0  0  0  0  0  0  0  0  0  0  0  0
    5.4406    1.2911   17.8417 C   0  0  0  0  0  0  0  0  0  0  0  0
    6.6046    0.6681   17.6015 N   0  0  0  0  0  0  0  0  0  0  0  0
    7.1922    0.0550   18.6304 C   0  0  0  0  0  0  0  0  0  0  0  0
    8.1291   -0.4631   18.4326 H   0  0  0  0  0  0  0  0  0  0  0  0
    4.9728    1.7807   16.9927 H   0  0  0  0  0  0  0  0  0  0  0  0
    3.8684    1.8362   19.2212 H   0  0  0  0  0  0  0  0  0  0  0  0
    4.9954    0.6951   21.1702 H   0  0  0  0  0  0  0  0  0  0  0  0
    7.1661   -0.4371   22.2954 N   0  0  0  0  0  0  0  0  0  0  0  0
    6.8004   -1.6254   23.0994 C   0  0  0  0  0  0  0  0  0  0  0  0
    6.6166   -1.3244   24.5830 C   0  0  0  0  0  0  0  0  0  0  0  0
    6.0060    0.0526   24.8907 C   0  0  0  0  0  0  0  0  0  0  0  0
    6.6996    1.1546   24.1283 C   0  0  0  0  0  0  0  0  0  0  0  0
    6.7671    2.3589   24.7102 N   0  0  0  0  0  0  0  0  0  0  0  0
    7.4053    3.3338   24.0542 C   0  0  0  0  0  0  0  0  0  0  0  0
    7.9934    3.1615   22.7983 C   0  0  0  0  0  0  0  0  0  0  0  0
    7.9190    1.9156   22.1747 C   0  0  0  0  0  0  0  0  0  0  0  0
    7.2508    0.8715   22.8473 C   0  0  0  0  0  0  0  0  0  0  0  0
    8.3525    1.7526   21.1878 H   0  0  0  0  0  0  0  0  0  0  0  0
    8.4960    3.9920   22.3139 H   0  0  0  0  0  0  0  0  0  0  0  0
    7.4503    4.2937   24.5608 H   0  0  0  0  0  0  0  0  0  0  0  0
    6.1114    0.2727   25.9568 H   0  0  0  0  0  0  0  0  0  0  0  0
    4.9322    0.1020   24.6588 H   0  0  0  0  0  0  0  0  0  0  0  0
    7.6020   -1.3753   25.0619 H   0  0  0  0  0  0  0  0  0  0  0  0
    6.0006   -2.1195   25.0206 H   0  0  0  0  0  0  0  0  0  0  0  0
    5.8882   -2.0738   22.6862 H   0  0  0  0  0  0  0  0  0  0  0  0
    7.5947   -2.3731   22.9711 H   0  0  0  0  0  0  0  0  0  0  0  0
  1  2  2  0
  2  3  1  0
  3  4  2  0
  4  5  1  0
  5  6  2  0
  6  7  1  0
  7  8  2  0
  8  9  1  0
  6 10  1  0
  5 11  1  0
  4 12  1  0
  2 13  1  0
 13 14  1  0
 14 15  1  0
 15 16  1  0
 16 17  1  0
 17 18  2  0
 18 19  1  0
 19 20  2  0
 20 21  1  0
 21 22  2  0
 21 23  1  0
 20 24  1  0
 19 25  1  0
 16 26  1  0
 16 27  1  0
 15 28  1  0
 15 29  1  0
 14 30  1  0
 14 31  1  0
  8  3  1  0
 22 13  1  0
 22 17  1  0
M  END
>  <cnnaffinity>  (1) 
4.58374

>  <plip>  (1) 
-0.03571428571428571

>  <filename>  (1) 
[H][c]1[n][c]([H])[c]([C](=[O])[N]2[c]3[c]([n][c]([H])[c]([H])[c]3[H])[C]([H])([H])[C]([H])([H])[C]2([H])[H])[c]([H])[c]1[H]

>  <combo1>  (1) 
-0.22805411836162673

$$$$
