
     RDKit          3D

 43 44  0  0  0  0  0  0  0  0999 V2000
    6.9873   -5.1265   25.5865 C   0  0  0  0  0  0  0  0  0  0  0  0
    5.9685   -4.7961   24.0913 S   0  0  0  0  0  0  0  0  0  0  0  0
    6.5843   -3.1635   23.5121 C   0  0  0  0  0  0  0  0  0  0  0  0
    7.9015   -3.3454   22.7525 C   0  0  0  0  0  0  0  0  0  0  0  0
    8.3625   -2.0242   22.1309 C   0  0  0  0  0  0  0  0  0  0  0  0
    9.7963   -2.2601   21.7452 N   0  0  0  0  0  0  0  0  0  0  0  0
   10.9978   -1.7307   22.8424 S   0  0  0  0  0  0  0  0  0  0  0  0
   10.8604   -0.2793   23.0348 O   0  0  0  0  0  0  0  0  0  0  0  0
   12.2894   -2.1764   22.3033 O   0  0  0  0  0  0  0  0  0  0  0  0
   10.4721   -2.6744   24.3026 C   0  0  0  0  0  0  0  0  0  0  0  0
   11.0202   -3.9344   24.5821 C   0  0  0  0  0  0  0  0  0  0  0  0
   10.5586   -4.6795   25.6654 C   0  0  0  0  0  0  0  0  0  0  0  0
    9.5742   -4.1523   26.5037 C   0  0  0  0  0  0  0  0  0  0  0  0
    8.9033   -5.1846   27.9535 Br  0  0  0  0  0  0  0  0  0  0  0  0
    9.0673   -2.8719   26.2664 C   0  0  0  0  0  0  0  0  0  0  0  0
    9.4962   -2.1424   25.1588 C   0  0  0  0  0  0  0  0  0  0  0  0
    9.0601   -1.1635   24.9785 H   0  0  0  0  0  0  0  0  0  0  0  0
    8.3123   -2.4575   26.9275 H   0  0  0  0  0  0  0  0  0  0  0  0
   10.9541   -5.6754   25.8470 H   0  0  0  0  0  0  0  0  0  0  0  0
   11.8002   -4.3601   23.9642 H   0  0  0  0  0  0  0  0  0  0  0  0
    9.9980   -3.2459   21.6178 H   0  0  0  0  0  0  0  0  0  0  0  0
    7.3470   -1.5575   21.0164 C   0  0  0  0  0  0  0  0  0  0  0  0
    6.7155   -2.3668   20.3305 O   0  0  0  0  0  0  0  0  0  0  0  0
    7.0844   -0.2042   20.8422 N   0  0  0  0  0  0  0  0  0  0  0  0
    6.4425    0.3524   19.7229 C   0  0  0  0  0  0  0  0  0  0  0  0
    5.3110    1.1332   19.9240 C   0  0  0  0  0  0  0  0  0  0  0  0
    4.7269    1.7370   18.8058 C   0  0  0  0  0  0  0  0  0  0  0  0
    5.2968    1.5714   17.5350 C   0  0  0  0  0  0  0  0  0  0  0  0
    6.3844    0.8052   17.3227 N   0  0  0  0  0  0  0  0  0  0  0  0
    6.9347    0.2024   18.3987 C   0  0  0  0  0  0  0  0  0  0  0  0
    7.8223   -0.4072   18.2470 H   0  0  0  0  0  0  0  0  0  0  0  0
    4.8573    2.0979   16.6946 H   0  0  0  0  0  0  0  0  0  0  0  0
    3.8391    2.3491   18.9127 H   0  0  0  0  0  0  0  0  0  0  0  0
    4.9100    1.2609   20.9295 H   0  0  0  0  0  0  0  0  0  0  0  0
    7.3328    0.4235   21.6075 H   0  0  0  0  0  0  0  0  0  0  0  0
    8.3260   -1.2415   22.8994 H   0  0  0  0  0  0  0  0  0  0  0  0
    7.7690   -4.0785   21.9508 H   0  0  0  0  0  0  0  0  0  0  0  0
    8.6637   -3.7393   23.4300 H   0  0  0  0  0  0  0  0  0  0  0  0
    5.8383   -2.7038   22.8543 H   0  0  0  0  0  0  0  0  0  0  0  0
    6.7242   -2.4943   24.3663 H   0  0  0  0  0  0  0  0  0  0  0  0
    6.9978   -4.2457   26.2351 H   0  0  0  0  0  0  0  0  0  0  0  0
    6.5706   -5.9682   26.1492 H   0  0  0  0  0  0  0  0  0  0  0  0
    8.0153   -5.3742   25.3071 H   0  0  0  0  0  0  0  0  0  0  0  0
  1  2  1  0
  2  3  1  0
  3  4  1  0
  4  5  1  0
  5  6  1  0
  6  7  1  0
  7  8  2  0
  7  9  2  0
  7 10  1  0
 10 11  2  0
 11 12  1  0
 12 13  2  0
 13 14  1  0
 13 15  1  0
 15 16  2  0
 16 17  1  0
 15 18  1  0
 12 19  1  0
 11 20  1  0
  6 21  1  0
  5 22  1  0
 22 23  2  0
 22 24  1  0
 24 25  1  0
 25 26  2  0
 26 27  1  0
 27 28  2  0
 28 29  1  0
 29 30  2  0
 30 31  1  0
 28 32  1  0
 27 33  1  0
 26 34  1  0
 24 35  1  0
  5 36  1  0
  4 37  1  0
  4 38  1  0
  3 39  1  0
  3 40  1  0
  1 41  1  0
  1 42  1  0
  1 43  1  0
 16 10  1  0
 30 25  1  0
M  END
>  <cnnaffinity>  (1) 
6.30999

>  <plip>  (1) 
-0.10344827586206896

>  <filename>  (1) 
[H][c]1[n][c]([H])[c]([N]([H])[C](=[O])[C]([H])([N]([H])[S](=[O])(=[O])[c]2[c]([H])[c]([H])[c]([Br])[c]([H])[c]2[H])[C]([H])([H])[C]([H])([H])[S][C]([H])([H])[H])[c]([H])[c]1[H]

>  <combo1>  (1) 
-0.489643594768767

$$$$
