
     RDKit          3D

 22 22  0  0  0  0  0  0  0  0999 V2000
    5.7388   -1.5019   21.9792 H   0  0  0  0  0  0  0  0  0  0  0  0
    6.8196   -1.4102   21.9781 C   0  0  0  0  0  0  0  0  0  0  0  0
    7.5644   -2.0112   22.9717 O   0  0  0  0  0  0  0  0  0  0  0  0
    6.8210   -2.7585   23.9636 C   0  0  0  0  0  0  0  0  0  0  0  0
    7.4262   -3.6123   24.2609 H   0  0  0  0  0  0  0  0  0  0  0  0
    5.8837   -3.1416   23.5424 H   0  0  0  0  0  0  0  0  0  0  0  0
    6.4974   -2.0096   25.2636 C   0  0  0  0  0  0  0  0  0  0  0  0
    5.9593   -2.9109   26.1359 F   0  0  0  0  0  0  0  0  0  0  0  0
    5.5820   -1.0358   25.0155 F   0  0  0  0  0  0  0  0  0  0  0  0
    7.6175   -1.4680   25.8150 F   0  0  0  0  0  0  0  0  0  0  0  0
    7.4237   -0.7194   20.9405 C   0  0  0  0  0  0  0  0  0  0  0  0
    9.3402   -0.6155   20.8433 Br  0  0  0  0  0  0  0  0  0  0  0  0
    6.6541   -0.0341   19.8827 C   0  0  0  0  0  0  0  0  0  0  0  0
    7.1983    0.0630   18.5866 C   0  0  0  0  0  0  0  0  0  0  0  0
    8.1617   -0.4045   18.3982 H   0  0  0  0  0  0  0  0  0  0  0  0
    6.5909    0.6977   17.5670 N   0  0  0  0  0  0  0  0  0  0  0  0
    5.4153    1.3022   17.8196 C   0  0  0  0  0  0  0  0  0  0  0  0
    4.9270    1.8426   17.0163 H   0  0  0  0  0  0  0  0  0  0  0  0
    4.8034    1.2711   19.0797 C   0  0  0  0  0  0  0  0  0  0  0  0
    3.8619    1.7975   19.2203 H   0  0  0  0  0  0  0  0  0  0  0  0
    5.4230    0.5896   20.1332 C   0  0  0  0  0  0  0  0  0  0  0  0
    4.9848    0.5891   21.1307 H   0  0  0  0  0  0  0  0  0  0  0  0
  1  2  1  0
  2  3  1  0
  3  4  1  0
  4  5  1  0
  4  6  1  0
  4  7  1  0
  7  8  1  0
  7  9  1  0
  7 10  1  0
  2 11  2  3
 11 12  1  0
 11 13  1  0
 13 14  2  0
 14 15  1  0
 14 16  1  0
 16 17  2  0
 17 18  1  0
 17 19  1  0
 19 20  1  0
 19 21  2  0
 21 22  1  0
 21 13  1  0
M  END
>  <cnnaffinity>  (1) 
3.73002

>  <plip>  (1) 
-0.0

>  <filename>  (1) 
[H][C]([O][C]([H])([H])[C]([F])([F])[F])=[C]([Br])[c]1[c]([H])[n][c]([H])[c]([H])[c]1[H]

>  <combo1>  (1) 
-4.4080848333150155e-06

$$$$
