
     RDKit          3D

 32 32  0  0  0  0  0  0  0  0999 V2000
    4.9058    1.7756   17.0017 H   0  0  0  0  0  0  0  0  0  0  0  0
    5.3992    1.2948   17.8426 C   0  0  0  0  0  0  0  0  0  0  0  0
    6.5705    0.6805   17.5806 N   0  0  0  0  0  0  0  0  0  0  0  0
    7.1809    0.0580   18.5989 C   0  0  0  0  0  0  0  0  0  0  0  0
    8.1252   -0.4380   18.3855 H   0  0  0  0  0  0  0  0  0  0  0  0
    6.6770    0.0157   19.9226 C   0  0  0  0  0  0  0  0  0  0  0  0
    7.3485   -0.7210   20.9163 N   0  0  0  0  0  0  0  0  0  0  0  0
    7.7875   -0.2151   22.0088 C   0  0  0  0  0  0  0  0  0  0  0  0
    7.7000    1.2484   22.3544 C   0  0  0  0  0  0  0  0  0  0  0  0
    8.0767    1.8414   21.5185 H   0  0  0  0  0  0  0  0  0  0  0  0
    8.2820    1.4861   23.2432 H   0  0  0  0  0  0  0  0  0  0  0  0
    6.6638    1.5416   22.5419 H   0  0  0  0  0  0  0  0  0  0  0  0
    8.4517   -1.1652   22.9758 C   0  0  0  0  0  0  0  0  0  0  0  0
    9.2366   -1.7134   22.4383 H   0  0  0  0  0  0  0  0  0  0  0  0
    8.9449   -0.6103   23.7795 H   0  0  0  0  0  0  0  0  0  0  0  0
    7.4625   -2.1630   23.5834 C   0  0  0  0  0  0  0  0  0  0  0  0
    6.6651   -1.6107   24.0999 H   0  0  0  0  0  0  0  0  0  0  0  0
    6.9835   -2.7305   22.7761 H   0  0  0  0  0  0  0  0  0  0  0  0
    8.1267   -3.1211   24.5617 C   0  0  0  0  0  0  0  0  0  0  0  0
    8.6103   -2.5466   25.3668 H   0  0  0  0  0  0  0  0  0  0  0  0
    8.9303   -3.6679   24.0455 H   0  0  0  0  0  0  0  0  0  0  0  0
    7.1420   -4.1141   25.1675 C   0  0  0  0  0  0  0  0  0  0  0  0
    6.6627   -4.6842   24.3597 H   0  0  0  0  0  0  0  0  0  0  0  0
    6.3423   -3.5609   25.6796 H   0  0  0  0  0  0  0  0  0  0  0  0
    7.8081   -5.0697   26.1419 C   0  0  0  0  0  0  0  0  0  0  0  0
    8.5924   -5.6459   25.6386 H   0  0  0  0  0  0  0  0  0  0  0  0
    8.2697   -4.5159   26.9670 H   0  0  0  0  0  0  0  0  0  0  0  0
    7.0800   -5.7689   26.5596 H   0  0  0  0  0  0  0  0  0  0  0  0
    5.4473    0.6487   20.1646 C   0  0  0  0  0  0  0  0  0  0  0  0
    5.0158    0.6201   21.1607 H   0  0  0  0  0  0  0  0  0  0  0  0
    4.8050    1.3086   19.1086 C   0  0  0  0  0  0  0  0  0  0  0  0
    3.8714    1.8441   19.2679 H   0  0  0  0  0  0  0  0  0  0  0  0
  1  2  1  0
  2  3  2  0
  3  4  1  0
  4  5  1  0
  4  6  2  0
  6  7  1  0
  7  8  2  3
  8  9  1  0
  9 10  1  0
  9 11  1  0
  9 12  1  0
  8 13  1  0
 13 14  1  0
 13 15  1  0
 13 16  1  0
 16 17  1  0
 16 18  1  0
 16 19  1  0
 19 20  1  0
 19 21  1  0
 19 22  1  0
 22 23  1  0
 22 24  1  0
 22 25  1  0
 25 26  1  0
 25 27  1  0
 25 28  1  0
  6 29  1  0
 29 30  1  0
 29 31  2  0
 31 32  1  0
 31  2  1  0
M  END
>  <cnnaffinity>  (1) 
4.31284

>  <plip>  (1) 
-0.03571428571428571

>  <filename>  (1) 
[H][c]1[n][c]([H])[c]([N]=[C]([C]([H])([H])[H])[C]([H])([H])[C]([H])([H])[C]([H])([H])[C]([H])([H])[C]([H])([H])[H])[c]([H])[c]1[H]

>  <combo1>  (1) 
-0.26981624537985877

$$$$
