
     RDKit          3D

 30 31  0  0  0  0  0  0  0  0999 V2000
    9.8192   -2.3429   22.0055 H   0  0  0  0  0  0  0  0  0  0  0  0
    9.0611   -2.8231   22.6198 C   0  0  0  0  0  0  0  0  0  0  0  0
    7.7458   -2.7076   22.2220 C   0  0  0  0  0  0  0  0  0  0  0  0
    7.4373   -1.9801   20.9477 C   0  0  0  0  0  0  0  0  0  0  0  0
    6.5611   -2.4357   20.4716 H   0  0  0  0  0  0  0  0  0  0  0  0
    8.2896   -2.0653   20.2662 H   0  0  0  0  0  0  0  0  0  0  0  0
    7.2060   -0.4947   21.2114 C   0  0  1  0  0  0  0  0  0  0  0  0
    6.5890   -0.3675   22.1108 H   0  0  0  0  0  0  0  0  0  0  0  0
    8.9597    0.3967   21.4743 Br  0  0  0  0  0  0  0  0  0  0  0  0
    6.5450    0.1468   20.0194 C   0  0  0  0  0  0  0  0  0  0  0  0
    7.1655    0.1102   18.7596 C   0  0  0  0  0  0  0  0  0  0  0  0
    8.1211   -0.3988   18.6634 H   0  0  0  0  0  0  0  0  0  0  0  0
    6.6295    0.6731   17.6601 N   0  0  0  0  0  0  0  0  0  0  0  0
    5.4501    1.3045   17.7957 C   0  0  0  0  0  0  0  0  0  0  0  0
    4.9999    1.7663   16.9226 H   0  0  0  0  0  0  0  0  0  0  0  0
    4.7702    1.3882   19.0161 C   0  0  0  0  0  0  0  0  0  0  0  0
    3.8260    1.9173   19.0650 H   0  0  0  0  0  0  0  0  0  0  0  0
    5.3228    0.8046   20.1560 C   0  0  0  0  0  0  0  0  0  0  0  0
    4.8240    0.8676   21.1214 H   0  0  0  0  0  0  0  0  0  0  0  0
    6.6215   -3.3489   23.0109 C   0  0  0  0  0  0  0  0  0  0  0  0
    5.8088   -2.6344   23.1651 H   0  0  0  0  0  0  0  0  0  0  0  0
    6.2248   -4.1743   22.4130 H   0  0  0  0  0  0  0  0  0  0  0  0
    7.0730   -3.8817   24.3775 C   0  0  0  0  0  0  0  0  0  0  0  0
    7.1138   -3.0560   25.0997 H   0  0  0  0  0  0  0  0  0  0  0  0
    6.3465   -4.6159   24.7449 H   0  0  0  0  0  0  0  0  0  0  0  0
    8.4029   -4.4991   24.2728 N   0  0  0  0  0  0  0  0  0  0  0  0
    8.6517   -4.9803   25.1373 H   0  0  0  0  0  0  0  0  0  0  0  0
    9.4761   -3.5780   23.8532 C   0  0  0  0  0  0  0  0  0  0  0  0
    9.6812   -2.8504   24.6489 H   0  0  0  0  0  0  0  0  0  0  0  0
   10.3939   -4.1458   23.6540 H   0  0  0  0  0  0  0  0  0  0  0  0
  1  2  1  0
  2  3  2  0
  3  4  1  0
  4  5  1  0
  4  6  1  0
  4  7  1  0
  7  8  1  1
  7  9  1  0
  7 10  1  0
 10 11  2  0
 11 12  1  0
 11 13  1  0
 13 14  2  0
 14 15  1  0
 14 16  1  0
 16 17  1  0
 16 18  2  0
 18 19  1  0
  3 20  1  0
 20 21  1  0
 20 22  1  0
 20 23  1  0
 23 24  1  0
 23 25  1  0
 23 26  1  0
 26 27  1  0
 26 28  1  0
 28 29  1  0
 28 30  1  0
 28  2  1  0
 18 10  1  0
M  END
>  <cnnaffinity>  (1) 
4.55559

>  <plip>  (1) 
-0.03571428571428571

>  <filename>  (1) 
[H][C]1=[C]([C]([H])([H])[C@@]([H])([Br])[c]2[c]([H])[n][c]([H])[c]([H])[c]2[H])[C]([H])([H])[C]([H])([H])[N]([H])[C]1([H])[H]

>  <combo1>  (1) 
-0.20299140729016837

$$$$
