
     RDKit          3D

 36 39  0  0  0  0  0  0  0  0999 V2000
    6.7750   -1.5471   21.4358 H   0  0  0  0  0  0  0  0  0  0  0  0
    7.3320   -0.7134   20.9888 C   0  0  0  0  0  0  0  0  0  0  0  0
    8.5580   -0.3768   21.4264 C   0  0  0  0  0  0  0  0  0  0  0  0
    9.3370   -0.9827   22.5231 C   0  0  0  0  0  0  0  0  0  0  0  0
    8.8272   -2.0745   23.3573 C   0  0  0  0  0  0  0  0  0  0  0  0
    9.5707   -3.0991   23.8666 C   0  0  0  0  0  0  0  0  0  0  0  0
   10.6256   -3.2527   23.6859 H   0  0  0  0  0  0  0  0  0  0  0  0
    8.7332   -3.8876   24.6947 C   0  0  0  0  0  0  0  0  0  0  0  0
    8.9519   -5.0315   25.4856 C   0  0  0  0  0  0  0  0  0  0  0  0
    9.9458   -5.4758   25.5123 H   0  0  0  0  0  0  0  0  0  0  0  0
    7.8898   -5.5516   26.2134 C   0  0  0  0  0  0  0  0  0  0  0  0
    8.0424   -6.4360   26.8314 H   0  0  0  0  0  0  0  0  0  0  0  0
    6.6049   -4.9366   26.1652 C   0  0  0  0  0  0  0  0  0  0  0  0
    5.7903   -5.3656   26.7500 H   0  0  0  0  0  0  0  0  0  0  0  0
    6.3661   -3.8021   25.3945 C   0  0  0  0  0  0  0  0  0  0  0  0
    5.3878   -3.3199   25.3524 H   0  0  0  0  0  0  0  0  0  0  0  0
    7.4455   -3.2918   24.6588 C   0  0  0  0  0  0  0  0  0  0  0  0
    7.5174   -2.2157   23.8088 N   0  0  0  0  0  0  0  0  0  0  0  0
    6.7689   -1.5557   23.6910 H   0  0  0  0  0  0  0  0  0  0  0  0
   10.5120   -0.4923   22.6818 N   0  0  0  0  0  0  0  0  0  0  0  0
   10.7009    0.6071   21.7453 C   0  0  0  0  0  0  0  0  0  0  0  0
   11.5677    0.3593   21.1333 H   0  0  0  0  0  0  0  0  0  0  0  0
   10.9363    1.5058   22.3185 H   0  0  0  0  0  0  0  0  0  0  0  0
    9.4113    0.7608   20.9070 C   0  0  0  0  0  0  0  0  0  0  0  0
    8.9236    1.7269   21.0612 H   0  0  0  0  0  0  0  0  0  0  0  0
    9.5867    0.6586   19.8366 H   0  0  0  0  0  0  0  0  0  0  0  0
    6.6402   -0.0058   19.8932 C   0  0  0  0  0  0  0  0  0  0  0  0
    7.1604    0.0687   18.5848 C   0  0  0  0  0  0  0  0  0  0  0  0
    8.1060   -0.4258   18.3736 H   0  0  0  0  0  0  0  0  0  0  0  0
    6.5580    0.6856   17.5610 N   0  0  0  0  0  0  0  0  0  0  0  0
    5.3962    1.3020   17.8293 C   0  0  0  0  0  0  0  0  0  0  0  0
    4.9141    1.7906   16.9875 H   0  0  0  0  0  0  0  0  0  0  0  0
    4.7977    1.3153   19.0958 C   0  0  0  0  0  0  0  0  0  0  0  0
    3.8681    1.8494   19.2518 H   0  0  0  0  0  0  0  0  0  0  0  0
    5.4191    0.6373   20.1447 C   0  0  0  0  0  0  0  0  0  0  0  0
    5.0067    0.6239   21.1573 H   0  0  0  0  0  0  0  0  0  0  0  0
  1  2  1  0
  2  3  2  3
  3  4  1  0
  4  5  1  0
  5  6  2  0
  6  7  1  0
  6  8  1  0
  8  9  2  0
  9 10  1  0
  9 11  1  0
 11 12  1  0
 11 13  2  0
 13 14  1  0
 13 15  1  0
 15 16  1  0
 15 17  2  0
 17 18  1  0
 18 19  1  0
  4 20  2  0
 20 21  1  0
 21 22  1  0
 21 23  1  0
 21 24  1  0
 24 25  1  0
 24 26  1  0
  2 27  1  0
 27 28  2  0
 28 29  1  0
 28 30  1  0
 30 31  2  0
 31 32  1  0
 31 33  1  0
 33 34  1  0
 33 35  2  0
 35 36  1  0
 24  3  1  0
 35 27  1  0
 18  5  1  0
 17  8  1  0
M  END
>  <cnnaffinity>  (1) 
5.58536

>  <plip>  (1) 
-0.10714285714285714

>  <filename>  (1) 
[H][C](=[C]1[C]([c]2[c]([H])[c]3[c]([H])[c]([H])[c]([H])[c]([H])[c]3[n]2[H])=[N][C]([H])([H])[C]1([H])[H])[c]1[c]([H])[n][c]([H])[c]([H])[c]1[H]

>  <combo1>  (1) 
-0.7297792955163472

$$$$
