
     RDKit          3D

 23 24  0  0  0  0  0  0  0  0999 V2000
    4.9671    1.8800   16.9403 H   0  0  0  0  0  0  0  0  0  0  0  0
    5.4227    1.3541   17.7786 C   0  0  0  0  0  0  0  0  0  0  0  0
    6.5853    0.7323   17.5268 N   0  0  0  0  0  0  0  0  0  0  0  0
    7.1622    0.0659   18.5343 C   0  0  0  0  0  0  0  0  0  0  0  0
    8.1220   -0.3987   18.3072 H   0  0  0  0  0  0  0  0  0  0  0  0
    6.5928   -0.0645   19.8225 C   0  0  0  0  0  0  0  0  0  0  0  0
    7.2745   -0.7811   20.8803 N   0  0  0  0  0  0  0  0  0  0  0  0
    8.5338   -0.3168   21.2062 C   0  0  0  0  0  0  0  0  0  0  0  0
    8.9012    0.5470   20.6617 H   0  0  0  0  0  0  0  0  0  0  0  0
    9.3005   -0.8770   22.1811 C   0  0  0  0  0  0  0  0  0  0  0  0
   10.5763   -0.3852   22.4327 N   0  0  0  0  0  0  0  0  0  0  0  0
   11.2770    0.5643   22.2211 C   0  0  0  0  0  0  0  0  0  0  0  0
   12.2418    1.7865   21.9968 S   0  0  0  0  0  0  0  0  0  0  0  0
    8.7836   -1.9581   22.9615 C   0  0  0  0  0  0  0  0  0  0  0  0
    9.4238   -2.3734   23.7475 H   0  0  0  0  0  0  0  0  0  0  0  0
    7.5264   -2.4183   22.6987 C   0  0  0  0  0  0  0  0  0  0  0  0
    7.0662   -3.2320   23.2487 H   0  0  0  0  0  0  0  0  0  0  0  0
    6.6735   -1.8843   21.6173 C   0  0  0  0  0  0  0  0  0  0  0  0
    5.5871   -2.3567   21.3453 O   0  0  0  0  0  0  0  0  0  0  0  0
    5.4011    0.6208   20.0817 C   0  0  0  0  0  0  0  0  0  0  0  0
    4.9913    0.6187   21.0913 H   0  0  0  0  0  0  0  0  0  0  0  0
    4.8054    1.3302   19.0320 C   0  0  0  0  0  0  0  0  0  0  0  0
    3.8814    1.8726   19.1741 H   0  0  0  0  0  0  0  0  0  0  0  0
  1  2  1  0
  2  3  2  0
  3  4  1  0
  4  5  1  0
  4  6  2  0
  6  7  1  0
  7  8  1  0
  8  9  1  0
  8 10  2  0
 10 11  1  0
 11 12  2  0
 12 13  2  0
 10 14  1  0
 14 15  1  0
 14 16  2  0
 16 17  1  0
 16 18  1  0
 18 19  2  0
  6 20  1  0
 20 21  1  0
 20 22  2  0
 22 23  1  0
 22  2  1  0
 18  7  1  0
M  END
>  <cnnaffinity>  (1) 
4.49511

>  <plip>  (1) 
-0.07142857142857142

>  <filename>  (1) 
[H][c]1[n][c]([H])[c](-[n]2[c]([H])[c]([N]=[C]=[S])[c]([H])[c]([H])[c]2=[O])[c]([H])[c]1[H]

>  <combo1>  (1) 
-0.4668261417903751

$$$$
