
     RDKit          3D

 32 34  0  0  0  0  0  0  0  0999 V2000
    4.9171    1.7919   16.9891 H   0  0  0  0  0  0  0  0  0  0  0  0
    5.3914    1.2966   17.8333 C   0  0  0  0  0  0  0  0  0  0  0  0
    6.5525    0.6772   17.5699 N   0  0  0  0  0  0  0  0  0  0  0  0
    7.1560    0.0392   18.5782 C   0  0  0  0  0  0  0  0  0  0  0  0
    8.1157   -0.4275   18.3593 H   0  0  0  0  0  0  0  0  0  0  0  0
    6.6257   -0.0286   19.8832 C   0  0  0  0  0  0  0  0  0  0  0  0
    7.5430   -0.8470   21.1914 S   0  0  0  0  0  0  0  0  0  0  0  0
    8.4677    0.5775   21.7091 C   0  0  0  0  0  0  0  0  0  0  0  0
    9.6376    0.9576   21.2352 N   0  0  0  0  0  0  0  0  0  0  0  0
    9.9118    2.1389   21.8271 N   0  0  0  0  0  0  0  0  0  0  0  0
    8.9663    2.5012   22.6187 N   0  0  0  0  0  0  0  0  0  0  0  0
    8.0504    1.5323   22.5559 N   0  0  0  0  0  0  0  0  0  0  0  0
    6.8296    1.5589   23.1495 O   0  0  0  0  0  0  0  0  0  0  0  0
    6.6184    2.5939   24.1428 C   0  0  0  0  0  0  0  0  0  0  0  0
    5.5524    2.4894   24.3281 H   0  0  0  0  0  0  0  0  0  0  0  0
    6.8091    3.5872   23.7297 H   0  0  0  0  0  0  0  0  0  0  0  0
    7.3789    2.3342   25.4341 C   0  0  1  0  0  0  0  0  0  0  0  0
    8.4510    2.4428   25.2226 H   0  0  0  0  0  0  0  0  0  0  0  0
    6.9736    3.3050   26.3939 O   0  0  0  0  0  0  0  0  0  0  0  0
    6.8844    2.7354   27.6993 C   0  0  0  0  0  0  0  0  0  0  0  0
    7.5515    3.2695   28.3921 H   0  0  0  0  0  0  0  0  0  0  0  0
    5.8566    2.8700   28.0653 H   0  0  0  0  0  0  0  0  0  0  0  0
    7.2601    1.2495   27.5690 C   0  0  0  0  0  0  0  0  0  0  0  0
    6.6286    0.6158   28.2000 H   0  0  0  0  0  0  0  0  0  0  0  0
    8.2973    1.0778   27.8756 H   0  0  0  0  0  0  0  0  0  0  0  0
    7.0843    0.9707   26.0724 C   0  0  0  0  0  0  0  0  0  0  0  0
    7.7531    0.2014   25.6795 H   0  0  0  0  0  0  0  0  0  0  0  0
    6.0570    0.6548   25.8509 H   0  0  0  0  0  0  0  0  0  0  0  0
    5.4262    0.6403   20.1547 C   0  0  0  0  0  0  0  0  0  0  0  0
    5.0146    0.6422   21.1695 H   0  0  0  0  0  0  0  0  0  0  0  0
    4.7985    1.3118   19.1009 C   0  0  0  0  0  0  0  0  0  0  0  0
    3.8706    1.8489   19.2494 H   0  0  0  0  0  0  0  0  0  0  0  0
  1  2  1  0
  2  3  2  0
  3  4  1  0
  4  5  1  0
  4  6  2  0
  6  7  1  0
  7  8  1  0
  8  9  2  0
  9 10  1  0
 10 11  2  0
 11 12  1  0
 12 13  1  0
 13 14  1  0
 14 15  1  0
 14 16  1  0
 14 17  1  0
 17 18  1  6
 17 19  1  0
 19 20  1  0
 20 21  1  0
 20 22  1  0
 20 23  1  0
 23 24  1  0
 23 25  1  0
 23 26  1  0
 26 27  1  0
 26 28  1  0
  6 29  1  0
 29 30  1  0
 29 31  2  0
 31 32  1  0
 31  2  1  0
 12  8  1  0
 26 17  1  0
M  END
>  <cnnaffinity>  (1) 
4.71714

>  <plip>  (1) 
-0.03571428571428571

>  <filename>  (1) 
[H][c]1[n][c]([H])[c]([S][c]2[n][n][n][n]2[O][C]([H])([H])[C@@]2([H])[O][C]([H])([H])[C]([H])([H])[C]2([H])[H])[c]([H])[c]1[H]

>  <combo1>  (1) 
-0.20104333150068399

$$$$
