
     RDKit          3D

 43 46  0  0  0  0  0  0  0  0999 V2000
   10.6982    5.5156   22.5083 F   0  0  0  0  0  0  0  0  0  0  0  0
   10.2021    5.2834   23.7409 C   0  0  0  0  0  0  0  0  0  0  0  0
   10.4036    6.2862   24.6804 C   0  0  0  0  0  0  0  0  0  0  0  0
    9.9316    6.1035   25.9800 C   0  0  0  0  0  0  0  0  0  0  0  0
    9.2351    4.9309   26.3069 C   0  0  0  0  0  0  0  0  0  0  0  0
    9.0363    3.9425   25.3401 C   0  0  0  0  0  0  0  0  0  0  0  0
    9.5413    4.0769   24.0282 C   0  0  0  0  0  0  0  0  0  0  0  0
    9.4345    2.9782   23.0340 C   0  0  0  0  0  0  0  0  0  0  0  0
   10.3247    2.7593   22.0259 C   0  0  0  0  0  0  0  0  0  0  0  0
    9.9176    1.3119   21.1705 S   0  0  0  0  0  0  0  0  0  0  0  0
    8.5631    1.1163   22.2477 C   0  0  0  0  0  0  0  0  0  0  0  0
    7.6695    0.0925   22.2221 N   0  0  0  0  0  0  0  0  0  0  0  0
    7.3522   -0.6947   21.0421 C   0  0  0  0  0  0  0  0  0  0  0  0
    6.6215    0.1088   19.9740 C   0  0  0  0  0  0  0  0  0  0  0  0
    5.3979    0.7801   20.1599 C   0  0  0  0  0  0  0  0  0  0  0  0
    4.8012    1.3950   19.0535 C   0  0  0  0  0  0  0  0  0  0  0  0
    5.4397    1.3329   17.8099 C   0  0  0  0  0  0  0  0  0  0  0  0
    6.6114    0.7117   17.6167 N   0  0  0  0  0  0  0  0  0  0  0  0
    7.1741    0.1378   18.6871 C   0  0  0  0  0  0  0  0  0  0  0  0
    8.1331   -0.3504   18.5070 H   0  0  0  0  0  0  0  0  0  0  0  0
    4.9954    1.7944   16.9294 H   0  0  0  0  0  0  0  0  0  0  0  0
    3.8595    1.9278   19.1401 H   0  0  0  0  0  0  0  0  0  0  0  0
    4.9123    0.8310   21.1391 H   0  0  0  0  0  0  0  0  0  0  0  0
    6.5794   -1.9481   21.4976 C   0  0  0  0  0  0  0  0  0  0  0  0
    7.3779   -2.8655   22.4490 C   0  0  0  0  0  0  0  0  0  0  0  0
    6.8910   -4.2568   22.0603 C   0  0  0  0  0  0  0  0  0  0  0  0
    6.6965   -4.1848   20.6646 O   0  0  0  0  0  0  0  0  0  0  0  0
    6.1148   -2.9254   20.3865 C   0  0  0  0  0  0  0  0  0  0  0  0
    6.4245   -2.6359   19.3786 H   0  0  0  0  0  0  0  0  0  0  0  0
    5.0268   -3.0360   20.3588 H   0  0  0  0  0  0  0  0  0  0  0  0
    7.6008   -5.0633   22.2463 H   0  0  0  0  0  0  0  0  0  0  0  0
    5.9559   -4.5003   22.5895 H   0  0  0  0  0  0  0  0  0  0  0  0
    8.4542   -2.7778   22.2623 H   0  0  0  0  0  0  0  0  0  0  0  0
    7.2070   -2.6294   23.5023 H   0  0  0  0  0  0  0  0  0  0  0  0
    5.6985   -1.5604   22.0115 H   0  0  0  0  0  0  0  0  0  0  0  0
    8.2991   -1.0471   20.6104 H   0  0  0  0  0  0  0  0  0  0  0  0
    6.8994    0.4137   22.7894 H   0  0  0  0  0  0  0  0  0  0  0  0
    8.4394    2.0279   23.1616 N   0  0  0  0  0  0  0  0  0  0  0  0
   11.1724    3.3618   21.7515 H   0  0  0  0  0  0  0  0  0  0  0  0
    8.4642    3.0464   25.5794 H   0  0  0  0  0  0  0  0  0  0  0  0
    8.8660    4.7773   27.3165 H   0  0  0  0  0  0  0  0  0  0  0  0
   10.0817    6.8884   26.7183 H   0  0  0  0  0  0  0  0  0  0  0  0
   10.9504    7.1702   24.3729 H   0  0  0  0  0  0  0  0  0  0  0  0
  1  2  1  0
  2  3  2  0
  3  4  1  0
  4  5  2  0
  5  6  1  0
  6  7  2  0
  7  8  1  0
  8  9  2  0
  9 10  1  0
 10 11  1  0
 11 12  1  0
 12 13  1  0
 13 14  1  0
 14 15  2  0
 15 16  1  0
 16 17  2  0
 17 18  1  0
 18 19  2  0
 19 20  1  0
 17 21  1  0
 16 22  1  0
 15 23  1  0
 13 24  1  0
 24 25  1  0
 25 26  1  0
 26 27  1  0
 27 28  1  0
 28 29  1  0
 28 30  1  0
 26 31  1  0
 26 32  1  0
 25 33  1  0
 25 34  1  0
 24 35  1  0
 13 36  1  0
 12 37  1  0
 11 38  2  0
  9 39  1  0
  6 40  1  0
  5 41  1  0
  4 42  1  0
  3 43  1  0
  7  2  1  0
 38  8  1  0
 19 14  1  0
 28 24  1  0
M  END
>  <cnnaffinity>  (1) 
5.2196

>  <plip>  (1) 
-0.20689655172413793

>  <filename>  (1) 
[H][c]1[n][c]([H])[c]([C]([H])([N]([H])[c]2[n][c](-[c]3[c]([H])[c]([H])[c]([H])[c]([H])[c]3[F])[c]([H])[s]2)[C]2([H])[C]([H])([H])[O][C]([H])([H])[C]2([H])[H])[c]([H])[c]1[H]

>  <combo1>  (1) 
-1.0127572566610878

$$$$
