
     RDKit          3D

 43 45  0  0  0  0  0  0  0  0999 V2000
    5.1535    2.0132   17.0079 H   0  0  0  0  0  0  0  0  0  0  0  0
    5.5311    1.3591   17.7916 C   0  0  0  0  0  0  0  0  0  0  0  0
    6.6802    0.7163   17.5274 N   0  0  0  0  0  0  0  0  0  0  0  0
    7.1956   -0.0499   18.5004 C   0  0  0  0  0  0  0  0  0  0  0  0
    8.1297   -0.5607   18.2711 H   0  0  0  0  0  0  0  0  0  0  0  0
    6.5867   -0.2359   19.7638 C   0  0  0  0  0  0  0  0  0  0  0  0
    7.1976   -0.9744   20.8220 N   0  0  0  0  0  0  0  0  0  0  0  0
    6.5460   -1.9987   21.4867 C   0  0  0  0  0  0  0  0  0  0  0  0
    5.4497   -2.4522   21.2232 O   0  0  0  0  0  0  0  0  0  0  0  0
    7.4645   -2.5183   22.5690 C   0  0  0  0  0  0  0  0  0  0  0  0
    7.6072   -3.5856   22.3900 H   0  0  0  0  0  0  0  0  0  0  0  0
    6.9487   -2.4172   23.5264 H   0  0  0  0  0  0  0  0  0  0  0  0
    8.7519   -1.6917   22.4668 C   0  0  0  0  0  0  0  0  0  0  0  0
    8.9144   -1.1239   23.3915 H   0  0  0  0  0  0  0  0  0  0  0  0
    9.6437   -2.3102   22.3218 H   0  0  0  0  0  0  0  0  0  0  0  0
    8.5786   -0.7363   21.2573 C   0  0  2  0  0  0  0  0  0  0  0  0
    9.2501   -1.0481   20.4402 H   0  0  0  0  0  0  0  0  0  0  0  0
    8.8896    0.7411   21.5898 C   0  0  0  0  0  0  0  0  0  0  0  0
    8.1844    1.0902   22.3585 H   0  0  0  0  0  0  0  0  0  0  0  0
    8.7371    1.3648   20.6998 H   0  0  0  0  0  0  0  0  0  0  0  0
   10.3400    0.8731   22.0876 C   0  0  0  0  0  0  0  0  0  0  0  0
   10.3991    0.4353   23.1035 H   0  0  0  0  0  0  0  0  0  0  0  0
   10.9660    0.2387   21.4380 H   0  0  0  0  0  0  0  0  0  0  0  0
   10.8751    2.2241   22.0888 N   0  0  0  0  0  0  0  0  0  0  0  0
   10.5352    3.0648   23.2370 C   0  0  0  0  0  0  0  0  0  0  0  0
   10.6024    2.5023   24.1903 H   0  0  0  0  0  0  0  0  0  0  0  0
    9.5092    3.4493   23.1383 H   0  0  0  0  0  0  0  0  0  0  0  0
   11.6011    4.1900   23.2441 C   0  0  0  0  0  0  0  0  0  0  0  0
   11.1757    5.1946   23.1541 H   0  0  0  0  0  0  0  0  0  0  0  0
   12.1589    4.1635   24.1835 H   0  0  0  0  0  0  0  0  0  0  0  0
   12.5518    3.8544   22.0819 C   0  0  0  0  0  0  0  0  0  0  0  0
   13.5977    4.0576   22.3367 H   0  0  0  0  0  0  0  0  0  0  0  0
   12.3196    4.4245   21.1762 H   0  0  0  0  0  0  0  0  0  0  0  0
   12.3123    2.3603   21.8334 C   0  0  1  0  0  0  0  0  0  0  0  0
   12.4845    2.1081   20.7847 H   0  0  0  0  0  0  0  0  0  0  0  0
   13.2318    1.4702   22.6936 C   0  0  0  0  0  0  0  0  0  0  0  0
   13.1320    0.4136   22.4115 H   0  0  0  0  0  0  0  0  0  0  0  0
   13.0139    1.5671   23.7605 H   0  0  0  0  0  0  0  0  0  0  0  0
   14.2792    1.7552   22.5566 H   0  0  0  0  0  0  0  0  0  0  0  0
    5.3509    0.3819   19.9921 C   0  0  0  0  0  0  0  0  0  0  0  0
    4.8343    0.2084   20.9377 H   0  0  0  0  0  0  0  0  0  0  0  0
    4.8352    1.2189   18.9994 C   0  0  0  0  0  0  0  0  0  0  0  0
    3.9186    1.7776   19.1614 H   0  0  0  0  0  0  0  0  0  0  0  0
  1  2  1  0
  2  3  2  0
  3  4  1  0
  4  5  1  0
  4  6  2  0
  6  7  1  0
  7  8  1  0
  8  9  2  0
  8 10  1  0
 10 11  1  0
 10 12  1  0
 10 13  1  0
 13 14  1  0
 13 15  1  0
 13 16  1  0
 16 17  1  6
 16 18  1  0
 18 19  1  0
 18 20  1  0
 18 21  1  0
 21 22  1  0
 21 23  1  0
 21 24  1  0
 24 25  1  0
 25 26  1  0
 25 27  1  0
 25 28  1  0
 28 29  1  0
 28 30  1  0
 28 31  1  0
 31 32  1  0
 31 33  1  0
 31 34  1  0
 34 35  1  6
 34 36  1  0
 36 37  1  0
 36 38  1  0
 36 39  1  0
  6 40  1  0
 40 41  1  0
 40 42  2  0
 42 43  1  0
 42  2  1  0
 16  7  1  0
 34 24  1  0
M  END
>  <cnnaffinity>  (1) 
5.31082

>  <plip>  (1) 
-0.07142857142857142

>  <filename>  (1) 
[H][c]1[n][c]([H])[c]([N]2[C](=[O])[C]([H])([H])[C]([H])([H])[C@]2([H])[C]([H])([H])[C]([H])([H])[N]2[C]([H])([H])[C]([H])([H])[C]([H])([H])[C@@]2([H])[C]([H])([H])[H])[c]([H])[c]1[H]

>  <combo1>  (1) 
-0.46253601301519925

$$$$
