
     RDKit          3D

 35 38  0  0  0  0  0  0  0  0999 V2000
    9.4128    0.7056   20.7587 C   0  0  0  0  0  0  0  0  0  0  0  0
    8.6104   -0.3867   21.4043 C   0  0  0  0  0  0  0  0  0  0  0  0
    9.1498   -1.2120   22.3864 C   0  0  0  0  0  0  0  0  0  0  0  0
    8.4886   -2.2078   22.9534 N   0  0  0  0  0  0  0  0  0  0  0  0
    7.2225   -2.3965   22.5543 C   0  0  0  0  0  0  0  0  0  0  0  0
    6.4388   -3.4350   23.2158 C   0  0  0  0  0  0  0  0  0  0  0  0
    5.1333   -3.7756   22.9459 C   0  0  0  0  0  0  0  0  0  0  0  0
    4.7564   -4.8010   23.7722 N   0  0  0  0  0  0  0  0  0  0  0  0
    5.7893   -5.1382   24.5962 C   0  0  0  0  0  0  0  0  0  0  0  0
    5.7272   -6.0930   25.5220 N   0  0  0  0  0  0  0  0  0  0  0  0
    6.8579   -6.2390   26.2248 C   0  0  0  0  0  0  0  0  0  0  0  0
    8.0331   -5.4819   26.0146 C   0  0  0  0  0  0  0  0  0  0  0  0
    8.0600   -4.4905   25.0371 C   0  0  0  0  0  0  0  0  0  0  0  0
    6.8854   -4.3014   24.2868 C   0  0  0  0  0  0  0  0  0  0  0  0
    8.9307   -3.8688   24.8396 H   0  0  0  0  0  0  0  0  0  0  0  0
    8.9010   -5.6883   26.6285 H   0  0  0  0  0  0  0  0  0  0  0  0
    6.8361   -6.9896   27.0069 H   0  0  0  0  0  0  0  0  0  0  0  0
    3.8807   -5.2832   23.8506 H   0  0  0  0  0  0  0  0  0  0  0  0
    4.4528   -3.3378   22.2190 H   0  0  0  0  0  0  0  0  0  0  0  0
    6.6134   -1.7121   21.5809 N   0  0  0  0  0  0  0  0  0  0  0  0
    7.3076   -0.7376   21.0061 C   0  0  0  0  0  0  0  0  0  0  0  0
    6.6147   -0.0211   19.9216 C   0  0  0  0  0  0  0  0  0  0  0  0
    5.4055    0.6391   20.1613 C   0  0  0  0  0  0  0  0  0  0  0  0
    4.8009    1.3157   19.1043 C   0  0  0  0  0  0  0  0  0  0  0  0
    5.4149    1.2879   17.8453 C   0  0  0  0  0  0  0  0  0  0  0  0
    6.5675    0.6491   17.5999 N   0  0  0  0  0  0  0  0  0  0  0  0
    7.1498    0.0204   18.6280 C   0  0  0  0  0  0  0  0  0  0  0  0
    8.1030   -0.4555   18.3927 H   0  0  0  0  0  0  0  0  0  0  0  0
    4.9621    1.7923   16.9942 H   0  0  0  0  0  0  0  0  0  0  0  0
    3.8708    1.8574   19.2383 H   0  0  0  0  0  0  0  0  0  0  0  0
    4.9624    0.6211   21.1608 H   0  0  0  0  0  0  0  0  0  0  0  0
   10.1764   -1.0814   22.7237 H   0  0  0  0  0  0  0  0  0  0  0  0
   10.2836    0.9986   21.3505 H   0  0  0  0  0  0  0  0  0  0  0  0
    9.7470    0.3224   19.7958 H   0  0  0  0  0  0  0  0  0  0  0  0
    8.8004    1.5881   20.5520 H   0  0  0  0  0  0  0  0  0  0  0  0
  1  2  1  0
  2  3  2  0
  3  4  1  0
  4  5  2  0
  5  6  1  0
  6  7  2  0
  7  8  1  0
  8  9  1  0
  9 10  2  0
 10 11  1  0
 11 12  2  0
 12 13  1  0
 13 14  2  0
 13 15  1  0
 12 16  1  0
 11 17  1  0
  8 18  1  0
  7 19  1  0
  5 20  1  0
 20 21  2  0
 21 22  1  0
 22 23  2  0
 23 24  1  0
 24 25  2  0
 25 26  1  0
 26 27  2  0
 27 28  1  0
 25 29  1  0
 24 30  1  0
 23 31  1  0
  3 32  1  0
  1 33  1  0
  1 34  1  0
  1 35  1  0
 21  2  1  0
 27 22  1  0
 14  6  1  0
 14  9  1  0
M  END
>  <cnnaffinity>  (1) 
5.57158

>  <plip>  (1) 
-0.07142857142857142

>  <filename>  (1) 
[H][c]1[n][c]([H])[c](-[c]2[n][c](-[c]3[c]([H])[n]([H])[c]4[n][c]([H])[c]([H])[c]([H])[c]34)[n][c]([H])[c]2[C]([H])([H])[H])[c]([H])[c]1[H]

>  <combo1>  (1) 
-0.4616939179422215

$$$$
