
     RDKit          3D

 29 30  0  0  0  0  0  0  0  0999 V2000
    5.0062    1.8695   17.0086 H   0  0  0  0  0  0  0  0  0  0  0  0
    5.4606    1.3213   17.8295 C   0  0  0  0  0  0  0  0  0  0  0  0
    6.6082    0.6768   17.5628 N   0  0  0  0  0  0  0  0  0  0  0  0
    7.1787   -0.0218   18.5620 C   0  0  0  0  0  0  0  0  0  0  0  0
    8.1103   -0.5294   18.3163 H   0  0  0  0  0  0  0  0  0  0  0  0
    6.6294   -0.1325   19.8677 C   0  0  0  0  0  0  0  0  0  0  0  0
    7.1510   -0.8931   20.9239 N   0  0  0  0  0  0  0  0  0  0  0  0
    6.6644   -0.7698   21.8018 H   0  0  0  0  0  0  0  0  0  0  0  0
    8.6863   -1.5786   21.0241 S   0  0  0  0  0  0  0  0  0  0  0  0
    9.7186   -0.2283   21.6806 C   0  0  0  0  0  0  0  0  0  0  0  0
   10.7154   -0.6742   21.5593 H   0  0  0  0  0  0  0  0  0  0  0  0
    9.5255    0.1145   23.1725 C   0  0  0  0  0  0  0  0  0  0  0  0
    9.6904   -0.7797   23.7803 H   0  0  0  0  0  0  0  0  0  0  0  0
    8.4935    0.4571   23.3334 H   0  0  0  0  0  0  0  0  0  0  0  0
   10.4812    1.2380   23.6244 C   0  0  0  0  0  0  0  0  0  0  0  0
   10.1770    1.5845   24.6196 H   0  0  0  0  0  0  0  0  0  0  0  0
   11.5139    0.8414   23.7089 H   0  0  0  0  0  0  0  0  0  0  0  0
   10.3965    2.3690   22.7031 N   0  0  0  0  0  0  0  0  0  0  0  0
   10.9322    3.1694   23.0160 H   0  0  0  0  0  0  0  0  0  0  0  0
   10.7351    2.0069   21.3313 C   0  0  0  0  0  0  0  0  0  0  0  0
   11.7099    1.4738   21.2387 H   0  0  0  0  0  0  0  0  0  0  0  0
   10.8053    2.9040   20.7104 H   0  0  0  0  0  0  0  0  0  0  0  0
    9.6364    1.0583   20.8486 C   0  0  0  0  0  0  0  0  0  0  0  0
    8.6530    1.5283   20.9858 H   0  0  0  0  0  0  0  0  0  0  0  0
    9.7114    0.8387   19.7857 H   0  0  0  0  0  0  0  0  0  0  0  0
    5.4437    0.5697   20.1237 C   0  0  0  0  0  0  0  0  0  0  0  0
    5.0241    0.5365   21.1312 H   0  0  0  0  0  0  0  0  0  0  0  0
    4.8494    1.2973   19.0932 C   0  0  0  0  0  0  0  0  0  0  0  0
    3.9358    1.8515   19.2637 H   0  0  0  0  0  0  0  0  0  0  0  0
  1  2  1  0
  2  3  2  0
  3  4  1  0
  4  5  1  0
  4  6  2  0
  6  7  1  0
  7  8  1  0
  7  9  1  0
  9 10  1  0
 10 11  1  0
 10 12  1  0
 12 13  1  0
 12 14  1  0
 12 15  1  0
 15 16  1  0
 15 17  1  0
 15 18  1  0
 18 19  1  0
 18 20  1  0
 20 21  1  0
 20 22  1  0
 20 23  1  0
 23 24  1  0
 23 25  1  0
  6 26  1  0
 26 27  1  0
 26 28  2  0
 28 29  1  0
 28  2  1  0
 23 10  1  0
M  END
>  <cnnaffinity>  (1) 
4.18519

>  <plip>  (1) 
-0.07142857142857142

>  <filename>  (1) 
[H][c]1[n][c]([H])[c]([N]([H])[S][C]2([H])[C]([H])([H])[C]([H])([H])[N]([H])[C]([H])([H])[C]2([H])[H])[c]([H])[c]1[H]

>  <combo1>  (1) 
-0.4760573909189889

$$$$
