
     RDKit          3D

 42 44  0  0  0  0  0  0  0  0999 V2000
    5.5313   -3.6285   25.9103 C   0  0  0  0  0  0  0  0  0  0  0  0
    6.0179   -2.4712   25.0737 C   0  0  0  0  0  0  0  0  0  0  0  0
    5.3141   -1.3239   25.5552 O   0  0  0  0  0  0  0  0  0  0  0  0
    5.5359   -0.1291   24.9921 C   0  0  0  0  0  0  0  0  0  0  0  0
    4.7521    0.9204   25.4983 C   0  0  0  0  0  0  0  0  0  0  0  0
    4.9330    2.1759   24.9447 C   0  0  0  0  0  0  0  0  0  0  0  0
    5.8784    2.3237   23.9346 C   0  0  0  0  0  0  0  0  0  0  0  0
    6.6250    1.1952   23.5319 C   0  0  0  0  0  0  0  0  0  0  0  0
    7.5896    1.3070   22.5876 N   0  0  0  0  0  0  0  0  0  0  0  0
    7.9255    2.5869   21.9903 C   0  0  0  0  0  0  0  0  0  0  0  0
    8.8722    2.2086   20.8699 C   0  0  0  0  0  0  0  0  0  0  0  0
    9.3896    0.8119   21.1964 C   0  0  0  0  0  0  0  0  0  0  0  0
    8.2367    0.1584   21.9587 C   0  0  0  0  0  0  0  0  0  0  0  0
    7.3353   -0.7199   21.0439 C   0  0  0  0  0  0  0  0  0  0  0  0
    6.6279   -0.0229   19.8981 C   0  0  0  0  0  0  0  0  0  0  0  0
    5.4185    0.6519   20.1289 C   0  0  0  0  0  0  0  0  0  0  0  0
    4.7999    1.3188   19.0706 C   0  0  0  0  0  0  0  0  0  0  0  0
    5.4122    1.3009   17.8162 C   0  0  0  0  0  0  0  0  0  0  0  0
    6.5628    0.6598   17.5602 N   0  0  0  0  0  0  0  0  0  0  0  0
    7.1441    0.0172   18.5868 C   0  0  0  0  0  0  0  0  0  0  0  0
    8.0839   -0.4884   18.3456 H   0  0  0  0  0  0  0  0  0  0  0  0
    4.9605    1.8260   16.9778 H   0  0  0  0  0  0  0  0  0  0  0  0
    3.8676    1.8543   19.2085 H   0  0  0  0  0  0  0  0  0  0  0  0
    4.9740    0.6503   21.1271 H   0  0  0  0  0  0  0  0  0  0  0  0
    7.9910   -1.5116   20.6607 H   0  0  0  0  0  0  0  0  0  0  0  0
    6.6013   -1.2133   21.6900 H   0  0  0  0  0  0  0  0  0  0  0  0
    8.6088   -0.4979   22.7493 H   0  0  0  0  0  0  0  0  0  0  0  0
    9.6403    0.2490   20.2931 H   0  0  0  0  0  0  0  0  0  0  0  0
   10.2879    0.8524   21.8193 H   0  0  0  0  0  0  0  0  0  0  0  0
    9.6856    2.9111   20.7577 H   0  0  0  0  0  0  0  0  0  0  0  0
    8.2952    2.1866   19.9478 H   0  0  0  0  0  0  0  0  0  0  0  0
    7.0220    3.0825   21.6042 H   0  0  0  0  0  0  0  0  0  0  0  0
    8.3981    3.2503   22.7268 H   0  0  0  0  0  0  0  0  0  0  0  0
    6.4449   -0.0261   24.0427 N   0  0  0  0  0  0  0  0  0  0  0  0
    6.0625    3.2718   23.4591 H   0  0  0  0  0  0  0  0  0  0  0  0
    4.3657    3.0449   25.2821 H   0  0  0  0  0  0  0  0  0  0  0  0
    4.0638    0.6924   26.2991 H   0  0  0  0  0  0  0  0  0  0  0  0
    5.8027   -2.6219   24.0071 H   0  0  0  0  0  0  0  0  0  0  0  0
    7.0983   -2.3175   25.1832 H   0  0  0  0  0  0  0  0  0  0  0  0
    6.0288   -4.5561   25.6161 H   0  0  0  0  0  0  0  0  0  0  0  0
    4.4535   -3.7510   25.7848 H   0  0  0  0  0  0  0  0  0  0  0  0
    5.7401   -3.4368   26.9653 H   0  0  0  0  0  0  0  0  0  0  0  0
  1  2  1  0
  2  3  1  0
  3  4  1  0
  4  5  2  0
  5  6  1  0
  6  7  2  0
  7  8  1  0
  8  9  1  0
  9 10  1  0
 10 11  1  0
 11 12  1  0
 12 13  1  0
 13 14  1  0
 14 15  1  0
 15 16  2  0
 16 17  1  0
 17 18  2  0
 18 19  1  0
 19 20  2  0
 20 21  1  0
 18 22  1  0
 17 23  1  0
 16 24  1  0
 14 25  1  0
 14 26  1  0
 13 27  1  0
 12 28  1  0
 12 29  1  0
 11 30  1  0
 11 31  1  0
 10 32  1  0
 10 33  1  0
  8 34  2  0
  7 35  1  0
  6 36  1  0
  5 37  1  0
  2 38  1  0
  2 39  1  0
  1 40  1  0
  1 41  1  0
  1 42  1  0
 34  4  1  0
 13  9  1  0
 20 15  1  0
M  END
>  <cnnaffinity>  (1) 
4.49765

>  <plip>  (1) 
-0.0

>  <filename>  (1) 
[H][c]1[n][c]([H])[c]([C]([H])([H])[C]2([H])[N]([c]3[n][c]([O][C]([H])([H])[C]([H])([H])[H])[c]([H])[c]([H])[c]3[H])[C]([H])([H])[C]([H])([H])[C]2([H])[H])[c]([H])[c]1[H]

>  <combo1>  (1) 
-5.290574915453614e-06

$$$$
