
     RDKit          3D

 51 55  0  0  0  0  0  0  0  0999 V2000
   13.3804    5.3476   21.9763 H   0  0  0  0  0  0  0  0  0  0  0  0
   12.5629    5.1279   22.6593 C   0  0  0  0  0  0  0  0  0  0  0  0
   11.8220    4.0621   22.3537 N   0  0  0  0  0  0  0  0  0  0  0  0
   10.7967    3.7565   23.1651 C   0  0  0  0  0  0  0  0  0  0  0  0
   10.0018    2.7047   22.7754 N   0  0  0  0  0  0  0  0  0  0  0  0
    8.8093    2.2760   23.5302 C   0  0  0  0  0  0  0  0  0  0  0  0
    9.0939    1.5877   24.3396 H   0  0  0  0  0  0  0  0  0  0  0  0
    8.3215    3.1481   23.9726 H   0  0  0  0  0  0  0  0  0  0  0  0
    7.7290    1.5637   22.6740 C   0  0  0  0  0  0  0  0  0  0  0  0
    6.9869    1.1540   23.3692 H   0  0  0  0  0  0  0  0  0  0  0  0
    7.2061    2.3024   22.0397 H   0  0  0  0  0  0  0  0  0  0  0  0
    8.3434    0.5093   21.8642 N   0  0  0  0  0  0  0  0  0  0  0  0
    7.4939   -0.5107   21.2031 C   0  0  1  0  0  0  0  0  0  0  0  0
    6.6915    0.1331   20.0566 C   0  0  0  0  0  0  0  0  0  0  0  0
    7.2421    0.2024   18.7652 C   0  0  0  0  0  0  0  0  0  0  0  0
    8.2394   -0.1890   18.5658 H   0  0  0  0  0  0  0  0  0  0  0  0
    6.6409    0.7508   17.7014 N   0  0  0  0  0  0  0  0  0  0  0  0
    5.4499    1.3302   17.9014 C   0  0  0  0  0  0  0  0  0  0  0  0
    4.9755    1.7656   17.0247 H   0  0  0  0  0  0  0  0  0  0  0  0
    4.8377    1.3982   19.1556 C   0  0  0  0  0  0  0  0  0  0  0  0
    3.8895    1.9111   19.2618 H   0  0  0  0  0  0  0  0  0  0  0  0
    5.4742    0.8111   20.2538 C   0  0  0  0  0  0  0  0  0  0  0  0
    5.0390    0.9029   21.2521 H   0  0  0  0  0  0  0  0  0  0  0  0
    8.4790   -1.6734   20.7903 C   0  0  0  0  0  0  0  0  0  0  0  0
    9.4886   -1.4378   21.1434 H   0  0  0  0  0  0  0  0  0  0  0  0
    8.5419   -1.7682   19.7125 H   0  0  0  0  0  0  0  0  0  0  0  0
    8.0321   -2.9298   21.5709 C   0  0  2  0  0  0  0  0  0  0  0  0
    8.8196   -3.6884   21.6332 H   0  0  0  0  0  0  0  0  0  0  0  0
    6.6830   -3.4708   21.0681 C   0  0  0  0  0  0  0  0  0  0  0  0
    6.4394   -4.4033   21.5944 H   0  0  0  0  0  0  0  0  0  0  0  0
    6.6461   -3.6982   19.9981 H   0  0  0  0  0  0  0  0  0  0  0  0
    5.7069   -2.3279   21.4566 C   0  0  0  0  0  0  0  0  0  0  0  0
    5.2939   -1.8588   20.5626 H   0  0  0  0  0  0  0  0  0  0  0  0
    4.8811   -2.7028   22.0703 H   0  0  0  0  0  0  0  0  0  0  0  0
    6.6101   -1.3156   22.2225 C   0  0  1  0  0  0  0  0  0  0  0  0
    6.0784   -0.6385   22.8899 H   0  0  0  0  0  0  0  0  0  0  0  0
    7.6119   -2.2690   22.8994 C   0  0  0  0  0  0  0  0  0  0  0  0
    7.1392   -2.9539   23.6192 H   0  0  0  0  0  0  0  0  0  0  0  0
    8.4303   -1.7378   23.3970 H   0  0  0  0  0  0  0  0  0  0  0  0
    9.3165    1.1736   20.9759 C   0  0  0  0  0  0  0  0  0  0  0  0
    9.6889    0.4896   20.2034 H   0  0  0  0  0  0  0  0  0  0  0  0
    8.8297    2.0169   20.4590 H   0  0  0  0  0  0  0  0  0  0  0  0
   10.4818    1.7188   21.7939 C   0  0  0  0  0  0  0  0  0  0  0  0
   10.9854    0.8793   22.2998 H   0  0  0  0  0  0  0  0  0  0  0  0
   11.2001    2.1944   21.1228 H   0  0  0  0  0  0  0  0  0  0  0  0
   10.5253    4.4936   24.3457 C   0  0  0  0  0  0  0  0  0  0  0  0
    9.7481    4.1511   25.0137 H   0  0  0  0  0  0  0  0  0  0  0  0
   11.2889    5.6157   24.6273 C   0  0  0  0  0  0  0  0  0  0  0  0
   11.0442    6.2494   25.4807 H   0  0  0  0  0  0  0  0  0  0  0  0
   12.3406    5.9407   23.7679 C   0  0  0  0  0  0  0  0  0  0  0  0
   12.9795    6.7961   23.9443 H   0  0  0  0  0  0  0  0  0  0  0  0
  1  2  1  0
  2  3  2  0
  3  4  1  0
  4  5  1  0
  5  6  1  0
  6  7  1  0
  6  8  1  0
  6  9  1  0
  9 10  1  0
  9 11  1  0
  9 12  1  0
 13 12  1  1
 13 14  1  0
 14 15  2  0
 15 16  1  0
 15 17  1  0
 17 18  2  0
 18 19  1  0
 18 20  1  0
 20 21  1  0
 20 22  2  0
 22 23  1  0
 13 24  1  0
 24 25  1  0
 24 26  1  0
 24 27  1  0
 27 28  1  1
 27 29  1  0
 29 30  1  0
 29 31  1  0
 29 32  1  0
 32 33  1  0
 32 34  1  0
 32 35  1  0
 35 36  1  1
 35 37  1  0
 37 38  1  0
 37 39  1  0
 12 40  1  0
 40 41  1  0
 40 42  1  0
 40 43  1  0
 43 44  1  0
 43 45  1  0
  4 46  2  0
 46 47  1  0
 46 48  1  0
 48 49  1  0
 48 50  2  0
 50 51  1  0
 50  2  1  0
 43  5  1  0
 35 13  1  0
 22 14  1  0
 37 27  1  0
M  END
>  <cnnaffinity>  (1) 
5.85151

>  <plip>  (1) 
-0.10344827586206896

>  <filename>  (1) 
[H][c]1[n][c]([N]2[C]([H])([H])[C]([H])([H])[N]([C@@]3([c]4[c]([H])[n][c]([H])[c]([H])[c]4[H])[C]([H])([H])[C@]4([H])[C]([H])([H])[C]([H])([H])[C@@]3([H])[C]4([H])[H])[C]([H])([H])[C]2([H])[H])[c]([H])[c]([H])[c]1[H]

>  <combo1>  (1) 
-0.6032768760342626

$$$$
