
     RDKit          3D

 41 43  0  0  0  0  0  0  0  0999 V2000
    5.8472   -1.1008   24.1147 H   0  0  0  0  0  0  0  0  0  0  0  0
    6.3983   -0.6127   23.3070 C   0  0  0  0  0  0  0  0  0  0  0  0
    6.7915    0.6582   23.4735 C   0  0  0  0  0  0  0  0  0  0  0  0
    6.2863    1.4378   24.6339 C   0  0  0  0  0  0  0  0  0  0  0  0
    4.9137    1.6079   24.8677 C   0  0  0  0  0  0  0  0  0  0  0  0
    4.2052    1.1751   24.1701 H   0  0  0  0  0  0  0  0  0  0  0  0
    4.4650    2.3266   25.9780 C   0  0  0  0  0  0  0  0  0  0  0  0
    3.4014    2.4770   26.1433 H   0  0  0  0  0  0  0  0  0  0  0  0
    5.3686    2.8644   26.9028 C   0  0  0  0  0  0  0  0  0  0  0  0
    4.8727    3.6485   28.0919 C   0  0  0  0  0  0  0  0  0  0  0  0
    5.2716    3.2537   29.0338 H   0  0  0  0  0  0  0  0  0  0  0  0
    3.7828    3.6263   28.1521 H   0  0  0  0  0  0  0  0  0  0  0  0
    5.1826    4.6994   28.0396 H   0  0  0  0  0  0  0  0  0  0  0  0
    6.7508    2.6638   26.6988 C   0  0  0  0  0  0  0  0  0  0  0  0
    7.7685    3.2189   27.6513 C   0  0  0  0  0  0  0  0  0  0  0  0
    8.7619    3.0536   27.2355 H   0  0  0  0  0  0  0  0  0  0  0  0
    7.7151    2.7411   28.6370 H   0  0  0  0  0  0  0  0  0  0  0  0
    7.6453    4.2956   27.8134 H   0  0  0  0  0  0  0  0  0  0  0  0
    7.1866    1.9528   25.5758 C   0  0  0  0  0  0  0  0  0  0  0  0
    8.2519    1.7721   25.4321 H   0  0  0  0  0  0  0  0  0  0  0  0
    7.7835    1.3157   22.5251 C   0  0  0  0  0  0  0  0  0  0  0  0
    8.5161    1.8906   23.1100 H   0  0  0  0  0  0  0  0  0  0  0  0
    7.2542    2.0596   21.9057 H   0  0  0  0  0  0  0  0  0  0  0  0
    8.4883    0.2661   21.6426 C   0  0  0  0  0  0  0  0  0  0  0  0
    9.1831   -0.3234   22.2586 H   0  0  0  0  0  0  0  0  0  0  0  0
    9.0857    0.7645   20.8734 H   0  0  0  0  0  0  0  0  0  0  0  0
    7.4868   -0.7099   20.9762 C   0  0  2  0  0  0  0  0  0  0  0  0
    8.0653   -1.4852   20.4511 H   0  0  0  0  0  0  0  0  0  0  0  0
    6.6562   -0.0094   19.8986 C   0  0  0  0  0  0  0  0  0  0  0  0
    7.1570    0.0629   18.5822 C   0  0  0  0  0  0  0  0  0  0  0  0
    8.1067   -0.4169   18.3440 H   0  0  0  0  0  0  0  0  0  0  0  0
    6.5558    0.6841   17.5597 N   0  0  0  0  0  0  0  0  0  0  0  0
    5.3947    1.2992   17.8274 C   0  0  0  0  0  0  0  0  0  0  0  0
    4.9187    1.7972   16.9848 H   0  0  0  0  0  0  0  0  0  0  0  0
    4.8068    1.3091   19.0965 C   0  0  0  0  0  0  0  0  0  0  0  0
    3.8766    1.8402   19.2474 H   0  0  0  0  0  0  0  0  0  0  0  0
    5.4431    0.6426   20.1499 C   0  0  0  0  0  0  0  0  0  0  0  0
    5.0200    0.6343   21.1570 H   0  0  0  0  0  0  0  0  0  0  0  0
    6.6530   -1.4328   22.0681 C   0  0  0  0  0  0  0  0  0  0  0  0
    7.1684   -2.3382   22.4105 H   0  0  0  0  0  0  0  0  0  0  0  0
    5.7184   -1.8110   21.6273 H   0  0  0  0  0  0  0  0  0  0  0  0
  1  2  1  0
  2  3  2  0
  3  4  1  0
  4  5  2  0
  5  6  1  0
  5  7  1  0
  7  8  1  0
  7  9  2  0
  9 10  1  0
 10 11  1  0
 10 12  1  0
 10 13  1  0
  9 14  1  0
 14 15  1  0
 15 16  1  0
 15 17  1  0
 15 18  1  0
 14 19  2  0
 19 20  1  0
  3 21  1  0
 21 22  1  0
 21 23  1  0
 21 24  1  0
 24 25  1  0
 24 26  1  0
 24 27  1  0
 27 28  1  6
 27 29  1  0
 29 30  2  0
 30 31  1  0
 30 32  1  0
 32 33  2  0
 33 34  1  0
 33 35  1  0
 35 36  1  0
 35 37  2  0
 37 38  1  0
 27 39  1  0
 39 40  1  0
 39 41  1  0
 39  2  1  0
 19  4  1  0
 37 29  1  0
M  END
>  <cnnaffinity>  (1) 
4.7557

>  <plip>  (1) 
-0.07142857142857142

>  <filename>  (1) 
[H][C]1=[C]([c]2[c]([H])[c]([H])[c]([C]([H])([H])[H])[c]([C]([H])([H])[H])[c]2[H])[C]([H])([H])[C]([H])([H])[C@]([H])([c]2[c]([H])[n][c]([H])[c]([H])[c]2[H])[C]1([H])[H]

>  <combo1>  (1) 
-0.42990824188619037

$$$$
