
     RDKit          3D

 28 29  0  0  0  0  0  0  0  0999 V2000
    5.4000   -2.7589   22.1448 H   0  0  0  0  0  0  0  0  0  0  0  0
    5.6641   -2.0963   21.4156 N   0  0  0  0  0  0  0  0  0  0  0  0
    6.8307   -1.6713   21.6522 C   0  0  0  0  0  0  0  0  0  0  0  0
    7.9341   -2.2079   22.9415 S   0  0  0  0  0  0  0  0  0  0  0  0
    9.1944   -1.1466   22.3622 C   0  0  0  0  0  0  0  0  0  0  0  0
   10.1755   -1.1484   22.8049 H   0  0  0  0  0  0  0  0  0  0  0  0
    8.7515   -0.4166   21.3220 C   0  0  0  0  0  0  0  0  0  0  0  0
    9.3675    0.5631   20.6489 O   0  0  0  0  0  0  0  0  0  0  0  0
   10.6032    1.0886   21.1730 C   0  0  0  0  0  0  0  0  0  0  0  0
   10.9397    1.7681   20.3840 H   0  0  0  0  0  0  0  0  0  0  0  0
   11.3321    0.2707   21.2620 H   0  0  0  0  0  0  0  0  0  0  0  0
   10.4990    1.8738   22.4915 C   0  0  0  0  0  0  0  0  0  0  0  0
   11.5252    2.0799   22.8271 H   0  0  0  0  0  0  0  0  0  0  0  0
   10.0571    1.2286   23.2650 H   0  0  0  0  0  0  0  0  0  0  0  0
    9.7577    3.1319   22.4523 N   0  0  0  0  0  0  0  0  0  0  0  0
   10.1801    3.8011   21.8075 H   0  0  0  0  0  0  0  0  0  0  0  0
    8.8257    2.9655   22.0755 H   0  0  0  0  0  0  0  0  0  0  0  0
    7.4663   -0.7022   20.8725 N   0  0  0  0  0  0  0  0  0  0  0  0
    6.7610   -0.0043   19.8165 C   0  0  0  0  0  0  0  0  0  0  0  0
    7.2466    0.0839   18.4897 C   0  0  0  0  0  0  0  0  0  0  0  0
    8.1807   -0.3972   18.2141 H   0  0  0  0  0  0  0  0  0  0  0  0
    6.5976    0.7165   17.5000 N   0  0  0  0  0  0  0  0  0  0  0  0
    5.4356    1.3208   17.7975 C   0  0  0  0  0  0  0  0  0  0  0  0
    4.9230    1.8346   16.9857 H   0  0  0  0  0  0  0  0  0  0  0  0
    4.8789    1.3007   19.0803 C   0  0  0  0  0  0  0  0  0  0  0  0
    3.9361    1.7988   19.2667 H   0  0  0  0  0  0  0  0  0  0  0  0
    5.5380    0.6132   20.1024 C   0  0  0  0  0  0  0  0  0  0  0  0
    5.1194    0.5202   21.1028 H   0  0  0  0  0  0  0  0  0  0  0  0
  1  2  1  0
  2  3  2  3
  3  4  1  0
  4  5  1  0
  5  6  1  0
  5  7  2  0
  7  8  1  0
  8  9  1  0
  9 10  1  0
  9 11  1  0
  9 12  1  0
 12 13  1  0
 12 14  1  0
 12 15  1  0
 15 16  1  0
 15 17  1  0
  7 18  1  0
 18 19  1  0
 19 20  2  0
 20 21  1  0
 20 22  1  0
 22 23  2  0
 23 24  1  0
 23 25  1  0
 25 26  1  0
 25 27  2  0
 27 28  1  0
 18  3  1  0
 27 19  1  0
M  END
>  <cnnaffinity>  (1) 
4.5981

>  <plip>  (1) 
-0.14285714285714285

>  <filename>  (1) 
[H][N]=[c]1[s][c]([H])[c]([O][C]([H])([H])[C]([H])([H])[N]([H])[H])[n]1-[c]1[c]([H])[n][c]([H])[c]([H])[c]1[H]

>  <combo1>  (1) 
-0.9266066138685688

$$$$
