
     RDKit          3D

 33 35  0  0  0  0  0  0  0  0999 V2000
    4.9717    1.8878   17.0293 H   0  0  0  0  0  0  0  0  0  0  0  0
    5.4385    1.3142   17.8277 C   0  0  0  0  0  0  0  0  0  0  0  0
    6.5979    0.7044   17.5257 N   0  0  0  0  0  0  0  0  0  0  0  0
    7.2201    0.0278   18.4998 C   0  0  0  0  0  0  0  0  0  0  0  0
    8.1536   -0.4647   18.2284 H   0  0  0  0  0  0  0  0  0  0  0  0
    6.7170   -0.0999   19.8169 C   0  0  0  0  0  0  0  0  0  0  0  0
    7.4176   -0.7981   20.8340 N   0  0  0  0  0  0  0  0  0  0  0  0
    6.8164   -1.6659   21.7479 C   0  0  0  0  0  0  0  0  0  0  0  0
    5.7608   -2.2410   21.6725 O   0  0  0  0  0  0  0  0  0  0  0  0
    7.7205   -1.8223   22.7732 N   0  0  0  0  0  0  0  0  0  0  0  0
    7.5620   -2.5007   23.4904 H   0  0  0  0  0  0  0  0  0  0  0  0
    8.9669   -1.3667   22.4726 C   0  0  0  0  0  0  0  0  0  0  0  0
    9.9646   -1.5898   23.1012 O   0  0  0  0  0  0  0  0  0  0  0  0
    8.8400   -0.5901   21.1791 C   0  0  2  0  0  0  0  0  0  0  0  0
    9.5032   -1.0488   20.4368 H   0  0  0  0  0  0  0  0  0  0  0  0
    9.3562    0.8030   21.4854 C   0  0  0  0  0  0  0  0  0  0  0  0
    8.5227    1.6782   22.0540 N   0  0  0  0  0  0  0  0  0  0  0  0
    9.0211    2.8600   22.4069 C   0  0  0  0  0  0  0  0  0  0  0  0
    8.2286    3.7809   22.9931 O   0  0  0  0  0  0  0  0  0  0  0  0
    6.8392    3.5061   23.1562 C   0  0  0  0  0  0  0  0  0  0  0  0
    6.3882    4.4398   23.5016 H   0  0  0  0  0  0  0  0  0  0  0  0
    6.3935    3.1980   22.2046 H   0  0  0  0  0  0  0  0  0  0  0  0
    6.6658    2.7117   23.8938 H   0  0  0  0  0  0  0  0  0  0  0  0
   10.3685    3.2281   22.2429 C   0  0  0  0  0  0  0  0  0  0  0  0
   10.6499    4.2371   22.5094 H   0  0  0  0  0  0  0  0  0  0  0  0
   11.2371    2.3009   21.6903 C   0  0  0  0  0  0  0  0  0  0  0  0
   12.2948    2.5227   21.5683 H   0  0  0  0  0  0  0  0  0  0  0  0
   10.7185    1.0563   21.3086 C   0  0  0  0  0  0  0  0  0  0  0  0
   11.3585    0.2805   20.9188 H   0  0  0  0  0  0  0  0  0  0  0  0
    5.4783    0.5003   20.0968 C   0  0  0  0  0  0  0  0  0  0  0  0
    5.0345    0.3778   21.0846 H   0  0  0  0  0  0  0  0  0  0  0  0
    4.8422    1.2377   19.0918 C   0  0  0  0  0  0  0  0  0  0  0  0
    3.9076    1.7595   19.2824 H   0  0  0  0  0  0  0  0  0  0  0  0
  1  2  1  0
  2  3  2  0
  3  4  1  0
  4  5  1  0
  4  6  2  0
  6  7  1  0
  7  8  1  0
  8  9  2  0
  8 10  1  0
 10 11  1  0
 10 12  1  0
 12 13  2  0
 12 14  1  0
 14 15  1  6
 14 16  1  0
 16 17  2  0
 17 18  1  0
 18 19  1  0
 19 20  1  0
 20 21  1  0
 20 22  1  0
 20 23  1  0
 18 24  2  0
 24 25  1  0
 24 26  1  0
 26 27  1  0
 26 28  2  0
 28 29  1  0
  6 30  1  0
 30 31  1  0
 30 32  2  0
 32 33  1  0
 32  2  1  0
 14  7  1  0
 28 16  1  0
M  END
>  <cnnaffinity>  (1) 
4.82935

>  <plip>  (1) 
-0.10714285714285714

>  <filename>  (1) 
[H][c]1[n][c]([H])[c]([N]2[C](=[O])[N]([H])[C](=[O])[C@]2([H])[c]2[n][c]([O][C]([H])([H])[H])[c]([H])[c]([H])[c]2[H])[c]([H])[c]1[H]

>  <combo1>  (1) 
-0.6067251278314508

$$$$
