
     RDKit          3D

 40 41  0  0  0  0  0  0  0  0999 V2000
    5.8311   -6.3162   19.2462 C   0  0  0  0  0  0  0  0  0  0  0  0
    6.4366   -5.5508   20.3931 C   0  0  0  0  0  0  0  0  0  0  0  0
    6.0278   -4.3396   20.7784 C   0  0  0  0  0  0  0  0  0  0  0  0
    6.6020   -3.5972   21.9619 C   0  0  0  0  0  0  0  0  0  0  0  0
    8.0027   -3.0180   21.6646 C   0  0  0  0  0  0  0  0  0  0  0  0
    7.9232   -1.9258   20.6680 N   0  0  0  0  0  4  0  0  0  0  0  0
    7.3135   -0.6237   21.1345 C   0  0  0  0  0  0  0  0  0  0  0  0
    6.5957   -0.0259   19.9505 C   0  0  0  0  0  0  0  0  0  0  0  0
    5.3732    0.6455   20.1205 C   0  0  0  0  0  0  0  0  0  0  0  0
    4.8048    1.3044   19.0294 C   0  0  0  0  0  0  0  0  0  0  0  0
    5.4586    1.2595   17.7931 C   0  0  0  0  0  0  0  0  0  0  0  0
    6.5895    0.5737   17.5925 N   0  0  0  0  0  0  0  0  0  0  0  0
    7.1221   -0.0637   18.6468 C   0  0  0  0  0  0  0  0  0  0  0  0
    8.0360   -0.6085   18.4208 H   0  0  0  0  0  0  0  0  0  0  0  0
    5.0525    1.7888   16.9312 H   0  0  0  0  0  0  0  0  0  0  0  0
    3.8805    1.8583   19.1238 H   0  0  0  0  0  0  0  0  0  0  0  0
    4.8640    0.6471   21.0913 H   0  0  0  0  0  0  0  0  0  0  0  0
    8.4235    0.2097   21.8027 C   0  0  0  0  0  0  0  0  0  0  0  0
    8.0572    1.6092   22.3433 C   0  0  0  0  0  0  0  0  0  0  0  0
    9.1617    2.2333   21.4541 C   0  0  0  0  0  0  0  0  0  0  0  0
    9.5588    0.8289   20.9388 C   0  0  0  0  0  0  0  0  0  0  0  0
    9.4553    0.7016   19.8554 H   0  0  0  0  0  0  0  0  0  0  0  0
   10.5575    0.4845   21.2255 H   0  0  0  0  0  0  0  0  0  0  0  0
    9.9381    2.8110   21.9674 H   0  0  0  0  0  0  0  0  0  0  0  0
    8.7531    2.8784   20.6744 H   0  0  0  0  0  0  0  0  0  0  0  0
    7.0426    1.9514   22.1083 H   0  0  0  0  0  0  0  0  0  0  0  0
    8.1957    1.7259   23.4223 H   0  0  0  0  0  0  0  0  0  0  0  0
    8.8443   -0.4292   22.5927 H   0  0  0  0  0  0  0  0  0  0  0  0
    6.5564   -0.8133   21.9069 H   0  0  0  0  0  0  0  0  0  0  0  0
    8.8698   -1.6334   20.3271 H   0  0  0  0  0  0  0  0  0  0  0  0
    7.3459   -2.2442   19.8540 H   0  0  0  0  0  0  0  0  0  0  0  0
    8.6483   -3.8198   21.2855 H   0  0  0  0  0  0  0  0  0  0  0  0
    8.4483   -2.6474   22.6010 H   0  0  0  0  0  0  0  0  0  0  0  0
    5.9269   -2.7822   22.2544 H   0  0  0  0  0  0  0  0  0  0  0  0
    6.6941   -4.2694   22.8240 H   0  0  0  0  0  0  0  0  0  0  0  0
    5.3063   -3.7963   20.1625 H   0  0  0  0  0  0  0  0  0  0  0  0
    7.2186   -6.0525   20.9791 H   0  0  0  0  0  0  0  0  0  0  0  0
    5.2031   -7.1375   19.6172 H   0  0  0  0  0  0  0  0  0  0  0  0
    6.5688   -6.7529   18.5646 H   0  0  0  0  0  0  0  0  0  0  0  0
    5.1855   -5.6782   18.6474 H   0  0  0  0  0  0  0  0  0  0  0  0
  1  2  1  0
  2  3  2  3
  3  4  1  0
  4  5  1  0
  5  6  1  0
  6  7  1  0
  7  8  1  0
  8  9  2  0
  9 10  1  0
 10 11  2  0
 11 12  1  0
 12 13  2  0
 13 14  1  0
 11 15  1  0
 10 16  1  0
  9 17  1  0
  7 18  1  0
 18 19  1  0
 19 20  1  0
 20 21  1  0
 21 22  1  0
 21 23  1  0
 20 24  1  0
 20 25  1  0
 19 26  1  0
 19 27  1  0
 18 28  1  0
  7 29  1  0
  6 30  1  0
  6 31  1  0
  5 32  1  0
  5 33  1  0
  4 34  1  0
  4 35  1  0
  3 36  1  0
  2 37  1  0
  1 38  1  0
  1 39  1  0
  1 40  1  0
 13  8  1  0
 21 18  1  0
M  CHG  1   6   1
M  END
>  <cnnaffinity>  (1) 
4.35266

>  <plip>  (1) 
-0.03225806451612903

>  <filename>  (1) 
[H][C](=[C]([H])[C]([H])([H])[C]([H])([H])[N+]([H])([H])[C]([H])([c]1[c]([H])[n][c]([H])[c]([H])[c]1[H])[C]1([H])[C]([H])([H])[C]([H])([H])[C]1([H])[H])[C]([H])([H])[H]

>  <combo1>  (1) 
-0.20229161836129672

$$$$
