
     RDKit          3D

 34 35  0  0  0  0  0  0  0  0999 V2000
    8.9056   -1.6311   23.6907 O   0  0  0  0  0  0  0  0  0  0  0  0
   10.0513   -2.2440   23.1311 C   0  0  0  0  0  0  0  0  0  0  0  0
   10.7196   -1.2085   22.2568 C   0  0  0  0  0  0  0  0  0  0  0  0
    9.9176   -0.7690   21.0303 C   0  0  0  0  0  0  0  0  0  0  0  0
    8.6568   -0.0652   21.2817 N   0  0  0  0  0  0  0  0  0  0  0  0
    7.3618   -0.6937   21.0421 C   0  0  0  0  0  0  0  0  0  0  0  0
    6.5879    0.0051   19.9405 C   0  0  0  0  0  0  0  0  0  0  0  0
    5.3778    0.6846   20.1479 C   0  0  0  0  0  0  0  0  0  0  0  0
    4.7697    1.3328   19.0684 C   0  0  0  0  0  0  0  0  0  0  0  0
    5.4011    1.3024   17.8237 C   0  0  0  0  0  0  0  0  0  0  0  0
    6.5630    0.6712   17.6053 N   0  0  0  0  0  0  0  0  0  0  0  0
    7.1365    0.0585   18.6488 C   0  0  0  0  0  0  0  0  0  0  0  0
    8.0922   -0.4214   18.4328 H   0  0  0  0  0  0  0  0  0  0  0  0
    4.9601    1.8122   16.9674 H   0  0  0  0  0  0  0  0  0  0  0  0
    3.8371    1.8732   19.1792 H   0  0  0  0  0  0  0  0  0  0  0  0
    4.9265    0.7468   21.1424 H   0  0  0  0  0  0  0  0  0  0  0  0
    7.5393   -1.7510   20.8047 H   0  0  0  0  0  0  0  0  0  0  0  0
    6.7878   -0.7045   21.9776 H   0  0  0  0  0  0  0  0  0  0  0  0
    8.7097    1.1964   21.8284 C   0  0  0  0  0  0  0  0  0  0  0  0
    7.6224    1.8458   22.5176 C   0  0  0  0  0  0  0  0  0  0  0  0
    7.6995    3.1018   22.9928 N   0  0  0  0  0  0  0  0  0  0  0  0
    8.8624    3.7264   22.8021 C   0  0  0  0  0  0  0  0  0  0  0  0
    9.0180    5.3588   23.3563 Cl  0  0  0  0  0  0  0  0  0  0  0  0
    9.9549    3.0990   22.1771 C   0  0  0  0  0  0  0  0  0  0  0  0
    9.8858    1.8529   21.6966 N   0  0  0  0  0  0  0  0  0  0  0  0
   10.9069    3.6040   22.0688 H   0  0  0  0  0  0  0  0  0  0  0  0
    6.6954    1.3131   22.6861 H   0  0  0  0  0  0  0  0  0  0  0  0
   10.5639   -0.0824   20.4982 H   0  0  0  0  0  0  0  0  0  0  0  0
    9.7240   -1.6257   20.3754 H   0  0  0  0  0  0  0  0  0  0  0  0
   11.6754   -1.5965   21.8796 H   0  0  0  0  0  0  0  0  0  0  0  0
   10.9660   -0.3333   22.8682 H   0  0  0  0  0  0  0  0  0  0  0  0
   10.7608   -2.5775   23.9083 H   0  0  0  0  0  0  0  0  0  0  0  0
    9.7859   -3.1309   22.5276 H   0  0  0  0  0  0  0  0  0  0  0  0
    8.4872   -2.2327   24.3146 H   0  0  0  0  0  0  0  0  0  0  0  0
  1  2  1  0
  2  3  1  0
  3  4  1  0
  4  5  1  0
  5  6  1  0
  6  7  1  0
  7  8  2  0
  8  9  1  0
  9 10  2  0
 10 11  1  0
 11 12  2  0
 12 13  1  0
 10 14  1  0
  9 15  1  0
  8 16  1  0
  6 17  1  0
  6 18  1  0
  5 19  1  0
 19 20  2  0
 20 21  1  0
 21 22  2  0
 22 23  1  0
 22 24  1  0
 24 25  2  0
 24 26  1  0
 20 27  1  0
  4 28  1  0
  4 29  1  0
  3 30  1  0
  3 31  1  0
  2 32  1  0
  2 33  1  0
  1 34  1  0
 12  7  1  0
 25 19  1  0
M  END
>  <cnnaffinity>  (1) 
4.25158

>  <plip>  (1) 
-0.03571428571428571

>  <filename>  (1) 
[H][O][C]([H])([H])[C]([H])([H])[C]([H])([H])[N]([c]1[n][c]([H])[c]([Cl])[n][c]1[H])[C]([H])([H])[c]1[c]([H])[n][c]([H])[c]([H])[c]1[H]

>  <combo1>  (1) 
-0.1815796185699646

$$$$
