
     RDKit          3D

 19 20  0  0  0  0  0  0  0  0999 V2000
    5.6720   -0.8766   24.2555 H   0  0  0  0  0  0  0  0  0  0  0  0
    5.9433   -0.9874   25.2281 N   0  0  0  0  0  0  0  0  0  0  0  0
    6.9403   -1.6824   25.3804 N   0  0  0  0  0  4  0  0  0  0  0  0
    7.8730   -2.2755   25.5725 N   0  0  0  0  0  0  0  0  0  0  0  0
    7.7792   -1.4121   22.7882 N   0  0  0  0  0  0  0  0  0  0  0  0
    8.7473   -1.7750   22.0042 N   0  0  0  0  0  0  0  0  0  0  0  0
    8.5205   -1.3204   20.7640 N   0  0  0  0  0  0  0  0  0  0  0  0
    7.3691   -0.6746   20.8608 C   0  0  0  0  0  0  0  0  0  0  0  0
    6.6517    0.0264   19.7821 C   0  0  0  0  0  0  0  0  0  0  0  0
    7.1563    0.0733   18.4708 C   0  0  0  0  0  0  0  0  0  0  0  0
    8.0891   -0.4320   18.2107 H   0  0  0  0  0  0  0  0  0  0  0  0
    6.5386    0.7278   17.4799 N   0  0  0  0  0  0  0  0  0  0  0  0
    5.3923    1.3743   17.7528 C   0  0  0  0  0  0  0  0  0  0  0  0
    4.9004    1.9159   16.9361 H   0  0  0  0  0  0  0  0  0  0  0  0
    4.8114    1.3760   19.0225 C   0  0  0  0  0  0  0  0  0  0  0  0
    3.8887    1.9182   19.2024 H   0  0  0  0  0  0  0  0  0  0  0  0
    5.4475    0.6850   20.0527 C   0  0  0  0  0  0  0  0  0  0  0  0
    5.0273    0.6572   21.0567 H   0  0  0  0  0  0  0  0  0  0  0  0
    6.8900   -0.7277   22.1143 N   0  0  0  0  0  0  0  0  0  0  0  0
  1  2  1  0
  2  3  2  0
  3  4  2  0
  4  5  1  0
  5  6  1  0
  6  7  2  0
  7  8  1  0
  8  9  1  0
  9 10  2  0
 10 11  1  0
 10 12  1  0
 12 13  2  0
 13 14  1  0
 13 15  1  0
 15 16  1  0
 15 17  2  0
 17 18  1  0
  8 19  2  0
 19  5  1  0
 17  9  1  0
M  CHG  1   3   1
M  END
>  <cnnaffinity>  (1) 
4.46179

>  <plip>  (1) 
-0.06896551724137931

>  <filename>  (1) 
[H][N]=[N+]=[N][n]1[n][n][c](-[c]2[c]([H])[n][c]([H])[c]([H])[c]2[H])[n]1

>  <combo1>  (1) 
-0.5422330333654288

$$$$
