
     RDKit          3D

 30 32  0  0  0  0  0  0  0  0999 V2000
    8.7620   -0.0834   21.2824 C   0  0  0  0  0  0  0  0  0  0  0  0
    7.4031   -0.7558   21.0355 C   0  0  2  0  0  0  0  0  0  0  0  0
    7.5470   -2.1717   20.7645 N   0  0  0  0  0  0  0  0  0  0  0  0
    7.8235   -3.0862   21.7005 C   0  0  0  0  0  0  0  0  0  0  0  0
    7.9756   -4.3477   21.2030 N   0  0  0  0  0  0  0  0  0  0  0  0
    8.2253   -5.3041   22.0749 C   0  0  0  0  0  0  0  0  0  0  0  0
    8.3427   -5.0268   23.4542 C   0  0  0  0  0  0  0  0  0  0  0  0
    8.5934   -5.7283   24.6029 N   0  0  0  0  0  0  0  0  0  0  0  0
    8.5784   -4.9262   25.6843 N   0  0  0  0  0  0  0  0  0  0  0  0
    8.3230   -3.7036   25.2578 C   0  0  0  0  0  0  0  0  0  0  0  0
    8.1609   -3.6800   23.8376 C   0  0  0  0  0  0  0  0  0  0  0  0
    7.9027   -2.6892   22.9552 N   0  0  0  0  0  0  0  0  0  0  0  0
    8.2623   -2.8902   25.9706 H   0  0  0  0  0  0  0  0  0  0  0  0
    8.7852   -6.7099   24.7693 H   0  0  0  0  0  0  0  0  0  0  0  0
    8.3545   -6.3205   21.7022 H   0  0  0  0  0  0  0  0  0  0  0  0
    7.4930   -2.6003   19.8624 H   0  0  0  0  0  0  0  0  0  0  0  0
    6.6413   -0.0725   19.9192 C   0  0  0  0  0  0  0  0  0  0  0  0
    5.4379    0.6114   20.1591 C   0  0  0  0  0  0  0  0  0  0  0  0
    4.8151    1.2908   19.1104 C   0  0  0  0  0  0  0  0  0  0  0  0
    5.4186    1.2722   17.8504 C   0  0  0  0  0  0  0  0  0  0  0  0
    6.5734    0.6397   17.6005 N   0  0  0  0  0  0  0  0  0  0  0  0
    7.1630   -0.0060   18.6189 C   0  0  0  0  0  0  0  0  0  0  0  0
    8.1266   -0.4533   18.3664 H   0  0  0  0  0  0  0  0  0  0  0  0
    4.9552    1.7806   17.0059 H   0  0  0  0  0  0  0  0  0  0  0  0
    3.8901    1.8388   19.2563 H   0  0  0  0  0  0  0  0  0  0  0  0
    5.0082    0.6298   21.1626 H   0  0  0  0  0  0  0  0  0  0  0  0
    6.8151   -0.6564   21.9631 H   0  0  0  0  0  0  0  0  0  0  0  0
    8.6162    0.9890   21.4447 H   0  0  0  0  0  0  0  0  0  0  0  0
    9.4251   -0.2171   20.4200 H   0  0  0  0  0  0  0  0  0  0  0  0
    9.2485   -0.5136   22.1642 H   0  0  0  0  0  0  0  0  0  0  0  0
  1  2  1  0
  2  3  1  0
  3  4  1  0
  4  5  2  0
  5  6  1  0
  6  7  2  0
  7  8  1  0
  8  9  1  0
  9 10  2  0
 10 11  1  0
 11 12  2  0
 10 13  1  0
  8 14  1  0
  6 15  1  0
  3 16  1  0
  2 17  1  0
 17 18  2  0
 18 19  1  0
 19 20  2  0
 20 21  1  0
 21 22  2  0
 22 23  1  0
 20 24  1  0
 19 25  1  0
 18 26  1  0
  2 27  1  1
  1 28  1  0
  1 29  1  0
  1 30  1  0
 12  4  1  0
 22 17  1  0
 11  7  1  0
M  END
>  <cnnaffinity>  (1) 
5.28835

>  <plip>  (1) 
-0.13793103448275862

>  <filename>  (1) 
[H][c]1[n][c]([H])[c]([C@@]([H])([N]([H])[c]2[n][c]([H])[c]3[c]([n]2)[c]([H])[n][n]3[H])[C]([H])([H])[H])[c]([H])[c]1[H]

>  <combo1>  (1) 
-1.0119554198844305

$$$$
