
     RDKit          3D

 43 45  0  0  0  0  0  0  0  0999 V2000
   10.6318    2.9136   22.5817 C   0  0  0  0  0  0  0  0  0  0  0  0
   11.3204    2.2291   23.7488 C   0  0  0  0  0  0  0  0  0  0  0  0
   11.7729    3.2202   24.5820 F   0  0  0  0  0  0  0  0  0  0  0  0
   12.4378    1.6167   23.2517 F   0  0  0  0  0  0  0  0  0  0  0  0
   10.4644    1.2162   24.5634 C   0  0  0  0  0  0  0  0  0  0  0  0
    9.7096    1.5988   25.6853 C   0  0  0  0  0  0  0  0  0  0  0  0
    8.9254    0.6349   26.3287 C   0  0  0  0  0  0  0  0  0  0  0  0
    8.9047   -0.6706   25.8342 C   0  0  0  0  0  0  0  0  0  0  0  0
    9.6735   -0.9671   24.6952 C   0  0  0  0  0  0  0  0  0  0  0  0
    9.6839   -2.3461   24.0491 C   0  0  0  0  0  0  0  0  0  0  0  0
    8.9003   -2.5332   22.7099 N   0  0  0  0  0  4  0  0  0  0  0  0
    9.5148   -1.6848   21.5734 C   0  0  0  0  0  0  0  0  0  0  0  0
    8.6884   -0.4212   21.3020 C   0  0  0  0  0  0  0  0  0  0  0  0
    7.3204   -0.7758   20.8678 N   0  0  0  0  0  0  0  0  0  0  0  0
    6.6534   -0.0296   19.8262 C   0  0  0  0  0  0  0  0  0  0  0  0
    5.4301    0.6233   20.0635 C   0  0  0  0  0  0  0  0  0  0  0  0
    4.8340    1.3398   19.0169 C   0  0  0  0  0  0  0  0  0  0  0  0
    5.4594    1.3690   17.7659 C   0  0  0  0  0  0  0  0  0  0  0  0
    6.6191    0.7400   17.5160 N   0  0  0  0  0  0  0  0  0  0  0  0
    7.1967    0.0759   18.5252 C   0  0  0  0  0  0  0  0  0  0  0  0
    8.1296   -0.4391   18.2972 H   0  0  0  0  0  0  0  0  0  0  0  0
    5.0101    1.9040   16.9305 H   0  0  0  0  0  0  0  0  0  0  0  0
    3.8967    1.8701   19.1525 H   0  0  0  0  0  0  0  0  0  0  0  0
    4.9570    0.5637   21.0422 H   0  0  0  0  0  0  0  0  0  0  0  0
    6.6202   -1.7082   21.6311 C   0  0  0  0  0  0  0  0  0  0  0  0
    5.4981   -2.1054   21.3802 O   0  0  0  0  0  0  0  0  0  0  0  0
    7.3753   -2.2563   22.8674 C   0  0  0  0  0  0  0  0  0  0  0  0
    6.8516   -3.1593   23.1668 H   0  0  0  0  0  0  0  0  0  0  0  0
    7.2446   -1.5060   23.6501 H   0  0  0  0  0  0  0  0  0  0  0  0
    8.6556    0.1741   22.2276 H   0  0  0  0  0  0  0  0  0  0  0  0
    9.1836    0.1759   20.5351 H   0  0  0  0  0  0  0  0  0  0  0  0
   10.5192   -1.4060   21.8964 H   0  0  0  0  0  0  0  0  0  0  0  0
    9.5891   -2.3089   20.6802 H   0  0  0  0  0  0  0  0  0  0  0  0
    9.0068   -3.5399   22.4421 H   0  0  0  0  0  0  0  0  0  0  0  0
   10.7274   -2.5856   23.8339 H   0  0  0  0  0  0  0  0  0  0  0  0
    9.2993   -3.0718   24.7599 H   0  0  0  0  0  0  0  0  0  0  0  0
   10.4516   -0.0456   24.1103 N   0  0  0  0  0  0  0  0  0  0  0  0
    8.2847   -1.4408   26.2857 H   0  0  0  0  0  0  0  0  0  0  0  0
    8.3489    0.8957   27.2172 H   0  0  0  0  0  0  0  0  0  0  0  0
    9.7347    2.6133   26.0620 H   0  0  0  0  0  0  0  0  0  0  0  0
   11.3697    3.5598   22.0962 H   0  0  0  0  0  0  0  0  0  0  0  0
    9.7865    3.5261   22.9042 H   0  0  0  0  0  0  0  0  0  0  0  0
   10.2990    2.1716   21.8522 H   0  0  0  0  0  0  0  0  0  0  0  0
  1  2  1  0
  2  3  1  0
  2  4  1  0
  2  5  1  0
  5  6  2  0
  6  7  1  0
  7  8  2  0
  8  9  1  0
  9 10  1  0
 10 11  1  0
 11 12  1  0
 12 13  1  0
 13 14  1  0
 14 15  1  0
 15 16  2  0
 16 17  1  0
 17 18  2  0
 18 19  1  0
 19 20  2  0
 20 21  1  0
 18 22  1  0
 17 23  1  0
 16 24  1  0
 14 25  1  0
 25 26  2  0
 25 27  1  0
 27 28  1  0
 27 29  1  0
 13 30  1  0
 13 31  1  0
 12 32  1  0
 12 33  1  0
 11 34  1  0
 10 35  1  0
 10 36  1  0
  9 37  2  0
  8 38  1  0
  7 39  1  0
  6 40  1  0
  1 41  1  0
  1 42  1  0
  1 43  1  0
 37  5  1  0
 27 11  1  0
 20 15  1  0
M  CHG  1  11   1
M  END
>  <cnnaffinity>  (1) 
5.50333

>  <plip>  (1) 
-0.10714285714285714

>  <filename>  (1) 
[H][c]1[n][c]([H])[c]([N]2[C](=[O])[C]([H])([H])[N+]([H])([C]([H])([H])[c]3[n][c]([C]([F])([F])[C]([H])([H])[H])[c]([H])[c]([H])[c]3[H])[C]([H])([H])[C]2([H])[H])[c]([H])[c]1[H]

>  <combo1>  (1) 
-0.5895917951056215

$$$$
