
     RDKit          3D

 35 37  0  0  0  0  0  0  0  0999 V2000
    7.8140    0.2502   22.1146 C   0  0  0  0  0  0  0  0  0  0  0  0
    7.4079   -0.7206   21.0029 C   0  0  1  0  0  0  0  0  0  0  0  0
    6.6125   -1.8250   21.5337 N   0  0  0  0  0  0  0  0  0  0  0  0
    7.1708   -2.8588   22.2213 C   0  0  0  0  0  0  0  0  0  0  0  0
    8.3812   -2.8847   22.4187 O   0  0  0  0  0  0  0  0  0  0  0  0
    6.2202   -3.9762   22.7563 C   0  0  0  0  0  0  0  0  0  0  0  0
    5.2118   -4.3517   21.9739 N   0  0  0  0  0  0  0  0  0  0  0  0
    4.4283   -5.3961   22.3462 C   0  0  0  0  0  0  0  0  0  0  0  0
    4.5840   -6.0751   23.5240 C   0  0  0  0  0  0  0  0  0  0  0  0
    5.6103   -5.6823   24.4061 C   0  0  0  0  0  0  0  0  0  0  0  0
    5.8096   -6.3219   25.6484 C   0  0  0  0  0  0  0  0  0  0  0  0
    6.8040   -5.8713   26.4743 C   0  0  0  0  0  0  0  0  0  0  0  0
    7.6129   -4.8230   26.1755 N   0  0  0  0  0  0  0  0  0  0  0  0
    7.4387   -4.2184   25.0145 C   0  0  0  0  0  0  0  0  0  0  0  0
    6.4574   -4.5985   24.0442 C   0  0  0  0  0  0  0  0  0  0  0  0
    8.0906   -3.3738   24.7940 H   0  0  0  0  0  0  0  0  0  0  0  0
    6.9734   -6.3502   27.4366 H   0  0  0  0  0  0  0  0  0  0  0  0
    5.1722   -7.1524   25.9318 H   0  0  0  0  0  0  0  0  0  0  0  0
    3.9241   -6.8891   23.7960 H   0  0  0  0  0  0  0  0  0  0  0  0
    3.6368   -5.6606   21.6524 H   0  0  0  0  0  0  0  0  0  0  0  0
    5.6186   -1.8215   21.3768 H   0  0  0  0  0  0  0  0  0  0  0  0
    6.6476   -0.0194   19.9077 C   0  0  0  0  0  0  0  0  0  0  0  0
    5.4384    0.6435   20.1570 C   0  0  0  0  0  0  0  0  0  0  0  0
    4.8069    1.3103   19.1073 C   0  0  0  0  0  0  0  0  0  0  0  0
    5.4031    1.2906   17.8419 C   0  0  0  0  0  0  0  0  0  0  0  0
    6.5683    0.6776   17.5846 N   0  0  0  0  0  0  0  0  0  0  0  0
    7.1653    0.0528   18.6078 C   0  0  0  0  0  0  0  0  0  0  0  0
    8.1170   -0.4267   18.3770 H   0  0  0  0  0  0  0  0  0  0  0  0
    4.9143    1.7778   17.0001 H   0  0  0  0  0  0  0  0  0  0  0  0
    3.8751    1.8431   19.2615 H   0  0  0  0  0  0  0  0  0  0  0  0
    5.0011    0.6393   21.1605 H   0  0  0  0  0  0  0  0  0  0  0  0
    8.3212   -1.1536   20.5775 H   0  0  0  0  0  0  0  0  0  0  0  0
    8.3638    1.0952   21.6899 H   0  0  0  0  0  0  0  0  0  0  0  0
    6.9281    0.6368   22.6308 H   0  0  0  0  0  0  0  0  0  0  0  0
    8.4442   -0.2681   22.8408 H   0  0  0  0  0  0  0  0  0  0  0  0
  1  2  1  0
  2  3  1  0
  3  4  1  0
  4  5  2  0
  4  6  1  0
  6  7  2  0
  7  8  1  0
  8  9  2  0
  9 10  1  0
 10 11  2  0
 11 12  1  0
 12 13  2  0
 13 14  1  0
 14 15  2  0
 14 16  1  0
 12 17  1  0
 11 18  1  0
  9 19  1  0
  8 20  1  0
  3 21  1  0
  2 22  1  0
 22 23  2  0
 23 24  1  0
 24 25  2  0
 25 26  1  0
 26 27  2  0
 27 28  1  0
 25 29  1  0
 24 30  1  0
 23 31  1  0
  2 32  1  6
  1 33  1  0
  1 34  1  0
  1 35  1  0
 15  6  1  0
 27 22  1  0
 15 10  1  0
M  END
>  <cnnaffinity>  (1) 
5.2604

>  <plip>  (1) 
-0.13793103448275862

>  <filename>  (1) 
[H][c]1[n][c]([H])[c]([C@]([H])([N]([H])[C](=[O])[c]2[n][c]([H])[c]([H])[c]3[c]([H])[c]([H])[n][c]([H])[c]23)[C]([H])([H])[H])[c]([H])[c]1[H]

>  <combo1>  (1) 
-0.8690062384864916

$$$$
