
     RDKit          3D

 49 52  0  0  0  0  0  0  0  0999 V2000
    7.4851    0.5599   30.5382 F   0  0  0  0  0  0  0  0  0  0  0  0
    7.4648    0.7401   29.2099 C   0  0  0  0  0  0  0  0  0  0  0  0
    6.3879    1.4074   28.6341 C   0  0  0  0  0  0  0  0  0  0  0  0
    6.3912    1.6181   27.2593 C   0  0  0  0  0  0  0  0  0  0  0  0
    7.4645    1.1734   26.4618 C   0  0  0  0  0  0  0  0  0  0  0  0
    7.5252    1.4586   25.0267 C   0  0  0  0  0  0  0  0  0  0  0  0
    8.4941    1.1920   24.1947 N   0  0  0  0  0  0  0  0  0  0  0  0
    7.9955    1.6717   23.0196 C   0  0  0  0  0  0  0  0  0  0  0  0
    8.7132    1.4706   21.6945 C   0  0  0  0  0  0  0  0  0  0  0  0
    8.7136    0.0299   21.2435 N   0  0  0  0  0  4  0  0  0  0  0  0
    7.3048   -0.6026   21.1378 C   0  0  0  0  0  0  0  0  0  0  0  0
    7.5638   -2.0919   20.9826 C   0  0  0  0  0  0  0  0  0  0  0  0
    6.3829   -3.0247   20.6986 C   0  0  0  0  0  0  0  0  0  0  0  0
    6.7650   -4.5069   20.8518 C   0  0  0  0  0  0  0  0  0  0  0  0
    5.6896   -5.1941   20.0340 C   0  0  0  0  0  0  0  0  0  0  0  0
    5.4164   -4.3210   18.9510 O   0  0  0  0  0  0  0  0  0  0  0  0
    5.7783   -2.9847   19.2714 C   0  0  0  0  0  0  0  0  0  0  0  0
    6.4665   -2.6305   18.4892 H   0  0  0  0  0  0  0  0  0  0  0  0
    4.9086   -2.3153   19.2012 H   0  0  0  0  0  0  0  0  0  0  0  0
    5.9667   -6.1730   19.6259 H   0  0  0  0  0  0  0  0  0  0  0  0
    4.8049   -5.3249   20.6712 H   0  0  0  0  0  0  0  0  0  0  0  0
    7.7541   -4.7077   20.4277 H   0  0  0  0  0  0  0  0  0  0  0  0
    6.7678   -4.8307   21.8993 H   0  0  0  0  0  0  0  0  0  0  0  0
    5.5593   -2.8162   21.4033 H   0  0  0  0  0  0  0  0  0  0  0  0
    8.0754   -2.4272   21.8941 H   0  0  0  0  0  0  0  0  0  0  0  0
    8.3097   -2.1570   20.1927 H   0  0  0  0  0  0  0  0  0  0  0  0
    6.5839    0.0754   20.0095 C   0  0  0  0  0  0  0  0  0  0  0  0
    5.3597    0.7340   20.1838 C   0  0  0  0  0  0  0  0  0  0  0  0
    4.7738    1.3597   19.0795 C   0  0  0  0  0  0  0  0  0  0  0  0
    5.4379    1.3190   17.8493 C   0  0  0  0  0  0  0  0  0  0  0  0
    6.6133    0.6985   17.6698 N   0  0  0  0  0  0  0  0  0  0  0  0
    7.1652    0.1066   18.7350 C   0  0  0  0  0  0  0  0  0  0  0  0
    8.1220   -0.3870   18.5540 H   0  0  0  0  0  0  0  0  0  0  0  0
    5.0029    1.7950   16.9710 H   0  0  0  0  0  0  0  0  0  0  0  0
    3.8271    1.8813   19.1573 H   0  0  0  0  0  0  0  0  0  0  0  0
    4.8922    0.7773   21.1711 H   0  0  0  0  0  0  0  0  0  0  0  0
    6.7637   -0.4143   22.0685 H   0  0  0  0  0  0  0  0  0  0  0  0
    9.1361   -0.0705   20.2942 H   0  0  0  0  0  0  0  0  0  0  0  0
    9.2828   -0.5333   21.9226 H   0  0  0  0  0  0  0  0  0  0  0  0
    8.1665    2.0784   20.9739 H   0  0  0  0  0  0  0  0  0  0  0  0
    9.7333    1.8485   21.7985 H   0  0  0  0  0  0  0  0  0  0  0  0
    6.8134    2.2147   23.0958 N   0  0  0  0  0  0  0  0  0  0  0  0
    6.4910    2.0704   24.4387 O   0  0  0  0  0  0  0  0  0  0  0  0
    8.5099    0.4759   27.0867 C   0  0  0  0  0  0  0  0  0  0  0  0
    9.5441    0.0124   26.3837 F   0  0  0  0  0  0  0  0  0  0  0  0
    8.5208    0.2469   28.4569 C   0  0  0  0  0  0  0  0  0  0  0  0
    9.3588   -0.2592   28.9237 H   0  0  0  0  0  0  0  0  0  0  0  0
    5.5550    2.1450   26.7984 H   0  0  0  0  0  0  0  0  0  0  0  0
    5.5779    1.7547   29.2645 H   0  0  0  0  0  0  0  0  0  0  0  0
  1  2  1  0
  2  3  2  0
  3  4  1  0
  4  5  2  0
  5  6  1  0
  6  7  2  0
  7  8  1  0
  8  9  1  0
  9 10  1  0
 10 11  1  0
 11 12  1  0
 12 13  1  0
 13 14  1  0
 14 15  1  0
 15 16  1  0
 16 17  1  0
 17 18  1  0
 17 19  1  0
 15 20  1  0
 15 21  1  0
 14 22  1  0
 14 23  1  0
 13 24  1  0
 12 25  1  0
 12 26  1  0
 11 27  1  0
 27 28  2  0
 28 29  1  0
 29 30  2  0
 30 31  1  0
 31 32  2  0
 32 33  1  0
 30 34  1  0
 29 35  1  0
 28 36  1  0
 11 37  1  0
 10 38  1  0
 10 39  1  0
  9 40  1  0
  9 41  1  0
  8 42  2  0
 42 43  1  0
  5 44  1  0
 44 45  1  0
 44 46  2  0
 46 47  1  0
  4 48  1  0
  3 49  1  0
 46  2  1  0
 43  6  1  0
 17 13  1  0
 32 27  1  0
M  CHG  1  10   1
M  END
>  <cnnaffinity>  (1) 
5.76267

>  <plip>  (1) 
-0.13793103448275862

>  <filename>  (1) 
[H][c]1[n][c]([H])[c]([C]([H])([C]([H])([H])[C]2([H])[C]([H])([H])[O][C]([H])([H])[C]2([H])[H])[N+]([H])([H])[C]([H])([H])[c]2[n][o][c](-[c]3[c]([H])[c]([H])[c]([F])[c]([H])[c]3[F])[n]2)[c]([H])[c]1[H]

>  <combo1>  (1) 
-0.6839016670390188

$$$$
