
     RDKit          3D

 23 24  0  0  0  0  0  0  0  0999 V2000
    6.9972   -6.1555   23.8972 H   0  0  0  0  0  0  0  0  0  0  0  0
    7.2633   -5.1152   23.7180 C   0  0  0  0  0  0  0  0  0  0  0  0
    7.7154   -4.7639   22.4632 N   0  0  0  0  0  0  0  0  0  0  0  0
    8.0734   -3.5243   22.4591 C   0  0  0  0  0  0  0  0  0  0  0  0
    8.6431   -3.0897   21.2741 N   0  0  0  0  0  0  0  0  0  0  0  0
    8.3144   -3.7484   20.5790 H   0  0  0  0  0  0  0  0  0  0  0  0
    8.8513   -1.5021   20.9128 S   0  0  0  0  0  4  0  0  0  0  0  0
    9.5926   -0.8320   21.9608 O   0  0  0  0  0  0  0  0  0  0  0  0
    7.2826   -0.9370   20.8183 N   0  0  0  0  0  0  0  0  0  0  0  0
    7.0129   -0.6221   21.7524 H   0  0  0  0  0  0  0  0  0  0  0  0
    6.7050   -0.1096   19.7936 C   0  0  0  0  0  0  0  0  0  0  0  0
    7.1994    0.0303   18.4779 C   0  0  0  0  0  0  0  0  0  0  0  0
    8.1445   -0.4367   18.2059 H   0  0  0  0  0  0  0  0  0  0  0  0
    6.5671    0.7210   17.5164 N   0  0  0  0  0  0  0  0  0  0  0  0
    5.4105    1.3279   17.8375 C   0  0  0  0  0  0  0  0  0  0  0  0
    4.9144    1.8843   17.0424 H   0  0  0  0  0  0  0  0  0  0  0  0
    4.8551    1.2771   19.1235 C   0  0  0  0  0  0  0  0  0  0  0  0
    3.9323    1.8072   19.3388 H   0  0  0  0  0  0  0  0  0  0  0  0
    5.5182    0.5552   20.1225 C   0  0  0  0  0  0  0  0  0  0  0  0
    5.1329    0.4948   21.1400 H   0  0  0  0  0  0  0  0  0  0  0  0
    7.8267   -2.6465   23.9287 S   0  0  0  0  0  0  0  0  0  0  0  0
    7.2215   -4.1262   24.6394 C   0  0  0  0  0  0  0  0  0  0  0  0
    6.8804   -4.2015   25.6646 H   0  0  0  0  0  0  0  0  0  0  0  0
  1  2  1  0
  2  3  1  0
  3  4  2  0
  4  5  1  0
  5  6  1  0
  7  5  1  1
  7  8  2  0
  7  9  1  0
  9 10  1  0
  9 11  1  0
 11 12  2  0
 12 13  1  0
 12 14  1  0
 14 15  2  0
 15 16  1  0
 15 17  1  0
 17 18  1  0
 17 19  2  0
 19 20  1  0
  4 21  1  0
 21 22  1  0
 22 23  1  0
 22  2  2  0
 19 11  1  0
M  END
>  <cnnaffinity>  (1) 
4.38794

>  <plip>  (1) 
-0.06896551724137931

>  <filename>  (1) 
[H][c]1[n][c]([N]([H])[S@](=[O])[N]([H])[c]2[c]([H])[n][c]([H])[c]([H])[c]2[H])[s][c]1[H]

>  <combo1>  (1) 
-0.41975333797191977

$$$$
