
     RDKit          3D

 48 51  0  0  0  0  0  0  0  0999 V2000
    6.4891    3.2281   27.3131 C   0  0  0  0  0  0  0  0  0  0  0  0
    7.1945    4.2040   26.4042 C   0  0  0  0  0  0  0  0  0  0  0  0
    7.5208    5.4653   26.9222 C   0  0  0  0  0  0  0  0  0  0  0  0
    8.1631    6.4359   26.1540 C   0  0  0  0  0  0  0  0  0  0  0  0
    8.5094    6.1471   24.8323 C   0  0  0  0  0  0  0  0  0  0  0  0
    8.2035    4.8995   24.2882 C   0  0  0  0  0  0  0  0  0  0  0  0
    7.5199    3.9259   25.0477 C   0  0  0  0  0  0  0  0  0  0  0  0
    7.1313    2.6312   24.4039 C   0  0  0  0  0  0  0  0  0  0  0  0
    6.0348    1.9975   24.7748 N   0  0  0  0  0  0  0  0  0  0  0  0
    5.9134    0.6180   23.8402 S   0  0  0  0  0  0  0  0  0  0  0  0
    7.3677    1.0013   22.9749 C   0  0  0  0  0  0  0  0  0  0  0  0
    8.0240    0.3561   21.9946 N   0  0  0  0  0  0  0  0  0  0  0  0
    7.5057   -0.6049   21.0238 C   0  0  0  0  0  0  0  0  0  0  0  0
    6.7522   -1.7551   21.7040 C   0  0  0  0  0  0  0  0  0  0  0  0
    6.7259   -3.0842   20.9395 C   0  0  0  0  0  0  0  0  0  0  0  0
    6.0024   -4.1904   21.7176 C   0  0  0  0  0  0  0  0  0  0  0  0
    5.5836   -5.1824   20.6318 C   0  0  0  0  0  0  0  0  0  0  0  0
    5.4943   -4.4412   19.4211 O   0  0  0  0  0  0  0  0  0  0  0  0
    5.9280   -3.1023   19.6215 C   0  0  0  0  0  0  0  0  0  0  0  0
    5.0704   -2.4249   19.7069 H   0  0  0  0  0  0  0  0  0  0  0  0
    6.4505   -2.7796   18.7156 H   0  0  0  0  0  0  0  0  0  0  0  0
    6.3040   -6.0050   20.5146 H   0  0  0  0  0  0  0  0  0  0  0  0
    4.6255   -5.6554   20.8665 H   0  0  0  0  0  0  0  0  0  0  0  0
    5.1337   -3.7668   22.2456 H   0  0  0  0  0  0  0  0  0  0  0  0
    6.6351   -4.6698   22.4684 H   0  0  0  0  0  0  0  0  0  0  0  0
    7.7591   -3.4097   20.7598 H   0  0  0  0  0  0  0  0  0  0  0  0
    5.7206   -1.4366   21.8782 H   0  0  0  0  0  0  0  0  0  0  0  0
    7.2233   -1.9189   22.6779 H   0  0  0  0  0  0  0  0  0  0  0  0
    6.7028    0.0715   19.9326 C   0  0  0  0  0  0  0  0  0  0  0  0
    5.4551    0.6771   20.1466 C   0  0  0  0  0  0  0  0  0  0  0  0
    4.8296    1.3059   19.0696 C   0  0  0  0  0  0  0  0  0  0  0  0
    5.4494    1.2882   17.8160 C   0  0  0  0  0  0  0  0  0  0  0  0
    6.6251    0.6847   17.5822 N   0  0  0  0  0  0  0  0  0  0  0  0
    7.2180    0.0980   18.6289 C   0  0  0  0  0  0  0  0  0  0  0  0
    8.1587   -0.4155   18.4185 H   0  0  0  0  0  0  0  0  0  0  0  0
    4.9752    1.7714   16.9645 H   0  0  0  0  0  0  0  0  0  0  0  0
    3.8758    1.8078   19.1884 H   0  0  0  0  0  0  0  0  0  0  0  0
    4.9828    0.6595   21.1326 H   0  0  0  0  0  0  0  0  0  0  0  0
    8.3991   -1.0275   20.5503 H   0  0  0  0  0  0  0  0  0  0  0  0
    8.7206    1.0192   21.6812 H   0  0  0  0  0  0  0  0  0  0  0  0
    7.9060    2.1161   23.4034 N   0  0  0  0  0  0  0  0  0  0  0  0
    8.4943    4.6798   23.2598 H   0  0  0  0  0  0  0  0  0  0  0  0
    8.9971    6.9022   24.2217 H   0  0  0  0  0  0  0  0  0  0  0  0
    8.3755    7.4127   26.5815 H   0  0  0  0  0  0  0  0  0  0  0  0
    7.2392    5.6870   27.9496 H   0  0  0  0  0  0  0  0  0  0  0  0
    5.4509    3.1136   26.9921 H   0  0  0  0  0  0  0  0  0  0  0  0
    6.9313    2.2297   27.2539 H   0  0  0  0  0  0  0  0  0  0  0  0
    6.5095    3.5644   28.3539 H   0  0  0  0  0  0  0  0  0  0  0  0
  1  2  1  0
  2  3  2  0
  3  4  1  0
  4  5  2  0
  5  6  1  0
  6  7  2  0
  7  8  1  0
  8  9  2  0
  9 10  1  0
 10 11  1  0
 11 12  1  0
 12 13  1  0
 13 14  1  0
 14 15  1  0
 15 16  1  0
 16 17  1  0
 17 18  1  0
 18 19  1  0
 19 20  1  0
 19 21  1  0
 17 22  1  0
 17 23  1  0
 16 24  1  0
 16 25  1  0
 15 26  1  0
 14 27  1  0
 14 28  1  0
 13 29  1  0
 29 30  2  0
 30 31  1  0
 31 32  2  0
 32 33  1  0
 33 34  2  0
 34 35  1  0
 32 36  1  0
 31 37  1  0
 30 38  1  0
 13 39  1  0
 12 40  1  0
 11 41  2  0
  6 42  1  0
  5 43  1  0
  4 44  1  0
  3 45  1  0
  1 46  1  0
  1 47  1  0
  1 48  1  0
  7  2  1  0
 41  8  1  0
 19 15  1  0
 34 29  1  0
M  END
>  <cnnaffinity>  (1) 
5.80265

>  <plip>  (1) 
-0.10714285714285714

>  <filename>  (1) 
[H][c]1[n][c]([H])[c]([C]([H])([N]([H])[c]2[n][c](-[c]3[c]([H])[c]([H])[c]([H])[c]([H])[c]3[C]([H])([H])[H])[n][s]2)[C]([H])([H])[C]2([H])[C]([H])([H])[O][C]([H])([H])[C]2([H])[H])[c]([H])[c]1[H]

>  <combo1>  (1) 
-0.5654656334415679

$$$$
