
     RDKit          3D

 32 33  0  0  0  0  0  0  0  0999 V2000
    9.4078   -3.9040   23.4444 O   0  0  0  0  0  0  0  0  0  0  0  0
    9.2310   -2.8344   22.5301 C   0  0  0  0  0  0  0  0  0  0  0  0
    7.9302   -3.0373   21.7221 C   0  0  0  0  0  0  0  0  0  0  0  0
    7.7100   -2.0271   20.6410 N   0  0  0  0  0  4  0  0  0  0  0  0
    7.3810   -0.5538   21.0883 C   0  0  0  0  0  0  0  0  0  0  0  0
    6.6323    0.0309   19.9066 C   0  0  0  0  0  0  0  0  0  0  0  0
    5.4062    0.6850   20.1131 C   0  0  0  0  0  0  0  0  0  0  0  0
    4.7897    1.3221   19.0355 C   0  0  0  0  0  0  0  0  0  0  0  0
    5.4051    1.2763   17.7819 C   0  0  0  0  0  0  0  0  0  0  0  0
    6.5556    0.6239   17.5540 N   0  0  0  0  0  0  0  0  0  0  0  0
    7.1387    0.0160   18.5949 C   0  0  0  0  0  0  0  0  0  0  0  0
    8.0756   -0.4890   18.3533 H   0  0  0  0  0  0  0  0  0  0  0  0
    4.9566    1.7763   16.9248 H   0  0  0  0  0  0  0  0  0  0  0  0
    3.8501    1.8534   19.1495 H   0  0  0  0  0  0  0  0  0  0  0  0
    4.9308    0.6777   21.0975 H   0  0  0  0  0  0  0  0  0  0  0  0
    8.5977    0.2662   21.6084 C   0  0  0  0  0  0  0  0  0  0  0  0
    8.4617    1.2055   22.6376 C   0  0  0  0  0  0  0  0  0  0  0  0
    9.6080    1.9088   22.9895 C   0  0  0  0  0  0  0  0  0  0  0  0
   10.7933    1.6863   22.4147 N   0  0  0  0  0  0  0  0  0  0  0  0
   10.8233    0.7591   21.4613 C   0  0  0  0  0  0  0  0  0  0  0  0
    9.7913    0.0280   21.0316 N   0  0  0  0  0  0  0  0  0  0  0  0
   11.7890    0.5736   20.9927 H   0  0  0  0  0  0  0  0  0  0  0  0
    9.5768    2.6997   23.7451 H   0  0  0  0  0  0  0  0  0  0  0  0
    7.5217    1.3992   23.1469 H   0  0  0  0  0  0  0  0  0  0  0  0
    6.6989   -0.6081   21.9378 H   0  0  0  0  0  0  0  0  0  0  0  0
    8.6039   -1.8944   20.0992 H   0  0  0  0  0  0  0  0  0  0  0  0
    6.9382   -2.2578   19.9740 H   0  0  0  0  0  0  0  0  0  0  0  0
    7.1163   -3.0011   22.4584 H   0  0  0  0  0  0  0  0  0  0  0  0
    7.9294   -4.0505   21.3036 H   0  0  0  0  0  0  0  0  0  0  0  0
    9.1616   -1.9065   23.1118 H   0  0  0  0  0  0  0  0  0  0  0  0
   10.0943   -2.7125   21.8600 H   0  0  0  0  0  0  0  0  0  0  0  0
    9.9936   -4.5669   23.0564 H   0  0  0  0  0  0  0  0  0  0  0  0
  1  2  1  0
  2  3  1  0
  3  4  1  0
  4  5  1  0
  5  6  1  0
  6  7  2  0
  7  8  1  0
  8  9  2  0
  9 10  1  0
 10 11  2  0
 11 12  1  0
  9 13  1  0
  8 14  1  0
  7 15  1  0
  5 16  1  0
 16 17  2  0
 17 18  1  0
 18 19  2  0
 19 20  1  0
 20 21  2  0
 20 22  1  0
 18 23  1  0
 17 24  1  0
  5 25  1  0
  4 26  1  0
  4 27  1  0
  3 28  1  0
  3 29  1  0
  2 30  1  0
  2 31  1  0
  1 32  1  0
 11  6  1  0
 21 16  1  0
M  CHG  1   4   1
M  END
>  <cnnaffinity>  (1) 
4.62962

>  <plip>  (1) 
-0.10344827586206896

>  <filename>  (1) 
[H][O][C]([H])([H])[C]([H])([H])[N+]([H])([H])[C]([H])([c]1[n][c]([H])[n][c]([H])[c]1[H])[c]1[c]([H])[n][c]([H])[c]([H])[c]1[H]

>  <combo1>  (1) 
-0.6902575199889188

$$$$
