
     RDKit          3D

 42 42  0  0  0  0  0  0  0  0999 V2000
    7.1696    3.5467   29.7207 C   0  0  0  0  0  0  0  0  0  0  0  0
    7.3639    2.1844   29.2285 N   0  0  0  0  0  0  0  0  0  0  0  0
    6.7363    1.8082   28.0605 C   0  0  0  0  0  0  0  0  0  0  0  0
    5.9235    2.4942   27.4728 O   0  0  0  0  0  0  0  0  0  0  0  0
    7.1278    0.5390   27.6617 N   0  0  0  0  0  0  0  0  0  0  0  0
    6.2677   -0.1317   26.6849 C   0  0  0  0  0  0  0  0  0  0  0  0
    6.5515   -1.6298   26.6375 C   0  0  0  0  0  0  0  0  0  0  0  0
    5.6476   -2.3644   25.6405 C   0  0  0  0  0  0  0  0  0  0  0  0
    5.9367   -1.9800   24.2383 N   0  0  0  0  0  4  0  0  0  0  0  0
    7.1748   -2.5761   23.6582 C   0  0  0  0  0  0  0  0  0  0  0  0
    8.0567   -1.3993   23.2137 C   0  0  0  0  0  0  0  0  0  0  0  0
    7.1900   -0.4753   22.3925 C   0  0  0  0  0  0  0  0  0  0  0  0
    6.3767    0.2475   22.9545 O   0  0  0  0  0  0  0  0  0  0  0  0
    7.3128   -0.6266   21.0443 N   0  0  0  0  0  0  0  0  0  0  0  0
    6.6314    0.0379   19.9913 C   0  0  0  0  0  0  0  0  0  0  0  0
    5.4296    0.7264   20.1927 C   0  0  0  0  0  0  0  0  0  0  0  0
    4.8426    1.3430   19.0795 C   0  0  0  0  0  0  0  0  0  0  0  0
    5.4601    1.2608   17.8283 C   0  0  0  0  0  0  0  0  0  0  0  0
    6.6149    0.6034   17.6238 N   0  0  0  0  0  0  0  0  0  0  0  0
    7.1738    0.0130   18.6837 C   0  0  0  0  0  0  0  0  0  0  0  0
    8.1124   -0.5123   18.5091 H   0  0  0  0  0  0  0  0  0  0  0  0
    5.0173    1.7323   16.9547 H   0  0  0  0  0  0  0  0  0  0  0  0
    3.9166    1.8970   19.1784 H   0  0  0  0  0  0  0  0  0  0  0  0
    4.9952    0.7788   21.1886 H   0  0  0  0  0  0  0  0  0  0  0  0
    8.0394   -1.2683   20.7729 H   0  0  0  0  0  0  0  0  0  0  0  0
    8.9476   -1.7316   22.6825 H   0  0  0  0  0  0  0  0  0  0  0  0
    8.3684   -0.8057   24.0813 H   0  0  0  0  0  0  0  0  0  0  0  0
    6.9222   -3.2220   22.8048 H   0  0  0  0  0  0  0  0  0  0  0  0
    7.6748   -3.2197   24.3964 H   0  0  0  0  0  0  0  0  0  0  0  0
    6.0254   -0.9397   24.1211 H   0  0  0  0  0  0  0  0  0  0  0  0
    5.1168   -2.1716   23.6241 H   0  0  0  0  0  0  0  0  0  0  0  0
    4.5967   -2.1576   25.8894 H   0  0  0  0  0  0  0  0  0  0  0  0
    5.7809   -3.4502   25.7618 H   0  0  0  0  0  0  0  0  0  0  0  0
    7.6088   -1.8105   26.3933 H   0  0  0  0  0  0  0  0  0  0  0  0
    6.3757   -2.0620   27.6326 H   0  0  0  0  0  0  0  0  0  0  0  0
    5.2072    0.0267   26.9405 H   0  0  0  0  0  0  0  0  0  0  0  0
    6.4156    0.3525   25.7076 H   0  0  0  0  0  0  0  0  0  0  0  0
    7.3424    0.0049   28.4900 H   0  0  0  0  0  0  0  0  0  0  0  0
    8.2907    1.7901   29.2695 H   0  0  0  0  0  0  0  0  0  0  0  0
    6.1104    3.7091   29.9529 H   0  0  0  0  0  0  0  0  0  0  0  0
    7.4904    4.3181   29.0041 H   0  0  0  0  0  0  0  0  0  0  0  0
    7.7270    3.6797   30.6503 H   0  0  0  0  0  0  0  0  0  0  0  0
  1  2  1  0
  2  3  1  0
  3  4  2  0
  3  5  1  0
  5  6  1  0
  6  7  1  0
  7  8  1  0
  8  9  1  0
  9 10  1  0
 10 11  1  0
 11 12  1  0
 12 13  2  0
 12 14  1  0
 14 15  1  0
 15 16  2  0
 16 17  1  0
 17 18  2  0
 18 19  1  0
 19 20  2  0
 20 21  1  0
 18 22  1  0
 17 23  1  0
 16 24  1  0
 14 25  1  0
 11 26  1  0
 11 27  1  0
 10 28  1  0
 10 29  1  0
  9 30  1  0
  9 31  1  0
  8 32  1  0
  8 33  1  0
  7 34  1  0
  7 35  1  0
  6 36  1  0
  6 37  1  0
  5 38  1  0
  2 39  1  0
  1 40  1  0
  1 41  1  0
  1 42  1  0
 20 15  1  0
M  CHG  1   9   1
M  END
>  <cnnaffinity>  (1) 
4.13537

>  <plip>  (1) 
-0.17857142857142858

>  <filename>  (1) 
[H][c]1[n][c]([H])[c]([N]([H])[C](=[O])[C]([H])([H])[C]([H])([H])[N+]([H])([H])[C]([H])([H])[C]([H])([H])[C]([H])([H])[N]([H])[C](=[O])[N]([H])[C]([H])([H])[H])[c]([H])[c]1[H]

>  <combo1>  (1) 
-0.8780139831015172

$$$$
