
     RDKit          3D

 40 43  0  0  0  0  0  0  0  0999 V2000
    4.7928    1.3154   19.0806 C   0  0  0  0  0  0  0  0  0  0  0  0
    5.3888    1.3071   17.8154 C   0  0  0  0  0  0  0  0  0  0  0  0
    6.5484    0.6858   17.5589 N   0  0  0  0  0  0  0  0  0  0  0  0
    7.1506    0.0509   18.5753 C   0  0  0  0  0  0  0  0  0  0  0  0
    6.6370   -0.0287   19.8864 C   0  0  0  0  0  0  0  0  0  0  0  0
    7.3684   -0.7179   21.0249 C   0  0  0  0  0  0  0  0  0  0  0  0
    8.0939    0.2822   21.9652 C   0  0  0  0  0  0  0  0  0  0  0  0
    9.2693    0.9776   21.2427 C   0  0  0  0  0  0  0  0  0  0  0  0
   10.4431    0.9880   22.2342 C   0  0  0  0  0  0  0  0  0  0  0  0
   10.1563   -0.1614   23.2156 C   0  0  0  0  0  0  0  0  0  0  0  0
    8.7124   -0.3541   23.1303 N   0  0  0  0  0  0  0  0  0  0  0  0
    8.0356   -1.0625   24.0881 C   0  0  0  0  0  0  0  0  0  0  0  0
    6.6159   -0.8751   24.2664 C   0  0  0  0  0  0  0  0  0  0  0  0
    5.9402   -1.5688   25.2430 C   0  0  0  0  0  0  0  0  0  0  0  0
    6.6523   -2.4955   26.0604 C   0  0  0  0  0  0  0  0  0  0  0  0
    5.9749   -3.2035   27.0184 N   0  0  0  0  0  0  0  0  0  0  0  0
    6.6789   -4.0481   27.7456 C   0  0  0  0  0  0  0  0  0  0  0  0
    8.0823   -4.2455   27.5861 C   0  0  0  0  0  0  0  0  0  0  0  0
    8.7685   -3.5331   26.6213 C   0  0  0  0  0  0  0  0  0  0  0  0
    8.0643   -2.6048   25.7993 C   0  0  0  0  0  0  0  0  0  0  0  0
    8.7423   -1.8867   24.8515 N   0  0  0  0  0  0  0  0  0  0  0  0
    9.8367   -3.6339   26.4480 H   0  0  0  0  0  0  0  0  0  0  0  0
    8.5875   -4.9436   28.2405 H   0  0  0  0  0  0  0  0  0  0  0  0
    6.1439   -4.5804   28.5297 H   0  0  0  0  0  0  0  0  0  0  0  0
    4.8765   -1.4712   25.4465 H   0  0  0  0  0  0  0  0  0  0  0  0
    6.1149   -0.1693   23.6203 H   0  0  0  0  0  0  0  0  0  0  0  0
   10.6854   -1.0878   22.9448 H   0  0  0  0  0  0  0  0  0  0  0  0
   10.4626    0.0790   24.2444 H   0  0  0  0  0  0  0  0  0  0  0  0
   11.4070    0.8554   21.7309 H   0  0  0  0  0  0  0  0  0  0  0  0
   10.4860    1.9441   22.7698 H   0  0  0  0  0  0  0  0  0  0  0  0
    8.9857    1.9824   20.9125 H   0  0  0  0  0  0  0  0  0  0  0  0
    9.5232    0.4159   20.3323 H   0  0  0  0  0  0  0  0  0  0  0  0
    7.3634    1.0383   22.3019 H   0  0  0  0  0  0  0  0  0  0  0  0
    8.1210   -1.4218   20.6479 H   0  0  0  0  0  0  0  0  0  0  0  0
    6.6686   -1.3121   21.6216 H   0  0  0  0  0  0  0  0  0  0  0  0
    5.4295    0.6438   20.1261 C   0  0  0  0  0  0  0  0  0  0  0  0
    5.0102    0.6440   21.1354 H   0  0  0  0  0  0  0  0  0  0  0  0
    8.1046   -0.4182   18.3279 H   0  0  0  0  0  0  0  0  0  0  0  0
    4.9210    1.8168   16.9728 H   0  0  0  0  0  0  0  0  0  0  0  0
    3.8646    1.8545   19.2305 H   0  0  0  0  0  0  0  0  0  0  0  0
  1  2  2  0
  2  3  1  0
  3  4  2  0
  4  5  1  0
  5  6  1  0
  6  7  1  0
  7  8  1  0
  8  9  1  0
  9 10  1  0
 10 11  1  0
 11 12  1  0
 12 13  2  0
 13 14  1  0
 14 15  2  0
 15 16  1  0
 16 17  2  0
 17 18  1  0
 18 19  2  0
 19 20  1  0
 20 21  2  0
 19 22  1  0
 18 23  1  0
 17 24  1  0
 14 25  1  0
 13 26  1  0
 10 27  1  0
 10 28  1  0
  9 29  1  0
  9 30  1  0
  8 31  1  0
  8 32  1  0
  7 33  1  0
  6 34  1  0
  6 35  1  0
  5 36  2  0
 36 37  1  0
  4 38  1  0
  2 39  1  0
  1 40  1  0
 36  1  1  0
 11  7  1  0
 21 12  1  0
 20 15  1  0
M  END
>  <cnnaffinity>  (1) 
5.46418

>  <plip>  (1) 
-0.0

>  <filename>  (1) 
[H][c]1[n][c]([H])[c]([C]([H])([H])[C]2([H])[N]([c]3[n][c]4[c]([H])[c]([H])[c]([H])[n][c]4[c]([H])[c]3[H])[C]([H])([H])[C]([H])([H])[C]2([H])[H])[c]([H])[c]1[H]

>  <combo1>  (1) 
-6.272663613091352e-06

$$$$
