
     RDKit          3D

 35 36  0  0  0  0  0  0  0  0999 V2000
    8.3615   -2.7756   21.5631 C   0  0  0  0  0  0  0  0  0  0  0  0
    8.0498   -1.8176   20.5608 O   0  0  0  0  0  0  0  0  0  0  0  0
    7.3935   -0.6496   21.0125 C   0  0  0  0  0  0  0  0  0  0  0  0
    8.3177    0.3986   21.7395 C   0  0  0  0  0  0  0  0  0  0  0  0
    7.8229    1.1806   22.5241 O   0  0  0  0  0  0  0  0  0  0  0  0
    9.6544    0.3321   21.4144 N   0  0  0  0  0  0  0  0  0  0  0  0
   10.6615    1.2150   21.8545 C   0  0  0  0  0  0  0  0  0  0  0  0
   10.3706    2.5746   21.9851 C   0  0  0  0  0  0  0  0  0  0  0  0
   11.3990    3.4532   22.3260 C   0  0  0  0  0  0  0  0  0  0  0  0
   12.6733    2.9504   22.6166 C   0  0  0  0  0  0  0  0  0  0  0  0
   12.9689    1.6543   22.4960 N   0  0  0  0  0  0  0  0  0  0  0  0
   11.9990    0.7909   22.1041 C   0  0  0  0  0  0  0  0  0  0  0  0
   12.3406   -0.6917   21.9244 C   0  0  0  0  0  0  0  0  0  0  0  0
   11.4881   -1.5785   21.8298 O   0  0  0  0  0  0  0  0  0  0  0  0
   13.6304   -1.0758   21.8103 N   0  0  0  0  0  0  0  0  0  0  0  0
   14.4082   -0.4659   22.0014 H   0  0  0  0  0  0  0  0  0  0  0  0
   13.6973   -2.0773   21.7477 H   0  0  0  0  0  0  0  0  0  0  0  0
   13.4747    3.6062   22.9613 H   0  0  0  0  0  0  0  0  0  0  0  0
   11.2069    4.5186   22.3551 H   0  0  0  0  0  0  0  0  0  0  0  0
    9.3514    2.9261   21.8325 H   0  0  0  0  0  0  0  0  0  0  0  0
    9.9699   -0.6107   21.2102 H   0  0  0  0  0  0  0  0  0  0  0  0
    6.6470   -0.0215   19.8391 C   0  0  0  0  0  0  0  0  0  0  0  0
    5.4685    0.6939   20.0850 C   0  0  0  0  0  0  0  0  0  0  0  0
    4.8351    1.3447   19.0241 C   0  0  0  0  0  0  0  0  0  0  0  0
    5.4191    1.2737   17.7564 C   0  0  0  0  0  0  0  0  0  0  0  0
    6.5346    0.5749   17.4933 N   0  0  0  0  0  0  0  0  0  0  0  0
    7.1193   -0.0681   18.5150 C   0  0  0  0  0  0  0  0  0  0  0  0
    8.0100   -0.6449   18.2716 H   0  0  0  0  0  0  0  0  0  0  0  0
    4.9700    1.7986   16.9132 H   0  0  0  0  0  0  0  0  0  0  0  0
    3.9217    1.9125   19.1654 H   0  0  0  0  0  0  0  0  0  0  0  0
    5.0619    0.7353   21.0974 H   0  0  0  0  0  0  0  0  0  0  0  0
    6.6508   -0.8987   21.7931 H   0  0  0  0  0  0  0  0  0  0  0  0
    9.1564   -2.4189   22.2313 H   0  0  0  0  0  0  0  0  0  0  0  0
    7.4723   -3.0514   22.1477 H   0  0  0  0  0  0  0  0  0  0  0  0
    8.7139   -3.6653   21.0396 H   0  0  0  0  0  0  0  0  0  0  0  0
  1  2  1  0
  2  3  1  0
  3  4  1  0
  4  5  2  0
  4  6  1  0
  6  7  1  0
  7  8  2  0
  8  9  1  0
  9 10  2  0
 10 11  1  0
 11 12  2  0
 12 13  1  0
 13 14  2  0
 13 15  1  0
 15 16  1  0
 15 17  1  0
 10 18  1  0
  9 19  1  0
  8 20  1  0
  6 21  1  0
  3 22  1  0
 22 23  2  0
 23 24  1  0
 24 25  2  0
 25 26  1  0
 26 27  2  0
 27 28  1  0
 25 29  1  0
 24 30  1  0
 23 31  1  0
  3 32  1  0
  1 33  1  0
  1 34  1  0
  1 35  1  0
 12  7  1  0
 27 22  1  0
M  END
>  <cnnaffinity>  (1) 
5.2965

>  <plip>  (1) 
-0.0967741935483871

>  <filename>  (1) 
[H][c]1[n][c]([C](=[O])[N]([H])[H])[c]([N]([H])[C](=[O])[C]([H])([O][C]([H])([H])[H])[c]2[c]([H])[n][c]([H])[c]([H])[c]2[H])[c]([H])[c]1[H]

>  <combo1>  (1) 
-0.5967873202778903

$$$$
