
     RDKit          3D

 49 51  0  0  0  0  0  0  0  0999 V2000
    7.7602   -6.2312   28.4696 C   0  0  0  0  0  0  0  0  0  0  0  0
    8.4813   -6.1929   27.1397 C   0  0  0  0  0  0  0  0  0  0  0  0
    7.7724   -5.4944   26.0008 C   0  0  0  0  0  0  0  0  0  0  0  0
    8.8806   -5.2753   24.9880 C   0  0  0  0  0  0  0  0  0  0  0  0
    8.4028   -4.4004   23.8882 N   0  0  0  0  0  4  0  0  0  0  0  0
    9.4087   -3.4877   23.2071 C   0  0  0  0  0  0  0  0  0  0  0  0
    8.7690   -2.8296   21.9671 C   0  0  0  0  0  0  0  0  0  0  0  0
    7.2319   -2.7255   22.1015 C   0  0  0  0  0  0  0  0  0  0  0  0
    6.5591   -1.8865   21.0072 C   0  0  0  0  0  0  0  0  0  0  0  0
    7.1516   -0.4759   20.8215 C   0  0  0  0  0  0  0  0  0  0  0  0
    6.4975    0.2949   19.6972 C   0  0  0  0  0  0  0  0  0  0  0  0
    5.2789    0.9682   19.8671 C   0  0  0  0  0  0  0  0  0  0  0  0
    4.6889    1.5913   18.7647 C   0  0  0  0  0  0  0  0  0  0  0  0
    5.3375    1.5297   17.5322 C   0  0  0  0  0  0  0  0  0  0  0  0
    6.5043    0.8964   17.3441 N   0  0  0  0  0  0  0  0  0  0  0  0
    7.0622    0.3119   18.4124 C   0  0  0  0  0  0  0  0  0  0  0  0
    8.0214   -0.1790   18.2287 H   0  0  0  0  0  0  0  0  0  0  0  0
    4.9047    2.0013   16.6493 H   0  0  0  0  0  0  0  0  0  0  0  0
    3.7537    2.1332   18.8527 H   0  0  0  0  0  0  0  0  0  0  0  0
    4.8033    1.0075   20.8484 H   0  0  0  0  0  0  0  0  0  0  0  0
    8.2248   -0.5532   20.6046 H   0  0  0  0  0  0  0  0  0  0  0  0
    7.0664    0.0873   21.7611 H   0  0  0  0  0  0  0  0  0  0  0  0
    6.6040   -2.4177   20.0463 H   0  0  0  0  0  0  0  0  0  0  0  0
    5.4918   -1.7922   21.2498 H   0  0  0  0  0  0  0  0  0  0  0  0
    6.6463   -4.1681   22.1776 C   0  0  0  0  0  0  0  0  0  0  0  0
    7.6289   -5.1597   22.8255 C   0  0  0  0  0  0  0  0  0  0  0  0
    7.1155   -6.0231   23.2578 H   0  0  0  0  0  0  0  0  0  0  0  0
    8.3460   -5.5462   22.0892 H   0  0  0  0  0  0  0  0  0  0  0  0
    6.3993   -4.5306   21.1723 H   0  0  0  0  0  0  0  0  0  0  0  0
    5.7018   -4.1517   22.7387 H   0  0  0  0  0  0  0  0  0  0  0  0
    7.0227   -2.2139   23.0593 H   0  0  0  0  0  0  0  0  0  0  0  0
    9.2442   -1.8575   21.8183 H   0  0  0  0  0  0  0  0  0  0  0  0
    8.9927   -3.4152   21.0653 H   0  0  0  0  0  0  0  0  0  0  0  0
   10.2944   -4.0747   22.9374 H   0  0  0  0  0  0  0  0  0  0  0  0
    9.7237   -2.7167   23.9201 H   0  0  0  0  0  0  0  0  0  0  0  0
    7.6897   -3.7735   24.3151 H   0  0  0  0  0  0  0  0  0  0  0  0
   10.0278   -4.7674   25.8807 C   0  0  0  0  0  0  0  0  0  0  0  0
    9.7967   -5.4358   27.2218 N   0  0  0  0  0  4  0  0  0  0  0  0
    9.6895   -4.7291   28.0036 H   0  0  0  0  0  0  0  0  0  0  0  0
   10.5659   -6.1006   27.4890 H   0  0  0  0  0  0  0  0  0  0  0  0
    9.9724   -3.6790   25.9638 H   0  0  0  0  0  0  0  0  0  0  0  0
   11.0055   -5.0158   25.4651 H   0  0  0  0  0  0  0  0  0  0  0  0
    9.1953   -6.2388   24.5683 H   0  0  0  0  0  0  0  0  0  0  0  0
    6.9389   -6.0680   25.5948 H   0  0  0  0  0  0  0  0  0  0  0  0
    7.3794   -4.5150   26.3054 H   0  0  0  0  0  0  0  0  0  0  0  0
    8.6940   -7.2174   26.8217 H   0  0  0  0  0  0  0  0  0  0  0  0
    7.8161   -5.2582   28.9613 H   0  0  0  0  0  0  0  0  0  0  0  0
    6.6948   -6.4523   28.3334 H   0  0  0  0  0  0  0  0  0  0  0  0
    8.1969   -6.9966   29.1207 H   0  0  0  0  0  0  0  0  0  0  0  0
  1  2  1  0
  2  3  1  0
  3  4  1  0
  4  5  1  0
  5  6  1  0
  6  7  1  0
  7  8  1  0
  8  9  1  0
  9 10  1  0
 10 11  1  0
 11 12  2  0
 12 13  1  0
 13 14  2  0
 14 15  1  0
 15 16  2  0
 16 17  1  0
 14 18  1  0
 13 19  1  0
 12 20  1  0
 10 21  1  0
 10 22  1  0
  9 23  1  0
  9 24  1  0
  8 25  1  0
 25 26  1  0
 26 27  1  0
 26 28  1  0
 25 29  1  0
 25 30  1  0
  8 31  1  0
  7 32  1  0
  7 33  1  0
  6 34  1  0
  6 35  1  0
  5 36  1  0
  4 37  1  0
 37 38  1  0
 38 39  1  0
 38 40  1  0
 37 41  1  0
 37 42  1  0
  4 43  1  0
  3 44  1  0
  3 45  1  0
  2 46  1  0
  1 47  1  0
  1 48  1  0
  1 49  1  0
 38  2  1  0
 26  5  1  0
 16 11  1  0
M  CHG  2   5   1  38   1
M  END
>  <cnnaffinity>  (1) 
4.72484

>  <plip>  (1) 
-0.10344827586206896

>  <filename>  (1) 
[H][c]1[n][c]([H])[c]([C]([H])([H])[C]([H])([H])[C]2([H])[C]([H])([H])[C]([H])([H])[N+]([H])([C]3([H])[C]([H])([H])[C]([H])([C]([H])([H])[H])[N+]([H])([H])[C]3([H])[H])[C]([H])([H])[C]2([H])[H])[c]([H])[c]1[H]

>  <combo1>  (1) 
-0.5915100103157834

$$$$
