
     RDKit          3D

 32 34  0  0  0  0  0  0  0  0999 V2000
    4.9779    1.8546   16.9813 H   0  0  0  0  0  0  0  0  0  0  0  0
    5.4265    1.3263   17.8217 C   0  0  0  0  0  0  0  0  0  0  0  0
    6.5833    0.6950   17.5773 N   0  0  0  0  0  0  0  0  0  0  0  0
    7.1538    0.0538   18.6040 C   0  0  0  0  0  0  0  0  0  0  0  0
    8.0876   -0.4574   18.3781 H   0  0  0  0  0  0  0  0  0  0  0  0
    6.6282   -0.0136   19.9050 C   0  0  0  0  0  0  0  0  0  0  0  0
    7.4044   -0.7419   20.9847 C   0  0  0  0  0  0  0  0  0  0  0  0
    7.6519   -1.7502   20.6338 H   0  0  0  0  0  0  0  0  0  0  0  0
    6.7628   -0.8957   21.8617 H   0  0  0  0  0  0  0  0  0  0  0  0
    8.6665   -0.0183   21.3980 C   0  0  0  0  0  0  0  0  0  0  0  0
   10.0135   -0.2520   21.0469 C   0  0  0  0  0  0  0  0  0  0  0  0
   10.4409   -1.0781   20.4909 H   0  0  0  0  0  0  0  0  0  0  0  0
   10.8266    0.6949   21.5101 N   0  0  0  0  0  0  0  0  0  0  0  0
   10.0199    1.5299   22.1685 N   0  0  0  0  0  0  0  0  0  0  0  0
   10.3913    2.3214   22.6848 H   0  0  0  0  0  0  0  0  0  0  0  0
    8.7221    1.1355   22.1637 C   0  0  0  0  0  0  0  0  0  0  0  0
    7.6500    1.9560   22.8204 C   0  0  1  0  0  0  0  0  0  0  0  0
    6.8966    1.2735   23.2506 H   0  0  0  0  0  0  0  0  0  0  0  0
    8.2304    2.7243   23.8772 O   0  0  0  0  0  0  0  0  0  0  0  0
    7.9086    4.1019   23.7306 C   0  0  0  0  0  0  0  0  0  0  0  0
    6.9812    4.3485   24.2723 H   0  0  0  0  0  0  0  0  0  0  0  0
    8.7234    4.6969   24.1588 H   0  0  0  0  0  0  0  0  0  0  0  0
    7.7130    4.2953   22.2361 C   0  0  0  0  0  0  0  0  0  0  0  0
    8.6859    4.3661   21.7406 H   0  0  0  0  0  0  0  0  0  0  0  0
    7.1419    5.1908   21.9743 H   0  0  0  0  0  0  0  0  0  0  0  0
    7.0137    2.9851   21.8556 C   0  0  0  0  0  0  0  0  0  0  0  0
    5.9364    3.0530   22.0472 H   0  0  0  0  0  0  0  0  0  0  0  0
    7.1440    2.6888   20.8110 H   0  0  0  0  0  0  0  0  0  0  0  0
    5.4110    0.6416   20.1332 C   0  0  0  0  0  0  0  0  0  0  0  0
    4.9655    0.6631   21.1322 H   0  0  0  0  0  0  0  0  0  0  0  0
    4.8020    1.3186   19.0729 C   0  0  0  0  0  0  0  0  0  0  0  0
    3.8646    1.8437   19.2012 H   0  0  0  0  0  0  0  0  0  0  0  0
  1  2  1  0
  2  3  2  0
  3  4  1  0
  4  5  1  0
  4  6  2  0
  6  7  1  0
  7  8  1  0
  7  9  1  0
  7 10  1  0
 10 11  1  0
 11 12  1  0
 11 13  2  0
 13 14  1  0
 14 15  1  0
 14 16  1  0
 16 17  1  0
 17 18  1  1
 17 19  1  0
 19 20  1  0
 20 21  1  0
 20 22  1  0
 20 23  1  0
 23 24  1  0
 23 25  1  0
 23 26  1  0
 26 27  1  0
 26 28  1  0
  6 29  1  0
 29 30  1  0
 29 31  2  0
 31 32  1  0
 31  2  1  0
 16 10  2  0
 26 17  1  0
M  END
>  <cnnaffinity>  (1) 
4.65802

>  <plip>  (1) 
-0.10714285714285714

>  <filename>  (1) 
[H][c]1[n][c]([H])[c]([C]([H])([H])[c]2[c]([H])[n][n]([H])[c]2[C@@]2([H])[O][C]([H])([H])[C]([H])([H])[C]2([H])[H])[c]([H])[c]1[H]

>  <combo1>  (1) 
-0.7255568757511769

$$$$
