
     RDKit          3D

 32 34  0  0  0  0  0  0  0  0999 V2000
    5.0108    1.8513   16.8965 H   0  0  0  0  0  0  0  0  0  0  0  0
    5.4473    1.3273   17.7391 C   0  0  0  0  0  0  0  0  0  0  0  0
    6.5816    0.6520   17.4914 N   0  0  0  0  0  0  0  0  0  0  0  0
    7.1463   -0.0025   18.5106 C   0  0  0  0  0  0  0  0  0  0  0  0
    8.0428   -0.5771   18.2871 H   0  0  0  0  0  0  0  0  0  0  0  0
    6.6357   -0.0113   19.8206 C   0  0  0  0  0  0  0  0  0  0  0  0
    7.3202   -0.7669   20.8193 N   0  0  0  0  0  0  0  0  0  0  0  0
    6.7394   -1.5044   21.8330 C   0  0  0  0  0  0  0  0  0  0  0  0
    5.6620   -1.5763   21.9089 H   0  0  0  0  0  0  0  0  0  0  0  0
    7.7376   -2.0919   22.5649 C   0  0  0  0  0  0  0  0  0  0  0  0
    7.6004   -2.6992   23.4515 H   0  0  0  0  0  0  0  0  0  0  0  0
    8.9872   -1.7372   21.9844 C   0  0  0  0  0  0  0  0  0  0  0  0
   10.3491   -2.0422   22.5672 C   0  0  0  0  0  0  0  0  0  0  0  0
   11.0591   -2.2667   21.7611 H   0  0  0  0  0  0  0  0  0  0  0  0
   10.2764   -2.9403   23.1922 H   0  0  0  0  0  0  0  0  0  0  0  0
   10.8658   -0.8680   23.3879 C   0  0  0  0  0  0  0  0  0  0  0  0
   10.5483   -0.7280   24.7472 C   0  0  0  0  0  0  0  0  0  0  0  0
   10.0294   -1.5261   25.2695 H   0  0  0  0  0  0  0  0  0  0  0  0
   10.9053    0.4305   25.4474 C   0  0  0  0  0  0  0  0  0  0  0  0
   10.6341    0.5524   26.4940 H   0  0  0  0  0  0  0  0  0  0  0  0
   11.5797    1.4649   24.7959 C   0  0  0  0  0  0  0  0  0  0  0  0
   11.8769    2.3713   25.3059 H   0  0  0  0  0  0  0  0  0  0  0  0
   11.8901    1.3131   23.4498 C   0  0  0  0  0  0  0  0  0  0  0  0
   12.4919    2.3274   22.8047 F   0  0  0  0  0  0  0  0  0  0  0  0
   11.5751    0.1572   22.7485 C   0  0  0  0  0  0  0  0  0  0  0  0
   11.8930    0.0731   21.7132 H   0  0  0  0  0  0  0  0  0  0  0  0
    8.6934   -0.9247   20.9225 C   0  0  0  0  0  0  0  0  0  0  0  0
    9.3439   -0.4162   20.2247 H   0  0  0  0  0  0  0  0  0  0  0  0
    5.4549    0.7156   20.0719 C   0  0  0  0  0  0  0  0  0  0  0  0
    5.0296    0.7835   21.0742 H   0  0  0  0  0  0  0  0  0  0  0  0
    4.8404    1.3715   18.9988 C   0  0  0  0  0  0  0  0  0  0  0  0
    3.9033    1.9107   19.1234 H   0  0  0  0  0  0  0  0  0  0  0  0
  1  2  1  0
  2  3  2  0
  3  4  1  0
  4  5  1  0
  4  6  2  0
  6  7  1  0
  7  8  1  0
  8  9  1  0
  8 10  2  0
 10 11  1  0
 10 12  1  0
 12 13  1  0
 13 14  1  0
 13 15  1  0
 13 16  1  0
 16 17  2  0
 17 18  1  0
 17 19  1  0
 19 20  1  0
 19 21  2  0
 21 22  1  0
 21 23  1  0
 23 24  1  0
 23 25  2  0
 25 26  1  0
 12 27  2  0
 27 28  1  0
  6 29  1  0
 29 30  1  0
 29 31  2  0
 31 32  1  0
 31  2  1  0
 27  7  1  0
 25 16  1  0
M  END
>  <cnnaffinity>  (1) 
5.26816

>  <plip>  (1) 
-0.10344827586206896

>  <filename>  (1) 
[H][c]1[n][c]([H])[c](-[n]2[c]([H])[c]([H])[c]([C]([H])([H])[c]3[c]([H])[c]([H])[c]([H])[c]([F])[c]3[H])[c]2[H])[c]([H])[c]1[H]

>  <combo1>  (1) 
-0.7200414188922852

$$$$
