
     RDKit          3D

 50 52  0  0  0  0  0  0  0  0999 V2000
    4.7839    1.3093   19.0566 C   0  0  0  0  0  0  0  0  0  0  0  0
    5.3978    1.3106   17.7988 C   0  0  0  0  0  0  0  0  0  0  0  0
    6.5495    0.6771   17.5386 N   0  0  0  0  0  0  0  0  0  0  0  0
    7.1382    0.0306   18.5568 C   0  0  0  0  0  0  0  0  0  0  0  0
    6.6168   -0.0314   19.8664 C   0  0  0  0  0  0  0  0  0  0  0  0
    7.3684   -0.6815   21.0128 C   0  0  0  0  0  0  0  0  0  0  0  0
    8.1857    0.3323   21.8350 C   0  0  0  0  0  0  0  0  0  0  0  0
    9.3777    0.9195   21.0841 C   0  0  0  0  0  0  0  0  0  0  0  0
   10.4446    1.1644   22.1468 C   0  0  0  0  0  0  0  0  0  0  0  0
   10.2631    0.0045   23.1217 C   0  0  0  0  0  0  0  0  0  0  0  0
    8.7808   -0.3002   23.1041 N   0  0  0  0  0  4  0  0  0  0  0  0
    8.0802    0.1006   24.3689 C   0  0  0  0  0  0  0  0  0  0  0  0
    6.6336   -0.3782   24.4257 C   0  0  0  0  0  0  0  0  0  0  0  0
    5.9964    0.0186   25.7585 C   0  0  0  0  0  0  0  0  0  0  0  0
    4.6046   -0.4870   25.9336 N   0  0  0  0  0  4  0  0  0  0  0  0
    3.5646    0.3158   25.1675 C   0  0  0  0  0  0  0  0  0  0  0  0
    2.2129   -0.3777   25.3101 C   0  0  0  0  0  0  0  0  0  0  0  0
    1.7893   -0.3736   26.6689 O   0  0  0  0  0  0  0  0  0  0  0  0
    2.7233   -1.0318   27.5199 C   0  0  0  0  0  0  0  0  0  0  0  0
    4.1532   -0.4872   27.3860 C   0  0  0  0  0  0  0  0  0  0  0  0
    4.8525   -1.0715   27.9976 H   0  0  0  0  0  0  0  0  0  0  0  0
    4.1618    0.5529   27.7394 H   0  0  0  0  0  0  0  0  0  0  0  0
    2.3661   -0.8808   28.5412 H   0  0  0  0  0  0  0  0  0  0  0  0
    2.7179   -2.1106   27.3005 H   0  0  0  0  0  0  0  0  0  0  0  0
    2.3009   -1.4107   24.9315 H   0  0  0  0  0  0  0  0  0  0  0  0
    1.4396    0.1315   24.7371 H   0  0  0  0  0  0  0  0  0  0  0  0
    3.8823    0.4300   24.1315 H   0  0  0  0  0  0  0  0  0  0  0  0
    3.4917    1.3071   25.6304 H   0  0  0  0  0  0  0  0  0  0  0  0
    4.5867   -1.4646   25.5568 H   0  0  0  0  0  0  0  0  0  0  0  0
    5.9929    1.1168   25.8454 H   0  0  0  0  0  0  0  0  0  0  0  0
    6.6021   -0.3586   26.5926 H   0  0  0  0  0  0  0  0  0  0  0  0
    6.0654    0.0695   23.5986 H   0  0  0  0  0  0  0  0  0  0  0  0
    6.6005   -1.4687   24.2994 H   0  0  0  0  0  0  0  0  0  0  0  0
    8.6453   -0.2878   25.2281 H   0  0  0  0  0  0  0  0  0  0  0  0
    8.1030    1.1984   24.4512 H   0  0  0  0  0  0  0  0  0  0  0  0
    8.6603   -1.3280   23.0143 H   0  0  0  0  0  0  0  0  0  0  0  0
   10.5802    0.2630   24.1351 H   0  0  0  0  0  0  0  0  0  0  0  0
   10.8197   -0.8845   22.8052 H   0  0  0  0  0  0  0  0  0  0  0  0
   10.2591    2.1140   22.6649 H   0  0  0  0  0  0  0  0  0  0  0  0
   11.4587    1.1906   21.7363 H   0  0  0  0  0  0  0  0  0  0  0  0
    9.0682    1.8353   20.5759 H   0  0  0  0  0  0  0  0  0  0  0  0
    9.7325    0.2048   20.3311 H   0  0  0  0  0  0  0  0  0  0  0  0
    7.5327    1.1480   22.1636 H   0  0  0  0  0  0  0  0  0  0  0  0
    8.0568   -1.4603   20.6572 H   0  0  0  0  0  0  0  0  0  0  0  0
    6.6749   -1.1757   21.7038 H   0  0  0  0  0  0  0  0  0  0  0  0
    5.4041    0.6269   20.1023 C   0  0  0  0  0  0  0  0  0  0  0  0
    4.9521    0.6241   21.1005 H   0  0  0  0  0  0  0  0  0  0  0  0
    8.0799   -0.4683   18.3139 H   0  0  0  0  0  0  0  0  0  0  0  0
    4.9471    1.8557   16.9729 H   0  0  0  0  0  0  0  0  0  0  0  0
    3.8625    1.8588   19.2025 H   0  0  0  0  0  0  0  0  0  0  0  0
  1  2  2  0
  2  3  1  0
  3  4  2  0
  4  5  1  0
  5  6  1  0
  6  7  1  0
  7  8  1  0
  8  9  1  0
  9 10  1  0
 10 11  1  0
 11 12  1  0
 12 13  1  0
 13 14  1  0
 14 15  1  0
 15 16  1  0
 16 17  1  0
 17 18  1  0
 18 19  1  0
 19 20  1  0
 20 21  1  0
 20 22  1  0
 19 23  1  0
 19 24  1  0
 17 25  1  0
 17 26  1  0
 16 27  1  0
 16 28  1  0
 15 29  1  0
 14 30  1  0
 14 31  1  0
 13 32  1  0
 13 33  1  0
 12 34  1  0
 12 35  1  0
 11 36  1  0
 10 37  1  0
 10 38  1  0
  9 39  1  0
  9 40  1  0
  8 41  1  0
  8 42  1  0
  7 43  1  0
  6 44  1  0
  6 45  1  0
  5 46  2  0
 46 47  1  0
  4 48  1  0
  2 49  1  0
  1 50  1  0
 46  1  1  0
 11  7  1  0
 20 15  1  0
M  CHG  2  11   1  15   1
M  END
>  <cnnaffinity>  (1) 
4.43255

>  <plip>  (1) 
-0.07142857142857142

>  <filename>  (1) 
[H][c]1[n][c]([H])[c]([C]([H])([H])[C]2([H])[C]([H])([H])[C]([H])([H])[C]([H])([H])[N+]2([H])[C]([H])([H])[C]([H])([H])[C]([H])([H])[N+]2([H])[C]([H])([H])[C]([H])([H])[O][C]([H])([H])[C]2([H])[H])[c]([H])[c]1[H]

>  <combo1>  (1) 
-0.362123479568297

$$$$
