
     RDKit          3D

 43 45  0  0  0  0  0  0  0  0999 V2000
    5.0720    1.7409   16.8418 H   0  0  0  0  0  0  0  0  0  0  0  0
    5.4742    1.1974   17.6934 C   0  0  0  0  0  0  0  0  0  0  0  0
    6.5820    0.4769   17.4660 N   0  0  0  0  0  0  0  0  0  0  0  0
    7.1144   -0.1780   18.5073 C   0  0  0  0  0  0  0  0  0  0  0  0
    8.0130   -0.7585   18.2830 H   0  0  0  0  0  0  0  0  0  0  0  0
    6.6055   -0.1510   19.8251 C   0  0  0  0  0  0  0  0  0  0  0  0
    7.3154   -0.8274   20.9808 C   0  0  0  0  0  0  0  0  0  0  0  0
    6.5674   -1.2190   21.6773 H   0  0  0  0  0  0  0  0  0  0  0  0
    7.8661   -1.7003   20.6019 H   0  0  0  0  0  0  0  0  0  0  0  0
    8.3217    0.0555   21.7867 C   0  0  1  0  0  0  0  0  0  0  0  0
    8.9821   -0.7586   22.9477 C   0  0  0  0  0  0  0  0  0  0  0  0
    9.2762   -0.0606   23.7689 H   0  0  0  0  0  0  0  0  0  0  0  0
    9.9010   -1.2566   22.5834 H   0  0  0  0  0  0  0  0  0  0  0  0
    8.0892   -1.7628   23.4207 O   0  0  0  0  0  0  0  0  0  0  0  0
    8.3686   -2.3712   24.6755 C   0  0  0  0  0  0  0  0  0  0  0  0
    9.2933   -2.9793   24.6301 H   0  0  0  0  0  0  0  0  0  0  0  0
    7.5390   -3.0615   24.8431 H   0  0  0  0  0  0  0  0  0  0  0  0
    8.3401   -1.3746   25.8244 C   0  0  0  0  0  0  0  0  0  0  0  0
    9.6579   -0.3153   25.8336 C   0  0  0  0  0  0  0  0  0  0  0  0
   10.4637   -1.1601   25.3701 H   0  0  0  0  0  0  0  0  0  0  0  0
    9.6782   -0.2488   25.6456 C   0  0  0  0  0  0  0  0  0  0  0  0
   10.2650    0.7536   26.0549 H   0  0  0  0  0  0  0  0  0  0  0  0
    8.2937    1.2664   26.0497 C   0  0  0  0  0  0  0  0  0  0  0  0
    8.4945    2.3582   25.9854 H   0  0  0  0  0  0  0  0  0  0  0  0
    7.1237    0.6768   26.3342 C   0  0  0  0  0  0  0  0  0  0  0  0
    6.1921    1.1813   26.5878 H   0  0  0  0  0  0  0  0  0  0  0  0
    7.1427   -0.7814   26.2049 C   0  0  0  0  0  0  0  0  0  0  0  0
    6.2476   -1.3734   26.2824 H   0  0  0  0  0  0  0  0  0  0  0  0
    9.4307    0.6281   20.8614 C   0  0  0  0  0  0  0  0  0  0  0  0
    9.0274    0.7675   19.8509 H   0  0  0  0  0  0  0  0  0  0  0  0
   10.2744   -0.0700   20.7569 H   0  0  0  0  0  0  0  0  0  0  0  0
    9.8222    1.9351   21.3746 N   0  0  0  0  0  0  0  0  0  0  0  0
   10.7987    1.9946   21.6304 H   0  0  0  0  0  0  0  0  0  0  0  0
    8.9226    2.3361   22.4595 C   0  0  0  0  0  0  0  0  0  0  0  0
    9.3971    2.2721   23.4499 H   0  0  0  0  0  0  0  0  0  0  0  0
    8.6133    3.3817   22.3394 H   0  0  0  0  0  0  0  0  0  0  0  0
    7.7248    1.3802   22.3384 C   0  0  0  0  0  0  0  0  0  0  0  0
    7.1743    1.2316   23.2745 H   0  0  0  0  0  0  0  0  0  0  0  0
    7.0281    1.8027   21.6108 H   0  0  0  0  0  0  0  0  0  0  0  0
    5.4053    0.5564   20.0105 C   0  0  0  0  0  0  0  0  0  0  0  0
    4.9298    0.5758   20.9943 H   0  0  0  0  0  0  0  0  0  0  0  0
    4.8419    1.2532   18.9366 C   0  0  0  0  0  0  0  0  0  0  0  0
    3.9447    1.8475   19.0574 H   0  0  0  0  0  0  0  0  0  0  0  0
  1  2  1  0
  2  3  2  0
  3  4  1  0
  4  5  1  0
  4  6  2  0
  6  7  1  0
  7  8  1  0
  7  9  1  0
 10  7  1  6
 10 11  1  0
 11 12  1  0
 11 13  1  0
 11 14  1  0
 14 15  1  0
 15 16  1  0
 15 17  1  0
 15 18  1  0
 18 19  2  0
 19 20  1  0
 19 21  1  0
 21 22  1  0
 21 23  2  0
 23 24  1  0
 23 25  1  0
 25 26  1  0
 25 27  2  0
 27 28  1  0
 10 29  1  0
 29 30  1  0
 29 31  1  0
 29 32  1  0
 32 33  1  0
 32 34  1  0
 34 35  1  0
 34 36  1  0
 34 37  1  0
 37 38  1  0
 37 39  1  0
  6 40  1  0
 40 41  1  0
 40 42  2  0
 42 43  1  0
 42  2  1  0
 37 10  1  0
 27 18  1  0
M  END
>  <cnnaffinity>  (1) 
4.81764

>  <plip>  (1) 
-0.10714285714285714

>  <filename>  (1) 
[H][c]1[n][c]([H])[c]([C]([H])([H])[C@@]2([C]([H])([H])[O][C]([H])([H])[c]3[c]([H])[c]([H])[c]([H])[c]([H])[c]3[H])[C]([H])([H])[N]([H])[C]([H])([H])[C]2([H])[H])[c]([H])[c]1[H]

>  <combo1>  (1) 
-0.6093006102567449

$$$$
