
     RDKit          3D

 37 40  0  0  0  0  0  0  0  0999 V2000
    5.4949    1.6246   16.8240 H   0  0  0  0  0  0  0  0  0  0  0  0
    5.9366    1.1877   17.7180 C   0  0  0  0  0  0  0  0  0  0  0  0
    7.1198    0.5695   17.5595 N   0  0  0  0  0  0  0  0  0  0  0  0
    7.6789    0.0023   18.6414 C   0  0  0  0  0  0  0  0  0  0  0  0
    8.6559   -0.4585   18.4830 H   0  0  0  0  0  0  0  0  0  0  0  0
    7.0815   -0.0150   19.9347 C   0  0  0  0  0  0  0  0  0  0  0  0
    7.6434   -0.7029   21.0277 N   0  0  0  0  0  0  0  0  0  0  0  0
    8.0201   -1.6166   20.8177 H   0  0  0  0  0  0  0  0  0  0  0  0
    7.2260   -0.6772   22.3748 C   0  0  0  0  0  0  0  0  0  0  0  0
    6.9246    0.6106   23.0983 C   0  0  1  0  0  0  0  0  0  0  0  0
    5.8636    0.7502   23.3227 H   0  0  0  0  0  0  0  0  0  0  0  0
    7.9442    1.0369   24.1416 C   0  0  0  0  0  0  0  0  0  0  0  0
    8.8502    0.4425   24.2716 H   0  0  0  0  0  0  0  0  0  0  0  0
    7.5869    1.4934   25.0587 H   0  0  0  0  0  0  0  0  0  0  0  0
    7.7948    1.8183   22.8590 C   0  0  2  0  0  0  0  0  0  0  0  0
    8.5361    1.6243   22.0881 H   0  0  0  0  0  0  0  0  0  0  0  0
    7.3253    3.2381   22.8925 C   0  0  0  0  0  0  0  0  0  0  0  0
    7.8552    4.1331   21.9551 C   0  0  0  0  0  0  0  0  0  0  0  0
    8.5737    3.7570   21.2339 H   0  0  0  0  0  0  0  0  0  0  0  0
    7.4934    5.4826   21.9462 C   0  0  0  0  0  0  0  0  0  0  0  0
    7.9103    6.1486   21.1962 H   0  0  0  0  0  0  0  0  0  0  0  0
    6.5890    5.9629   22.8989 C   0  0  0  0  0  0  0  0  0  0  0  0
    6.3110    7.0131   22.9084 H   0  0  0  0  0  0  0  0  0  0  0  0
    6.0583    5.0871   23.8510 C   0  0  0  0  0  0  0  0  0  0  0  0
    5.3791    5.4636   24.6120 H   0  0  0  0  0  0  0  0  0  0  0  0
    6.4295    3.7390   23.8549 C   0  0  0  0  0  0  0  0  0  0  0  0
    6.0256    3.0792   24.6181 H   0  0  0  0  0  0  0  0  0  0  0  0
    8.1149   -3.0025   22.6472 C   0  0  0  0  0  0  0  0  0  0  0  0
    7.4938   -3.7498   22.1117 H   0  0  0  0  0  0  0  0  0  0  0  0
    8.4925   -3.5228   23.5545 H   0  0  0  0  0  0  0  0  0  0  0  0
    7.2699   -1.8229   23.0543 C   0  0  0  0  0  0  0  0  0  0  0  0
    6.7634   -1.8561   24.0158 H   0  0  0  0  0  0  0  0  0  0  0  0
    8.9653   -2.6134   22.0146 H   0  0  0  0  0  0  0  0  0  0  0  0
    5.8796    0.6906   20.0785 C   0  0  0  0  0  0  0  0  0  0  0  0
    5.4262    0.7536   21.0616 H   0  0  0  0  0  0  0  0  0  0  0  0
    5.2951    1.2870   18.9565 C   0  0  0  0  0  0  0  0  0  0  0  0
    4.3600    1.8298   19.0496 H   0  0  0  0  0  0  0  0  0  0  0  0
  1  2  1  0
  2  3  2  0
  3  4  1  0
  4  5  1  0
  4  6  2  0
  6  7  1  0
  7  8  1  0
  7  9  1  0
  9 10  1  0
 10 11  1  1
 10 12  1  0
 12 13  1  0
 12 14  1  0
 12 15  1  0
 15 16  1  6
 15 17  1  0
 17 18  2  0
 18 19  1  0
 18 20  1  0
 20 21  1  0
 20 22  2  0
 22 23  1  0
 22 24  1  0
 24 25  1  0
 24 26  2  0
 26 27  1  0
  9 28  1  0
 28 29  1  0
 28 30  1  0
 28 31  1  0
 31 32  1  0
 31 33  1  0
  6 34  1  0
 34 35  1  0
 34 36  2  0
 36 37  1  0
 36  2  1  0
 31  9  1  0
 15 10  1  0
 26 17  1  0
M  END
>  <cnnaffinity>  (1) 
5.01819

>  <plip>  (1) 
-0.03571428571428571

>  <filename>  (1) 
[H][c]1[n][c]([H])[c]([N]([H])[C]2([C@@]3([H])[C]([H])([H])[C@]3([H])[c]3[c]([H])[c]([H])[c]([H])[c]([H])[c]3[H])[C]([H])([H])[C]2([H])[H])[c]([H])[c]1[H]

>  <combo1>  (1) 
-0.23863211625100214

$$$$
