
     RDKit          3D

 38 40  0  0  0  0  0  0  0  0999 V2000
    2.4786   -5.9850   27.0361 C   0  0  0  0  0  0  0  0  0  0  0  0
    3.1362   -4.6252   26.9308 C   0  0  0  0  0  0  0  0  0  0  0  0
    2.3776   -3.4503   26.8052 C   0  0  0  0  0  0  0  0  0  0  0  0
    2.9885   -2.1974   26.6820 C   0  0  0  0  0  0  0  0  0  0  0  0
    4.3831   -2.1061   26.6685 C   0  0  0  0  0  0  0  0  0  0  0  0
    4.9870   -0.8540   26.5085 N   0  0  0  0  0  0  0  0  0  0  0  0
    6.0957   -0.5599   25.7753 C   0  0  0  0  0  0  0  0  0  0  0  0
    6.6859    0.5917   25.9006 N   0  0  0  0  0  0  0  0  0  0  0  0
    7.7697    0.7092   25.0796 N   0  0  0  0  0  0  0  0  0  0  0  0
    7.9614   -0.3261   24.3317 C   0  0  0  0  0  0  0  0  0  0  0  0
    9.2480   -0.4448   23.1228 S   0  0  0  0  0  0  0  0  0  0  0  0
    8.3427    0.2903   21.7081 C   0  0  0  0  0  0  0  0  0  0  0  0
    7.4055   -0.6975   20.9970 C   0  0  0  0  0  0  0  0  0  0  0  0
    6.6429   -0.0162   19.8849 C   0  0  0  0  0  0  0  0  0  0  0  0
    5.4314    0.6464   20.1334 C   0  0  0  0  0  0  0  0  0  0  0  0
    4.7940    1.3165   19.0857 C   0  0  0  0  0  0  0  0  0  0  0  0
    5.3885    1.3064   17.8204 C   0  0  0  0  0  0  0  0  0  0  0  0
    6.5510    0.6904   17.5619 N   0  0  0  0  0  0  0  0  0  0  0  0
    7.1540    0.0584   18.5780 C   0  0  0  0  0  0  0  0  0  0  0  0
    8.1071   -0.4160   18.3399 H   0  0  0  0  0  0  0  0  0  0  0  0
    4.9172    1.8083   16.9762 H   0  0  0  0  0  0  0  0  0  0  0  0
    3.8652    1.8525   19.2374 H   0  0  0  0  0  0  0  0  0  0  0  0
    5.0082    0.6422   21.1400 H   0  0  0  0  0  0  0  0  0  0  0  0
    6.7059   -1.1177   21.7291 H   0  0  0  0  0  0  0  0  0  0  0  0
    7.9932   -1.5395   20.6070 H   0  0  0  0  0  0  0  0  0  0  0  0
    7.7837    1.1589   22.0778 H   0  0  0  0  0  0  0  0  0  0  0  0
    9.1007    0.6635   21.0111 H   0  0  0  0  0  0  0  0  0  0  0  0
    6.7969   -1.6051   24.5788 S   0  0  0  0  0  0  0  0  0  0  0  0
    4.5984   -0.0281   26.9409 H   0  0  0  0  0  0  0  0  0  0  0  0
    5.1605   -3.2612   26.8206 C   0  0  0  0  0  0  0  0  0  0  0  0
    4.5354   -4.5031   26.9434 C   0  0  0  0  0  0  0  0  0  0  0  0
    5.1467   -5.3987   27.0431 H   0  0  0  0  0  0  0  0  0  0  0  0
    6.2433   -3.1694   26.8458 H   0  0  0  0  0  0  0  0  0  0  0  0
    2.4060   -1.2853   26.5860 H   0  0  0  0  0  0  0  0  0  0  0  0
    1.2918   -3.5207   26.8090 H   0  0  0  0  0  0  0  0  0  0  0  0
    1.4990   -5.9292   27.5227 H   0  0  0  0  0  0  0  0  0  0  0  0
    3.0919   -6.6858   27.6129 H   0  0  0  0  0  0  0  0  0  0  0  0
    2.3232   -6.4364   26.0485 H   0  0  0  0  0  0  0  0  0  0  0  0
  1  2  1  0
  2  3  2  0
  3  4  1  0
  4  5  2  0
  5  6  1  0
  6  7  1  0
  7  8  2  0
  8  9  1  0
  9 10  2  0
 10 11  1  0
 11 12  1  0
 12 13  1  0
 13 14  1  0
 14 15  2  0
 15 16  1  0
 16 17  2  0
 17 18  1  0
 18 19  2  0
 19 20  1  0
 17 21  1  0
 16 22  1  0
 15 23  1  0
 13 24  1  0
 13 25  1  0
 12 26  1  0
 12 27  1  0
 10 28  1  0
  6 29  1  0
  5 30  1  0
 30 31  2  0
 31 32  1  0
 30 33  1  0
  4 34  1  0
  3 35  1  0
  1 36  1  0
  1 37  1  0
  1 38  1  0
 31  2  1  0
 28  7  1  0
 19 14  1  0
M  END
>  <cnnaffinity>  (1) 
5.0726

>  <plip>  (1) 
-0.0

>  <filename>  (1) 
[H][c]1[n][c]([H])[c]([C]([H])([H])[C]([H])([H])[S][c]2[n][n][c]([N]([H])[c]3[c]([H])[c]([H])[c]([C]([H])([H])[H])[c]([H])[c]3[H])[s]2)[c]([H])[c]1[H]

>  <combo1>  (1) 
-5.147767704014017e-06

$$$$
