
     RDKit          3D

 46 48  0  0  0  0  0  0  0  0999 V2000
    9.0778   -3.2725   22.3613 C   0  0  0  0  0  0  0  0  0  0  0  0
    8.4232   -2.0038   22.1563 N   0  0  0  0  0  0  0  0  0  0  0  0
    8.1809   -1.0422   23.0744 C   0  0  0  0  0  0  0  0  0  0  0  0
    7.5357   -0.0162   22.4211 C   0  0  0  0  0  0  0  0  0  0  0  0
    7.2695    1.3606   22.9000 C   0  0  0  0  0  0  0  0  0  0  0  0
    8.1521    2.2278   22.0291 N   0  0  0  0  0  4  0  0  0  0  0  0
    8.0939    3.7062   22.2055 C   0  0  0  0  0  0  0  0  0  0  0  0
    8.3862    4.2227   23.6210 C   0  0  2  0  0  0  0  0  0  0  0  0
    8.0590    5.7276   23.7557 C   0  0  0  0  0  0  0  0  0  0  0  0
    8.9333    6.2548   24.9254 C   0  0  0  0  0  0  0  0  0  0  0  0
    9.9945    5.1706   25.2054 C   0  0  2  0  0  0  0  0  0  0  0  0
   11.3778    5.7844   25.1865 N   0  0  0  0  0  4  0  0  0  0  0  0
   11.5364    6.4269   25.9781 H   0  0  0  0  0  0  0  0  0  0  0  0
   12.0964    5.0452   25.1881 H   0  0  0  0  0  0  0  0  0  0  0  0
   11.4597    6.3251   24.3039 H   0  0  0  0  0  0  0  0  0  0  0  0
    9.8561    4.1473   24.0666 C   0  0  0  0  0  0  0  0  0  0  0  0
   10.1675    3.1379   24.3656 H   0  0  0  0  0  0  0  0  0  0  0  0
   10.5031    4.4591   23.2323 H   0  0  0  0  0  0  0  0  0  0  0  0
    9.8163    4.6919   26.1777 H   0  0  0  0  0  0  0  0  0  0  0  0
    8.3402    6.4682   25.8231 H   0  0  0  0  0  0  0  0  0  0  0  0
    9.4447    7.1918   24.6738 H   0  0  0  0  0  0  0  0  0  0  0  0
    6.9909    5.8929   23.9348 H   0  0  0  0  0  0  0  0  0  0  0  0
    8.2990    6.2534   22.8176 H   0  0  0  0  0  0  0  0  0  0  0  0
    7.7646    3.6641   24.3332 H   0  0  0  0  0  0  0  0  0  0  0  0
    8.8214    4.1806   21.5424 H   0  0  0  0  0  0  0  0  0  0  0  0
    7.1104    4.0886   21.9042 H   0  0  0  0  0  0  0  0  0  0  0  0
    7.9092    1.9072   21.0581 H   0  0  0  0  0  0  0  0  0  0  0  0
    9.1187    1.8596   22.2000 H   0  0  0  0  0  0  0  0  0  0  0  0
    6.2229    1.6702   22.8071 H   0  0  0  0  0  0  0  0  0  0  0  0
    7.5499    1.4415   23.9545 H   0  0  0  0  0  0  0  0  0  0  0  0
    7.3965   -0.4816   21.0878 C   0  0  0  0  0  0  0  0  0  0  0  0
    6.6805    0.1574   19.9758 C   0  0  0  0  0  0  0  0  0  0  0  0
    5.4384    0.8009   20.1234 C   0  0  0  0  0  0  0  0  0  0  0  0
    4.8501    1.3869   19.0007 C   0  0  0  0  0  0  0  0  0  0  0  0
    5.5204    1.3106   17.7741 C   0  0  0  0  0  0  0  0  0  0  0  0
    6.6900    0.6711   17.6141 N   0  0  0  0  0  0  0  0  0  0  0  0
    7.2344    0.0921   18.6877 C   0  0  0  0  0  0  0  0  0  0  0  0
    8.1641   -0.4499   18.5260 H   0  0  0  0  0  0  0  0  0  0  0  0
    5.1022    1.7830   16.8863 H   0  0  0  0  0  0  0  0  0  0  0  0
    3.9092    1.9222   19.0604 H   0  0  0  0  0  0  0  0  0  0  0  0
    4.9457    0.8461   21.0968 H   0  0  0  0  0  0  0  0  0  0  0  0
    7.9763   -1.6692   20.9430 N   0  0  0  0  0  0  0  0  0  0  0  0
    8.4852   -1.1495   24.1095 H   0  0  0  0  0  0  0  0  0  0  0  0
   10.1644   -3.1717   22.2556 H   0  0  0  0  0  0  0  0  0  0  0  0
    8.8453   -3.6314   23.3656 H   0  0  0  0  0  0  0  0  0  0  0  0
    8.6696   -3.9677   21.6231 H   0  0  0  0  0  0  0  0  0  0  0  0
  1  2  1  0
  2  3  1  0
  3  4  2  0
  4  5  1  0
  5  6  1  0
  6  7  1  0
  7  8  1  0
  8  9  1  0
  9 10  1  0
 10 11  1  0
 11 12  1  0
 12 13  1  0
 12 14  1  0
 12 15  1  0
 11 16  1  0
 16 17  1  0
 16 18  1  0
 11 19  1  1
 10 20  1  0
 10 21  1  0
  9 22  1  0
  9 23  1  0
  8 24  1  1
  7 25  1  0
  7 26  1  0
  6 27  1  0
  6 28  1  0
  5 29  1  0
  5 30  1  0
  4 31  1  0
 31 32  1  0
 32 33  2  0
 33 34  1  0
 34 35  2  0
 35 36  1  0
 36 37  2  0
 37 38  1  0
 35 39  1  0
 34 40  1  0
 33 41  1  0
 31 42  2  0
  3 43  1  0
  1 44  1  0
  1 45  1  0
  1 46  1  0
 42  2  1  0
 16  8  1  0
 37 32  1  0
M  CHG  2   6   1  12   1
M  END
>  <cnnaffinity>  (1) 
4.84733

>  <plip>  (1) 
-0.10714285714285714

>  <filename>  (1) 
[H][c]1[n][c]([H])[c](-[c]2[n][n]([C]([H])([H])[H])[c]([H])[c]2[C]([H])([H])[N+]([H])([H])[C]([H])([H])[C@]2([H])[C]([H])([H])[C]([H])([H])[C@]([H])([N+]([H])([H])[H])[C]2([H])[H])[c]([H])[c]1[H]

>  <combo1>  (1) 
-0.6023392583144994

$$$$
