
     RDKit          3D

 32 34  0  0  0  0  0  0  0  0999 V2000
    9.7680    0.2020   20.9404 O   0  0  0  0  0  0  0  0  0  0  0  0
    8.6948    0.2743   21.4984 C   0  0  0  0  0  0  0  0  0  0  0  0
    8.4764    1.1357   22.5603 N   0  0  0  0  0  0  0  0  0  0  0  0
    9.5026    1.8676   23.1117 C   0  0  0  0  0  0  0  0  0  0  0  0
   10.7973    1.3373   23.3156 C   0  0  0  0  0  0  0  0  0  0  0  0
   11.7668    2.1794   23.8470 C   0  0  0  0  0  0  0  0  0  0  0  0
   11.4043    3.5053   24.1602 C   0  0  0  0  0  0  0  0  0  0  0  0
   12.0309    4.6948   24.6775 C   0  0  0  0  0  0  0  0  0  0  0  0
   11.0661    5.6469   24.8092 C   0  0  0  0  0  0  0  0  0  0  0  0
    9.8609    5.1282   24.3724 N   0  0  0  0  0  0  0  0  0  0  0  0
   10.0392    3.8447   23.9542 C   0  0  0  0  0  0  0  0  0  0  0  0
    9.0773    3.0820   23.4442 N   0  0  0  0  0  0  0  0  0  0  0  0
    8.9658    5.5675   24.2960 H   0  0  0  0  0  0  0  0  0  0  0  0
   11.1724    6.6528   25.2032 H   0  0  0  0  0  0  0  0  0  0  0  0
   13.0721    4.8709   24.8840 H   0  0  0  0  0  0  0  0  0  0  0  0
   12.7831    1.8271   24.0031 H   0  0  0  0  0  0  0  0  0  0  0  0
   10.9980    0.3188   23.0040 H   0  0  0  0  0  0  0  0  0  0  0  0
    7.6694    1.7469   22.5526 H   0  0  0  0  0  0  0  0  0  0  0  0
    7.4378   -0.5669   21.0840 C   0  0  0  0  0  0  0  0  0  0  0  0
    7.8260   -1.8868   20.7347 O   0  0  0  0  0  0  0  0  0  0  0  0
    7.0466   -2.3054   20.3400 H   0  0  0  0  0  0  0  0  0  0  0  0
    6.6555    0.0641   19.9482 C   0  0  0  0  0  0  0  0  0  0  0  0
    5.4314    0.7059   20.1637 C   0  0  0  0  0  0  0  0  0  0  0  0
    4.8050    1.3282   19.0816 C   0  0  0  0  0  0  0  0  0  0  0  0
    5.4199    1.2695   17.8267 C   0  0  0  0  0  0  0  0  0  0  0  0
    6.5709    0.6214   17.5925 N   0  0  0  0  0  0  0  0  0  0  0  0
    7.1611    0.0275   18.6374 C   0  0  0  0  0  0  0  0  0  0  0  0
    8.0959   -0.4951   18.4404 H   0  0  0  0  0  0  0  0  0  0  0  0
    4.9677    1.7603   16.9664 H   0  0  0  0  0  0  0  0  0  0  0  0
    3.8657    1.8577   19.1955 H   0  0  0  0  0  0  0  0  0  0  0  0
    4.9747    0.7034   21.1559 H   0  0  0  0  0  0  0  0  0  0  0  0
    6.8064   -0.5744   21.9871 H   0  0  0  0  0  0  0  0  0  0  0  0
  1  2  2  0
  2  3  1  0
  3  4  1  0
  4  5  2  0
  5  6  1  0
  6  7  2  0
  7  8  1  0
  8  9  2  0
  9 10  1  0
 10 11  1  0
 11 12  2  0
 10 13  1  0
  9 14  1  0
  8 15  1  0
  6 16  1  0
  5 17  1  0
  3 18  1  0
  2 19  1  0
 19 20  1  0
 20 21  1  0
 19 22  1  0
 22 23  2  0
 23 24  1  0
 24 25  2  0
 25 26  1  0
 26 27  2  0
 27 28  1  0
 25 29  1  0
 24 30  1  0
 23 31  1  0
 19 32  1  0
 12  4  1  0
 27 22  1  0
 11  7  1  0
M  END
>  <cnnaffinity>  (1) 
4.61023

>  <plip>  (1) 
-0.10344827586206896

>  <filename>  (1) 
[H][O][C]([H])([C](=[O])[N]([H])[c]1[n][c]2[c]([c]([H])[c]1[H])[c]([H])[c]([H])[n]2[H])[c]1[c]([H])[n][c]([H])[c]([H])[c]1[H]

>  <combo1>  (1) 
-0.5925742454631129

$$$$
