
     RDKit          3D

 57 60  0  0  0  0  0  0  0  0999 V2000
    9.1190    1.4769   20.9390 O   0  0  0  0  0  0  0  0  0  0  0  0
    8.5077    1.2847   21.9771 C   0  0  0  0  0  0  0  0  0  0  0  0
    8.6378    2.2082   23.1546 C   0  0  0  0  0  0  0  0  0  0  0  0
    8.1606    3.5908   22.7554 C   0  0  2  0  0  0  0  0  0  0  0  0
    8.3420    4.6161   23.8695 C   0  0  0  0  0  0  0  0  0  0  0  0
    7.5581    5.8860   23.6168 C   0  0  0  0  0  0  0  0  0  0  0  0
    7.9226    7.0642   24.2822 C   0  0  0  0  0  0  0  0  0  0  0  0
    7.1814    8.2375   24.1230 C   0  0  0  0  0  0  0  0  0  0  0  0
    6.0474    8.2328   23.3022 C   0  0  0  0  0  0  0  0  0  0  0  0
    5.6799    7.0608   22.6331 C   0  0  0  0  0  0  0  0  0  0  0  0
    6.4353    5.8883   22.7696 C   0  0  0  0  0  0  0  0  0  0  0  0
    6.0551    4.6545   21.9516 C   0  0  0  0  0  0  0  0  0  0  0  0
    6.6792    3.4246   22.4850 N   0  0  0  0  0  4  0  0  0  0  0  0
    6.2601    3.2679   23.4371 H   0  0  0  0  0  0  0  0  0  0  0  0
    6.5146    2.6333   21.8372 H   0  0  0  0  0  0  0  0  0  0  0  0
    6.3789    4.8297   20.9157 H   0  0  0  0  0  0  0  0  0  0  0  0
    4.9627    4.5716   21.9269 H   0  0  0  0  0  0  0  0  0  0  0  0
    4.8013    7.0469   21.9886 H   0  0  0  0  0  0  0  0  0  0  0  0
    5.4589    9.1387   23.1692 H   0  0  0  0  0  0  0  0  0  0  0  0
    7.4782    9.1452   24.6446 H   0  0  0  0  0  0  0  0  0  0  0  0
    8.7908    7.0447   24.9384 H   0  0  0  0  0  0  0  0  0  0  0  0
    7.9980    4.1724   24.8162 H   0  0  0  0  0  0  0  0  0  0  0  0
    9.4049    4.8396   23.9954 H   0  0  0  0  0  0  0  0  0  0  0  0
    8.6582    3.9456   21.8432 H   0  0  0  0  0  0  0  0  0  0  0  0
    8.0547    1.8312   24.0011 H   0  0  0  0  0  0  0  0  0  0  0  0
    9.6904    2.2319   23.4546 H   0  0  0  0  0  0  0  0  0  0  0  0
    7.7007    0.1884   22.1647 N   0  0  0  0  0  0  0  0  0  0  0  0
    7.3706   -0.6577   21.0240 C   0  0  0  0  0  0  0  0  0  0  0  0
    6.5897   -1.9109   21.4491 C   0  0  0  0  0  0  0  0  0  0  0  0
    7.2810   -2.8267   22.4100 N   0  0  0  0  0  4  0  0  0  0  0  0
    6.3732   -3.9021   22.9407 C   0  0  0  0  0  0  0  0  0  0  0  0
    7.3126   -4.9077   23.5947 C   0  0  0  0  0  0  0  0  0  0  0  0
    8.6289   -4.8081   22.7965 C   0  0  0  0  0  0  0  0  0  0  0  0
    8.4841   -3.5769   21.8827 C   0  0  0  0  0  0  0  0  0  0  0  0
    9.3708   -2.9369   21.8638 H   0  0  0  0  0  0  0  0  0  0  0  0
    8.2767   -3.8814   20.8518 H   0  0  0  0  0  0  0  0  0  0  0  0
    8.8088   -5.7041   22.1951 H   0  0  0  0  0  0  0  0  0  0  0  0
    9.4870   -4.7073   23.4684 H   0  0  0  0  0  0  0  0  0  0  0  0
    6.8828   -5.9138   23.5886 H   0  0  0  0  0  0  0  0  0  0  0  0
    7.4729   -4.6448   24.6451 H   0  0  0  0  0  0  0  0  0  0  0  0
    5.6213   -3.4843   23.6155 H   0  0  0  0  0  0  0  0  0  0  0  0
    5.8449   -4.3512   22.0904 H   0  0  0  0  0  0  0  0  0  0  0  0
    7.6032   -2.2380   23.2163 H   0  0  0  0  0  0  0  0  0  0  0  0
    6.3466   -2.4743   20.5403 H   0  0  0  0  0  0  0  0  0  0  0  0
    5.6350   -1.5737   21.8717 H   0  0  0  0  0  0  0  0  0  0  0  0
    6.6216    0.1215   19.9561 C   0  0  0  0  0  0  0  0  0  0  0  0
    5.3903    0.7686   20.1465 C   0  0  0  0  0  0  0  0  0  0  0  0
    4.7758    1.3770   19.0451 C   0  0  0  0  0  0  0  0  0  0  0  0
    5.4277    1.3432   17.8086 C   0  0  0  0  0  0  0  0  0  0  0  0
    6.6175    0.7585   17.6128 N   0  0  0  0  0  0  0  0  0  0  0  0
    7.1875    0.1801   18.6766 C   0  0  0  0  0  0  0  0  0  0  0  0
    8.1621   -0.2823   18.5106 H   0  0  0  0  0  0  0  0  0  0  0  0
    4.9720    1.7971   16.9316 H   0  0  0  0  0  0  0  0  0  0  0  0
    3.8169    1.8777   19.1295 H   0  0  0  0  0  0  0  0  0  0  0  0
    4.9196    0.8275   21.1330 H   0  0  0  0  0  0  0  0  0  0  0  0
    8.3238   -0.9919   20.6009 H   0  0  0  0  0  0  0  0  0  0  0  0
    6.9693    0.3278   22.8418 H   0  0  0  0  0  0  0  0  0  0  0  0
  1  2  2  0
  2  3  1  0
  3  4  1  0
  4  5  1  0
  5  6  1  0
  6  7  2  0
  7  8  1  0
  8  9  2  0
  9 10  1  0
 10 11  2  0
 11 12  1  0
 12 13  1  0
 13 14  1  0
 13 15  1  0
 12 16  1  0
 12 17  1  0
 10 18  1  0
  9 19  1  0
  8 20  1  0
  7 21  1  0
  5 22  1  0
  5 23  1  0
  4 24  1  6
  3 25  1  0
  3 26  1  0
  2 27  1  0
 27 28  1  0
 28 29  1  0
 29 30  1  0
 30 31  1  0
 31 32  1  0
 32 33  1  0
 33 34  1  0
 34 35  1  0
 34 36  1  0
 33 37  1  0
 33 38  1  0
 32 39  1  0
 32 40  1  0
 31 41  1  0
 31 42  1  0
 30 43  1  0
 29 44  1  0
 29 45  1  0
 28 46  1  0
 46 47  2  0
 47 48  1  0
 48 49  2  0
 49 50  1  0
 50 51  2  0
 51 52  1  0
 49 53  1  0
 48 54  1  0
 47 55  1  0
 28 56  1  0
 27 57  1  0
 13  4  1  0
 34 30  1  0
 51 46  1  0
 11  6  1  0
M  CHG  2  13   1  30   1
M  END
>  <cnnaffinity>  (1) 
5.11895

>  <plip>  (1) 
-0.17857142857142858

>  <filename>  (1) 
[H][c]1[n][c]([H])[c]([C]([H])([N]([H])[C](=[O])[C]([H])([H])[C@]2([H])[C]([H])([H])[c]3[c]([H])[c]([H])[c]([H])[c]([H])[c]3[C]([H])([H])[N+]2([H])[H])[C]([H])([H])[N+]2([H])[C]([H])([H])[C]([H])([H])[C]([H])([H])[C]2([H])[H])[c]([H])[c]1[H]

>  <combo1>  (1) 
-0.8313558596430232

$$$$
