
     RDKit          3D

 44 47  0  0  0  0  0  0  0  0999 V2000
    4.9690    1.8294   17.0171 H   0  0  0  0  0  0  0  0  0  0  0  0
    5.4524    1.3080   17.8377 C   0  0  0  0  0  0  0  0  0  0  0  0
    6.6183    0.7061   17.5481 N   0  0  0  0  0  0  0  0  0  0  0  0
    7.2281    0.0486   18.5431 C   0  0  0  0  0  0  0  0  0  0  0  0
    8.1762   -0.4287   18.2998 H   0  0  0  0  0  0  0  0  0  0  0  0
    6.6987   -0.0745   19.8504 C   0  0  0  0  0  0  0  0  0  0  0  0
    7.3503   -0.7825   20.8961 N   0  0  0  0  0  0  0  0  0  0  0  0
    6.7437   -1.8108   21.6053 C   0  0  0  0  0  0  0  0  0  0  0  0
    5.6136   -2.2178   21.5347 O   0  0  0  0  0  0  0  0  0  0  0  0
    7.6984   -2.4042   22.3933 N   0  0  0  0  0  0  0  0  0  0  0  0
    7.4974   -3.2864   22.8245 H   0  0  0  0  0  0  0  0  0  0  0  0
    8.9500   -2.0210   22.0519 C   0  0  0  0  0  0  0  0  0  0  0  0
    9.9485   -2.6228   22.3515 O   0  0  0  0  0  0  0  0  0  0  0  0
    8.7869   -0.7711   21.1178 C   0  0  2  0  0  0  0  0  0  0  0  0
    9.3343   -1.0510   20.1991 H   0  0  0  0  0  0  0  0  0  0  0  0
    9.3003    0.4628   21.6623 N   0  0  0  0  0  0  0  0  0  0  0  0
   10.7513    0.4648   21.9144 C   0  0  0  0  0  0  0  0  0  0  0  0
   10.9511    0.4543   22.9995 H   0  0  0  0  0  0  0  0  0  0  0  0
   11.2126   -0.4435   21.5042 H   0  0  0  0  0  0  0  0  0  0  0  0
   11.4468    1.6996   21.3320 C   0  0  0  0  0  0  0  0  0  0  0  0
   12.5217    1.6051   21.5296 H   0  0  0  0  0  0  0  0  0  0  0  0
   11.3050    1.7637   20.2453 H   0  0  0  0  0  0  0  0  0  0  0  0
   10.9184    2.9126   21.9465 N   0  0  0  0  0  0  0  0  0  0  0  0
   11.7231    4.0442   22.0334 C   0  0  0  0  0  0  0  0  0  0  0  0
   11.5158    5.0324   23.0126 C   0  0  0  0  0  0  0  0  0  0  0  0
   10.6436    4.9511   23.6521 H   0  0  0  0  0  0  0  0  0  0  0  0
   12.4503    6.0574   23.1839 C   0  0  0  0  0  0  0  0  0  0  0  0
   12.2916    6.8117   23.9512 H   0  0  0  0  0  0  0  0  0  0  0  0
   13.5682    6.1510   22.3438 C   0  0  0  0  0  0  0  0  0  0  0  0
   14.3066    6.9287   22.4989 H   0  0  0  0  0  0  0  0  0  0  0  0
   13.7278    5.2356   21.3019 C   0  0  0  0  0  0  0  0  0  0  0  0
   14.5914    5.2762   20.6377 H   0  0  0  0  0  0  0  0  0  0  0  0
   12.8084    4.2017   21.1437 C   0  0  0  0  0  0  0  0  0  0  0  0
   12.9238    3.4785   20.3509 H   0  0  0  0  0  0  0  0  0  0  0  0
    9.4698    2.9213   22.2142 C   0  0  0  0  0  0  0  0  0  0  0  0
    9.0451    3.8858   21.9011 H   0  0  0  0  0  0  0  0  0  0  0  0
    9.2659    2.8147   23.2940 H   0  0  0  0  0  0  0  0  0  0  0  0
    8.6879    1.7992   21.4587 C   0  0  0  0  0  0  0  0  0  0  0  0
    7.6597    1.7872   21.8388 H   0  0  0  0  0  0  0  0  0  0  0  0
    8.6207    2.0542   20.3883 H   0  0  0  0  0  0  0  0  0  0  0  0
    5.4800    0.5591   20.1324 C   0  0  0  0  0  0  0  0  0  0  0  0
    5.0569    0.4900   21.1377 H   0  0  0  0  0  0  0  0  0  0  0  0
    4.8534    1.2694   19.1040 C   0  0  0  0  0  0  0  0  0  0  0  0
    3.9178    1.7943   19.2752 H   0  0  0  0  0  0  0  0  0  0  0  0
  1  2  1  0
  2  3  2  0
  3  4  1  0
  4  5  1  0
  4  6  2  0
  6  7  1  0
  7  8  1  0
  8  9  2  0
  8 10  1  0
 10 11  1  0
 10 12  1  0
 12 13  2  0
 12 14  1  0
 14 15  1  6
 14 16  1  0
 16 17  1  0
 17 18  1  0
 17 19  1  0
 17 20  1  0
 20 21  1  0
 20 22  1  0
 20 23  1  0
 23 24  1  0
 24 25  2  0
 25 26  1  0
 25 27  1  0
 27 28  1  0
 27 29  2  0
 29 30  1  0
 29 31  1  0
 31 32  1  0
 31 33  2  0
 33 34  1  0
 23 35  1  0
 35 36  1  0
 35 37  1  0
 35 38  1  0
 38 39  1  0
 38 40  1  0
  6 41  1  0
 41 42  1  0
 41 43  2  0
 43 44  1  0
 43  2  1  0
 14  7  1  0
 38 16  1  0
 33 24  1  0
M  END
>  <cnnaffinity>  (1) 
5.79078

>  <plip>  (1) 
-0.16666666666666666

>  <filename>  (1) 
[H][c]1[n][c]([H])[c]([N]2[C](=[O])[N]([H])[C](=[O])[C@]2([H])[N]2[C]([H])([H])[C]([H])([H])[N]([c]3[c]([H])[c]([H])[c]([H])[c]([H])[c]3[H])[C]([H])([H])[C]2([H])[H])[c]([H])[c]1[H]

>  <combo1>  (1) 
-0.9535453772122483

$$$$
