
     RDKit          3D

 28 30  0  0  0  0  0  0  0  0999 V2000
    4.9004    1.8332   16.9521 H   0  0  0  0  0  0  0  0  0  0  0  0
    5.3844    1.3329   17.7907 C   0  0  0  0  0  0  0  0  0  0  0  0
    6.5523    0.7266   17.5193 N   0  0  0  0  0  0  0  0  0  0  0  0
    7.1776    0.1085   18.5291 C   0  0  0  0  0  0  0  0  0  0  0  0
    8.1182   -0.3764   18.2693 H   0  0  0  0  0  0  0  0  0  0  0  0
    6.6768    0.0216   19.8495 C   0  0  0  0  0  0  0  0  0  0  0  0
    7.4095   -0.7022   20.9360 C   0  0  0  0  0  0  0  0  0  0  0  0
    8.7179   -0.4482   21.1732 C   0  0  0  0  0  0  0  0  0  0  0  0
    9.3243    0.2303   20.5735 H   0  0  0  0  0  0  0  0  0  0  0  0
    9.4243   -1.0509   22.2108 N   0  0  0  0  0  0  0  0  0  0  0  0
   10.7821   -0.7278   22.3278 N   0  0  0  0  0  0  0  0  0  0  0  0
   11.3684    0.5150   22.3694 C   0  0  0  0  0  0  0  0  0  0  0  0
   10.7813    1.4198   22.3074 H   0  0  0  0  0  0  0  0  0  0  0  0
   12.6651    0.4278   22.4831 N   0  0  0  0  0  0  0  0  0  0  0  0
   12.9396   -0.9239   22.5187 C   0  0  0  0  0  0  0  0  0  0  0  0
   13.9592   -1.2661   22.6645 H   0  0  0  0  0  0  0  0  0  0  0  0
   11.7882   -1.6545   22.4269 C   0  0  0  0  0  0  0  0  0  0  0  0
   11.5291   -2.6989   22.5199 H   0  0  0  0  0  0  0  0  0  0  0  0
    8.8277   -2.0175   23.0667 C   0  0  0  0  0  0  0  0  0  0  0  0
    9.3979   -2.6385   23.9321 O   0  0  0  0  0  0  0  0  0  0  0  0
    7.5045   -2.2051   22.8244 N   0  0  0  0  0  0  0  0  0  0  0  0
    7.0701   -2.9323   23.3582 H   0  0  0  0  0  0  0  0  0  0  0  0
    6.7419   -1.7459   21.7678 C   0  0  0  0  0  0  0  0  0  0  0  0
    5.6514   -2.2476   21.6098 O   0  0  0  0  0  0  0  0  0  0  0  0
    5.4492    0.6624   20.0960 C   0  0  0  0  0  0  0  0  0  0  0  0
    5.0172    0.6100   21.0932 H   0  0  0  0  0  0  0  0  0  0  0  0
    4.7941    1.3357   19.0576 C   0  0  0  0  0  0  0  0  0  0  0  0
    3.8484    1.8552   19.2082 H   0  0  0  0  0  0  0  0  0  0  0  0
  1  2  1  0
  2  3  2  0
  3  4  1  0
  4  5  1  0
  4  6  2  0
  6  7  1  0
  7  8  2  0
  8  9  1  0
  8 10  1  0
 10 11  1  0
 11 12  1  0
 12 13  1  0
 12 14  2  0
 14 15  1  0
 15 16  1  0
 15 17  2  0
 17 18  1  0
 10 19  1  0
 19 20  2  0
 19 21  1  0
 21 22  1  0
 21 23  1  0
 23 24  2  0
  6 25  1  0
 25 26  1  0
 25 27  2  0
 27 28  1  0
 27  2  1  0
 23  7  1  0
 17 11  1  0
M  END
>  <cnnaffinity>  (1) 
4.41003

>  <plip>  (1) 
-0.07142857142857142

>  <filename>  (1) 
[H][c]1[n][c]([H])[c](-[c]2[c]([H])[n](-[n]3[c]([H])[n][c]([H])[c]3[H])[c](=[O])[n]([H])[c]2=[O])[c]([H])[c]1[H]

>  <combo1>  (1) 
-0.4113851607945332

$$$$
