
     RDKit          3D

 30 33  0  0  0  0  0  0  0  0999 V2000
    4.8330    1.3028   19.0956 C   0  0  0  0  0  0  0  0  0  0  0  0
    5.4399    1.2752   17.8350 C   0  0  0  0  0  0  0  0  0  0  0  0
    6.5999    0.6420   17.5852 N   0  0  0  0  0  0  0  0  0  0  0  0
    7.2058    0.0301   18.6039 C   0  0  0  0  0  0  0  0  0  0  0  0
    6.6725    0.0054   19.9016 C   0  0  0  0  0  0  0  0  0  0  0  0
    7.3745   -0.6830   20.9100 N   0  0  0  0  0  0  0  0  0  0  0  0
    6.8637   -1.1951   22.0511 C   0  0  0  0  0  0  0  0  0  0  0  0
    7.8837   -1.7728   22.7635 C   0  0  0  0  0  0  0  0  0  0  0  0
    7.8007   -2.4457   24.0646 C   0  0  0  0  0  0  0  0  0  0  0  0
    6.5880   -2.6738   24.7606 C   0  0  0  0  0  0  0  0  0  0  0  0
    6.5002   -3.2928   25.9605 N   0  0  0  0  0  0  0  0  0  0  0  0
    7.6411   -3.7357   26.4283 C   0  0  0  0  0  0  0  0  0  0  0  0
    7.7965   -4.3718   27.6172 O   0  0  0  0  0  0  0  0  0  0  0  0
    9.1219   -4.8873   27.6165 C   0  0  0  0  0  0  0  0  0  0  0  0
    9.8363   -4.3118   26.5171 O   0  0  0  0  0  0  0  0  0  0  0  0
    8.8969   -3.6461   25.7968 C   0  0  0  0  0  0  0  0  0  0  0  0
    9.0022   -2.9299   24.6452 C   0  0  0  0  0  0  0  0  0  0  0  0
    9.9628   -2.7126   24.1932 H   0  0  0  0  0  0  0  0  0  0  0  0
    9.6351   -4.5874   28.5226 H   0  0  0  0  0  0  0  0  0  0  0  0
    9.1048   -5.9824   27.5255 H   0  0  0  0  0  0  0  0  0  0  0  0
    5.6325   -2.3687   24.3377 H   0  0  0  0  0  0  0  0  0  0  0  0
    9.0101   -1.5651   21.9091 C   0  0  0  0  0  0  0  0  0  0  0  0
    8.6936   -0.9236   20.8019 N   0  0  0  0  0  0  0  0  0  0  0  0
   10.0349   -1.8736   22.0510 H   0  0  0  0  0  0  0  0  0  0  0  0
    5.8126   -1.1206   22.2383 H   0  0  0  0  0  0  0  0  0  0  0  0
    5.4601    0.6601   20.1610 C   0  0  0  0  0  0  0  0  0  0  0  0
    5.0353    0.6998   21.1669 H   0  0  0  0  0  0  0  0  0  0  0  0
    8.1563   -0.4651   18.4108 H   0  0  0  0  0  0  0  0  0  0  0  0
    4.9821    1.7811   16.9916 H   0  0  0  0  0  0  0  0  0  0  0  0
    3.8951    1.8303   19.2381 H   0  0  0  0  0  0  0  0  0  0  0  0
  1  2  2  0
  2  3  1  0
  3  4  2  0
  4  5  1  0
  5  6  1  0
  6  7  1  0
  7  8  2  0
  8  9  1  0
  9 10  2  0
 10 11  1  0
 11 12  2  0
 12 13  1  0
 13 14  1  0
 14 15  1  0
 15 16  1  0
 16 17  2  0
 17 18  1  0
 14 19  1  0
 14 20  1  0
 10 21  1  0
  8 22  1  0
 22 23  2  0
 22 24  1  0
  7 25  1  0
  5 26  2  0
 26 27  1  0
  4 28  1  0
  2 29  1  0
  1 30  1  0
 26  1  1  0
 23  6  1  0
 17  9  1  0
 16 12  1  0
M  END
>  <cnnaffinity>  (1) 
5.28211

>  <plip>  (1) 
-0.03571428571428571

>  <filename>  (1) 
[H][c]1[n][c]([H])[c](-[n]2[n][c]([H])[c](-[c]3[c]([H])[n][c]4[c]([c]3[H])[O][C]([H])([H])[O]4)[c]2[H])[c]([H])[c]1[H]

>  <combo1>  (1) 
-0.2361686393178169

$$$$
