
     RDKit          3D

 37 39  0  0  0  0  0  0  0  0999 V2000
    6.7681   -2.4774   21.3519 C   0  0  0  0  0  0  0  0  0  0  0  0
    7.4540   -0.8772   21.0986 S   0  0  0  0  0  0  0  0  0  0  0  0
    8.8765   -0.9251   20.8225 O   0  0  0  0  0  0  0  0  0  0  0  0
    6.9121   -0.1371   22.4789 N   0  0  0  0  0  0  0  0  0  0  0  0
    7.6254   -0.5389   23.5016 C   0  0  0  0  0  0  0  0  0  0  0  0
    8.4166   -1.4933   23.5457 O   0  0  0  0  0  0  0  0  0  0  0  0
    7.4500    0.3118   24.7729 C   0  0  0  0  0  0  0  0  0  0  0  0
    8.4173    1.4420   24.7117 C   0  0  0  0  0  0  0  0  0  0  0  0
    8.1719    2.7496   24.4032 C   0  0  0  0  0  0  0  0  0  0  0  0
    9.4395    3.3913   24.2367 C   0  0  0  0  0  0  0  0  0  0  0  0
    9.8242    4.7170   23.9576 C   0  0  0  0  0  0  0  0  0  0  0  0
   11.1757    4.9853   23.8065 C   0  0  0  0  0  0  0  0  0  0  0  0
   11.7162    6.6201   23.6040 Cl  0  0  0  0  0  0  0  0  0  0  0  0
   12.1541    3.9652   23.8840 C   0  0  0  0  0  0  0  0  0  0  0  0
   11.7907    2.6605   24.1946 C   0  0  0  0  0  0  0  0  0  0  0  0
   10.4273    2.3870   24.3888 C   0  0  0  0  0  0  0  0  0  0  0  0
    9.7719    1.2136   24.6895 N   0  0  0  0  0  0  0  0  0  0  0  0
   10.1774    0.2940   24.6188 H   0  0  0  0  0  0  0  0  0  0  0  0
   12.5463    1.8882   24.2956 H   0  0  0  0  0  0  0  0  0  0  0  0
   13.1916    4.2225   23.6999 H   0  0  0  0  0  0  0  0  0  0  0  0
    9.0835    5.5024   23.8593 H   0  0  0  0  0  0  0  0  0  0  0  0
    7.1950    3.1833   24.2474 H   0  0  0  0  0  0  0  0  0  0  0  0
    7.6223   -0.3534   25.6165 H   0  0  0  0  0  0  0  0  0  0  0  0
    6.4278    0.6891   24.8121 H   0  0  0  0  0  0  0  0  0  0  0  0
    6.5768   -0.0286   19.8839 C   0  0  0  0  0  0  0  0  0  0  0  0
    5.3793    0.6504   20.1053 C   0  0  0  0  0  0  0  0  0  0  0  0
    4.8251    1.2944   19.0060 C   0  0  0  0  0  0  0  0  0  0  0  0
    5.4950    1.2474   17.7783 C   0  0  0  0  0  0  0  0  0  0  0  0
    6.6663    0.6150   17.6012 N   0  0  0  0  0  0  0  0  0  0  0  0
    7.2140    0.0064   18.6469 C   0  0  0  0  0  0  0  0  0  0  0  0
    8.1877   -0.4623   18.4961 H   0  0  0  0  0  0  0  0  0  0  0  0
    5.0766    1.7391   16.9028 H   0  0  0  0  0  0  0  0  0  0  0  0
    3.9029    1.8560   19.0926 H   0  0  0  0  0  0  0  0  0  0  0  0
    4.9228    0.7041   21.0973 H   0  0  0  0  0  0  0  0  0  0  0  0
    6.8515   -3.0409   20.4283 H   0  0  0  0  0  0  0  0  0  0  0  0
    5.7367   -2.3673   21.6854 H   0  0  0  0  0  0  0  0  0  0  0  0
    7.4028   -2.8775   22.1382 H   0  0  0  0  0  0  0  0  0  0  0  0
  1  2  1  0
  2  3  2  0
  2  4  2  0
  4  5  1  0
  5  6  2  0
  5  7  1  0
  7  8  1  0
  8  9  2  0
  9 10  1  0
 10 11  2  0
 11 12  1  0
 12 13  1  0
 12 14  2  0
 14 15  1  0
 15 16  2  0
 16 17  1  0
 17 18  1  0
 15 19  1  0
 14 20  1  0
 11 21  1  0
  9 22  1  0
  7 23  1  0
  7 24  1  0
  2 25  1  0
 25 26  2  0
 26 27  1  0
 27 28  2  0
 28 29  1  0
 29 30  2  0
 30 31  1  0
 28 32  1  0
 27 33  1  0
 26 34  1  0
  1 35  1  0
  1 36  1  0
  1 37  1  0
 17  8  1  0
 30 25  1  0
 16 10  1  0
M  END
>  <cnnaffinity>  (1) 
5.43606

>  <plip>  (1) 
-0.10344827586206896

>  <filename>  (1) 
[H][c]1[n][c]([H])[c]([S](=[O])(=[N][C](=[O])[C]([H])([H])[c]2[c]([H])[c]3[c]([H])[c]([Cl])[c]([H])[c]([H])[c]3[n]2[H])[C]([H])([H])[H])[c]([H])[c]1[H]

>  <combo1>  (1) 
-0.5389183267187031

$$$$
