
     RDKit          3D

 41 43  0  0  0  0  0  0  0  0999 V2000
    4.8361    1.2465   19.1137 C   0  0  0  0  0  0  0  0  0  0  0  0
    5.3990    1.2965   17.8316 C   0  0  0  0  0  0  0  0  0  0  0  0
    6.5627    0.7010   17.5184 N   0  0  0  0  0  0  0  0  0  0  0  0
    7.2120    0.0547   18.4992 C   0  0  0  0  0  0  0  0  0  0  0  0
    6.7347   -0.0602   19.8320 C   0  0  0  0  0  0  0  0  0  0  0  0
    7.4043   -0.7818   20.8531 N   0  0  0  0  0  0  0  0  0  0  0  0
    8.7584   -0.6787   21.1039 C   0  0  0  0  0  0  0  0  0  0  0  0
    9.6265    0.1299   20.5527 N   0  0  0  0  0  0  0  0  0  0  0  0
   10.8598   -0.1808   21.0966 N   0  0  0  0  0  0  0  0  0  0  0  0
   10.6780   -1.1587   21.9296 C   0  0  0  0  0  0  0  0  0  0  0  0
    9.3606   -1.5252   21.9997 N   0  0  0  0  0  0  0  0  0  0  0  0
    8.7573   -2.4811   22.9275 C   0  0  0  0  0  0  0  0  0  0  0  0
    8.3055   -1.8280   24.2393 C   0  0  0  0  0  0  0  0  0  0  0  0
    7.5277   -2.7493   25.1982 C   0  0  0  0  0  0  0  0  0  0  0  0
    8.2736   -3.9975   25.7062 C   0  0  0  0  0  0  0  0  0  0  0  0
    7.5163   -4.7849   26.7937 C   0  0  0  0  0  0  0  0  0  0  0  0
    8.5910   -5.6155   27.5218 C   0  0  0  0  0  0  0  0  0  0  0  0
    9.9331   -4.8734   27.3260 C   0  0  0  0  0  0  0  0  0  0  0  0
    9.6411   -3.7123   26.3529 C   0  0  0  0  0  0  0  0  0  0  0  0
   10.4362   -3.5947   25.6053 H   0  0  0  0  0  0  0  0  0  0  0  0
    9.5877   -2.7703   26.9168 H   0  0  0  0  0  0  0  0  0  0  0  0
   10.3274   -4.4862   28.2714 H   0  0  0  0  0  0  0  0  0  0  0  0
   10.6903   -5.5570   26.9229 H   0  0  0  0  0  0  0  0  0  0  0  0
    8.6474   -6.6129   27.0726 H   0  0  0  0  0  0  0  0  0  0  0  0
    8.3568   -5.7501   28.5828 H   0  0  0  0  0  0  0  0  0  0  0  0
    7.0155   -4.1011   27.4959 H   0  0  0  0  0  0  0  0  0  0  0  0
    6.7337   -5.4211   26.3593 H   0  0  0  0  0  0  0  0  0  0  0  0
    8.4371   -4.6882   24.8600 H   0  0  0  0  0  0  0  0  0  0  0  0
    6.5888   -3.0675   24.7182 H   0  0  0  0  0  0  0  0  0  0  0  0
    7.2338   -2.1399   26.0695 H   0  0  0  0  0  0  0  0  0  0  0  0
    9.1879   -1.4229   24.7529 H   0  0  0  0  0  0  0  0  0  0  0  0
    7.6794   -0.9572   24.0106 H   0  0  0  0  0  0  0  0  0  0  0  0
    7.9225   -2.9762   22.4182 H   0  0  0  0  0  0  0  0  0  0  0  0
    9.5062   -3.2556   23.1325 H   0  0  0  0  0  0  0  0  0  0  0  0
   11.4657   -1.6674   22.4708 H   0  0  0  0  0  0  0  0  0  0  0  0
    6.8960   -0.8029   21.7273 H   0  0  0  0  0  0  0  0  0  0  0  0
    5.5114    0.5515   20.1254 C   0  0  0  0  0  0  0  0  0  0  0  0
    5.1054    0.4910   21.1365 H   0  0  0  0  0  0  0  0  0  0  0  0
    8.1691   -0.3931   18.2509 H   0  0  0  0  0  0  0  0  0  0  0  0
    4.9002    1.8441   17.0321 H   0  0  0  0  0  0  0  0  0  0  0  0
    3.9016    1.7666   19.3172 H   0  0  0  0  0  0  0  0  0  0  0  0
  1  2  2  0
  2  3  1  0
  3  4  2  0
  4  5  1  0
  5  6  1  0
  6  7  1  0
  7  8  2  0
  8  9  1  0
  9 10  2  0
 10 11  1  0
 11 12  1  0
 12 13  1  0
 13 14  1  0
 14 15  1  0
 15 16  1  0
 16 17  1  0
 17 18  1  0
 18 19  1  0
 19 20  1  0
 19 21  1  0
 18 22  1  0
 18 23  1  0
 17 24  1  0
 17 25  1  0
 16 26  1  0
 16 27  1  0
 15 28  1  0
 14 29  1  0
 14 30  1  0
 13 31  1  0
 13 32  1  0
 12 33  1  0
 12 34  1  0
 10 35  1  0
  6 36  1  0
  5 37  2  0
 37 38  1  0
  4 39  1  0
  2 40  1  0
  1 41  1  0
 37  1  1  0
 11  7  1  0
 19 15  1  0
M  END
>  <cnnaffinity>  (1) 
5.34257

>  <plip>  (1) 
-0.07142857142857142

>  <filename>  (1) 
[H][c]1[n][c]([H])[c]([N]([H])[c]2[n][n][c]([H])[n]2[C]([H])([H])[C]([H])([H])[C]([H])([H])[C]2([H])[C]([H])([H])[C]([H])([H])[C]([H])([H])[C]2([H])[H])[c]([H])[c]1[H]

>  <combo1>  (1) 
-0.46875109673597326

$$$$
