
     RDKit          3D

 35 38  0  0  0  0  0  0  0  0999 V2000
    4.9232    1.8236   16.9634 H   0  0  0  0  0  0  0  0  0  0  0  0
    5.3736    1.3074   17.8118 C   0  0  0  0  0  0  0  0  0  0  0  0
    6.5306    0.6771   17.5598 N   0  0  0  0  0  0  0  0  0  0  0  0
    7.1238    0.0490   18.5809 C   0  0  0  0  0  0  0  0  0  0  0  0
    8.0879   -0.4062   18.3561 H   0  0  0  0  0  0  0  0  0  0  0  0
    6.6043   -0.0222   19.8883 C   0  0  0  0  0  0  0  0  0  0  0  0
    7.3993   -0.6871   21.0123 C   0  0  0  0  0  0  0  0  0  0  0  0
    6.7835   -0.7917   21.9118 H   0  0  0  0  0  0  0  0  0  0  0  0
    7.7220   -1.7010   20.7474 H   0  0  0  0  0  0  0  0  0  0  0  0
    8.6684    0.0583   21.3344 C   0  0  0  0  0  0  0  0  0  0  0  0
    9.8643   -0.3901   21.0789 N   0  0  0  0  0  0  0  0  0  0  0  0
   10.7634    0.6150   21.3405 N   0  0  0  0  0  0  0  0  0  0  0  0
   10.0871    1.6507   21.7388 C   0  0  0  0  0  0  0  0  0  0  0  0
   10.5099    2.6012   22.0364 H   0  0  0  0  0  0  0  0  0  0  0  0
    8.7486    1.3563   21.7809 N   0  0  0  0  0  0  0  0  0  0  0  0
    7.7282    2.2289   22.1844 C   0  0  0  0  0  0  0  0  0  0  0  0
    7.7976    3.4408   21.7135 N   0  0  0  0  0  0  0  0  0  0  0  0
    6.7584    4.2895   22.0000 C   0  0  0  0  0  0  0  0  0  0  0  0
    6.7524    5.5762   21.3883 C   0  0  0  0  0  0  0  0  0  0  0  0
    7.5543    5.7851   20.6875 H   0  0  0  0  0  0  0  0  0  0  0  0
    5.7590    6.4836   21.6800 C   0  0  0  0  0  0  0  0  0  0  0  0
    5.7527    7.4657   21.2118 H   0  0  0  0  0  0  0  0  0  0  0  0
    4.7252    6.1520   22.5994 C   0  0  0  0  0  0  0  0  0  0  0  0
    3.9586    6.8876   22.8228 H   0  0  0  0  0  0  0  0  0  0  0  0
    4.6938    4.9115   23.1943 C   0  0  0  0  0  0  0  0  0  0  0  0
    3.9095    4.6504   23.9017 H   0  0  0  0  0  0  0  0  0  0  0  0
    5.6979    3.9453   22.8994 C   0  0  0  0  0  0  0  0  0  0  0  0
    5.7338    2.6352   23.4684 C   0  0  0  0  0  0  0  0  0  0  0  0
    4.9758    2.3602   24.1967 H   0  0  0  0  0  0  0  0  0  0  0  0
    6.7382    1.7672   23.1053 C   0  0  0  0  0  0  0  0  0  0  0  0
    6.8445    0.7777   23.5317 H   0  0  0  0  0  0  0  0  0  0  0  0
    5.4039    0.6555   20.1300 C   0  0  0  0  0  0  0  0  0  0  0  0
    5.0033    0.6763   21.1442 H   0  0  0  0  0  0  0  0  0  0  0  0
    4.7699    1.3243   19.0728 C   0  0  0  0  0  0  0  0  0  0  0  0
    3.8410    1.8693   19.2084 H   0  0  0  0  0  0  0  0  0  0  0  0
  1  2  1  0
  2  3  2  0
  3  4  1  0
  4  5  1  0
  4  6  2  0
  6  7  1  0
  7  8  1  0
  7  9  1  0
  7 10  1  0
 10 11  2  0
 11 12  1  0
 12 13  2  0
 13 14  1  0
 13 15  1  0
 15 16  1  0
 16 17  2  0
 17 18  1  0
 18 19  2  0
 19 20  1  0
 19 21  1  0
 21 22  1  0
 21 23  2  0
 23 24  1  0
 23 25  1  0
 25 26  1  0
 25 27  2  0
 27 28  1  0
 28 29  1  0
 28 30  2  0
 30 31  1  0
  6 32  1  0
 32 33  1  0
 32 34  2  0
 34 35  1  0
 34  2  1  0
 15 10  1  0
 30 16  1  0
 27 18  1  0
M  END
>  <cnnaffinity>  (1) 
5.2125

>  <plip>  (1) 
-0.10714285714285714

>  <filename>  (1) 
[H][c]1[n][c]([H])[c]([C]([H])([H])[c]2[n][n][c]([H])[n]2-[c]2[n][c]3[c]([H])[c]([H])[c]([H])[c]([H])[c]3[c]([H])[c]2[H])[c]([H])[c]1[H]

>  <combo1>  (1) 
-0.6479076529298229

$$$$
