
     RDKit          3D

 38 40  0  0  0  0  0  0  0  0999 V2000
    8.3257    0.6175   23.6597 O   0  0  0  0  0  0  0  0  0  0  0  0
    9.2514   -0.1096   22.8029 S   0  0  0  0  0  0  0  0  0  0  0  0
   10.4476    0.5651   22.3447 O   0  0  0  0  0  0  0  0  0  0  0  0
    8.4874   -0.2870   21.3244 N   0  0  0  0  0  0  0  0  0  0  0  0
    7.0414   -0.5833   21.2603 C   0  0  0  0  0  0  0  0  0  0  0  0
    6.9273   -2.1122   21.0534 C   0  0  0  0  0  0  0  0  0  0  0  0
    5.5903   -2.5686   21.1873 O   0  0  0  0  0  0  0  0  0  0  0  0
    5.5891   -3.4990   20.9274 H   0  0  0  0  0  0  0  0  0  0  0  0
    7.3271   -2.3137   20.0518 H   0  0  0  0  0  0  0  0  0  0  0  0
    7.6017   -2.5974   21.7749 H   0  0  0  0  0  0  0  0  0  0  0  0
    6.4815    0.2176   20.1068 C   0  0  0  0  0  0  0  0  0  0  0  0
    5.2348    0.8610   20.1341 C   0  0  0  0  0  0  0  0  0  0  0  0
    4.7478    1.4495   18.9624 C   0  0  0  0  0  0  0  0  0  0  0  0
    5.5208    1.3725   17.8011 C   0  0  0  0  0  0  0  0  0  0  0  0
    6.7230    0.7834   17.7557 N   0  0  0  0  0  0  0  0  0  0  0  0
    7.1877    0.2473   18.8915 C   0  0  0  0  0  0  0  0  0  0  0  0
    8.1801   -0.1924   18.8109 H   0  0  0  0  0  0  0  0  0  0  0  0
    5.1557    1.8030   16.8694 H   0  0  0  0  0  0  0  0  0  0  0  0
    3.7922    1.9621   18.9406 H   0  0  0  0  0  0  0  0  0  0  0  0
    4.6522    0.9072   21.0555 H   0  0  0  0  0  0  0  0  0  0  0  0
    6.5175   -0.3148   22.1914 H   0  0  0  0  0  0  0  0  0  0  0  0
    8.7764    0.6407   21.0114 H   0  0  0  0  0  0  0  0  0  0  0  0
    9.6464   -1.7905   23.5327 C   0  0  0  0  0  0  0  0  0  0  0  0
   10.8361   -2.3118   23.3432 N   0  0  0  0  0  0  0  0  0  0  0  0
   11.1439   -3.5197   23.8933 C   0  0  0  0  0  0  0  0  0  0  0  0
   10.2497   -4.2758   24.5907 C   0  0  0  0  0  0  0  0  0  0  0  0
    8.9214   -3.7880   24.7603 C   0  0  0  0  0  0  0  0  0  0  0  0
    7.9117   -4.5848   25.3712 C   0  0  0  0  0  0  0  0  0  0  0  0
    6.6412   -4.0890   25.5362 C   0  0  0  0  0  0  0  0  0  0  0  0
    6.3314   -2.7714   25.1171 C   0  0  0  0  0  0  0  0  0  0  0  0
    7.2894   -1.9749   24.5185 C   0  0  0  0  0  0  0  0  0  0  0  0
    8.6009   -2.4740   24.2756 C   0  0  0  0  0  0  0  0  0  0  0  0
    7.0421   -0.9529   24.2708 H   0  0  0  0  0  0  0  0  0  0  0  0
    5.3294   -2.3820   25.2595 H   0  0  0  0  0  0  0  0  0  0  0  0
    5.8670   -4.7093   25.9795 H   0  0  0  0  0  0  0  0  0  0  0  0
    8.1721   -5.5971   25.6766 H   0  0  0  0  0  0  0  0  0  0  0  0
   10.5410   -5.2323   25.0097 H   0  0  0  0  0  0  0  0  0  0  0  0
   12.1691   -3.8385   23.7479 H   0  0  0  0  0  0  0  0  0  0  0  0
  1  2  2  0
  2  3  2  0
  2  4  1  0
  4  5  1  0
  5  6  1  0
  6  7  1  0
  7  8  1  0
  6  9  1  0
  6 10  1  0
  5 11  1  0
 11 12  2  0
 12 13  1  0
 13 14  2  0
 14 15  1  0
 15 16  2  0
 16 17  1  0
 14 18  1  0
 13 19  1  0
 12 20  1  0
  5 21  1  0
  4 22  1  0
  2 23  1  0
 23 24  2  0
 24 25  1  0
 25 26  2  0
 26 27  1  0
 27 28  2  0
 28 29  1  0
 29 30  2  0
 30 31  1  0
 31 32  2  0
 31 33  1  0
 30 34  1  0
 29 35  1  0
 28 36  1  0
 26 37  1  0
 25 38  1  0
 16 11  1  0
 32 23  1  0
 32 27  1  0
M  END
>  <cnnaffinity>  (1) 
5.25409

>  <plip>  (1) 
-0.10714285714285714

>  <filename>  (1) 
[H][O][C]([H])([H])[C]([H])([c]1[c]([H])[n][c]([H])[c]([H])[c]1[H])[N]([H])[S](=[O])(=[O])[c]1[n][c]([H])[c]([H])[c]2[c]([H])[c]([H])[c]([H])[c]([H])[c]12

>  <combo1>  (1) 
-0.5696930649569083

$$$$
