
     RDKit          3D

 34 37  0  0  0  0  0  0  0  0999 V2000
    5.0075    1.8046   16.9640 H   0  0  0  0  0  0  0  0  0  0  0  0
    5.4656    1.3013   17.8114 C   0  0  0  0  0  0  0  0  0  0  0  0
    6.6195    0.6592   17.5570 N   0  0  0  0  0  0  0  0  0  0  0  0
    7.2121    0.0190   18.5649 C   0  0  0  0  0  0  0  0  0  0  0  0
    8.1235   -0.5352   18.3449 H   0  0  0  0  0  0  0  0  0  0  0  0
    6.7075    0.0129   19.8746 C   0  0  0  0  0  0  0  0  0  0  0  0
    7.4403   -0.6556   20.8920 N   0  0  0  0  0  0  0  0  0  0  0  0
    7.9608   -1.8806   20.6841 N   0  0  0  0  0  0  0  0  0  0  0  0
    8.5752   -2.2432   21.7611 N   0  0  0  0  0  0  0  0  0  0  0  0
    8.4590   -1.2535   22.6860 C   0  0  0  0  0  0  0  0  0  0  0  0
    8.9172   -1.3367   23.6571 H   0  0  0  0  0  0  0  0  0  0  0  0
    7.7317   -0.2131   22.1562 C   0  0  0  0  0  0  0  0  0  0  0  0
    7.2946    1.1031   22.6544 C   0  0  1  0  0  0  0  0  0  0  0  0
    7.4674    1.9118   21.9358 H   0  0  0  0  0  0  0  0  0  0  0  0
    6.0622    1.2463   23.5143 C   0  0  0  0  0  0  0  0  0  0  0  0
    5.5339    0.3330   23.7826 H   0  0  0  0  0  0  0  0  0  0  0  0
    5.4344    2.1107   23.3176 H   0  0  0  0  0  0  0  0  0  0  0  0
    7.4202    1.4824   24.1151 C   0  0  2  0  0  0  0  0  0  0  0  0
    7.7668    0.6829   24.7708 H   0  0  0  0  0  0  0  0  0  0  0  0
    7.8649    2.8641   24.4912 C   0  0  0  0  0  0  0  0  0  0  0  0
    8.6274    3.0888   25.6508 C   0  0  0  0  0  0  0  0  0  0  0  0
    8.9338    2.2586   26.2874 H   0  0  0  0  0  0  0  0  0  0  0  0
    8.9985    4.3819   26.0281 C   0  0  0  0  0  0  0  0  0  0  0  0
    9.5820    4.5342   26.9319 H   0  0  0  0  0  0  0  0  0  0  0  0
    8.6250    5.4793   25.2425 C   0  0  0  0  0  0  0  0  0  0  0  0
    8.9216    6.4830   25.5242 H   0  0  0  0  0  0  0  0  0  0  0  0
    7.8753    5.2719   24.0800 C   0  0  0  0  0  0  0  0  0  0  0  0
    7.5750    6.1170   23.4642 H   0  0  0  0  0  0  0  0  0  0  0  0
    7.5021    3.9794   23.7069 C   0  0  0  0  0  0  0  0  0  0  0  0
    6.9040    3.8563   22.8055 H   0  0  0  0  0  0  0  0  0  0  0  0
    5.4944    0.6625   20.1335 C   0  0  0  0  0  0  0  0  0  0  0  0
    5.0488    0.6470   21.1262 H   0  0  0  0  0  0  0  0  0  0  0  0
    4.8596    1.3104   19.0705 C   0  0  0  0  0  0  0  0  0  0  0  0
    3.9105    1.8190   19.2044 H   0  0  0  0  0  0  0  0  0  0  0  0
  1  2  1  0
  2  3  2  0
  3  4  1  0
  4  5  1  0
  4  6  2  0
  6  7  1  0
  7  8  1  0
  8  9  2  0
  9 10  1  0
 10 11  1  0
 10 12  2  0
 12 13  1  0
 13 14  1  6
 13 15  1  0
 15 16  1  0
 15 17  1  0
 15 18  1  0
 18 19  1  1
 18 20  1  0
 20 21  2  0
 21 22  1  0
 21 23  1  0
 23 24  1  0
 23 25  2  0
 25 26  1  0
 25 27  1  0
 27 28  1  0
 27 29  2  0
 29 30  1  0
  6 31  1  0
 31 32  1  0
 31 33  2  0
 33 34  1  0
 33  2  1  0
 12  7  1  0
 18 13  1  0
 29 20  1  0
M  END
>  <cnnaffinity>  (1) 
5.13015

>  <plip>  (1) 
-0.06896551724137931

>  <filename>  (1) 
[H][c]1[n][c]([H])[c](-[n]2[n][n][c]([H])[c]2[C@@]2([H])[C]([H])([H])[C@]2([H])[c]2[c]([H])[c]([H])[c]([H])[c]([H])[c]2[H])[c]([H])[c]1[H]

>  <combo1>  (1) 
-0.4495893607657203

$$$$
