
     RDKit          3D

 21 21  0  0  0  0  0  0  0  0999 V2000
    7.2060   -1.0782   26.2753 H   0  0  0  0  0  0  0  0  0  0  0  0
    7.3197   -1.5655   25.3813 N   0  0  0  0  0  0  0  0  0  0  0  0
    7.1666   -0.7339   24.4475 N   0  0  0  0  0  4  0  0  0  0  0  0
    7.3001   -0.9963   23.2173 N   0  0  0  0  0  0  0  0  0  0  0  0
    7.0645   -0.0824   22.2925 N   0  0  0  0  0  0  0  0  0  0  0  0
    7.4530   -0.5293   21.0165 N   0  0  0  0  0  0  0  0  0  0  0  0
    7.4352   -1.5420   21.1178 H   0  0  0  0  0  0  0  0  0  0  0  0
    6.7025   -0.0226   19.8902 C   0  0  0  0  0  0  0  0  0  0  0  0
    7.2101   -0.0323   18.5701 C   0  0  0  0  0  0  0  0  0  0  0  0
    8.1366   -0.5667   18.3377 H   0  0  0  0  0  0  0  0  0  0  0  0
    6.6131    0.5950   17.5477 N   0  0  0  0  0  0  0  0  0  0  0  0
    5.4636    1.2548   17.7842 C   0  0  0  0  0  0  0  0  0  0  0  0
    5.0378    1.8146   16.9514 H   0  0  0  0  0  0  0  0  0  0  0  0
    4.8299    1.2404   19.0255 C   0  0  0  0  0  0  0  0  0  0  0  0
    3.8997    1.7786   19.1776 H   0  0  0  0  0  0  0  0  0  0  0  0
    5.4411    0.5619   20.0818 C   0  0  0  0  0  0  0  0  0  0  0  0
    4.9924    0.4880   21.0717 H   0  0  0  0  0  0  0  0  0  0  0  0
    7.3213    1.3258   22.5885 C   0  0  0  0  0  0  0  0  0  0  0  0
    8.2517    1.4016   23.1449 H   0  0  0  0  0  0  0  0  0  0  0  0
    7.4229    1.8379   21.6347 H   0  0  0  0  0  0  0  0  0  0  0  0
    6.5080    1.7690   23.1614 H   0  0  0  0  0  0  0  0  0  0  0  0
  1  2  1  0
  2  3  2  0
  3  4  2  0
  4  5  1  0
  5  6  1  0
  6  7  1  0
  6  8  1  0
  8  9  2  0
  9 10  1  0
  9 11  1  0
 11 12  2  0
 12 13  1  0
 12 14  1  0
 14 15  1  0
 14 16  2  0
 16 17  1  0
  5 18  1  0
 18 19  1  0
 18 20  1  0
 18 21  1  0
 16  8  1  0
M  CHG  1   3   1
M  END
>  <cnnaffinity>  (1) 
4.06563

>  <plip>  (1) 
-0.03571428571428571

>  <filename>  (1) 
[H][N]=[N+]=[N][N]([N]([H])[c]1[c]([H])[n][c]([H])[c]([H])[c]1[H])[C]([H])([H])[H]

>  <combo1>  (1) 
-0.29301584418729343

$$$$
