
     RDKit          3D

 36 37  0  0  0  0  0  0  0  0999 V2000
    7.7105   -0.2025   27.1077 C   0  0  0  0  0  0  0  0  0  0  0  0
    7.7193   -1.1266   25.9061 C   0  0  0  0  0  0  0  0  0  0  0  0
    6.9463   -2.2455   26.2148 F   0  0  0  0  0  0  0  0  0  0  0  0
    9.1015   -1.6213   25.5147 C   0  0  0  0  0  0  0  0  0  0  0  0
   10.0159   -0.5414   24.9328 C   0  0  0  0  0  0  0  0  0  0  0  0
    9.4881    0.0418   23.6950 N   0  0  0  0  0  0  0  0  0  0  0  0
    8.8094    1.2332   23.6195 C   0  0  0  0  0  0  0  0  0  0  0  0
    8.7030    2.0095   24.5407 O   0  0  0  0  0  0  0  0  0  0  0  0
    8.2340    1.4020   22.2310 C   0  0  0  0  0  0  0  0  0  0  0  0
    8.6061    0.1149   21.4898 C   0  0  0  0  0  0  0  0  0  0  0  0
    7.4100   -0.7206   20.9825 C   0  0  0  0  0  0  0  0  0  0  0  0
    6.6475   -0.0066   19.8970 C   0  0  0  0  0  0  0  0  0  0  0  0
    5.4330    0.6505   20.1495 C   0  0  0  0  0  0  0  0  0  0  0  0
    4.8007    1.3155   19.0969 C   0  0  0  0  0  0  0  0  0  0  0  0
    5.3956    1.2997   17.8312 C   0  0  0  0  0  0  0  0  0  0  0  0
    6.5590    0.6859   17.5703 N   0  0  0  0  0  0  0  0  0  0  0  0
    7.1593    0.0642   18.5895 C   0  0  0  0  0  0  0  0  0  0  0  0
    8.1105   -0.4157   18.3653 H   0  0  0  0  0  0  0  0  0  0  0  0
    4.9169    1.7891   16.9875 H   0  0  0  0  0  0  0  0  0  0  0  0
    3.8691    1.8481   19.2499 H   0  0  0  0  0  0  0  0  0  0  0  0
    5.0001    0.6349   21.1562 H   0  0  0  0  0  0  0  0  0  0  0  0
    7.7744   -1.6931   20.6233 H   0  0  0  0  0  0  0  0  0  0  0  0
    6.7446   -0.9269   21.8321 H   0  0  0  0  0  0  0  0  0  0  0  0
    9.4286   -0.6579   22.5128 C   0  0  0  0  0  0  0  0  0  0  0  0
    9.9415   -1.7374   22.3413 O   0  0  0  0  0  0  0  0  0  0  0  0
    9.2737    0.3119   20.6462 H   0  0  0  0  0  0  0  0  0  0  0  0
    8.6192    2.3183   21.7821 H   0  0  0  0  0  0  0  0  0  0  0  0
    7.1569    1.5589   22.3279 H   0  0  0  0  0  0  0  0  0  0  0  0
   10.9962   -0.9653   24.7133 H   0  0  0  0  0  0  0  0  0  0  0  0
   10.1728    0.2759   25.6402 H   0  0  0  0  0  0  0  0  0  0  0  0
    9.0042   -2.4319   24.7872 H   0  0  0  0  0  0  0  0  0  0  0  0
    9.5576   -2.0593   26.4097 H   0  0  0  0  0  0  0  0  0  0  0  0
    7.2408   -0.6396   25.0490 H   0  0  0  0  0  0  0  0  0  0  0  0
    8.2284    0.7332   26.8822 H   0  0  0  0  0  0  0  0  0  0  0  0
    6.6812    0.0345   27.3911 H   0  0  0  0  0  0  0  0  0  0  0  0
    8.2004   -0.6795   27.9630 H   0  0  0  0  0  0  0  0  0  0  0  0
  1  2  1  0
  2  3  1  0
  2  4  1  0
  4  5  1  0
  5  6  1  0
  6  7  1  0
  7  8  2  0
  7  9  1  0
  9 10  1  0
 10 11  1  0
 11 12  1  0
 12 13  2  0
 13 14  1  0
 14 15  2  0
 15 16  1  0
 16 17  2  0
 17 18  1  0
 15 19  1  0
 14 20  1  0
 13 21  1  0
 11 22  1  0
 11 23  1  0
 10 24  1  0
 24 25  2  0
 10 26  1  0
  9 27  1  0
  9 28  1  0
  5 29  1  0
  5 30  1  0
  4 31  1  0
  4 32  1  0
  2 33  1  0
  1 34  1  0
  1 35  1  0
  1 36  1  0
 24  6  1  0
 17 12  1  0
M  END
>  <cnnaffinity>  (1) 
4.81758

>  <plip>  (1) 
-0.03571428571428571

>  <filename>  (1) 
[H][c]1[n][c]([H])[c]([C]([H])([H])[C]2([H])[C](=[O])[N]([C]([H])([H])[C]([H])([H])[C]([H])([F])[C]([H])([H])[H])[C](=[O])[C]2([H])[H])[c]([H])[c]1[H]

>  <combo1>  (1) 
-0.21699637857413118

$$$$
