
     RDKit          3D

 27 29  0  0  0  0  0  0  0  0999 V2000
    7.6738   -6.3305   24.6270 H   0  0  0  0  0  0  0  0  0  0  0  0
    7.2934   -5.3323   24.4459 C   0  0  0  0  0  0  0  0  0  0  0  0
    6.3106   -4.6282   24.9911 C   0  0  0  0  0  0  0  0  0  0  0  0
    5.5775   -4.8894   25.7520 H   0  0  0  0  0  0  0  0  0  0  0  0
    6.3305   -3.2407   24.4252 C   0  0  0  0  0  0  0  0  0  0  0  0
    5.6932   -2.3011   24.8078 O   0  0  0  0  0  0  0  0  0  0  0  0
    7.3058   -3.2761   23.3819 N   0  0  0  0  0  0  0  0  0  0  0  0
    7.6006   -2.2461   22.4963 N   0  0  0  0  0  0  0  0  0  0  0  0
    8.7886   -1.5018   22.5244 C   0  0  0  0  0  0  0  0  0  0  0  0
    9.6556   -1.5333   23.3509 O   0  0  0  0  0  0  0  0  0  0  0  0
    8.6882   -0.6141   21.2909 C   0  0  0  0  0  0  0  0  0  0  0  0
    9.5279    0.1239   20.8481 O   0  0  0  0  0  0  0  0  0  0  0  0
    7.4332   -0.8277   20.7472 N   0  0  0  0  0  0  0  0  0  0  0  0
    6.7780   -0.0231   19.7428 C   0  0  0  0  0  0  0  0  0  0  0  0
    7.2600    0.1118   18.4207 C   0  0  0  0  0  0  0  0  0  0  0  0
    8.2108   -0.3442   18.1561 H   0  0  0  0  0  0  0  0  0  0  0  0
    6.5968    0.7658   17.4573 N   0  0  0  0  0  0  0  0  0  0  0  0
    5.4294    1.3445   17.7857 C   0  0  0  0  0  0  0  0  0  0  0  0
    4.9106    1.8695   16.9850 H   0  0  0  0  0  0  0  0  0  0  0  0
    4.8842    1.3002   19.0743 C   0  0  0  0  0  0  0  0  0  0  0  0
    3.9436    1.8044   19.2804 H   0  0  0  0  0  0  0  0  0  0  0  0
    5.5718    0.6039   20.0756 C   0  0  0  0  0  0  0  0  0  0  0  0
    5.1851    0.5459   21.0958 H   0  0  0  0  0  0  0  0  0  0  0  0
    6.8111   -1.8978   21.3769 C   0  0  0  0  0  0  0  0  0  0  0  0
    5.8115   -2.4456   21.0038 O   0  0  0  0  0  0  0  0  0  0  0  0
    7.9847   -4.5213   23.4135 C   0  0  0  0  0  0  0  0  0  0  0  0
    8.9126   -4.8748   22.7443 O   0  0  0  0  0  0  0  0  0  0  0  0
  1  2  1  0
  2  3  2  0
  3  4  1  0
  3  5  1  0
  5  6  2  0
  5  7  1  0
  7  8  1  0
  8  9  1  0
  9 10  2  0
  9 11  1  0
 11 12  2  0
 11 13  1  0
 13 14  1  0
 14 15  2  0
 15 16  1  0
 15 17  1  0
 17 18  2  0
 18 19  1  0
 18 20  1  0
 20 21  1  0
 20 22  2  0
 22 23  1  0
 13 24  1  0
 24 25  2  0
  7 26  1  0
 26 27  2  0
 26  2  1  0
 24  8  1  0
 22 14  1  0
M  END
>  <cnnaffinity>  (1) 
4.96457

>  <plip>  (1) 
-0.14285714285714285

>  <filename>  (1) 
[H][C]1=[C]([H])[C](=[O])[N]([N]2[C](=[O])[C](=[O])[N]([c]3[c]([H])[n][c]([H])[c]([H])[c]3[H])[C]2=[O])[C]1=[O]

>  <combo1>  (1) 
-0.8260154339335897

$$$$
