
     RDKit          3D

 39 41  0  0  0  0  0  0  0  0999 V2000
    7.9382    0.7404   25.2430 O   0  0  0  0  0  0  0  0  0  0  0  0
    8.9578    0.1325   24.4610 C   0  0  0  0  0  0  0  0  0  0  0  0
   10.1853    0.9972   24.2115 C   0  0  0  0  0  0  0  0  0  0  0  0
   11.3600    0.7447   24.9400 C   0  0  0  0  0  0  0  0  0  0  0  0
   12.5492    1.4044   24.6397 C   0  0  0  0  0  0  0  0  0  0  0  0
   12.5698    2.4098   23.6728 C   0  0  0  0  0  0  0  0  0  0  0  0
   11.4056    2.7050   22.9608 C   0  0  0  0  0  0  0  0  0  0  0  0
   10.2161    1.9842   23.1942 C   0  0  0  0  0  0  0  0  0  0  0  0
    9.0938    2.1314   22.1860 C   0  0  0  0  0  0  0  0  0  0  0  0
    9.4504    1.4332   20.8637 C   0  0  0  0  0  0  0  0  0  0  0  0
    9.6235   -0.0210   20.9520 N   0  0  0  0  0  0  0  0  0  0  0  0
   10.7521   -0.7622   21.2396 C   0  0  0  0  0  0  0  0  0  0  0  0
   10.4451   -1.9873   21.5607 N   0  0  0  0  0  0  0  0  0  0  0  0
    9.0731   -2.0908   21.5188 N   0  0  0  0  0  0  0  0  0  0  0  0
    8.6221   -0.9289   21.1307 C   0  0  0  0  0  0  0  0  0  0  0  0
    7.2909   -0.6408   21.0022 N   0  0  0  0  0  0  0  0  0  0  0  0
    6.6638   -0.0273   19.8842 C   0  0  0  0  0  0  0  0  0  0  0  0
    5.4477    0.6146   20.1292 C   0  0  0  0  0  0  0  0  0  0  0  0
    4.8138    1.2859   19.0799 C   0  0  0  0  0  0  0  0  0  0  0  0
    5.4089    1.2864   17.8109 C   0  0  0  0  0  0  0  0  0  0  0  0
    6.5634    0.6528   17.5438 N   0  0  0  0  0  0  0  0  0  0  0  0
    7.1702    0.0182   18.5617 C   0  0  0  0  0  0  0  0  0  0  0  0
    8.1076   -0.4794   18.3259 H   0  0  0  0  0  0  0  0  0  0  0  0
    4.9370    1.8081   16.9810 H   0  0  0  0  0  0  0  0  0  0  0  0
    3.8745    1.8048   19.2410 H   0  0  0  0  0  0  0  0  0  0  0  0
    5.0494    0.5906   21.1450 H   0  0  0  0  0  0  0  0  0  0  0  0
    6.7552   -1.3778   21.4374 H   0  0  0  0  0  0  0  0  0  0  0  0
   11.7690   -0.3873   21.1681 H   0  0  0  0  0  0  0  0  0  0  0  0
   10.3954    1.8461   20.4907 H   0  0  0  0  0  0  0  0  0  0  0  0
    8.6540    1.6285   20.1427 H   0  0  0  0  0  0  0  0  0  0  0  0
    8.1358    1.7334   22.5417 H   0  0  0  0  0  0  0  0  0  0  0  0
    8.9285    3.1944   21.9624 H   0  0  0  0  0  0  0  0  0  0  0  0
   11.4280    3.4638   22.1767 H   0  0  0  0  0  0  0  0  0  0  0  0
   13.4993    2.9256   23.4499 H   0  0  0  0  0  0  0  0  0  0  0  0
   13.4613    1.0938   25.1329 H   0  0  0  0  0  0  0  0  0  0  0  0
   11.3463    0.0015   25.7375 H   0  0  0  0  0  0  0  0  0  0  0  0
    9.2504   -0.7605   25.0265 H   0  0  0  0  0  0  0  0  0  0  0  0
    8.5573   -0.2189   23.4946 H   0  0  0  0  0  0  0  0  0  0  0  0
    7.8535    1.6572   24.9533 H   0  0  0  0  0  0  0  0  0  0  0  0
  1  2  1  0
  2  3  1  0
  3  4  2  0
  4  5  1  0
  5  6  2  0
  6  7  1  0
  7  8  2  0
  8  9  1  0
  9 10  1  0
 10 11  1  0
 11 12  1  0
 12 13  2  0
 13 14  1  0
 14 15  2  0
 15 16  1  0
 16 17  1  0
 17 18  2  0
 18 19  1  0
 19 20  2  0
 20 21  1  0
 21 22  2  0
 22 23  1  0
 20 24  1  0
 19 25  1  0
 18 26  1  0
 16 27  1  0
 12 28  1  0
 10 29  1  0
 10 30  1  0
  9 31  1  0
  9 32  1  0
  7 33  1  0
  6 34  1  0
  5 35  1  0
  4 36  1  0
  2 37  1  0
  2 38  1  0
  1 39  1  0
  8  3  1  0
 15 11  1  0
 22 17  1  0
M  END
>  <cnnaffinity>  (1) 
5.44765

>  <plip>  (1) 
-0.06896551724137931

>  <filename>  (1) 
[H][O][C]([H])([H])[c]1[c]([H])[c]([H])[c]([H])[c]([H])[c]1[C]([H])([H])[C]([H])([H])[n]1[c]([H])[n][n][c]1[N]([H])[c]1[c]([H])[n][c]([H])[c]([H])[c]1[H]

>  <combo1>  (1) 
-0.42402244598990163

$$$$
