
     RDKit          3D

 39 41  0  0  0  0  0  0  0  0999 V2000
   10.1266   -2.3892   21.4165 H   0  0  0  0  0  0  0  0  0  0  0  0
    9.1740   -1.9335   21.6955 C   0  0  0  0  0  0  0  0  0  0  0  0
    8.5292   -1.2973   20.7163 N   0  0  0  0  0  0  0  0  0  0  0  0
    7.3859   -0.7029   21.0479 C   0  0  0  0  0  0  0  0  0  0  0  0
    6.6538   -0.0086   19.9748 C   0  0  0  0  0  0  0  0  0  0  0  0
    7.1909    0.0192   18.6775 C   0  0  0  0  0  0  0  0  0  0  0  0
    8.1396   -0.4564   18.4395 H   0  0  0  0  0  0  0  0  0  0  0  0
    6.5991    0.6289   17.6461 N   0  0  0  0  0  0  0  0  0  0  0  0
    5.4395    1.2555   17.8809 C   0  0  0  0  0  0  0  0  0  0  0  0
    4.9905    1.7540   17.0275 H   0  0  0  0  0  0  0  0  0  0  0  0
    4.8208    1.2880   19.1341 C   0  0  0  0  0  0  0  0  0  0  0  0
    3.8897    1.8265   19.2581 H   0  0  0  0  0  0  0  0  0  0  0  0
    5.4302    0.6427   20.2042 C   0  0  0  0  0  0  0  0  0  0  0  0
    4.9778    0.6460   21.1990 H   0  0  0  0  0  0  0  0  0  0  0  0
    6.8486   -0.6747   22.2632 N   0  0  0  0  0  0  0  0  0  0  0  0
    7.4680   -1.3777   23.2072 C   0  0  0  0  0  0  0  0  0  0  0  0
    6.8533   -1.4306   24.4278 N   0  0  0  0  0  0  0  0  0  0  0  0
    6.2312   -0.2296   25.0044 C   0  0  0  0  0  0  0  0  0  0  0  0
    5.8807    0.4107   24.1895 H   0  0  0  0  0  0  0  0  0  0  0  0
    6.9723    0.3333   25.6003 H   0  0  0  0  0  0  0  0  0  0  0  0
    5.0503   -0.5820   25.9240 C   0  0  0  0  0  0  0  0  0  0  0  0
    4.2295   -0.9939   25.3034 H   0  0  0  0  0  0  0  0  0  0  0  0
    4.6990    0.3492   26.3840 H   0  0  0  0  0  0  0  0  0  0  0  0
    5.4362   -1.5116   26.9972 N   0  0  0  0  0  0  0  0  0  0  0  0
    4.3485   -1.7749   27.9495 C   0  0  0  0  0  0  0  0  0  0  0  0
    3.6232   -2.5204   27.5625 H   0  0  0  0  0  0  0  0  0  0  0  0
    3.7774   -0.8460   28.0806 H   0  0  0  0  0  0  0  0  0  0  0  0
    4.8715   -2.2172   29.3157 C   0  0  0  0  0  0  0  0  0  0  0  0
    4.0567   -2.2971   30.0453 H   0  0  0  0  0  0  0  0  0  0  0  0
    5.3606   -3.1964   29.2693 H   0  0  0  0  0  0  0  0  0  0  0  0
    5.5971   -1.4908   29.6945 H   0  0  0  0  0  0  0  0  0  0  0  0
    5.9604   -2.7301   26.3624 C   0  0  0  0  0  0  0  0  0  0  0  0
    5.1763   -3.2267   25.7536 H   0  0  0  0  0  0  0  0  0  0  0  0
    6.2828   -3.4349   27.1361 H   0  0  0  0  0  0  0  0  0  0  0  0
    7.1704   -2.4423   25.4476 C   0  0  0  0  0  0  0  0  0  0  0  0
    7.4471   -3.3824   24.9550 H   0  0  0  0  0  0  0  0  0  0  0  0
    8.0162   -2.1121   26.0748 H   0  0  0  0  0  0  0  0  0  0  0  0
    8.6861   -2.0261   22.9801 C   0  0  0  0  0  0  0  0  0  0  0  0
    9.2058   -2.5122   23.7917 H   0  0  0  0  0  0  0  0  0  0  0  0
  1  2  1  0
  2  3  2  0
  3  4  1  0
  4  5  1  0
  5  6  2  0
  6  7  1  0
  6  8  1  0
  8  9  2  0
  9 10  1  0
  9 11  1  0
 11 12  1  0
 11 13  2  0
 13 14  1  0
  4 15  2  0
 15 16  1  0
 16 17  1  0
 17 18  1  0
 18 19  1  0
 18 20  1  0
 18 21  1  0
 21 22  1  0
 21 23  1  0
 21 24  1  0
 24 25  1  0
 25 26  1  0
 25 27  1  0
 25 28  1  0
 28 29  1  0
 28 30  1  0
 28 31  1  0
 24 32  1  0
 32 33  1  0
 32 34  1  0
 32 35  1  0
 35 36  1  0
 35 37  1  0
 16 38  2  0
 38 39  1  0
 38  2  1  0
 13  5  1  0
 35 17  1  0
M  END
>  <cnnaffinity>  (1) 
4.53766

>  <plip>  (1) 
-0.0

>  <filename>  (1) 
[H][c]1[n][c](-[c]2[c]([H])[n][c]([H])[c]([H])[c]2[H])[n][c]([N]2[C]([H])([H])[C]([H])([H])[N]([C]([H])([H])[C]([H])([H])[H])[C]([H])([H])[C]2([H])[H])[c]1[H]

>  <combo1>  (1) 
-5.615526646668052e-06

$$$$
