
     RDKit          3D

 33 35  0  0  0  0  0  0  0  0999 V2000
   14.1916    7.1865   22.4084 Br  0  0  0  0  0  0  0  0  0  0  0  0
   13.2624    5.5149   22.2576 C   0  0  0  0  0  0  0  0  0  0  0  0
   13.4299    4.8011   21.0742 C   0  0  0  0  0  0  0  0  0  0  0  0
   12.7006    3.7352   20.7434 N   0  0  0  0  0  0  0  0  0  0  0  0
   11.7961    3.2966   21.6111 C   0  0  0  0  0  0  0  0  0  0  0  0
   11.0475    2.3025   21.1614 N   0  0  0  0  0  0  0  0  0  0  0  0
   10.0688    1.9139   21.9481 C   0  0  0  0  0  0  0  0  0  0  0  0
    9.2846    0.9809   21.3569 N   0  0  0  0  0  0  0  0  0  0  0  0
    8.1191    0.3382   21.9813 C   0  0  0  0  0  0  0  0  0  0  0  0
    7.4604   -0.6429   21.0044 C   0  0  0  0  0  0  0  0  0  0  0  0
    6.7009    0.0424   19.8807 C   0  0  0  0  0  0  0  0  0  0  0  0
    5.4808    0.6713   20.1344 C   0  0  0  0  0  0  0  0  0  0  0  0
    4.8360    1.3032   19.0713 C   0  0  0  0  0  0  0  0  0  0  0  0
    5.4155    1.2942   17.7985 C   0  0  0  0  0  0  0  0  0  0  0  0
    6.5790    0.6723   17.5393 N   0  0  0  0  0  0  0  0  0  0  0  0
    7.2070    0.0651   18.5653 C   0  0  0  0  0  0  0  0  0  0  0  0
    8.1502   -0.4351   18.3647 H   0  0  0  0  0  0  0  0  0  0  0  0
    4.9061    1.8084   16.9904 H   0  0  0  0  0  0  0  0  0  0  0  0
    3.8960    1.8183   19.2226 H   0  0  0  0  0  0  0  0  0  0  0  0
    5.0526    0.6688   21.1352 H   0  0  0  0  0  0  0  0  0  0  0  0
    8.2317   -1.3009   20.5907 H   0  0  0  0  0  0  0  0  0  0  0  0
    6.7595   -1.2660   21.5679 H   0  0  0  0  0  0  0  0  0  0  0  0
    7.3835    1.0830   22.3095 H   0  0  0  0  0  0  0  0  0  0  0  0
    8.4592   -0.2154   22.8630 H   0  0  0  0  0  0  0  0  0  0  0  0
    9.5577    0.7470   20.4100 H   0  0  0  0  0  0  0  0  0  0  0  0
    9.8278    2.4020   23.2276 C   0  0  0  0  0  0  0  0  0  0  0  0
   10.6216    3.4215   23.7308 C   0  0  0  0  0  0  0  0  0  0  0  0
   11.6107    3.9042   22.8793 C   0  0  0  0  0  0  0  0  0  0  0  0
   12.3572    5.0340   23.2121 C   0  0  0  0  0  0  0  0  0  0  0  0
   12.1739    5.5418   24.1568 H   0  0  0  0  0  0  0  0  0  0  0  0
   10.4363    3.8749   24.7039 H   0  0  0  0  0  0  0  0  0  0  0  0
    9.0049    1.9888   23.7914 H   0  0  0  0  0  0  0  0  0  0  0  0
   14.1661    5.1692   20.3717 H   0  0  0  0  0  0  0  0  0  0  0  0
  1  2  1  0
  2  3  2  0
  3  4  1  0
  4  5  2  0
  5  6  1  0
  6  7  2  0
  7  8  1  0
  8  9  1  0
  9 10  1  0
 10 11  1  0
 11 12  2  0
 12 13  1  0
 13 14  2  0
 14 15  1  0
 15 16  2  0
 16 17  1  0
 14 18  1  0
 13 19  1  0
 12 20  1  0
 10 21  1  0
 10 22  1  0
  9 23  1  0
  9 24  1  0
  8 25  1  0
  7 26  1  0
 26 27  2  0
 27 28  1  0
 28 29  2  0
 29 30  1  0
 27 31  1  0
 26 32  1  0
  3 33  1  0
 29  2  1  0
 28  5  1  0
 16 11  1  0
M  END
>  <cnnaffinity>  (1) 
5.44594

>  <plip>  (1) 
-0.10344827586206896

>  <filename>  (1) 
[H][c]1[n][c]([H])[c]([C]([H])([H])[C]([H])([H])[N]([H])[c]2[n][c]3[n][c]([H])[c]([Br])[c]([H])[c]3[c]([H])[c]2[H])[c]([H])[c]1[H]

>  <combo1>  (1) 
-0.5704449089849628

$$$$
