
     RDKit          3D

 42 44  0  0  0  0  0  0  0  0999 V2000
    9.3352   -1.3682   23.5342 C   0  0  0  0  0  0  0  0  0  0  0  0
    8.9995    0.0278   23.0095 C   0  0  0  0  0  0  0  0  0  0  0  0
    8.4167   -0.0094   21.6268 N   0  0  0  0  0  4  0  0  0  0  0  0
    7.0108   -0.4560   21.3871 C   0  0  0  0  0  0  0  0  0  0  0  0
    6.9068   -1.9647   21.1549 C   0  0  0  0  0  0  0  0  0  0  0  0
    7.5676   -2.2407   20.3290 H   0  0  0  0  0  0  0  0  0  0  0  0
    7.1927   -2.5422   22.0413 H   0  0  0  0  0  0  0  0  0  0  0  0
    5.8805   -2.2162   20.8791 H   0  0  0  0  0  0  0  0  0  0  0  0
    6.5275    0.3094   20.1702 C   0  0  0  0  0  0  0  0  0  0  0  0
    5.2635    0.9229   20.1446 C   0  0  0  0  0  0  0  0  0  0  0  0
    4.7937    1.4701   18.9482 C   0  0  0  0  0  0  0  0  0  0  0  0
    5.5939    1.3737   17.8095 C   0  0  0  0  0  0  0  0  0  0  0  0
    6.8100    0.8089   17.8125 N   0  0  0  0  0  0  0  0  0  0  0  0
    7.2688    0.3287   18.9776 C   0  0  0  0  0  0  0  0  0  0  0  0
    8.2780   -0.0966   18.9284 H   0  0  0  0  0  0  0  0  0  0  0  0
    5.2468    1.7671   16.8514 H   0  0  0  0  0  0  0  0  0  0  0  0
    3.8340    1.9742   18.8876 H   0  0  0  0  0  0  0  0  0  0  0  0
    4.6585    0.9805   21.0527 H   0  0  0  0  0  0  0  0  0  0  0  0
    6.3884   -0.1907   22.2528 H   0  0  0  0  0  0  0  0  0  0  0  0
    9.0382   -0.6516   21.0801 H   0  0  0  0  0  0  0  0  0  0  0  0
    8.4791    0.9576   21.2266 H   0  0  0  0  0  0  0  0  0  0  0  0
   10.2013    0.9363   22.9231 C   0  0  0  0  0  0  0  0  0  0  0  0
   10.2237    2.1847   23.4304 C   0  0  0  0  0  0  0  0  0  0  0  0
   11.4402    3.0036   23.3756 C   0  0  0  0  0  0  0  0  0  0  0  0
   11.5142    4.3454   23.8079 C   0  0  0  0  0  0  0  0  0  0  0  0
   12.6882    5.0764   23.6556 C   0  0  0  0  0  0  0  0  0  0  0  0
   13.8430    4.4603   23.1430 C   0  0  0  0  0  0  0  0  0  0  0  0
   13.8099    3.1230   22.7727 C   0  0  0  0  0  0  0  0  0  0  0  0
   12.6046    2.4144   22.8438 C   0  0  0  0  0  0  0  0  0  0  0  0
   12.6289    1.1171   22.4310 O   0  0  0  0  0  0  0  0  0  0  0  0
   11.4041    0.4503   22.1371 C   0  0  0  0  0  0  0  0  0  0  0  0
   11.6063   -0.6113   22.3337 H   0  0  0  0  0  0  0  0  0  0  0  0
   11.1874    0.5350   21.0565 H   0  0  0  0  0  0  0  0  0  0  0  0
   14.7028    2.6050   22.4369 H   0  0  0  0  0  0  0  0  0  0  0  0
   14.7732    5.0121   23.0278 H   0  0  0  0  0  0  0  0  0  0  0  0
   12.7117    6.1301   23.9146 H   0  0  0  0  0  0  0  0  0  0  0  0
   10.6381    4.7993   24.2646 H   0  0  0  0  0  0  0  0  0  0  0  0
    9.3210    2.6290   23.8480 H   0  0  0  0  0  0  0  0  0  0  0  0
    8.2741    0.4821   23.6985 H   0  0  0  0  0  0  0  0  0  0  0  0
    9.8522   -1.2942   24.4938 H   0  0  0  0  0  0  0  0  0  0  0  0
    8.4220   -1.9475   23.6804 H   0  0  0  0  0  0  0  0  0  0  0  0
    9.9715   -1.9154   22.8316 H   0  0  0  0  0  0  0  0  0  0  0  0
  1  2  1  0
  2  3  1  0
  3  4  1  0
  4  5  1  0
  5  6  1  0
  5  7  1  0
  5  8  1  0
  4  9  1  0
  9 10  2  0
 10 11  1  0
 11 12  2  0
 12 13  1  0
 13 14  2  0
 14 15  1  0
 12 16  1  0
 11 17  1  0
 10 18  1  0
  4 19  1  0
  3 20  1  0
  3 21  1  0
  2 22  1  0
 22 23  2  0
 23 24  1  0
 24 25  2  0
 25 26  1  0
 26 27  2  0
 27 28  1  0
 28 29  2  0
 29 30  1  0
 30 31  1  0
 31 32  1  0
 31 33  1  0
 28 34  1  0
 27 35  1  0
 26 36  1  0
 25 37  1  0
 23 38  1  0
  2 39  1  0
  1 40  1  0
  1 41  1  0
  1 42  1  0
 14  9  1  0
 31 22  1  0
 29 24  1  0
M  CHG  1   3   1
M  END
>  <cnnaffinity>  (1) 
5.46554

>  <plip>  (1) 
-0.07142857142857142

>  <filename>  (1) 
[H][C]1=[C]([C]([H])([C]([H])([H])[H])[N+]([H])([H])[C]([H])([c]2[c]([H])[n][c]([H])[c]([H])[c]2[H])[C]([H])([H])[H])[C]([H])([H])[O][c]2[c]([H])[c]([H])[c]([H])[c]([H])[c]21

>  <combo1>  (1) 
-0.462479093187142

$$$$
