
     RDKit          3D

 31 32  0  0  0  0  0  0  0  0999 V2000
    7.1877   -4.6603   26.8712 H   0  0  0  0  0  0  0  0  0  0  0  0
    6.6571   -4.2929   26.1534 O   0  0  0  0  0  0  0  0  0  0  0  0
    7.4192   -3.2951   25.5043 C   0  0  0  0  0  0  0  0  0  0  0  0
    6.7247   -2.7790   24.8293 H   0  0  0  0  0  0  0  0  0  0  0  0
    7.7871   -2.5437   26.2277 H   0  0  0  0  0  0  0  0  0  0  0  0
    8.5885   -3.8829   24.7144 C   0  0  0  0  0  0  0  0  0  0  0  0
    8.2026   -4.5525   23.9355 H   0  0  0  0  0  0  0  0  0  0  0  0
    9.1984   -4.4948   25.3925 H   0  0  0  0  0  0  0  0  0  0  0  0
    9.4791   -2.8089   24.0617 C   0  0  0  0  0  0  0  0  0  0  0  0
    9.8700   -2.1388   24.8426 H   0  0  0  0  0  0  0  0  0  0  0  0
   10.3579   -3.2954   23.6161 H   0  0  0  0  0  0  0  0  0  0  0  0
    8.7410   -2.0134   23.0235 C   0  0  0  0  0  0  0  0  0  0  0  0
    8.1944   -0.7616   23.2585 C   0  0  0  0  0  0  0  0  0  0  0  0
    8.2856   -0.3247   24.2533 H   0  0  0  0  0  0  0  0  0  0  0  0
    7.4883   -0.0464   22.2608 C   0  0  0  0  0  0  0  0  0  0  0  0
    7.0438    0.9244   22.4623 H   0  0  0  0  0  0  0  0  0  0  0  0
    7.3749   -0.5943   21.0045 C   0  0  0  0  0  0  0  0  0  0  0  0
    6.6424    0.0274   19.8999 C   0  0  0  0  0  0  0  0  0  0  0  0
    7.1554    0.0522   18.5894 C   0  0  0  0  0  0  0  0  0  0  0  0
    8.1114   -0.4157   18.3554 H   0  0  0  0  0  0  0  0  0  0  0  0
    6.5529    0.6651   17.5644 N   0  0  0  0  0  0  0  0  0  0  0  0
    5.3920    1.2944   17.8115 C   0  0  0  0  0  0  0  0  0  0  0  0
    4.9352    1.8072   16.9663 H   0  0  0  0  0  0  0  0  0  0  0  0
    4.7798    1.3150   19.0705 C   0  0  0  0  0  0  0  0  0  0  0  0
    3.8504    1.8593   19.2140 H   0  0  0  0  0  0  0  0  0  0  0  0
    5.4164    0.6721   20.1308 C   0  0  0  0  0  0  0  0  0  0  0  0
    4.9756    0.6596   21.1283 H   0  0  0  0  0  0  0  0  0  0  0  0
    7.9891   -1.7948   20.7479 N   0  0  0  0  0  0  0  0  0  0  0  0
    7.7888   -2.3406   19.9243 H   0  0  0  0  0  0  0  0  0  0  0  0
    8.4838   -2.6459   21.7218 C   0  0  0  0  0  0  0  0  0  0  0  0
    8.6372   -3.8158   21.3958 O   0  0  0  0  0  0  0  0  0  0  0  0
  1  2  1  0
  2  3  1  0
  3  4  1  0
  3  5  1  0
  3  6  1  0
  6  7  1  0
  6  8  1  0
  6  9  1  0
  9 10  1  0
  9 11  1  0
  9 12  1  0
 12 13  2  0
 13 14  1  0
 13 15  1  0
 15 16  1  0
 15 17  2  0
 17 18  1  0
 18 19  2  0
 19 20  1  0
 19 21  1  0
 21 22  2  0
 22 23  1  0
 22 24  1  0
 24 25  1  0
 24 26  2  0
 26 27  1  0
 17 28  1  0
 28 29  1  0
 28 30  1  0
 30 31  2  0
 30 12  1  0
 26 18  1  0
M  END
>  <cnnaffinity>  (1) 
4.87556

>  <plip>  (1) 
-0.0

>  <filename>  (1) 
[H][O][C]([H])([H])[C]([H])([H])[C]([H])([H])[c]1[c]([H])[c]([H])[c](-[c]2[c]([H])[n][c]([H])[c]([H])[c]2[H])[n]([H])[c]1=[O]

>  <combo1>  (1) 
-7.0578357587785765e-06

$$$$
