
     RDKit          3D

 35 37  0  0  0  0  0  0  0  0999 V2000
    7.7027    1.2341   22.4830 C   0  0  0  0  0  0  0  0  0  0  0  0
    8.6740    1.9545   23.0633 C   0  0  0  0  0  0  0  0  0  0  0  0
    8.3680    3.3216   23.6412 C   0  0  0  0  0  0  0  0  0  0  0  0
    9.4914    4.3408   23.4447 C   0  0  0  0  0  0  0  0  0  0  0  0
   10.8272    3.7728   23.9070 N   0  0  0  0  0  4  0  0  0  0  0  0
   11.1665    2.5336   23.0935 C   0  0  0  0  0  0  0  0  0  0  0  0
   10.0948    1.4528   23.2523 C   0  0  0  0  0  0  0  0  0  0  0  0
   10.1822    1.0156   24.2544 H   0  0  0  0  0  0  0  0  0  0  0  0
   10.3108    0.6452   22.5476 H   0  0  0  0  0  0  0  0  0  0  0  0
   12.1447    2.1431   23.3850 H   0  0  0  0  0  0  0  0  0  0  0  0
   11.2098    2.8019   22.0356 H   0  0  0  0  0  0  0  0  0  0  0  0
   11.5810    4.4883   23.8091 H   0  0  0  0  0  0  0  0  0  0  0  0
   10.6782    3.4390   24.9028 H   0  0  0  0  0  0  0  0  0  0  0  0
    9.5511    4.5713   22.3778 H   0  0  0  0  0  0  0  0  0  0  0  0
    9.2654    5.2637   23.9829 H   0  0  0  0  0  0  0  0  0  0  0  0
    8.1660    3.2088   24.7139 H   0  0  0  0  0  0  0  0  0  0  0  0
    7.4492    3.7146   23.1957 H   0  0  0  0  0  0  0  0  0  0  0  0
    7.8322   -0.1692   22.1065 C   0  0  0  0  0  0  0  0  0  0  0  0
    8.4578   -1.2121   22.7707 C   0  0  0  0  0  0  0  0  0  0  0  0
    8.3203   -2.3141   21.9142 C   0  0  0  0  0  0  0  0  0  0  0  0
    7.6780   -1.9976   20.7999 N   0  0  0  0  0  0  0  0  0  0  0  0
    7.3542   -0.6987   20.9319 N   0  0  0  0  0  0  0  0  0  0  0  0
    6.6442   -0.0121   19.9074 C   0  0  0  0  0  0  0  0  0  0  0  0
    5.4324    0.6443   20.1655 C   0  0  0  0  0  0  0  0  0  0  0  0
    4.8067    1.3045   19.1041 C   0  0  0  0  0  0  0  0  0  0  0  0
    5.4057    1.2909   17.8415 C   0  0  0  0  0  0  0  0  0  0  0  0
    6.5721    0.6701   17.5973 N   0  0  0  0  0  0  0  0  0  0  0  0
    7.1706    0.0340   18.6061 C   0  0  0  0  0  0  0  0  0  0  0  0
    8.1207   -0.4385   18.3723 H   0  0  0  0  0  0  0  0  0  0  0  0
    4.9308    1.7833   16.9933 H   0  0  0  0  0  0  0  0  0  0  0  0
    3.8768    1.8384   19.2564 H   0  0  0  0  0  0  0  0  0  0  0  0
    4.9856    0.6216   21.1617 H   0  0  0  0  0  0  0  0  0  0  0  0
    8.6614   -3.3318   22.0560 H   0  0  0  0  0  0  0  0  0  0  0  0
    8.9292   -1.1560   23.7422 H   0  0  0  0  0  0  0  0  0  0  0  0
    6.7300    1.6998   22.3312 H   0  0  0  0  0  0  0  0  0  0  0  0
  1  2  2  3
  2  3  1  0
  3  4  1  0
  4  5  1  0
  5  6  1  0
  6  7  1  0
  7  8  1  0
  7  9  1  0
  6 10  1  0
  6 11  1  0
  5 12  1  0
  5 13  1  0
  4 14  1  0
  4 15  1  0
  3 16  1  0
  3 17  1  0
  1 18  1  0
 18 19  2  0
 19 20  1  0
 20 21  2  0
 21 22  1  0
 22 23  1  0
 23 24  2  0
 24 25  1  0
 25 26  2  0
 26 27  1  0
 27 28  2  0
 28 29  1  0
 26 30  1  0
 25 31  1  0
 24 32  1  0
 20 33  1  0
 19 34  1  0
  1 35  1  0
  7  2  1  0
 22 18  1  0
 28 23  1  0
M  CHG  1   5   1
M  END
>  <cnnaffinity>  (1) 
5.01858

>  <plip>  (1) 
-0.0

>  <filename>  (1) 
[H][C](=[C]1[C]([H])([H])[C]([H])([H])[N+]([H])([H])[C]([H])([H])[C]1([H])[H])[c]1[c]([H])[c]([H])[n][n]1-[c]1[c]([H])[n][c]([H])[c]([H])[c]1[H]

>  <combo1>  (1) 
-6.932180773916575e-06

$$$$
