
     RDKit          3D

 36 38  0  0  0  0  0  0  0  0999 V2000
    5.2589    1.6897   16.8889 H   0  0  0  0  0  0  0  0  0  0  0  0
    5.5735    1.1799   17.7987 C   0  0  0  0  0  0  0  0  0  0  0  0
    6.6825    0.4319   17.7013 N   0  0  0  0  0  0  0  0  0  0  0  0
    7.1025   -0.2066   18.8093 C   0  0  0  0  0  0  0  0  0  0  0  0
    8.0102   -0.7941   18.7000 H   0  0  0  0  0  0  0  0  0  0  0  0
    6.4505   -0.1397   20.0649 C   0  0  0  0  0  0  0  0  0  0  0  0
    6.8886   -0.7616   21.2921 N   0  0  0  0  0  0  0  0  0  0  0  0
    7.7402    0.1015   22.1202 C   0  0  0  0  0  0  0  0  0  0  0  0
    7.4386    1.1458   21.9838 H   0  0  0  0  0  0  0  0  0  0  0  0
    7.5877   -0.1522   23.1806 H   0  0  0  0  0  0  0  0  0  0  0  0
    9.2407   -0.0501   21.7840 C   0  0  0  0  0  0  0  0  0  0  0  0
    9.8534    0.5320   22.4798 H   0  0  0  0  0  0  0  0  0  0  0  0
    9.4249    0.3162   20.7596 H   0  0  0  0  0  0  0  0  0  0  0  0
    9.6638   -1.4063   21.8902 O   0  0  0  0  0  0  0  0  0  0  0  0
    8.8993   -2.2338   21.0185 C   0  0  0  0  0  0  0  0  0  0  0  0
    9.0818   -1.9342   19.9821 H   0  0  0  0  0  0  0  0  0  0  0  0
    9.2539   -3.2559   21.1561 H   0  0  0  0  0  0  0  0  0  0  0  0
    7.3872   -2.1460   21.3459 C   0  0  2  0  0  0  0  0  0  0  0  0
    7.2976   -2.4758   22.3983 H   0  0  0  0  0  0  0  0  0  0  0  0
    6.5139   -2.9094   20.4894 N   0  0  0  0  0  0  0  0  0  0  0  0
    5.6346   -2.4314   20.6404 H   0  0  0  0  0  0  0  0  0  0  0  0
    6.4498   -4.3497   20.6351 C   0  0  0  0  0  0  0  0  0  0  0  0
    5.7765   -4.7154   19.8487 H   0  0  0  0  0  0  0  0  0  0  0  0
    7.4392   -4.7659   20.3948 H   0  0  0  0  0  0  0  0  0  0  0  0
    6.0237   -4.8826   21.9899 C   0  0  0  0  0  0  0  0  0  0  0  0
    4.3853   -5.3517   22.3022 S   0  0  0  0  0  0  0  0  0  0  0  0
    4.7887   -5.9708   23.8532 C   0  0  0  0  0  0  0  0  0  0  0  0
    4.0315   -6.4645   24.4483 H   0  0  0  0  0  0  0  0  0  0  0  0
    6.1096   -5.8018   24.1394 C   0  0  0  0  0  0  0  0  0  0  0  0
    6.5645   -6.1307   25.0683 H   0  0  0  0  0  0  0  0  0  0  0  0
    6.8118   -5.1630   23.0722 C   0  0  0  0  0  0  0  0  0  0  0  0
    7.8752   -4.9339   23.1109 H   0  0  0  0  0  0  0  0  0  0  0  0
    5.2994    0.6566   20.1335 C   0  0  0  0  0  0  0  0  0  0  0  0
    4.8006    0.7513   21.0963 H   0  0  0  0  0  0  0  0  0  0  0  0
    4.8423    1.3141   18.9830 C   0  0  0  0  0  0  0  0  0  0  0  0
    3.9580    1.9412   19.0026 H   0  0  0  0  0  0  0  0  0  0  0  0
  1  2  1  0
  2  3  2  0
  3  4  1  0
  4  5  1  0
  4  6  2  0
  6  7  1  0
  7  8  1  0
  8  9  1  0
  8 10  1  0
  8 11  1  0
 11 12  1  0
 11 13  1  0
 11 14  1  0
 14 15  1  0
 15 16  1  0
 15 17  1  0
 15 18  1  0
 18 19  1  1
 18 20  1  0
 20 21  1  0
 20 22  1  0
 22 23  1  0
 22 24  1  0
 22 25  1  0
 25 26  1  0
 26 27  1  0
 27 28  1  0
 27 29  2  0
 29 30  1  0
 29 31  1  0
 31 32  1  0
  6 33  1  0
 33 34  1  0
 33 35  2  0
 35 36  1  0
 35  2  1  0
 18  7  1  0
 31 25  2  0
M  END
>  <cnnaffinity>  (1) 
4.31544

>  <plip>  (1) 
-0.17857142857142858

>  <filename>  (1) 
[H][c]1[n][c]([H])[c]([N]2[C]([H])([H])[C]([H])([H])[O][C]([H])([H])[C@]2([H])[N]([H])[C]([H])([H])[c]2[s][c]([H])[c]([H])[c]2[H])[c]([H])[c]1[H]

>  <combo1>  (1) 
-0.9327991392579211

$$$$
