
     RDKit          3D

 30 33  0  0  0  0  0  0  0  0999 V2000
    4.9505    1.8038   16.9961 H   0  0  0  0  0  0  0  0  0  0  0  0
    5.3973    1.2918   17.8439 C   0  0  0  0  0  0  0  0  0  0  0  0
    6.5488    0.6604   17.5797 N   0  0  0  0  0  0  0  0  0  0  0  0
    7.1647    0.0404   18.5867 C   0  0  0  0  0  0  0  0  0  0  0  0
    8.0990   -0.4432   18.3188 H   0  0  0  0  0  0  0  0  0  0  0  0
    6.6721    0.0013   19.9036 C   0  0  0  0  0  0  0  0  0  0  0  0
    7.3811   -0.6783   20.9333 N   0  0  0  0  0  0  0  0  0  0  0  0
    6.7612   -1.0484   22.0770 N   0  0  0  0  0  0  0  0  0  0  0  0
    7.7167   -1.6357   22.7836 C   0  0  0  0  0  0  0  0  0  0  0  0
    7.4526   -2.1663   24.1341 C   0  0  0  0  0  0  0  0  0  0  0  0
    6.2574   -2.0440   24.7839 C   0  0  0  0  0  0  0  0  0  0  0  0
    5.3630   -1.5410   24.4419 H   0  0  0  0  0  0  0  0  0  0  0  0
    6.2284   -2.7619   26.3505 S   0  0  0  0  0  0  0  0  0  0  0  0
    7.8796   -3.2672   26.1989 C   0  0  0  0  0  0  0  0  0  0  0  0
    8.6235   -3.9841   27.1544 C   0  0  0  0  0  0  0  0  0  0  0  0
    8.1942   -4.2508   28.1175 H   0  0  0  0  0  0  0  0  0  0  0  0
    9.9170   -4.3502   26.8186 C   0  0  0  0  0  0  0  0  0  0  0  0
   10.5185   -4.8659   27.5587 H   0  0  0  0  0  0  0  0  0  0  0  0
   10.4658   -4.0197   25.5634 C   0  0  0  0  0  0  0  0  0  0  0  0
   11.4722   -4.3479   25.3212 H   0  0  0  0  0  0  0  0  0  0  0  0
    9.7525   -3.2630   24.6496 C   0  0  0  0  0  0  0  0  0  0  0  0
   10.1930   -2.9265   23.7175 H   0  0  0  0  0  0  0  0  0  0  0  0
    8.4236   -2.8883   24.9525 C   0  0  0  0  0  0  0  0  0  0  0  0
    8.9260   -1.6615   22.1381 N   0  0  0  0  0  0  0  0  0  0  0  0
    8.6797   -1.0559   21.0055 C   0  0  0  0  0  0  0  0  0  0  0  0
    9.3912   -0.8521   20.2165 H   0  0  0  0  0  0  0  0  0  0  0  0
    5.4528    0.6433   20.1741 C   0  0  0  0  0  0  0  0  0  0  0  0
    5.0442    0.6062   21.1866 H   0  0  0  0  0  0  0  0  0  0  0  0
    4.8160    1.3019   19.1173 C   0  0  0  0  0  0  0  0  0  0  0  0
    3.8827    1.8317   19.2567 H   0  0  0  0  0  0  0  0  0  0  0  0
  1  2  1  0
  2  3  2  0
  3  4  1  0
  4  5  1  0
  4  6  2  0
  6  7  1  0
  7  8  1  0
  8  9  2  0
  9 10  1  0
 10 11  2  0
 11 12  1  0
 11 13  1  0
 13 14  1  0
 14 15  2  0
 15 16  1  0
 15 17  1  0
 17 18  1  0
 17 19  2  0
 19 20  1  0
 19 21  1  0
 21 22  1  0
 21 23  2  0
  9 24  1  0
 24 25  2  0
 25 26  1  0
  6 27  1  0
 27 28  1  0
 27 29  2  0
 29 30  1  0
 29  2  1  0
 25  7  1  0
 23 10  1  0
 23 14  1  0
M  END
>  <cnnaffinity>  (1) 
5.13973

>  <plip>  (1) 
-0.03571428571428571

>  <filename>  (1) 
[H][c]1[n][c]([H])[c](-[n]2[n][c](-[c]3[c]([H])[s][c]4[c]([H])[c]([H])[c]([H])[c]([H])[c]34)[n][c]2[H])[c]([H])[c]1[H]

>  <combo1>  (1) 
-0.2198292085390598

$$$$
