
     RDKit          3D

 54 57  0  0  0  0  0  0  0  0999 V2000
    9.8311    1.8450   21.9077 C   0  0  0  0  0  0  0  0  0  0  0  0
   10.0651    2.5796   23.0012 C   0  0  0  0  0  0  0  0  0  0  0  0
   11.2907    3.3378   23.2841 C   0  0  0  0  0  0  0  0  0  0  0  0
   11.2847    4.4191   24.1899 C   0  0  0  0  0  0  0  0  0  0  0  0
   12.4451    5.1529   24.4276 C   0  0  0  0  0  0  0  0  0  0  0  0
   13.6295    4.7918   23.7830 C   0  0  0  0  0  0  0  0  0  0  0  0
   13.6531    3.7324   22.8781 C   0  0  0  0  0  0  0  0  0  0  0  0
   12.4902    3.0216   22.6137 C   0  0  0  0  0  0  0  0  0  0  0  0
   12.5194    2.2078   21.8913 H   0  0  0  0  0  0  0  0  0  0  0  0
   14.5884    3.4714   22.3854 H   0  0  0  0  0  0  0  0  0  0  0  0
   14.5581    5.2871   23.9892 H   0  0  0  0  0  0  0  0  0  0  0  0
   12.4195    6.0050   25.1027 H   0  0  0  0  0  0  0  0  0  0  0  0
   10.3690    4.6749   24.7175 H   0  0  0  0  0  0  0  0  0  0  0  0
    8.8224    2.5892   23.8918 C   0  0  0  0  0  0  0  0  0  0  0  0
    7.8977    1.5311   23.2405 C   0  0  0  0  0  0  0  0  0  0  0  0
    8.4202    1.4225   21.7908 C   0  0  0  0  0  0  0  0  0  0  0  0
    8.4798    0.0697   21.2094 N   0  0  0  0  0  4  0  0  0  0  0  0
    7.2102   -0.6692   21.0627 C   0  0  0  0  0  0  0  0  0  0  0  0
    7.5764   -2.1571   20.9250 C   0  0  0  0  0  0  0  0  0  0  0  0
    6.4577   -3.1647   20.8253 N   0  0  0  0  0  4  0  0  0  0  0  0
    6.9331   -4.5935   20.5943 C   0  0  0  0  0  0  0  0  0  0  0  0
    5.7972   -5.4677   21.0930 C   0  0  0  0  0  0  0  0  0  0  0  0
    5.2066   -4.6871   22.2779 C   0  0  0  0  0  0  0  0  0  0  0  0
    5.5696   -3.2093   22.0656 C   0  0  0  0  0  0  0  0  0  0  0  0
    4.6969   -2.5630   21.9237 H   0  0  0  0  0  0  0  0  0  0  0  0
    6.1637   -2.8235   22.9011 H   0  0  0  0  0  0  0  0  0  0  0  0
    5.6491   -5.0253   23.2203 H   0  0  0  0  0  0  0  0  0  0  0  0
    4.1294   -4.8340   22.3721 H   0  0  0  0  0  0  0  0  0  0  0  0
    6.1442   -6.4648   21.3843 H   0  0  0  0  0  0  0  0  0  0  0  0
    5.0710   -5.6281   20.2907 H   0  0  0  0  0  0  0  0  0  0  0  0
    7.1657   -4.7615   19.5410 H   0  0  0  0  0  0  0  0  0  0  0  0
    7.8431   -4.7599   21.1826 H   0  0  0  0  0  0  0  0  0  0  0  0
    5.8648   -2.8881   20.0017 H   0  0  0  0  0  0  0  0  0  0  0  0
    8.1881   -2.3824   21.8121 H   0  0  0  0  0  0  0  0  0  0  0  0
    8.2618   -2.2126   20.0782 H   0  0  0  0  0  0  0  0  0  0  0  0
    6.5209    0.0017   19.8851 C   0  0  0  0  0  0  0  0  0  0  0  0
    5.2996    0.6720   20.0413 C   0  0  0  0  0  0  0  0  0  0  0  0
    4.7676    1.3670   18.9507 C   0  0  0  0  0  0  0  0  0  0  0  0
    5.4672    1.3591   17.7407 C   0  0  0  0  0  0  0  0  0  0  0  0
    6.6332    0.7159   17.5687 N   0  0  0  0  0  0  0  0  0  0  0  0
    7.1503    0.0880   18.6310 C   0  0  0  0  0  0  0  0  0  0  0  0
    8.1260   -0.3711   18.4603 H   0  0  0  0  0  0  0  0  0  0  0  0
    5.0771    1.8907   16.8721 H   0  0  0  0  0  0  0  0  0  0  0  0
    3.8459    1.9361   19.0325 H   0  0  0  0  0  0  0  0  0  0  0  0
    4.8001    0.6835   21.0137 H   0  0  0  0  0  0  0  0  0  0  0  0
    6.5752   -0.5457   21.9514 H   0  0  0  0  0  0  0  0  0  0  0  0
    9.2344   -0.3780   21.7623 H   0  0  0  0  0  0  0  0  0  0  0  0
    8.8484    0.2529   20.2515 H   0  0  0  0  0  0  0  0  0  0  0  0
    7.8345    2.0889   21.1373 H   0  0  0  0  0  0  0  0  0  0  0  0
    6.8339    1.7838   23.2706 H   0  0  0  0  0  0  0  0  0  0  0  0
    8.0368    0.5568   23.7271 H   0  0  0  0  0  0  0  0  0  0  0  0
    9.0624    2.3592   24.9346 H   0  0  0  0  0  0  0  0  0  0  0  0
    8.3796    3.5935   23.8788 H   0  0  0  0  0  0  0  0  0  0  0  0
   10.5520    1.6185   21.1280 H   0  0  0  0  0  0  0  0  0  0  0  0
  1  2  2  0
  2  3  1  0
  3  4  2  0
  4  5  1  0
  5  6  2  0
  6  7  1  0
  7  8  2  0
  8  9  1  0
  7 10  1  0
  6 11  1  0
  5 12  1  0
  4 13  1  0
  2 14  1  0
 14 15  1  0
 15 16  1  0
 16 17  1  0
 17 18  1  0
 18 19  1  0
 19 20  1  0
 20 21  1  0
 21 22  1  0
 22 23  1  0
 23 24  1  0
 24 25  1  0
 24 26  1  0
 23 27  1  0
 23 28  1  0
 22 29  1  0
 22 30  1  0
 21 31  1  0
 21 32  1  0
 20 33  1  0
 19 34  1  0
 19 35  1  0
 18 36  1  0
 36 37  2  0
 37 38  1  0
 38 39  2  0
 39 40  1  0
 40 41  2  0
 41 42  1  0
 39 43  1  0
 38 44  1  0
 37 45  1  0
 18 46  1  0
 17 47  1  0
 17 48  1  0
 16 49  1  0
 15 50  1  0
 15 51  1  0
 14 52  1  0
 14 53  1  0
  1 54  1  0
 16  1  1  0
 24 20  1  0
 41 36  1  0
  8  3  1  0
M  CHG  2  17   1  20   1
M  END
>  <cnnaffinity>  (1) 
5.03178

>  <plip>  (1) 
-0.13793103448275862

>  <filename>  (1) 
[H][C]1=[C]([c]2[c]([H])[c]([H])[c]([H])[c]([H])[c]2[H])[C]([H])([H])[C]([H])([H])[C]1([H])[N+]([H])([H])[C]([H])([c]1[c]([H])[n][c]([H])[c]([H])[c]1[H])[C]([H])([H])[N+]1([H])[C]([H])([H])[C]([H])([H])[C]([H])([H])[C]1([H])[H]

>  <combo1>  (1) 
-0.6895667801205735

$$$$
