
     RDKit          3D

 39 42  0  0  0  0  0  0  0  0999 V2000
    9.5944    0.8947   20.3708 O   0  0  0  0  0  0  0  0  0  0  0  0
    9.0498    1.2800   21.3894 C   0  0  0  0  0  0  0  0  0  0  0  0
    9.3758    2.5546   22.0255 C   0  0  0  0  0  0  0  0  0  0  0  0
    8.4646    3.5108   22.4815 C   0  0  0  0  0  0  0  0  0  0  0  0
    8.9716    4.6944   23.0063 C   0  0  0  0  0  0  0  0  0  0  0  0
   10.3581    4.8374   23.1000 C   0  0  0  0  0  0  0  0  0  0  0  0
   11.2387    3.9085   22.7050 N   0  0  0  0  0  0  0  0  0  0  0  0
   10.7341    2.8158   22.1506 C   0  0  0  0  0  0  0  0  0  0  0  0
   11.6626    1.9465   21.7791 O   0  0  0  0  0  0  0  0  0  0  0  0
   12.4335    2.4673   22.0559 H   0  0  0  0  0  0  0  0  0  0  0  0
   10.7785    5.7432   23.5235 H   0  0  0  0  0  0  0  0  0  0  0  0
    8.3105    5.4889   23.3330 H   0  0  0  0  0  0  0  0  0  0  0  0
    7.3880    3.3340   22.4184 H   0  0  0  0  0  0  0  0  0  0  0  0
    8.0423    0.5560   21.9952 N   0  0  0  0  0  0  0  0  0  0  0  0
    7.9344    0.2982   23.4314 C   0  0  0  0  0  0  0  0  0  0  0  0
    6.7623   -0.6903   23.5551 C   0  0  0  0  0  0  0  0  0  0  0  0
    6.6339   -1.3491   22.1793 C   0  0  2  0  0  0  0  0  0  0  0  0
    7.5750   -2.5340   21.8240 C   0  0  0  0  0  0  0  0  0  0  0  0
    8.2961   -1.6267   20.8098 C   0  0  0  0  0  0  0  0  0  0  0  0
    7.3797   -0.4452   21.1767 C   0  0  2  0  0  0  0  0  0  0  0  0
    6.6204    0.1791   20.0226 C   0  0  0  0  0  0  0  0  0  0  0  0
    5.3764    0.8011   20.1772 C   0  0  0  0  0  0  0  0  0  0  0  0
    4.7600    1.3614   19.0561 C   0  0  0  0  0  0  0  0  0  0  0  0
    5.4201    1.3034   17.8239 C   0  0  0  0  0  0  0  0  0  0  0  0
    6.6321    0.7542   17.6600 N   0  0  0  0  0  0  0  0  0  0  0  0
    7.2126    0.2285   18.7444 C   0  0  0  0  0  0  0  0  0  0  0  0
    8.2137   -0.1780   18.5960 H   0  0  0  0  0  0  0  0  0  0  0  0
    4.9728    1.7299   16.9298 H   0  0  0  0  0  0  0  0  0  0  0  0
    3.7942    1.8511   19.1216 H   0  0  0  0  0  0  0  0  0  0  0  0
    4.9051    0.8543   21.1613 H   0  0  0  0  0  0  0  0  0  0  0  0
    8.1671   -1.8588   19.7653 H   0  0  0  0  0  0  0  0  0  0  0  0
    9.3477   -1.4231   21.0009 H   0  0  0  0  0  0  0  0  0  0  0  0
    8.2113   -2.8931   22.6414 H   0  0  0  0  0  0  0  0  0  0  0  0
    7.0553   -3.3873   21.3743 H   0  0  0  0  0  0  0  0  0  0  0  0
    5.6148   -1.5771   21.8784 H   0  0  0  0  0  0  0  0  0  0  0  0
    6.9230   -1.4312   24.3488 H   0  0  0  0  0  0  0  0  0  0  0  0
    5.8557   -0.1288   23.8009 H   0  0  0  0  0  0  0  0  0  0  0  0
    8.8637   -0.1261   23.8392 H   0  0  0  0  0  0  0  0  0  0  0  0
    7.7570    1.2364   23.9691 H   0  0  0  0  0  0  0  0  0  0  0  0
  1  2  2  0
  2  3  1  0
  3  4  2  0
  4  5  1  0
  5  6  2  0
  6  7  1  0
  7  8  2  0
  8  9  1  0
  9 10  1  0
  6 11  1  0
  5 12  1  0
  4 13  1  0
  2 14  1  0
 14 15  1  0
 15 16  1  0
 16 17  1  0
 17 18  1  0
 18 19  1  0
 19 20  1  0
 20 21  1  6
 21 22  2  0
 22 23  1  0
 23 24  2  0
 24 25  1  0
 25 26  2  0
 26 27  1  0
 24 28  1  0
 23 29  1  0
 22 30  1  0
 19 31  1  0
 19 32  1  0
 18 33  1  0
 18 34  1  0
 17 35  1  6
 16 36  1  0
 16 37  1  0
 15 38  1  0
 15 39  1  0
  8  3  1  0
 20 14  1  0
 26 21  1  0
 20 17  1  0
M  END
>  <cnnaffinity>  (1) 
5.36916

>  <plip>  (1) 
-0.07142857142857142

>  <filename>  (1) 
[H][O][c]1[n][c]([H])[c]([H])[c]([H])[c]1[C](=[O])[N]1[C]([H])([H])[C]([H])([H])[C@]2([H])[C]([H])([H])[C]([H])([H])[C@]12[c]1[c]([H])[n][c]([H])[c]([H])[c]1[H]

>  <combo1>  (1) 
-0.43284444087580837

$$$$
