
     RDKit          3D

 27 28  0  0  0  0  0  0  0  0999 V2000
    8.8264   -1.2236   22.4941 H   0  0  0  0  0  0  0  0  0  0  0  0
    7.9922   -1.5030   22.8846 O   0  0  0  0  0  0  0  0  0  0  0  0
    7.0839   -0.5769   22.3275 C   0  0  1  0  0  0  0  0  0  0  0  0
    6.0607   -0.9701   22.4366 H   0  0  0  0  0  0  0  0  0  0  0  0
    7.1129    0.8016   22.9847 C   0  0  0  0  0  0  0  0  0  0  0  0
    6.0775    1.2197   23.7743 N   0  0  0  0  0  0  0  0  0  0  0  0
    6.2198    2.4172   24.3632 C   0  0  0  0  0  0  0  0  0  0  0  0
    5.3825    2.7610   24.9646 H   0  0  0  0  0  0  0  0  0  0  0  0
    7.3989    3.2185   24.1697 C   0  0  0  0  0  0  0  0  0  0  0  0
    7.7324    4.4211   24.7577 N   0  0  0  0  0  0  0  0  0  0  0  0
    8.4760    4.7688   24.1618 H   0  0  0  0  0  0  0  0  0  0  0  0
    6.9839    5.0743   24.9065 H   0  0  0  0  0  0  0  0  0  0  0  0
    8.3827    2.8212   23.3518 N   0  0  0  0  0  0  0  0  0  0  0  0
    8.2342    1.6097   22.7732 C   0  0  0  0  0  0  0  0  0  0  0  0
    9.0448    1.2891   22.1223 H   0  0  0  0  0  0  0  0  0  0  0  0
    7.5409   -0.5794   20.9358 N   0  0  0  0  0  0  0  0  0  0  0  0
    7.8431   -1.5312   20.7480 H   0  0  0  0  0  0  0  0  0  0  0  0
    6.7702    0.0157   19.9031 C   0  0  0  0  0  0  0  0  0  0  0  0
    7.2334    0.0548   18.5554 C   0  0  0  0  0  0  0  0  0  0  0  0
    8.1725   -0.4356   18.3079 H   0  0  0  0  0  0  0  0  0  0  0  0
    6.6048    0.6603   17.5386 N   0  0  0  0  0  0  0  0  0  0  0  0
    5.4391    1.2704   17.8124 C   0  0  0  0  0  0  0  0  0  0  0  0
    4.9467    1.7586   16.9758 H   0  0  0  0  0  0  0  0  0  0  0  0
    4.8659    1.2734   19.0893 C   0  0  0  0  0  0  0  0  0  0  0  0
    3.9127    1.7724   19.2446 H   0  0  0  0  0  0  0  0  0  0  0  0
    5.5297    0.6390   20.1473 C   0  0  0  0  0  0  0  0  0  0  0  0
    5.0933    0.6278   21.1477 H   0  0  0  0  0  0  0  0  0  0  0  0
  1  2  1  0
  2  3  1  0
  3  4  1  6
  3  5  1  0
  5  6  2  0
  6  7  1  0
  7  8  1  0
  7  9  2  0
  9 10  1  0
 10 11  1  0
 10 12  1  0
  9 13  1  0
 13 14  2  0
 14 15  1  0
  3 16  1  0
 16 17  1  0
 16 18  1  0
 18 19  2  0
 19 20  1  0
 19 21  1  0
 21 22  2  0
 22 23  1  0
 22 24  1  0
 24 25  1  0
 24 26  2  0
 26 27  1  0
 14  5  1  0
 26 18  1  0
M  END
>  <cnnaffinity>  (1) 
4.45771

>  <plip>  (1) 
-0.07142857142857142

>  <filename>  (1) 
[H][O][C@@]([H])([c]1[n][c]([H])[c]([N]([H])[H])[n][c]1[H])[N]([H])[c]1[c]([H])[n][c]([H])[c]([H])[c]1[H]

>  <combo1>  (1) 
-0.48858341487880413

$$$$
