
     RDKit          3D

 30 32  0  0  0  0  0  0  0  0999 V2000
    5.0016    1.7982   16.9653 H   0  0  0  0  0  0  0  0  0  0  0  0
    5.4200    1.2680   17.8207 C   0  0  0  0  0  0  0  0  0  0  0  0
    6.5608    0.6002   17.6034 N   0  0  0  0  0  0  0  0  0  0  0  0
    7.1077   -0.0372   18.6484 C   0  0  0  0  0  0  0  0  0  0  0  0
    8.0397   -0.5657   18.4611 H   0  0  0  0  0  0  0  0  0  0  0  0
    6.5605   -0.0387   19.9345 C   0  0  0  0  0  0  0  0  0  0  0  0
    7.3701   -0.6521   21.0583 C   0  0  0  0  0  0  0  0  0  0  0  0
    8.3670    0.3811   21.6783 C   0  0  2  0  0  0  0  0  0  0  0  0
    7.6801    1.1540   22.0560 H   0  0  0  0  0  0  0  0  0  0  0  0
    9.3904    1.0461   20.8539 N   0  0  0  0  0  0  0  0  0  0  0  0
   10.4487    0.9854   21.5581 C   0  0  0  0  0  0  0  0  0  0  0  0
   11.6308    1.5594   21.2553 N   0  0  0  0  0  0  0  0  0  0  0  0
   12.3480    0.9042   21.5190 H   0  0  0  0  0  0  0  0  0  0  0  0
   11.5947    1.8345   20.2893 H   0  0  0  0  0  0  0  0  0  0  0  0
   10.4888    0.2572   22.6778 O   0  0  0  0  0  0  0  0  0  0  0  0
    9.1477   -0.2150   22.8850 C   0  0  0  0  0  0  0  0  0  0  0  0
    8.7791    0.1854   23.8350 H   0  0  0  0  0  0  0  0  0  0  0  0
    9.1475   -1.3116   22.9491 H   0  0  0  0  0  0  0  0  0  0  0  0
    8.0170   -1.8329   20.6117 O   0  0  0  0  0  0  0  0  0  0  0  0
    7.4373   -2.9628   21.2552 C   0  0  0  0  0  0  0  0  0  0  0  0
    8.1458   -3.3781   21.9854 H   0  0  0  0  0  0  0  0  0  0  0  0
    7.2050   -3.7190   20.5023 H   0  0  0  0  0  0  0  0  0  0  0  0
    6.1951   -2.4136   21.9386 C   0  0  0  0  0  0  0  0  0  0  0  0
    6.0126   -2.8675   22.9177 H   0  0  0  0  0  0  0  0  0  0  0  0
    5.2952   -2.5350   21.3199 H   0  0  0  0  0  0  0  0  0  0  0  0
    6.5303   -1.0501   22.1286 O   0  0  0  0  0  0  0  0  0  0  0  0
    5.3462    0.6353   20.1392 C   0  0  0  0  0  0  0  0  0  0  0  0
    4.8641    0.6292   21.1174 H   0  0  0  0  0  0  0  0  0  0  0  0
    4.7712    1.3035   19.0604 C   0  0  0  0  0  0  0  0  0  0  0  0
    3.8483    1.8622   19.1696 H   0  0  0  0  0  0  0  0  0  0  0  0
  1  2  1  0
  2  3  2  0
  3  4  1  0
  4  5  1  0
  4  6  2  0
  6  7  1  0
  7  8  1  0
  8  9  1  1
  8 10  1  0
 10 11  2  0
 11 12  1  0
 12 13  1  0
 12 14  1  0
 11 15  1  0
 15 16  1  0
 16 17  1  0
 16 18  1  0
  7 19  1  0
 19 20  1  0
 20 21  1  0
 20 22  1  0
 20 23  1  0
 23 24  1  0
 23 25  1  0
 23 26  1  0
  6 27  1  0
 27 28  1  0
 27 29  2  0
 29 30  1  0
 29  2  1  0
 26  7  1  0
 16  8  1  0
M  END
>  <cnnaffinity>  (1) 
4.17146

>  <plip>  (1) 
-0.06896551724137931

>  <filename>  (1) 
[H][c]1[n][c]([H])[c]([C]2([C@]3([H])[N]=[C]([N]([H])[H])[O][C]3([H])[H])[O][C]([H])([H])[C]([H])([H])[O]2)[c]([H])[c]1[H]

>  <combo1>  (1) 
-0.4076449976573502

$$$$
