
     RDKit          3D

 35 37  0  0  0  0  0  0  0  0999 V2000
    8.6059    1.0874   21.6888 H   0  0  0  0  0  0  0  0  0  0  0  0
    7.9401    0.2928   21.9941 C   0  0  0  0  0  0  0  0  0  0  0  0
    7.3623    0.2579   23.2099 C   0  0  0  0  0  0  0  0  0  0  0  0
    7.3923    1.3704   24.2255 C   0  0  0  0  0  0  0  0  0  0  0  0
    8.4212    1.7364   24.2853 H   0  0  0  0  0  0  0  0  0  0  0  0
    7.1526    0.9674   25.2193 H   0  0  0  0  0  0  0  0  0  0  0  0
    6.4804    2.5389   23.8727 C   0  0  0  0  0  0  0  0  0  0  0  0
    5.2179    2.6689   24.4654 C   0  0  0  0  0  0  0  0  0  0  0  0
    4.9031    1.9391   25.2098 H   0  0  0  0  0  0  0  0  0  0  0  0
    4.3679    3.7293   24.1335 C   0  0  0  0  0  0  0  0  0  0  0  0
    3.4011    3.8434   24.6135 H   0  0  0  0  0  0  0  0  0  0  0  0
    4.7887    4.6659   23.1868 C   0  0  0  0  0  0  0  0  0  0  0  0
    3.7436    5.9983   22.7798 Cl  0  0  0  0  0  0  0  0  0  0  0  0
    6.0454    4.5650   22.5823 C   0  0  0  0  0  0  0  0  0  0  0  0
    6.3556    5.3148   21.8596 H   0  0  0  0  0  0  0  0  0  0  0  0
    6.8841    3.5037   22.9340 C   0  0  0  0  0  0  0  0  0  0  0  0
    7.8758    3.4418   22.4841 H   0  0  0  0  0  0  0  0  0  0  0  0
    6.6279   -0.8785   23.5401 N   0  0  0  0  0  0  0  0  0  0  0  0
    6.2054   -1.0296   24.4442 H   0  0  0  0  0  0  0  0  0  0  0  0
    6.4488   -1.9582   22.7353 C   0  0  0  0  0  0  0  0  0  0  0  0
    5.6380   -3.3096   23.2602 S   0  0  0  0  0  0  0  0  0  0  0  0
    6.9450   -1.8620   21.4908 N   0  0  0  0  0  0  0  0  0  0  0  0
    6.5805   -2.5735   20.8821 H   0  0  0  0  0  0  0  0  0  0  0  0
    7.5671   -0.6723   20.9217 C   0  0  1  0  0  0  0  0  0  0  0  0
    8.4847   -1.0123   20.4144 H   0  0  0  0  0  0  0  0  0  0  0  0
    6.6856   -0.0343   19.8394 C   0  0  0  0  0  0  0  0  0  0  0  0
    7.1634    0.0120   18.5258 C   0  0  0  0  0  0  0  0  0  0  0  0
    8.1035   -0.4822   18.2832 H   0  0  0  0  0  0  0  0  0  0  0  0
    6.5603    0.6495   17.5148 N   0  0  0  0  0  0  0  0  0  0  0  0
    5.4119    1.2799   17.7988 C   0  0  0  0  0  0  0  0  0  0  0  0
    4.9459    1.8160   16.9727 H   0  0  0  0  0  0  0  0  0  0  0  0
    4.8179    1.2662   19.0679 C   0  0  0  0  0  0  0  0  0  0  0  0
    3.8879    1.8007   19.2254 H   0  0  0  0  0  0  0  0  0  0  0  0
    5.4611    0.5935   20.1113 C   0  0  0  0  0  0  0  0  0  0  0  0
    5.0361    0.5833   21.1191 H   0  0  0  0  0  0  0  0  0  0  0  0
  1  2  1  0
  2  3  2  0
  3  4  1  0
  4  5  1  0
  4  6  1  0
  4  7  1  0
  7  8  2  0
  8  9  1  0
  8 10  1  0
 10 11  1  0
 10 12  2  0
 12 13  1  0
 12 14  1  0
 14 15  1  0
 14 16  2  0
 16 17  1  0
  3 18  1  0
 18 19  1  0
 18 20  1  0
 20 21  2  0
 20 22  1  0
 22 23  1  0
 22 24  1  0
 24 25  1  6
 24 26  1  0
 26 27  2  0
 27 28  1  0
 27 29  1  0
 29 30  2  0
 30 31  1  0
 30 32  1  0
 32 33  1  0
 32 34  2  0
 34 35  1  0
 24  2  1  0
 34 26  1  0
 16  7  1  0
M  END
>  <cnnaffinity>  (1) 
4.89247

>  <plip>  (1) 
-0.03571428571428571

>  <filename>  (1) 
[H][C]1=[C]([C]([H])([H])[c]2[c]([H])[c]([H])[c]([Cl])[c]([H])[c]2[H])[N]([H])[C](=[S])[N]([H])[C@@]1([H])[c]1[c]([H])[n][c]([H])[c]([H])[c]1[H]

>  <combo1>  (1) 
-0.18441527052990847

$$$$
