
     RDKit          3D

 40 42  0  0  0  0  0  0  0  0999 V2000
   12.5511    1.9584   23.7493 C   0  0  0  0  0  0  0  0  0  0  0  0
   12.0647    2.9973   22.8140 C   0  0  0  0  0  0  0  0  0  0  0  0
   10.9327    2.6300   21.8488 C   0  0  0  0  0  0  0  0  0  0  0  0
    9.7084    2.0239   22.6646 C   0  0  0  0  0  0  0  0  0  0  0  0
    9.1118    0.8943   21.8773 N   0  0  0  0  0  4  0  0  0  0  0  0
   10.1673   -0.1925   21.7244 C   0  0  0  0  0  0  0  0  0  0  0  0
    9.7430   -1.1475   20.6307 C   0  0  0  0  0  0  0  0  0  0  0  0
    8.3259   -1.6789   20.8720 C   0  0  0  0  0  0  0  0  0  0  0  0
    7.2490   -0.6377   21.1937 C   0  0  0  0  0  0  0  0  0  0  0  0
    6.6344    0.0472   19.9645 C   0  0  0  0  0  0  0  0  0  0  0  0
    5.4036    0.6957   20.1454 C   0  0  0  0  0  0  0  0  0  0  0  0
    4.7853    1.3322   19.0727 C   0  0  0  0  0  0  0  0  0  0  0  0
    5.4154    1.3024   17.8260 C   0  0  0  0  0  0  0  0  0  0  0  0
    6.5771    0.6733   17.6089 N   0  0  0  0  0  0  0  0  0  0  0  0
    7.1618    0.0611   18.6518 C   0  0  0  0  0  0  0  0  0  0  0  0
    8.0889   -0.4537   18.3925 H   0  0  0  0  0  0  0  0  0  0  0  0
    4.9684    1.8022   16.9689 H   0  0  0  0  0  0  0  0  0  0  0  0
    3.8446    1.8561   19.1947 H   0  0  0  0  0  0  0  0  0  0  0  0
    4.9326    0.6786   21.1295 H   0  0  0  0  0  0  0  0  0  0  0  0
    7.7728    0.3223   22.2843 C   0  0  0  0  0  0  0  0  0  0  0  0
    7.8621   -0.2341   23.2323 H   0  0  0  0  0  0  0  0  0  0  0  0
    7.0329    1.1096   22.4744 H   0  0  0  0  0  0  0  0  0  0  0  0
    6.4213   -1.1847   21.6664 H   0  0  0  0  0  0  0  0  0  0  0  0
    7.9334   -2.1963   20.0162 H   0  0  0  0  0  0  0  0  0  0  0  0
    8.3657   -2.4153   21.6829 H   0  0  0  0  0  0  0  0  0  0  0  0
    9.8188   -0.6622   19.6489 H   0  0  0  0  0  0  0  0  0  0  0  0
   10.4573   -1.9727   20.6516 H   0  0  0  0  0  0  0  0  0  0  0  0
   11.1354    0.2458   21.5374 H   0  0  0  0  0  0  0  0  0  0  0  0
   10.2746   -0.7234   22.6823 H   0  0  0  0  0  0  0  0  0  0  0  0
    8.9617    1.3501   20.9404 H   0  0  0  0  0  0  0  0  0  0  0  0
   10.0077    1.5642   23.6199 H   0  0  0  0  0  0  0  0  0  0  0  0
    8.8755    2.7097   22.8698 H   0  0  0  0  0  0  0  0  0  0  0  0
   10.9322    2.6307   21.8510 N   0  0  0  0  0  0  0  0  0  0  0  0
   12.3301    4.4241   21.0460 C   0  0  0  0  0  0  0  0  0  0  0  0
   12.8532    3.6601   21.9943 N   0  0  0  0  0  0  0  0  0  0  0  0
   13.8281    3.7941   22.2077 H   0  0  0  0  0  0  0  0  0  0  0  0
   13.0406    5.0940   20.4771 H   0  0  0  0  0  0  0  0  0  0  0  0
   12.3256    0.9524   23.4338 H   0  0  0  0  0  0  0  0  0  0  0  0
   12.0021    2.1621   24.6656 H   0  0  0  0  0  0  0  0  0  0  0  0
   13.6118    2.0326   23.9781 H   0  0  0  0  0  0  0  0  0  0  0  0
  1  2  1  0
  2  3  2  0
  3  4  1  0
  4  5  1  0
  5  6  1  0
  6  7  1  0
  7  8  1  0
  8  9  1  0
  9 10  1  0
 10 11  2  0
 11 12  1  0
 12 13  2  0
 13 14  1  0
 14 15  2  0
 15 16  1  0
 13 17  1  0
 12 18  1  0
 11 19  1  0
  9 20  1  0
 20 21  1  0
 20 22  1  0
  9 23  1  0
  8 24  1  0
  8 25  1  0
  7 26  1  0
  7 27  1  0
  6 28  1  0
  6 29  1  0
  5 30  1  0
  4 31  1  0
  4 32  1  0
  3 33  1  0
 33 34  2  0
 34 35  1  0
 35 36  1  0
 34 37  1  0
  1 38  1  0
  1 39  1  0
  1 40  1  0
 35  2  1  0
 20  5  1  0
 15 10  1  0
M  CHG  1   5   1
M  END
>  <cnnaffinity>  (1) 
4.90301

>  <plip>  (1) 
-0.13793103448275862

>  <filename>  (1) 
[H][c]1[n][c]([H])[c]([C]2([H])[C]([H])([H])[C]([H])([H])[C]([H])([H])[N+]([H])([C]([H])([H])[c]3[n][c]([H])[n]([H])[c]3[C]([H])([H])[H])[C]2([H])[H])[c]([H])[c]1[H]

>  <combo1>  (1) 
-0.8759126173990489

$$$$
