
     RDKit          3D

 53 56  0  0  0  0  0  0  0  0999 V2000
    4.7882   -2.5595   27.5998 C   0  0  0  0  0  0  0  0  0  0  0  0
    4.8145   -3.3882   26.4536 O   0  0  0  0  0  0  0  0  0  0  0  0
    4.1163   -4.5419   26.4069 C   0  0  0  0  0  0  0  0  0  0  0  0
    3.2776   -4.9761   27.4484 C   0  0  0  0  0  0  0  0  0  0  0  0
    2.5572   -6.1656   27.3257 C   0  0  0  0  0  0  0  0  0  0  0  0
    2.6528   -6.9313   26.1620 C   0  0  0  0  0  0  0  0  0  0  0  0
    3.4805   -6.5100   25.1244 C   0  0  0  0  0  0  0  0  0  0  0  0
    4.2349   -5.3290   25.2380 C   0  0  0  0  0  0  0  0  0  0  0  0
    5.1162   -4.9065   24.1365 C   0  0  0  0  0  0  0  0  0  0  0  0
    5.9233   -3.8879   24.0528 N   0  0  0  0  0  0  0  0  0  0  0  0
    6.3700   -3.9730   22.7667 C   0  0  0  0  0  0  0  0  0  0  0  0
    7.2834   -2.9204   22.1842 C   0  0  0  0  0  0  0  0  0  0  0  0
    6.5670   -1.7833   21.4785 N   0  0  0  0  0  4  0  0  0  0  0  0
    7.4005   -0.6188   21.0134 C   0  0  0  0  0  0  0  0  0  0  0  0
    7.7897    0.3382   22.1660 C   0  0  0  0  0  0  0  0  0  0  0  0
    8.7796    1.4070   21.7015 C   0  0  0  0  0  0  0  0  0  0  0  0
    9.3591    2.3555   22.7638 C   0  0  0  0  0  0  0  0  0  0  0  0
   10.8190    2.5857   22.2911 C   0  0  0  0  0  0  0  0  0  0  0  0
   10.9886    1.8444   21.0880 O   0  0  0  0  0  0  0  0  0  0  0  0
   10.0524    0.7937   21.1206 C   0  0  0  0  0  0  0  0  0  0  0  0
    9.8559    0.4144   20.1137 H   0  0  0  0  0  0  0  0  0  0  0  0
   10.4169   -0.0355   21.7597 H   0  0  0  0  0  0  0  0  0  0  0  0
   11.0414    3.6306   22.0542 H   0  0  0  0  0  0  0  0  0  0  0  0
   11.5367    2.2508   23.0584 H   0  0  0  0  0  0  0  0  0  0  0  0
    8.8038    3.2973   22.8206 H   0  0  0  0  0  0  0  0  0  0  0  0
    9.3656    1.9085   23.7664 H   0  0  0  0  0  0  0  0  0  0  0  0
    8.3205    2.0112   20.9032 H   0  0  0  0  0  0  0  0  0  0  0  0
    8.2605   -0.2524   22.9685 H   0  0  0  0  0  0  0  0  0  0  0  0
    6.8871    0.8040   22.5862 H   0  0  0  0  0  0  0  0  0  0  0  0
    6.5992    0.0397   19.9133 C   0  0  0  0  0  0  0  0  0  0  0  0
    5.3812    0.7058   20.1219 C   0  0  0  0  0  0  0  0  0  0  0  0
    4.7746    1.3481   19.0404 C   0  0  0  0  0  0  0  0  0  0  0  0
    5.3920    1.3062   17.7868 C   0  0  0  0  0  0  0  0  0  0  0  0
    6.5331    0.6417   17.5584 N   0  0  0  0  0  0  0  0  0  0  0  0
    7.1038    0.0311   18.6054 C   0  0  0  0  0  0  0  0  0  0  0  0
    8.0273   -0.5086   18.3878 H   0  0  0  0  0  0  0  0  0  0  0  0
    4.9511    1.8193   16.9321 H   0  0  0  0  0  0  0  0  0  0  0  0
    3.8392    1.8819   19.1516 H   0  0  0  0  0  0  0  0  0  0  0  0
    4.9019    0.7319   21.1055 H   0  0  0  0  0  0  0  0  0  0  0  0
    8.3202   -1.0200   20.5751 H   0  0  0  0  0  0  0  0  0  0  0  0
    6.0367   -2.1007   20.6267 H   0  0  0  0  0  0  0  0  0  0  0  0
    5.8749   -1.3385   22.1565 H   0  0  0  0  0  0  0  0  0  0  0  0
    7.8435   -2.5410   23.0468 H   0  0  0  0  0  0  0  0  0  0  0  0
    7.9941   -3.4181   21.5184 H   0  0  0  0  0  0  0  0  0  0  0  0
    5.9382   -4.9991   22.0972 N   0  0  0  0  0  0  0  0  0  0  0  0
    5.0984   -5.6277   23.0031 O   0  0  0  0  0  0  0  0  0  0  0  0
    3.5412   -7.0989   24.2100 H   0  0  0  0  0  0  0  0  0  0  0  0
    2.0942   -7.8553   26.0653 H   0  0  0  0  0  0  0  0  0  0  0  0
    1.9231   -6.4970   28.1438 H   0  0  0  0  0  0  0  0  0  0  0  0
    3.1925   -4.3898   28.3553 H   0  0  0  0  0  0  0  0  0  0  0  0
    5.1589   -3.0943   28.4853 H   0  0  0  0  0  0  0  0  0  0  0  0
    3.7767   -2.1727   27.7877 H   0  0  0  0  0  0  0  0  0  0  0  0
    5.4568   -1.7235   27.3788 H   0  0  0  0  0  0  0  0  0  0  0  0
  1  2  1  0
  2  3  1  0
  3  4  2  0
  4  5  1  0
  5  6  2  0
  6  7  1  0
  7  8  2  0
  8  9  1  0
  9 10  2  0
 10 11  1  0
 11 12  1  0
 12 13  1  0
 13 14  1  0
 14 15  1  0
 15 16  1  0
 16 17  1  0
 17 18  1  0
 18 19  1  0
 19 20  1  0
 20 21  1  0
 20 22  1  0
 18 23  1  0
 18 24  1  0
 17 25  1  0
 17 26  1  0
 16 27  1  0
 15 28  1  0
 15 29  1  0
 14 30  1  0
 30 31  2  0
 31 32  1  0
 32 33  2  0
 33 34  1  0
 34 35  2  0
 35 36  1  0
 33 37  1  0
 32 38  1  0
 31 39  1  0
 14 40  1  0
 13 41  1  0
 13 42  1  0
 12 43  1  0
 12 44  1  0
 11 45  2  0
 45 46  1  0
  7 47  1  0
  6 48  1  0
  5 49  1  0
  4 50  1  0
  1 51  1  0
  1 52  1  0
  1 53  1  0
  8  3  1  0
 46  9  1  0
 20 16  1  0
 35 30  1  0
M  CHG  1  13   1
M  END
>  <cnnaffinity>  (1) 
5.78121

>  <plip>  (1) 
-0.17857142857142858

>  <filename>  (1) 
[H][c]1[n][c]([H])[c]([C]([H])([C]([H])([H])[C]2([H])[C]([H])([H])[O][C]([H])([H])[C]2([H])[H])[N+]([H])([H])[C]([H])([H])[c]2[n][o][c](-[c]3[c]([H])[c]([H])[c]([H])[c]([H])[c]3[O][C]([H])([H])[H])[n]2)[c]([H])[c]1[H]

>  <combo1>  (1) 
-0.9021214579326137

$$$$
