
     RDKit          3D

 21 21  0  0  0  0  0  0  0  0999 V2000
    9.8669   -4.2418   24.9623 H   0  0  0  0  0  0  0  0  0  0  0  0
    9.5320   -4.1312   24.0015 N   0  0  0  0  0  0  0  0  0  0  0  0
    9.0600   -2.9681   23.9120 N   0  0  0  0  0  4  0  0  0  0  0  0
    8.5704   -2.4534   22.8669 N   0  0  0  0  0  0  0  0  0  0  0  0
    8.0942   -1.2281   22.9902 N   0  0  0  0  0  0  0  0  0  0  0  0
    8.3991   -0.7744   23.8259 H   0  0  0  0  0  0  0  0  0  0  0  0
    7.5612   -0.3782   22.0180 C   0  0  0  0  0  0  0  0  0  0  0  0
    7.3420   -0.7683   20.8302 N   0  0  0  0  0  0  0  0  0  0  0  0
    6.6560   -0.0040   19.8782 C   0  0  0  0  0  0  0  0  0  0  0  0
    7.1680    0.0598   18.5545 C   0  0  0  0  0  0  0  0  0  0  0  0
    8.1032   -0.4597   18.3490 H   0  0  0  0  0  0  0  0  0  0  0  0
    6.5772    0.7089   17.5514 N   0  0  0  0  0  0  0  0  0  0  0  0
    5.4114    1.3303   17.8125 C   0  0  0  0  0  0  0  0  0  0  0  0
    4.9504    1.8502   16.9770 H   0  0  0  0  0  0  0  0  0  0  0  0
    4.8077    1.3186   19.0710 C   0  0  0  0  0  0  0  0  0  0  0  0
    3.8697    1.8385   19.2194 H   0  0  0  0  0  0  0  0  0  0  0  0
    5.4374    0.6494   20.1256 C   0  0  0  0  0  0  0  0  0  0  0  0
    5.0127    0.6225   21.1305 H   0  0  0  0  0  0  0  0  0  0  0  0
    7.3328    0.8670   22.5476 N   0  0  0  0  0  0  0  0  0  0  0  0
    7.5819    1.1085   23.4908 H   0  0  0  0  0  0  0  0  0  0  0  0
    7.2229    1.6349   21.9102 H   0  0  0  0  0  0  0  0  0  0  0  0
  1  2  1  0
  2  3  2  0
  3  4  2  0
  4  5  1  0
  5  6  1  0
  5  7  1  0
  7  8  2  3
  8  9  1  0
  9 10  2  0
 10 11  1  0
 10 12  1  0
 12 13  2  0
 13 14  1  0
 13 15  1  0
 15 16  1  0
 15 17  2  0
 17 18  1  0
  7 19  1  0
 19 20  1  0
 19 21  1  0
 17  9  1  0
M  CHG  1   3   1
M  END
>  <cnnaffinity>  (1) 
3.99393

>  <plip>  (1) 
-0.03571428571428571

>  <filename>  (1) 
[H][N]=[N+]=[N][N]([H])[C](=[N][c]1[c]([H])[n][c]([H])[c]([H])[c]1[H])[N]([H])[H]

>  <combo1>  (1) 
-0.26684842610119996

$$$$
