
     RDKit          3D

 32 34  0  0  0  0  0  0  0  0999 V2000
    6.9366   -2.0986   21.4059 O   0  0  0  0  0  0  0  0  0  0  0  0
    7.5465   -0.7896   21.1556 S   0  0  0  0  0  0  0  0  0  0  0  0
    8.9642   -0.8839   20.7934 O   0  0  0  0  0  0  0  0  0  0  0  0
    7.2887    0.1210   22.5536 N   0  0  0  0  0  0  0  0  0  0  0  0
    7.6565    1.4387   22.7089 C   0  0  0  0  0  0  0  0  0  0  0  0
    8.4228    2.0997   21.8289 C   0  0  0  0  0  0  0  0  0  0  0  0
    8.6071    3.4290   22.3810 C   0  0  0  0  0  0  0  0  0  0  0  0
    7.9972    3.5401   23.5376 N   0  0  0  0  0  0  0  0  0  0  0  0
    7.3887    2.3184   23.7482 N   0  0  0  0  0  0  0  0  0  0  0  0
    6.5496    2.0150   24.8318 C   0  0  0  0  0  0  0  0  0  0  0  0
    6.6573    2.7890   25.9973 C   0  0  0  0  0  0  0  0  0  0  0  0
    5.8201    2.5606   27.0849 C   0  0  0  0  0  0  0  0  0  0  0  0
    4.8663    1.5599   26.9625 C   0  0  0  0  0  0  0  0  0  0  0  0
    3.6666    1.2040   28.4023 Br  0  0  0  0  0  0  0  0  0  0  0  0
    4.7969    0.8240   25.7760 C   0  0  0  0  0  0  0  0  0  0  0  0
    5.6266    1.0345   24.7381 N   0  0  0  0  0  0  0  0  0  0  0  0
    4.0331    0.0589   25.6850 H   0  0  0  0  0  0  0  0  0  0  0  0
    5.9025    3.1407   28.0010 H   0  0  0  0  0  0  0  0  0  0  0  0
    7.4126    3.5655   26.0311 H   0  0  0  0  0  0  0  0  0  0  0  0
    9.1517    4.2445   21.9208 H   0  0  0  0  0  0  0  0  0  0  0  0
    8.8302    1.6827   20.9199 H   0  0  0  0  0  0  0  0  0  0  0  0
    6.9806   -0.4321   23.3315 H   0  0  0  0  0  0  0  0  0  0  0  0
    6.6204    0.0605   19.9273 C   0  0  0  0  0  0  0  0  0  0  0  0
    5.4091    0.6886   20.1886 C   0  0  0  0  0  0  0  0  0  0  0  0
    4.8152    1.3079   19.1117 C   0  0  0  0  0  0  0  0  0  0  0  0
    5.4324    1.2731   17.8631 C   0  0  0  0  0  0  0  0  0  0  0  0
    6.6007    0.6428   17.6486 N   0  0  0  0  0  0  0  0  0  0  0  0
    7.1934    0.0415   18.6773 C   0  0  0  0  0  0  0  0  0  0  0  0
    8.1412   -0.4644   18.5031 H   0  0  0  0  0  0  0  0  0  0  0  0
    4.9504    1.7781   17.0350 H   0  0  0  0  0  0  0  0  0  0  0  0
    3.8759    1.8309   19.2244 H   0  0  0  0  0  0  0  0  0  0  0  0
    4.9265    0.7148   21.1681 H   0  0  0  0  0  0  0  0  0  0  0  0
  1  2  2  0
  2  3  2  0
  2  4  1  0
  4  5  1  0
  5  6  2  0
  6  7  1  0
  7  8  2  0
  8  9  1  0
  9 10  1  0
 10 11  2  0
 11 12  1  0
 12 13  2  0
 13 14  1  0
 13 15  1  0
 15 16  2  0
 15 17  1  0
 12 18  1  0
 11 19  1  0
  7 20  1  0
  6 21  1  0
  4 22  1  0
  2 23  1  0
 23 24  2  0
 24 25  1  0
 25 26  2  0
 26 27  1  0
 27 28  2  0
 28 29  1  0
 26 30  1  0
 25 31  1  0
 24 32  1  0
  9  5  1  0
 16 10  1  0
 28 23  1  0
M  END
>  <cnnaffinity>  (1) 
5.30036

>  <plip>  (1) 
-0.07142857142857142

>  <filename>  (1) 
[H][c]1[n][c]([H])[c]([S](=[O])(=[O])[N]([H])[c]2[c]([H])[c]([H])[n][n]2-[c]2[n][c]([H])[c]([Br])[c]([H])[c]2[H])[c]([H])[c]1[H]

>  <combo1>  (1) 
-0.3319044876325133

$$$$
