
     RDKit          3D

 28 30  0  0  0  0  0  0  0  0999 V2000
    4.9154    1.7859   16.9939 H   0  0  0  0  0  0  0  0  0  0  0  0
    5.3975    1.2962   17.8357 C   0  0  0  0  0  0  0  0  0  0  0  0
    6.5616    0.6830   17.5682 N   0  0  0  0  0  0  0  0  0  0  0  0
    7.1621    0.0498   18.5813 C   0  0  0  0  0  0  0  0  0  0  0  0
    8.1204   -0.4246   18.3777 H   0  0  0  0  0  0  0  0  0  0  0  0
    6.6263   -0.0317   19.8763 C   0  0  0  0  0  0  0  0  0  0  0  0
    7.5862   -0.8353   21.1321 S   0  0  0  0  0  0  0  0  0  0  0  0
    8.7757    0.7569   21.7236 S   0  0  0  0  0  0  0  0  0  0  0  0
    7.7448    1.4321   22.9832 C   0  0  0  0  0  0  0  0  0  0  0  0
    7.8366    0.8767   24.1627 N   0  0  0  0  0  0  0  0  0  0  0  0
    7.0018    1.3495   25.1406 C   0  0  0  0  0  0  0  0  0  0  0  0
    7.0955    0.7727   26.4371 C   0  0  0  0  0  0  0  0  0  0  0  0
    7.8247   -0.0191   26.5774 H   0  0  0  0  0  0  0  0  0  0  0  0
    6.2870    1.2231   27.4597 C   0  0  0  0  0  0  0  0  0  0  0  0
    6.3585    0.7857   28.4543 H   0  0  0  0  0  0  0  0  0  0  0  0
    5.3449    2.2680   27.2317 C   0  0  0  0  0  0  0  0  0  0  0  0
    4.7139    2.6108   28.0504 H   0  0  0  0  0  0  0  0  0  0  0  0
    5.2298    2.8420   25.9862 C   0  0  0  0  0  0  0  0  0  0  0  0
    4.5174    3.6432   25.7917 H   0  0  0  0  0  0  0  0  0  0  0  0
    6.0528    2.3977   24.9136 C   0  0  0  0  0  0  0  0  0  0  0  0
    5.9854    2.9634   23.6031 C   0  0  0  0  0  0  0  0  0  0  0  0
    5.2659    3.7622   23.4065 H   0  0  0  0  0  0  0  0  0  0  0  0
    6.8341    2.4932   22.6357 C   0  0  0  0  0  0  0  0  0  0  0  0
    6.8016    2.8712   21.6147 H   0  0  0  0  0  0  0  0  0  0  0  0
    5.4187    0.6200   20.1511 C   0  0  0  0  0  0  0  0  0  0  0  0
    5.0075    0.6194   21.1649 H   0  0  0  0  0  0  0  0  0  0  0  0
    4.7992    1.3075   19.1014 C   0  0  0  0  0  0  0  0  0  0  0  0
    3.8715    1.8480   19.2568 H   0  0  0  0  0  0  0  0  0  0  0  0
  1  2  1  0
  2  3  2  0
  3  4  1  0
  4  5  1  0
  4  6  2  0
  6  7  1  0
  7  8  1  0
  8  9  1  0
  9 10  2  0
 10 11  1  0
 11 12  2  0
 12 13  1  0
 12 14  1  0
 14 15  1  0
 14 16  2  0
 16 17  1  0
 16 18  1  0
 18 19  1  0
 18 20  2  0
 20 21  1  0
 21 22  1  0
 21 23  2  0
 23 24  1  0
  6 25  1  0
 25 26  1  0
 25 27  2  0
 27 28  1  0
 27  2  1  0
 23  9  1  0
 20 11  1  0
M  END
>  <cnnaffinity>  (1) 
4.86425

>  <plip>  (1) 
-0.0

>  <filename>  (1) 
[H][c]1[n][c]([H])[c]([S][S][c]2[n][c]3[c]([H])[c]([H])[c]([H])[c]([H])[c]3[c]([H])[c]2[H])[c]([H])[c]1[H]

>  <combo1>  (1) 
-5.996762605005757e-06

$$$$
