
     RDKit          3D

 49 52  0  0  0  0  0  0  0  0999 V2000
    7.5147    4.1313   27.8231 F   0  0  0  0  0  0  0  0  0  0  0  0
    8.3571    4.3628   26.8033 C   0  0  0  0  0  0  0  0  0  0  0  0
    9.2352    5.4406   26.8886 C   0  0  0  0  0  0  0  0  0  0  0  0
   10.1077    5.6834   25.8266 C   0  0  0  0  0  0  0  0  0  0  0  0
   10.0864    4.8665   24.6996 C   0  0  0  0  0  0  0  0  0  0  0  0
    9.1994    3.7709   24.6193 C   0  0  0  0  0  0  0  0  0  0  0  0
    9.2220    2.9124   23.3860 C   0  0  0  0  0  0  0  0  0  0  0  0
   10.1618    3.1884   22.4682 N   0  0  0  0  0  0  0  0  0  0  0  0
   10.1608    2.4049   21.4075 C   0  0  0  0  0  0  0  0  0  0  0  0
    9.3696    1.3598   21.1931 N   0  0  0  0  0  0  0  0  0  0  0  0
    8.5095    1.1962   22.1866 C   0  0  0  0  0  0  0  0  0  0  0  0
    7.6999    0.1336   22.2143 N   0  0  0  0  0  0  0  0  0  0  0  0
    7.4104   -0.6637   21.0406 C   0  0  0  0  0  0  0  0  0  0  0  0
    6.6077   -1.9225   21.4099 C   0  0  0  0  0  0  0  0  0  0  0  0
    7.2449   -2.8974   22.3503 N   0  0  0  0  0  4  0  0  0  0  0  0
    8.4654   -3.6264   21.8436 C   0  0  0  0  0  0  0  0  0  0  0  0
    8.5579   -4.9003   22.7044 C   0  0  0  0  0  0  0  0  0  0  0  0
    7.1927   -5.0399   23.4051 C   0  0  0  0  0  0  0  0  0  0  0  0
    6.3002   -3.9905   22.7581 C   0  0  0  0  0  0  0  0  0  0  0  0
    5.5082   -3.6150   23.4119 H   0  0  0  0  0  0  0  0  0  0  0  0
    5.8315   -4.3759   21.8460 H   0  0  0  0  0  0  0  0  0  0  0  0
    6.7717   -6.0431   23.3003 H   0  0  0  0  0  0  0  0  0  0  0  0
    7.2784   -4.8394   24.4773 H   0  0  0  0  0  0  0  0  0  0  0  0
    8.7728   -5.7708   22.0769 H   0  0  0  0  0  0  0  0  0  0  0  0
    9.3647   -4.8319   23.4408 H   0  0  0  0  0  0  0  0  0  0  0  0
    9.3511   -2.9886   21.8965 H   0  0  0  0  0  0  0  0  0  0  0  0
    8.3064   -3.8802   20.7908 H   0  0  0  0  0  0  0  0  0  0  0  0
    7.5182   -2.3634   23.2144 H   0  0  0  0  0  0  0  0  0  0  0  0
    5.6699   -1.5662   21.8476 H   0  0  0  0  0  0  0  0  0  0  0  0
    6.3562   -2.4411   20.4768 H   0  0  0  0  0  0  0  0  0  0  0  0
    6.6741    0.1329   19.9842 C   0  0  0  0  0  0  0  0  0  0  0  0
    5.4511    0.7964   20.1842 C   0  0  0  0  0  0  0  0  0  0  0  0
    4.8265    1.3867   19.0835 C   0  0  0  0  0  0  0  0  0  0  0  0
    5.4532    1.3205   17.8347 C   0  0  0  0  0  0  0  0  0  0  0  0
    6.6383    0.7286   17.6356 N   0  0  0  0  0  0  0  0  0  0  0  0
    7.2243    0.1700   18.7004 C   0  0  0  0  0  0  0  0  0  0  0  0
    8.1924   -0.3050   18.5288 H   0  0  0  0  0  0  0  0  0  0  0  0
    4.9769    1.7523   16.9558 H   0  0  0  0  0  0  0  0  0  0  0  0
    3.8720    1.8904   19.1772 H   0  0  0  0  0  0  0  0  0  0  0  0
    4.9869    0.8680   21.1721 H   0  0  0  0  0  0  0  0  0  0  0  0
    8.3795   -0.9869   20.6386 H   0  0  0  0  0  0  0  0  0  0  0  0
    6.9613    0.4436   22.8205 H   0  0  0  0  0  0  0  0  0  0  0  0
    8.3365    1.9458   23.2720 N   0  0  0  0  0  0  0  0  0  0  0  0
   10.8944    2.6646   20.6409 H   0  0  0  0  0  0  0  0  0  0  0  0
    8.3241    3.5123   25.6997 C   0  0  0  0  0  0  0  0  0  0  0  0
    7.6251    2.6763   25.7031 H   0  0  0  0  0  0  0  0  0  0  0  0
   10.7543    5.0611   23.8644 H   0  0  0  0  0  0  0  0  0  0  0  0
   10.8142    6.5079   25.8618 H   0  0  0  0  0  0  0  0  0  0  0  0
    9.2227    6.0643   27.7740 H   0  0  0  0  0  0  0  0  0  0  0  0
  1  2  1  0
  2  3  2  0
  3  4  1  0
  4  5  2  0
  5  6  1  0
  6  7  1  0
  7  8  2  0
  8  9  1  0
  9 10  2  0
 10 11  1  0
 11 12  1  0
 12 13  1  0
 13 14  1  0
 14 15  1  0
 15 16  1  0
 16 17  1  0
 17 18  1  0
 18 19  1  0
 19 20  1  0
 19 21  1  0
 18 22  1  0
 18 23  1  0
 17 24  1  0
 17 25  1  0
 16 26  1  0
 16 27  1  0
 15 28  1  0
 14 29  1  0
 14 30  1  0
 13 31  1  0
 31 32  2  0
 32 33  1  0
 33 34  2  0
 34 35  1  0
 35 36  2  0
 36 37  1  0
 34 38  1  0
 33 39  1  0
 32 40  1  0
 13 41  1  0
 12 42  1  0
 11 43  2  0
  9 44  1  0
  6 45  2  0
 45 46  1  0
  5 47  1  0
  4 48  1  0
  3 49  1  0
 45  2  1  0
 43  7  1  0
 19 15  1  0
 36 31  1  0
M  CHG  1  15   1
M  END
>  <cnnaffinity>  (1) 
5.80361

>  <plip>  (1) 
-0.17857142857142858

>  <filename>  (1) 
[H][c]1[n][c](-[c]2[c]([H])[c]([H])[c]([H])[c]([F])[c]2[H])[n][c]([N]([H])[C]([H])([c]2[c]([H])[n][c]([H])[c]([H])[c]2[H])[C]([H])([H])[N+]2([H])[C]([H])([H])[C]([H])([H])[C]([H])([H])[C]2([H])[H])[n]1

>  <combo1>  (1) 
-0.9453173091607728

$$$$
