
     RDKit          3D

 25 26  0  0  0  0  0  0  0  0999 V2000
    9.9676    0.0825   20.3875 H   0  0  0  0  0  0  0  0  0  0  0  0
    9.7752    0.8048   21.0823 N   0  0  0  0  0  0  0  0  0  0  0  0
    8.6705    0.5712   21.6555 C   0  0  0  0  0  0  0  0  0  0  0  0
    7.5835   -0.7979   21.1488 S   0  0  0  0  0  0  0  0  0  0  0  0
    6.6269   -0.0143   19.8428 C   0  0  0  0  0  0  0  0  0  0  0  0
    7.1158    0.0156   18.5231 C   0  0  0  0  0  0  0  0  0  0  0  0
    8.0555   -0.4848   18.2836 H   0  0  0  0  0  0  0  0  0  0  0  0
    6.5108    0.6585   17.5181 N   0  0  0  0  0  0  0  0  0  0  0  0
    5.3672    1.3014   17.8014 C   0  0  0  0  0  0  0  0  0  0  0  0
    4.9086    1.8458   16.9791 H   0  0  0  0  0  0  0  0  0  0  0  0
    4.7790    1.3071   19.0713 C   0  0  0  0  0  0  0  0  0  0  0  0
    3.8548    1.8521   19.2282 H   0  0  0  0  0  0  0  0  0  0  0  0
    5.4175    0.6318   20.1179 C   0  0  0  0  0  0  0  0  0  0  0  0
    5.0174    0.6410   21.1347 H   0  0  0  0  0  0  0  0  0  0  0  0
    8.1649    1.5429   22.7328 C   0  0  2  0  0  0  0  0  0  0  0  0
    9.0630    1.7718   23.3180 H   0  0  0  0  0  0  0  0  0  0  0  0
    7.0889    1.1084   23.6166 N   0  0  0  0  0  0  0  0  0  0  0  0
    6.1285    1.9045   23.3794 C   0  0  0  0  0  0  0  0  0  0  0  0
    4.8526    1.7311   23.8041 N   0  0  0  0  0  0  0  0  0  0  0  0
    4.9225    1.1313   24.6114 H   0  0  0  0  0  0  0  0  0  0  0  0
    4.4782    2.6489   23.9737 H   0  0  0  0  0  0  0  0  0  0  0  0
    6.3200    2.9956   22.6377 O   0  0  0  0  0  0  0  0  0  0  0  0
    7.6235    2.8345   22.0478 C   0  0  0  0  0  0  0  0  0  0  0  0
    8.2290    3.7249   22.2412 H   0  0  0  0  0  0  0  0  0  0  0  0
    7.4719    2.7248   20.9692 H   0  0  0  0  0  0  0  0  0  0  0  0
  1  2  1  0
  2  3  2  3
  3  4  1  0
  4  5  1  0
  5  6  2  0
  6  7  1  0
  6  8  1  0
  8  9  2  0
  9 10  1  0
  9 11  1  0
 11 12  1  0
 11 13  2  0
 13 14  1  0
  3 15  1  0
 15 16  1  1
 15 17  1  0
 17 18  2  0
 18 19  1  0
 19 20  1  0
 19 21  1  0
 18 22  1  0
 22 23  1  0
 23 24  1  0
 23 25  1  0
 13  5  1  0
 23 15  1  0
M  END
>  <cnnaffinity>  (1) 
3.88178

>  <plip>  (1) 
-0.10344827586206896

>  <filename>  (1) 
[H][N]=[C]([S][c]1[c]([H])[n][c]([H])[c]([H])[c]1[H])[C@]1([H])[N]=[C]([N]([H])[H])[O][C]1([H])[H]

>  <combo1>  (1) 
-0.6022075679845086

$$$$
