
     RDKit          3D

 22 23  0  0  0  0  0  0  0  0999 V2000
    7.0970    4.0663   25.2162 H   0  0  0  0  0  0  0  0  0  0  0  0
    7.3586    3.3300   24.4625 C   0  0  0  0  0  0  0  0  0  0  0  0
    6.5646    2.2371   24.3826 N   0  0  0  0  0  0  0  0  0  0  0  0
    6.9054    1.3292   23.4653 C   0  0  0  0  0  0  0  0  0  0  0  0
    6.3168    0.4195   23.3886 H   0  0  0  0  0  0  0  0  0  0  0  0
    8.0514    1.5036   22.6243 C   0  0  0  0  0  0  0  0  0  0  0  0
    8.5212    0.5924   21.7096 N   0  0  0  0  0  0  0  0  0  0  0  0
    9.3237    1.0082   21.2487 H   0  0  0  0  0  0  0  0  0  0  0  0
    7.6513   -0.7308   21.1728 S   0  0  0  0  0  0  0  0  0  0  0  0
    6.6548    0.0286   19.9122 C   0  0  0  0  0  0  0  0  0  0  0  0
    7.1734    0.0630   18.6106 C   0  0  0  0  0  0  0  0  0  0  0  0
    8.1156   -0.4280   18.3810 H   0  0  0  0  0  0  0  0  0  0  0  0
    6.5606    0.6669   17.5872 N   0  0  0  0  0  0  0  0  0  0  0  0
    5.3982    1.2885   17.8382 C   0  0  0  0  0  0  0  0  0  0  0  0
    4.9413    1.7949   16.9892 H   0  0  0  0  0  0  0  0  0  0  0  0
    4.7930    1.3014   19.0996 C   0  0  0  0  0  0  0  0  0  0  0  0
    3.8647    1.8441   19.2412 H   0  0  0  0  0  0  0  0  0  0  0  0
    5.4264    0.6475   20.1603 C   0  0  0  0  0  0  0  0  0  0  0  0
    4.9873    0.6388   21.1595 H   0  0  0  0  0  0  0  0  0  0  0  0
    8.8321    2.5869   22.6970 N   0  0  0  0  0  0  0  0  0  0  0  0
    8.4716    3.4992   23.6210 C   0  0  0  0  0  0  0  0  0  0  0  0
    9.0932    4.3932   23.7032 H   0  0  0  0  0  0  0  0  0  0  0  0
  1  2  1  0
  2  3  2  0
  3  4  1  0
  4  5  1  0
  4  6  2  0
  6  7  1  0
  7  8  1  0
  7  9  1  0
  9 10  1  0
 10 11  2  0
 11 12  1  0
 11 13  1  0
 13 14  2  0
 14 15  1  0
 14 16  1  0
 16 17  1  0
 16 18  2  0
 18 19  1  0
  6 20  1  0
 20 21  2  0
 21 22  1  0
 21  2  1  0
 18 10  1  0
M  END
>  <cnnaffinity>  (1) 
4.37369

>  <plip>  (1) 
-0.03571428571428571

>  <filename>  (1) 
[H][c]1[n][c]([H])[c]([N]([H])[S][c]2[c]([H])[n][c]([H])[c]([H])[c]2[H])[n][c]1[H]

>  <combo1>  (1) 
-0.2549116220428972

$$$$
