
     RDKit          3D

 33 35  0  0  0  0  0  0  0  0999 V2000
    8.7146   -0.6173   21.0741 C   0  0  0  0  0  0  0  0  0  0  0  0
    7.3842   -0.7212   20.9659 C   0  0  0  0  0  0  0  0  0  0  0  0
    6.6331   -0.0050   19.8899 C   0  0  0  0  0  0  0  0  0  0  0  0
    5.4164    0.6599   20.1098 C   0  0  0  0  0  0  0  0  0  0  0  0
    4.8055    1.3256   19.0424 C   0  0  0  0  0  0  0  0  0  0  0  0
    5.4187    1.3215   17.7856 C   0  0  0  0  0  0  0  0  0  0  0  0
    6.5795    0.6943   17.5458 N   0  0  0  0  0  0  0  0  0  0  0  0
    7.1572    0.0694   18.5764 C   0  0  0  0  0  0  0  0  0  0  0  0
    8.0934   -0.4326   18.3447 H   0  0  0  0  0  0  0  0  0  0  0  0
    4.9658    1.8347   16.9333 H   0  0  0  0  0  0  0  0  0  0  0  0
    3.8740    1.8628   19.1655 H   0  0  0  0  0  0  0  0  0  0  0  0
    4.9589    0.6751   21.1054 H   0  0  0  0  0  0  0  0  0  0  0  0
    6.5830   -1.5211   21.9907 C   0  0  0  0  0  0  0  0  0  0  0  0
    7.4639   -2.5950   22.7208 N   0  0  0  0  0  4  0  0  0  0  0  0
    6.6946   -3.3731   23.7664 C   0  0  0  0  0  0  0  0  0  0  0  0
    5.5844   -4.1949   23.1496 C   0  0  0  0  0  0  0  0  0  0  0  0
    5.7878   -4.8874   22.0712 N   0  0  0  0  0  0  0  0  0  0  0  0
    4.6713   -5.5388   21.6373 N   0  0  0  0  0  0  0  0  0  0  0  0
    3.6437   -5.3347   22.3949 C   0  0  0  0  0  0  0  0  0  0  0  0
    3.9637   -4.3026   23.7496 S   0  0  0  0  0  0  0  0  0  0  0  0
    2.6748   -5.7758   22.1786 H   0  0  0  0  0  0  0  0  0  0  0  0
    6.2995   -2.7128   24.5416 H   0  0  0  0  0  0  0  0  0  0  0  0
    7.3755   -4.0642   24.2794 H   0  0  0  0  0  0  0  0  0  0  0  0
    8.7017   -1.9086   23.2505 C   0  0  0  0  0  0  0  0  0  0  0  0
    9.5332   -1.3891   22.0836 C   0  0  0  0  0  0  0  0  0  0  0  0
   10.0328   -2.2275   21.5824 H   0  0  0  0  0  0  0  0  0  0  0  0
   10.3273   -0.7549   22.4841 H   0  0  0  0  0  0  0  0  0  0  0  0
    8.3803   -1.0634   23.8724 H   0  0  0  0  0  0  0  0  0  0  0  0
    9.2768   -2.5867   23.8930 H   0  0  0  0  0  0  0  0  0  0  0  0
    7.7340   -3.2992   21.9823 H   0  0  0  0  0  0  0  0  0  0  0  0
    6.1750   -0.8550   22.7637 H   0  0  0  0  0  0  0  0  0  0  0  0
    5.7376   -2.0307   21.5263 H   0  0  0  0  0  0  0  0  0  0  0  0
    9.2618    0.0527   20.4024 H   0  0  0  0  0  0  0  0  0  0  0  0
  1  2  2  0
  2  3  1  0
  3  4  2  0
  4  5  1  0
  5  6  2  0
  6  7  1  0
  7  8  2  0
  8  9  1  0
  6 10  1  0
  5 11  1  0
  4 12  1  0
  2 13  1  0
 13 14  1  0
 14 15  1  0
 15 16  1  0
 16 17  2  0
 17 18  1  0
 18 19  2  0
 19 20  1  0
 19 21  1  0
 15 22  1  0
 15 23  1  0
 14 24  1  0
 24 25  1  0
 25 26  1  0
 25 27  1  0
 24 28  1  0
 24 29  1  0
 14 30  1  0
 13 31  1  0
 13 32  1  0
  1 33  1  0
 25  1  1  0
  8  3  1  0
 20 16  1  0
M  CHG  1  14   1
M  END
>  <cnnaffinity>  (1) 
4.86413

>  <plip>  (1) 
-0.07142857142857142

>  <filename>  (1) 
[H][C]1=[C]([c]2[c]([H])[n][c]([H])[c]([H])[c]2[H])[C]([H])([H])[N+]([H])([C]([H])([H])[c]2[n][n][c]([H])[s]2)[C]([H])([H])[C]1([H])[H]

>  <combo1>  (1) 
-0.44653574999660345

$$$$
