
     RDKit          3D

 38 41  0  0  0  0  0  0  0  0999 V2000
    4.9775    1.8577   16.9246 H   0  0  0  0  0  0  0  0  0  0  0  0
    5.3772    1.3220   17.7864 C   0  0  0  0  0  0  0  0  0  0  0  0
    6.5261    0.6600   17.5919 N   0  0  0  0  0  0  0  0  0  0  0  0
    7.0641    0.0375   18.6505 C   0  0  0  0  0  0  0  0  0  0  0  0
    7.9954   -0.4900   18.4525 H   0  0  0  0  0  0  0  0  0  0  0  0
    6.4929    0.0114   19.9432 C   0  0  0  0  0  0  0  0  0  0  0  0
    7.2442   -0.5805   21.0732 C   0  0  0  0  0  0  0  0  0  0  0  0
    8.5939   -0.5211   21.3112 C   0  0  0  0  0  0  0  0  0  0  0  0
    8.7960   -1.0976   22.5662 C   0  0  0  0  0  0  0  0  0  0  0  0
    7.6784   -1.5440   23.1090 N   0  0  0  0  0  0  0  0  0  0  0  0
    6.7354   -1.2029   22.1852 N   0  0  0  0  0  0  0  0  0  0  0  0
    5.7682   -1.4034   22.4013 H   0  0  0  0  0  0  0  0  0  0  0  0
   10.2403   -0.9516   22.9895 C   0  0  0  0  0  0  0  0  0  0  0  0
   10.4102   -0.7197   24.0426 H   0  0  0  0  0  0  0  0  0  0  0  0
   10.7723   -1.8830   22.7590 H   0  0  0  0  0  0  0  0  0  0  0  0
   10.7532    0.1564   22.0134 C   0  0  2  0  0  0  0  0  0  0  0  0
   11.8270    0.0871   21.8210 H   0  0  0  0  0  0  0  0  0  0  0  0
   10.6562    1.8837   22.6154 S   0  0  0  0  0  0  0  0  0  0  0  0
   11.2593    1.9202   23.9436 O   0  0  0  0  0  0  0  0  0  0  0  0
   11.1986    2.6871   21.5217 O   0  0  0  0  0  0  0  0  0  0  0  0
    8.9073    2.2302   22.7696 C   0  0  0  0  0  0  0  0  0  0  0  0
    8.2022    1.8155   23.9047 C   0  0  0  0  0  0  0  0  0  0  0  0
    8.6972    1.3032   24.7301 H   0  0  0  0  0  0  0  0  0  0  0  0
    6.8347    2.0727   23.9964 C   0  0  0  0  0  0  0  0  0  0  0  0
    6.2713    1.7699   24.8711 H   0  0  0  0  0  0  0  0  0  0  0  0
    6.1897    2.7609   22.9690 C   0  0  0  0  0  0  0  0  0  0  0  0
    4.4848    3.1010   23.0876 Cl  0  0  0  0  0  0  0  0  0  0  0  0
    6.8922    3.1785   21.8392 C   0  0  0  0  0  0  0  0  0  0  0  0
    6.3733    3.7293   21.0628 H   0  0  0  0  0  0  0  0  0  0  0  0
    8.2523    2.9014   21.7346 C   0  0  0  0  0  0  0  0  0  0  0  0
    8.8034    3.2324   20.8563 H   0  0  0  0  0  0  0  0  0  0  0  0
    9.8787   -0.0079   20.7508 C   0  0  0  0  0  0  0  0  0  0  0  0
    9.7704    0.8910   20.1395 H   0  0  0  0  0  0  0  0  0  0  0  0
   10.3527   -0.7716   20.1309 H   0  0  0  0  0  0  0  0  0  0  0  0
    5.2610    0.6687   20.1067 C   0  0  0  0  0  0  0  0  0  0  0  0
    4.7557    0.6730   21.0750 H   0  0  0  0  0  0  0  0  0  0  0  0
    4.7093    1.3451   19.0180 C   0  0  0  0  0  0  0  0  0  0  0  0
    3.7900    1.9117   19.1109 H   0  0  0  0  0  0  0  0  0  0  0  0
  1  2  1  0
  2  3  2  0
  3  4  1  0
  4  5  1  0
  4  6  2  0
  6  7  1  0
  7  8  2  0
  8  9  1  0
  9 10  2  0
 10 11  1  0
 11 12  1  0
  9 13  1  0
 13 14  1  0
 13 15  1  0
 13 16  1  0
 16 17  1  6
 16 18  1  0
 18 19  2  0
 18 20  2  0
 18 21  1  0
 21 22  2  0
 22 23  1  0
 22 24  1  0
 24 25  1  0
 24 26  2  0
 26 27  1  0
 26 28  1  0
 28 29  1  0
 28 30  2  0
 30 31  1  0
 16 32  1  0
 32 33  1  0
 32 34  1  0
  6 35  1  0
 35 36  1  0
 35 37  2  0
 37 38  1  0
 37  2  1  0
 11  7  1  0
 30 21  1  0
 32  8  1  0
M  END
>  <cnnaffinity>  (1) 
5.64888

>  <plip>  (1) 
-0.07142857142857142

>  <filename>  (1) 
[H][c]1[n][c]([H])[c](-[c]2[c]3[c]([n][n]2[H])[C]([H])([H])[C@]([H])([S](=[O])(=[O])[c]2[c]([H])[c]([H])[c]([Cl])[c]([H])[c]2[H])[C]3([H])[H])[c]([H])[c]1[H]

>  <combo1>  (1) 
-0.37377137172044883

$$$$
