
     RDKit          3D

 29 31  0  0  0  0  0  0  0  0999 V2000
    7.3103   -2.3849   20.0501 H   0  0  0  0  0  0  0  0  0  0  0  0
    7.7416   -1.8360   20.8623 C   0  0  0  0  0  0  0  0  0  0  0  0
    7.3514   -0.5676   21.0670 C   0  0  0  0  0  0  0  0  0  0  0  0
    6.6293    0.1738   20.0290 C   0  0  0  0  0  0  0  0  0  0  0  0
    7.1580    0.1277   18.7264 C   0  0  0  0  0  0  0  0  0  0  0  0
    8.0974   -0.4028   18.5522 H   0  0  0  0  0  0  0  0  0  0  0  0
    6.5901    0.6949   17.6597 N   0  0  0  0  0  0  0  0  0  0  0  0
    5.4151    1.3189   17.8478 C   0  0  0  0  0  0  0  0  0  0  0  0
    4.9556    1.7712   16.9687 H   0  0  0  0  0  0  0  0  0  0  0  0
    4.7746    1.3857   19.0905 C   0  0  0  0  0  0  0  0  0  0  0  0
    3.8080    1.8701   19.1723 H   0  0  0  0  0  0  0  0  0  0  0  0
    5.3960    0.8201   20.2042 C   0  0  0  0  0  0  0  0  0  0  0  0
    4.9295    0.8328   21.1888 H   0  0  0  0  0  0  0  0  0  0  0  0
    7.6278    0.0320   22.2834 N   0  0  0  0  0  0  0  0  0  0  0  0
    7.2042    0.9025   22.5490 H   0  0  0  0  0  0  0  0  0  0  0  0
    8.3398   -0.5525   23.2743 C   0  0  0  0  0  0  0  0  0  0  0  0
    8.5033    0.1355   24.7711 S   0  0  0  0  0  0  0  0  0  0  0  0
    8.8974   -1.7547   22.9743 N   0  0  0  0  0  0  0  0  0  0  0  0
    9.2468   -2.1899   23.8104 H   0  0  0  0  0  0  0  0  0  0  0  0
    8.4481   -2.6396   21.8848 C   0  0  1  0  0  0  0  0  0  0  0  0
    9.3073   -3.1872   21.4735 H   0  0  0  0  0  0  0  0  0  0  0  0
    7.5953   -3.7549   22.3808 N   0  0  0  0  0  0  0  0  0  0  0  0
    7.8821   -5.0317   22.0499 N   0  0  0  0  0  0  0  0  0  0  0  0
    6.8590   -5.7384   22.5018 C   0  0  0  0  0  0  0  0  0  0  0  0
    6.8634   -6.8145   22.3671 H   0  0  0  0  0  0  0  0  0  0  0  0
    5.8807   -4.9087   23.0931 C   0  0  0  0  0  0  0  0  0  0  0  0
    4.9437   -5.2143   23.5307 H   0  0  0  0  0  0  0  0  0  0  0  0
    6.3855   -3.6395   22.9836 C   0  0  0  0  0  0  0  0  0  0  0  0
    5.9988   -2.6654   23.2634 H   0  0  0  0  0  0  0  0  0  0  0  0
  1  2  1  0
  2  3  2  0
  3  4  1  0
  4  5  2  0
  5  6  1  0
  5  7  1  0
  7  8  2  0
  8  9  1  0
  8 10  1  0
 10 11  1  0
 10 12  2  0
 12 13  1  0
  3 14  1  0
 14 15  1  0
 14 16  1  0
 16 17  2  0
 16 18  1  0
 18 19  1  0
 18 20  1  0
 20 21  1  6
 20 22  1  0
 22 23  1  0
 23 24  2  0
 24 25  1  0
 24 26  1  0
 26 27  1  0
 26 28  2  0
 28 29  1  0
 20  2  1  0
 28 22  1  0
 12  4  1  0
M  END
>  <cnnaffinity>  (1) 
4.7958

>  <plip>  (1) 
-0.034482758620689655

>  <filename>  (1) 
[H][C]1=[C]([c]2[c]([H])[n][c]([H])[c]([H])[c]2[H])[N]([H])[C](=[S])[N]([H])[C@@]1([H])[n]1[n][c]([H])[c]([H])[c]1[H]

>  <combo1>  (1) 
-0.21422240590013475

$$$$
