
     RDKit          3D

 30 31  0  0  0  0  0  0  0  0999 V2000
    3.0228   -3.3602   26.3690 H   0  0  0  0  0  0  0  0  0  0  0  0
    3.7856   -3.0669   25.8427 O   0  0  0  0  0  0  0  0  0  0  0  0
    4.4510   -4.2383   25.7708 C   0  0  0  0  0  0  0  0  0  0  0  0
    3.9896   -5.2200   26.2892 O   0  0  0  0  0  0  0  0  0  0  0  0
    5.7960   -4.1469   25.0023 C   0  0  0  0  0  0  0  0  0  0  0  0
    6.5442   -5.2450   24.9902 O   0  0  0  0  0  0  0  0  0  0  0  0
    7.4488   -4.9561   24.6734 H   0  0  0  0  0  0  0  0  0  0  0  0
    6.2027   -3.0253   24.3567 C   0  0  0  0  0  0  0  0  0  0  0  0
    5.5685   -2.1595   24.2559 H   0  0  0  0  0  0  0  0  0  0  0  0
    7.5306   -2.9652   23.7461 C   0  0  0  0  0  0  0  0  0  0  0  0
    8.4218   -3.7863   23.9564 O   0  0  0  0  0  0  0  0  0  0  0  0
    7.7667   -1.9100   22.8746 N   0  0  0  0  0  0  0  0  0  0  0  0
    6.8383   -1.6646   21.8691 C   0  0  0  0  0  0  0  0  0  0  0  0
    5.7752   -2.2078   21.7407 O   0  0  0  0  0  0  0  0  0  0  0  0
    7.4134   -0.7550   20.9803 N   0  0  0  0  0  0  0  0  0  0  0  0
    6.7038   -0.0709   19.9242 C   0  0  0  0  0  0  0  0  0  0  0  0
    7.2130    0.0134   18.6062 C   0  0  0  0  0  0  0  0  0  0  0  0
    8.1689   -0.4492   18.3778 H   0  0  0  0  0  0  0  0  0  0  0  0
    6.5913    0.6481   17.6062 N   0  0  0  0  0  0  0  0  0  0  0  0
    5.4323    1.2660   17.8831 C   0  0  0  0  0  0  0  0  0  0  0  0
    4.9516    1.7788   17.0493 H   0  0  0  0  0  0  0  0  0  0  0  0
    4.8554    1.2539   19.1556 C   0  0  0  0  0  0  0  0  0  0  0  0
    3.9291    1.7868   19.3162 H   0  0  0  0  0  0  0  0  0  0  0  0
    5.4900    0.5626   20.1967 C   0  0  0  0  0  0  0  0  0  0  0  0
    5.0762    0.5223   21.2022 H   0  0  0  0  0  0  0  0  0  0  0  0
    8.7844   -0.6650   21.1980 C   0  0  0  0  0  0  0  0  0  0  0  0
    9.5660   -0.0467   20.5233 O   0  0  0  0  0  0  0  0  0  0  0  0
    9.0996   -1.5122   22.4093 C   0  0  0  0  0  0  0  0  0  0  0  0
    9.6604   -0.9322   23.1459 H   0  0  0  0  0  0  0  0  0  0  0  0
    9.7060   -2.3678   22.0856 H   0  0  0  0  0  0  0  0  0  0  0  0
  1  2  1  0
  2  3  1  0
  3  4  2  0
  3  5  1  0
  5  6  1  0
  6  7  1  0
  5  8  2  3
  8  9  1  0
  8 10  1  0
 10 11  2  0
 10 12  1  0
 12 13  1  0
 13 14  2  0
 13 15  1  0
 15 16  1  0
 16 17  2  0
 17 18  1  0
 17 19  1  0
 19 20  2  0
 20 21  1  0
 20 22  1  0
 22 23  1  0
 22 24  2  0
 24 25  1  0
 15 26  1  0
 26 27  2  0
 26 28  1  0
 28 29  1  0
 28 30  1  0
 28 12  1  0
 24 16  1  0
M  END
>  <cnnaffinity>  (1) 
4.49253

>  <plip>  (1) 
-0.07142857142857142

>  <filename>  (1) 
[H][O][C](=[O])[C]([O][H])=[C]([H])[C](=[O])[N]1[C](=[O])[N]([c]2[c]([H])[n][c]([H])[c]([H])[c]2[H])[C](=[O])[C]1([H])[H]

>  <combo1>  (1) 
-0.3673008972628847

$$$$
