
     RDKit          3D

 27 28  0  0  0  0  0  0  0  0999 V2000
    4.9553    1.8048   16.9707 H   0  0  0  0  0  0  0  0  0  0  0  0
    5.3980    1.2919   17.8282 C   0  0  0  0  0  0  0  0  0  0  0  0
    6.5569    0.6600   17.5930 N   0  0  0  0  0  0  0  0  0  0  0  0
    7.1472    0.0363   18.6193 C   0  0  0  0  0  0  0  0  0  0  0  0
    8.1072   -0.4286   18.4039 H   0  0  0  0  0  0  0  0  0  0  0  0
    6.6104   -0.0089   19.9037 C   0  0  0  0  0  0  0  0  0  0  0  0
    7.3824   -0.7635   20.9414 C   0  0  0  0  0  0  0  0  0  0  0  0
    7.1858   -2.1357   20.7097 O   0  0  0  0  0  0  0  0  0  0  0  0
    7.8371   -3.0192   21.6117 C   0  0  0  0  0  0  0  0  0  0  0  0
    8.9210   -3.0090   21.4512 H   0  0  0  0  0  0  0  0  0  0  0  0
    7.6346   -2.7427   22.6485 H   0  0  0  0  0  0  0  0  0  0  0  0
    7.3553   -4.4667   21.5228 C   0  0  0  0  0  0  0  0  0  0  0  0
    8.0381   -5.1628   22.4568 F   0  0  0  0  0  0  0  0  0  0  0  0
    6.0516   -4.5967   21.7950 F   0  0  0  0  0  0  0  0  0  0  0  0
    7.5790   -5.0616   20.3517 F   0  0  0  0  0  0  0  0  0  0  0  0
    6.9652   -0.4432   22.2414 O   0  0  0  0  0  0  0  0  0  0  0  0
    7.8825    0.4802   22.8038 C   0  0  0  0  0  0  0  0  0  0  0  0
    7.9318    0.2915   23.8835 H   0  0  0  0  0  0  0  0  0  0  0  0
    7.5250    1.5058   22.6473 H   0  0  0  0  0  0  0  0  0  0  0  0
    9.1871    0.1876   22.0466 C   0  0  0  0  0  0  0  0  0  0  0  0
    9.8400   -0.5001   22.5984 H   0  0  0  0  0  0  0  0  0  0  0  0
    9.7696    1.0828   21.7876 H   0  0  0  0  0  0  0  0  0  0  0  0
    8.7493   -0.4377   20.8485 O   0  0  0  0  0  0  0  0  0  0  0  0
    5.3998    0.6533   20.1432 C   0  0  0  0  0  0  0  0  0  0  0  0
    4.9726    0.6534   21.1435 H   0  0  0  0  0  0  0  0  0  0  0  0
    4.7830    1.3154   19.0820 C   0  0  0  0  0  0  0  0  0  0  0  0
    3.8555    1.8648   19.2070 H   0  0  0  0  0  0  0  0  0  0  0  0
  1  2  1  0
  2  3  2  0
  3  4  1  0
  4  5  1  0
  4  6  2  0
  6  7  1  0
  7  8  1  0
  8  9  1  0
  9 10  1  0
  9 11  1  0
  9 12  1  0
 12 13  1  0
 12 14  1  0
 12 15  1  0
  7 16  1  0
 16 17  1  0
 17 18  1  0
 17 19  1  0
 17 20  1  0
 20 21  1  0
 20 22  1  0
 20 23  1  0
  6 24  1  0
 24 25  1  0
 24 26  2  0
 26 27  1  0
 26  2  1  0
 23  7  1  0
M  END
>  <cnnaffinity>  (1) 
3.59293

>  <plip>  (1) 
-0.03571428571428571

>  <filename>  (1) 
[H][c]1[n][c]([H])[c]([C]2([O][C]([H])([H])[C]([F])([F])[F])[O][C]([H])([H])[C]([H])([H])[O]2)[c]([H])[c]1[H]

>  <combo1>  (1) 
-0.1716494220848363

$$$$
