
     RDKit          3D

 37 38  0  0  0  0  0  0  0  0999 V2000
    5.0221    1.6046   16.9540 H   0  0  0  0  0  0  0  0  0  0  0  0
    5.5860    1.1833   17.7841 C   0  0  0  0  0  0  0  0  0  0  0  0
    6.6976    0.5112   17.4492 N   0  0  0  0  0  0  0  0  0  0  0  0
    7.4409    0.0226   18.4415 C   0  0  0  0  0  0  0  0  0  0  0  0
    8.3400   -0.5214   18.1551 H   0  0  0  0  0  0  0  0  0  0  0  0
    7.1384    0.1895   19.8077 C   0  0  0  0  0  0  0  0  0  0  0  0
    8.1716   -0.3001   20.7831 C   0  0  0  0  0  0  0  0  0  0  0  0
    9.0739   -1.0043   20.3671 O   0  0  0  0  0  0  0  0  0  0  0  0
    8.0968    0.0293   22.3290 C   0  0  0  0  0  0  0  0  0  0  0  0
    7.7621    1.5245   22.5897 C   0  0  0  0  0  0  0  0  0  0  0  0
    8.4339    2.5148   21.8414 C   0  0  0  0  0  0  0  0  0  0  0  0
    9.2572    2.2430   21.1821 H   0  0  0  0  0  0  0  0  0  0  0  0
    8.0562    3.8592   21.9401 C   0  0  0  0  0  0  0  0  0  0  0  0
    8.5135    4.6224   21.3245 H   0  0  0  0  0  0  0  0  0  0  0  0
    7.0556    4.2611   22.8154 C   0  0  0  0  0  0  0  0  0  0  0  0
    6.7564    5.3068   22.8894 H   0  0  0  0  0  0  0  0  0  0  0  0
    6.4284    3.3113   23.6358 C   0  0  0  0  0  0  0  0  0  0  0  0
    5.3272    3.7936   24.5481 C   0  0  0  0  0  0  0  0  0  0  0  0
    5.1316    4.9801   24.7338 O   0  0  0  0  0  0  0  0  0  0  0  0
    4.4503    2.7553   25.2102 C   0  0  0  0  0  0  0  0  0  0  0  0
    3.9860    2.1268   24.4420 H   0  0  0  0  0  0  0  0  0  0  0  0
    3.6848    3.2707   25.7930 H   0  0  0  0  0  0  0  0  0  0  0  0
    5.0419    2.1051   25.8652 H   0  0  0  0  0  0  0  0  0  0  0  0
    6.8281    1.9594   23.5468 C   0  0  0  0  0  0  0  0  0  0  0  0
    6.4261    1.2361   24.2528 H   0  0  0  0  0  0  0  0  0  0  0  0
    9.4703   -0.2893   22.9587 C   0  0  0  0  0  0  0  0  0  0  0  0
    9.4417   -0.1905   24.0464 H   0  0  0  0  0  0  0  0  0  0  0  0
    9.7436   -1.3204   22.7171 H   0  0  0  0  0  0  0  0  0  0  0  0
   10.2511    0.3764   22.5762 H   0  0  0  0  0  0  0  0  0  0  0  0
    7.0732   -0.9691   22.9249 C   0  0  0  0  0  0  0  0  0  0  0  0
    7.4563   -1.9903   22.8237 H   0  0  0  0  0  0  0  0  0  0  0  0
    6.0966   -0.9267   22.4298 H   0  0  0  0  0  0  0  0  0  0  0  0
    6.9380   -0.8119   23.9993 H   0  0  0  0  0  0  0  0  0  0  0  0
    5.9346    0.8321   20.1408 C   0  0  0  0  0  0  0  0  0  0  0  0
    5.6077    0.9743   21.1727 H   0  0  0  0  0  0  0  0  0  0  0  0
    5.1527    1.3351   19.1033 C   0  0  0  0  0  0  0  0  0  0  0  0
    4.2410    1.8806   19.3096 H   0  0  0  0  0  0  0  0  0  0  0  0
  1  2  1  0
  2  3  2  0
  3  4  1  0
  4  5  1  0
  4  6  2  0
  6  7  1  0
  7  8  2  0
  7  9  1  0
  9 10  1  0
 10 11  2  0
 11 12  1  0
 11 13  1  0
 13 14  1  0
 13 15  2  0
 15 16  1  0
 15 17  1  0
 17 18  1  0
 18 19  2  0
 18 20  1  0
 20 21  1  0
 20 22  1  0
 20 23  1  0
 17 24  2  0
 24 25  1  0
  9 26  1  0
 26 27  1  0
 26 28  1  0
 26 29  1  0
  9 30  1  0
 30 31  1  0
 30 32  1  0
 30 33  1  0
  6 34  1  0
 34 35  1  0
 34 36  2  0
 36 37  1  0
 36  2  1  0
 24 10  1  0
M  END
>  <cnnaffinity>  (1) 
4.64826

>  <plip>  (1) 
-0.06896551724137931

>  <filename>  (1) 
[H][c]1[n][c]([H])[c]([C](=[O])[C]([c]2[c]([H])[c]([H])[c]([H])[c]([C](=[O])[C]([H])([H])[H])[c]2[H])([C]([H])([H])[H])[C]([H])([H])[H])[c]([H])[c]1[H]

>  <combo1>  (1) 
-0.3997207614770541

$$$$
