
     RDKit          3D

 30 31  0  0  0  0  0  0  0  0999 V2000
    6.8186    2.1850   26.7706 H   0  0  0  0  0  0  0  0  0  0  0  0
    7.1474    2.2647   25.7447 C   0  0  0  0  0  0  0  0  0  0  0  0
    7.7466    3.3974   25.2755 N   0  0  0  0  0  0  0  0  0  0  0  0
    7.9875    3.1104   24.0273 C   0  0  0  0  0  0  0  0  0  0  0  0
    8.4593    3.7428   23.2870 H   0  0  0  0  0  0  0  0  0  0  0  0
    7.5614    1.8609   23.7383 N   0  0  0  0  0  0  0  0  0  0  0  0
    7.7514    1.2780   22.4383 C   0  0  0  0  0  0  0  0  0  0  0  0
    8.2986    1.9292   21.5695 O   0  0  0  0  0  0  0  0  0  0  0  0
    7.2707    0.0263   22.3221 N   0  0  0  0  0  0  0  0  0  0  0  0
    6.8230   -0.3467   23.1492 H   0  0  0  0  0  0  0  0  0  0  0  0
    7.3585   -0.7303   21.0683 C   0  0  0  0  0  0  0  0  0  0  0  0
    6.6681    0.0361   19.9298 C   0  0  0  0  0  0  0  0  0  0  0  0
    7.1689    0.0666   18.6215 C   0  0  0  0  0  0  0  0  0  0  0  0
    8.1194   -0.4072   18.3773 H   0  0  0  0  0  0  0  0  0  0  0  0
    6.5608    0.6581   17.5789 N   0  0  0  0  0  0  0  0  0  0  0  0
    5.4013    1.2816   17.8214 C   0  0  0  0  0  0  0  0  0  0  0  0
    4.9457    1.7884   16.9728 H   0  0  0  0  0  0  0  0  0  0  0  0
    4.7948    1.3098   19.0835 C   0  0  0  0  0  0  0  0  0  0  0  0
    3.8616    1.8445   19.2253 H   0  0  0  0  0  0  0  0  0  0  0  0
    5.4304    0.6676   20.1453 C   0  0  0  0  0  0  0  0  0  0  0  0
    4.9840    0.6602   21.1424 H   0  0  0  0  0  0  0  0  0  0  0  0
    6.6240   -2.0620   21.2307 C   0  0  0  0  0  0  0  0  0  0  0  0
    7.0772   -2.6786   22.0143 H   0  0  0  0  0  0  0  0  0  0  0  0
    5.5625   -1.9052   21.4532 H   0  0  0  0  0  0  0  0  0  0  0  0
    6.6851   -2.6144   20.2858 H   0  0  0  0  0  0  0  0  0  0  0  0
    8.8454   -1.0033   20.7912 C   0  0  0  0  0  0  0  0  0  0  0  0
    9.3718   -0.0796   20.5345 H   0  0  0  0  0  0  0  0  0  0  0  0
    8.9700   -1.7308   19.9853 H   0  0  0  0  0  0  0  0  0  0  0  0
    9.2935   -1.4226   21.6967 H   0  0  0  0  0  0  0  0  0  0  0  0
    7.0049    1.2959   24.8632 N   0  0  0  0  0  0  0  0  0  0  0  0
  1  2  1  0
  2  3  1  0
  3  4  2  0
  4  5  1  0
  4  6  1  0
  6  7  1  0
  7  8  2  0
  7  9  1  0
  9 10  1  0
  9 11  1  0
 11 12  1  0
 12 13  2  0
 13 14  1  0
 13 15  1  0
 15 16  2  0
 16 17  1  0
 16 18  1  0
 18 19  1  0
 18 20  2  0
 20 21  1  0
 11 22  1  0
 22 23  1  0
 22 24  1  0
 22 25  1  0
 11 26  1  0
 26 27  1  0
 26 28  1  0
 26 29  1  0
  6 30  1  0
 30  2  2  0
 20 12  1  0
M  END
>  <cnnaffinity>  (1) 
4.44973

>  <plip>  (1) 
-0.06896551724137931

>  <filename>  (1) 
[H][c]1[n][c]([H])[n]([C](=[O])[N]([H])[C]([c]2[c]([H])[n][c]([H])[c]([H])[c]2[H])([C]([H])([H])[H])[C]([H])([H])[H])[n]1

>  <combo1>  (1) 
-0.44232935227671527

$$$$
