
     RDKit          3D

 24 25  0  0  0  0  0  0  0  0999 V2000
    5.0027    1.7543   17.0320 H   0  0  0  0  0  0  0  0  0  0  0  0
    5.4450    1.2521   17.8872 C   0  0  0  0  0  0  0  0  0  0  0  0
    6.6085    0.6188   17.6613 N   0  0  0  0  0  0  0  0  0  0  0  0
    7.1947    0.0090   18.6983 C   0  0  0  0  0  0  0  0  0  0  0  0
    8.1452   -0.4745   18.4871 H   0  0  0  0  0  0  0  0  0  0  0  0
    6.6620   -0.0263   20.0005 C   0  0  0  0  0  0  0  0  0  0  0  0
    7.4144   -0.7344   20.9896 N   0  0  0  0  0  0  0  0  0  0  0  0
    6.8884   -0.7274   22.1252 N   0  0  0  0  0  0  0  0  0  0  0  0
    7.6098   -1.3994   23.0312 N   0  0  0  0  0  0  0  0  0  0  0  0
    8.4668   -1.7930   22.6831 H   0  0  0  0  0  0  0  0  0  0  0  0
    7.2325   -1.5071   24.3598 C   0  0  0  0  0  0  0  0  0  0  0  0
    6.0787   -0.8680   24.8192 C   0  0  0  0  0  0  0  0  0  0  0  0
    5.5577   -0.1874   24.1599 H   0  0  0  0  0  0  0  0  0  0  0  0
    5.6826   -1.0817   26.1312 C   0  0  0  0  0  0  0  0  0  0  0  0
    4.7511   -0.6551   26.5110 H   0  0  0  0  0  0  0  0  0  0  0  0
    6.3941   -1.7960   27.0133 N   0  0  0  0  0  0  0  0  0  0  0  0
    7.5406   -2.3378   26.5840 C   0  0  0  0  0  0  0  0  0  0  0  0
    8.1113   -2.8720   27.3486 H   0  0  0  0  0  0  0  0  0  0  0  0
    8.0010   -2.2444   25.2716 C   0  0  0  0  0  0  0  0  0  0  0  0
    8.9377   -2.7160   24.9916 H   0  0  0  0  0  0  0  0  0  0  0  0
    5.4395    0.6361   20.2146 C   0  0  0  0  0  0  0  0  0  0  0  0
    4.9849    0.6455   21.2017 H   0  0  0  0  0  0  0  0  0  0  0  0
    4.8295    1.2820   19.1411 C   0  0  0  0  0  0  0  0  0  0  0  0
    3.8979    1.8169   19.2714 H   0  0  0  0  0  0  0  0  0  0  0  0
  1  2  1  0
  2  3  2  0
  3  4  1  0
  4  5  1  0
  4  6  2  0
  6  7  1  0
  7  8  2  3
  8  9  1  0
  9 10  1  0
  9 11  1  0
 11 12  2  0
 12 13  1  0
 12 14  1  0
 14 15  1  0
 14 16  2  0
 16 17  1  0
 17 18  1  0
 17 19  2  0
 19 20  1  0
  6 21  1  0
 21 22  1  0
 21 23  2  0
 23 24  1  0
 23  2  1  0
 19 11  1  0
M  END
>  <cnnaffinity>  (1) 
4.15607

>  <plip>  (1) 
-0.03571428571428571

>  <filename>  (1) 
[H][c]1[n][c]([H])[c]([N]=[N][N]([H])[c]2[c]([H])[c]([H])[n][c]([H])[c]2[H])[c]([H])[c]1[H]

>  <combo1>  (1) 
-0.24835743841902946

$$$$
