
     RDKit          3D

 40 43  0  0  0  0  0  0  0  0999 V2000
    5.1495    1.8343   16.8955 H   0  0  0  0  0  0  0  0  0  0  0  0
    5.5528    1.2913   17.7465 C   0  0  0  0  0  0  0  0  0  0  0  0
    6.7099    0.6462   17.5386 N   0  0  0  0  0  0  0  0  0  0  0  0
    7.2290   -0.0164   18.5795 C   0  0  0  0  0  0  0  0  0  0  0  0
    8.1789   -0.5244   18.4055 H   0  0  0  0  0  0  0  0  0  0  0  0
    6.6405   -0.0959   19.8543 C   0  0  0  0  0  0  0  0  0  0  0  0
    7.3180   -0.8502   20.9775 C   0  0  2  0  0  0  0  0  0  0  0  0
    8.2246   -1.3223   20.5750 H   0  0  0  0  0  0  0  0  0  0  0  0
    6.4646   -1.9736   21.6416 C   0  0  0  0  0  0  0  0  0  0  0  0
    5.4151   -1.9387   21.3263 H   0  0  0  0  0  0  0  0  0  0  0  0
    6.8454   -2.9638   21.3577 H   0  0  0  0  0  0  0  0  0  0  0  0
    6.5640   -1.8011   23.1018 N   0  0  0  0  0  0  0  0  0  0  0  0
    5.7499   -1.2660   23.4053 H   0  0  0  0  0  0  0  0  0  0  0  0
    7.7474   -0.9664   23.3232 C   0  0  0  0  0  0  0  0  0  0  0  0
    8.6488   -1.5929   23.2719 H   0  0  0  0  0  0  0  0  0  0  0  0
    7.7255   -0.5106   24.3188 H   0  0  0  0  0  0  0  0  0  0  0  0
    7.7525    0.0388   22.1751 C   0  0  1  0  0  0  0  0  0  0  0  0
    6.9357    0.7546   22.3613 H   0  0  0  0  0  0  0  0  0  0  0  0
    9.0388    0.8144   21.9802 C   0  0  1  0  0  0  0  0  0  0  0  0
    9.9110    0.1919   21.7769 H   0  0  0  0  0  0  0  0  0  0  0  0
    8.9520    2.1355   21.2687 C   0  0  0  0  0  0  0  0  0  0  0  0
    9.7968    2.4589   20.6689 H   0  0  0  0  0  0  0  0  0  0  0  0
    7.9720    2.4617   20.9321 H   0  0  0  0  0  0  0  0  0  0  0  0
    9.2591    2.0872   22.7536 C   0  0  2  0  0  0  0  0  0  0  0  0
    8.4608    2.3582   23.4408 H   0  0  0  0  0  0  0  0  0  0  0  0
   10.6222    2.5717   23.1497 C   0  0  0  0  0  0  0  0  0  0  0  0
   11.5895    1.7447   23.7327 C   0  0  0  0  0  0  0  0  0  0  0  0
   11.2922    0.7570   24.0769 H   0  0  0  0  0  0  0  0  0  0  0  0
   12.9088    2.1917   23.8590 C   0  0  0  0  0  0  0  0  0  0  0  0
   13.6662    1.5332   24.2675 H   0  0  0  0  0  0  0  0  0  0  0  0
   13.2460    3.4950   23.4656 C   0  0  0  0  0  0  0  0  0  0  0  0
   14.2659    3.8378   23.5328 H   0  0  0  0  0  0  0  0  0  0  0  0
   12.2618    4.3596   22.9787 C   0  0  0  0  0  0  0  0  0  0  0  0
   12.5009    5.3826   22.7091 H   0  0  0  0  0  0  0  0  0  0  0  0
   10.9593    3.8968   22.8252 C   0  0  0  0  0  0  0  0  0  0  0  0
   10.1862    4.5278   22.3970 H   0  0  0  0  0  0  0  0  0  0  0  0
    5.4238    0.5782   20.0400 C   0  0  0  0  0  0  0  0  0  0  0  0
    4.9131    0.5494   21.0058 H   0  0  0  0  0  0  0  0  0  0  0  0
    4.8749    1.2881   18.9701 C   0  0  0  0  0  0  0  0  0  0  0  0
    3.9546    1.8502   19.0739 H   0  0  0  0  0  0  0  0  0  0  0  0
  1  2  1  0
  2  3  2  0
  3  4  1  0
  4  5  1  0
  4  6  2  0
  6  7  1  0
  7  8  1  6
  7  9  1  0
  9 10  1  0
  9 11  1  0
  9 12  1  0
 12 13  1  0
 12 14  1  0
 14 15  1  0
 14 16  1  0
 14 17  1  0
 17 18  1  1
 17 19  1  0
 19 20  1  6
 19 21  1  0
 21 22  1  0
 21 23  1  0
 21 24  1  0
 24 25  1  1
 24 26  1  0
 26 27  2  0
 27 28  1  0
 27 29  1  0
 29 30  1  0
 29 31  2  0
 31 32  1  0
 31 33  1  0
 33 34  1  0
 33 35  2  0
 35 36  1  0
  6 37  1  0
 37 38  1  0
 37 39  2  0
 39 40  1  0
 39  2  1  0
 17  7  1  0
 24 19  1  0
 35 26  1  0
M  END
>  <cnnaffinity>  (1) 
5.1807

>  <plip>  (1) 
-0.07142857142857142

>  <filename>  (1) 
[H][c]1[n][c]([H])[c]([C@]2([H])[C]([H])([H])[N]([H])[C]([H])([H])[C@@]2([H])[C@@]2([H])[C]([H])([H])[C@]2([H])[c]2[c]([H])[c]([H])[c]([H])[c]([H])[c]2[H])[c]([H])[c]1[H]

>  <combo1>  (1) 
-0.46657739851421476

$$$$
