
     RDKit          3D

 36 36  0  0  0  0  0  0  0  0999 V2000
    9.1697   -0.0684   29.1722 N   0  0  0  0  0  4  0  0  0  0  0  0
    8.4555   -0.1215   27.8266 C   0  0  0  0  0  0  0  0  0  0  0  0
    7.9173    1.2838   27.4893 C   0  0  0  0  0  0  0  0  0  0  0  0
    7.2595    1.3942   26.1203 N   0  0  0  0  0  4  0  0  0  0  0  0
    8.2347    1.1273   25.0056 C   0  0  0  0  0  0  0  0  0  0  0  0
    8.0107   -0.2422   24.3628 C   0  0  0  0  0  0  0  0  0  0  0  0
    9.2444   -0.5385   23.0663 S   0  0  0  0  0  0  0  0  0  0  0  0
    8.3721    0.2570   21.6856 C   0  0  0  0  0  0  0  0  0  0  0  0
    7.4023   -0.7000   20.9789 C   0  0  0  0  0  0  0  0  0  0  0  0
    6.6359   -0.0136   19.8717 C   0  0  0  0  0  0  0  0  0  0  0  0
    5.4237    0.6508   20.1138 C   0  0  0  0  0  0  0  0  0  0  0  0
    4.7881    1.3243   19.0672 C   0  0  0  0  0  0  0  0  0  0  0  0
    5.3914    1.3132   17.8051 C   0  0  0  0  0  0  0  0  0  0  0  0
    6.5483    0.6911   17.5481 N   0  0  0  0  0  0  0  0  0  0  0  0
    7.1496    0.0558   18.5615 C   0  0  0  0  0  0  0  0  0  0  0  0
    8.0982   -0.4241   18.3176 H   0  0  0  0  0  0  0  0  0  0  0  0
    4.9255    1.8294   16.9671 H   0  0  0  0  0  0  0  0  0  0  0  0
    3.8599    1.8666   19.2093 H   0  0  0  0  0  0  0  0  0  0  0  0
    4.9883    0.6466   21.1140 H   0  0  0  0  0  0  0  0  0  0  0  0
    7.9710   -1.5536   20.5884 H   0  0  0  0  0  0  0  0  0  0  0  0
    6.7082   -1.1171   21.7213 H   0  0  0  0  0  0  0  0  0  0  0  0
    9.1341    0.6233   20.9889 H   0  0  0  0  0  0  0  0  0  0  0  0
    7.8362    1.1377   22.0655 H   0  0  0  0  0  0  0  0  0  0  0  0
    8.0925   -1.0604   25.0866 H   0  0  0  0  0  0  0  0  0  0  0  0
    7.0037   -0.3097   23.9265 H   0  0  0  0  0  0  0  0  0  0  0  0
    8.1762    1.9088   24.2445 H   0  0  0  0  0  0  0  0  0  0  0  0
    9.2453    1.1800   25.4175 H   0  0  0  0  0  0  0  0  0  0  0  0
    6.4765    0.6908   26.0342 H   0  0  0  0  0  0  0  0  0  0  0  0
    6.8291    2.3385   25.9775 H   0  0  0  0  0  0  0  0  0  0  0  0
    7.2086    1.5771   28.2610 H   0  0  0  0  0  0  0  0  0  0  0  0
    8.7592    1.9869   27.5301 H   0  0  0  0  0  0  0  0  0  0  0  0
    9.1619   -0.4661   27.0672 H   0  0  0  0  0  0  0  0  0  0  0  0
    7.6368   -0.8514   27.8704 H   0  0  0  0  0  0  0  0  0  0  0  0
    9.9569    0.6087   29.1408 H   0  0  0  0  0  0  0  0  0  0  0  0
    8.5229    0.2443   29.9134 H   0  0  0  0  0  0  0  0  0  0  0  0
    9.5798   -0.9604   29.4994 H   0  0  0  0  0  0  0  0  0  0  0  0
  1  2  1  0
  2  3  1  0
  3  4  1  0
  4  5  1  0
  5  6  1  0
  6  7  1  0
  7  8  1  0
  8  9  1  0
  9 10  1  0
 10 11  2  0
 11 12  1  0
 12 13  2  0
 13 14  1  0
 14 15  2  0
 15 16  1  0
 13 17  1  0
 12 18  1  0
 11 19  1  0
  9 20  1  0
  9 21  1  0
  8 22  1  0
  8 23  1  0
  6 24  1  0
  6 25  1  0
  5 26  1  0
  5 27  1  0
  4 28  1  0
  4 29  1  0
  3 30  1  0
  3 31  1  0
  2 32  1  0
  2 33  1  0
  1 34  1  0
  1 35  1  0
  1 36  1  0
 15 10  1  0
M  CHG  2   1   1   4   1
M  END
>  <cnnaffinity>  (1) 
3.81656

>  <plip>  (1) 
-0.10714285714285714

>  <filename>  (1) 
[H][c]1[n][c]([H])[c]([C]([H])([H])[C]([H])([H])[S][C]([H])([H])[C]([H])([H])[N+]([H])([H])[C]([H])([H])[C]([H])([H])[N+]([H])([H])[H])[c]([H])[c]1[H]

>  <combo1>  (1) 
-0.5994701059725221

$$$$
