
     RDKit          3D

 38 39  0  0  0  0  0  0  0  0999 V2000
    6.6054   -2.5130   24.1565 C   0  0  0  0  0  0  0  0  0  0  0  0
    7.2891   -2.3880   22.8048 C   0  0  1  0  0  0  0  0  0  0  0  0
    7.3720   -3.7349   22.0586 C   0  0  0  0  0  0  0  0  0  0  0  0
    8.1731   -4.6969   22.7263 O   0  0  0  0  0  0  0  0  0  0  0  0
    9.0944   -4.4103   22.6701 H   0  0  0  0  0  0  0  0  0  0  0  0
    6.3571   -4.1427   21.9887 H   0  0  0  0  0  0  0  0  0  0  0  0
    7.7156   -3.5764   21.0242 H   0  0  0  0  0  0  0  0  0  0  0  0
    6.5964   -1.3545   21.9791 N   0  0  0  0  0  4  0  0  0  0  0  0
    7.4660   -0.6765   20.9702 C   0  0  0  0  0  0  0  0  0  0  0  0
    8.4483    0.2974   21.6328 C   0  0  0  0  0  0  0  0  0  0  0  0
    9.8308    0.0846   21.5395 C   0  0  0  0  0  0  0  0  0  0  0  0
   10.7459    0.9712   22.1247 C   0  0  0  0  0  0  0  0  0  0  0  0
   10.2677    2.0936   22.8125 C   0  0  0  0  0  0  0  0  0  0  0  0
   11.0718    3.0016   23.4225 O   0  0  0  0  0  0  0  0  0  0  0  0
   11.9802    2.7299   23.2635 H   0  0  0  0  0  0  0  0  0  0  0  0
    8.8926    2.3245   22.9044 C   0  0  0  0  0  0  0  0  0  0  0  0
    7.9990    1.4354   22.3213 C   0  0  0  0  0  0  0  0  0  0  0  0
    6.9354    1.6508   22.3877 H   0  0  0  0  0  0  0  0  0  0  0  0
    8.5576    3.2048   23.4358 H   0  0  0  0  0  0  0  0  0  0  0  0
   11.8150    0.7770   22.0471 H   0  0  0  0  0  0  0  0  0  0  0  0
   10.1915   -0.7957   21.0052 H   0  0  0  0  0  0  0  0  0  0  0  0
    6.6155   -0.0324   19.9127 C   0  0  0  0  0  0  0  0  0  0  0  0
    5.4102    0.6358   20.1579 C   0  0  0  0  0  0  0  0  0  0  0  0
    4.7966    1.3127   19.1020 C   0  0  0  0  0  0  0  0  0  0  0  0
    5.3995    1.2942   17.8406 C   0  0  0  0  0  0  0  0  0  0  0  0
    6.5634    0.6771   17.5894 N   0  0  0  0  0  0  0  0  0  0  0  0
    7.1482    0.0492   18.6154 C   0  0  0  0  0  0  0  0  0  0  0  0
    8.1057   -0.4172   18.3796 H   0  0  0  0  0  0  0  0  0  0  0  0
    4.9230    1.7851   16.9944 H   0  0  0  0  0  0  0  0  0  0  0  0
    3.8688    1.8510   19.2491 H   0  0  0  0  0  0  0  0  0  0  0  0
    4.9692    0.6394   21.1594 H   0  0  0  0  0  0  0  0  0  0  0  0
    8.0747   -1.4468   20.4841 H   0  0  0  0  0  0  0  0  0  0  0  0
    5.7632   -1.7506   21.4818 H   0  0  0  0  0  0  0  0  0  0  0  0
    6.2255   -0.5954   22.6004 H   0  0  0  0  0  0  0  0  0  0  0  0
    8.3191   -2.0542   22.9672 H   0  0  0  0  0  0  0  0  0  0  0  0
    6.6303   -1.5617   24.6992 H   0  0  0  0  0  0  0  0  0  0  0  0
    7.1240   -3.2668   24.7551 H   0  0  0  0  0  0  0  0  0  0  0  0
    5.5630   -2.8313   24.0423 H   0  0  0  0  0  0  0  0  0  0  0  0
  1  2  1  0
  2  3  1  0
  3  4  1  0
  4  5  1  0
  3  6  1  0
  3  7  1  0
  2  8  1  0
  8  9  1  0
  9 10  1  0
 10 11  2  0
 11 12  1  0
 12 13  2  0
 13 14  1  0
 14 15  1  0
 13 16  1  0
 16 17  2  0
 17 18  1  0
 16 19  1  0
 12 20  1  0
 11 21  1  0
  9 22  1  0
 22 23  2  0
 23 24  1  0
 24 25  2  0
 25 26  1  0
 26 27  2  0
 27 28  1  0
 25 29  1  0
 24 30  1  0
 23 31  1  0
  9 32  1  0
  8 33  1  0
  8 34  1  0
  2 35  1  1
  1 36  1  0
  1 37  1  0
  1 38  1  0
 17 10  1  0
 27 22  1  0
M  CHG  1   8   1
M  END
>  <cnnaffinity>  (1) 
4.75879

>  <plip>  (1) 
-0.034482758620689655

>  <filename>  (1) 
[H][O][c]1[c]([H])[c]([H])[c]([C]([H])([c]2[c]([H])[n][c]([H])[c]([H])[c]2[H])[N+]([H])([H])[C@@]([H])([C]([H])([H])[H])[C]([H])([H])[O][H])[c]([H])[c]1[H]

>  <combo1>  (1) 
-0.21092409885583144

$$$$
