
     RDKit          3D

 29 31  0  0  0  0  0  0  0  0999 V2000
    8.7355   -2.8516   22.4213 H   0  0  0  0  0  0  0  0  0  0  0  0
    8.2396   -2.4428   23.3050 C   0  0  0  0  0  0  0  0  0  0  0  0
    7.9722   -3.3106   24.3110 C   0  0  0  0  0  0  0  0  0  0  0  0
    7.0661   -3.0169   25.7897 S   0  0  0  0  0  0  0  0  0  0  0  0
    7.3082   -4.6725   26.3632 C   0  0  0  0  0  0  0  0  0  0  0  0
    6.8652   -5.3010   27.8006 S   0  0  0  0  0  0  0  0  0  0  0  0
    7.9549   -5.3705   25.3946 N   0  0  0  0  0  0  0  0  0  0  0  0
    8.2299   -6.3313   25.4972 H   0  0  0  0  0  0  0  0  0  0  0  0
    8.3884   -4.7284   24.2596 C   0  0  0  0  0  0  0  0  0  0  0  0
    9.0058   -5.3089   23.3995 O   0  0  0  0  0  0  0  0  0  0  0  0
    7.9036   -1.0384   23.2891 C   0  0  0  0  0  0  0  0  0  0  0  0
    7.4951   -0.2352   22.2240 C   0  0  0  0  0  0  0  0  0  0  0  0
    7.3300   -0.7017   20.9259 N   0  0  0  0  0  0  0  0  0  0  0  0
    7.8633   -1.5366   20.7305 H   0  0  0  0  0  0  0  0  0  0  0  0
    6.6631   -0.0194   19.8950 C   0  0  0  0  0  0  0  0  0  0  0  0
    7.1694    0.0470   18.5758 C   0  0  0  0  0  0  0  0  0  0  0  0
    8.1232   -0.4248   18.3461 H   0  0  0  0  0  0  0  0  0  0  0  0
    6.5619    0.6793   17.5610 N   0  0  0  0  0  0  0  0  0  0  0  0
    5.3981    1.2990   17.8218 C   0  0  0  0  0  0  0  0  0  0  0  0
    4.9287    1.8059   16.9818 H   0  0  0  0  0  0  0  0  0  0  0  0
    4.8063    1.3037   19.0907 C   0  0  0  0  0  0  0  0  0  0  0  0
    3.8744    1.8377   19.2489 H   0  0  0  0  0  0  0  0  0  0  0  0
    5.4450    0.6361   20.1419 C   0  0  0  0  0  0  0  0  0  0  0  0
    5.0422    0.6097   21.1545 H   0  0  0  0  0  0  0  0  0  0  0  0
    7.2776    1.0446   22.7837 C   0  0  0  0  0  0  0  0  0  0  0  0
    6.9729    1.9486   22.2727 H   0  0  0  0  0  0  0  0  0  0  0  0
    7.5152    1.0461   24.0919 N   0  0  0  0  0  0  0  0  0  0  0  0
    7.8733   -0.2119   24.3786 N   0  0  0  0  0  0  0  0  0  0  0  0
    8.1115   -0.4371   25.3390 H   0  0  0  0  0  0  0  0  0  0  0  0
  1  2  1  0
  2  3  2  3
  3  4  1  0
  4  5  1  0
  5  6  2  0
  5  7  1  0
  7  8  1  0
  7  9  1  0
  9 10  2  0
  2 11  1  0
 11 12  2  0
 12 13  1  0
 13 14  1  0
 13 15  1  0
 15 16  2  0
 16 17  1  0
 16 18  1  0
 18 19  2  0
 19 20  1  0
 19 21  1  0
 21 22  1  0
 21 23  2  0
 23 24  1  0
 12 25  1  0
 25 26  1  0
 25 27  2  0
 27 28  1  0
 28 29  1  0
  9  3  1  0
 28 11  1  0
 23 15  1  0
M  END
>  <cnnaffinity>  (1) 
5.38192

>  <plip>  (1) 
-0.03571428571428571

>  <filename>  (1) 
[H][C](=[C]1[S][C](=[S])[N]([H])[C]1=[O])[c]1[c]([N]([H])[c]2[c]([H])[n][c]([H])[c]([H])[c]2[H])[c]([H])[n][n]1[H]

>  <combo1>  (1) 
-0.21119442859089235

$$$$
