
     RDKit          3D

 43 46  0  0  0  0  0  0  0  0999 V2000
    4.9220    1.7904   16.9883 H   0  0  0  0  0  0  0  0  0  0  0  0
    5.3976    1.2935   17.8309 C   0  0  0  0  0  0  0  0  0  0  0  0
    6.5610    0.6741   17.5760 N   0  0  0  0  0  0  0  0  0  0  0  0
    7.1564    0.0455   18.6021 C   0  0  0  0  0  0  0  0  0  0  0  0
    8.1135   -0.4250   18.3695 H   0  0  0  0  0  0  0  0  0  0  0  0
    6.6334    0.0049   19.9137 C   0  0  0  0  0  0  0  0  0  0  0  0
    7.3028   -0.6760   21.0432 C   0  0  0  0  0  0  0  0  0  0  0  0
    8.0144   -0.0086   21.9813 C   0  0  0  0  0  0  0  0  0  0  0  0
    8.1824    1.4941   21.9821 C   0  0  0  0  0  0  0  0  0  0  0  0
    7.7359    1.8850   21.0567 H   0  0  0  0  0  0  0  0  0  0  0  0
    9.6813    1.9263   21.9579 C   0  0  0  0  0  0  0  0  0  0  0  0
    9.8463    2.5551   21.0737 H   0  0  0  0  0  0  0  0  0  0  0  0
   10.3278    1.0496   21.8157 H   0  0  0  0  0  0  0  0  0  0  0  0
   10.1056    2.7020   23.2106 C   0  0  0  0  0  0  0  0  0  0  0  0
   11.1471    3.0292   23.1136 H   0  0  0  0  0  0  0  0  0  0  0  0
   10.0773    2.0170   24.0697 H   0  0  0  0  0  0  0  0  0  0  0  0
    9.1863    3.9118   23.4775 C   0  0  0  0  0  0  0  0  0  0  0  0
    9.4753    4.7347   22.8108 H   0  0  0  0  0  0  0  0  0  0  0  0
    9.3654    4.2692   24.4981 H   0  0  0  0  0  0  0  0  0  0  0  0
    7.6737    3.6127   23.2784 C   0  0  0  0  0  0  0  0  0  0  0  0
    7.3155    4.1145   22.3684 H   0  0  0  0  0  0  0  0  0  0  0  0
    7.0867    4.0360   24.1018 H   0  0  0  0  0  0  0  0  0  0  0  0
    7.3802    2.1178   23.1479 C   0  0  0  0  0  0  0  0  0  0  0  0
    6.3082    1.9408   22.9844 H   0  0  0  0  0  0  0  0  0  0  0  0
    7.6286    1.6011   24.0863 H   0  0  0  0  0  0  0  0  0  0  0  0
    8.6096   -0.7889   23.1316 C   0  0  2  0  0  0  0  0  0  0  0  0
    9.2847   -0.1556   23.7169 H   0  0  0  0  0  0  0  0  0  0  0  0
    9.5405   -2.2358   22.5172 S   0  0  0  0  0  0  0  0  0  0  0  0
    7.9224   -2.9574   22.0823 C   0  0  2  0  0  0  0  0  0  0  0  0
    8.0752   -4.0072   21.8068 H   0  0  0  0  0  0  0  0  0  0  0  0
    7.3284   -2.1730   20.9090 C   0  0  0  0  0  0  0  0  0  0  0  0
    7.9966   -2.2548   20.0731 H   0  0  0  0  0  0  0  0  0  0  0  0
    6.3376   -2.5625   20.6383 H   0  0  0  0  0  0  0  0  0  0  0  0
    7.0679   -2.7794   23.3421 C   0  0  0  0  0  0  0  0  0  0  0  0
    6.0106   -2.7844   23.0548 H   0  0  0  0  0  0  0  0  0  0  0  0
    7.2288   -3.6221   24.0259 H   0  0  0  0  0  0  0  0  0  0  0  0
    7.4911   -1.4375   23.9935 C   0  0  0  0  0  0  0  0  0  0  0  0
    6.6430   -0.7482   24.0865 H   0  0  0  0  0  0  0  0  0  0  0  0
    7.8805   -1.6231   24.9952 H   0  0  0  0  0  0  0  0  0  0  0  0
    5.4193    0.6516   20.1497 C   0  0  0  0  0  0  0  0  0  0  0  0
    5.0017    0.6308   21.1587 H   0  0  0  0  0  0  0  0  0  0  0  0
    4.7952    1.3117   19.0925 C   0  0  0  0  0  0  0  0  0  0  0  0
    3.8704    1.8466   19.2473 H   0  0  0  0  0  0  0  0  0  0  0  0
  1  2  1  0
  2  3  2  0
  3  4  1  0
  4  5  1  0
  4  6  2  0
  6  7  1  0
  7  8  2  0
  8  9  1  0
  9 10  1  0
  9 11  1  0
 11 12  1  0
 11 13  1  0
 11 14  1  0
 14 15  1  0
 14 16  1  0
 14 17  1  0
 17 18  1  0
 17 19  1  0
 17 20  1  0
 20 21  1  0
 20 22  1  0
 20 23  1  0
 23 24  1  0
 23 25  1  0
  8 26  1  0
 26 27  1  1
 26 28  1  0
 28 29  1  0
 29 30  1  6
 29 31  1  0
 31 32  1  0
 31 33  1  0
 29 34  1  0
 34 35  1  0
 34 36  1  0
 34 37  1  0
 37 38  1  0
 37 39  1  0
  6 40  1  0
 40 41  1  0
 40 42  2  0
 42 43  1  0
 42  2  1  0
 31  7  1  0
 23  9  1  0
 37 26  1  0
M  END
>  <cnnaffinity>  (1) 
5.76603

>  <plip>  (1) 
-0.0

>  <filename>  (1) 
[H][c]1[n][c]([H])[c]([C]2=[C]([C]3([H])[C]([H])([H])[C]([H])([H])[C]([H])([H])[C]([H])([H])[C]3([H])[H])[C@]3([H])[S][C@]([H])([C]2([H])[H])[C]([H])([H])[C]3([H])[H])[c]([H])[c]1[H]

>  <combo1>  (1) 
-6.733121742054817e-06

$$$$
