
     RDKit          3D

 33 35  0  0  0  0  0  0  0  0999 V2000
   12.1858    7.6287   25.6858 Br  0  0  0  0  0  0  0  0  0  0  0  0
   11.0270    6.2984   24.9423 C   0  0  0  0  0  0  0  0  0  0  0  0
    9.6408    6.4404   25.0133 C   0  0  0  0  0  0  0  0  0  0  0  0
    8.7885    5.4619   24.4683 C   0  0  0  0  0  0  0  0  0  0  0  0
    9.3108    4.3246   23.8429 C   0  0  0  0  0  0  0  0  0  0  0  0
    8.4661    3.3954   23.3337 N   0  0  0  0  0  0  0  0  0  0  0  0
    9.0568    2.3430   22.7500 C   0  0  0  0  0  0  0  0  0  0  0  0
    8.1822    1.3871   22.2412 N   0  0  0  0  0  0  0  0  0  0  0  0
    8.5971    0.1583   21.5207 C   0  0  0  0  0  0  0  0  0  0  0  0
    7.4090   -0.6739   21.0102 C   0  0  0  0  0  0  0  0  0  0  0  0
    6.6592    0.0160   19.8900 C   0  0  0  0  0  0  0  0  0  0  0  0
    5.4466    0.6507   20.1508 C   0  0  0  0  0  0  0  0  0  0  0  0
    4.8197    1.3007   19.0910 C   0  0  0  0  0  0  0  0  0  0  0  0
    5.3961    1.2972   17.8161 C   0  0  0  0  0  0  0  0  0  0  0  0
    6.5587    0.6734   17.5533 N   0  0  0  0  0  0  0  0  0  0  0  0
    7.1739    0.0541   18.5788 C   0  0  0  0  0  0  0  0  0  0  0  0
    8.1264   -0.4345   18.3921 H   0  0  0  0  0  0  0  0  0  0  0  0
    4.8846    1.8180   17.0122 H   0  0  0  0  0  0  0  0  0  0  0  0
    3.8894    1.8251   19.2485 H   0  0  0  0  0  0  0  0  0  0  0  0
    5.0194    0.6411   21.1532 H   0  0  0  0  0  0  0  0  0  0  0  0
    6.7343   -0.8980   21.8424 H   0  0  0  0  0  0  0  0  0  0  0  0
    7.7871   -1.6316   20.6369 H   0  0  0  0  0  0  0  0  0  0  0  0
    9.1938   -0.4709   22.1938 H   0  0  0  0  0  0  0  0  0  0  0  0
    9.2264    0.4173   20.6608 H   0  0  0  0  0  0  0  0  0  0  0  0
    7.1967    1.6184   22.3465 H   0  0  0  0  0  0  0  0  0  0  0  0
   10.4676    2.2209   22.6841 C   0  0  0  0  0  0  0  0  0  0  0  0
   11.3287    3.1309   23.1983 N   0  0  0  0  0  0  0  0  0  0  0  0
   10.7351    4.1898   23.7755 C   0  0  0  0  0  0  0  0  0  0  0  0
   11.5622    5.1730   24.3219 C   0  0  0  0  0  0  0  0  0  0  0  0
   12.6362    5.0521   24.2563 H   0  0  0  0  0  0  0  0  0  0  0  0
   10.8606    1.3387   22.1985 H   0  0  0  0  0  0  0  0  0  0  0  0
    7.7121    5.5760   24.5250 H   0  0  0  0  0  0  0  0  0  0  0  0
    9.2388    7.3215   25.4973 H   0  0  0  0  0  0  0  0  0  0  0  0
  1  2  1  0
  2  3  2  0
  3  4  1  0
  4  5  2  0
  5  6  1  0
  6  7  2  0
  7  8  1  0
  8  9  1  0
  9 10  1  0
 10 11  1  0
 11 12  2  0
 12 13  1  0
 13 14  2  0
 14 15  1  0
 15 16  2  0
 16 17  1  0
 14 18  1  0
 13 19  1  0
 12 20  1  0
 10 21  1  0
 10 22  1  0
  9 23  1  0
  9 24  1  0
  8 25  1  0
  7 26  1  0
 26 27  2  0
 27 28  1  0
 28 29  2  0
 29 30  1  0
 26 31  1  0
  4 32  1  0
  3 33  1  0
 29  2  1  0
 28  5  1  0
 16 11  1  0
M  END
>  <cnnaffinity>  (1) 
5.17784

>  <plip>  (1) 
-0.07142857142857142

>  <filename>  (1) 
[H][c]1[n][c]2[c]([H])[c]([Br])[c]([H])[c]([H])[c]2[n][c]1[N]([H])[C]([H])([H])[C]([H])([H])[c]1[c]([H])[n][c]([H])[c]([H])[c]1[H]

>  <combo1>  (1) 
-0.37448824505971984

$$$$
