
     RDKit          3D

 39 40  0  0  0  0  0  0  0  0999 V2000
   11.0399    1.0510   22.4150 O   0  0  0  0  0  0  0  0  0  0  0  0
   10.4151    0.2597   23.1016 C   0  0  0  0  0  0  0  0  0  0  0  0
   10.9247   -0.1367   24.4770 C   0  0  0  0  0  0  0  0  0  0  0  0
   10.5035    0.8254   25.6087 C   0  0  0  0  0  0  0  0  0  0  0  0
    8.9746    0.8890   25.7997 C   0  0  0  0  0  0  0  0  0  0  0  0
    8.3644   -0.4708   26.0691 C   0  0  0  0  0  0  0  0  0  0  0  0
    8.7325   -1.2447   27.1979 C   0  0  0  0  0  0  0  0  0  0  0  0
    8.2977   -2.5044   27.3907 N   0  0  0  0  0  0  0  0  0  0  0  0
    7.4684   -2.9944   26.4574 C   0  0  0  0  0  0  0  0  0  0  0  0
    7.0949   -2.2435   25.3268 C   0  0  0  0  0  0  0  0  0  0  0  0
    7.5409   -0.9885   25.1276 N   0  0  0  0  0  0  0  0  0  0  0  0
    6.4598   -2.6731   24.5580 H   0  0  0  0  0  0  0  0  0  0  0  0
    7.0886   -3.9978   26.6134 H   0  0  0  0  0  0  0  0  0  0  0  0
    9.4140   -0.8383   27.9388 H   0  0  0  0  0  0  0  0  0  0  0  0
    8.7388    1.5818   26.6187 H   0  0  0  0  0  0  0  0  0  0  0  0
    8.5081    1.3083   24.9008 H   0  0  0  0  0  0  0  0  0  0  0  0
   10.9746    0.4916   26.5455 H   0  0  0  0  0  0  0  0  0  0  0  0
   10.8887    1.8348   25.4143 H   0  0  0  0  0  0  0  0  0  0  0  0
   12.0134   -0.1209   24.3854 H   0  0  0  0  0  0  0  0  0  0  0  0
   10.6117   -1.1571   24.7271 H   0  0  0  0  0  0  0  0  0  0  0  0
    9.2443   -0.3155   22.6858 N   0  0  0  0  0  0  0  0  0  0  0  0
    8.5799    0.1706   21.4743 C   0  0  0  0  0  0  0  0  0  0  0  0
    7.3487   -0.6734   21.0727 C   0  0  0  0  0  0  0  0  0  0  0  0
    7.7152   -1.9633   20.6213 O   0  0  0  0  0  0  0  0  0  0  0  0
    8.2755   -2.3433   21.3128 H   0  0  0  0  0  0  0  0  0  0  0  0
    6.5943   -0.0119   19.9458 C   0  0  0  0  0  0  0  0  0  0  0  0
    5.4164    0.7149   20.1477 C   0  0  0  0  0  0  0  0  0  0  0  0
    4.8329    1.3711   19.0585 C   0  0  0  0  0  0  0  0  0  0  0  0
    5.4671    1.2900   17.8142 C   0  0  0  0  0  0  0  0  0  0  0  0
    6.5930    0.5915   17.5979 N   0  0  0  0  0  0  0  0  0  0  0  0
    7.1292   -0.0439   18.6478 C   0  0  0  0  0  0  0  0  0  0  0  0
    8.0372   -0.6143   18.4552 H   0  0  0  0  0  0  0  0  0  0  0  0
    5.0464    1.7908   16.9433 H   0  0  0  0  0  0  0  0  0  0  0  0
    3.9174    1.9476   19.1586 H   0  0  0  0  0  0  0  0  0  0  0  0
    4.9618    0.7624   21.1396 H   0  0  0  0  0  0  0  0  0  0  0  0
    6.6795   -0.7557   21.9498 H   0  0  0  0  0  0  0  0  0  0  0  0
    8.2609    1.2183   21.5721 H   0  0  0  0  0  0  0  0  0  0  0  0
    9.2829    0.1430   20.6300 H   0  0  0  0  0  0  0  0  0  0  0  0
    8.6474   -0.6614   23.4390 H   0  0  0  0  0  0  0  0  0  0  0  0
  1  2  2  0
  2  3  1  0
  3  4  1  0
  4  5  1  0
  5  6  1  0
  6  7  2  0
  7  8  1  0
  8  9  2  0
  9 10  1  0
 10 11  2  0
 10 12  1  0
  9 13  1  0
  7 14  1  0
  5 15  1  0
  5 16  1  0
  4 17  1  0
  4 18  1  0
  3 19  1  0
  3 20  1  0
  2 21  1  0
 21 22  1  0
 22 23  1  0
 23 24  1  0
 24 25  1  0
 23 26  1  0
 26 27  2  0
 27 28  1  0
 28 29  2  0
 29 30  1  0
 30 31  2  0
 31 32  1  0
 29 33  1  0
 28 34  1  0
 27 35  1  0
 23 36  1  0
 22 37  1  0
 22 38  1  0
 21 39  1  0
 11  6  1  0
 31 26  1  0
M  END
>  <cnnaffinity>  (1) 
4.61867

>  <plip>  (1) 
-0.06896551724137931

>  <filename>  (1) 
[H][O][C]([H])([c]1[c]([H])[n][c]([H])[c]([H])[c]1[H])[C]([H])([H])[N]([H])[C](=[O])[C]([H])([H])[C]([H])([H])[C]([H])([H])[c]1[n][c]([H])[c]([H])[n][c]1[H]

>  <combo1>  (1) 
-0.3708115383696736

$$$$
