
     RDKit          3D

 32 34  0  0  0  0  0  0  0  0999 V2000
    4.9391    1.8148   16.9860 H   0  0  0  0  0  0  0  0  0  0  0  0
    5.3949    1.2876   17.8218 C   0  0  0  0  0  0  0  0  0  0  0  0
    6.5588    0.6693   17.5781 N   0  0  0  0  0  0  0  0  0  0  0  0
    7.1607    0.0486   18.5999 C   0  0  0  0  0  0  0  0  0  0  0  0
    8.1259   -0.4075   18.3738 H   0  0  0  0  0  0  0  0  0  0  0  0
    6.6276   -0.0232   19.8976 C   0  0  0  0  0  0  0  0  0  0  0  0
    7.3800   -0.7286   21.0163 C   0  0  0  0  0  0  0  0  0  0  0  0
    6.8606   -0.5813   21.9718 H   0  0  0  0  0  0  0  0  0  0  0  0
    7.4513   -1.8070   20.8424 H   0  0  0  0  0  0  0  0  0  0  0  0
    8.7739   -0.3063   21.1552 N   0  0  0  0  0  0  0  0  0  0  0  0
    9.7563   -1.1375   20.7771 N   0  0  0  0  0  0  0  0  0  0  0  0
   10.8689   -0.5458   21.0090 N   0  0  0  0  0  0  0  0  0  0  0  0
   10.6653    0.6791   21.5289 N   0  0  0  0  0  0  0  0  0  0  0  0
    9.3604    0.8193   21.6141 C   0  0  0  0  0  0  0  0  0  0  0  0
    8.4367    2.3079   22.0417 S   0  0  0  0  0  0  0  0  0  0  0  0
    9.3194    3.3289   22.5898 O   0  0  0  0  0  0  0  0  0  0  0  0
    7.5794    2.5341   20.8910 O   0  0  0  0  0  0  0  0  0  0  0  0
    7.2913    1.7802   23.3303 C   0  0  0  0  0  0  0  0  0  0  0  0
    5.9918    2.3079   23.2855 C   0  0  0  0  0  0  0  0  0  0  0  0
    5.6880    2.9560   22.4637 H   0  0  0  0  0  0  0  0  0  0  0  0
    5.0833    1.9995   24.2968 C   0  0  0  0  0  0  0  0  0  0  0  0
    4.0810    2.4121   24.2848 H   0  0  0  0  0  0  0  0  0  0  0  0
    5.4738    1.1431   25.3294 C   0  0  0  0  0  0  0  0  0  0  0  0
    4.3311    0.7329   26.5749 Cl  0  0  0  0  0  0  0  0  0  0  0  0
    6.7691    0.6208   25.3801 C   0  0  0  0  0  0  0  0  0  0  0  0
    7.0458   -0.0387   26.1951 H   0  0  0  0  0  0  0  0  0  0  0  0
    7.6903    0.9474   24.3781 C   0  0  0  0  0  0  0  0  0  0  0  0
    8.7045    0.5478   24.4376 H   0  0  0  0  0  0  0  0  0  0  0  0
    5.4049    0.6189   20.1281 C   0  0  0  0  0  0  0  0  0  0  0  0
    4.9947    0.6656   21.1392 H   0  0  0  0  0  0  0  0  0  0  0  0
    4.7786    1.2911   19.0752 C   0  0  0  0  0  0  0  0  0  0  0  0
    3.8573    1.8487   19.2188 H   0  0  0  0  0  0  0  0  0  0  0  0
  1  2  1  0
  2  3  2  0
  3  4  1  0
  4  5  1  0
  4  6  2  0
  6  7  1  0
  7  8  1  0
  7  9  1  0
  7 10  1  0
 10 11  1  0
 11 12  2  0
 12 13  1  0
 13 14  2  0
 14 15  1  0
 15 16  2  0
 15 17  2  0
 15 18  1  0
 18 19  2  0
 19 20  1  0
 19 21  1  0
 21 22  1  0
 21 23  2  0
 23 24  1  0
 23 25  1  0
 25 26  1  0
 25 27  2  0
 27 28  1  0
  6 29  1  0
 29 30  1  0
 29 31  2  0
 31 32  1  0
 31  2  1  0
 14 10  1  0
 27 18  1  0
M  END
>  <cnnaffinity>  (1) 
5.23594

>  <plip>  (1) 
-0.03571428571428571

>  <filename>  (1) 
[H][c]1[n][c]([H])[c]([C]([H])([H])[n]2[n][n][n][c]2[S](=[O])(=[O])[c]2[c]([H])[c]([H])[c]([Cl])[c]([H])[c]2[H])[c]([H])[c]1[H]

>  <combo1>  (1) 
-0.18563750550253452

$$$$
