
     RDKit          3D

 25 26  0  0  0  0  0  0  0  0999 V2000
    4.9476    1.8031   17.0055 H   0  0  0  0  0  0  0  0  0  0  0  0
    5.4223    1.3113   17.8495 C   0  0  0  0  0  0  0  0  0  0  0  0
    6.5930    0.6934   17.5949 N   0  0  0  0  0  0  0  0  0  0  0  0
    7.1882    0.0540   18.6082 C   0  0  0  0  0  0  0  0  0  0  0  0
    8.1321   -0.4543   18.3988 H   0  0  0  0  0  0  0  0  0  0  0  0
    6.6647   -0.0043   19.9283 C   0  0  0  0  0  0  0  0  0  0  0  0
    7.2614   -0.8287   20.8944 N   0  0  0  0  0  0  0  0  0  0  0  0
    7.6145   -0.4171   22.0319 C   0  0  0  0  0  0  0  0  0  0  0  0
    7.7531    0.8533   22.5209 N   0  0  0  0  0  0  0  0  0  0  0  0
    7.1870    1.5019   21.9965 H   0  0  0  0  0  0  0  0  0  0  0  0
    7.4869    0.7795   23.4867 H   0  0  0  0  0  0  0  0  0  0  0  0
    7.9653   -1.2538   23.0459 N   0  0  0  0  0  0  0  0  0  0  0  0
    8.6763   -0.8586   23.6220 H   0  0  0  0  0  0  0  0  0  0  0  0
    8.1436   -2.6026   22.8262 C   0  0  0  0  0  0  0  0  0  0  0  0
    9.0426   -3.2408   23.5401 N   0  0  0  0  0  0  0  0  0  0  0  0
    8.8874   -4.5330   23.1688 N   0  0  0  0  0  0  0  0  0  0  0  0
    9.4460   -5.2382   23.6258 H   0  0  0  0  0  0  0  0  0  0  0  0
    7.9141   -4.7039   22.2472 C   0  0  0  0  0  0  0  0  0  0  0  0
    7.6362   -5.6856   21.8785 H   0  0  0  0  0  0  0  0  0  0  0  0
    7.4172   -3.4544   21.9741 C   0  0  0  0  0  0  0  0  0  0  0  0
    6.6861   -3.0797   21.2851 H   0  0  0  0  0  0  0  0  0  0  0  0
    5.4536    0.6630   20.1685 C   0  0  0  0  0  0  0  0  0  0  0  0
    5.0250    0.6259   21.1687 H   0  0  0  0  0  0  0  0  0  0  0  0
    4.8183    1.3189   19.1079 C   0  0  0  0  0  0  0  0  0  0  0  0
    3.8767    1.8307   19.2555 H   0  0  0  0  0  0  0  0  0  0  0  0
  1  2  1  0
  2  3  2  0
  3  4  1  0
  4  5  1  0
  4  6  2  0
  6  7  1  0
  7  8  2  3
  8  9  1  0
  9 10  1  0
  9 11  1  0
  8 12  1  0
 12 13  1  0
 12 14  1  0
 14 15  2  0
 15 16  1  0
 16 17  1  0
 16 18  1  0
 18 19  1  0
 18 20  2  0
 20 21  1  0
  6 22  1  0
 22 23  1  0
 22 24  2  0
 24 25  1  0
 24  2  1  0
 20 14  1  0
M  END
>  <cnnaffinity>  (1) 
4.20089

>  <plip>  (1) 
-0.03571428571428571

>  <filename>  (1) 
[H][c]1[n][c]([H])[c]([N]=[C]([N]([H])[H])[N]([H])[c]2[n][n]([H])[c]([H])[c]2[H])[c]([H])[c]1[H]

>  <combo1>  (1) 
-0.24730663599772146

$$$$
