
     RDKit          3D

 37 39  0  0  0  0  0  0  0  0999 V2000
    4.9741    1.8061   16.9301 H   0  0  0  0  0  0  0  0  0  0  0  0
    5.4078    1.3122   17.7995 C   0  0  0  0  0  0  0  0  0  0  0  0
    6.5807    0.6929   17.6016 N   0  0  0  0  0  0  0  0  0  0  0  0
    7.1395    0.0874   18.6580 C   0  0  0  0  0  0  0  0  0  0  0  0
    8.1125   -0.3689   18.4708 H   0  0  0  0  0  0  0  0  0  0  0  0
    6.5641    0.0382   19.9406 C   0  0  0  0  0  0  0  0  0  0  0  0
    7.2564   -0.6989   21.0729 C   0  0  2  0  0  0  0  0  0  0  0  0
    6.8032   -0.3579   22.0146 H   0  0  0  0  0  0  0  0  0  0  0  0
    8.7078   -0.3997   21.1171 N   0  0  0  0  0  0  0  0  0  0  0  0
    9.1343    0.3671   22.2204 N   0  0  0  0  0  0  0  0  0  0  0  0
   10.3165    1.1948   21.9253 C   0  0  0  0  0  0  0  0  0  0  0  0
   11.2150    0.5697   21.7527 H   0  0  0  0  0  0  0  0  0  0  0  0
   10.1235    1.7576   21.0076 H   0  0  0  0  0  0  0  0  0  0  0  0
   10.5800    2.1758   23.0891 C   0  0  0  0  0  0  0  0  0  0  0  0
   11.4872    2.7617   22.9026 H   0  0  0  0  0  0  0  0  0  0  0  0
    9.7410    2.8840   23.1307 H   0  0  0  0  0  0  0  0  0  0  0  0
   10.6777    1.5593   24.4218 N   0  0  0  0  0  0  0  0  0  0  0  0
   11.5460    1.0314   24.5116 H   0  0  0  0  0  0  0  0  0  0  0  0
    9.5219    0.6754   24.6353 C   0  0  0  0  0  0  0  0  0  0  0  0
    9.6306    0.1553   25.5943 H   0  0  0  0  0  0  0  0  0  0  0  0
    8.6328    1.3167   24.7122 H   0  0  0  0  0  0  0  0  0  0  0  0
    9.2766   -0.3438   23.5060 C   0  0  0  0  0  0  0  0  0  0  0  0
   10.1040   -1.0801   23.4761 H   0  0  0  0  0  0  0  0  0  0  0  0
    8.3545   -0.8948   23.7241 H   0  0  0  0  0  0  0  0  0  0  0  0
    9.4182   -1.6469   20.8023 C   0  0  0  0  0  0  0  0  0  0  0  0
    9.4111   -1.7319   19.7081 H   0  0  0  0  0  0  0  0  0  0  0  0
   10.4580   -1.6429   21.1513 H   0  0  0  0  0  0  0  0  0  0  0  0
    8.5384   -2.7723   21.3547 C   0  0  0  0  0  0  0  0  0  0  0  0
    8.7545   -3.7419   20.9024 H   0  0  0  0  0  0  0  0  0  0  0  0
    8.6719   -2.8683   22.4413 H   0  0  0  0  0  0  0  0  0  0  0  0
    7.1409   -2.2519   20.9764 C   0  0  0  0  0  0  0  0  0  0  0  0
    6.8919   -2.5365   19.9484 H   0  0  0  0  0  0  0  0  0  0  0  0
    6.3488   -2.6574   21.6136 H   0  0  0  0  0  0  0  0  0  0  0  0
    5.3411    0.6976   20.1260 C   0  0  0  0  0  0  0  0  0  0  0  0
    4.8695    0.7347   21.1138 H   0  0  0  0  0  0  0  0  0  0  0  0
    4.7557    1.3422   19.0370 C   0  0  0  0  0  0  0  0  0  0  0  0
    3.8204    1.8767   19.1331 H   0  0  0  0  0  0  0  0  0  0  0  0
  1  2  1  0
  2  3  2  0
  3  4  1  0
  4  5  1  0
  4  6  2  0
  6  7  1  0
  7  8  1  1
  7  9  1  0
  9 10  1  0
 10 11  1  0
 11 12  1  0
 11 13  1  0
 11 14  1  0
 14 15  1  0
 14 16  1  0
 14 17  1  0
 17 18  1  0
 17 19  1  0
 19 20  1  0
 19 21  1  0
 19 22  1  0
 22 23  1  0
 22 24  1  0
  9 25  1  0
 25 26  1  0
 25 27  1  0
 25 28  1  0
 28 29  1  0
 28 30  1  0
 28 31  1  0
 31 32  1  0
 31 33  1  0
  6 34  1  0
 34 35  1  0
 34 36  2  0
 36 37  1  0
 36  2  1  0
 31  7  1  0
 22 10  1  0
M  END
>  <cnnaffinity>  (1) 
4.43415

>  <plip>  (1) 
-0.03571428571428571

>  <filename>  (1) 
[H][c]1[n][c]([H])[c]([C@]2([H])[N]([N]3[C]([H])([H])[C]([H])([H])[N]([H])[C]([H])([H])[C]3([H])[H])[C]([H])([H])[C]([H])([H])[C]2([H])[H])[c]([H])[c]1[H]

>  <combo1>  (1) 
-0.22720816421398768

$$$$
