
     RDKit          3D

 45 47  0  0  0  0  0  0  0  0999 V2000
   11.5119   -5.0638   24.7958 O   0  0  0  0  0  0  0  0  0  0  0  0
   10.3716   -4.7596   25.5845 C   0  0  2  0  0  0  0  0  0  0  0  0
   10.3545   -5.5420   26.8841 C   0  0  0  0  0  0  0  0  0  0  0  0
    8.9973   -5.5737   27.2826 O   0  0  0  0  0  0  0  0  0  0  0  0
    8.2186   -5.7418   26.1062 C   0  0  0  0  0  0  0  0  0  0  0  0
    9.0830   -5.2819   24.9031 C   0  0  1  0  0  0  0  0  0  0  0  0
    8.3582   -4.3360   23.9661 N   0  0  0  0  0  4  0  0  0  0  0  0
    7.4377   -5.0623   22.9895 C   0  0  0  0  0  0  0  0  0  0  0  0
    6.5866   -4.0353   22.2018 C   0  0  0  0  0  0  0  0  0  0  0  0
    7.2742   -2.6725   22.0969 C   0  0  0  0  0  0  0  0  0  0  0  0
    6.7116   -1.8624   21.0123 N   0  0  0  0  0  4  0  0  0  0  0  0
    7.2130   -0.4751   20.9357 C   0  0  0  0  0  0  0  0  0  0  0  0
    6.4876    0.1663   19.8001 C   0  0  0  0  0  0  0  0  0  0  0  0
    5.3039    0.8882   19.9812 C   0  0  0  0  0  0  0  0  0  0  0  0
    4.7099    1.4851   18.8680 C   0  0  0  0  0  0  0  0  0  0  0  0
    5.3219    1.3296   17.6180 C   0  0  0  0  0  0  0  0  0  0  0  0
    6.4387    0.6135   17.4265 N   0  0  0  0  0  0  0  0  0  0  0  0
    6.9995    0.0493   18.4995 C   0  0  0  0  0  0  0  0  0  0  0  0
    7.9277   -0.4958   18.3182 H   0  0  0  0  0  0  0  0  0  0  0  0
    4.9050    1.8132   16.7375 H   0  0  0  0  0  0  0  0  0  0  0  0
    3.8023    2.0690   18.9535 H   0  0  0  0  0  0  0  0  0  0  0  0
    4.8646    0.9907   20.9774 H   0  0  0  0  0  0  0  0  0  0  0  0
    7.0436    0.0588   21.8807 H   0  0  0  0  0  0  0  0  0  0  0  0
    8.2937   -0.4553   20.7517 H   0  0  0  0  0  0  0  0  0  0  0  0
    5.6708   -1.7702   21.0906 H   0  0  0  0  0  0  0  0  0  0  0  0
    6.8971   -2.3166   20.0806 H   0  0  0  0  0  0  0  0  0  0  0  0
    8.7730   -2.8930   21.9200 C   0  0  0  0  0  0  0  0  0  0  0  0
    9.3507   -3.4223   23.2253 C   0  0  0  0  0  0  0  0  0  0  0  0
   10.2809   -3.9689   23.0719 H   0  0  0  0  0  0  0  0  0  0  0  0
    9.5950   -2.5844   23.8861 H   0  0  0  0  0  0  0  0  0  0  0  0
    9.2853   -1.9682   21.6543 H   0  0  0  0  0  0  0  0  0  0  0  0
    8.9285   -3.5960   21.0933 H   0  0  0  0  0  0  0  0  0  0  0  0
    7.1203   -2.1363   23.0449 H   0  0  0  0  0  0  0  0  0  0  0  0
    6.4134   -4.4199   21.1910 H   0  0  0  0  0  0  0  0  0  0  0  0
    5.6113   -3.8948   22.6779 H   0  0  0  0  0  0  0  0  0  0  0  0
    6.8024   -5.7832   23.5177 H   0  0  0  0  0  0  0  0  0  0  0  0
    8.0877   -5.6418   22.3195 H   0  0  0  0  0  0  0  0  0  0  0  0
    7.7371   -3.7205   24.5415 H   0  0  0  0  0  0  0  0  0  0  0  0
    9.4091   -6.1427   24.3052 H   0  0  0  0  0  0  0  0  0  0  0  0
    7.9044   -6.7891   26.0136 H   0  0  0  0  0  0  0  0  0  0  0  0
    7.3187   -5.1196   26.2049 H   0  0  0  0  0  0  0  0  0  0  0  0
   10.9509   -5.1292   27.7003 H   0  0  0  0  0  0  0  0  0  0  0  0
   10.7460   -6.5388   26.6164 H   0  0  0  0  0  0  0  0  0  0  0  0
   10.2568   -3.6781   25.7627 H   0  0  0  0  0  0  0  0  0  0  0  0
   12.2841   -4.6305   25.1873 H   0  0  0  0  0  0  0  0  0  0  0  0
  1  2  1  0
  2  3  1  0
  3  4  1  0
  4  5  1  0
  5  6  1  0
  6  7  1  0
  7  8  1  0
  8  9  1  0
  9 10  1  0
 10 11  1  0
 11 12  1  0
 12 13  1  0
 13 14  2  0
 14 15  1  0
 15 16  2  0
 16 17  1  0
 17 18  2  0
 18 19  1  0
 16 20  1  0
 15 21  1  0
 14 22  1  0
 12 23  1  0
 12 24  1  0
 11 25  1  0
 11 26  1  0
 10 27  1  0
 27 28  1  0
 28 29  1  0
 28 30  1  0
 27 31  1  0
 27 32  1  0
 10 33  1  0
  9 34  1  0
  9 35  1  0
  8 36  1  0
  8 37  1  0
  7 38  1  0
  6 39  1  6
  5 40  1  0
  5 41  1  0
  3 42  1  0
  3 43  1  0
  2 44  1  1
  1 45  1  0
  6  2  1  0
 28  7  1  0
 18 13  1  0
M  CHG  2   7   1  11   1
M  END
>  <cnnaffinity>  (1) 
4.77197

>  <plip>  (1) 
-0.14285714285714285

>  <filename>  (1) 
[H][O][C@]1([H])[C]([H])([H])[O][C]([H])([H])[C@@]1([H])[N+]1([H])[C]([H])([H])[C]([H])([H])[C]([H])([N+]([H])([H])[C]([H])([H])[c]2[c]([H])[n][c]([H])[c]([H])[c]2[H])[C]([H])([H])[C]1([H])[H]

>  <combo1>  (1) 
-0.8133488913705396

$$$$
