
     RDKit          3D

 36 39  0  0  0  0  0  0  0  0999 V2000
    5.1660    1.8816   16.9983 H   0  0  0  0  0  0  0  0  0  0  0  0
    5.6053    1.3387   17.8341 C   0  0  0  0  0  0  0  0  0  0  0  0
    6.8095    0.7886   17.6124 N   0  0  0  0  0  0  0  0  0  0  0  0
    7.3788    0.1274   18.6324 C   0  0  0  0  0  0  0  0  0  0  0  0
    8.3715   -0.2814   18.4312 H   0  0  0  0  0  0  0  0  0  0  0  0
    6.7737   -0.0830   19.8908 C   0  0  0  0  0  0  0  0  0  0  0  0
    7.3547   -0.9552   20.9361 C   0  0  0  0  0  0  0  0  0  0  0  0
    8.6733   -0.8934   21.4972 C   0  0  0  0  0  0  0  0  0  0  0  0
    9.7832    0.0340   21.0513 C   0  0  1  0  0  0  0  0  0  0  0  0
   10.0455   -0.3145   20.0409 H   0  0  0  0  0  0  0  0  0  0  0  0
    9.3329    1.3803   20.9634 O   0  0  0  0  0  0  0  0  0  0  0  0
   10.3585    2.2870   21.3474 C   0  0  0  0  0  0  0  0  0  0  0  0
    9.9625    2.9256   22.1453 H   0  0  0  0  0  0  0  0  0  0  0  0
   10.6354    2.8936   20.4829 H   0  0  0  0  0  0  0  0  0  0  0  0
   11.5838    1.4801   21.7975 C   0  0  0  0  0  0  0  0  0  0  0  0
   12.3705    1.5633   21.0459 H   0  0  0  0  0  0  0  0  0  0  0  0
   12.0186    1.8675   22.7256 H   0  0  0  0  0  0  0  0  0  0  0  0
   11.0552    0.0492   21.9284 C   0  0  0  0  0  0  0  0  0  0  0  0
   11.7745   -0.7111   21.6011 H   0  0  0  0  0  0  0  0  0  0  0  0
   10.7826   -0.1720   22.9639 H   0  0  0  0  0  0  0  0  0  0  0  0
    8.8707   -1.8584   22.3923 N   0  0  0  0  0  0  0  0  0  0  0  0
    7.7128   -2.4924   22.4378 N   0  0  0  0  0  0  0  0  0  0  0  0
    6.7700   -2.0387   21.6024 C   0  0  0  0  0  0  0  0  0  0  0  0
    5.5921   -2.9886   21.6485 C   0  0  0  0  0  0  0  0  0  0  0  0
    4.6516   -2.4707   21.8240 H   0  0  0  0  0  0  0  0  0  0  0  0
    5.4731   -3.5457   20.7146 H   0  0  0  0  0  0  0  0  0  0  0  0
    5.9363   -3.9280   22.8398 C   0  0  0  0  0  0  0  0  0  0  0  0
    5.7492   -4.9795   22.6243 H   0  0  0  0  0  0  0  0  0  0  0  0
    5.3185   -3.6492   23.6917 H   0  0  0  0  0  0  0  0  0  0  0  0
    7.4245   -3.6825   23.1921 C   0  0  0  0  0  0  0  0  0  0  0  0
    7.5919   -3.4980   24.2565 H   0  0  0  0  0  0  0  0  0  0  0  0
    8.1007   -4.4787   22.8676 H   0  0  0  0  0  0  0  0  0  0  0  0
    5.5308    0.5315   20.0989 C   0  0  0  0  0  0  0  0  0  0  0  0
    5.0572    0.4688   21.0793 H   0  0  0  0  0  0  0  0  0  0  0  0
    4.9384    1.2549   19.0630 C   0  0  0  0  0  0  0  0  0  0  0  0
    3.9954    1.7717   19.1976 H   0  0  0  0  0  0  0  0  0  0  0  0
  1  2  1  0
  2  3  2  0
  3  4  1  0
  4  5  1  0
  4  6  2  0
  6  7  1  0
  7  8  1  0
  8  9  1  0
  9 10  1  6
  9 11  1  0
 11 12  1  0
 12 13  1  0
 12 14  1  0
 12 15  1  0
 15 16  1  0
 15 17  1  0
 15 18  1  0
 18 19  1  0
 18 20  1  0
  8 21  2  0
 21 22  1  0
 22 23  1  0
 23 24  1  0
 24 25  1  0
 24 26  1  0
 24 27  1  0
 27 28  1  0
 27 29  1  0
 27 30  1  0
 30 31  1  0
 30 32  1  0
  6 33  1  0
 33 34  1  0
 33 35  2  0
 35 36  1  0
 35  2  1  0
 23  7  2  0
 18  9  1  0
 30 22  1  0
M  END
>  <cnnaffinity>  (1) 
5.37377

>  <plip>  (1) 
-0.10344827586206896

>  <filename>  (1) 
[H][c]1[n][c]([H])[c](-[c]2[c]([C@@]3([H])[O][C]([H])([H])[C]([H])([H])[C]3([H])[H])[n][n]3[c]2[C]([H])([H])[C]([H])([H])[C]3([H])[H])[c]([H])[c]1[H]

>  <combo1>  (1) 
-0.7257625255780114

$$$$
