
     RDKit          3D

 39 41  0  0  0  0  0  0  0  0999 V2000
    2.6416    5.0967   21.7374 C   0  0  0  0  0  0  0  0  0  0  0  0
    3.6315    4.9749   22.9067 C   0  0  0  0  0  0  0  0  0  0  0  0
    3.6802    3.5444   23.4938 C   0  0  0  0  0  0  0  0  0  0  0  0
    4.7670    2.8627   22.8784 O   0  0  0  0  0  0  0  0  0  0  0  0
    5.5637    3.7410   22.0839 C   0  0  0  0  0  0  0  0  0  0  0  0
    7.0737    3.5038   22.3183 C   0  0  0  0  0  0  0  0  0  0  0  0
    7.5756    2.1836   21.9469 N   0  0  0  0  0  0  0  0  0  0  0  0
    7.3929    1.1256   22.7909 C   0  0  0  0  0  0  0  0  0  0  0  0
    7.0763    1.2611   23.9606 O   0  0  0  0  0  0  0  0  0  0  0  0
    7.6481   -0.2309   22.2416 C   0  0  0  0  0  0  0  0  0  0  0  0
    8.2036   -1.3202   22.8801 C   0  0  0  0  0  0  0  0  0  0  0  0
    8.2828   -2.3136   21.8896 C   0  0  0  0  0  0  0  0  0  0  0  0
    7.7993   -1.8872   20.7337 N   0  0  0  0  0  0  0  0  0  0  0  0
    7.3929   -0.6286   20.9498 N   0  0  0  0  0  0  0  0  0  0  0  0
    6.6546    0.0194   19.9284 C   0  0  0  0  0  0  0  0  0  0  0  0
    5.4235    0.6447   20.1708 C   0  0  0  0  0  0  0  0  0  0  0  0
    4.8029    1.2944   19.1032 C   0  0  0  0  0  0  0  0  0  0  0  0
    5.4093    1.2814   17.8456 C   0  0  0  0  0  0  0  0  0  0  0  0
    6.5761    0.6572   17.6051 N   0  0  0  0  0  0  0  0  0  0  0  0
    7.1722    0.0314   18.6209 C   0  0  0  0  0  0  0  0  0  0  0  0
    8.1161   -0.4593   18.3929 H   0  0  0  0  0  0  0  0  0  0  0  0
    4.9564    1.7881   16.9989 H   0  0  0  0  0  0  0  0  0  0  0  0
    3.8784    1.8452   19.2500 H   0  0  0  0  0  0  0  0  0  0  0  0
    4.9867    0.6653   21.1705 H   0  0  0  0  0  0  0  0  0  0  0  0
    8.6617   -3.3254   21.9678 H   0  0  0  0  0  0  0  0  0  0  0  0
    8.4888   -1.3646   23.9230 H   0  0  0  0  0  0  0  0  0  0  0  0
    7.8680    1.9743   21.0042 H   0  0  0  0  0  0  0  0  0  0  0  0
    7.6463    4.2482   21.7502 H   0  0  0  0  0  0  0  0  0  0  0  0
    7.2638    3.6482   23.3910 H   0  0  0  0  0  0  0  0  0  0  0  0
    5.0967    5.1671   22.4506 C   0  0  0  0  0  0  0  0  0  0  0  0
    5.2091    5.8524   21.5976 H   0  0  0  0  0  0  0  0  0  0  0  0
    5.7159    5.5689   23.2663 H   0  0  0  0  0  0  0  0  0  0  0  0
    5.3531    3.5249   21.0219 H   0  0  0  0  0  0  0  0  0  0  0  0
    3.8202    3.5424   24.5853 H   0  0  0  0  0  0  0  0  0  0  0  0
    2.7692    2.9660   23.2889 H   0  0  0  0  0  0  0  0  0  0  0  0
    3.3426    5.7006   23.6842 H   0  0  0  0  0  0  0  0  0  0  0  0
    2.6763    6.1012   21.3005 H   0  0  0  0  0  0  0  0  0  0  0  0
    1.6124    4.9086   22.0639 H   0  0  0  0  0  0  0  0  0  0  0  0
    2.8777    4.3771   20.9395 H   0  0  0  0  0  0  0  0  0  0  0  0
  1  2  1  0
  2  3  1  0
  3  4  1  0
  4  5  1  0
  5  6  1  0
  6  7  1  0
  7  8  1  0
  8  9  2  0
  8 10  1  0
 10 11  2  0
 11 12  1  0
 12 13  2  0
 13 14  1  0
 14 15  1  0
 15 16  2  0
 16 17  1  0
 17 18  2  0
 18 19  1  0
 19 20  2  0
 20 21  1  0
 18 22  1  0
 17 23  1  0
 16 24  1  0
 12 25  1  0
 11 26  1  0
  7 27  1  0
  6 28  1  0
  6 29  1  0
  5 30  1  0
 30 31  1  0
 30 32  1  0
  5 33  1  0
  3 34  1  0
  3 35  1  0
  2 36  1  0
  1 37  1  0
  1 38  1  0
  1 39  1  0
 30  2  1  0
 14 10  1  0
 20 15  1  0
M  END
>  <cnnaffinity>  (1) 
4.7664

>  <plip>  (1) 
-0.10714285714285714

>  <filename>  (1) 
[H][c]1[n][c]([H])[c](-[n]2[n][c]([H])[c]([H])[c]2[C](=[O])[N]([H])[C]([H])([H])[C]2([H])[O][C]([H])([H])[C]([H])([C]([H])([H])[H])[C]2([H])[H])[c]([H])[c]1[H]

>  <combo1>  (1) 
-0.5945084304348809

$$$$
