
     RDKit          3D

 47 48  0  0  0  0  0  0  0  0999 V2000
    3.6743   -5.6134   31.1697 C   0  0  0  0  0  0  0  0  0  0  0  0
    5.1193   -5.3195   30.9144 N   0  0  0  0  0  4  0  0  0  0  0  0
    5.3562   -4.0977   30.0328 C   0  0  0  0  0  0  0  0  0  0  0  0
    5.4354   -4.4730   28.5397 C   0  0  0  0  0  0  0  0  0  0  0  0
    5.8009   -3.3252   27.5794 C   0  0  0  0  0  0  0  0  0  0  0  0
    5.7790   -3.7279   26.1062 C   0  0  0  0  0  0  0  0  0  0  0  0
    6.3673   -2.6634   25.1955 N   0  0  0  0  0  4  0  0  0  0  0  0
    5.5624   -1.3793   25.2293 C   0  0  0  0  0  0  0  0  0  0  0  0
    5.8955   -0.7166   24.4285 H   0  0  0  0  0  0  0  0  0  0  0  0
    5.6721   -0.8554   26.1814 H   0  0  0  0  0  0  0  0  0  0  0  0
    4.4979   -1.5899   25.0608 H   0  0  0  0  0  0  0  0  0  0  0  0
    6.4987   -3.1549   23.7688 C   0  0  0  0  0  0  0  0  0  0  0  0
    7.2607   -2.1976   22.8836 C   0  0  0  0  0  0  0  0  0  0  0  0
    8.6024   -1.8836   23.1366 C   0  0  0  0  0  0  0  0  0  0  0  0
    9.3425   -1.0929   22.3482 N   0  0  0  0  0  0  0  0  0  0  0  0
    8.7488   -0.5497   21.2790 C   0  0  0  0  0  0  0  0  0  0  0  0
    7.3947   -0.7406   20.9407 C   0  0  0  0  0  0  0  0  0  0  0  0
    6.7225   -0.0219   19.8127 C   0  0  0  0  0  0  0  0  0  0  0  0
    5.5264    0.6706   20.0602 C   0  0  0  0  0  0  0  0  0  0  0  0
    4.9130    1.3654   19.0183 C   0  0  0  0  0  0  0  0  0  0  0  0
    5.5005    1.3227   17.7518 C   0  0  0  0  0  0  0  0  0  0  0  0
    6.6323    0.6545   17.4803 N   0  0  0  0  0  0  0  0  0  0  0  0
    7.2247    0.0105   18.4955 C   0  0  0  0  0  0  0  0  0  0  0  0
    8.1488   -0.5165   18.2509 H   0  0  0  0  0  0  0  0  0  0  0  0
    5.0417    1.8508   16.9168 H   0  0  0  0  0  0  0  0  0  0  0  0
    4.0051    1.9386   19.1783 H   0  0  0  0  0  0  0  0  0  0  0  0
    5.1122    0.6769   21.0703 H   0  0  0  0  0  0  0  0  0  0  0  0
    6.6590   -1.5934   21.7712 C   0  0  0  0  0  0  0  0  0  0  0  0
    5.6099   -1.7800   21.5370 H   0  0  0  0  0  0  0  0  0  0  0  0
    9.3648    0.0969   20.6572 H   0  0  0  0  0  0  0  0  0  0  0  0
    9.1286   -2.3115   23.9874 H   0  0  0  0  0  0  0  0  0  0  0  0
    5.4868   -3.3073   23.3687 H   0  0  0  0  0  0  0  0  0  0  0  0
    6.9855   -4.1376   23.7946 H   0  0  0  0  0  0  0  0  0  0  0  0
    7.3398   -2.4567   25.5147 H   0  0  0  0  0  0  0  0  0  0  0  0
    6.3451   -4.6599   25.9671 H   0  0  0  0  0  0  0  0  0  0  0  0
    4.7476   -3.9389   25.7893 H   0  0  0  0  0  0  0  0  0  0  0  0
    6.8168   -2.9400   27.7299 H   0  0  0  0  0  0  0  0  0  0  0  0
    5.1183   -2.4843   27.7473 H   0  0  0  0  0  0  0  0  0  0  0  0
    6.1870   -5.2662   28.4456 H   0  0  0  0  0  0  0  0  0  0  0  0
    4.4743   -4.9150   28.2198 H   0  0  0  0  0  0  0  0  0  0  0  0
    6.2846   -3.6254   30.3627 H   0  0  0  0  0  0  0  0  0  0  0  0
    4.5477   -3.3815   30.2100 H   0  0  0  0  0  0  0  0  0  0  0  0
    5.6318   -5.2279   31.8305 H   0  0  0  0  0  0  0  0  0  0  0  0
    5.5395   -6.1368   30.3919 H   0  0  0  0  0  0  0  0  0  0  0  0
    3.5586   -6.2611   32.0401 H   0  0  0  0  0  0  0  0  0  0  0  0
    3.1151   -4.6874   31.3495 H   0  0  0  0  0  0  0  0  0  0  0  0
    3.2055   -6.1130   30.3142 H   0  0  0  0  0  0  0  0  0  0  0  0
  1  2  1  0
  2  3  1  0
  3  4  1  0
  4  5  1  0
  5  6  1  0
  6  7  1  0
  7  8  1  0
  8  9  1  0
  8 10  1  0
  8 11  1  0
  7 12  1  0
 12 13  1  0
 13 14  2  0
 14 15  1  0
 15 16  2  0
 16 17  1  0
 17 18  1  0
 18 19  2  0
 19 20  1  0
 20 21  2  0
 21 22  1  0
 22 23  2  0
 23 24  1  0
 21 25  1  0
 20 26  1  0
 19 27  1  0
 17 28  2  0
 28 29  1  0
 16 30  1  0
 14 31  1  0
 12 32  1  0
 12 33  1  0
  7 34  1  0
  6 35  1  0
  6 36  1  0
  5 37  1  0
  5 38  1  0
  4 39  1  0
  4 40  1  0
  3 41  1  0
  3 42  1  0
  2 43  1  0
  2 44  1  0
  1 45  1  0
  1 46  1  0
  1 47  1  0
 28 13  1  0
 23 18  1  0
M  CHG  2   2   1   7   1
M  END
>  <cnnaffinity>  (1) 
4.18743

>  <plip>  (1) 
-0.03571428571428571

>  <filename>  (1) 
[H][c]1[n][c]([H])[c](-[c]2[c]([H])[n][c]([H])[c]([C]([H])([H])[N+]([H])([C]([H])([H])[H])[C]([H])([H])[C]([H])([H])[C]([H])([H])[C]([H])([H])[N+]([H])([H])[C]([H])([H])[H])[c]2[H])[c]([H])[c]1[H]

>  <combo1>  (1) 
-0.17404453253704208

$$$$
