
     RDKit          3D

 36 39  0  0  0  0  0  0  0  0999 V2000
    6.0162   -2.8724   21.1294 C   0  0  0  0  0  0  0  0  0  0  0  0
    6.5844   -1.6860   21.7379 N   0  0  0  0  0  0  0  0  0  0  0  0
    6.6193   -1.4750   23.0825 C   0  0  0  0  0  0  0  0  0  0  0  0
    6.2175   -2.2325   23.9379 O   0  0  0  0  0  0  0  0  0  0  0  0
    7.2402   -0.2383   23.3078 N   0  0  0  0  0  0  0  0  0  0  0  0
    7.4429    0.3303   24.5868 C   0  0  0  0  0  0  0  0  0  0  0  0
    7.7821   -0.4361   25.6475 C   0  0  0  0  0  0  0  0  0  0  0  0
    8.1317    0.4827   27.0667 S   0  0  0  0  0  0  0  0  0  0  0  0
    7.7536    1.9788   26.2460 C   0  0  0  0  0  0  0  0  0  0  0  0
    7.7968    3.2750   26.7961 C   0  0  0  0  0  0  0  0  0  0  0  0
    7.4558    4.3465   25.9857 C   0  0  0  0  0  0  0  0  0  0  0  0
    7.0623    4.1473   24.6508 C   0  0  0  0  0  0  0  0  0  0  0  0
    7.0186    2.8695   24.1095 C   0  0  0  0  0  0  0  0  0  0  0  0
    7.3806    1.7524   24.8998 C   0  0  0  0  0  0  0  0  0  0  0  0
    6.7307    2.7351   23.0723 H   0  0  0  0  0  0  0  0  0  0  0  0
    6.7940    5.0007   24.0352 H   0  0  0  0  0  0  0  0  0  0  0  0
    7.4917    5.3516   26.3955 H   0  0  0  0  0  0  0  0  0  0  0  0
    8.0738    3.4288   27.8330 H   0  0  0  0  0  0  0  0  0  0  0  0
    7.8300   -1.5176   25.6210 H   0  0  0  0  0  0  0  0  0  0  0  0
    7.8403    0.2145   22.1488 C   0  0  0  0  0  0  0  0  0  0  0  0
    8.6269    1.1241   22.0549 O   0  0  0  0  0  0  0  0  0  0  0  0
    7.3852   -0.7148   21.0169 C   0  0  0  0  0  0  0  0  0  0  0  0
    6.6345   -0.0137   19.8868 C   0  0  0  0  0  0  0  0  0  0  0  0
    5.4273    0.6500   20.1317 C   0  0  0  0  0  0  0  0  0  0  0  0
    4.7967    1.3139   19.0772 C   0  0  0  0  0  0  0  0  0  0  0  0
    5.3959    1.2955   17.8118 C   0  0  0  0  0  0  0  0  0  0  0  0
    6.5515    0.6642   17.5552 N   0  0  0  0  0  0  0  0  0  0  0  0
    7.1486    0.0389   18.5789 C   0  0  0  0  0  0  0  0  0  0  0  0
    8.1067   -0.4262   18.3430 H   0  0  0  0  0  0  0  0  0  0  0  0
    4.9325    1.8088   16.9697 H   0  0  0  0  0  0  0  0  0  0  0  0
    3.8680    1.8551   19.2276 H   0  0  0  0  0  0  0  0  0  0  0  0
    4.9927    0.6499   21.1326 H   0  0  0  0  0  0  0  0  0  0  0  0
    8.2891   -1.1839   20.5960 H   0  0  0  0  0  0  0  0  0  0  0  0
    6.2929   -2.8548   20.0707 H   0  0  0  0  0  0  0  0  0  0  0  0
    4.9262   -2.8844   21.2224 H   0  0  0  0  0  0  0  0  0  0  0  0
    6.4030   -3.7825   21.6006 H   0  0  0  0  0  0  0  0  0  0  0  0
  1  2  1  0
  2  3  1  0
  3  4  2  0
  3  5  1  0
  5  6  1  0
  6  7  2  0
  7  8  1  0
  8  9  1  0
  9 10  2  0
 10 11  1  0
 11 12  2  0
 12 13  1  0
 13 14  2  0
 13 15  1  0
 12 16  1  0
 11 17  1  0
 10 18  1  0
  7 19  1  0
  5 20  1  0
 20 21  2  0
 20 22  1  0
 22 23  1  0
 23 24  2  0
 24 25  1  0
 25 26  2  0
 26 27  1  0
 27 28  2  0
 28 29  1  0
 26 30  1  0
 25 31  1  0
 24 32  1  0
 22 33  1  0
  1 34  1  0
  1 35  1  0
  1 36  1  0
 22  2  1  0
 28 23  1  0
 14  6  1  0
 14  9  1  0
M  END
>  <cnnaffinity>  (1) 
4.93004

>  <plip>  (1) 
-0.10714285714285714

>  <filename>  (1) 
[H][c]1[n][c]([H])[c]([C]2([H])[C](=[O])[N]([c]3[c]([H])[s][c]4[c]([H])[c]([H])[c]([H])[c]([H])[c]34)[C](=[O])[N]2[C]([H])([H])[H])[c]([H])[c]1[H]

>  <combo1>  (1) 
-0.5444816951819615

$$$$
