
     RDKit          3D

 35 37  0  0  0  0  0  0  0  0999 V2000
    5.6162   -2.0964   24.9217 Cl  0  0  0  0  0  0  0  0  0  0  0  0
    6.2224   -0.4936   24.5722 C   0  0  0  0  0  0  0  0  0  0  0  0
    5.2868    0.5385   24.4507 C   0  0  0  0  0  0  0  0  0  0  0  0
    5.7041    1.7969   24.0146 C   0  0  0  0  0  0  0  0  0  0  0  0
    7.0619    2.0419   23.7964 C   0  0  0  0  0  0  0  0  0  0  0  0
    7.9941    1.0240   23.9998 C   0  0  0  0  0  0  0  0  0  0  0  0
    7.5959   -0.2755   24.3712 C   0  0  0  0  0  0  0  0  0  0  0  0
    8.6135   -1.3856   24.4885 C   0  0  0  0  0  0  0  0  0  0  0  0
    8.8164   -2.1861   23.1895 C   0  0  0  0  0  0  0  0  0  0  0  0
    9.3570   -1.3789   22.0985 N   0  0  0  0  0  0  0  0  0  0  0  0
   10.6486   -0.9178   22.0283 C   0  0  0  0  0  0  0  0  0  0  0  0
   10.7884   -0.0060   21.1185 N   0  0  0  0  0  0  0  0  0  0  0  0
    9.5486    0.1686   20.5315 N   0  0  0  0  0  0  0  0  0  0  0  0
    8.7161   -0.6337   21.1392 C   0  0  0  0  0  0  0  0  0  0  0  0
    7.3618   -0.7888   20.8939 N   0  0  0  0  0  0  0  0  0  0  0  0
    6.6896   -0.0700   19.8666 C   0  0  0  0  0  0  0  0  0  0  0  0
    5.4765    0.5653   20.1534 C   0  0  0  0  0  0  0  0  0  0  0  0
    4.8220    1.2658   19.1307 C   0  0  0  0  0  0  0  0  0  0  0  0
    5.3928    1.2906   17.8555 C   0  0  0  0  0  0  0  0  0  0  0  0
    6.5488    0.6775   17.5522 N   0  0  0  0  0  0  0  0  0  0  0  0
    7.1849    0.0299   18.5387 C   0  0  0  0  0  0  0  0  0  0  0  0
    8.1557   -0.4097   18.3075 H   0  0  0  0  0  0  0  0  0  0  0  0
    4.9103    1.8195   17.0378 H   0  0  0  0  0  0  0  0  0  0  0  0
    3.8970    1.8046   19.3005 H   0  0  0  0  0  0  0  0  0  0  0  0
    5.0796    0.5553   21.1709 H   0  0  0  0  0  0  0  0  0  0  0  0
    6.8622   -0.7730   21.7763 H   0  0  0  0  0  0  0  0  0  0  0  0
   11.4388   -1.3092   22.6555 H   0  0  0  0  0  0  0  0  0  0  0  0
    9.5276   -2.9970   23.3767 H   0  0  0  0  0  0  0  0  0  0  0  0
    7.8918   -2.6703   22.8625 H   0  0  0  0  0  0  0  0  0  0  0  0
    8.3120   -2.0806   25.2763 H   0  0  0  0  0  0  0  0  0  0  0  0
    9.5822   -0.9729   24.7913 H   0  0  0  0  0  0  0  0  0  0  0  0
    9.0489    1.2243   23.8353 H   0  0  0  0  0  0  0  0  0  0  0  0
    7.3916    3.0255   23.4756 H   0  0  0  0  0  0  0  0  0  0  0  0
    4.9788    2.5821   23.8201 H   0  0  0  0  0  0  0  0  0  0  0  0
    4.2498    0.3217   24.6814 H   0  0  0  0  0  0  0  0  0  0  0  0
  1  2  1  0
  2  3  2  0
  3  4  1  0
  4  5  2  0
  5  6  1  0
  6  7  2  0
  7  8  1  0
  8  9  1  0
  9 10  1  0
 10 11  1  0
 11 12  2  0
 12 13  1  0
 13 14  2  0
 14 15  1  0
 15 16  1  0
 16 17  2  0
 17 18  1  0
 18 19  2  0
 19 20  1  0
 20 21  2  0
 21 22  1  0
 19 23  1  0
 18 24  1  0
 17 25  1  0
 15 26  1  0
 11 27  1  0
  9 28  1  0
  9 29  1  0
  8 30  1  0
  8 31  1  0
  6 32  1  0
  5 33  1  0
  4 34  1  0
  3 35  1  0
  7  2  1  0
 14 10  1  0
 21 16  1  0
M  END
>  <cnnaffinity>  (1) 
5.04394

>  <plip>  (1) 
-0.07142857142857142

>  <filename>  (1) 
[H][c]1[n][c]([H])[c]([N]([H])[c]2[n][n][c]([H])[n]2[C]([H])([H])[C]([H])([H])[c]2[c]([H])[c]([H])[c]([H])[c]([H])[c]2[Cl])[c]([H])[c]1[H]

>  <combo1>  (1) 
-0.40062652252200764

$$$$
