
     RDKit          3D

 45 48  0  0  0  0  0  0  0  0999 V2000
    0.7543   -7.2243   24.7612 F   0  0  0  0  0  0  0  0  0  0  0  0
    1.7421   -6.6200   24.0840 C   0  0  0  0  0  0  0  0  0  0  0  0
    2.0024   -5.2714   24.3162 C   0  0  0  0  0  0  0  0  0  0  0  0
    3.0557   -4.6592   23.6346 C   0  0  0  0  0  0  0  0  0  0  0  0
    3.7851   -5.3577   22.6524 C   0  0  0  0  0  0  0  0  0  0  0  0
    4.8318   -4.6902   21.8216 C   0  0  0  0  0  0  0  0  0  0  0  0
    5.3125   -5.2933   20.6226 C   0  0  0  0  0  0  0  0  0  0  0  0
    5.8834   -4.5623   19.6480 N   0  0  0  0  0  0  0  0  0  0  0  0
    6.1444   -3.2763   19.9495 C   0  0  0  0  0  0  0  0  0  0  0  0
    5.9407   -2.7581   21.2756 C   0  0  0  0  0  0  0  0  0  0  0  0
    6.4375   -1.5952   21.7839 N   0  0  0  0  0  0  0  0  0  0  0  0
    7.3204   -0.6995   21.0535 C   0  0  0  0  0  0  0  0  0  0  0  0
    6.5761    0.0019   19.9263 C   0  0  0  0  0  0  0  0  0  0  0  0
    5.3590    0.6615   20.1320 C   0  0  0  0  0  0  0  0  0  0  0  0
    4.7699    1.3239   19.0547 C   0  0  0  0  0  0  0  0  0  0  0  0
    5.4135    1.3052   17.8119 C   0  0  0  0  0  0  0  0  0  0  0  0
    6.5780    0.6771   17.5903 N   0  0  0  0  0  0  0  0  0  0  0  0
    7.1329    0.0517   18.6407 C   0  0  0  0  0  0  0  0  0  0  0  0
    8.0916   -0.4328   18.4454 H   0  0  0  0  0  0  0  0  0  0  0  0
    4.9753    1.8192   16.9589 H   0  0  0  0  0  0  0  0  0  0  0  0
    3.8414    1.8674   19.1745 H   0  0  0  0  0  0  0  0  0  0  0  0
    4.8841    0.6623   21.1174 H   0  0  0  0  0  0  0  0  0  0  0  0
    8.0604    0.3105   21.9729 C   0  0  0  0  0  0  0  0  0  0  0  0
    8.9769   -0.3249   23.0401 C   0  0  0  0  0  0  0  0  0  0  0  0
   10.3853   -0.1315   22.4695 C   0  0  0  0  0  0  0  0  0  0  0  0
   10.2274    1.1605   21.6780 C   0  0  0  0  0  0  0  0  0  0  0  0
    8.9136    1.1133   21.1486 O   0  0  0  0  0  0  0  0  0  0  0  0
   10.9189    1.2419   20.8371 H   0  0  0  0  0  0  0  0  0  0  0  0
   10.3583    2.0494   22.3161 H   0  0  0  0  0  0  0  0  0  0  0  0
   11.1543   -0.0509   23.2425 H   0  0  0  0  0  0  0  0  0  0  0  0
   10.6575   -0.9592   21.8040 H   0  0  0  0  0  0  0  0  0  0  0  0
    8.7397   -1.3763   23.2349 H   0  0  0  0  0  0  0  0  0  0  0  0
    8.8692    0.2219   23.9850 H   0  0  0  0  0  0  0  0  0  0  0  0
    7.3014    0.9538   22.4450 H   0  0  0  0  0  0  0  0  0  0  0  0
    8.1079   -1.3169   20.5969 H   0  0  0  0  0  0  0  0  0  0  0  0
    5.9557   -1.3792   22.6470 H   0  0  0  0  0  0  0  0  0  0  0  0
    5.2099   -3.4403   22.1690 N   0  0  0  0  0  0  0  0  0  0  0  0
    6.5298   -2.6501   19.1543 H   0  0  0  0  0  0  0  0  0  0  0  0
    5.1817   -6.3481   20.4093 H   0  0  0  0  0  0  0  0  0  0  0  0
    3.4269   -6.6901   22.3930 C   0  0  0  0  0  0  0  0  0  0  0  0
    2.4512   -7.3482   23.1356 C   0  0  0  0  0  0  0  0  0  0  0  0
    2.2210   -8.3938   22.9679 H   0  0  0  0  0  0  0  0  0  0  0  0
    3.8916   -7.2132   21.5718 H   0  0  0  0  0  0  0  0  0  0  0  0
    3.3226   -3.6254   23.8478 H   0  0  0  0  0  0  0  0  0  0  0  0
    1.3809   -4.7266   25.0169 H   0  0  0  0  0  0  0  0  0  0  0  0
  1  2  1  0
  2  3  2  0
  3  4  1  0
  4  5  2  0
  5  6  1  0
  6  7  2  0
  7  8  1  0
  8  9  2  0
  9 10  1  0
 10 11  1  0
 11 12  1  0
 12 13  1  0
 13 14  2  0
 14 15  1  0
 15 16  2  0
 16 17  1  0
 17 18  2  0
 18 19  1  0
 16 20  1  0
 15 21  1  0
 14 22  1  0
 12 23  1  0
 23 24  1  0
 24 25  1  0
 25 26  1  0
 26 27  1  0
 26 28  1  0
 26 29  1  0
 25 30  1  0
 25 31  1  0
 24 32  1  0
 24 33  1  0
 23 34  1  0
 12 35  1  0
 11 36  1  0
 10 37  2  0
  9 38  1  0
  7 39  1  0
  5 40  1  0
 40 41  2  0
 41 42  1  0
 40 43  1  0
  4 44  1  0
  3 45  1  0
 41  2  1  0
 37  6  1  0
 18 13  1  0
 27 23  1  0
M  END
>  <cnnaffinity>  (1) 
6.27518

>  <plip>  (1) 
-0.13793103448275862

>  <filename>  (1) 
[H][c]1[n][c]([H])[c]([N]([H])[C]([H])([c]2[c]([H])[n][c]([H])[c]([H])[c]2[H])[C]2([H])[O][C]([H])([H])[C]([H])([H])[C]2([H])[H])[n][c]1-[c]1[c]([H])[c]([H])[c]([F])[c]([H])[c]1[H]

>  <combo1>  (1) 
-0.8233918183902997

$$$$
