
     RDKit          3D

 42 44  0  0  0  0  0  0  0  0999 V2000
    4.9236    1.8248   16.9665 H   0  0  0  0  0  0  0  0  0  0  0  0
    5.3892    1.3122   17.8032 C   0  0  0  0  0  0  0  0  0  0  0  0
    6.5469    0.6853   17.5438 N   0  0  0  0  0  0  0  0  0  0  0  0
    7.1558    0.0702   18.5665 C   0  0  0  0  0  0  0  0  0  0  0  0
    8.0959   -0.4246   18.3232 H   0  0  0  0  0  0  0  0  0  0  0  0
    6.6490    0.0129   19.8835 C   0  0  0  0  0  0  0  0  0  0  0  0
    7.3760   -0.7075   20.9739 C   0  0  0  0  0  0  0  0  0  0  0  0
    8.7954   -0.5777   21.1472 C   0  0  0  0  0  0  0  0  0  0  0  0
    9.3491    0.0789   20.4690 H   0  0  0  0  0  0  0  0  0  0  0  0
    9.4406   -1.2430   22.1437 C   0  0  0  0  0  0  0  0  0  0  0  0
   10.5053   -1.1880   22.3263 H   0  0  0  0  0  0  0  0  0  0  0  0
    8.7347   -2.1237   23.0683 C   0  0  0  0  0  0  0  0  0  0  0  0
    9.2955   -2.7699   23.9482 O   0  0  0  0  0  0  0  0  0  0  0  0
    7.3326   -2.1897   22.8757 N   0  0  0  0  0  0  0  0  0  0  0  0
    6.5527   -3.0966   23.7364 C   0  0  0  0  0  0  0  0  0  0  0  0
    5.5305   -2.7161   23.8226 H   0  0  0  0  0  0  0  0  0  0  0  0
    6.9875   -3.0668   24.7365 H   0  0  0  0  0  0  0  0  0  0  0  0
    6.5365   -4.5271   23.1908 C   0  0  0  0  0  0  0  0  0  0  0  0
    6.1121   -4.5107   22.1799 H   0  0  0  0  0  0  0  0  0  0  0  0
    7.5830   -4.8626   23.0790 H   0  0  0  0  0  0  0  0  0  0  0  0
    5.7408   -5.4337   23.9982 N   0  0  0  0  0  0  0  0  0  0  0  0
    5.4156   -6.6834   23.3260 C   0  0  0  0  0  0  0  0  0  0  0  0
    6.2898   -7.1325   22.8181 H   0  0  0  0  0  0  0  0  0  0  0  0
    4.6559   -6.5161   22.5487 H   0  0  0  0  0  0  0  0  0  0  0  0
    4.9418   -7.6266   24.4344 C   0  0  0  0  0  0  0  0  0  0  0  0
    3.8660   -7.7981   24.3933 H   0  0  0  0  0  0  0  0  0  0  0  0
    5.4213   -8.5938   24.2934 H   0  0  0  0  0  0  0  0  0  0  0  0
    5.3458   -6.9384   25.7518 C   0  0  0  0  0  0  0  0  0  0  0  0
    4.4493   -6.5734   26.2577 H   0  0  0  0  0  0  0  0  0  0  0  0
    5.8594   -7.5960   26.4608 H   0  0  0  0  0  0  0  0  0  0  0  0
    6.2103   -5.7261   25.3598 C   0  0  1  0  0  0  0  0  0  0  0  0
    5.9408   -4.8897   26.0194 H   0  0  0  0  0  0  0  0  0  0  0  0
    7.7316   -5.9026   25.5012 C   0  0  0  0  0  0  0  0  0  0  0  0
    8.1607   -6.5748   24.7506 H   0  0  0  0  0  0  0  0  0  0  0  0
    8.2385   -4.9359   25.3965 H   0  0  0  0  0  0  0  0  0  0  0  0
    7.9930   -6.2854   26.4925 H   0  0  0  0  0  0  0  0  0  0  0  0
    6.7025   -1.5204   21.8537 C   0  0  0  0  0  0  0  0  0  0  0  0
    5.6294   -1.6787   21.7691 H   0  0  0  0  0  0  0  0  0  0  0  0
    5.4213    0.6604   20.1161 C   0  0  0  0  0  0  0  0  0  0  0  0
    4.9927    0.6648   21.1194 H   0  0  0  0  0  0  0  0  0  0  0  0
    4.7878    1.3267   19.0655 C   0  0  0  0  0  0  0  0  0  0  0  0
    3.8548    1.8594   19.2123 H   0  0  0  0  0  0  0  0  0  0  0  0
  1  2  1  0
  2  3  2  0
  3  4  1  0
  4  5  1  0
  4  6  2  0
  6  7  1  0
  7  8  1  0
  8  9  1  0
  8 10  2  0
 10 11  1  0
 10 12  1  0
 12 13  2  0
 12 14  1  0
 14 15  1  0
 15 16  1  0
 15 17  1  0
 15 18  1  0
 18 19  1  0
 18 20  1  0
 18 21  1  0
 21 22  1  0
 22 23  1  0
 22 24  1  0
 22 25  1  0
 25 26  1  0
 25 27  1  0
 25 28  1  0
 28 29  1  0
 28 30  1  0
 28 31  1  0
 31 32  1  1
 31 33  1  0
 33 34  1  0
 33 35  1  0
 33 36  1  0
 14 37  1  0
 37 38  1  0
  6 39  1  0
 39 40  1  0
 39 41  2  0
 41 42  1  0
 41  2  1  0
 37  7  2  0
 31 21  1  0
M  END
>  <cnnaffinity>  (1) 
5.19308

>  <plip>  (1) 
-0.07142857142857142

>  <filename>  (1) 
[H][c]1[n][c]([H])[c](-[c]2[c]([H])[c]([H])[c](=[O])[n]([C]([H])([H])[C]([H])([H])[N]3[C]([H])([H])[C]([H])([H])[C]([H])([H])[C@@]3([H])[C]([H])([H])[H])[c]2[H])[c]([H])[c]1[H]

>  <combo1>  (1) 
-0.43632911126514995

$$$$
