
     RDKit          3D

 40 42  0  0  0  0  0  0  0  0999 V2000
    5.0735    1.7754   16.9414 H   0  0  0  0  0  0  0  0  0  0  0  0
    5.4835    1.2919   17.8250 C   0  0  0  0  0  0  0  0  0  0  0  0
    6.6441    0.6362   17.6580 N   0  0  0  0  0  0  0  0  0  0  0  0
    7.1592    0.0083   18.7215 C   0  0  0  0  0  0  0  0  0  0  0  0
    8.1161   -0.4920   18.5624 H   0  0  0  0  0  0  0  0  0  0  0  0
    6.5640    0.0093   19.9971 C   0  0  0  0  0  0  0  0  0  0  0  0
    7.1928   -0.6984   21.0686 N   0  0  0  0  0  0  0  0  0  0  0  0
    7.5001   -2.0385   21.0103 C   0  0  0  0  0  0  0  0  0  0  0  0
    7.0828   -2.6068   20.1942 H   0  0  0  0  0  0  0  0  0  0  0  0
    8.2248   -2.3834   22.1232 C   0  0  0  0  0  0  0  0  0  0  0  0
    8.6367   -3.3687   22.3358 H   0  0  0  0  0  0  0  0  0  0  0  0
    8.3544   -1.1982   22.9019 C   0  0  0  0  0  0  0  0  0  0  0  0
    8.8940   -1.0980   23.8396 H   0  0  0  0  0  0  0  0  0  0  0  0
    7.7173   -0.1693   22.2393 C   0  0  0  0  0  0  0  0  0  0  0  0
    7.7042    1.3129   22.4779 C   0  0  0  0  0  0  0  0  0  0  0  0
    6.6842    1.7137   22.4511 H   0  0  0  0  0  0  0  0  0  0  0  0
    8.0763    1.5035   23.4912 H   0  0  0  0  0  0  0  0  0  0  0  0
    8.5642    2.0810   21.4436 C   0  0  0  0  0  0  0  0  0  0  0  0
    8.0982    2.0324   20.4564 H   0  0  0  0  0  0  0  0  0  0  0  0
    8.5658    3.1512   21.6799 H   0  0  0  0  0  0  0  0  0  0  0  0
    9.9495    1.6117   21.3250 N   0  0  0  0  0  0  0  0  0  0  0  0
    9.9157    0.6086   21.1322 H   0  0  0  0  0  0  0  0  0  0  0  0
   10.7289    1.7997   22.5488 C   0  0  0  0  0  0  0  0  0  0  0  0
   10.2582    1.3204   23.4303 H   0  0  0  0  0  0  0  0  0  0  0  0
   10.9770    3.2757   22.8596 C   0  0  0  0  0  0  0  0  0  0  0  0
   10.1114    3.7793   23.3016 H   0  0  0  0  0  0  0  0  0  0  0  0
   11.1899    3.7850   21.9170 H   0  0  0  0  0  0  0  0  0  0  0  0
   12.2101    3.3028   23.7743 C   0  0  0  0  0  0  0  0  0  0  0  0
   11.9012    3.4345   24.8125 H   0  0  0  0  0  0  0  0  0  0  0  0
   12.8537    4.1531   23.5341 H   0  0  0  0  0  0  0  0  0  0  0  0
   12.9215    1.9410   23.5618 C   0  0  0  0  0  0  0  0  0  0  0  0
   12.8827    1.3345   24.4740 H   0  0  0  0  0  0  0  0  0  0  0  0
   13.9793    2.0542   23.3162 H   0  0  0  0  0  0  0  0  0  0  0  0
   12.1401    1.2460   22.4308 C   0  0  0  0  0  0  0  0  0  0  0  0
   12.1763    0.1541   22.4895 H   0  0  0  0  0  0  0  0  0  0  0  0
   12.5182    1.5274   21.4429 H   0  0  0  0  0  0  0  0  0  0  0  0
    5.3604    0.7155   20.1621 C   0  0  0  0  0  0  0  0  0  0  0  0
    4.8822    0.7533   21.1410 H   0  0  0  0  0  0  0  0  0  0  0  0
    4.8036    1.3497   19.0457 C   0  0  0  0  0  0  0  0  0  0  0  0
    3.8611    1.8857   19.1193 H   0  0  0  0  0  0  0  0  0  0  0  0
  1  2  1  0
  2  3  2  0
  3  4  1  0
  4  5  1  0
  4  6  2  0
  6  7  1  0
  7  8  1  0
  8  9  1  0
  8 10  2  0
 10 11  1  0
 10 12  1  0
 12 13  1  0
 12 14  2  0
 14 15  1  0
 15 16  1  0
 15 17  1  0
 15 18  1  0
 18 19  1  0
 18 20  1  0
 18 21  1  0
 21 22  1  0
 21 23  1  0
 23 24  1  0
 23 25  1  0
 25 26  1  0
 25 27  1  0
 25 28  1  0
 28 29  1  0
 28 30  1  0
 28 31  1  0
 31 32  1  0
 31 33  1  0
 31 34  1  0
 34 35  1  0
 34 36  1  0
  6 37  1  0
 37 38  1  0
 37 39  2  0
 39 40  1  0
 39  2  1  0
 14  7  1  0
 34 23  1  0
M  END
>  <cnnaffinity>  (1) 
5.01407

>  <plip>  (1) 
-0.10344827586206896

>  <filename>  (1) 
[H][c]1[n][c]([H])[c](-[n]2[c]([H])[c]([H])[c]([H])[c]2[C]([H])([H])[C]([H])([H])[N]([H])[C]2([H])[C]([H])([H])[C]([H])([H])[C]([H])([H])[C]2([H])[H])[c]([H])[c]1[H]

>  <combo1>  (1) 
-0.6770660251688421

$$$$
