
     RDKit          3D

 28 29  0  0  0  0  0  0  0  0999 V2000
    6.7521    3.2386   22.6128 H   0  0  0  0  0  0  0  0  0  0  0  0
    6.5586    3.6829   23.4520 O   0  0  0  0  0  0  0  0  0  0  0  0
    6.3822    2.7550   24.4264 C   0  0  0  0  0  0  0  0  0  0  0  0
    6.0793    3.2584   25.6909 C   0  0  0  0  0  0  0  0  0  0  0  0
    5.9804    4.3286   25.7951 H   0  0  0  0  0  0  0  0  0  0  0  0
    5.8999    2.3901   26.7640 C   0  0  0  0  0  0  0  0  0  0  0  0
    5.4852    3.0534   28.3117 Cl  0  0  0  0  0  0  0  0  0  0  0  0
    6.0303    1.0114   26.6072 C   0  0  0  0  0  0  0  0  0  0  0  0
    5.8841    0.3572   27.4587 H   0  0  0  0  0  0  0  0  0  0  0  0
    6.3331    0.4943   25.3381 C   0  0  0  0  0  0  0  0  0  0  0  0
    6.4394   -0.5761   25.1950 H   0  0  0  0  0  0  0  0  0  0  0  0
    6.4885    1.3575   24.2560 C   0  0  0  0  0  0  0  0  0  0  0  0
    6.6810    0.9213   22.9262 O   0  0  0  0  0  0  0  0  0  0  0  0
    7.3413   -0.5123   22.6279 S   0  0  0  0  0  0  0  0  0  0  0  0
    6.3849   -1.5619   22.8471 O   0  0  0  0  0  0  0  0  0  0  0  0
    8.6564   -0.5869   23.1912 O   0  0  0  0  0  0  0  0  0  0  0  0
    7.6319   -0.3297   21.0257 N   0  0  0  0  0  0  0  0  0  0  0  0
    8.2094   -1.1409   20.8770 H   0  0  0  0  0  0  0  0  0  0  0  0
    6.7650    0.1187   19.9844 C   0  0  0  0  0  0  0  0  0  0  0  0
    7.2213    0.0877   18.6373 C   0  0  0  0  0  0  0  0  0  0  0  0
    8.1681   -0.4059   18.4267 H   0  0  0  0  0  0  0  0  0  0  0  0
    6.5763    0.6361   17.6024 N   0  0  0  0  0  0  0  0  0  0  0  0
    5.4062    1.2507   17.8598 C   0  0  0  0  0  0  0  0  0  0  0  0
    4.9160    1.7340   17.0155 H   0  0  0  0  0  0  0  0  0  0  0  0
    4.8331    1.2709   19.1342 C   0  0  0  0  0  0  0  0  0  0  0  0
    3.8782    1.7606   19.2855 H   0  0  0  0  0  0  0  0  0  0  0  0
    5.5079    0.6824   20.2164 C   0  0  0  0  0  0  0  0  0  0  0  0
    5.0694    0.6663   21.2085 H   0  0  0  0  0  0  0  0  0  0  0  0
  1  2  1  0
  2  3  1  0
  3  4  2  0
  4  5  1  0
  4  6  1  0
  6  7  1  0
  6  8  2  0
  8  9  1  0
  8 10  1  0
 10 11  1  0
 10 12  2  0
 12 13  1  0
 13 14  1  0
 14 15  2  0
 14 16  2  0
 14 17  1  0
 17 18  1  0
 17 19  1  0
 19 20  2  0
 20 21  1  0
 20 22  1  0
 22 23  2  0
 23 24  1  0
 23 25  1  0
 25 26  1  0
 25 27  2  0
 27 28  1  0
 12  3  1  0
 27 19  1  0
M  END
>  <cnnaffinity>  (1) 
4.39264

>  <plip>  (1) 
-0.03571428571428571

>  <filename>  (1) 
[H][O][c]1[c]([H])[c]([Cl])[c]([H])[c]([H])[c]1[O][S](=[O])(=[O])[N]([H])[c]1[c]([H])[n][c]([H])[c]([H])[c]1[H]

>  <combo1>  (1) 
-0.1738920313156404

$$$$
