
     RDKit          3D

 51 54  0  0  0  0  0  0  0  0999 V2000
    7.3473   -1.0811   25.1968 C   0  0  0  0  0  0  0  0  0  0  0  0
    6.8882   -0.0841   26.2397 C   0  0  0  0  0  0  0  0  0  0  0  0
    6.5264   -0.5137   27.5229 C   0  0  0  0  0  0  0  0  0  0  0  0
    6.4238   -1.8365   27.7725 F   0  0  0  0  0  0  0  0  0  0  0  0
    6.2776    0.3621   28.5776 C   0  0  0  0  0  0  0  0  0  0  0  0
    6.3604    1.7355   28.3421 C   0  0  0  0  0  0  0  0  0  0  0  0
    6.6061    2.2082   27.0554 C   0  0  0  0  0  0  0  0  0  0  0  0
    6.8521    1.3186   25.9920 C   0  0  0  0  0  0  0  0  0  0  0  0
    7.0225    1.9022   24.6501 C   0  0  0  0  0  0  0  0  0  0  0  0
    6.3401    2.8737   23.9824 C   0  0  0  0  0  0  0  0  0  0  0  0
    6.9071    2.9607   22.6690 C   0  0  0  0  0  0  0  0  0  0  0  0
    7.9008    2.0295   22.6253 C   0  0  0  0  0  0  0  0  0  0  0  0
    8.8132    1.5174   21.5464 C   0  0  0  0  0  0  0  0  0  0  0  0
    8.6830    0.0200   21.3427 N   0  0  0  0  0  4  0  0  0  0  0  0
    7.2511   -0.5457   21.1937 C   0  0  0  0  0  0  0  0  0  0  0  0
    6.5596    0.1509   20.0495 C   0  0  0  0  0  0  0  0  0  0  0  0
    5.3028    0.7670   20.1575 C   0  0  0  0  0  0  0  0  0  0  0  0
    4.7569    1.3844   19.0261 C   0  0  0  0  0  0  0  0  0  0  0  0
    5.4761    1.3528   17.8283 C   0  0  0  0  0  0  0  0  0  0  0  0
    6.6646    0.7463   17.7016 N   0  0  0  0  0  0  0  0  0  0  0  0
    7.1814    0.1711   18.7943 C   0  0  0  0  0  0  0  0  0  0  0  0
    8.1494   -0.3095   18.6401 H   0  0  0  0  0  0  0  0  0  0  0  0
    5.0849    1.8304   16.9290 H   0  0  0  0  0  0  0  0  0  0  0  0
    3.8035    1.9011   19.0561 H   0  0  0  0  0  0  0  0  0  0  0  0
    4.7652    0.7689   21.1087 H   0  0  0  0  0  0  0  0  0  0  0  0
    7.4146   -2.0432   20.9552 C   0  0  0  0  0  0  0  0  0  0  0  0
    6.1472   -2.8378   20.6080 C   0  0  0  0  0  0  0  0  0  0  0  0
    6.5424   -4.2927   20.9219 C   0  0  0  0  0  0  0  0  0  0  0  0
    7.7601   -4.2396   21.6535 O   0  0  0  0  0  0  0  0  0  0  0  0
    8.0092   -2.9071   22.0688 C   0  0  0  0  0  0  0  0  0  0  0  0
    7.5530   -2.7011   23.0515 H   0  0  0  0  0  0  0  0  0  0  0  0
    9.0925   -2.8229   22.1870 H   0  0  0  0  0  0  0  0  0  0  0  0
    5.7694   -4.8084   21.5090 H   0  0  0  0  0  0  0  0  0  0  0  0
    6.7180   -4.8831   20.0127 H   0  0  0  0  0  0  0  0  0  0  0  0
    5.3099   -2.5128   21.2392 H   0  0  0  0  0  0  0  0  0  0  0  0
    5.8376   -2.7086   19.5678 H   0  0  0  0  0  0  0  0  0  0  0  0
    8.1239   -2.1139   20.1299 H   0  0  0  0  0  0  0  0  0  0  0  0
    6.7064   -0.3368   22.1239 H   0  0  0  0  0  0  0  0  0  0  0  0
    9.1020   -0.4388   22.1811 H   0  0  0  0  0  0  0  0  0  0  0  0
    9.1932   -0.3027   20.4955 H   0  0  0  0  0  0  0  0  0  0  0  0
    8.5705    2.0741   20.6335 H   0  0  0  0  0  0  0  0  0  0  0  0
    9.8438    1.7758   21.8136 H   0  0  0  0  0  0  0  0  0  0  0  0
    7.9965    1.4093   23.8354 O   0  0  0  0  0  0  0  0  0  0  0  0
    6.5932    3.6037   21.8553 H   0  0  0  0  0  0  0  0  0  0  0  0
    5.5117    3.4337   24.3973 H   0  0  0  0  0  0  0  0  0  0  0  0
    6.6357    3.2803   26.8759 H   0  0  0  0  0  0  0  0  0  0  0  0
    6.2360    2.4375   29.1625 H   0  0  0  0  0  0  0  0  0  0  0  0
    6.0464   -0.0487   29.5553 H   0  0  0  0  0  0  0  0  0  0  0  0
    7.2221   -2.1068   25.5583 H   0  0  0  0  0  0  0  0  0  0  0  0
    6.7943   -0.9501   24.2604 H   0  0  0  0  0  0  0  0  0  0  0  0
    8.4054   -0.9083   24.9683 H   0  0  0  0  0  0  0  0  0  0  0  0
  1  2  1  0
  2  3  2  0
  3  4  1  0
  3  5  1  0
  5  6  2  0
  6  7  1  0
  7  8  2  0
  8  9  1  0
  9 10  2  0
 10 11  1  0
 11 12  2  0
 12 13  1  0
 13 14  1  0
 14 15  1  0
 15 16  1  0
 16 17  2  0
 17 18  1  0
 18 19  2  0
 19 20  1  0
 20 21  2  0
 21 22  1  0
 19 23  1  0
 18 24  1  0
 17 25  1  0
 15 26  1  0
 26 27  1  0
 27 28  1  0
 28 29  1  0
 29 30  1  0
 30 31  1  0
 30 32  1  0
 28 33  1  0
 28 34  1  0
 27 35  1  0
 27 36  1  0
 26 37  1  0
 15 38  1  0
 14 39  1  0
 14 40  1  0
 13 41  1  0
 13 42  1  0
 12 43  1  0
 11 44  1  0
 10 45  1  0
  7 46  1  0
  6 47  1  0
  5 48  1  0
  1 49  1  0
  1 50  1  0
  1 51  1  0
  8  2  1  0
 43  9  1  0
 21 16  1  0
 30 26  1  0
M  CHG  1  14   1
M  END
>  <cnnaffinity>  (1) 
5.57938

>  <plip>  (1) 
-0.06666666666666667

>  <filename>  (1) 
[H][c]1[n][c]([H])[c]([C]([H])([C]2([H])[C]([H])([H])[O][C]([H])([H])[C]2([H])[H])[N+]([H])([H])[C]([H])([H])[c]2[o][c](-[c]3[c]([H])[c]([H])[c]([H])[c]([F])[c]3[C]([H])([H])[H])[c]([H])[c]2[H])[c]([H])[c]1[H]

>  <combo1>  (1) 
-0.3374288931707208

$$$$
