
     RDKit          3D

 33 33  0  0  0  0  0  0  0  0999 V2000
    5.0629    2.1277   16.4138 H   0  0  0  0  0  0  0  0  0  0  0  0
    5.4506    1.6174   17.2920 C   0  0  0  0  0  0  0  0  0  0  0  0
    6.6322    0.9838   17.1429 N   0  0  0  0  0  0  0  0  0  0  0  0
    7.1282    0.3431   18.2074 C   0  0  0  0  0  0  0  0  0  0  0  0
    8.0824   -0.1642   18.0834 H   0  0  0  0  0  0  0  0  0  0  0  0
    6.4934    0.2867   19.4714 C   0  0  0  0  0  0  0  0  0  0  0  0
    7.0464   -0.5142   20.4998 N   0  0  0  0  0  0  0  0  0  0  0  0
    7.0490   -0.1624   21.7323 C   0  0  0  0  0  0  0  0  0  0  0  0
    7.1529   -1.2181   22.8805 C   0  0  0  0  0  0  0  0  0  0  0  0
    7.1834   -0.8546   24.0486 O   0  0  0  0  0  0  0  0  0  0  0  0
    7.2421   -2.5502   22.5446 N   0  0  0  0  0  0  0  0  0  0  0  0
    7.4407   -2.6924   21.5627 H   0  0  0  0  0  0  0  0  0  0  0  0
    7.8870   -3.4617   23.4882 C   0  0  0  0  0  0  0  0  0  0  0  0
    7.6633   -4.4891   23.1733 H   0  0  0  0  0  0  0  0  0  0  0  0
    7.4298   -3.3139   24.4695 H   0  0  0  0  0  0  0  0  0  0  0  0
    9.4052   -3.2286   23.5646 C   0  0  0  0  0  0  0  0  0  0  0  0
    9.8369   -3.5164   22.6018 H   0  0  0  0  0  0  0  0  0  0  0  0
    9.5734   -2.1462   23.6563 H   0  0  0  0  0  0  0  0  0  0  0  0
   10.1329   -3.9386   24.7209 C   0  0  0  0  0  0  0  0  0  0  0  0
   11.2042   -3.9696   24.4862 H   0  0  0  0  0  0  0  0  0  0  0  0
   10.0479   -3.3279   25.6269 H   0  0  0  0  0  0  0  0  0  0  0  0
    9.6210   -5.3340   25.0770 C   0  0  0  0  0  0  0  0  0  0  0  0
    9.6862   -6.0606   24.2605 H   0  0  0  0  0  0  0  0  0  0  0  0
   10.1742   -5.7406   25.9310 H   0  0  0  0  0  0  0  0  0  0  0  0
    8.5638   -5.3020   25.3731 H   0  0  0  0  0  0  0  0  0  0  0  0
    7.0720    1.2790   22.1843 C   0  0  0  0  0  0  0  0  0  0  0  0
    7.8284    1.4267   22.9586 H   0  0  0  0  0  0  0  0  0  0  0  0
    6.0988    1.5399   22.6095 H   0  0  0  0  0  0  0  0  0  0  0  0
    7.2863    1.9480   21.3479 H   0  0  0  0  0  0  0  0  0  0  0  0
    5.2716    0.9599   19.6039 C   0  0  0  0  0  0  0  0  0  0  0  0
    4.7711    0.9570   20.5697 H   0  0  0  0  0  0  0  0  0  0  0  0
    4.7431    1.6299   18.4959 C   0  0  0  0  0  0  0  0  0  0  0  0
    3.8019    2.1663   18.5622 H   0  0  0  0  0  0  0  0  0  0  0  0
  1  2  1  0
  2  3  2  0
  3  4  1  0
  4  5  1  0
  4  6  2  0
  6  7  1  0
  7  8  2  3
  8  9  1  0
  9 10  2  0
  9 11  1  0
 11 12  1  0
 11 13  1  0
 13 14  1  0
 13 15  1  0
 13 16  1  0
 16 17  1  0
 16 18  1  0
 16 19  1  0
 19 20  1  0
 19 21  1  0
 19 22  1  0
 22 23  1  0
 22 24  1  0
 22 25  1  0
  8 26  1  0
 26 27  1  0
 26 28  1  0
 26 29  1  0
  6 30  1  0
 30 31  1  0
 30 32  2  0
 32 33  1  0
 32  2  1  0
M  END
>  <cnnaffinity>  (1) 
4.24969

>  <plip>  (1) 
-0.07142857142857142

>  <filename>  (1) 
[H][c]1[n][c]([H])[c]([N]=[C]([C](=[O])[N]([H])[C]([H])([H])[C]([H])([H])[C]([H])([H])[C]([H])([H])[H])[C]([H])([H])[H])[c]([H])[c]1[H]

>  <combo1>  (1) 
-0.46141647166327027

$$$$
