
     RDKit          3D

 50 53  0  0  0  0  0  0  0  0999 V2000
    5.1943    0.4371   26.0177 C   0  0  0  0  0  0  0  0  0  0  0  0
    5.1848   -0.9996   25.5923 C   0  0  0  0  0  0  0  0  0  0  0  0
    5.8838   -1.5342   24.5509 C   0  0  0  0  0  0  0  0  0  0  0  0
    6.7921   -0.8133   23.6038 C   0  0  0  0  0  0  0  0  0  0  0  0
    7.6875   -0.0832   24.0302 O   0  0  0  0  0  0  0  0  0  0  0  0
    6.5378   -0.9845   22.2780 N   0  0  0  0  0  0  0  0  0  0  0  0
    7.3336   -0.6385   21.0962 C   0  0  0  0  0  0  0  0  0  0  0  0
    8.5169    0.3288   21.3727 C   0  0  0  0  0  0  0  0  0  0  0  0
    9.5877   -0.2598   22.2183 N   0  0  0  0  0  4  0  0  0  0  0  0
   10.3786   -1.3772   21.6193 C   0  0  0  0  0  0  0  0  0  0  0  0
   11.4606   -1.6327   22.6705 C   0  0  0  0  0  0  0  0  0  0  0  0
   11.5635   -0.3051   23.4712 C   0  0  0  0  0  0  0  0  0  0  0  0
   10.6497    0.6646   22.7187 C   0  0  0  0  0  0  0  0  0  0  0  0
   11.1638    1.1369   21.8694 H   0  0  0  0  0  0  0  0  0  0  0  0
   10.2219    1.4616   23.3393 H   0  0  0  0  0  0  0  0  0  0  0  0
   12.5863    0.0680   23.5642 H   0  0  0  0  0  0  0  0  0  0  0  0
   11.1870   -0.4450   24.4945 H   0  0  0  0  0  0  0  0  0  0  0  0
   12.4066   -1.9245   22.2060 H   0  0  0  0  0  0  0  0  0  0  0  0
   11.1593   -2.4632   23.3198 H   0  0  0  0  0  0  0  0  0  0  0  0
    9.7617   -2.2556   21.4070 H   0  0  0  0  0  0  0  0  0  0  0  0
   10.8186   -1.0451   20.6655 H   0  0  0  0  0  0  0  0  0  0  0  0
    9.1166   -0.5650   23.1017 H   0  0  0  0  0  0  0  0  0  0  0  0
    8.9415    0.6603   20.4162 H   0  0  0  0  0  0  0  0  0  0  0  0
    8.0952    1.2084   21.8658 H   0  0  0  0  0  0  0  0  0  0  0  0
    6.4505   -0.0645   20.0024 C   0  0  0  0  0  0  0  0  0  0  0  0
    5.2890    0.6920   20.2104 C   0  0  0  0  0  0  0  0  0  0  0  0
    4.7104    1.3544   19.1244 C   0  0  0  0  0  0  0  0  0  0  0  0
    5.2946    1.2249   17.8605 C   0  0  0  0  0  0  0  0  0  0  0  0
    6.3628    0.4481   17.6264 N   0  0  0  0  0  0  0  0  0  0  0  0
    6.9066   -0.1760   18.6758 C   0  0  0  0  0  0  0  0  0  0  0  0
    7.7865   -0.7844   18.4572 H   0  0  0  0  0  0  0  0  0  0  0  0
    4.8991    1.7677   17.0027 H   0  0  0  0  0  0  0  0  0  0  0  0
    3.8393    1.9881   19.2489 H   0  0  0  0  0  0  0  0  0  0  0  0
    4.8531    0.7839   21.2066 H   0  0  0  0  0  0  0  0  0  0  0  0
    7.7657   -1.5734   20.6920 H   0  0  0  0  0  0  0  0  0  0  0  0
    5.6597   -1.4395   22.0812 H   0  0  0  0  0  0  0  0  0  0  0  0
    5.5885   -2.8752   24.3662 O   0  0  0  0  0  0  0  0  0  0  0  0
    4.7248   -3.2144   25.3504 C   0  0  0  0  0  0  0  0  0  0  0  0
    4.1860   -4.4849   25.5712 C   0  0  0  0  0  0  0  0  0  0  0  0
    3.2725   -4.6066   26.6159 C   0  0  0  0  0  0  0  0  0  0  0  0
    2.9319   -3.4990   27.4258 C   0  0  0  0  0  0  0  0  0  0  0  0
    3.5009   -2.2464   27.2005 C   0  0  0  0  0  0  0  0  0  0  0  0
    4.4179   -2.0969   26.1407 C   0  0  0  0  0  0  0  0  0  0  0  0
    3.2445   -1.3846   27.8111 H   0  0  0  0  0  0  0  0  0  0  0  0
    2.2196   -3.6268   28.2360 H   0  0  0  0  0  0  0  0  0  0  0  0
    2.8196   -5.5749   26.8247 H   0  0  0  0  0  0  0  0  0  0  0  0
    4.4545   -5.3210   24.9364 H   0  0  0  0  0  0  0  0  0  0  0  0
    4.7341    0.5914   26.9991 H   0  0  0  0  0  0  0  0  0  0  0  0
    6.2246    0.8020   26.0394 H   0  0  0  0  0  0  0  0  0  0  0  0
    4.6554    1.0536   25.2912 H   0  0  0  0  0  0  0  0  0  0  0  0
  1  2  1  0
  2  3  2  0
  3  4  1  0
  4  5  2  0
  4  6  1  0
  6  7  1  0
  7  8  1  0
  8  9  1  0
  9 10  1  0
 10 11  1  0
 11 12  1  0
 12 13  1  0
 13 14  1  0
 13 15  1  0
 12 16  1  0
 12 17  1  0
 11 18  1  0
 11 19  1  0
 10 20  1  0
 10 21  1  0
  9 22  1  0
  8 23  1  0
  8 24  1  0
  7 25  1  0
 25 26  2  0
 26 27  1  0
 27 28  2  0
 28 29  1  0
 29 30  2  0
 30 31  1  0
 28 32  1  0
 27 33  1  0
 26 34  1  0
  7 35  1  0
  6 36  1  0
  3 37  1  0
 37 38  1  0
 38 39  2  0
 39 40  1  0
 40 41  2  0
 41 42  1  0
 42 43  2  0
 42 44  1  0
 41 45  1  0
 40 46  1  0
 39 47  1  0
  1 48  1  0
  1 49  1  0
  1 50  1  0
 43  2  1  0
 13  9  1  0
 30 25  1  0
 43 38  1  0
M  CHG  1   9   1
M  END
>  <cnnaffinity>  (1) 
5.24557

>  <plip>  (1) 
-0.07142857142857142

>  <filename>  (1) 
[H][c]1[n][c]([H])[c]([C]([H])([N]([H])[C](=[O])[c]2[o][c]3[c]([H])[c]([H])[c]([H])[c]([H])[c]3[c]2[C]([H])([H])[H])[C]([H])([H])[N+]2([H])[C]([H])([H])[C]([H])([H])[C]([H])([H])[C]2([H])[H])[c]([H])[c]1[H]

>  <combo1>  (1) 
-0.35639142514174593

$$$$
