
     RDKit          3D

 34 36  0  0  0  0  0  0  0  0999 V2000
    8.9937    1.6113   21.3327 O   0  0  0  0  0  0  0  0  0  0  0  0
    8.2906    1.2717   22.2640 C   0  0  0  0  0  0  0  0  0  0  0  0
    7.5423    0.1054   22.2580 N   0  0  0  0  0  0  0  0  0  0  0  0
    7.3524   -0.7252   21.0583 C   0  0  0  0  0  0  0  0  0  0  0  0
    6.5895   -2.4605   21.2440 C   0  0  0  0  0  0  0  0  0  0  0  0
    7.4741   -3.2836   21.0540 O   0  0  0  0  0  0  0  0  0  0  0  0
    5.3899   -2.5431   21.4597 O   0  0  0  0  0  1  0  0  0  0  0  0
    6.6643    0.0336   19.9383 C   0  0  0  0  0  0  0  0  0  0  0  0
    5.4312    0.6659   20.1451 C   0  0  0  0  0  0  0  0  0  0  0  0
    4.8120    1.3094   19.0702 C   0  0  0  0  0  0  0  0  0  0  0  0
    5.4411    1.3011   17.8209 C   0  0  0  0  0  0  0  0  0  0  0  0
    6.6251    0.7129   17.5937 N   0  0  0  0  0  0  0  0  0  0  0  0
    7.2142    0.1120   18.6400 C   0  0  0  0  0  0  0  0  0  0  0  0
    8.1678   -0.3701   18.4197 H   0  0  0  0  0  0  0  0  0  0  0  0
    4.9665    1.7784   16.9643 H   0  0  0  0  0  0  0  0  0  0  0  0
    3.8599    1.8113   19.1893 H   0  0  0  0  0  0  0  0  0  0  0  0
    4.9647    0.6498   21.1343 H   0  0  0  0  0  0  0  0  0  0  0  0
    8.3222   -1.1091   20.7359 H   0  0  0  0  0  0  0  0  0  0  0  0
    6.8641    0.0571   22.9980 H   0  0  0  0  0  0  0  0  0  0  0  0
    8.1525    2.0578   23.5379 C   0  0  0  0  0  0  0  0  0  0  0  0
    8.2623    1.4165   24.7508 C   0  0  0  0  0  0  0  0  0  0  0  0
    8.2738    2.0582   25.9547 N   0  0  0  0  0  0  0  0  0  0  0  0
    8.1396    3.3755   25.9708 C   0  0  0  0  0  0  0  0  0  0  0  0
    7.9616    4.1890   24.7891 C   0  0  0  0  0  0  0  0  0  0  0  0
    7.8187    5.5562   24.8833 N   0  0  0  0  0  0  0  0  0  0  0  0
    7.6582    6.2189   23.7538 C   0  0  0  0  0  0  0  0  0  0  0  0
    7.6148    5.6151   22.4671 C   0  0  0  0  0  0  0  0  0  0  0  0
    7.7733    4.2513   22.3597 C   0  0  0  0  0  0  0  0  0  0  0  0
    7.9666    3.4871   23.5397 C   0  0  0  0  0  0  0  0  0  0  0  0
    7.7787    3.7263   21.4091 H   0  0  0  0  0  0  0  0  0  0  0  0
    7.4678    6.2302   21.5866 H   0  0  0  0  0  0  0  0  0  0  0  0
    7.5686    7.3022   23.8316 H   0  0  0  0  0  0  0  0  0  0  0  0
    8.1667    3.8895   26.9311 H   0  0  0  0  0  0  0  0  0  0  0  0
    8.3840    0.3364   24.8133 H   0  0  0  0  0  0  0  0  0  0  0  0
  1  2  2  0
  2  3  1  0
  3  4  1  0
  4  5  1  0
  5  6  2  0
  5  7  1  0
  4  8  1  0
  8  9  2  0
  9 10  1  0
 10 11  2  0
 11 12  1  0
 12 13  2  0
 13 14  1  0
 11 15  1  0
 10 16  1  0
  9 17  1  0
  4 18  1  0
  3 19  1  0
  2 20  1  0
 20 21  2  0
 21 22  1  0
 22 23  2  0
 23 24  1  0
 24 25  2  0
 25 26  1  0
 26 27  2  0
 27 28  1  0
 28 29  2  0
 28 30  1  0
 27 31  1  0
 26 32  1  0
 23 33  1  0
 21 34  1  0
 13  8  1  0
 29 20  1  0
 29 24  1  0
M  CHG  1   7  -1
M  END
>  <cnnaffinity>  (1) 
4.67095

>  <plip>  (1) 
-0.1

>  <filename>  (1) 
[H][c]1[n][c]([H])[c]([C]([H])([C](=[O])[O-])[N]([H])[C](=[O])[c]2[c]([H])[n][c]([H])[c]3[n][c]([H])[c]([H])[c]([H])[c]23)[c]([H])[c]1[H]

>  <combo1>  (1) 
-0.5066837190180363

$$$$
