
     RDKit          3D

 27 28  0  0  0  0  0  0  0  0999 V2000
   13.3093   -2.5295   20.3049 H   0  0  0  0  0  0  0  0  0  0  0  0
   13.0285   -1.7613   21.0222 C   0  0  0  0  0  0  0  0  0  0  0  0
   11.7432   -1.4378   21.0265 N   0  0  0  0  0  0  0  0  0  0  0  0
   11.3481   -0.4111   21.7978 C   0  0  0  0  0  0  0  0  0  0  0  0
    9.9240   -0.1712   21.7196 C   0  0  0  0  0  0  0  0  0  0  0  0
    8.7497   -0.2407   21.4494 C   0  0  0  0  0  0  0  0  0  0  0  0
    7.4541   -0.5159   21.1805 N   0  0  0  0  0  0  0  0  0  0  0  0
    6.8291    0.0386   20.0310 C   0  0  0  0  0  0  0  0  0  0  0  0
    7.4580    0.0539   18.7667 C   0  0  0  0  0  0  0  0  0  0  0  0
    8.4334   -0.4158   18.6503 H   0  0  0  0  0  0  0  0  0  0  0  0
    6.9152    0.6028   17.6685 N   0  0  0  0  0  0  0  0  0  0  0  0
    5.7114    1.1897   17.7863 C   0  0  0  0  0  0  0  0  0  0  0  0
    5.3043    1.6412   16.8828 H   0  0  0  0  0  0  0  0  0  0  0  0
    4.9953    1.2184   18.9872 C   0  0  0  0  0  0  0  0  0  0  0  0
    4.0352    1.7220   19.0265 H   0  0  0  0  0  0  0  0  0  0  0  0
    5.5513    0.6122   20.1189 C   0  0  0  0  0  0  0  0  0  0  0  0
    5.0405    0.6008   21.0793 H   0  0  0  0  0  0  0  0  0  0  0  0
    6.7134   -1.2833   22.1685 C   0  0  0  0  0  0  0  0  0  0  0  0
    7.2962   -2.1648   22.4521 H   0  0  0  0  0  0  0  0  0  0  0  0
    5.7650   -1.6368   21.7541 H   0  0  0  0  0  0  0  0  0  0  0  0
    6.5162   -0.6985   23.0761 H   0  0  0  0  0  0  0  0  0  0  0  0
   12.2473    0.3348   22.5850 C   0  0  0  0  0  0  0  0  0  0  0  0
   11.8675    1.1631   23.1695 H   0  0  0  0  0  0  0  0  0  0  0  0
   13.5886   -0.0597   22.6257 C   0  0  0  0  0  0  0  0  0  0  0  0
   14.3359    0.4529   23.2337 H   0  0  0  0  0  0  0  0  0  0  0  0
   13.9786   -1.1438   21.8369 C   0  0  0  0  0  0  0  0  0  0  0  0
   14.9724   -1.5551   21.8703 H   0  0  0  0  0  0  0  0  0  0  0  0
  1  2  1  0
  2  3  2  0
  3  4  1  0
  4  5  1  0
  5  6  3  0
  6  7  1  0
  7  8  1  0
  8  9  2  0
  9 10  1  0
  9 11  1  0
 11 12  2  0
 12 13  1  0
 12 14  1  0
 14 15  1  0
 14 16  2  0
 16 17  1  0
  7 18  1  0
 18 19  1  0
 18 20  1  0
 18 21  1  0
  4 22  2  0
 22 23  1  0
 22 24  1  0
 24 25  1  0
 24 26  2  0
 26 27  1  0
 26  2  1  0
 16  8  1  0
M  END
>  <cnnaffinity>  (1) 
5.28256

>  <plip>  (1) 
-0.07142857142857142

>  <filename>  (1) 
[H][c]1[n][c]([C]#[C][N]([c]2[c]([H])[n][c]([H])[c]([H])[c]2[H])[C]([H])([H])[H])[c]([H])[c]([H])[c]1[H]

>  <combo1>  (1) 
-0.6010706616674539

$$$$
