
     RDKit          3D

 58 60  0  0  0  0  0  0  0  0999 V2000
    7.4805   -3.6609   27.3200 C   0  0  0  0  0  0  0  0  0  0  0  0
    7.8197   -4.4805   26.1029 C   0  0  0  0  0  0  0  0  0  0  0  0
    8.9605   -5.2889   26.1396 C   0  0  0  0  0  0  0  0  0  0  0  0
    9.2886   -6.0938   25.0454 C   0  0  0  0  0  0  0  0  0  0  0  0
    8.4808   -6.1218   23.9035 C   0  0  0  0  0  0  0  0  0  0  0  0
    8.8364   -7.0153   22.7439 C   0  0  0  0  0  0  0  0  0  0  0  0
    9.1366   -6.3775   21.9022 H   0  0  0  0  0  0  0  0  0  0  0  0
    9.6542   -7.6975   22.9787 H   0  0  0  0  0  0  0  0  0  0  0  0
    7.9801   -7.6298   22.4299 H   0  0  0  0  0  0  0  0  0  0  0  0
    7.3345   -5.2924   23.8347 C   0  0  0  0  0  0  0  0  0  0  0  0
    6.4485   -5.3362   22.5658 C   0  0  1  0  0  0  0  0  0  0  0  0
    5.2514   -6.2732   22.6763 C   0  0  0  0  0  0  0  0  0  0  0  0
    4.6558   -6.2341   21.7568 H   0  0  0  0  0  0  0  0  0  0  0  0
    5.5819   -7.3075   22.8235 H   0  0  0  0  0  0  0  0  0  0  0  0
    4.6071   -6.0221   23.5237 H   0  0  0  0  0  0  0  0  0  0  0  0
    6.0163   -4.0182   22.0978 N   0  0  0  0  0  0  0  0  0  0  0  0
    7.0002   -3.1661   21.6352 C   0  0  0  0  0  0  0  0  0  0  0  0
    8.1397   -3.5021   21.3816 O   0  0  0  0  0  0  0  0  0  0  0  0
    6.5239   -1.8873   21.5374 N   0  0  0  0  0  0  0  0  0  0  0  0
    7.3363   -0.7947   21.0167 C   0  0  0  0  0  0  0  0  0  0  0  0
    7.7604    0.1751   22.1477 C   0  0  0  0  0  0  0  0  0  0  0  0
    8.8121   -0.3560   23.0750 N   0  0  0  0  0  4  0  0  0  0  0  0
    8.3839   -1.5012   23.9831 C   0  0  0  0  0  0  0  0  0  0  0  0
    9.2168   -1.3512   25.2614 C   0  0  0  0  0  0  0  0  0  0  0  0
   10.0882   -0.0939   25.0623 C   0  0  0  0  0  0  0  0  0  0  0  0
    9.3644    0.6988   23.9865 C   0  0  0  0  0  0  0  0  0  0  0  0
    8.5228    1.2632   24.4074 H   0  0  0  0  0  0  0  0  0  0  0  0
    9.9985    1.3962   23.4300 H   0  0  0  0  0  0  0  0  0  0  0  0
   11.0919   -0.3561   24.7101 H   0  0  0  0  0  0  0  0  0  0  0  0
   10.2082    0.4956   25.9761 H   0  0  0  0  0  0  0  0  0  0  0  0
    8.5527   -1.2387   26.1235 H   0  0  0  0  0  0  0  0  0  0  0  0
    9.8126   -2.2540   25.4217 H   0  0  0  0  0  0  0  0  0  0  0  0
    7.3101   -1.4140   24.1715 H   0  0  0  0  0  0  0  0  0  0  0  0
    8.5689   -2.4494   23.4738 H   0  0  0  0  0  0  0  0  0  0  0  0
    9.5998   -0.7340   22.4939 H   0  0  0  0  0  0  0  0  0  0  0  0
    6.8613    0.4191   22.7316 H   0  0  0  0  0  0  0  0  0  0  0  0
    8.1130    1.1100   21.6962 H   0  0  0  0  0  0  0  0  0  0  0  0
    6.5746   -0.0912   19.9066 C   0  0  0  0  0  0  0  0  0  0  0  0
    5.3765    0.6126   20.1162 C   0  0  0  0  0  0  0  0  0  0  0  0
    4.8136    1.3179   19.0481 C   0  0  0  0  0  0  0  0  0  0  0  0
    5.4488    1.2866   17.8027 C   0  0  0  0  0  0  0  0  0  0  0  0
    6.5651    0.5836   17.5663 N   0  0  0  0  0  0  0  0  0  0  0  0
    7.0946   -0.0827   18.6005 C   0  0  0  0  0  0  0  0  0  0  0  0
    7.9970   -0.6507   18.3739 H   0  0  0  0  0  0  0  0  0  0  0  0
    5.0418    1.8431   16.9586 H   0  0  0  0  0  0  0  0  0  0  0  0
    3.9061    1.8991   19.1667 H   0  0  0  0  0  0  0  0  0  0  0  0
    4.8785    0.6253   21.0909 H   0  0  0  0  0  0  0  0  0  0  0  0
    8.2691   -1.2195   20.6185 H   0  0  0  0  0  0  0  0  0  0  0  0
    5.5347   -1.8465   21.3681 H   0  0  0  0  0  0  0  0  0  0  0  0
    5.4096   -3.5028   22.7174 H   0  0  0  0  0  0  0  0  0  0  0  0
    7.0651   -5.7252   21.7484 H   0  0  0  0  0  0  0  0  0  0  0  0
    7.0398   -4.4677   24.9316 C   0  0  0  0  0  0  0  0  0  0  0  0
    6.2034   -3.7715   24.8862 H   0  0  0  0  0  0  0  0  0  0  0  0
   10.1770   -6.7184   25.0690 H   0  0  0  0  0  0  0  0  0  0  0  0
    9.5799   -5.2749   27.0362 H   0  0  0  0  0  0  0  0  0  0  0  0
    6.7480   -2.8750   27.1087 H   0  0  0  0  0  0  0  0  0  0  0  0
    8.3890   -3.2015   27.7312 H   0  0  0  0  0  0  0  0  0  0  0  0
    7.0631   -4.2953   28.1127 H   0  0  0  0  0  0  0  0  0  0  0  0
  1  2  1  0
  2  3  2  0
  3  4  1  0
  4  5  2  0
  5  6  1  0
  6  7  1  0
  6  8  1  0
  6  9  1  0
  5 10  1  0
 10 11  1  0
 11 12  1  0
 12 13  1  0
 12 14  1  0
 12 15  1  0
 11 16  1  0
 16 17  1  0
 17 18  2  0
 17 19  1  0
 19 20  1  0
 20 21  1  0
 21 22  1  0
 22 23  1  0
 23 24  1  0
 24 25  1  0
 25 26  1  0
 26 27  1  0
 26 28  1  0
 25 29  1  0
 25 30  1  0
 24 31  1  0
 24 32  1  0
 23 33  1  0
 23 34  1  0
 22 35  1  0
 21 36  1  0
 21 37  1  0
 20 38  1  0
 38 39  2  0
 39 40  1  0
 40 41  2  0
 41 42  1  0
 42 43  2  0
 43 44  1  0
 41 45  1  0
 40 46  1  0
 39 47  1  0
 20 48  1  0
 19 49  1  0
 16 50  1  0
 11 51  1  6
 10 52  2  0
 52 53  1  0
  4 54  1  0
  3 55  1  0
  1 56  1  0
  1 57  1  0
  1 58  1  0
 52  2  1  0
 26 22  1  0
 43 38  1  0
M  CHG  1  22   1
M  END
>  <cnnaffinity>  (1) 
5.71593

>  <plip>  (1) 
-0.15625

>  <filename>  (1) 
[H][c]1[n][c]([H])[c]([C]([H])([N]([H])[C](=[O])[N]([H])[C@@]([H])([c]2[c]([H])[c]([C]([H])([H])[H])[c]([H])[c]([H])[c]2[C]([H])([H])[H])[C]([H])([H])[H])[C]([H])([H])[N+]2([H])[C]([H])([H])[C]([H])([H])[C]([H])([H])[C]2([H])[H])[c]([H])[c]1[H]

>  <combo1>  (1) 
-0.8100433109216727

$$$$
