
     RDKit          3D

 37 39  0  0  0  0  0  0  0  0999 V2000
    9.5619    0.3703   21.3139 O   0  0  0  0  0  0  0  0  0  0  0  0
    8.4027    0.3007   21.6861 C   0  0  0  0  0  0  0  0  0  0  0  0
    7.4074   -0.6625   21.0399 C   0  0  0  0  0  0  0  0  0  0  0  0
    6.6382   -0.0090   19.8962 C   0  0  0  0  0  0  0  0  0  0  0  0
    5.4299    0.6543   20.1380 C   0  0  0  0  0  0  0  0  0  0  0  0
    4.7908    1.3200   19.0867 C   0  0  0  0  0  0  0  0  0  0  0  0
    5.3852    1.3023   17.8219 C   0  0  0  0  0  0  0  0  0  0  0  0
    6.5425    0.6744   17.5607 N   0  0  0  0  0  0  0  0  0  0  0  0
    7.1443    0.0504   18.5823 C   0  0  0  0  0  0  0  0  0  0  0  0
    8.1012   -0.4189   18.3502 H   0  0  0  0  0  0  0  0  0  0  0  0
    4.9183    1.8093   16.9776 H   0  0  0  0  0  0  0  0  0  0  0  0
    3.8611    1.8575   19.2342 H   0  0  0  0  0  0  0  0  0  0  0  0
    5.0028    0.6489   21.1429 H   0  0  0  0  0  0  0  0  0  0  0  0
    8.0157   -1.4977   20.6889 H   0  0  0  0  0  0  0  0  0  0  0  0
    6.7148   -1.0608   21.7924 H   0  0  0  0  0  0  0  0  0  0  0  0
    7.9044    1.0896   22.6714 N   0  0  0  0  0  0  0  0  0  0  0  0
    8.6922    2.1832   23.2135 C   0  0  0  0  0  0  0  0  0  0  0  0
    8.8976    3.3494   22.2233 C   0  0  0  0  0  0  0  0  0  0  0  0
    9.7465    4.4360   22.8185 C   0  0  0  0  0  0  0  0  0  0  0  0
   11.0976    4.6131   22.7310 C   0  0  0  0  0  0  0  0  0  0  0  0
   11.4847    5.6984   23.4990 N   0  0  0  0  0  0  0  0  0  0  0  0
   10.3828    6.2239   24.1095 C   0  0  0  0  0  0  0  0  0  0  0  0
   10.3948    7.2638   24.9494 N   0  0  0  0  0  0  0  0  0  0  0  0
    9.1833    7.5982   25.4081 C   0  0  0  0  0  0  0  0  0  0  0  0
    7.9841    6.9247   25.0839 C   0  0  0  0  0  0  0  0  0  0  0  0
    8.0166    5.8346   24.2182 C   0  0  0  0  0  0  0  0  0  0  0  0
    9.2628    5.4599   23.7020 C   0  0  0  0  0  0  0  0  0  0  0  0
    7.1161    5.2818   23.9446 H   0  0  0  0  0  0  0  0  0  0  0  0
    7.0518    7.2618   25.5169 H   0  0  0  0  0  0  0  0  0  0  0  0
    9.1448    8.4568   26.0792 H   0  0  0  0  0  0  0  0  0  0  0  0
   12.3983    6.0854   23.6507 H   0  0  0  0  0  0  0  0  0  0  0  0
   11.8098    4.0306   22.1568 H   0  0  0  0  0  0  0  0  0  0  0  0
    9.3429    2.9485   21.3058 H   0  0  0  0  0  0  0  0  0  0  0  0
    7.9184    3.7617   21.9415 H   0  0  0  0  0  0  0  0  0  0  0  0
    8.2029    2.5520   24.1222 H   0  0  0  0  0  0  0  0  0  0  0  0
    9.6762    1.7839   23.4894 H   0  0  0  0  0  0  0  0  0  0  0  0
    6.9247    1.0050   22.8769 H   0  0  0  0  0  0  0  0  0  0  0  0
  1  2  2  0
  2  3  1  0
  3  4  1  0
  4  5  2  0
  5  6  1  0
  6  7  2  0
  7  8  1  0
  8  9  2  0
  9 10  1  0
  7 11  1  0
  6 12  1  0
  5 13  1  0
  3 14  1  0
  3 15  1  0
  2 16  1  0
 16 17  1  0
 17 18  1  0
 18 19  1  0
 19 20  2  0
 20 21  1  0
 21 22  1  0
 22 23  2  0
 23 24  1  0
 24 25  2  0
 25 26  1  0
 26 27  2  0
 26 28  1  0
 25 29  1  0
 24 30  1  0
 21 31  1  0
 20 32  1  0
 18 33  1  0
 18 34  1  0
 17 35  1  0
 17 36  1  0
 16 37  1  0
  9  4  1  0
 27 19  1  0
 27 22  1  0
M  END
>  <cnnaffinity>  (1) 
4.55354

>  <plip>  (1) 
-0.07142857142857142

>  <filename>  (1) 
[H][c]1[n][c]([H])[c]([C]([H])([H])[C](=[O])[N]([H])[C]([H])([H])[C]([H])([H])[c]2[c]([H])[n]([H])[c]3[n][c]([H])[c]([H])[c]([H])[c]23)[c]([H])[c]1[H]

>  <combo1>  (1) 
-0.38674859022947555

$$$$
