
     RDKit          3D

 30 32  0  0  0  0  0  0  0  0999 V2000
    4.8003    1.3156   19.1004 C   0  0  0  0  0  0  0  0  0  0  0  0
    5.4024    1.2942   17.8368 C   0  0  0  0  0  0  0  0  0  0  0  0
    6.5649    0.6778   17.5756 N   0  0  0  0  0  0  0  0  0  0  0  0
    7.1647    0.0517   18.5953 C   0  0  0  0  0  0  0  0  0  0  0  0
    6.6408   -0.0010   19.8945 C   0  0  0  0  0  0  0  0  0  0  0  0
    7.4032   -0.6612   21.0084 C   0  0  0  0  0  0  0  0  0  0  0  0
    8.5709    0.2129   21.4857 C   0  0  0  0  0  0  0  0  0  0  0  0
    9.3715   -0.5177   22.5684 C   0  0  0  0  0  0  0  0  0  0  0  0
   10.5505    0.2501   22.9682 N   0  0  0  0  0  0  0  0  0  0  0  0
   10.8468    0.8297   24.1364 C   0  0  0  0  0  0  0  0  0  0  0  0
   12.0108    1.4269   24.0348 N   0  0  0  0  0  0  0  0  0  0  0  0
   12.4210    1.2039   22.7695 N   0  0  0  0  0  0  0  0  0  0  0  0
   11.5557    0.5031   22.1197 N   0  0  0  0  0  0  0  0  0  0  0  0
   10.1994    0.7904   25.0061 H   0  0  0  0  0  0  0  0  0  0  0  0
    9.7362   -1.9393   22.1133 C   0  0  0  0  0  0  0  0  0  0  0  0
    8.5001   -2.6662   21.5930 C   0  0  0  0  0  0  0  0  0  0  0  0
    7.8813   -1.9210   20.5586 O   0  0  0  0  0  0  0  0  0  0  0  0
    8.7567   -3.6411   21.1662 H   0  0  0  0  0  0  0  0  0  0  0  0
    7.7746   -2.8446   22.4073 H   0  0  0  0  0  0  0  0  0  0  0  0
   10.1803   -2.4995   22.9395 H   0  0  0  0  0  0  0  0  0  0  0  0
   10.4772   -1.8709   21.3094 H   0  0  0  0  0  0  0  0  0  0  0  0
    8.7424   -0.5910   23.4601 H   0  0  0  0  0  0  0  0  0  0  0  0
    9.2277    0.4351   20.6370 H   0  0  0  0  0  0  0  0  0  0  0  0
    8.1810    1.1637   21.8587 H   0  0  0  0  0  0  0  0  0  0  0  0
    6.7067   -0.8370   21.8490 H   0  0  0  0  0  0  0  0  0  0  0  0
    5.4324    0.6527   20.1511 C   0  0  0  0  0  0  0  0  0  0  0  0
    5.0010    0.6374   21.1586 H   0  0  0  0  0  0  0  0  0  0  0  0
    8.1147   -0.4316   18.3703 H   0  0  0  0  0  0  0  0  0  0  0  0
    4.9197    1.7821   16.9937 H   0  0  0  0  0  0  0  0  0  0  0  0
    3.8672    1.8493   19.2528 H   0  0  0  0  0  0  0  0  0  0  0  0
  1  2  2  0
  2  3  1  0
  3  4  2  0
  4  5  1  0
  5  6  1  0
  6  7  1  0
  7  8  1  0
  8  9  1  0
  9 10  1  0
 10 11  2  0
 11 12  1  0
 12 13  2  0
 10 14  1  0
  8 15  1  0
 15 16  1  0
 16 17  1  0
 16 18  1  0
 16 19  1  0
 15 20  1  0
 15 21  1  0
  8 22  1  0
  7 23  1  0
  7 24  1  0
  6 25  1  0
  5 26  2  0
 26 27  1  0
  4 28  1  0
  2 29  1  0
  1 30  1  0
 26  1  1  0
 17  6  1  0
 13  9  1  0
M  END
>  <cnnaffinity>  (1) 
4.61073

>  <plip>  (1) 
-0.034482758620689655

>  <filename>  (1) 
[H][c]1[n][c]([H])[c]([C]2([H])[O][C]([H])([H])[C]([H])([H])[C]([H])([n]3[n][n][n][c]3[H])[C]2([H])[H])[c]([H])[c]1[H]

>  <combo1>  (1) 
-0.22916684994626854

$$$$
