
     RDKit          3D

 40 41  0  0  0  0  0  0  0  0999 V2000
    7.3914   -5.3795   21.1338 C   0  0  0  0  0  0  0  0  0  0  0  0
    7.0798   -4.4240   22.2803 C   0  0  0  0  0  0  0  0  0  0  0  0
    7.6139   -2.9858   22.1343 C   0  0  0  0  0  0  0  0  0  0  0  0
    6.8646   -2.1671   21.0844 C   0  0  0  0  0  0  0  0  0  0  0  0
    7.3631   -0.7193   20.9734 C   0  0  0  0  0  0  0  0  0  0  0  0
    6.6615    0.0481   19.8799 C   0  0  0  0  0  0  0  0  0  0  0  0
    5.4406    0.6959   20.1122 C   0  0  0  0  0  0  0  0  0  0  0  0
    4.8032    1.3384   19.0499 C   0  0  0  0  0  0  0  0  0  0  0  0
    5.4021    1.3175   17.7873 C   0  0  0  0  0  0  0  0  0  0  0  0
    6.5692    0.7061   17.5398 N   0  0  0  0  0  0  0  0  0  0  0  0
    7.1684    0.0924   18.5698 C   0  0  0  0  0  0  0  0  0  0  0  0
    8.1210   -0.3851   18.3377 H   0  0  0  0  0  0  0  0  0  0  0  0
    4.9264    1.8116   16.9405 H   0  0  0  0  0  0  0  0  0  0  0  0
    3.8638    1.8582   19.1889 H   0  0  0  0  0  0  0  0  0  0  0  0
    5.0049    0.7141   21.1144 H   0  0  0  0  0  0  0  0  0  0  0  0
    8.4476   -0.7160   20.7901 H   0  0  0  0  0  0  0  0  0  0  0  0
    7.1999   -0.2074   21.9324 H   0  0  0  0  0  0  0  0  0  0  0  0
    5.7960   -2.1624   21.3491 H   0  0  0  0  0  0  0  0  0  0  0  0
    6.9282   -2.6565   20.1046 H   0  0  0  0  0  0  0  0  0  0  0  0
    7.4911   -2.4961   23.1143 H   0  0  0  0  0  0  0  0  0  0  0  0
    8.6981   -3.0183   21.9317 H   0  0  0  0  0  0  0  0  0  0  0  0
    7.5614   -4.9815   23.5380 N   0  0  0  0  0  0  0  0  0  0  0  0
    6.9617   -4.6575   24.7124 C   0  0  0  0  0  0  0  0  0  0  0  0
    5.9871   -3.9299   24.7840 O   0  0  0  0  0  0  0  0  0  0  0  0
    7.5795   -5.2563   25.7957 N   0  0  0  0  0  0  0  0  0  0  0  0
    7.0122   -5.3848   27.0648 C   0  0  0  0  0  0  0  0  0  0  0  0
    5.6369   -5.2602   27.2316 C   0  0  0  0  0  0  0  0  0  0  0  0
    5.1479   -5.3845   28.5302 C   0  0  0  0  0  0  0  0  0  0  0  0
    5.9243   -5.6070   29.6031 N   0  0  0  0  0  0  0  0  0  0  0  0
    7.2425   -5.7349   29.4363 N   0  0  0  0  0  0  0  0  0  0  0  0
    7.7873   -5.6312   28.2241 C   0  0  0  0  0  0  0  0  0  0  0  0
    8.8713   -5.7077   28.1719 H   0  0  0  0  0  0  0  0  0  0  0  0
    4.0821   -5.2911   28.7184 H   0  0  0  0  0  0  0  0  0  0  0  0
    4.9946   -5.0182   26.3901 H   0  0  0  0  0  0  0  0  0  0  0  0
    8.4868   -5.6442   25.6103 H   0  0  0  0  0  0  0  0  0  0  0  0
    8.3425   -5.6060   23.5638 H   0  0  0  0  0  0  0  0  0  0  0  0
    5.9816   -4.3608   22.3575 H   0  0  0  0  0  0  0  0  0  0  0  0
    6.8962   -5.0468   20.2143 H   0  0  0  0  0  0  0  0  0  0  0  0
    8.4643   -5.4548   20.9200 H   0  0  0  0  0  0  0  0  0  0  0  0
    7.0026   -6.3793   21.3718 H   0  0  0  0  0  0  0  0  0  0  0  0
  1  2  1  0
  2  3  1  0
  3  4  1  0
  4  5  1  0
  5  6  1  0
  6  7  2  0
  7  8  1  0
  8  9  2  0
  9 10  1  0
 10 11  2  0
 11 12  1  0
  9 13  1  0
  8 14  1  0
  7 15  1  0
  5 16  1  0
  5 17  1  0
  4 18  1  0
  4 19  1  0
  3 20  1  0
  3 21  1  0
  2 22  1  0
 22 23  1  0
 23 24  2  0
 23 25  1  0
 25 26  1  0
 26 27  2  0
 27 28  1  0
 28 29  2  0
 29 30  1  0
 30 31  2  0
 31 32  1  0
 28 33  1  0
 27 34  1  0
 25 35  1  0
 22 36  1  0
  2 37  1  0
  1 38  1  0
  1 39  1  0
  1 40  1  0
 11  6  1  0
 31 26  1  0
M  END
>  <cnnaffinity>  (1) 
4.78644

>  <plip>  (1) 
-0.03225806451612903

>  <filename>  (1) 
[H][c]1[n][c]([H])[c]([C]([H])([H])[C]([H])([H])[C]([H])([H])[C]([H])([N]([H])[C](=[O])[N]([H])[c]2[c]([H])[n][n][c]([H])[c]2[H])[C]([H])([H])[H])[c]([H])[c]1[H]

>  <combo1>  (1) 
-0.18036417175406272

$$$$
