
     RDKit          3D

 43 45  0  0  0  0  0  0  0  0999 V2000
    5.7787   -2.7172   21.4078 S   0  0  0  0  0  0  0  0  0  0  0  0
    6.9245   -1.6003   21.8835 C   0  0  0  0  0  0  0  0  0  0  0  0
    7.3609   -0.5982   21.0450 N   0  0  0  0  0  0  0  0  0  0  0  0
    6.6574    0.0047   19.9629 C   0  0  0  0  0  0  0  0  0  0  0  0
    5.4204    0.6298   20.1767 C   0  0  0  0  0  0  0  0  0  0  0  0
    4.8224    1.2837   19.0904 C   0  0  0  0  0  0  0  0  0  0  0  0
    5.4592    1.2680   17.8450 C   0  0  0  0  0  0  0  0  0  0  0  0
    6.6285    0.6455   17.6255 N   0  0  0  0  0  0  0  0  0  0  0  0
    7.2060    0.0339   18.6659 C   0  0  0  0  0  0  0  0  0  0  0  0
    8.1571   -0.4696   18.4867 H   0  0  0  0  0  0  0  0  0  0  0  0
    5.0085    1.7648   16.9874 H   0  0  0  0  0  0  0  0  0  0  0  0
    3.8847    1.8113   19.2067 H   0  0  0  0  0  0  0  0  0  0  0  0
    4.9722    0.6195   21.1709 H   0  0  0  0  0  0  0  0  0  0  0  0
    8.3255   -0.3402   21.1854 H   0  0  0  0  0  0  0  0  0  0  0  0
    7.5458   -1.6018   23.1065 N   0  0  0  0  0  0  0  0  0  0  0  0
    7.7018   -2.8624   23.8572 C   0  0  0  0  0  0  0  0  0  0  0  0
    7.4971   -2.6405   25.3480 C   0  0  0  0  0  0  0  0  0  0  0  0
    8.3676   -1.5133   25.8935 C   0  0  0  0  0  0  0  0  0  0  0  0
    8.0877   -1.3688   27.3777 N   0  0  0  0  0  4  0  0  0  0  0  0
    9.0666   -0.5125   28.1362 C   0  0  0  0  0  0  0  0  0  0  0  0
    8.2709    0.6981   28.6277 C   0  0  0  0  0  0  0  0  0  0  0  0
    6.8088    0.2496   28.7153 C   0  0  0  0  0  0  0  0  0  0  0  0
    6.6719   -0.9365   27.7578 C   0  0  0  0  0  0  0  0  0  0  0  0
    6.1656   -1.7861   28.2250 H   0  0  0  0  0  0  0  0  0  0  0  0
    6.1136   -0.6710   26.8580 H   0  0  0  0  0  0  0  0  0  0  0  0
    6.1341    1.0567   28.4299 H   0  0  0  0  0  0  0  0  0  0  0  0
    6.5250   -0.0502   29.7255 H   0  0  0  0  0  0  0  0  0  0  0  0
    8.6860    1.0627   29.5751 H   0  0  0  0  0  0  0  0  0  0  0  0
    8.3604    1.5046   27.8893 H   0  0  0  0  0  0  0  0  0  0  0  0
    9.9009   -0.2313   27.4883 H   0  0  0  0  0  0  0  0  0  0  0  0
    9.4881   -1.0929   28.9650 H   0  0  0  0  0  0  0  0  0  0  0  0
    8.2002   -2.3374   27.7269 H   0  0  0  0  0  0  0  0  0  0  0  0
    8.1255   -0.2274   25.1103 C   0  0  0  0  0  0  0  0  0  0  0  0
    8.3329   -0.4521   23.6147 C   0  0  0  0  0  0  0  0  0  0  0  0
    9.4015   -0.6108   23.3992 H   0  0  0  0  0  0  0  0  0  0  0  0
    8.0189    0.4591   23.0968 H   0  0  0  0  0  0  0  0  0  0  0  0
    7.1028    0.1260   25.2693 H   0  0  0  0  0  0  0  0  0  0  0  0
    8.7856    0.5754   25.4571 H   0  0  0  0  0  0  0  0  0  0  0  0
    9.4290   -1.7927   25.7844 H   0  0  0  0  0  0  0  0  0  0  0  0
    6.4438   -2.3832   25.5053 H   0  0  0  0  0  0  0  0  0  0  0  0
    7.6917   -3.5662   25.9046 H   0  0  0  0  0  0  0  0  0  0  0  0
    6.9589   -3.5830   23.5067 H   0  0  0  0  0  0  0  0  0  0  0  0
    8.6906   -3.2973   23.6429 H   0  0  0  0  0  0  0  0  0  0  0  0
  1  2  2  0
  2  3  1  0
  3  4  1  0
  4  5  2  0
  5  6  1  0
  6  7  2  0
  7  8  1  0
  8  9  2  0
  9 10  1  0
  7 11  1  0
  6 12  1  0
  5 13  1  0
  3 14  1  0
  2 15  1  0
 15 16  1  0
 16 17  1  0
 17 18  1  0
 18 19  1  0
 19 20  1  0
 20 21  1  0
 21 22  1  0
 22 23  1  0
 23 24  1  0
 23 25  1  0
 22 26  1  0
 22 27  1  0
 21 28  1  0
 21 29  1  0
 20 30  1  0
 20 31  1  0
 19 32  1  0
 18 33  1  0
 33 34  1  0
 34 35  1  0
 34 36  1  0
 33 37  1  0
 33 38  1  0
 18 39  1  0
 17 40  1  0
 17 41  1  0
 16 42  1  0
 16 43  1  0
  9  4  1  0
 34 15  1  0
 23 19  1  0
M  CHG  1  19   1
M  END
>  <cnnaffinity>  (1) 
4.84782

>  <plip>  (1) 
-0.0

>  <filename>  (1) 
[H][c]1[n][c]([H])[c]([N]([H])[C](=[S])[N]2[C]([H])([H])[C]([H])([H])[C]([H])([N+]3([H])[C]([H])([H])[C]([H])([H])[C]([H])([H])[C]3([H])[H])[C]([H])([H])[C]2([H])[H])[c]([H])[c]1[H]

>  <combo1>  (1) 
-5.544598619288784e-06

$$$$
