
     RDKit          3D

 40 43  0  0  0  0  0  0  0  0999 V2000
    4.4901   -3.4728   22.8217 O   0  0  0  0  0  0  0  0  0  0  0  0
    5.0739   -4.3657   23.3893 C   0  0  0  0  0  0  0  0  0  0  0  0
    4.6273   -5.2295   24.5228 C   0  0  0  0  0  0  0  0  0  0  0  0
    3.4466   -5.2281   25.2694 C   0  0  0  0  0  0  0  0  0  0  0  0
    3.3166   -6.1660   26.2986 C   0  0  0  0  0  0  0  0  0  0  0  0
    4.3568   -7.0682   26.5861 C   0  0  0  0  0  0  0  0  0  0  0  0
    5.5490   -7.0264   25.8659 C   0  0  0  0  0  0  0  0  0  0  0  0
    5.6647   -6.1123   24.8150 C   0  0  0  0  0  0  0  0  0  0  0  0
    6.7870   -5.8268   23.8661 C   0  0  0  0  0  0  0  0  0  0  0  0
    7.8766   -6.3321   23.7589 O   0  0  0  0  0  0  0  0  0  0  0  0
    6.3518   -4.7847   23.0447 N   0  0  0  0  0  0  0  0  0  0  0  0
    7.2829   -3.9956   22.2263 C   0  0  0  0  0  0  0  0  0  0  0  0
    8.0858   -2.9609   22.9964 C   0  0  0  0  0  0  0  0  0  0  0  0
    9.0768   -3.3503   23.7912 N   0  0  0  0  0  0  0  0  0  0  0  0
    9.5016   -2.2399   24.3990 N   0  0  0  0  0  0  0  0  0  0  0  0
    8.8038   -1.1338   24.0307 C   0  0  0  0  0  0  0  0  0  0  0  0
    7.8862   -1.5628   23.0994 C   0  0  0  0  0  0  0  0  0  0  0  0
    6.8787   -0.8300   22.2757 C   0  0  0  0  0  0  0  0  0  0  0  0
    7.3269   -0.7728   20.8898 N   0  0  0  0  0  0  0  0  0  0  0  0
    6.6856   -0.0468   19.8858 C   0  0  0  0  0  0  0  0  0  0  0  0
    5.4687    0.6252   20.1313 C   0  0  0  0  0  0  0  0  0  0  0  0
    4.8257    1.2989   19.0869 C   0  0  0  0  0  0  0  0  0  0  0  0
    5.4081    1.3035   17.8169 C   0  0  0  0  0  0  0  0  0  0  0  0
    6.5709    0.6828   17.5452 N   0  0  0  0  0  0  0  0  0  0  0  0
    7.1865    0.0421   18.5493 C   0  0  0  0  0  0  0  0  0  0  0  0
    8.1377   -0.4313   18.2980 H   0  0  0  0  0  0  0  0  0  0  0  0
    4.9329    1.8202   16.9869 H   0  0  0  0  0  0  0  0  0  0  0  0
    3.8898    1.8264   19.2561 H   0  0  0  0  0  0  0  0  0  0  0  0
    5.0463    0.6201   21.1340 H   0  0  0  0  0  0  0  0  0  0  0  0
    8.2819   -1.0572   20.7370 H   0  0  0  0  0  0  0  0  0  0  0  0
    6.6950    0.1779   22.6824 H   0  0  0  0  0  0  0  0  0  0  0  0
    5.9276   -1.3728   22.3059 H   0  0  0  0  0  0  0  0  0  0  0  0
    9.0085   -0.1514   24.4412 H   0  0  0  0  0  0  0  0  0  0  0  0
   10.1993   -2.3238   25.1196 H   0  0  0  0  0  0  0  0  0  0  0  0
    6.7017   -3.5362   21.4187 H   0  0  0  0  0  0  0  0  0  0  0  0
    7.9915   -4.7125   21.8084 H   0  0  0  0  0  0  0  0  0  0  0  0
    6.3569   -7.6828   26.1504 H   0  0  0  0  0  0  0  0  0  0  0  0
    4.2385   -7.8043   27.3775 H   0  0  0  0  0  0  0  0  0  0  0  0
    2.4106   -6.1966   26.8956 H   0  0  0  0  0  0  0  0  0  0  0  0
    2.6536   -4.5126   25.0769 H   0  0  0  0  0  0  0  0  0  0  0  0
  1  2  2  0
  2  3  1  0
  3  4  2  0
  4  5  1  0
  5  6  2  0
  6  7  1  0
  7  8  2  0
  8  9  1  0
  9 10  2  0
  9 11  1  0
 11 12  1  0
 12 13  1  0
 13 14  2  0
 14 15  1  0
 15 16  1  0
 16 17  2  0
 17 18  1  0
 18 19  1  0
 19 20  1  0
 20 21  2  0
 21 22  1  0
 22 23  2  0
 23 24  1  0
 24 25  2  0
 25 26  1  0
 23 27  1  0
 22 28  1  0
 21 29  1  0
 19 30  1  0
 18 31  1  0
 18 32  1  0
 16 33  1  0
 15 34  1  0
 12 35  1  0
 12 36  1  0
  7 37  1  0
  6 38  1  0
  5 39  1  0
  4 40  1  0
 11  2  1  0
 17 13  1  0
 25 20  1  0
  8  3  1  0
M  END
>  <cnnaffinity>  (1) 
5.49024

>  <plip>  (1) 
-0.10344827586206896

>  <filename>  (1) 
[H][c]1[n][c]([H])[c]([N]([H])[C]([H])([H])[c]2[c]([C]([H])([H])[N]3[C](=[O])[c]4[c]([H])[c]([H])[c]([H])[c]([H])[c]4[C]3=[O])[n][n]([H])[c]2[H])[c]([H])[c]1[H]

>  <combo1>  (1) 
-0.5679257620035796

$$$$
