
     RDKit          3D

 36 37  0  0  0  0  0  0  0  0999 V2000
    5.4474   -2.4000   20.8787 O   0  0  0  0  0  0  0  0  0  0  0  0
    6.3681   -1.8005   21.3788 C   0  0  0  0  0  0  0  0  0  0  0  0
    7.0425   -0.7151   20.8246 N   0  0  0  0  0  0  0  0  0  0  0  0
    6.5955    0.0208   19.6925 C   0  0  0  0  0  0  0  0  0  0  0  0
    5.3710    0.6977   19.7518 C   0  0  0  0  0  0  0  0  0  0  0  0
    4.9594    1.4451   18.6425 C   0  0  0  0  0  0  0  0  0  0  0  0
    5.7622    1.4605   17.4983 C   0  0  0  0  0  0  0  0  0  0  0  0
    6.9345    0.8080   17.4154 N   0  0  0  0  0  0  0  0  0  0  0  0
    7.3420    0.1257   18.4957 C   0  0  0  0  0  0  0  0  0  0  0  0
    8.3064   -0.3789   18.4238 H   0  0  0  0  0  0  0  0  0  0  0  0
    5.4494    1.9982   16.6067 H   0  0  0  0  0  0  0  0  0  0  0  0
    4.0416    2.0248   18.6570 H   0  0  0  0  0  0  0  0  0  0  0  0
    4.7706    0.6406   20.6572 H   0  0  0  0  0  0  0  0  0  0  0  0
    8.0229   -0.7259   21.0399 H   0  0  0  0  0  0  0  0  0  0  0  0
    6.9504   -2.1227   22.5833 N   0  0  0  0  0  0  0  0  0  0  0  0
    6.3938   -3.0968   23.5591 C   0  0  0  0  0  0  0  0  0  0  0  0
    6.2639   -4.7373   23.1428 C   0  0  0  0  0  0  0  0  0  0  0  0
    7.2752   -5.2550   22.6515 O   0  0  0  0  0  0  0  0  0  0  0  0
    5.1567   -5.1639   23.4665 O   0  0  0  0  0  1  0  0  0  0  0  0
    7.2476   -3.0031   24.8160 C   0  0  0  0  0  0  0  0  0  0  0  0
    8.3882   -3.8040   25.0008 C   0  0  0  0  0  0  0  0  0  0  0  0
    9.3318   -3.4812   25.9900 C   0  0  0  0  0  0  0  0  0  0  0  0
    9.1328   -2.3604   26.8092 C   0  0  0  0  0  0  0  0  0  0  0  0
    7.9625   -1.5996   26.6973 C   0  0  0  0  0  0  0  0  0  0  0  0
    7.0192   -1.9616   25.7414 C   0  0  0  0  0  0  0  0  0  0  0  0
    5.8107   -1.2670   25.6416 O   0  0  0  0  0  0  0  0  0  0  0  0
    5.0587   -0.9995   26.7349 C   0  0  0  0  0  0  0  0  0  0  0  0
    4.9848   -2.0058   27.6179 F   0  0  0  0  0  0  0  0  0  0  0  0
    3.8254   -0.7263   26.3222 F   0  0  0  0  0  0  0  0  0  0  0  0
    5.5269    0.0706   27.4053 F   0  0  0  0  0  0  0  0  0  0  0  0
    7.7680   -0.7419   27.3334 H   0  0  0  0  0  0  0  0  0  0  0  0
    9.8809   -2.0625   27.5407 H   0  0  0  0  0  0  0  0  0  0  0  0
   10.1997   -4.1231   26.1319 H   0  0  0  0  0  0  0  0  0  0  0  0
    8.5269   -4.6528   24.3273 H   0  0  0  0  0  0  0  0  0  0  0  0
    5.3624   -2.8454   23.8309 H   0  0  0  0  0  0  0  0  0  0  0  0
    7.5138   -1.3707   22.9563 H   0  0  0  0  0  0  0  0  0  0  0  0
  1  2  2  0
  2  3  1  0
  3  4  1  0
  4  5  2  0
  5  6  1  0
  6  7  2  0
  7  8  1  0
  8  9  2  0
  9 10  1  0
  7 11  1  0
  6 12  1  0
  5 13  1  0
  3 14  1  0
  2 15  1  0
 15 16  1  0
 16 17  1  0
 17 18  2  0
 17 19  1  0
 16 20  1  0
 20 21  2  0
 21 22  1  0
 22 23  2  0
 23 24  1  0
 24 25  2  0
 25 26  1  0
 26 27  1  0
 27 28  1  0
 27 29  1  0
 27 30  1  0
 24 31  1  0
 23 32  1  0
 22 33  1  0
 21 34  1  0
 16 35  1  0
 15 36  1  0
  9  4  1  0
 25 20  1  0
M  CHG  1  19  -1
M  END
>  <cnnaffinity>  (1) 
5.05179

>  <plip>  (1) 
-0.06666666666666667

>  <filename>  (1) 
[H][c]1[n][c]([H])[c]([N]([H])[C](=[O])[N]([H])[C]([H])([C](=[O])[O-])[c]2[c]([H])[c]([H])[c]([H])[c]([H])[c]2[O][C]([F])([F])[F])[c]([H])[c]1[H]

>  <combo1>  (1) 
-0.316887970553034

$$$$
