
     RDKit          3D

 33 35  0  0  0  0  0  0  0  0999 V2000
    4.9744    1.8230   16.9972 H   0  0  0  0  0  0  0  0  0  0  0  0
    5.4266    1.3132   17.8460 C   0  0  0  0  0  0  0  0  0  0  0  0
    6.5845    0.6719   17.6169 N   0  0  0  0  0  0  0  0  0  0  0  0
    7.1536    0.0214   18.6450 C   0  0  0  0  0  0  0  0  0  0  0  0
    8.0952   -0.4793   18.4095 H   0  0  0  0  0  0  0  0  0  0  0  0
    6.6191   -0.0334   19.9687 C   0  0  0  0  0  0  0  0  0  0  0  0
    7.2188   -0.7456   21.0273 N   0  0  0  0  0  0  0  0  0  0  0  0
    7.8490   -2.0345   20.8265 C   0  0  0  0  0  0  0  0  0  0  0  0
    8.7275   -1.9606   20.1737 H   0  0  0  0  0  0  0  0  0  0  0  0
    7.1389   -2.7436   20.3807 H   0  0  0  0  0  0  0  0  0  0  0  0
    8.2731   -2.4461   22.2447 C   0  0  0  0  0  0  0  0  0  0  0  0
    9.3682   -2.4721   22.3369 H   0  0  0  0  0  0  0  0  0  0  0  0
    7.8618   -3.4134   22.5453 H   0  0  0  0  0  0  0  0  0  0  0  0
    7.7290   -1.4780   23.1136 O   0  0  0  0  0  0  0  0  0  0  0  0
    7.4244   -0.3036   22.3994 C   0  0  1  0  0  0  0  0  0  0  0  0
    6.4974    0.0842   22.8436 H   0  0  0  0  0  0  0  0  0  0  0  0
    8.5341    0.7495   22.5844 C   0  0  1  0  0  0  0  0  0  0  0  0
    8.7676    0.7787   23.6568 H   0  0  0  0  0  0  0  0  0  0  0  0
    9.8330    0.4726   21.8099 C   0  0  0  0  0  0  0  0  0  0  0  0
   10.4994   -0.2364   22.3136 H   0  0  0  0  0  0  0  0  0  0  0  0
    9.6011    0.0816   20.8103 H   0  0  0  0  0  0  0  0  0  0  0  0
   10.4860    1.7680   21.6606 N   0  0  0  0  0  0  0  0  0  0  0  0
   11.0341    1.9829   22.4840 H   0  0  0  0  0  0  0  0  0  0  0  0
    9.4198    2.7594   21.5192 C   0  0  0  0  0  0  0  0  0  0  0  0
    9.2637    2.9982   20.4645 H   0  0  0  0  0  0  0  0  0  0  0  0
    9.6952    3.6883   22.0219 H   0  0  0  0  0  0  0  0  0  0  0  0
    8.1279    2.1437   22.0892 C   0  0  0  0  0  0  0  0  0  0  0  0
    7.4099    2.0446   21.2703 H   0  0  0  0  0  0  0  0  0  0  0  0
    7.6523    2.7330   22.8776 H   0  0  0  0  0  0  0  0  0  0  0  0
    5.4102    0.6595   20.1718 C   0  0  0  0  0  0  0  0  0  0  0  0
    4.9742    0.6740   21.1701 H   0  0  0  0  0  0  0  0  0  0  0  0
    4.8080    1.3282   19.0989 C   0  0  0  0  0  0  0  0  0  0  0  0
    3.8762    1.8674   19.2314 H   0  0  0  0  0  0  0  0  0  0  0  0
  1  2  1  0
  2  3  2  0
  3  4  1  0
  4  5  1  0
  4  6  2  0
  6  7  1  0
  7  8  1  0
  8  9  1  0
  8 10  1  0
  8 11  1  0
 11 12  1  0
 11 13  1  0
 11 14  1  0
 14 15  1  0
 15 16  1  1
 15 17  1  0
 17 18  1  1
 17 19  1  0
 19 20  1  0
 19 21  1  0
 19 22  1  0
 22 23  1  0
 22 24  1  0
 24 25  1  0
 24 26  1  0
 24 27  1  0
 27 28  1  0
 27 29  1  0
  6 30  1  0
 30 31  1  0
 30 32  2  0
 32 33  1  0
 32  2  1  0
 15  7  1  0
 27 17  1  0
M  END
>  <cnnaffinity>  (1) 
4.2943

>  <plip>  (1) 
-0.03571428571428571

>  <filename>  (1) 
[H][c]1[n][c]([H])[c]([N]2[C]([H])([H])[C]([H])([H])[O][C@@]2([H])[C@@]2([H])[C]([H])([H])[N]([H])[C]([H])([H])[C]2([H])[H])[c]([H])[c]1[H]

>  <combo1>  (1) 
-0.23313003469236362

$$$$
