
     RDKit          3D

 32 35  0  0  0  0  0  0  0  0999 V2000
    4.9115    1.7829   16.9924 H   0  0  0  0  0  0  0  0  0  0  0  0
    5.3943    1.2967   17.8352 C   0  0  0  0  0  0  0  0  0  0  0  0
    6.5579    0.6769   17.5770 N   0  0  0  0  0  0  0  0  0  0  0  0
    7.1668    0.0574   18.5920 C   0  0  0  0  0  0  0  0  0  0  0  0
    8.1200   -0.4220   18.3893 H   0  0  0  0  0  0  0  0  0  0  0  0
    6.6400   -0.0015   19.8961 C   0  0  0  0  0  0  0  0  0  0  0  0
    7.3475   -0.6819   20.9086 N   0  0  0  0  0  0  0  0  0  0  0  0
    8.7464   -0.6643   21.1426 C   0  0  0  0  0  0  0  0  0  0  0  0
    9.5638   -0.0574   20.4719 O   0  0  0  0  0  0  0  0  0  0  0  0
    8.9054   -1.5041   22.2993 C   0  0  0  0  0  0  0  0  0  0  0  0
    9.8720   -1.6766   22.7260 H   0  0  0  0  0  0  0  0  0  0  0  0
    7.6944   -1.9467   22.7216 C   0  0  0  0  0  0  0  0  0  0  0  0
    7.3754   -2.8225   23.8719 C   0  0  0  0  0  0  0  0  0  0  0  0
    6.0921   -2.8721   24.4401 C   0  0  0  0  0  0  0  0  0  0  0  0
    5.3039   -2.2519   24.0383 H   0  0  0  0  0  0  0  0  0  0  0  0
    5.7947   -3.6925   25.5392 C   0  0  0  0  0  0  0  0  0  0  0  0
    4.7991   -3.7229   25.9643 H   0  0  0  0  0  0  0  0  0  0  0  0
    6.8239   -4.4555   26.0513 C   0  0  0  0  0  0  0  0  0  0  0  0
    8.1095   -4.4147   25.5056 C   0  0  0  0  0  0  0  0  0  0  0  0
    8.4118   -3.6166   24.4298 C   0  0  0  0  0  0  0  0  0  0  0  0
    9.4136   -3.6039   24.0144 H   0  0  0  0  0  0  0  0  0  0  0  0
    8.9299   -5.2552   26.1987 O   0  0  0  0  0  0  0  0  0  0  0  0
    8.1228   -5.8424   27.2158 C   0  0  0  0  0  0  0  0  0  0  0  0
    8.1028   -6.9254   27.0844 H   0  0  0  0  0  0  0  0  0  0  0  0
    8.5307   -5.5987   28.2018 H   0  0  0  0  0  0  0  0  0  0  0  0
    6.8004   -5.3231   27.1003 O   0  0  0  0  0  0  0  0  0  0  0  0
    6.7367   -1.4224   21.9028 N   0  0  0  0  0  0  0  0  0  0  0  0
    5.7442   -1.5951   21.8918 H   0  0  0  0  0  0  0  0  0  0  0  0
    5.4273    0.6519   20.1585 C   0  0  0  0  0  0  0  0  0  0  0  0
    5.0121    0.6354   21.1692 H   0  0  0  0  0  0  0  0  0  0  0  0
    4.8011    1.3173   19.1036 C   0  0  0  0  0  0  0  0  0  0  0  0
    3.8687    1.8477   19.2605 H   0  0  0  0  0  0  0  0  0  0  0  0
  1  2  1  0
  2  3  2  0
  3  4  1  0
  4  5  1  0
  4  6  2  0
  6  7  1  0
  7  8  1  0
  8  9  2  0
  8 10  1  0
 10 11  1  0
 10 12  2  0
 12 13  1  0
 13 14  2  0
 14 15  1  0
 14 16  1  0
 16 17  1  0
 16 18  2  0
 18 19  1  0
 19 20  2  0
 20 21  1  0
 19 22  1  0
 22 23  1  0
 23 24  1  0
 23 25  1  0
 23 26  1  0
 12 27  1  0
 27 28  1  0
  6 29  1  0
 29 30  1  0
 29 31  2  0
 31 32  1  0
 31  2  1  0
 27  7  1  0
 20 13  1  0
 26 18  1  0
M  END
>  <cnnaffinity>  (1) 
5.02358

>  <plip>  (1) 
-0.13793103448275862

>  <filename>  (1) 
[H][c]1[n][c]([H])[c](-[n]2[c](=[O])[c]([H])[c](-[c]3[c]([H])[c]([H])[c]4[c]([c]3[H])[O][C]([H])([H])[O]4)[n]2[H])[c]([H])[c]1[H]

>  <combo1>  (1) 
-0.8211624924087404

$$$$
