
     RDKit          3D

 24 24  0  0  0  0  0  0  0  0999 V2000
   12.4870   -3.0410   22.4646 H   0  0  0  0  0  0  0  0  0  0  0  0
   11.6366   -2.5697   22.3892 O   0  0  0  0  0  0  0  0  0  0  0  0
   10.9823   -3.1910   23.3932 C   0  0  0  0  0  0  0  0  0  0  0  0
   11.5801   -3.9596   24.1007 O   0  0  0  0  0  0  0  0  0  0  0  0
    9.4706   -2.8971   23.4837 C   0  0  0  0  0  0  0  0  0  0  0  0
    8.7917   -3.6758   24.3129 O   0  0  0  0  0  0  0  0  0  0  0  0
    7.8269   -3.4494   24.1721 H   0  0  0  0  0  0  0  0  0  0  0  0
    8.8574   -1.9323   22.7424 C   0  0  0  0  0  0  0  0  0  0  0  0
    9.4511   -1.2457   22.1479 H   0  0  0  0  0  0  0  0  0  0  0  0
    7.4111   -1.8424   22.6645 C   0  0  0  0  0  0  0  0  0  0  0  0
    6.6747   -2.5903   23.3305 O   0  0  0  0  0  0  0  0  0  0  0  0
    6.7394   -0.8653   21.7310 C   0  0  0  0  0  0  0  0  0  0  0  0
    5.6875   -0.7406   21.9790 H   0  0  0  0  0  0  0  0  0  0  0  0
    7.2900   -0.3125   20.7257 N   0  0  0  0  0  0  0  0  0  0  0  0
    6.5016    0.2896   19.7101 C   0  0  0  0  0  0  0  0  0  0  0  0
    7.0100    0.2417   18.3905 C   0  0  0  0  0  0  0  0  0  0  0  0
    7.9411   -0.2961   18.2335 H   0  0  0  0  0  0  0  0  0  0  0  0
    6.4240    0.8000   17.3290 N   0  0  0  0  0  0  0  0  0  0  0  0
    5.2646    1.4526   17.5364 C   0  0  0  0  0  0  0  0  0  0  0  0
    4.8292    1.9305   16.6620 H   0  0  0  0  0  0  0  0  0  0  0  0
    4.6480    1.5254   18.7874 C   0  0  0  0  0  0  0  0  0  0  0  0
    3.7028    2.0491   18.8788 H   0  0  0  0  0  0  0  0  0  0  0  0
    5.2681    0.9332   19.8974 C   0  0  0  0  0  0  0  0  0  0  0  0
    4.8096    0.9859   20.8843 H   0  0  0  0  0  0  0  0  0  0  0  0
  1  2  1  0
  2  3  1  0
  3  4  2  0
  3  5  1  0
  5  6  1  0
  6  7  1  0
  5  8  2  3
  8  9  1  0
  8 10  1  0
 10 11  2  0
 10 12  1  0
 12 13  1  0
 12 14  2  3
 14 15  1  0
 15 16  2  0
 16 17  1  0
 16 18  1  0
 18 19  2  0
 19 20  1  0
 19 21  1  0
 21 22  1  0
 21 23  2  0
 23 24  1  0
 23 15  1  0
M  END
>  <cnnaffinity>  (1) 
4.26009

>  <plip>  (1) 
-0.07142857142857142

>  <filename>  (1) 
[H][O][C](=[O])[C]([O][H])=[C]([H])[C](=[O])[C]([H])=[N][c]1[c]([H])[n][c]([H])[c]([H])[c]1[H]

>  <combo1>  (1) 
-0.4606634191663077

$$$$
