
     RDKit          3D

 38 40  0  0  0  0  0  0  0  0999 V2000
    7.3636    4.8292   22.6053 Cl  0  0  0  0  0  0  0  0  0  0  0  0
    7.7532    4.0561   24.1234 C   0  0  0  0  0  0  0  0  0  0  0  0
    7.6921    4.8487   25.2741 C   0  0  0  0  0  0  0  0  0  0  0  0
    7.9658    4.2677   26.5159 C   0  0  0  0  0  0  0  0  0  0  0  0
    8.3053    2.9127   26.5989 C   0  0  0  0  0  0  0  0  0  0  0  0
    8.3452    2.1351   25.4401 C   0  0  0  0  0  0  0  0  0  0  0  0
    8.0842    2.6866   24.1724 C   0  0  0  0  0  0  0  0  0  0  0  0
    8.2091    1.8394   22.9229 C   0  0  0  0  0  0  0  0  0  0  0  0
    9.5605    2.0481   22.2208 C   0  0  0  0  0  0  0  0  0  0  0  0
    9.7224    1.2858   20.9084 C   0  0  0  0  0  0  0  0  0  0  0  0
    9.7331   -0.1746   21.0280 N   0  0  0  0  0  0  0  0  0  0  0  0
   10.7940   -1.0136   21.2859 C   0  0  0  0  0  0  0  0  0  0  0  0
   10.3928   -2.2188   21.5516 N   0  0  0  0  0  0  0  0  0  0  0  0
    9.0146   -2.2146   21.4815 N   0  0  0  0  0  0  0  0  0  0  0  0
    8.6544   -1.0076   21.1474 C   0  0  0  0  0  0  0  0  0  0  0  0
    7.3319   -0.6325   21.0359 N   0  0  0  0  0  0  0  0  0  0  0  0
    6.7330    0.0014   19.9036 C   0  0  0  0  0  0  0  0  0  0  0  0
    5.5157    0.6517   20.1287 C   0  0  0  0  0  0  0  0  0  0  0  0
    4.8721    1.2952   19.0649 C   0  0  0  0  0  0  0  0  0  0  0  0
    5.4665    1.2653   17.7980 C   0  0  0  0  0  0  0  0  0  0  0  0
    6.6302    0.6430   17.5510 N   0  0  0  0  0  0  0  0  0  0  0  0
    7.2463    0.0348   18.5821 C   0  0  0  0  0  0  0  0  0  0  0  0
    8.1827   -0.4687   18.3489 H   0  0  0  0  0  0  0  0  0  0  0  0
    4.9834    1.7483   16.9494 H   0  0  0  0  0  0  0  0  0  0  0  0
    3.9260    1.8065   19.2087 H   0  0  0  0  0  0  0  0  0  0  0  0
    5.1174    0.6336   21.1433 H   0  0  0  0  0  0  0  0  0  0  0  0
    6.8019   -1.4119   21.4076 H   0  0  0  0  0  0  0  0  0  0  0  0
   11.8275   -0.6970   21.2175 H   0  0  0  0  0  0  0  0  0  0  0  0
    8.8835    1.5406   20.2537 H   0  0  0  0  0  0  0  0  0  0  0  0
   10.6589    1.6038   20.4312 H   0  0  0  0  0  0  0  0  0  0  0  0
   10.3907    1.8123   22.8951 H   0  0  0  0  0  0  0  0  0  0  0  0
    9.6660    3.1100   21.9702 H   0  0  0  0  0  0  0  0  0  0  0  0
    8.0824    0.7806   23.1814 H   0  0  0  0  0  0  0  0  0  0  0  0
    7.4036    2.0951   22.2168 H   0  0  0  0  0  0  0  0  0  0  0  0
    8.5450    1.0662   25.5257 H   0  0  0  0  0  0  0  0  0  0  0  0
    8.5411    2.4436   27.5495 H   0  0  0  0  0  0  0  0  0  0  0  0
    7.8887    4.8704   27.4165 H   0  0  0  0  0  0  0  0  0  0  0  0
    7.4149    5.8952   25.1811 H   0  0  0  0  0  0  0  0  0  0  0  0
  1  2  1  0
  2  3  2  0
  3  4  1  0
  4  5  2  0
  5  6  1  0
  6  7  2  0
  7  8  1  0
  8  9  1  0
  9 10  1  0
 10 11  1  0
 11 12  1  0
 12 13  2  0
 13 14  1  0
 14 15  2  0
 15 16  1  0
 16 17  1  0
 17 18  2  0
 18 19  1  0
 19 20  2  0
 20 21  1  0
 21 22  2  0
 22 23  1  0
 20 24  1  0
 19 25  1  0
 18 26  1  0
 16 27  1  0
 12 28  1  0
 10 29  1  0
 10 30  1  0
  9 31  1  0
  9 32  1  0
  8 33  1  0
  8 34  1  0
  6 35  1  0
  5 36  1  0
  4 37  1  0
  3 38  1  0
  7  2  1  0
 15 11  1  0
 22 17  1  0
M  END
>  <cnnaffinity>  (1) 
5.50049

>  <plip>  (1) 
-0.10714285714285714

>  <filename>  (1) 
[H][c]1[n][c]([H])[c]([N]([H])[c]2[n][n][c]([H])[n]2[C]([H])([H])[C]([H])([H])[C]([H])([H])[c]2[c]([H])[c]([H])[c]([H])[c]([H])[c]2[Cl])[c]([H])[c]1[H]

>  <combo1>  (1) 
-0.6260391323825069

$$$$
