
     RDKit          3D

 39 43  0  0  0  0  0  0  0  0999 V2000
    4.9634    1.7971   17.0044 H   0  0  0  0  0  0  0  0  0  0  0  0
    5.4261    1.2867   17.8472 C   0  0  0  0  0  0  0  0  0  0  0  0
    6.5855    0.6593   17.5996 N   0  0  0  0  0  0  0  0  0  0  0  0
    7.1748    0.0347   18.6232 C   0  0  0  0  0  0  0  0  0  0  0  0
    8.1207   -0.4591   18.4043 H   0  0  0  0  0  0  0  0  0  0  0  0
    6.6460   -0.0089   19.9252 C   0  0  0  0  0  0  0  0  0  0  0  0
    7.4040   -0.7539   20.9406 C   0  0  0  0  0  0  0  0  0  0  0  0
    8.5077   -1.4192   20.7874 N   0  0  0  0  0  0  0  0  0  0  0  0
    8.8189   -1.9602   22.0273 N   0  0  0  0  0  0  0  0  0  0  0  0
    7.8896   -1.5862   22.8448 C   0  0  0  0  0  0  0  0  0  0  0  0
    7.7880   -1.8853   24.3138 C   0  0  0  0  0  0  0  0  0  0  0  0
    7.2174   -3.2316   24.6893 C   0  0  0  0  0  0  0  0  0  0  0  0
    8.0705   -4.3109   24.8228 C   0  0  0  0  0  0  0  0  0  0  0  0
    9.1394   -4.1645   24.6874 H   0  0  0  0  0  0  0  0  0  0  0  0
    7.5913   -5.6050   25.1486 C   0  0  0  0  0  0  0  0  0  0  0  0
    8.3053   -6.4136   25.2826 H   0  0  0  0  0  0  0  0  0  0  0  0
    6.2440   -5.8361   25.2957 C   0  0  0  0  0  0  0  0  0  0  0  0
    5.8803   -6.8338   25.5341 H   0  0  0  0  0  0  0  0  0  0  0  0
    5.3107   -4.7643   25.1364 C   0  0  0  0  0  0  0  0  0  0  0  0
    3.8967   -4.9830   25.1933 C   0  0  0  0  0  0  0  0  0  0  0  0
    3.5324   -5.9973   25.3303 H   0  0  0  0  0  0  0  0  0  0  0  0
    3.0072   -3.9457   25.0312 C   0  0  0  0  0  0  0  0  0  0  0  0
    1.9359   -4.1330   25.0090 H   0  0  0  0  0  0  0  0  0  0  0  0
    3.4917   -2.6192   24.9123 C   0  0  0  0  0  0  0  0  0  0  0  0
    2.8044   -1.7802   24.8424 H   0  0  0  0  0  0  0  0  0  0  0  0
    4.8446   -2.3731   24.8983 C   0  0  0  0  0  0  0  0  0  0  0  0
    5.1734   -1.3416   24.8348 H   0  0  0  0  0  0  0  0  0  0  0  0
    5.8016   -3.4362   24.8994 C   0  0  0  0  0  0  0  0  0  0  0  0
    8.9294   -1.3540   25.1751 C   0  0  0  0  0  0  0  0  0  0  0  0
    9.2592   -1.9768   26.0067 H   0  0  0  0  0  0  0  0  0  0  0  0
    9.7169   -0.8079   24.6611 H   0  0  0  0  0  0  0  0  0  0  0  0
    7.5777   -0.7257   25.2698 C   0  0  0  0  0  0  0  0  0  0  0  0
    6.9883   -0.9397   26.1599 H   0  0  0  0  0  0  0  0  0  0  0  0
    7.4404    0.2655   24.8423 H   0  0  0  0  0  0  0  0  0  0  0  0
    6.9563   -0.8107   22.2198 O   0  0  0  0  0  0  0  0  0  0  0  0
    5.4285    0.6508   20.1714 C   0  0  0  0  0  0  0  0  0  0  0  0
    4.9755    0.6661   21.1647 H   0  0  0  0  0  0  0  0  0  0  0  0
    4.8123    1.3049   19.1049 C   0  0  0  0  0  0  0  0  0  0  0  0
    3.8765    1.8368   19.2355 H   0  0  0  0  0  0  0  0  0  0  0  0
  1  2  1  0
  2  3  2  0
  3  4  1  0
  4  5  1  0
  4  6  2  0
  6  7  1  0
  7  8  2  0
  8  9  1  0
  9 10  2  0
 10 11  1  0
 11 12  1  0
 12 13  2  0
 13 14  1  0
 13 15  1  0
 15 16  1  0
 15 17  2  0
 17 18  1  0
 17 19  1  0
 19 20  2  0
 20 21  1  0
 20 22  1  0
 22 23  1  0
 22 24  2  0
 24 25  1  0
 24 26  1  0
 26 27  1  0
 26 28  2  0
 11 29  1  0
 29 30  1  0
 29 31  1  0
 29 32  1  0
 32 33  1  0
 32 34  1  0
 10 35  1  0
  6 36  1  0
 36 37  1  0
 36 38  2  0
 38 39  1  0
 38  2  1  0
 35  7  1  0
 32 11  1  0
 28 12  1  0
 28 19  1  0
M  END
>  <cnnaffinity>  (1) 
5.64543

>  <plip>  (1) 
-0.06666666666666667

>  <filename>  (1) 
[H][c]1[n][c]([H])[c](-[c]2[n][n][c]([C]3([c]4[c]([H])[c]([H])[c]([H])[c]5[c]([H])[c]([H])[c]([H])[c]([H])[c]45)[C]([H])([H])[C]3([H])[H])[o]2)[c]([H])[c]1[H]

>  <combo1>  (1) 
-0.4003510339545571

$$$$
