
     RDKit          3D

 36 38  0  0  0  0  0  0  0  0999 V2000
    6.4916   -6.5323   22.6776 C   0  0  0  0  0  0  0  0  0  0  0  0
    5.7022   -6.2529   23.8364 O   0  0  0  0  0  0  0  0  0  0  0  0
    5.5484   -4.9762   24.2252 C   0  0  0  0  0  0  0  0  0  0  0  0
    4.7027   -4.7350   25.3215 C   0  0  0  0  0  0  0  0  0  0  0  0
    4.4783   -3.4086   25.6945 C   0  0  0  0  0  0  0  0  0  0  0  0
    5.0989   -2.3930   24.9658 C   0  0  0  0  0  0  0  0  0  0  0  0
    4.8564   -1.1213   25.3113 F   0  0  0  0  0  0  0  0  0  0  0  0
    5.8955   -2.7660   23.8601 C   0  0  0  0  0  0  0  0  0  0  0  0
    6.4529   -1.8693   22.9579 N   0  0  0  0  0  0  0  0  0  0  0  0
    6.5138   -2.0645   21.5914 C   0  0  0  0  0  0  0  0  0  0  0  0
    6.0691   -3.0050   20.9924 O   0  0  0  0  0  0  0  0  0  0  0  0
    7.2889   -0.8515   21.0157 C   0  0  0  0  0  0  0  0  0  0  0  0
    6.6031   -0.0385   19.9229 C   0  0  0  0  0  0  0  0  0  0  0  0
    5.3924    0.6304   20.1416 C   0  0  0  0  0  0  0  0  0  0  0  0
    4.8089    1.3064   19.0682 C   0  0  0  0  0  0  0  0  0  0  0  0
    5.4601    1.3091   17.8291 C   0  0  0  0  0  0  0  0  0  0  0  0
    6.6295    0.6892   17.6088 N   0  0  0  0  0  0  0  0  0  0  0  0
    7.1761    0.0441   18.6446 C   0  0  0  0  0  0  0  0  0  0  0  0
    8.1287   -0.4483   18.4491 H   0  0  0  0  0  0  0  0  0  0  0  0
    5.0273    1.8335   16.9781 H   0  0  0  0  0  0  0  0  0  0  0  0
    3.8747    1.8457   19.1785 H   0  0  0  0  0  0  0  0  0  0  0  0
    4.9293    0.6412   21.1307 H   0  0  0  0  0  0  0  0  0  0  0  0
    7.5508   -0.0835   22.2179 N   0  0  0  0  0  0  0  0  0  0  0  0
    8.2689    1.1768   22.3010 C   0  0  0  0  0  0  0  0  0  0  0  0
    9.0917    1.0803   23.0197 H   0  0  0  0  0  0  0  0  0  0  0  0
    7.6051    1.9785   22.6509 H   0  0  0  0  0  0  0  0  0  0  0  0
    8.6687    1.4363   21.3156 H   0  0  0  0  0  0  0  0  0  0  0  0
    7.0988   -0.7106   23.3430 C   0  0  0  0  0  0  0  0  0  0  0  0
    7.2702   -0.3552   24.4796 O   0  0  0  0  0  0  0  0  0  0  0  0
    8.2211   -1.2694   20.6080 H   0  0  0  0  0  0  0  0  0  0  0  0
    6.1497   -4.0240   23.5305 N   0  0  0  0  0  0  0  0  0  0  0  0
    3.8271   -3.1264   26.5205 H   0  0  0  0  0  0  0  0  0  0  0  0
    4.2343   -5.5789   25.8105 H   0  0  0  0  0  0  0  0  0  0  0  0
    6.0784   -6.0386   21.7888 H   0  0  0  0  0  0  0  0  0  0  0  0
    7.5258   -6.2020   22.8282 H   0  0  0  0  0  0  0  0  0  0  0  0
    6.4553   -7.6162   22.5588 H   0  0  0  0  0  0  0  0  0  0  0  0
  1  2  1  0
  2  3  1  0
  3  4  2  0
  4  5  1  0
  5  6  2  0
  6  7  1  0
  6  8  1  0
  8  9  1  0
  9 10  1  0
 10 11  2  0
 10 12  1  0
 12 13  1  0
 13 14  2  0
 14 15  1  0
 15 16  2  0
 16 17  1  0
 17 18  2  0
 18 19  1  0
 16 20  1  0
 15 21  1  0
 14 22  1  0
 12 23  1  0
 23 24  1  0
 24 25  1  0
 24 26  1  0
 24 27  1  0
 23 28  1  0
 28 29  2  0
 12 30  1  0
  8 31  2  0
  5 32  1  0
  4 33  1  0
  1 34  1  0
  1 35  1  0
  1 36  1  0
 31  3  1  0
 28  9  1  0
 18 13  1  0
M  END
>  <cnnaffinity>  (1) 
5.0213

>  <plip>  (1) 
-0.07142857142857142

>  <filename>  (1) 
[H][c]1[n][c]([H])[c]([C]2([H])[C](=[O])[N]([c]3[n][c]([O][C]([H])([H])[H])[c]([H])[c]([H])[c]3[F])[C](=[O])[N]2[C]([H])([H])[H])[c]([H])[c]1[H]

>  <combo1>  (1) 
-0.3779885735483728

$$$$
