
     RDKit          3D

 37 38  0  0  0  0  0  0  0  0999 V2000
    9.1108   -2.9491   25.0404 C   0  0  0  0  0  0  0  0  0  0  0  0
    7.8613   -3.7251   24.6481 C   0  0  0  0  0  0  0  0  0  0  0  0
    7.2087   -3.0170   23.5486 N   0  0  0  0  0  0  0  0  0  0  0  0
    7.6033   -3.1023   22.2417 C   0  0  0  0  0  0  0  0  0  0  0  0
    8.7114   -3.4627   21.9172 O   0  0  0  0  0  0  0  0  0  0  0  0
    6.7233   -2.5414   21.1997 C   0  0  0  0  0  0  0  0  0  0  0  0
    7.5120   -0.9777   21.2546 S   0  0  0  0  0  0  0  0  0  0  0  0
    7.3403   -0.4076   22.5969 O   0  0  0  0  0  0  0  0  0  0  0  0
    8.9135   -1.1440   20.8504 O   0  0  0  0  0  0  0  0  0  0  0  0
    6.6022   -0.0731   20.0126 C   0  0  0  0  0  0  0  0  0  0  0  0
    5.3971    0.6009   20.2314 C   0  0  0  0  0  0  0  0  0  0  0  0
    4.8457    1.2575   19.1386 C   0  0  0  0  0  0  0  0  0  0  0  0
    5.4922    1.2136   17.9030 C   0  0  0  0  0  0  0  0  0  0  0  0
    6.6502    0.5519   17.7269 N   0  0  0  0  0  0  0  0  0  0  0  0
    7.2053   -0.0671   18.7687 C   0  0  0  0  0  0  0  0  0  0  0  0
    8.1502   -0.5755   18.5979 H   0  0  0  0  0  0  0  0  0  0  0  0
    5.0543    1.7643   17.0730 H   0  0  0  0  0  0  0  0  0  0  0  0
    3.9205    1.8174   19.2295 H   0  0  0  0  0  0  0  0  0  0  0  0
    4.8879    0.6431   21.1986 H   0  0  0  0  0  0  0  0  0  0  0  0
    6.8447   -3.0213   20.2310 H   0  0  0  0  0  0  0  0  0  0  0  0
    5.6850   -2.4793   21.5079 H   0  0  0  0  0  0  0  0  0  0  0  0
    6.3420   -2.5284   23.7298 H   0  0  0  0  0  0  0  0  0  0  0  0
    6.9557   -3.8984   25.8640 C   0  0  0  0  0  0  0  0  0  0  0  0
    6.3742   -2.7840   26.4924 C   0  0  0  0  0  0  0  0  0  0  0  0
    5.5671   -2.9341   27.6288 C   0  0  0  0  0  0  0  0  0  0  0  0
    5.3304   -4.2016   28.1655 C   0  0  0  0  0  0  0  0  0  0  0  0
    4.2213   -4.3959   29.7142 Br  0  0  0  0  0  0  0  0  0  0  0  0
    5.9260   -5.3183   27.5736 C   0  0  0  0  0  0  0  0  0  0  0  0
    6.7343   -5.1701   26.4342 C   0  0  0  0  0  0  0  0  0  0  0  0
    7.1953   -6.0569   26.0091 H   0  0  0  0  0  0  0  0  0  0  0  0
    5.7556   -6.2968   28.0153 H   0  0  0  0  0  0  0  0  0  0  0  0
    5.1247   -2.0658   28.1078 H   0  0  0  0  0  0  0  0  0  0  0  0
    6.5642   -1.7929   26.0954 H   0  0  0  0  0  0  0  0  0  0  0  0
    8.1490   -4.7183   24.2886 H   0  0  0  0  0  0  0  0  0  0  0  0
    8.8439   -1.9202   25.2998 H   0  0  0  0  0  0  0  0  0  0  0  0
    9.8187   -2.9313   24.2073 H   0  0  0  0  0  0  0  0  0  0  0  0
    9.5970   -3.4141   25.9024 H   0  0  0  0  0  0  0  0  0  0  0  0
  1  2  1  0
  2  3  1  0
  3  4  1  0
  4  5  2  0
  4  6  1  0
  6  7  1  0
  7  8  2  0
  7  9  2  0
  7 10  1  0
 10 11  2  0
 11 12  1  0
 12 13  2  0
 13 14  1  0
 14 15  2  0
 15 16  1  0
 13 17  1  0
 12 18  1  0
 11 19  1  0
  6 20  1  0
  6 21  1  0
  3 22  1  0
  2 23  1  0
 23 24  2  0
 24 25  1  0
 25 26  2  0
 26 27  1  0
 26 28  1  0
 28 29  2  0
 29 30  1  0
 28 31  1  0
 25 32  1  0
 24 33  1  0
  2 34  1  0
  1 35  1  0
  1 36  1  0
  1 37  1  0
 15 10  1  0
 29 23  1  0
M  END
>  <cnnaffinity>  (1) 
5.0745

>  <plip>  (1) 
-0.034482758620689655

>  <filename>  (1) 
[H][c]1[n][c]([H])[c]([S](=[O])(=[O])[C]([H])([H])[C](=[O])[N]([H])[C]([H])([c]2[c]([H])[c]([H])[c]([Br])[c]([H])[c]2[H])[C]([H])([H])[H])[c]([H])[c]1[H]

>  <combo1>  (1) 
-0.15218525520563092

$$$$
