
     RDKit          3D

 35 39  0  0  0  0  0  0  0  0999 V2000
    4.9896    1.8160   16.9974 H   0  0  0  0  0  0  0  0  0  0  0  0
    5.4369    1.2922   17.8379 C   0  0  0  0  0  0  0  0  0  0  0  0
    6.5910    0.6575   17.5830 N   0  0  0  0  0  0  0  0  0  0  0  0
    7.1622    0.0015   18.5934 C   0  0  0  0  0  0  0  0  0  0  0  0
    8.1093   -0.4983   18.3956 H   0  0  0  0  0  0  0  0  0  0  0  0
    6.6147   -0.0581   19.8796 C   0  0  0  0  0  0  0  0  0  0  0  0
    7.3641   -0.7837   20.8939 C   0  0  0  0  0  0  0  0  0  0  0  0
    8.4623   -1.4572   20.7687 N   0  0  0  0  0  0  0  0  0  0  0  0
    8.7970   -1.8907   22.0446 N   0  0  0  0  0  0  0  0  0  0  0  0
    7.8852   -1.4363   22.8344 C   0  0  0  0  0  0  0  0  0  0  0  0
    7.7846   -1.6231   24.2847 C   0  0  0  0  0  0  0  0  0  0  0  0
    7.0420   -2.8796   24.5313 C   0  0  0  0  0  0  0  0  0  0  0  0
    5.7719   -3.0720   24.4570 N   0  0  0  0  0  0  0  0  0  0  0  0
    5.5954   -4.3711   24.9491 C   0  0  0  0  0  0  0  0  0  0  0  0
    4.4436   -5.1057   25.2700 C   0  0  0  0  0  0  0  0  0  0  0  0
    3.4700   -4.6699   25.0697 H   0  0  0  0  0  0  0  0  0  0  0  0
    4.6067   -6.3302   25.9235 C   0  0  0  0  0  0  0  0  0  0  0  0
    3.7330   -6.8850   26.2504 H   0  0  0  0  0  0  0  0  0  0  0  0
    5.8869   -6.8146   26.2541 C   0  0  0  0  0  0  0  0  0  0  0  0
    5.9748   -7.7451   26.8023 H   0  0  0  0  0  0  0  0  0  0  0  0
    7.0426   -6.1072   25.9156 C   0  0  0  0  0  0  0  0  0  0  0  0
    8.0388   -6.4533   26.1547 H   0  0  0  0  0  0  0  0  0  0  0  0
    6.8495   -4.8993   25.2565 C   0  0  0  0  0  0  0  0  0  0  0  0
    7.7805   -3.9549   24.9432 O   0  0  0  0  0  0  0  0  0  0  0  0
    7.6627   -0.4657   25.2751 C   0  0  0  0  0  0  0  0  0  0  0  0
    7.0133   -0.6428   26.1304 H   0  0  0  0  0  0  0  0  0  0  0  0
    7.6419    0.5556   24.8980 H   0  0  0  0  0  0  0  0  0  0  0  0
    8.9363   -1.2334   25.1881 C   0  0  0  0  0  0  0  0  0  0  0  0
    9.7923   -0.7564   24.7165 H   0  0  0  0  0  0  0  0  0  0  0  0
    9.1758   -1.9425   25.9766 H   0  0  0  0  0  0  0  0  0  0  0  0
    6.9272   -0.7495   22.1763 O   0  0  0  0  0  0  0  0  0  0  0  0
    5.4161    0.6189   20.1473 C   0  0  0  0  0  0  0  0  0  0  0  0
    4.9902    0.6255   21.1523 H   0  0  0  0  0  0  0  0  0  0  0  0
    4.8152    1.3003   19.0927 C   0  0  0  0  0  0  0  0  0  0  0  0
    3.8927    1.8514   19.2316 H   0  0  0  0  0  0  0  0  0  0  0  0
  1  2  1  0
  2  3  2  0
  3  4  1  0
  4  5  1  0
  4  6  2  0
  6  7  1  0
  7  8  2  0
  8  9  1  0
  9 10  2  0
 10 11  1  0
 11 12  1  0
 12 13  2  0
 13 14  1  0
 14 15  2  0
 15 16  1  0
 15 17  1  0
 17 18  1  0
 17 19  2  0
 19 20  1  0
 19 21  1  0
 21 22  1  0
 21 23  2  0
 23 24  1  0
 11 25  1  0
 25 26  1  0
 25 27  1  0
 25 28  1  0
 28 29  1  0
 28 30  1  0
 10 31  1  0
  6 32  1  0
 32 33  1  0
 32 34  2  0
 34 35  1  0
 34  2  1  0
 31  7  1  0
 28 11  1  0
 24 12  1  0
 23 14  1  0
M  END
>  <cnnaffinity>  (1) 
5.69042

>  <plip>  (1) 
-0.06896551724137931

>  <filename>  (1) 
[H][c]1[n][c]([H])[c](-[c]2[n][n][c]([C]3([c]4[n][c]5[c]([H])[c]([H])[c]([H])[c]([H])[c]5[o]4)[C]([H])([H])[C]3([H])[H])[o]2)[c]([H])[c]1[H]

>  <combo1>  (1) 
-0.4298730989670473

$$$$
