
     RDKit          3D

 37 39  0  0  0  0  0  0  0  0999 V2000
    9.8865    1.1946   21.0633 C   0  0  0  0  0  0  0  0  0  0  0  0
    8.5820    1.4681   21.7938 C   0  0  0  0  0  0  0  0  0  0  0  0
    7.9078    0.2604   22.2920 N   0  0  0  0  0  0  0  0  0  0  0  0
    7.3579   -0.6795   21.2979 C   0  0  0  0  0  0  0  0  0  0  0  0
    6.6422   -0.0124   20.1486 C   0  0  0  0  0  0  0  0  0  0  0  0
    5.4175    0.6548   20.2805 C   0  0  0  0  0  0  0  0  0  0  0  0
    4.8749    1.2796   19.1532 C   0  0  0  0  0  0  0  0  0  0  0  0
    5.5648    1.2186   17.9385 C   0  0  0  0  0  0  0  0  0  0  0  0
    6.7250    0.5665   17.7868 N   0  0  0  0  0  0  0  0  0  0  0  0
    7.2329   -0.0249   18.8754 C   0  0  0  0  0  0  0  0  0  0  0  0
    8.1721   -0.5595   18.7291 H   0  0  0  0  0  0  0  0  0  0  0  0
    5.1645    1.6959   17.0449 H   0  0  0  0  0  0  0  0  0  0  0  0
    3.9361    1.8164   19.2047 H   0  0  0  0  0  0  0  0  0  0  0  0
    4.8966    0.7004   21.2407 H   0  0  0  0  0  0  0  0  0  0  0  0
    6.6758   -1.3624   21.8165 H   0  0  0  0  0  0  0  0  0  0  0  0
    8.1584   -1.3164   20.8743 H   0  0  0  0  0  0  0  0  0  0  0  0
    8.4267   -0.2834   23.4785 C   0  0  0  0  0  0  0  0  0  0  0  0
    9.5749   -0.1002   23.8442 O   0  0  0  0  0  0  0  0  0  0  0  0
    7.4849   -1.0938   24.3239 C   0  0  0  0  0  0  0  0  0  0  0  0
    7.8088   -2.0817   25.2214 C   0  0  0  0  0  0  0  0  0  0  0  0
    6.6011   -2.5730   25.7989 C   0  0  0  0  0  0  0  0  0  0  0  0
    6.2508   -3.5645   26.7338 C   0  0  0  0  0  0  0  0  0  0  0  0
    4.8895   -3.7379   26.9887 C   0  0  0  0  0  0  0  0  0  0  0  0
    3.9440   -2.8796   26.3764 C   0  0  0  0  0  0  0  0  0  0  0  0
    4.2385   -1.9051   25.5087 N   0  0  0  0  0  0  0  0  0  0  0  0
    5.5378   -1.8090   25.2429 C   0  0  0  0  0  0  0  0  0  0  0  0
    6.0945   -0.9316   24.3575 N   0  0  0  0  0  0  0  0  0  0  0  0
    5.4876   -0.3295   23.8319 H   0  0  0  0  0  0  0  0  0  0  0  0
    2.8897   -2.9931   26.6229 H   0  0  0  0  0  0  0  0  0  0  0  0
    4.5396   -4.5207   27.6531 H   0  0  0  0  0  0  0  0  0  0  0  0
    7.0197   -4.1506   27.2471 H   0  0  0  0  0  0  0  0  0  0  0  0
    8.8069   -2.4206   25.4866 H   0  0  0  0  0  0  0  0  0  0  0  0
    8.7503    2.1247   22.6546 H   0  0  0  0  0  0  0  0  0  0  0  0
    7.8765    1.9854   21.1311 H   0  0  0  0  0  0  0  0  0  0  0  0
   10.3552    2.1394   20.7737 H   0  0  0  0  0  0  0  0  0  0  0  0
   10.5796    0.6432   21.7000 H   0  0  0  0  0  0  0  0  0  0  0  0
    9.6972    0.6099   20.1598 H   0  0  0  0  0  0  0  0  0  0  0  0
  1  2  1  0
  2  3  1  0
  3  4  1  0
  4  5  1  0
  5  6  2  0
  6  7  1  0
  7  8  2  0
  8  9  1  0
  9 10  2  0
 10 11  1  0
  8 12  1  0
  7 13  1  0
  6 14  1  0
  4 15  1  0
  4 16  1  0
  3 17  1  0
 17 18  2  0
 17 19  1  0
 19 20  2  0
 20 21  1  0
 21 22  2  0
 22 23  1  0
 23 24  2  0
 24 25  1  0
 25 26  2  0
 26 27  1  0
 27 28  1  0
 24 29  1  0
 23 30  1  0
 22 31  1  0
 20 32  1  0
  2 33  1  0
  2 34  1  0
  1 35  1  0
  1 36  1  0
  1 37  1  0
 10  5  1  0
 27 19  1  0
 26 21  1  0
M  END
>  <cnnaffinity>  (1) 
4.8149

>  <plip>  (1) 
-0.07142857142857142

>  <filename>  (1) 
[H][c]1[n][c]([H])[c]([C]([H])([H])[N]([C](=[O])[c]2[c]([H])[c]3[c]([H])[c]([H])[c]([H])[n][c]3[n]2[H])[C]([H])([H])[C]([H])([H])[H])[c]([H])[c]1[H]

>  <combo1>  (1) 
-0.4089468385247307

$$$$
