
     RDKit          3D

 48 51  0  0  0  0  0  0  0  0999 V2000
    2.1533   -6.8438   24.0750 F   0  0  0  0  0  0  0  0  0  0  0  0
    1.5941   -5.6296   24.2551 C   0  0  0  0  0  0  0  0  0  0  0  0
    0.2265   -5.5928   24.4977 C   0  0  0  0  0  0  0  0  0  0  0  0
   -0.3775   -4.3660   24.7777 C   0  0  0  0  0  0  0  0  0  0  0  0
    0.3937   -3.2019   24.8412 C   0  0  0  0  0  0  0  0  0  0  0  0
    1.7515   -3.2773   24.5361 C   0  0  0  0  0  0  0  0  0  0  0  0
    2.4709   -2.1519   24.6201 F   0  0  0  0  0  0  0  0  0  0  0  0
    2.3921   -4.4774   24.1573 C   0  0  0  0  0  0  0  0  0  0  0  0
    3.7591   -4.5397   23.6266 C   0  0  0  0  0  0  0  0  0  0  0  0
    4.6768   -5.5483   23.5814 C   0  0  0  0  0  0  0  0  0  0  0  0
    5.7350   -5.0910   22.7433 C   0  0  0  0  0  0  0  0  0  0  0  0
    5.4052   -3.8322   22.3374 C   0  0  0  0  0  0  0  0  0  0  0  0
    5.9967   -2.8965   21.3220 C   0  0  0  0  0  0  0  0  0  0  0  0
    6.5996   -1.6367   21.8829 N   0  0  0  0  0  4  0  0  0  0  0  0
    7.4596   -0.7732   20.9628 C   0  0  0  0  0  0  0  0  0  0  0  0
    6.6349   -0.0752   19.8964 C   0  0  0  0  0  0  0  0  0  0  0  0
    5.4207    0.5887   20.1318 C   0  0  0  0  0  0  0  0  0  0  0  0
    4.8110    1.2809   19.0810 C   0  0  0  0  0  0  0  0  0  0  0  0
    5.4176    1.2782   17.8225 C   0  0  0  0  0  0  0  0  0  0  0  0
    6.5573    0.6216   17.5629 N   0  0  0  0  0  0  0  0  0  0  0  0
    7.1311   -0.0334   18.5800 C   0  0  0  0  0  0  0  0  0  0  0  0
    8.0544   -0.5554   18.3232 H   0  0  0  0  0  0  0  0  0  0  0  0
    4.9687    1.8190   16.9891 H   0  0  0  0  0  0  0  0  0  0  0  0
    3.8903    1.8342   19.2245 H   0  0  0  0  0  0  0  0  0  0  0  0
    4.9605    0.5884   21.1229 H   0  0  0  0  0  0  0  0  0  0  0  0
    8.2935    0.1444   21.8786 C   0  0  0  0  0  0  0  0  0  0  0  0
    7.5865    1.2216   22.7315 C   0  0  0  0  0  0  0  0  0  0  0  0
    8.7171    2.2223   23.0422 C   0  0  0  0  0  0  0  0  0  0  0  0
    9.7859    1.9194   22.1536 O   0  0  0  0  0  0  0  0  0  0  0  0
    9.3259    1.0148   21.1671 C   0  0  0  0  0  0  0  0  0  0  0  0
   10.1951    0.4645   20.7927 H   0  0  0  0  0  0  0  0  0  0  0  0
    8.8532    1.5675   20.3395 H   0  0  0  0  0  0  0  0  0  0  0  0
    8.3898    3.2636   22.9028 H   0  0  0  0  0  0  0  0  0  0  0  0
    9.0960    2.1235   24.0665 H   0  0  0  0  0  0  0  0  0  0  0  0
    7.1200    0.8284   23.6409 H   0  0  0  0  0  0  0  0  0  0  0  0
    6.8058    1.7174   22.1425 H   0  0  0  0  0  0  0  0  0  0  0  0
    8.8448   -0.5278   22.5489 H   0  0  0  0  0  0  0  0  0  0  0  0
    8.1557   -1.4360   20.4313 H   0  0  0  0  0  0  0  0  0  0  0  0
    5.8048   -1.0116   22.1792 H   0  0  0  0  0  0  0  0  0  0  0  0
    7.1621   -1.8750   22.7360 H   0  0  0  0  0  0  0  0  0  0  0  0
    6.7517   -3.4436   20.7500 H   0  0  0  0  0  0  0  0  0  0  0  0
    5.2026   -2.6444   20.6135 H   0  0  0  0  0  0  0  0  0  0  0  0
    4.2059   -3.4954   22.8814 O   0  0  0  0  0  0  0  0  0  0  0  0
    6.6124   -5.6438   22.4416 H   0  0  0  0  0  0  0  0  0  0  0  0
    4.5860   -6.4990   24.0831 H   0  0  0  0  0  0  0  0  0  0  0  0
   -0.0375   -2.2416   25.0979 H   0  0  0  0  0  0  0  0  0  0  0  0
   -1.4448   -4.3361   24.9816 H   0  0  0  0  0  0  0  0  0  0  0  0
   -0.3304   -6.5202   24.4518 H   0  0  0  0  0  0  0  0  0  0  0  0
  1  2  1  0
  2  3  2  0
  3  4  1  0
  4  5  2  0
  5  6  1  0
  6  7  1  0
  6  8  2  0
  8  9  1  0
  9 10  2  0
 10 11  1  0
 11 12  2  0
 12 13  1  0
 13 14  1  0
 14 15  1  0
 15 16  1  0
 16 17  2  0
 17 18  1  0
 18 19  2  0
 19 20  1  0
 20 21  2  0
 21 22  1  0
 19 23  1  0
 18 24  1  0
 17 25  1  0
 15 26  1  0
 26 27  1  0
 27 28  1  0
 28 29  1  0
 29 30  1  0
 30 31  1  0
 30 32  1  0
 28 33  1  0
 28 34  1  0
 27 35  1  0
 27 36  1  0
 26 37  1  0
 15 38  1  0
 14 39  1  0
 14 40  1  0
 13 41  1  0
 13 42  1  0
 12 43  1  0
 11 44  1  0
 10 45  1  0
  5 46  1  0
  4 47  1  0
  3 48  1  0
  8  2  1  0
 43  9  1  0
 21 16  1  0
 30 26  1  0
M  CHG  1  14   1
M  END
>  <cnnaffinity>  (1) 
5.5398

>  <plip>  (1) 
-0.14285714285714285

>  <filename>  (1) 
[H][c]1[n][c]([H])[c]([C]([H])([C]2([H])[C]([H])([H])[O][C]([H])([H])[C]2([H])[H])[N+]([H])([H])[C]([H])([H])[c]2[o][c](-[c]3[c]([F])[c]([H])[c]([H])[c]([H])[c]3[F])[c]([H])[c]2[H])[c]([H])[c]1[H]

>  <combo1>  (1) 
-0.7102720196442183

$$$$
