
     RDKit          3D

 28 30  0  0  0  0  0  0  0  0999 V2000
    7.1324    0.0164   21.2360 H   0  0  0  0  0  0  0  0  0  0  0  0
    6.7020   -0.5653   20.4315 C   0  0  0  0  0  0  0  0  0  0  0  0
    6.7528   -1.9438   20.4911 C   0  0  0  0  0  0  0  0  0  0  0  0
    5.7214   -2.9713   19.2369 Br  0  0  0  0  0  0  0  0  0  0  0  0
    7.5479   -2.6340   21.5295 C   0  0  0  0  0  0  0  0  0  0  0  0
    7.4573   -3.9888   21.7745 C   0  0  0  0  0  0  0  0  0  0  0  0
    6.8170   -4.6623   21.2147 H   0  0  0  0  0  0  0  0  0  0  0  0
    8.4626   -4.5357   23.1153 S   0  0  0  0  0  0  0  0  0  0  0  0
    9.0683   -2.9031   23.3429 C   0  0  0  0  0  0  0  0  0  0  0  0
    9.9963   -2.4862   24.3090 C   0  0  0  0  0  0  0  0  0  0  0  0
   10.3941   -3.1810   25.0454 H   0  0  0  0  0  0  0  0  0  0  0  0
   10.4533   -1.1641   24.2900 C   0  0  0  0  0  0  0  0  0  0  0  0
   11.2033   -0.8280   24.9997 H   0  0  0  0  0  0  0  0  0  0  0  0
   10.0029   -0.2785   23.3069 C   0  0  0  0  0  0  0  0  0  0  0  0
   10.4033    0.7291   23.2540 H   0  0  0  0  0  0  0  0  0  0  0  0
    9.0418   -0.6860   22.3776 C   0  0  0  0  0  0  0  0  0  0  0  0
    8.7269    0.0317   21.6313 H   0  0  0  0  0  0  0  0  0  0  0  0
    8.5457   -2.0025   22.4083 C   0  0  0  0  0  0  0  0  0  0  0  0
    6.1042    0.1920   19.3320 C   0  0  0  0  0  0  0  0  0  0  0  0
    6.6662    0.1489   18.0417 C   0  0  0  0  0  0  0  0  0  0  0  0
    7.5006   -0.5200   17.8527 H   0  0  0  0  0  0  0  0  0  0  0  0
    6.2522    0.9424   17.0368 N   0  0  0  0  0  0  0  0  0  0  0  0
    5.2348    1.7859   17.2793 C   0  0  0  0  0  0  0  0  0  0  0  0
    4.9045    2.4495   16.4863 H   0  0  0  0  0  0  0  0  0  0  0  0
    4.5856    1.8378   18.5149 C   0  0  0  0  0  0  0  0  0  0  0  0
    3.7567    2.5221   18.6300 H   0  0  0  0  0  0  0  0  0  0  0  0
    5.0321    1.0471   19.5718 C   0  0  0  0  0  0  0  0  0  0  0  0
    4.5611    1.1002   20.5532 H   0  0  0  0  0  0  0  0  0  0  0  0
  1  2  1  0
  2  3  2  3
  3  4  1  0
  3  5  1  0
  5  6  2  0
  6  7  1  0
  6  8  1  0
  8  9  1  0
  9 10  2  0
 10 11  1  0
 10 12  1  0
 12 13  1  0
 12 14  2  0
 14 15  1  0
 14 16  1  0
 16 17  1  0
 16 18  2  0
  2 19  1  0
 19 20  2  0
 20 21  1  0
 20 22  1  0
 22 23  2  0
 23 24  1  0
 23 25  1  0
 25 26  1  0
 25 27  2  0
 27 28  1  0
 18  5  1  0
 27 19  1  0
 18  9  1  0
M  END
>  <cnnaffinity>  (1) 
4.97102

>  <plip>  (1) 
-0.06896551724137931

>  <filename>  (1) 
[H][C](=[C]([Br])[c]1[c]([H])[s][c]2[c]([H])[c]([H])[c]([H])[c]([H])[c]12)[c]1[c]([H])[n][c]([H])[c]([H])[c]1[H]

>  <combo1>  (1) 
-0.36137890614876356

$$$$
