
     RDKit          3D

 36 38  0  0  0  0  0  0  0  0999 V2000
    6.8978   -3.5899   22.9165 H   0  0  0  0  0  0  0  0  0  0  0  0
    7.2316   -2.5817   22.6721 C   0  0  0  0  0  0  0  0  0  0  0  0
    8.1029   -1.9612   23.4789 C   0  0  0  0  0  0  0  0  0  0  0  0
    8.5665   -2.6540   24.7575 C   0  0  1  0  0  0  0  0  0  0  0  0
    8.9056   -3.6610   24.4737 H   0  0  0  0  0  0  0  0  0  0  0  0
    9.6757   -2.0022   25.3507 O   0  0  0  0  0  0  0  0  0  0  0  0
    9.3918   -1.5809   26.6804 C   0  0  0  0  0  0  0  0  0  0  0  0
    9.8760   -0.6072   26.8308 H   0  0  0  0  0  0  0  0  0  0  0  0
    9.8570   -2.2873   27.3869 H   0  0  0  0  0  0  0  0  0  0  0  0
    7.8702   -1.5809   26.8107 C   0  0  0  0  0  0  0  0  0  0  0  0
    7.4251   -0.6298   26.4978 H   0  0  0  0  0  0  0  0  0  0  0  0
    7.5494   -1.7465   27.8404 H   0  0  0  0  0  0  0  0  0  0  0  0
    7.4918   -2.7240   25.8629 C   0  0  0  0  0  0  0  0  0  0  0  0
    6.4767   -2.6625   25.4605 H   0  0  0  0  0  0  0  0  0  0  0  0
    7.5896   -3.6774   26.3902 H   0  0  0  0  0  0  0  0  0  0  0  0
    8.6266   -0.5713   23.1697 C   0  0  0  0  0  0  0  0  0  0  0  0
    9.6502   -0.6722   22.7843 H   0  0  0  0  0  0  0  0  0  0  0  0
    8.7170   -0.0166   24.1119 H   0  0  0  0  0  0  0  0  0  0  0  0
    7.7544    0.1787   22.1490 C   0  0  0  0  0  0  0  0  0  0  0  0
    8.2650    1.0865   21.8082 H   0  0  0  0  0  0  0  0  0  0  0  0
    6.8288    0.5037   22.6440 H   0  0  0  0  0  0  0  0  0  0  0  0
    7.4050   -0.7165   20.9396 C   0  0  2  0  0  0  0  0  0  0  0  0
    8.3589   -1.0729   20.5238 H   0  0  0  0  0  0  0  0  0  0  0  0
    6.6553    0.0201   19.8345 C   0  0  0  0  0  0  0  0  0  0  0  0
    7.1501    0.0740   18.5167 C   0  0  0  0  0  0  0  0  0  0  0  0
    8.0968   -0.4127   18.2720 H   0  0  0  0  0  0  0  0  0  0  0  0
    6.5431    0.7002   17.4993 N   0  0  0  0  0  0  0  0  0  0  0  0
    5.3880    1.3271   17.7673 C   0  0  0  0  0  0  0  0  0  0  0  0
    4.9198    1.8514   16.9382 H   0  0  0  0  0  0  0  0  0  0  0  0
    4.7902    1.3335   19.0295 C   0  0  0  0  0  0  0  0  0  0  0  0
    3.8534    1.8576   19.1850 H   0  0  0  0  0  0  0  0  0  0  0  0
    5.4365    0.6740   20.0770 C   0  0  0  0  0  0  0  0  0  0  0  0
    5.0035    0.6829   21.0786 H   0  0  0  0  0  0  0  0  0  0  0  0
    6.6330   -1.9593   21.4352 C   0  0  0  0  0  0  0  0  0  0  0  0
    6.5535   -2.7085   20.6397 H   0  0  0  0  0  0  0  0  0  0  0  0
    5.5985   -1.6775   21.6650 H   0  0  0  0  0  0  0  0  0  0  0  0
  1  2  1  0
  2  3  2  0
  3  4  1  0
  4  5  1  6
  4  6  1  0
  6  7  1  0
  7  8  1  0
  7  9  1  0
  7 10  1  0
 10 11  1  0
 10 12  1  0
 10 13  1  0
 13 14  1  0
 13 15  1  0
  3 16  1  0
 16 17  1  0
 16 18  1  0
 16 19  1  0
 19 20  1  0
 19 21  1  0
 19 22  1  0
 22 23  1  6
 22 24  1  0
 24 25  2  0
 25 26  1  0
 25 27  1  0
 27 28  2  0
 28 29  1  0
 28 30  1  0
 30 31  1  0
 30 32  2  0
 32 33  1  0
 22 34  1  0
 34 35  1  0
 34 36  1  0
 34  2  1  0
 13  4  1  0
 32 24  1  0
M  END
>  <cnnaffinity>  (1) 
4.77493

>  <plip>  (1) 
-0.03571428571428571

>  <filename>  (1) 
[H][C]1=[C]([C@@]2([H])[O][C]([H])([H])[C]([H])([H])[C]2([H])[H])[C]([H])([H])[C]([H])([H])[C@]([H])([c]2[c]([H])[n][c]([H])[c]([H])[c]2[H])[C]1([H])[H]

>  <combo1>  (1) 
-0.24787921299610055

$$$$
