
     RDKit          3D

 32 34  0  0  0  0  0  0  0  0999 V2000
    4.9309    1.8295   16.9750 H   0  0  0  0  0  0  0  0  0  0  0  0
    5.4162    1.3208   17.8036 C   0  0  0  0  0  0  0  0  0  0  0  0
    6.5753    0.7057   17.5221 N   0  0  0  0  0  0  0  0  0  0  0  0
    7.1960    0.0706   18.5237 C   0  0  0  0  0  0  0  0  0  0  0  0
    8.1396   -0.4220   18.2894 H   0  0  0  0  0  0  0  0  0  0  0  0
    6.6891   -0.0040   19.8414 C   0  0  0  0  0  0  0  0  0  0  0  0
    7.3972   -0.7228   20.8647 N   0  0  0  0  0  0  0  0  0  0  0  0
    8.7371   -0.6121   21.2632 C   0  0  0  0  0  0  0  0  0  0  0  0
    9.5926    0.2316   20.5967 N   0  0  0  0  0  0  0  0  0  0  0  0
    9.0943    1.0784   20.3598 H   0  0  0  0  0  0  0  0  0  0  0  0
   10.9102    0.4797   21.1914 C   0  0  0  0  0  0  0  0  0  0  0  0
   11.4838    1.1897   20.5894 H   0  0  0  0  0  0  0  0  0  0  0  0
   11.4847   -0.4549   21.2094 H   0  0  0  0  0  0  0  0  0  0  0  0
   10.8944    1.1154   22.5541 C   0  0  0  0  0  0  0  0  0  0  0  0
   11.4585    0.4720   23.6506 C   0  0  0  0  0  0  0  0  0  0  0  0
   11.9706   -0.4727   23.5178 H   0  0  0  0  0  0  0  0  0  0  0  0
   11.3964    1.0808   24.9029 C   0  0  0  0  0  0  0  0  0  0  0  0
   11.8099    0.5753   25.7691 H   0  0  0  0  0  0  0  0  0  0  0  0
   10.8590    2.2848   25.0990 N   0  0  0  0  0  0  0  0  0  0  0  0
   10.3770    2.9361   24.0366 C   0  0  0  0  0  0  0  0  0  0  0  0
    9.9992    3.9444   24.2059 H   0  0  0  0  0  0  0  0  0  0  0  0
   10.3676    2.4002   22.7517 C   0  0  0  0  0  0  0  0  0  0  0  0
    9.9875    2.9994   21.9300 H   0  0  0  0  0  0  0  0  0  0  0  0
    8.9200   -1.4275   22.3123 C   0  0  0  0  0  0  0  0  0  0  0  0
    9.7810   -1.5950   22.9344 H   0  0  0  0  0  0  0  0  0  0  0  0
    7.7325   -2.0813   22.5922 O   0  0  0  0  0  0  0  0  0  0  0  0
    6.8042   -1.7062   21.6643 C   0  0  0  0  0  0  0  0  0  0  0  0
    5.7138   -2.2051   21.5667 O   0  0  0  0  0  0  0  0  0  0  0  0
    5.4690    0.6312   20.1172 C   0  0  0  0  0  0  0  0  0  0  0  0
    5.0380    0.5875   21.1193 H   0  0  0  0  0  0  0  0  0  0  0  0
    4.8320    1.3133   19.0749 C   0  0  0  0  0  0  0  0  0  0  0  0
    3.8939    1.8322   19.2311 H   0  0  0  0  0  0  0  0  0  0  0  0
  1  2  1  0
  2  3  2  0
  3  4  1  0
  4  5  1  0
  4  6  2  0
  6  7  1  0
  7  8  1  0
  8  9  1  0
  9 10  1  0
  9 11  1  0
 11 12  1  0
 11 13  1  0
 11 14  1  0
 14 15  2  0
 15 16  1  0
 15 17  1  0
 17 18  1  0
 17 19  2  0
 19 20  1  0
 20 21  1  0
 20 22  2  0
 22 23  1  0
  8 24  2  0
 24 25  1  0
 24 26  1  0
 26 27  1  0
 27 28  2  0
  6 29  1  0
 29 30  1  0
 29 31  2  0
 31 32  1  0
 31  2  1  0
 27  7  1  0
 22 14  1  0
M  END
>  <cnnaffinity>  (1) 
4.91149

>  <plip>  (1) 
-0.10714285714285714

>  <filename>  (1) 
[H][c]1[n][c]([H])[c](-[n]2[c]([N]([H])[C]([H])([H])[c]3[c]([H])[c]([H])[n][c]([H])[c]3[H])[c]([H])[o][c]2=[O])[c]([H])[c]1[H]

>  <combo1>  (1) 
-0.6538428973999059

$$$$
