
     RDKit          3D

 35 36  0  0  0  0  0  0  0  0999 V2000
    9.3444   -2.0326   25.3020 O   0  0  0  0  0  0  0  0  0  0  0  0
    8.9377   -0.9343   24.9750 C   0  0  0  0  0  0  0  0  0  0  0  0
    9.2923    0.3325   25.7291 C   0  0  0  0  0  0  0  0  0  0  0  0
   10.3989    1.0270   24.9744 C   0  0  0  0  0  0  0  0  0  0  0  0
   11.6978    0.5067   25.0456 C   0  0  0  0  0  0  0  0  0  0  0  0
   12.7493    1.1427   24.3851 C   0  0  0  0  0  0  0  0  0  0  0  0
   12.4937    2.2698   23.5958 C   0  0  0  0  0  0  0  0  0  0  0  0
   13.7931    3.1290   22.8466 Cl  0  0  0  0  0  0  0  0  0  0  0  0
   11.1757    2.7194   23.4471 C   0  0  0  0  0  0  0  0  0  0  0  0
   10.9015    3.7497   22.6427 F   0  0  0  0  0  0  0  0  0  0  0  0
   10.1318    2.1072   24.1341 C   0  0  0  0  0  0  0  0  0  0  0  0
    9.1265    2.4972   23.9916 H   0  0  0  0  0  0  0  0  0  0  0  0
   13.7649    0.7661   24.4664 H   0  0  0  0  0  0  0  0  0  0  0  0
   11.8610   -0.4118   25.6043 H   0  0  0  0  0  0  0  0  0  0  0  0
    8.4094    0.9680   25.8604 H   0  0  0  0  0  0  0  0  0  0  0  0
    9.6242    0.0234   26.7214 H   0  0  0  0  0  0  0  0  0  0  0  0
    8.1910   -0.7281   23.8338 N   0  0  0  0  0  0  0  0  0  0  0  0
    7.6365   -1.8830   23.0856 C   0  0  0  0  0  0  0  0  0  0  0  0
    6.8704   -1.6255   21.7495 C   0  0  0  0  0  0  0  0  0  0  0  0
    5.8731   -2.2576   21.4714 O   0  0  0  0  0  0  0  0  0  0  0  0
    7.4373   -0.7046   20.8908 N   0  0  0  0  0  0  0  0  0  0  0  0
    6.7139   -0.0413   19.8314 C   0  0  0  0  0  0  0  0  0  0  0  0
    5.4848    0.5865   20.0764 C   0  0  0  0  0  0  0  0  0  0  0  0
    4.8524    1.2737   19.0305 C   0  0  0  0  0  0  0  0  0  0  0  0
    5.4617    1.3027   17.7746 C   0  0  0  0  0  0  0  0  0  0  0  0
    6.6334    0.6973   17.5164 N   0  0  0  0  0  0  0  0  0  0  0  0
    7.2403    0.0540   18.5242 C   0  0  0  0  0  0  0  0  0  0  0  0
    8.1915   -0.4214   18.2868 H   0  0  0  0  0  0  0  0  0  0  0  0
    5.0008    1.8318   16.9419 H   0  0  0  0  0  0  0  0  0  0  0  0
    3.9164    1.8027   19.1827 H   0  0  0  0  0  0  0  0  0  0  0  0
    5.0445    0.5408   21.0716 H   0  0  0  0  0  0  0  0  0  0  0  0
    8.2448   -0.2326   21.2691 H   0  0  0  0  0  0  0  0  0  0  0  0
    8.4875   -2.5431   22.8606 H   0  0  0  0  0  0  0  0  0  0  0  0
    6.9486   -2.4788   23.7032 H   0  0  0  0  0  0  0  0  0  0  0  0
    7.6884    0.1480   23.8688 H   0  0  0  0  0  0  0  0  0  0  0  0
  1  2  2  0
  2  3  1  0
  3  4  1  0
  4  5  2  0
  5  6  1  0
  6  7  2  0
  7  8  1  0
  7  9  1  0
  9 10  1  0
  9 11  2  0
 11 12  1  0
  6 13  1  0
  5 14  1  0
  3 15  1  0
  3 16  1  0
  2 17  1  0
 17 18  1  0
 18 19  1  0
 19 20  2  0
 19 21  1  0
 21 22  1  0
 22 23  2  0
 23 24  1  0
 24 25  2  0
 25 26  1  0
 26 27  2  0
 27 28  1  0
 25 29  1  0
 24 30  1  0
 23 31  1  0
 21 32  1  0
 18 33  1  0
 18 34  1  0
 17 35  1  0
 11  4  1  0
 27 22  1  0
M  END
>  <cnnaffinity>  (1) 
5.25373

>  <plip>  (1) 
-0.1

>  <filename>  (1) 
[H][c]1[n][c]([H])[c]([N]([H])[C](=[O])[C]([H])([H])[N]([H])[C](=[O])[C]([H])([H])[c]2[c]([H])[c]([H])[c]([Cl])[c]([F])[c]2[H])[c]([H])[c]1[H]

>  <combo1>  (1) 
-0.5443055810247852

$$$$
