
     RDKit          3D

 46 48  0  0  0  0  0  0  0  0999 V2000
    4.7267    1.5919   18.8305 C   0  0  0  0  0  0  0  0  0  0  0  0
    5.3547    1.5386   17.5827 C   0  0  0  0  0  0  0  0  0  0  0  0
    6.5239    0.9202   17.3696 N   0  0  0  0  0  0  0  0  0  0  0  0
    7.1084    0.3430   18.4243 C   0  0  0  0  0  0  0  0  0  0  0  0
    6.5554    0.3074   19.7182 C   0  0  0  0  0  0  0  0  0  0  0  0
    7.1799   -0.5083   20.8172 C   0  0  0  0  0  0  0  0  0  0  0  0
    6.5694   -1.9103   20.8637 C   0  0  0  0  0  0  0  0  0  0  0  0
    7.1471   -2.7130   21.9768 N   0  0  0  0  0  4  0  0  0  0  0  0
    8.6115   -3.0478   21.8193 C   0  0  0  0  0  0  0  0  0  0  0  0
    9.1724   -3.4399   23.1903 C   0  0  0  0  0  0  0  0  0  0  0  0
    8.2448   -4.3893   23.9834 N   0  0  0  0  0  4  0  0  0  0  0  0
    8.9618   -5.3437   24.9150 C   0  0  0  0  0  0  0  0  0  0  0  0
   10.1085   -4.6786   25.6704 C   0  0  0  0  0  0  0  0  0  0  0  0
   10.3135   -5.5394   26.9060 C   0  0  0  0  0  0  0  0  0  0  0  0
    8.8910   -5.9199   27.3148 N   0  0  0  0  0  4  0  0  0  0  0  0
    8.0418   -5.8406   26.0494 C   0  0  0  0  0  0  0  0  0  0  0  0
    7.2420   -5.1066   26.1723 H   0  0  0  0  0  0  0  0  0  0  0  0
    7.5829   -6.8029   25.8207 H   0  0  0  0  0  0  0  0  0  0  0  0
    8.5298   -5.2577   28.0499 H   0  0  0  0  0  0  0  0  0  0  0  0
    8.8618   -6.8789   27.7344 H   0  0  0  0  0  0  0  0  0  0  0  0
   10.8767   -6.4508   26.6564 H   0  0  0  0  0  0  0  0  0  0  0  0
   10.8524   -5.0401   27.7187 H   0  0  0  0  0  0  0  0  0  0  0  0
   11.0193   -4.5867   25.0708 H   0  0  0  0  0  0  0  0  0  0  0  0
    9.7863   -3.6702   25.9628 H   0  0  0  0  0  0  0  0  0  0  0  0
    9.3369   -6.1974   24.3329 H   0  0  0  0  0  0  0  0  0  0  0  0
    7.2368   -5.0493   23.0584 C   0  0  0  0  0  0  0  0  0  0  0  0
    6.4026   -4.0135   22.2579 C   0  0  0  0  0  0  0  0  0  0  0  0
    5.4780   -3.7815   22.7911 H   0  0  0  0  0  0  0  0  0  0  0  0
    6.1344   -4.4575   21.2919 H   0  0  0  0  0  0  0  0  0  0  0  0
    6.5553   -5.7020   23.6102 H   0  0  0  0  0  0  0  0  0  0  0  0
    7.7990   -5.6889   22.3696 H   0  0  0  0  0  0  0  0  0  0  0  0
    7.7132   -3.7755   24.6376 H   0  0  0  0  0  0  0  0  0  0  0  0
    9.2771   -2.5195   23.7742 H   0  0  0  0  0  0  0  0  0  0  0  0
   10.1645   -3.8808   23.0790 H   0  0  0  0  0  0  0  0  0  0  0  0
    8.6991   -3.8599   21.0904 H   0  0  0  0  0  0  0  0  0  0  0  0
    9.1657   -2.1981   21.4240 H   0  0  0  0  0  0  0  0  0  0  0  0
    7.0528   -2.1030   22.8258 H   0  0  0  0  0  0  0  0  0  0  0  0
    6.7408   -2.4148   19.9039 H   0  0  0  0  0  0  0  0  0  0  0  0
    5.4822   -1.8233   20.9771 H   0  0  0  0  0  0  0  0  0  0  0  0
    7.0295   -0.0387   21.7984 H   0  0  0  0  0  0  0  0  0  0  0  0
    8.2623   -0.5817   20.6655 H   0  0  0  0  0  0  0  0  0  0  0  0
    5.3360    0.9637   19.9151 C   0  0  0  0  0  0  0  0  0  0  0  0
    4.8735    0.9680   20.9062 H   0  0  0  0  0  0  0  0  0  0  0  0
    8.0703   -0.1263   18.2268 H   0  0  0  0  0  0  0  0  0  0  0  0
    4.9000    2.0124   16.7157 H   0  0  0  0  0  0  0  0  0  0  0  0
    3.7885    2.1229   18.9374 H   0  0  0  0  0  0  0  0  0  0  0  0
  1  2  2  0
  2  3  1  0
  3  4  2  0
  4  5  1  0
  5  6  1  0
  6  7  1  0
  7  8  1  0
  8  9  1  0
  9 10  1  0
 10 11  1  0
 11 12  1  0
 12 13  1  0
 13 14  1  0
 14 15  1  0
 15 16  1  0
 16 17  1  0
 16 18  1  0
 15 19  1  0
 15 20  1  0
 14 21  1  0
 14 22  1  0
 13 23  1  0
 13 24  1  0
 12 25  1  0
 11 26  1  0
 26 27  1  0
 27 28  1  0
 27 29  1  0
 26 30  1  0
 26 31  1  0
 11 32  1  0
 10 33  1  0
 10 34  1  0
  9 35  1  0
  9 36  1  0
  8 37  1  0
  7 38  1  0
  7 39  1  0
  6 40  1  0
  6 41  1  0
  5 42  2  0
 42 43  1  0
  4 44  1  0
  2 45  1  0
  1 46  1  0
 42  1  1  0
 27  8  1  0
 16 12  1  0
M  CHG  3   8   1  11   1  15   1
M  END
>  <cnnaffinity>  (1) 
4.46983

>  <plip>  (1) 
-0.10344827586206896

>  <filename>  (1) 
[H][c]1[n][c]([H])[c]([C]([H])([H])[C]([H])([H])[N+]2([H])[C]([H])([H])[C]([H])([H])[N+]([H])([C]3([H])[C]([H])([H])[C]([H])([H])[N+]([H])([H])[C]3([H])[H])[C]([H])([H])[C]2([H])[H])[c]([H])[c]1[H]

>  <combo1>  (1) 
-0.5851435181239715

$$$$
