
     RDKit          3D

 33 35  0  0  0  0  0  0  0  0999 V2000
    8.7324    1.5090   21.5095 O   0  0  0  0  0  0  0  0  0  0  0  0
    9.5350    0.6351   21.2969 C   0  0  0  0  0  0  0  0  0  0  0  0
    9.1183   -0.6332   20.9383 N   0  0  0  0  0  0  0  0  0  0  0  0
    7.5181   -0.9424   21.1753 S   0  0  0  0  0  0  0  0  0  0  0  0
    7.4620   -2.3249   20.7432 O   0  0  0  0  0  0  0  0  0  0  0  0
    7.1098   -0.5428   22.5001 O   0  0  0  0  0  0  0  0  0  0  0  0
    6.8191    0.1098   20.0125 C   0  0  0  0  0  0  0  0  0  0  0  0
    5.6421    0.8189   20.2739 C   0  0  0  0  0  0  0  0  0  0  0  0
    4.9990    1.3627   19.1706 C   0  0  0  0  0  0  0  0  0  0  0  0
    5.5603    1.1958   17.9005 C   0  0  0  0  0  0  0  0  0  0  0  0
    6.7080    0.5360   17.6811 N   0  0  0  0  0  0  0  0  0  0  0  0
    7.3385    0.0124   18.7282 C   0  0  0  0  0  0  0  0  0  0  0  0
    8.2814   -0.4930   18.5223 H   0  0  0  0  0  0  0  0  0  0  0  0
    5.0680    1.6059   17.0209 H   0  0  0  0  0  0  0  0  0  0  0  0
    4.0708    1.9119   19.2755 H   0  0  0  0  0  0  0  0  0  0  0  0
    5.2380    0.9249   21.2856 H   0  0  0  0  0  0  0  0  0  0  0  0
    9.5836   -1.4858   21.1936 H   0  0  0  0  0  0  0  0  0  0  0  0
   11.0577    0.8157   21.3259 C   0  0  0  0  0  0  0  0  0  0  0  0
   11.6733    0.9456   22.7513 C   0  0  0  0  0  0  0  0  0  0  0  0
   12.4610    2.2174   22.6025 C   0  0  0  0  0  0  0  0  0  0  0  0
   13.3927    2.8305   23.4272 C   0  0  0  0  0  0  0  0  0  0  0  0
   13.9107    4.0884   23.0794 C   0  0  0  0  0  0  0  0  0  0  0  0
   13.4878    4.6853   21.8899 C   0  0  0  0  0  0  0  0  0  0  0  0
   13.9496    5.9075   21.5864 F   0  0  0  0  0  0  0  0  0  0  0  0
   12.6110    4.0670   20.9989 C   0  0  0  0  0  0  0  0  0  0  0  0
   12.1532    2.8095   21.3801 C   0  0  0  0  0  0  0  0  0  0  0  0
   11.3777    2.0211   20.6028 O   0  0  0  0  0  0  0  0  0  0  0  0
   12.3101    4.5318   20.0714 H   0  0  0  0  0  0  0  0  0  0  0  0
   14.6330    4.6142   23.6920 H   0  0  0  0  0  0  0  0  0  0  0  0
   13.7280    2.2905   24.3045 H   0  0  0  0  0  0  0  0  0  0  0  0
   10.9006    1.0267   23.5327 H   0  0  0  0  0  0  0  0  0  0  0  0
   12.3089    0.0833   22.9998 H   0  0  0  0  0  0  0  0  0  0  0  0
   11.5107   -0.0315   20.8009 H   0  0  0  0  0  0  0  0  0  0  0  0
  1  2  2  0
  2  3  1  0
  3  4  1  0
  4  5  2  0
  4  6  2  0
  4  7  1  0
  7  8  2  0
  8  9  1  0
  9 10  2  0
 10 11  1  0
 11 12  2  0
 12 13  1  0
 10 14  1  0
  9 15  1  0
  8 16  1  0
  3 17  1  0
  2 18  1  0
 18 19  1  0
 19 20  1  0
 20 21  2  0
 21 22  1  0
 22 23  2  0
 23 24  1  0
 23 25  1  0
 25 26  2  0
 26 27  1  0
 25 28  1  0
 22 29  1  0
 21 30  1  0
 19 31  1  0
 19 32  1  0
 18 33  1  0
 12  7  1  0
 27 18  1  0
 26 20  1  0
M  END
>  <cnnaffinity>  (1) 
5.54721

>  <plip>  (1) 
-0.12903225806451613

>  <filename>  (1) 
[H][c]1[n][c]([H])[c]([S](=[O])(=[O])[N]([H])[C](=[O])[C]2([H])[O][c]3[c]([H])[c]([F])[c]([H])[c]([H])[c]3[C]2([H])[H])[c]([H])[c]1[H]

>  <combo1>  (1) 
-0.7402329924247087

$$$$
