
     RDKit          3D

 38 39  0  0  0  0  0  0  0  0999 V2000
    6.1676   -2.6144   21.1474 H   0  0  0  0  0  0  0  0  0  0  0  0
    6.6235   -1.8033   21.7153 C   0  0  0  0  0  0  0  0  0  0  0  0
    6.5185   -1.6517   23.0399 C   0  0  0  0  0  0  0  0  0  0  0  0
    5.6957   -2.5941   23.8826 C   0  0  0  0  0  0  0  0  0  0  0  0
    5.2666   -3.6432   23.4180 O   0  0  0  0  0  0  0  0  0  0  0  0
    5.4241   -2.1789   25.1514 N   0  0  0  0  0  0  0  0  0  0  0  0
    5.7648   -1.2649   25.3818 H   0  0  0  0  0  0  0  0  0  0  0  0
    4.5639   -2.8789   26.1197 C   0  0  0  0  0  0  0  0  0  0  0  0
    3.1100   -2.9163   25.6251 C   0  0  0  0  0  0  0  0  0  0  0  0
    2.7205   -1.9032   25.4731 H   0  0  0  0  0  0  0  0  0  0  0  0
    2.4768   -3.4187   26.3654 H   0  0  0  0  0  0  0  0  0  0  0  0
    3.0358   -3.4623   24.6830 H   0  0  0  0  0  0  0  0  0  0  0  0
    5.1047   -4.3005   26.3091 C   0  0  0  0  0  0  0  0  0  0  0  0
    4.5554   -4.8518   27.0797 H   0  0  0  0  0  0  0  0  0  0  0  0
    6.1611   -4.2567   26.5918 H   0  0  0  0  0  0  0  0  0  0  0  0
    5.0293   -4.8431   25.3682 H   0  0  0  0  0  0  0  0  0  0  0  0
    4.6237   -2.1173   27.4439 C   0  0  0  0  0  0  0  0  0  0  0  0
    4.0357   -2.6390   28.2098 H   0  0  0  0  0  0  0  0  0  0  0  0
    4.2093   -1.1085   27.3450 H   0  0  0  0  0  0  0  0  0  0  0  0
    5.6509   -2.0351   27.8122 H   0  0  0  0  0  0  0  0  0  0  0  0
    7.1211   -0.3273   23.4724 C   0  0  0  0  0  0  0  0  0  0  0  0
    6.3080    0.3519   23.7722 H   0  0  0  0  0  0  0  0  0  0  0  0
    7.8009   -0.3884   24.3349 H   0  0  0  0  0  0  0  0  0  0  0  0
    7.8439    0.1910   22.2002 C   0  0  0  0  0  0  0  0  0  0  0  0
    7.5870    1.2351   21.9978 H   0  0  0  0  0  0  0  0  0  0  0  0
    8.9301    0.1397   22.3432 H   0  0  0  0  0  0  0  0  0  0  0  0
    7.4133   -0.7274   21.0101 C   0  0  2  0  0  0  0  0  0  0  0  0
    8.3030   -1.1864   20.5500 H   0  0  0  0  0  0  0  0  0  0  0  0
    6.6568   -0.0191   19.8759 C   0  0  0  0  0  0  0  0  0  0  0  0
    7.1586    0.0395   18.5599 C   0  0  0  0  0  0  0  0  0  0  0  0
    8.1095   -0.4301   18.3020 H   0  0  0  0  0  0  0  0  0  0  0  0
    6.5579    0.6744   17.5420 N   0  0  0  0  0  0  0  0  0  0  0  0
    5.4030    1.3022   17.8051 C   0  0  0  0  0  0  0  0  0  0  0  0
    4.9417    1.8275   16.9712 H   0  0  0  0  0  0  0  0  0  0  0  0
    4.8006    1.3075   19.0655 C   0  0  0  0  0  0  0  0  0  0  0  0
    3.8761    1.8511   19.2178 H   0  0  0  0  0  0  0  0  0  0  0  0
    5.4398    0.6411   20.1126 C   0  0  0  0  0  0  0  0  0  0  0  0
    5.0017    0.6478   21.1115 H   0  0  0  0  0  0  0  0  0  0  0  0
  1  2  1  0
  2  3  2  0
  3  4  1  0
  4  5  2  0
  4  6  1  0
  6  7  1  0
  6  8  1  0
  8  9  1  0
  9 10  1  0
  9 11  1  0
  9 12  1  0
  8 13  1  0
 13 14  1  0
 13 15  1  0
 13 16  1  0
  8 17  1  0
 17 18  1  0
 17 19  1  0
 17 20  1  0
  3 21  1  0
 21 22  1  0
 21 23  1  0
 21 24  1  0
 24 25  1  0
 24 26  1  0
 24 27  1  0
 27 28  1  6
 27 29  1  0
 29 30  2  0
 30 31  1  0
 30 32  1  0
 32 33  2  0
 33 34  1  0
 33 35  1  0
 35 36  1  0
 35 37  2  0
 37 38  1  0
 27  2  1  0
 37 29  1  0
M  END
>  <cnnaffinity>  (1) 
4.76187

>  <plip>  (1) 
-0.034482758620689655

>  <filename>  (1) 
[H][C]1=[C]([C](=[O])[N]([H])[C]([C]([H])([H])[H])([C]([H])([H])[H])[C]([H])([H])[H])[C]([H])([H])[C]([H])([H])[C@]1([H])[c]1[c]([H])[n][c]([H])[c]([H])[c]1[H]

>  <combo1>  (1) 
-0.22400992858677113

$$$$
