
     RDKit          3D

 33 35  0  0  0  0  0  0  0  0999 V2000
    6.4340   -6.7591   25.9739 H   0  0  0  0  0  0  0  0  0  0  0  0
    7.1983   -6.0441   26.2762 C   0  0  0  0  0  0  0  0  0  0  0  0
    7.3123   -4.9460   25.5187 N   0  0  0  0  0  0  0  0  0  0  0  0
    8.2071   -3.9969   25.8841 C   0  0  0  0  0  0  0  0  0  0  0  0
    8.2945   -2.6878   25.0623 C   0  0  0  0  0  0  0  0  0  0  0  0
    8.8796   -1.6979   25.4477 O   0  0  0  0  0  0  0  0  0  0  0  0
    7.6390   -2.8019   23.8480 N   0  0  0  0  0  0  0  0  0  0  0  0
    7.1141   -3.6621   23.7181 H   0  0  0  0  0  0  0  0  0  0  0  0
    7.8966   -2.0398   22.7006 N   0  0  0  0  0  0  0  0  0  0  0  0
    6.9051   -1.7292   21.7465 C   0  0  0  0  0  0  0  0  0  0  0  0
    5.8336   -2.2702   21.6389 O   0  0  0  0  0  0  0  0  0  0  0  0
    7.4434   -0.7667   20.9103 N   0  0  0  0  0  0  0  0  0  0  0  0
    6.7287   -0.0723   19.9080 C   0  0  0  0  0  0  0  0  0  0  0  0
    7.2533    0.0549   18.6039 C   0  0  0  0  0  0  0  0  0  0  0  0
    8.2074   -0.4002   18.3606 H   0  0  0  0  0  0  0  0  0  0  0  0
    6.6416    0.6912   17.6023 N   0  0  0  0  0  0  0  0  0  0  0  0
    5.4629    1.2738   17.8667 C   0  0  0  0  0  0  0  0  0  0  0  0
    4.9821    1.7837   17.0334 H   0  0  0  0  0  0  0  0  0  0  0  0
    4.8611    1.2307   19.1304 C   0  0  0  0  0  0  0  0  0  0  0  0
    3.9208    1.7493   19.2825 H   0  0  0  0  0  0  0  0  0  0  0  0
    5.4949    0.5432   20.1750 C   0  0  0  0  0  0  0  0  0  0  0  0
    5.0647    0.4929   21.1761 H   0  0  0  0  0  0  0  0  0  0  0  0
    8.8745   -0.6848   21.0784 C   0  0  0  0  0  0  0  0  0  0  0  0
    9.4460   -1.0865   20.2292 H   0  0  0  0  0  0  0  0  0  0  0  0
    9.2094    0.3360   21.2834 H   0  0  0  0  0  0  0  0  0  0  0  0
    9.1401   -1.5567   22.2803 C   0  0  0  0  0  0  0  0  0  0  0  0
   10.2220   -1.7830   22.7451 O   0  0  0  0  0  0  0  0  0  0  0  0
    9.0738   -4.1736   26.9733 C   0  0  0  0  0  0  0  0  0  0  0  0
    9.7901   -3.3935   27.1976 H   0  0  0  0  0  0  0  0  0  0  0  0
    8.9912   -5.3476   27.7188 C   0  0  0  0  0  0  0  0  0  0  0  0
    9.6888   -5.5314   28.5328 H   0  0  0  0  0  0  0  0  0  0  0  0
    8.0084   -6.2811   27.3915 C   0  0  0  0  0  0  0  0  0  0  0  0
    7.8716   -7.1606   28.0080 H   0  0  0  0  0  0  0  0  0  0  0  0
  1  2  1  0
  2  3  2  0
  3  4  1  0
  4  5  1  0
  5  6  2  0
  5  7  1  0
  7  8  1  0
  7  9  1  0
  9 10  1  0
 10 11  2  0
 10 12  1  0
 12 13  1  0
 13 14  2  0
 14 15  1  0
 14 16  1  0
 16 17  2  0
 17 18  1  0
 17 19  1  0
 19 20  1  0
 19 21  2  0
 21 22  1  0
 12 23  1  0
 23 24  1  0
 23 25  1  0
 23 26  1  0
 26 27  2  0
  4 28  2  0
 28 29  1  0
 28 30  1  0
 30 31  1  0
 30 32  2  0
 32 33  1  0
 32  2  1  0
 26  9  1  0
 21 13  1  0
M  END
>  <cnnaffinity>  (1) 
5.00104

>  <plip>  (1) 
-0.07142857142857142

>  <filename>  (1) 
[H][c]1[n][c]([C](=[O])[N]([H])[N]2[C](=[O])[N]([c]3[c]([H])[n][c]([H])[c]([H])[c]3[H])[C]([H])([H])[C]2=[O])[c]([H])[c]([H])[c]1[H]

>  <combo1>  (1) 
-0.40054757884100495

$$$$
