
     RDKit          3D

 38 40  0  0  0  0  0  0  0  0999 V2000
    7.4608   -4.9356   26.0799 C   0  0  0  0  0  0  0  0  0  0  0  0
    8.4686   -4.1169   26.8658 C   0  0  0  0  0  0  0  0  0  0  0  0
    9.6920   -4.7407   26.8478 F   0  0  0  0  0  0  0  0  0  0  0  0
    8.0829   -4.1116   28.1737 F   0  0  0  0  0  0  0  0  0  0  0  0
    8.6552   -2.6527   26.3462 C   0  0  0  0  0  0  0  0  0  0  0  0
    9.0659   -1.5328   27.0887 C   0  0  0  0  0  0  0  0  0  0  0  0
    9.3088   -0.3741   26.3557 C   0  0  0  0  0  0  0  0  0  0  0  0
    9.1612   -0.2766   25.0407 N   0  0  0  0  0  0  0  0  0  0  0  0
    8.7058   -1.3758   24.4474 C   0  0  0  0  0  0  0  0  0  0  0  0
    8.4690   -1.3635   23.1034 N   0  0  0  0  0  0  0  0  0  0  0  0
    8.9345   -0.2407   22.2922 C   0  0  0  0  0  0  0  0  0  0  0  0
    8.7243   -0.5228   20.7999 C   0  0  0  0  0  0  0  0  0  0  0  0
    7.3108   -0.8510   20.5256 N   0  0  0  0  0  0  0  0  0  0  0  0
    6.5964   -0.0859   19.5478 C   0  0  0  0  0  0  0  0  0  0  0  0
    5.3784    0.5424   19.8496 C   0  0  0  0  0  0  0  0  0  0  0  0
    4.7849    1.3448   18.8680 C   0  0  0  0  0  0  0  0  0  0  0  0
    5.4079    1.4752   17.6207 C   0  0  0  0  0  0  0  0  0  0  0  0
    6.5661    0.8672   17.3118 N   0  0  0  0  0  0  0  0  0  0  0  0
    7.1426    0.1285   18.2643 C   0  0  0  0  0  0  0  0  0  0  0  0
    8.0954   -0.3339   18.0098 H   0  0  0  0  0  0  0  0  0  0  0  0
    4.9598    2.0828   16.8378 H   0  0  0  0  0  0  0  0  0  0  0  0
    3.8585    1.8787   19.0590 H   0  0  0  0  0  0  0  0  0  0  0  0
    4.9312    0.4146   20.8368 H   0  0  0  0  0  0  0  0  0  0  0  0
    6.6850   -1.8475   21.2751 C   0  0  0  0  0  0  0  0  0  0  0  0
    5.6497   -2.4009   20.9653 O   0  0  0  0  0  0  0  0  0  0  0  0
    7.4433   -2.2810   22.5517 C   0  0  0  0  0  0  0  0  0  0  0  0
    6.6664   -2.4755   23.2973 H   0  0  0  0  0  0  0  0  0  0  0  0
    7.8762   -3.2627   22.3157 H   0  0  0  0  0  0  0  0  0  0  0  0
    8.9890    0.3775   20.2349 H   0  0  0  0  0  0  0  0  0  0  0  0
    9.3815   -1.3379   20.4573 H   0  0  0  0  0  0  0  0  0  0  0  0
    8.3960    0.6768   22.5582 H   0  0  0  0  0  0  0  0  0  0  0  0
    9.9965   -0.0609   22.4812 H   0  0  0  0  0  0  0  0  0  0  0  0
    8.4410   -2.5363   25.0448 N   0  0  0  0  0  0  0  0  0  0  0  0
    9.6303    0.5334   26.8630 H   0  0  0  0  0  0  0  0  0  0  0  0
    9.1996   -1.5143   28.1554 H   0  0  0  0  0  0  0  0  0  0  0  0
    7.7285   -4.9160   25.0233 H   0  0  0  0  0  0  0  0  0  0  0  0
    7.4441   -5.9592   26.4606 H   0  0  0  0  0  0  0  0  0  0  0  0
    6.4690   -4.4836   26.1895 H   0  0  0  0  0  0  0  0  0  0  0  0
  1  2  1  0
  2  3  1  0
  2  4  1  0
  2  5  1  0
  5  6  2  0
  6  7  1  0
  7  8  2  0
  8  9  1  0
  9 10  1  0
 10 11  1  0
 11 12  1  0
 12 13  1  0
 13 14  1  0
 14 15  2  0
 15 16  1  0
 16 17  2  0
 17 18  1  0
 18 19  2  0
 19 20  1  0
 17 21  1  0
 16 22  1  0
 15 23  1  0
 13 24  1  0
 24 25  2  0
 24 26  1  0
 26 27  1  0
 26 28  1  0
 12 29  1  0
 12 30  1  0
 11 31  1  0
 11 32  1  0
  9 33  2  0
  7 34  1  0
  6 35  1  0
  1 36  1  0
  1 37  1  0
  1 38  1  0
 33  5  1  0
 26 10  1  0
 19 14  1  0
M  END
>  <cnnaffinity>  (1) 
5.14596

>  <plip>  (1) 
-0.06896551724137931

>  <filename>  (1) 
[H][c]1[n][c]([N]2[C]([H])([H])[C](=[O])[N]([c]3[c]([H])[n][c]([H])[c]([H])[c]3[H])[C]([H])([H])[C]2([H])[H])[n][c]([C]([F])([F])[C]([H])([H])[H])[c]1[H]

>  <combo1>  (1) 
-0.3704740805614606

$$$$
