
     RDKit          3D

 32 34  0  0  0  0  0  0  0  0999 V2000
    4.9621    1.8762   16.3711 H   0  0  0  0  0  0  0  0  0  0  0  0
    5.3181    1.4541   17.3056 C   0  0  0  0  0  0  0  0  0  0  0  0
    6.4646    0.7577   17.2275 N   0  0  0  0  0  0  0  0  0  0  0  0
    6.9379    0.2197   18.3555 C   0  0  0  0  0  0  0  0  0  0  0  0
    7.8594   -0.3557   18.2856 H   0  0  0  0  0  0  0  0  0  0  0  0
    6.3002    0.3651   19.6002 C   0  0  0  0  0  0  0  0  0  0  0  0
    6.8349   -0.3503   20.6716 O   0  0  0  0  0  0  0  0  0  0  0  0
    7.0039    0.1816   21.8905 C   0  0  0  0  0  0  0  0  0  0  0  0
    6.6525    1.3355   22.3854 N   0  0  0  0  0  0  0  0  0  0  0  0
    7.2014    1.3612   23.6386 N   0  0  0  0  0  0  0  0  0  0  0  0
    7.8563    0.2955   23.8963 N   0  0  0  0  0  0  0  0  0  0  0  0
    7.7191   -0.5147   22.8210 N   0  0  0  0  0  0  0  0  0  0  0  0
    8.4620   -1.6942   22.6535 N   0  0  0  0  0  0  0  0  0  0  0  0
    9.3610   -1.4866   22.2435 H   0  0  0  0  0  0  0  0  0  0  0  0
    8.6691   -2.6130   23.7163 C   0  0  0  0  0  0  0  0  0  0  0  0
    9.8970   -3.2935   23.6961 C   0  0  0  0  0  0  0  0  0  0  0  0
   10.5972   -3.1147   22.8801 H   0  0  0  0  0  0  0  0  0  0  0  0
   10.2289   -4.1867   24.7111 C   0  0  0  0  0  0  0  0  0  0  0  0
   11.1827   -4.7057   24.6863 H   0  0  0  0  0  0  0  0  0  0  0  0
    9.3449   -4.4473   25.7713 C   0  0  0  0  0  0  0  0  0  0  0  0
    9.7545   -5.3833   26.8849 C   0  0  0  0  0  0  0  0  0  0  0  0
   10.3802   -4.8810   27.6338 H   0  0  0  0  0  0  0  0  0  0  0  0
   10.3438   -6.2181   26.4865 H   0  0  0  0  0  0  0  0  0  0  0  0
    8.8865   -5.7952   27.4105 H   0  0  0  0  0  0  0  0  0  0  0  0
    8.0845   -3.8346   25.7162 C   0  0  0  0  0  0  0  0  0  0  0  0
    7.3445   -4.1047   26.4645 H   0  0  0  0  0  0  0  0  0  0  0  0
    7.7346   -2.9224   24.7034 C   0  0  0  0  0  0  0  0  0  0  0  0
    6.7726   -2.4184   24.6833 H   0  0  0  0  0  0  0  0  0  0  0  0
    5.1227    1.1042   19.6896 C   0  0  0  0  0  0  0  0  0  0  0  0
    4.6594    1.2707   20.6618 H   0  0  0  0  0  0  0  0  0  0  0  0
    4.6120    1.6396   18.4969 C   0  0  0  0  0  0  0  0  0  0  0  0
    3.6900    2.2113   18.4857 H   0  0  0  0  0  0  0  0  0  0  0  0
  1  2  1  0
  2  3  2  0
  3  4  1  0
  4  5  1  0
  4  6  2  0
  6  7  1  0
  7  8  1  0
  8  9  2  0
  9 10  1  0
 10 11  2  0
 11 12  1  0
 12 13  1  0
 13 14  1  0
 13 15  1  0
 15 16  2  0
 16 17  1  0
 16 18  1  0
 18 19  1  0
 18 20  2  0
 20 21  1  0
 21 22  1  0
 21 23  1  0
 21 24  1  0
 20 25  1  0
 25 26  1  0
 25 27  2  0
 27 28  1  0
  6 29  1  0
 29 30  1  0
 29 31  2  0
 31 32  1  0
 31  2  1  0
 12  8  1  0
 27 15  1  0
M  END
>  <cnnaffinity>  (1) 
4.54206

>  <plip>  (1) 
-0.07142857142857142

>  <filename>  (1) 
[H][c]1[n][c]([H])[c]([O][c]2[n][n][n][n]2[N]([H])[c]2[c]([H])[c]([H])[c]([C]([H])([H])[H])[c]([H])[c]2[H])[c]([H])[c]1[H]

>  <combo1>  (1) 
-0.4031023024984558

$$$$
