
     RDKit          3D

 23 24  0  0  0  0  0  0  0  0999 V2000
    8.4780   -2.7686   26.1251 H   0  0  0  0  0  0  0  0  0  0  0  0
    8.8423   -2.7068   25.0990 C   0  0  0  0  0  0  0  0  0  0  0  0
    9.9993   -3.3105   24.8520 N   0  0  0  0  0  0  0  0  0  0  0  0
   10.4539   -3.1145   23.6251 C   0  0  0  0  0  0  0  0  0  0  0  0
   11.7072   -3.4979   23.4141 N   0  0  0  0  0  0  0  0  0  0  0  0
   11.8281   -3.6464   22.4274 H   0  0  0  0  0  0  0  0  0  0  0  0
   11.9439   -4.2152   24.0720 H   0  0  0  0  0  0  0  0  0  0  0  0
    9.8464   -2.5893   22.5766 N   0  0  0  0  0  0  0  0  0  0  0  0
    8.6900   -2.0010   22.8507 C   0  0  0  0  0  0  0  0  0  0  0  0
    8.0069   -1.3069   21.7879 C   0  0  0  0  0  0  0  0  0  0  0  0
    7.3737   -0.6979   20.9548 C   0  0  0  0  0  0  0  0  0  0  0  0
    6.6649    0.0005   19.9194 C   0  0  0  0  0  0  0  0  0  0  0  0
    7.1766    0.0554   18.6046 C   0  0  0  0  0  0  0  0  0  0  0  0
    8.1238   -0.4255   18.3637 H   0  0  0  0  0  0  0  0  0  0  0  0
    6.5645    0.6737   17.5880 N   0  0  0  0  0  0  0  0  0  0  0  0
    5.4002    1.2906   17.8426 C   0  0  0  0  0  0  0  0  0  0  0  0
    4.9233    1.7838   16.9953 H   0  0  0  0  0  0  0  0  0  0  0  0
    4.8074    1.3082   19.1081 C   0  0  0  0  0  0  0  0  0  0  0  0
    3.8763    1.8417   19.2515 H   0  0  0  0  0  0  0  0  0  0  0  0
    5.4422    0.6500   20.1620 C   0  0  0  0  0  0  0  0  0  0  0  0
    5.0072    0.6364   21.1597 H   0  0  0  0  0  0  0  0  0  0  0  0
    8.1295   -2.0123   24.1318 C   0  0  0  0  0  0  0  0  0  0  0  0
    7.1978   -1.5253   24.3574 H   0  0  0  0  0  0  0  0  0  0  0  0
  1  2  1  0
  2  3  2  0
  3  4  1  0
  4  5  1  0
  5  6  1  0
  5  7  1  0
  4  8  2  0
  8  9  1  0
  9 10  1  0
 10 11  3  0
 11 12  1  0
 12 13  2  0
 13 14  1  0
 13 15  1  0
 15 16  2  0
 16 17  1  0
 16 18  1  0
 18 19  1  0
 18 20  2  0
 20 21  1  0
  9 22  2  0
 22 23  1  0
 22  2  1  0
 20 12  1  0
M  END
>  <cnnaffinity>  (1) 
4.6612

>  <plip>  (1) 
-0.03333333333333333

>  <filename>  (1) 
[H][c]1[n][c]([N]([H])[H])[n][c]([C]#[C][c]2[c]([H])[n][c]([H])[c]([H])[c]2[H])[c]1[H]

>  <combo1>  (1) 
-0.26395351536906886

$$$$
