
     RDKit          3D

 39 42  0  0  0  0  0  0  0  0999 V2000
   10.0645   -0.1839   20.4978 O   0  0  0  0  0  0  0  0  0  0  0  0
    9.5644    0.5189   21.3635 C   0  0  0  0  0  0  0  0  0  0  0  0
   10.2539    1.5810   22.0995 C   0  0  0  0  0  0  0  0  0  0  0  0
    9.6038    2.2909   23.0595 C   0  0  0  0  0  0  0  0  0  0  0  0
    8.2097    2.0322   23.3193 C   0  0  0  0  0  0  0  0  0  0  0  0
    7.4861    2.8149   24.3595 C   0  0  0  0  0  0  0  0  0  0  0  0
    8.0338    2.9268   25.6306 C   0  0  0  0  0  0  0  0  0  0  0  0
    7.3440    3.6063   26.6670 C   0  0  0  0  0  0  0  0  0  0  0  0
    6.1229    4.1905   26.4201 C   0  0  0  0  0  0  0  0  0  0  0  0
    5.5447    4.1376   25.1162 C   0  0  0  0  0  0  0  0  0  0  0  0
    4.2809    4.7453   24.8429 C   0  0  0  0  0  0  0  0  0  0  0  0
    3.7398    4.7163   23.5797 C   0  0  0  0  0  0  0  0  0  0  0  0
    4.4415    4.0856   22.5158 C   0  0  0  0  0  0  0  0  0  0  0  0
    5.6594    3.4861   22.7384 C   0  0  0  0  0  0  0  0  0  0  0  0
    6.2381    3.4613   24.0548 C   0  0  0  0  0  0  0  0  0  0  0  0
    6.2007    3.0171   21.9191 H   0  0  0  0  0  0  0  0  0  0  0  0
    4.0177    4.0737   21.5114 H   0  0  0  0  0  0  0  0  0  0  0  0
    2.7804    5.1860   23.3799 H   0  0  0  0  0  0  0  0  0  0  0  0
    3.7615    5.2414   25.6612 H   0  0  0  0  0  0  0  0  0  0  0  0
    5.5751    4.7048   27.2089 H   0  0  0  0  0  0  0  0  0  0  0  0
    7.7827    3.6554   27.6607 H   0  0  0  0  0  0  0  0  0  0  0  0
    8.9933    2.4663   25.8649 H   0  0  0  0  0  0  0  0  0  0  0  0
    7.5485    1.0852   22.6774 N   0  0  0  0  0  0  0  0  0  0  0  0
    8.2292    0.3231   21.7778 N   0  0  0  0  0  0  0  0  0  0  0  0
    7.4114   -0.6500   21.0240 C   0  0  0  0  0  0  0  0  0  0  0  0
    6.6577    0.0090   19.8973 C   0  0  0  0  0  0  0  0  0  0  0  0
    5.4398    0.6509   20.1547 C   0  0  0  0  0  0  0  0  0  0  0  0
    4.8023    1.3129   19.1051 C   0  0  0  0  0  0  0  0  0  0  0  0
    5.4010    1.2934   17.8388 C   0  0  0  0  0  0  0  0  0  0  0  0
    6.5643    0.6819   17.5696 N   0  0  0  0  0  0  0  0  0  0  0  0
    7.1731    0.0665   18.5940 C   0  0  0  0  0  0  0  0  0  0  0  0
    8.1216   -0.4233   18.3753 H   0  0  0  0  0  0  0  0  0  0  0  0
    4.9128    1.7801   16.9983 H   0  0  0  0  0  0  0  0  0  0  0  0
    3.8730    1.8531   19.2655 H   0  0  0  0  0  0  0  0  0  0  0  0
    5.0227    0.6411   21.1692 H   0  0  0  0  0  0  0  0  0  0  0  0
    8.0701   -1.4325   20.6361 H   0  0  0  0  0  0  0  0  0  0  0  0
    6.7040   -1.1034   21.7289 H   0  0  0  0  0  0  0  0  0  0  0  0
   10.1032    3.0929   23.6102 H   0  0  0  0  0  0  0  0  0  0  0  0
   11.2976    1.7232   21.8383 H   0  0  0  0  0  0  0  0  0  0  0  0
  1  2  2  0
  2  3  1  0
  3  4  2  0
  4  5  1  0
  5  6  1  0
  6  7  2  0
  7  8  1  0
  8  9  2  0
  9 10  1  0
 10 11  2  0
 11 12  1  0
 12 13  2  0
 13 14  1  0
 14 15  2  0
 14 16  1  0
 13 17  1  0
 12 18  1  0
 11 19  1  0
  9 20  1  0
  8 21  1  0
  7 22  1  0
  5 23  2  0
 23 24  1  0
 24 25  1  0
 25 26  1  0
 26 27  2  0
 27 28  1  0
 28 29  2  0
 29 30  1  0
 30 31  2  0
 31 32  1  0
 29 33  1  0
 28 34  1  0
 27 35  1  0
 25 36  1  0
 25 37  1  0
  4 38  1  0
  3 39  1  0
 24  2  1  0
 31 26  1  0
 15  6  1  0
 15 10  1  0
M  END
>  <cnnaffinity>  (1) 
5.11833

>  <plip>  (1) 
-0.07142857142857142

>  <filename>  (1) 
[H][c]1[n][c]([H])[c]([C]([H])([H])[n]2[n][c](-[c]3[c]([H])[c]([H])[c]([H])[c]4[c]([H])[c]([H])[c]([H])[c]([H])[c]34)[c]([H])[c]([H])[c]2=[O])[c]([H])[c]1[H]

>  <combo1>  (1) 
-0.38889775338269084

$$$$
