
     RDKit          3D

 30 32  0  0  0  0  0  0  0  0999 V2000
    4.8040    1.3216   19.0663 C   0  0  0  0  0  0  0  0  0  0  0  0
    5.4133    1.2788   17.8079 C   0  0  0  0  0  0  0  0  0  0  0  0
    6.5598    0.6235   17.5651 N   0  0  0  0  0  0  0  0  0  0  0  0
    7.1516    0.0227   18.6046 C   0  0  0  0  0  0  0  0  0  0  0  0
    6.6654    0.0668   19.9152 C   0  0  0  0  0  0  0  0  0  0  0  0
    7.4251   -0.6312   21.0032 C   0  0  0  0  0  0  0  0  0  0  0  0
    7.0261   -2.0201   20.9873 N   0  0  0  0  0  0  0  0  0  0  0  0
    7.4229   -2.9475   21.8993 C   0  0  0  0  0  0  0  0  0  0  0  0
    8.3671   -2.6045   22.8605 C   0  0  0  0  0  0  0  0  0  0  0  0
    8.8825   -3.5896   23.7186 C   0  0  0  0  0  0  0  0  0  0  0  0
    8.5714   -4.8685   23.6566 N   0  0  0  0  0  0  0  0  0  0  0  0
    7.6384   -5.2205   22.7177 C   0  0  0  0  0  0  0  0  0  0  0  0
    7.3387   -6.6027   22.5709 C   0  0  0  0  0  0  0  0  0  0  0  0
    6.3540   -7.0022   21.7080 C   0  0  0  0  0  0  0  0  0  0  0  0
    5.6875   -6.0276   20.9205 C   0  0  0  0  0  0  0  0  0  0  0  0
    5.9483   -4.7366   20.9690 N   0  0  0  0  0  0  0  0  0  0  0  0
    6.9385   -4.3254   21.8454 C   0  0  0  0  0  0  0  0  0  0  0  0
    4.9564   -6.3500   20.1892 H   0  0  0  0  0  0  0  0  0  0  0  0
    6.0935   -8.0501   21.5985 H   0  0  0  0  0  0  0  0  0  0  0  0
    7.9545   -7.2819   23.1415 H   0  0  0  0  0  0  0  0  0  0  0  0
    9.6074   -3.3009   24.4779 H   0  0  0  0  0  0  0  0  0  0  0  0
    8.7429   -1.5923   22.9195 H   0  0  0  0  0  0  0  0  0  0  0  0
    6.3096   -2.3174   20.3398 H   0  0  0  0  0  0  0  0  0  0  0  0
    8.5110   -0.5408   20.8265 H   0  0  0  0  0  0  0  0  0  0  0  0
    7.2102   -0.1725   21.9841 H   0  0  0  0  0  0  0  0  0  0  0  0
    5.4365    0.6930   20.1412 C   0  0  0  0  0  0  0  0  0  0  0  0
    4.9847    0.6799   21.1351 H   0  0  0  0  0  0  0  0  0  0  0  0
    8.0753   -0.5141   18.3874 H   0  0  0  0  0  0  0  0  0  0  0  0
    4.9590    1.7827   16.9549 H   0  0  0  0  0  0  0  0  0  0  0  0
    3.8621    1.8444   19.1910 H   0  0  0  0  0  0  0  0  0  0  0  0
  1  2  2  0
  2  3  1  0
  3  4  2  0
  4  5  1  0
  5  6  1  0
  6  7  1  0
  7  8  1  0
  8  9  2  0
  9 10  1  0
 10 11  2  0
 11 12  1  0
 12 13  2  0
 13 14  1  0
 14 15  2  0
 15 16  1  0
 16 17  2  0
 15 18  1  0
 14 19  1  0
 13 20  1  0
 10 21  1  0
  9 22  1  0
  7 23  1  0
  6 24  1  0
  6 25  1  0
  5 26  2  0
 26 27  1  0
  4 28  1  0
  2 29  1  0
  1 30  1  0
 26  1  1  0
 17  8  1  0
 17 12  1  0
M  END
>  <cnnaffinity>  (1) 
4.90051

>  <plip>  (1) 
-0.13333333333333333

>  <filename>  (1) 
[H][c]1[n][c]([H])[c]([C]([H])([H])[N]([H])[c]2[c]([H])[c]([H])[n][c]3[c]([H])[c]([H])[c]([H])[n][c]23)[c]([H])[c]1[H]

>  <combo1>  (1) 
-0.9217973930896841

$$$$
