
     RDKit          3D

 31 33  0  0  0  0  0  0  0  0999 V2000
    4.5071   -5.6958   27.3372 H   0  0  0  0  0  0  0  0  0  0  0  0
    5.5459   -5.5251   27.0752 C   0  0  0  0  0  0  0  0  0  0  0  0
    5.7553   -4.6281   26.1074 N   0  0  0  0  0  0  0  0  0  0  0  0
    7.0324   -4.4183   25.7441 C   0  0  0  0  0  0  0  0  0  0  0  0
    7.2624   -3.5066   24.6582 C   0  0  0  0  0  0  0  0  0  0  0  0
    7.5591   -2.8011   23.7325 C   0  0  0  0  0  0  0  0  0  0  0  0
    7.8352   -2.0621   22.6312 N   0  0  0  0  0  0  0  0  0  0  0  0
    6.8799   -1.7706   21.6436 C   0  0  0  0  0  0  0  0  0  0  0  0
    5.7893   -2.2650   21.5349 O   0  0  0  0  0  0  0  0  0  0  0  0
    7.4693   -0.8374   20.8094 N   0  0  0  0  0  0  0  0  0  0  0  0
    6.7615   -0.0758   19.8532 C   0  0  0  0  0  0  0  0  0  0  0  0
    7.2888    0.0695   18.5533 C   0  0  0  0  0  0  0  0  0  0  0  0
    8.2481   -0.4029   18.3322 H   0  0  0  0  0  0  0  0  0  0  0  0
    6.6638    0.7177   17.5673 N   0  0  0  0  0  0  0  0  0  0  0  0
    5.4807    1.2826   17.8589 C   0  0  0  0  0  0  0  0  0  0  0  0
    5.0018    1.8001   17.0347 H   0  0  0  0  0  0  0  0  0  0  0  0
    4.8897    1.2320   19.1280 C   0  0  0  0  0  0  0  0  0  0  0  0
    3.9513    1.7467   19.2954 H   0  0  0  0  0  0  0  0  0  0  0  0
    5.5313    0.5339   20.1556 C   0  0  0  0  0  0  0  0  0  0  0  0
    5.1084    0.4655   21.1602 H   0  0  0  0  0  0  0  0  0  0  0  0
    8.8815   -0.6691   21.0775 C   0  0  0  0  0  0  0  0  0  0  0  0
    9.5379   -1.0780   20.2966 H   0  0  0  0  0  0  0  0  0  0  0  0
    9.1429    0.3801   21.2275 H   0  0  0  0  0  0  0  0  0  0  0  0
    9.0660   -1.4518   22.3516 C   0  0  0  0  0  0  0  0  0  0  0  0
   10.0681   -1.5425   22.9967 O   0  0  0  0  0  0  0  0  0  0  0  0
    8.1308   -5.0711   26.3380 C   0  0  0  0  0  0  0  0  0  0  0  0
    9.1356   -4.8546   25.9891 H   0  0  0  0  0  0  0  0  0  0  0  0
    7.8835   -5.9971   27.3465 C   0  0  0  0  0  0  0  0  0  0  0  0
    8.6963   -6.5323   27.8231 H   0  0  0  0  0  0  0  0  0  0  0  0
    6.5606   -6.2335   27.7222 C   0  0  0  0  0  0  0  0  0  0  0  0
    6.3134   -6.9622   28.4844 H   0  0  0  0  0  0  0  0  0  0  0  0
  1  2  1  0
  2  3  2  0
  3  4  1  0
  4  5  1  0
  5  6  3  0
  6  7  1  0
  7  8  1  0
  8  9  2  0
  8 10  1  0
 10 11  1  0
 11 12  2  0
 12 13  1  0
 12 14  1  0
 14 15  2  0
 15 16  1  0
 15 17  1  0
 17 18  1  0
 17 19  2  0
 19 20  1  0
 10 21  1  0
 21 22  1  0
 21 23  1  0
 21 24  1  0
 24 25  2  0
  4 26  2  0
 26 27  1  0
 26 28  1  0
 28 29  1  0
 28 30  2  0
 30 31  1  0
 30  2  1  0
 24  7  1  0
 19 11  1  0
M  END
>  <cnnaffinity>  (1) 
5.01976

>  <plip>  (1) 
-0.10714285714285714

>  <filename>  (1) 
[H][c]1[n][c]([C]#[C][N]2[C](=[O])[N]([c]3[c]([H])[n][c]([H])[c]([H])[c]3[H])[C]([H])([H])[C]2=[O])[c]([H])[c]([H])[c]1[H]

>  <combo1>  (1) 
-0.6442537772787781

$$$$
