
     RDKit          3D

 40 41  0  0  0  0  0  0  0  0999 V2000
   14.6079    1.2923   22.7099 N   0  0  0  0  0  4  0  0  0  0  0  0
   13.1084    1.4686   22.8172 C   0  0  0  0  0  0  0  0  0  0  0  0
   12.5803    0.3223   23.6946 C   0  0  0  0  0  0  0  0  0  0  0  0
   11.0787   -0.0077   23.6430 C   0  0  0  0  0  0  0  0  0  0  0  0
   10.6862   -0.6669   22.3205 C   0  0  0  0  0  0  0  0  0  0  0  0
    9.2305   -0.9292   22.2357 N   0  0  0  0  0  4  0  0  0  0  0  0
    8.7734   -2.3044   22.7066 C   0  0  0  0  0  0  0  0  0  0  0  0
    7.2694   -2.1983   22.9494 C   0  0  0  0  0  0  0  0  0  0  0  0
    6.5450   -1.5676   21.7742 C   0  0  0  0  0  0  0  0  0  0  0  0
    7.1653   -0.8185   20.8503 C   0  0  0  0  0  0  0  0  0  0  0  0
    6.4752   -0.0583   19.7783 C   0  0  0  0  0  0  0  0  0  0  0  0
    5.2848    0.6507   20.0100 C   0  0  0  0  0  0  0  0  0  0  0  0
    4.7257    1.3915   18.9672 C   0  0  0  0  0  0  0  0  0  0  0  0
    5.3611    1.3943   17.7200 C   0  0  0  0  0  0  0  0  0  0  0  0
    6.4966    0.7230   17.4749 N   0  0  0  0  0  0  0  0  0  0  0  0
    7.0323    0.0361   18.4859 C   0  0  0  0  0  0  0  0  0  0  0  0
    7.9741   -0.4672   18.2648 H   0  0  0  0  0  0  0  0  0  0  0  0
    4.9507    1.9557   16.8831 H   0  0  0  0  0  0  0  0  0  0  0  0
    3.8216    1.9719   19.1020 H   0  0  0  0  0  0  0  0  0  0  0  0
    4.8389    0.6517   21.0061 H   0  0  0  0  0  0  0  0  0  0  0  0
    8.6727   -0.6957   20.8517 C   0  0  0  0  0  0  0  0  0  0  0  0
    9.1181   -1.4167   20.1491 H   0  0  0  0  0  0  0  0  0  0  0  0
    8.9483    0.3031   20.5007 H   0  0  0  0  0  0  0  0  0  0  0  0
    5.4668   -1.6985   21.7187 H   0  0  0  0  0  0  0  0  0  0  0  0
    7.1142   -1.5737   23.8400 H   0  0  0  0  0  0  0  0  0  0  0  0
    6.8432   -3.1744   23.1965 H   0  0  0  0  0  0  0  0  0  0  0  0
    9.3169   -2.5959   23.6132 H   0  0  0  0  0  0  0  0  0  0  0  0
    9.0018   -3.0402   21.9258 H   0  0  0  0  0  0  0  0  0  0  0  0
    8.7310   -0.2502   22.8600 H   0  0  0  0  0  0  0  0  0  0  0  0
   11.2420   -1.6095   22.1990 H   0  0  0  0  0  0  0  0  0  0  0  0
   10.9847   -0.0213   21.4823 H   0  0  0  0  0  0  0  0  0  0  0  0
   10.8279   -0.7083   24.4570 H   0  0  0  0  0  0  0  0  0  0  0  0
   10.4385    0.8725   23.8063 H   0  0  0  0  0  0  0  0  0  0  0  0
   12.8894    0.5079   24.7327 H   0  0  0  0  0  0  0  0  0  0  0  0
   13.1227   -0.5738   23.3652 H   0  0  0  0  0  0  0  0  0  0  0  0
   12.8718    2.4540   23.2416 H   0  0  0  0  0  0  0  0  0  0  0  0
   12.6876    1.4403   21.8055 H   0  0  0  0  0  0  0  0  0  0  0  0
   15.0131    1.1252   23.6486 H   0  0  0  0  0  0  0  0  0  0  0  0
   15.0727    2.1256   22.3080 H   0  0  0  0  0  0  0  0  0  0  0  0
   14.8455    0.4701   22.1243 H   0  0  0  0  0  0  0  0  0  0  0  0
  1  2  1  0
  2  3  1  0
  3  4  1  0
  4  5  1  0
  5  6  1  0
  6  7  1  0
  7  8  1  0
  8  9  1  0
  9 10  2  0
 10 11  1  0
 11 12  2  0
 12 13  1  0
 13 14  2  0
 14 15  1  0
 15 16  2  0
 16 17  1  0
 14 18  1  0
 13 19  1  0
 12 20  1  0
 10 21  1  0
 21 22  1  0
 21 23  1  0
  9 24  1  0
  8 25  1  0
  8 26  1  0
  7 27  1  0
  7 28  1  0
  6 29  1  0
  5 30  1  0
  5 31  1  0
  4 32  1  0
  4 33  1  0
  3 34  1  0
  3 35  1  0
  2 36  1  0
  2 37  1  0
  1 38  1  0
  1 39  1  0
  1 40  1  0
 21  6  1  0
 16 11  1  0
M  CHG  2   1   1   6   1
M  END
>  <cnnaffinity>  (1) 
4.81129

>  <plip>  (1) 
-0.03225806451612903

>  <filename>  (1) 
[H][C]1=[C]([c]2[c]([H])[n][c]([H])[c]([H])[c]2[H])[C]([H])([H])[N+]([H])([C]([H])([H])[C]([H])([H])[C]([H])([H])[C]([H])([H])[N+]([H])([H])[H])[C]([H])([H])[C]1([H])[H]

>  <combo1>  (1) 
-0.22169404683457147

$$$$
