
     RDKit          3D

 41 42  0  0  0  0  0  0  0  0999 V2000
    8.2150    0.7683   22.6718 C   0  0  0  0  0  0  0  0  0  0  0  0
    8.5435   -0.1141   21.4690 C   0  0  0  0  0  0  0  0  0  0  0  0
    7.3754   -0.7892   20.8925 N   0  0  0  0  0  0  0  0  0  0  0  0
    6.7184   -1.8412   21.5567 C   0  0  0  0  0  0  0  0  0  0  0  0
    5.5841   -2.1713   21.2574 O   0  0  0  0  0  0  0  0  0  0  0  0
    7.5074   -2.5819   22.5901 C   0  0  0  0  0  0  0  0  0  0  0  0
    6.9879   -3.2821   23.6188 C   0  0  0  0  0  0  0  0  0  0  0  0
    5.5395   -3.2504   24.0107 C   0  0  0  0  0  0  0  0  0  0  0  0
    5.3395   -2.2909   24.5082 H   0  0  0  0  0  0  0  0  0  0  0  0
    5.2892   -4.0612   24.7072 H   0  0  0  0  0  0  0  0  0  0  0  0
    4.8944   -3.3103   23.1338 H   0  0  0  0  0  0  0  0  0  0  0  0
    7.8931   -4.0181   24.5509 C   0  0  0  0  0  0  0  0  0  0  0  0
    7.6850   -5.4004   24.7175 C   0  0  0  0  0  0  0  0  0  0  0  0
    8.4931   -6.1468   25.5721 C   0  0  0  0  0  0  0  0  0  0  0  0
    9.5410   -5.5367   26.2541 C   0  0  0  0  0  0  0  0  0  0  0  0
    9.7142   -4.1676   26.1328 C   0  0  0  0  0  0  0  0  0  0  0  0
    8.8565   -3.3795   25.3615 C   0  0  0  0  0  0  0  0  0  0  0  0
    8.9214   -1.8673   25.4887 C   0  0  0  0  0  0  0  0  0  0  0  0
    9.6920   -1.3225   24.5217 F   0  0  0  0  0  0  0  0  0  0  0  0
    9.4220   -1.4592   26.6709 F   0  0  0  0  0  0  0  0  0  0  0  0
    7.6992   -1.2963   25.3986 F   0  0  0  0  0  0  0  0  0  0  0  0
   10.4978   -3.7162   26.6984 H   0  0  0  0  0  0  0  0  0  0  0  0
   10.1938   -6.1037   26.9084 H   0  0  0  0  0  0  0  0  0  0  0  0
    8.2973   -7.1884   25.7624 H   0  0  0  0  0  0  0  0  0  0  0  0
    6.8612   -5.8651   24.1825 H   0  0  0  0  0  0  0  0  0  0  0  0
    8.5791   -2.5721   22.4443 H   0  0  0  0  0  0  0  0  0  0  0  0
    6.6781   -0.0697   19.8492 C   0  0  0  0  0  0  0  0  0  0  0  0
    5.4582    0.5717   20.1012 C   0  0  0  0  0  0  0  0  0  0  0  0
    4.8480    1.2967   19.0692 C   0  0  0  0  0  0  0  0  0  0  0  0
    5.4622    1.3388   17.8132 C   0  0  0  0  0  0  0  0  0  0  0  0
    6.6267    0.7232   17.5487 N   0  0  0  0  0  0  0  0  0  0  0  0
    7.2196    0.0576   18.5501 C   0  0  0  0  0  0  0  0  0  0  0  0
    8.1678   -0.4264   18.3157 H   0  0  0  0  0  0  0  0  0  0  0  0
    5.0044    1.8833   16.9868 H   0  0  0  0  0  0  0  0  0  0  0  0
    3.9143    1.8284   19.2275 H   0  0  0  0  0  0  0  0  0  0  0  0
    5.0020    0.4889   21.0860 H   0  0  0  0  0  0  0  0  0  0  0  0
    9.2943   -0.8584   21.7512 H   0  0  0  0  0  0  0  0  0  0  0  0
    8.9986    0.4868   20.6716 H   0  0  0  0  0  0  0  0  0  0  0  0
    7.7904    0.1916   23.5004 H   0  0  0  0  0  0  0  0  0  0  0  0
    7.5084    1.5627   22.4107 H   0  0  0  0  0  0  0  0  0  0  0  0
    9.1319    1.2429   23.0348 H   0  0  0  0  0  0  0  0  0  0  0  0
  1  2  1  0
  2  3  1  0
  3  4  1  0
  4  5  2  0
  4  6  1  0
  6  7  2  3
  7  8  1  0
  8  9  1  0
  8 10  1  0
  8 11  1  0
  7 12  1  0
 12 13  2  0
 13 14  1  0
 14 15  2  0
 15 16  1  0
 16 17  2  0
 17 18  1  0
 18 19  1  0
 18 20  1  0
 18 21  1  0
 16 22  1  0
 15 23  1  0
 14 24  1  0
 13 25  1  0
  6 26  1  0
  3 27  1  0
 27 28  2  0
 28 29  1  0
 29 30  2  0
 30 31  1  0
 31 32  2  0
 32 33  1  0
 30 34  1  0
 29 35  1  0
 28 36  1  0
  2 37  1  0
  2 38  1  0
  1 39  1  0
  1 40  1  0
  1 41  1  0
 17 12  1  0
 32 27  1  0
M  END
>  <cnnaffinity>  (1) 
5.58008

>  <plip>  (1) 
-0.10344827586206896

>  <filename>  (1) 
[H][C]([C](=[O])[N]([c]1[c]([H])[n][c]([H])[c]([H])[c]1[H])[C]([H])([H])[C]([H])([H])[H])=[C]([c]1[c]([H])[c]([H])[c]([H])[c]([H])[c]1[C]([F])([F])[F])[C]([H])([H])[H]

>  <combo1>  (1) 
-0.5755098887786361

$$$$
