
     RDKit          3D

 31 33  0  0  0  0  0  0  0  0999 V2000
    4.9210    1.7994   16.9789 H   0  0  0  0  0  0  0  0  0  0  0  0
    5.3851    1.2998   17.8275 C   0  0  0  0  0  0  0  0  0  0  0  0
    6.5432    0.6718   17.5685 N   0  0  0  0  0  0  0  0  0  0  0  0
    7.1501    0.0528   18.5851 C   0  0  0  0  0  0  0  0  0  0  0  0
    8.1117   -0.4103   18.3843 H   0  0  0  0  0  0  0  0  0  0  0  0
    6.6294   -0.0059   19.8929 C   0  0  0  0  0  0  0  0  0  0  0  0
    7.3584   -0.6830   20.9005 N   0  0  0  0  0  0  0  0  0  0  0  0
    8.7623   -0.6600   21.1317 C   0  0  0  0  0  0  0  0  0  0  0  0
    9.5803   -0.0500   20.4619 O   0  0  0  0  0  0  0  0  0  0  0  0
    8.9278   -1.4978   22.2939 C   0  0  0  0  0  0  0  0  0  0  0  0
    9.8879   -1.6720   22.7372 H   0  0  0  0  0  0  0  0  0  0  0  0
    7.7142   -1.9411   22.7170 C   0  0  0  0  0  0  0  0  0  0  0  0
    7.3849   -2.8252   23.8670 C   0  0  0  0  0  0  0  0  0  0  0  0
    6.1085   -2.8561   24.4536 C   0  0  0  0  0  0  0  0  0  0  0  0
    5.3284   -2.2196   24.0726 H   0  0  0  0  0  0  0  0  0  0  0  0
    5.8367   -3.6783   25.5488 C   0  0  0  0  0  0  0  0  0  0  0  0
    4.8354   -3.6832   25.9777 H   0  0  0  0  0  0  0  0  0  0  0  0
    6.8393   -4.4861   26.0866 C   0  0  0  0  0  0  0  0  0  0  0  0
    6.6582   -5.1364   26.9378 H   0  0  0  0  0  0  0  0  0  0  0  0
    8.1255   -4.4640   25.5177 C   0  0  0  0  0  0  0  0  0  0  0  0
    9.1181   -5.2456   26.0371 N   0  0  0  0  0  0  0  0  0  0  0  0
   10.0398   -5.2269   25.6444 H   0  0  0  0  0  0  0  0  0  0  0  0
    8.9304   -5.8370   26.8235 H   0  0  0  0  0  0  0  0  0  0  0  0
    8.3862   -3.6386   24.4148 C   0  0  0  0  0  0  0  0  0  0  0  0
    9.3872   -3.6423   23.9949 H   0  0  0  0  0  0  0  0  0  0  0  0
    6.7593   -1.4053   21.9107 N   0  0  0  0  0  0  0  0  0  0  0  0
    5.7758   -1.6149   21.8930 H   0  0  0  0  0  0  0  0  0  0  0  0
    5.4182    0.6503   20.1555 C   0  0  0  0  0  0  0  0  0  0  0  0
    5.0156    0.6464   21.1690 H   0  0  0  0  0  0  0  0  0  0  0  0
    4.7944    1.3176   19.0978 C   0  0  0  0  0  0  0  0  0  0  0  0
    3.8654    1.8530   19.2460 H   0  0  0  0  0  0  0  0  0  0  0  0
  1  2  1  0
  2  3  2  0
  3  4  1  0
  4  5  1  0
  4  6  2  0
  6  7  1  0
  7  8  1  0
  8  9  2  0
  8 10  1  0
 10 11  1  0
 10 12  2  0
 12 13  1  0
 13 14  2  0
 14 15  1  0
 14 16  1  0
 16 17  1  0
 16 18  2  0
 18 19  1  0
 18 20  1  0
 20 21  1  0
 21 22  1  0
 21 23  1  0
 20 24  2  0
 24 25  1  0
 12 26  1  0
 26 27  1  0
  6 28  1  0
 28 29  1  0
 28 30  2  0
 30 31  1  0
 30  2  1  0
 26  7  1  0
 24 13  1  0
M  END
>  <cnnaffinity>  (1) 
5.04521

>  <plip>  (1) 
-0.14285714285714285

>  <filename>  (1) 
[H][c]1[n][c]([H])[c](-[n]2[c](=[O])[c]([H])[c](-[c]3[c]([H])[c]([H])[c]([H])[c]([N]([H])[H])[c]3[H])[n]2[H])[c]([H])[c]1[H]

>  <combo1>  (1) 
-0.9523186625736599

$$$$
