
     RDKit          3D

 33 35  0  0  0  0  0  0  0  0999 V2000
   11.3106    2.6180   19.8384 H   0  0  0  0  0  0  0  0  0  0  0  0
   11.5026    2.2362   20.7038 O   0  0  0  0  0  0  0  0  0  0  0  0
   10.4078    1.4968   21.2135 C   0  0  2  0  0  0  0  0  0  0  0  0
   10.0850    0.7050   20.5177 H   0  0  0  0  0  0  0  0  0  0  0  0
    9.1451    2.3304   21.5788 C   0  0  0  0  0  0  0  0  0  0  0  0
    8.3632    2.1672   20.8320 H   0  0  0  0  0  0  0  0  0  0  0  0
    9.3650    3.4072   21.6172 H   0  0  0  0  0  0  0  0  0  0  0  0
    8.7017    1.8868   22.9020 N   0  0  0  0  0  0  0  0  0  0  0  0
    7.5770    0.9557   22.9333 C   0  0  0  0  0  0  0  0  0  0  0  0
    6.7046    1.4723   22.5239 H   0  0  0  0  0  0  0  0  0  0  0  0
    7.3582    0.7563   23.9891 H   0  0  0  0  0  0  0  0  0  0  0  0
    7.6961   -0.4037   22.2865 C   0  0  0  0  0  0  0  0  0  0  0  0
    8.1661   -1.4454   22.9320 N   0  0  0  0  0  0  0  0  0  0  0  0
    7.9746   -2.5556   22.1538 N   0  0  0  0  0  0  0  0  0  0  0  0
    7.3940   -2.1629   21.0594 C   0  0  0  0  0  0  0  0  0  0  0  0
    7.0426   -2.8141   20.2747 H   0  0  0  0  0  0  0  0  0  0  0  0
    7.2155   -0.7960   21.0437 N   0  0  0  0  0  0  0  0  0  0  0  0
    6.6216   -0.0271   19.9794 C   0  0  0  0  0  0  0  0  0  0  0  0
    7.1934    0.0183   18.6868 C   0  0  0  0  0  0  0  0  0  0  0  0
    8.1302   -0.5044   18.4867 H   0  0  0  0  0  0  0  0  0  0  0  0
    6.6480    0.6704   17.6514 N   0  0  0  0  0  0  0  0  0  0  0  0
    5.4863    1.3128   17.8596 C   0  0  0  0  0  0  0  0  0  0  0  0
    5.0559    1.8213   16.9977 H   0  0  0  0  0  0  0  0  0  0  0  0
    4.8386    1.3308   19.0972 C   0  0  0  0  0  0  0  0  0  0  0  0
    3.9002    1.8648   19.2061 H   0  0  0  0  0  0  0  0  0  0  0  0
    5.4176    0.6609   20.1831 C   0  0  0  0  0  0  0  0  0  0  0  0
    4.9430    0.6509   21.1647 H   0  0  0  0  0  0  0  0  0  0  0  0
    9.9292    1.4773   23.5926 C   0  0  0  0  0  0  0  0  0  0  0  0
   10.4050    2.3748   24.0079 H   0  0  0  0  0  0  0  0  0  0  0  0
    9.7169    0.8159   24.4389 H   0  0  0  0  0  0  0  0  0  0  0  0
   10.8377    0.8376   22.5356 C   0  0  0  0  0  0  0  0  0  0  0  0
   11.9000    0.9995   22.7403 H   0  0  0  0  0  0  0  0  0  0  0  0
   10.6687   -0.2406   22.4916 H   0  0  0  0  0  0  0  0  0  0  0  0
  1  2  1  0
  2  3  1  0
  3  4  1  6
  3  5  1  0
  5  6  1  0
  5  7  1  0
  5  8  1  0
  8  9  1  0
  9 10  1  0
  9 11  1  0
  9 12  1  0
 12 13  2  0
 13 14  1  0
 14 15  2  0
 15 16  1  0
 15 17  1  0
 17 18  1  0
 18 19  2  0
 19 20  1  0
 19 21  1  0
 21 22  2  0
 22 23  1  0
 22 24  1  0
 24 25  1  0
 24 26  2  0
 26 27  1  0
  8 28  1  0
 28 29  1  0
 28 30  1  0
 28 31  1  0
 31 32  1  0
 31 33  1  0
 31  3  1  0
 17 12  1  0
 26 18  1  0
M  END
>  <cnnaffinity>  (1) 
4.81878

>  <plip>  (1) 
-0.10344827586206896

>  <filename>  (1) 
[H][O][C@]1([H])[C]([H])([H])[N]([C]([H])([H])[c]2[n][n][c]([H])[n]2-[c]2[c]([H])[n][c]([H])[c]([H])[c]2[H])[C]([H])([H])[C]1([H])[H]

>  <combo1>  (1) 
-0.6774329867428508

$$$$
