
     RDKit          3D

 36 39  0  0  0  0  0  0  0  0999 V2000
   14.3594    5.4200   21.8471 F   0  0  0  0  0  0  0  0  0  0  0  0
   13.4934    4.6807   22.5610 C   0  0  0  0  0  0  0  0  0  0  0  0
   12.3537    5.2768   23.0925 C   0  0  0  0  0  0  0  0  0  0  0  0
   11.4561    4.5034   23.8360 C   0  0  0  0  0  0  0  0  0  0  0  0
   11.6833    3.1245   23.9953 C   0  0  0  0  0  0  0  0  0  0  0  0
   10.5123    2.1269   24.8821 S   0  0  0  0  0  0  0  0  0  0  0  0
    9.2921    1.8087   23.5681 C   0  0  0  0  0  0  0  0  0  0  0  0
    8.1236    0.9529   24.0813 C   0  0  0  0  0  0  0  0  0  0  0  0
    7.0352    0.8063   22.9911 C   0  0  0  0  0  0  0  0  0  0  0  0
    7.5262   -0.2794   22.1619 N   0  0  0  0  0  0  0  0  0  0  0  0
    8.3356   -1.1933   22.7603 C   0  0  0  0  0  0  0  0  0  0  0  0
    8.7277   -2.1121   21.9256 N   0  0  0  0  0  0  0  0  0  0  0  0
    8.1580   -1.7860   20.7098 N   0  0  0  0  0  0  0  0  0  0  0  0
    7.4404   -0.7009   20.8679 C   0  0  0  0  0  0  0  0  0  0  0  0
    6.6533   -0.0060   19.8491 C   0  0  0  0  0  0  0  0  0  0  0  0
    5.4371    0.6422   20.1065 C   0  0  0  0  0  0  0  0  0  0  0  0
    4.8092    1.3086   19.0560 C   0  0  0  0  0  0  0  0  0  0  0  0
    5.4174    1.3086   17.7956 C   0  0  0  0  0  0  0  0  0  0  0  0
    6.5629    0.6628   17.5319 N   0  0  0  0  0  0  0  0  0  0  0  0
    7.1532    0.0154   18.5398 C   0  0  0  0  0  0  0  0  0  0  0  0
    8.0754   -0.5120   18.3074 H   0  0  0  0  0  0  0  0  0  0  0  0
    4.9635    1.8420   16.9614 H   0  0  0  0  0  0  0  0  0  0  0  0
    3.8768    1.8384   19.2019 H   0  0  0  0  0  0  0  0  0  0  0  0
    4.9855    0.6242   21.1007 H   0  0  0  0  0  0  0  0  0  0  0  0
    8.6590   -0.7881   24.4325 S   0  0  0  0  0  0  0  0  0  0  0  0
    6.0653    0.5463   23.4384 H   0  0  0  0  0  0  0  0  0  0  0  0
    6.9118    1.7249   22.4064 H   0  0  0  0  0  0  0  0  0  0  0  0
    7.7051    1.3732   24.9985 H   0  0  0  0  0  0  0  0  0  0  0  0
    9.7840    1.2887   22.7381 H   0  0  0  0  0  0  0  0  0  0  0  0
    8.9113    2.7669   23.1953 H   0  0  0  0  0  0  0  0  0  0  0  0
   12.8413    2.5456   23.4500 C   0  0  0  0  0  0  0  0  0  0  0  0
   13.7629    3.3278   22.7487 C   0  0  0  0  0  0  0  0  0  0  0  0
   14.6883    2.9151   22.3668 H   0  0  0  0  0  0  0  0  0  0  0  0
   13.0151    1.4758   23.5539 H   0  0  0  0  0  0  0  0  0  0  0  0
   10.5682    4.9634   24.2667 H   0  0  0  0  0  0  0  0  0  0  0  0
   12.1638    6.3237   22.9170 H   0  0  0  0  0  0  0  0  0  0  0  0
  1  2  1  0
  2  3  2  0
  3  4  1  0
  4  5  2  0
  5  6  1  0
  6  7  1  0
  7  8  1  0
  8  9  1  0
  9 10  1  0
 10 11  1  0
 11 12  2  0
 12 13  1  0
 13 14  2  0
 14 15  1  0
 15 16  2  0
 16 17  1  0
 17 18  2  0
 18 19  1  0
 19 20  2  0
 20 21  1  0
 18 22  1  0
 17 23  1  0
 16 24  1  0
 11 25  1  0
  9 26  1  0
  9 27  1  0
  8 28  1  0
  7 29  1  0
  7 30  1  0
  5 31  1  0
 31 32  2  0
 32 33  1  0
 31 34  1  0
  4 35  1  0
  3 36  1  0
 32  2  1  0
 25  8  1  0
 14 10  1  0
 20 15  1  0
M  END
>  <cnnaffinity>  (1) 
5.78836

>  <plip>  (1) 
-0.06666666666666667

>  <filename>  (1) 
[H][c]1[n][c]([H])[c](-[c]2[n][n][c]3[n]2[C]([H])([H])[C]([H])([C]([H])([H])[S][c]2[c]([H])[c]([H])[c]([F])[c]([H])[c]2[H])[S]3)[c]([H])[c]1[H]

>  <combo1>  (1) 
-0.37344739932128185

$$$$
