
     RDKit          3D

 32 34  0  0  0  0  0  0  0  0999 V2000
    9.3529   -0.3592   19.6430 O   0  0  0  0  0  0  0  0  0  0  0  0
    8.2885   -0.0037   20.1124 C   0  0  0  0  0  0  0  0  0  0  0  0
    8.1310    0.1221   21.6118 C   0  0  0  0  0  0  0  0  0  0  0  0
    6.9084   -1.1102   22.1920 S   0  0  0  0  0  0  0  0  0  0  0  0
    6.6167   -0.6975   23.8977 C   0  0  0  0  0  0  0  0  0  0  0  0
    5.8965    0.4275   24.2645 C   0  0  0  0  0  0  0  0  0  0  0  0
    5.5221    0.6048   25.6218 C   0  0  0  0  0  0  0  0  0  0  0  0
    5.8041   -0.2322   26.5918 N   0  0  0  0  0  0  0  0  0  0  0  0
    6.5221   -1.3515   26.2560 C   0  0  0  0  0  0  0  0  0  0  0  0
    6.7609   -2.3022   27.2869 C   0  0  0  0  0  0  0  0  0  0  0  0
    7.5311   -3.4234   27.0560 C   0  0  0  0  0  0  0  0  0  0  0  0
    8.0569   -3.6614   25.7537 C   0  0  0  0  0  0  0  0  0  0  0  0
    7.7882   -2.7969   24.7160 C   0  0  0  0  0  0  0  0  0  0  0  0
    6.9935   -1.6290   24.9294 C   0  0  0  0  0  0  0  0  0  0  0  0
    8.1744   -2.9842   23.7124 H   0  0  0  0  0  0  0  0  0  0  0  0
    8.6650   -4.5451   25.5699 H   0  0  0  0  0  0  0  0  0  0  0  0
    7.7148   -4.1464   27.8510 H   0  0  0  0  0  0  0  0  0  0  0  0
    6.2864   -2.0626   28.2325 H   0  0  0  0  0  0  0  0  0  0  0  0
    4.9223    1.4772   25.8887 H   0  0  0  0  0  0  0  0  0  0  0  0
    5.5861    1.1774   23.5430 H   0  0  0  0  0  0  0  0  0  0  0  0
    7.7998    1.1338   21.8497 H   0  0  0  0  0  0  0  0  0  0  0  0
    9.1072   -0.0641   22.0603 H   0  0  0  0  0  0  0  0  0  0  0  0
    7.1557    0.3988   19.2385 C   0  0  0  0  0  0  0  0  0  0  0  0
    5.9163    0.8975   19.6752 C   0  0  0  0  0  0  0  0  0  0  0  0
    5.0171    1.3684   18.7222 C   0  0  0  0  0  0  0  0  0  0  0  0
    5.3847    1.3255   17.3767 C   0  0  0  0  0  0  0  0  0  0  0  0
    6.5346    0.7949   16.9453 N   0  0  0  0  0  0  0  0  0  0  0  0
    7.3906    0.3453   17.8621 C   0  0  0  0  0  0  0  0  0  0  0  0
    8.3271   -0.0611   17.4852 H   0  0  0  0  0  0  0  0  0  0  0  0
    4.7528    1.7565   16.6082 H   0  0  0  0  0  0  0  0  0  0  0  0
    4.0650    1.7963   19.0120 H   0  0  0  0  0  0  0  0  0  0  0  0
    5.6466    0.9190   20.7317 H   0  0  0  0  0  0  0  0  0  0  0  0
  1  2  2  0
  2  3  1  0
  3  4  1  0
  4  5  1  0
  5  6  2  0
  6  7  1  0
  7  8  2  0
  8  9  1  0
  9 10  2  0
 10 11  1  0
 11 12  2  0
 12 13  1  0
 13 14  2  0
 13 15  1  0
 12 16  1  0
 11 17  1  0
 10 18  1  0
  7 19  1  0
  6 20  1  0
  3 21  1  0
  3 22  1  0
  2 23  1  0
 23 24  2  0
 24 25  1  0
 25 26  2  0
 26 27  1  0
 27 28  2  0
 28 29  1  0
 26 30  1  0
 25 31  1  0
 24 32  1  0
 14  5  1  0
 28 23  1  0
 14  9  1  0
M  END
>  <cnnaffinity>  (1) 
4.72219

>  <plip>  (1) 
-0.10714285714285714

>  <filename>  (1) 
[H][c]1[n][c]([H])[c]([C](=[O])[C]([H])([H])[S][c]2[c]([H])[c]([H])[n][c]3[c]([H])[c]([H])[c]([H])[c]([H])[c]23)[c]([H])[c]1[H]

>  <combo1>  (1) 
-0.6015639012995908

$$$$
