
     RDKit          3D

 26 28  0  0  0  0  0  0  0  0999 V2000
    4.9365    1.7824   17.0306 H   0  0  0  0  0  0  0  0  0  0  0  0
    5.4117    1.2720   17.8657 C   0  0  0  0  0  0  0  0  0  0  0  0
    6.5688    0.6464   17.5925 N   0  0  0  0  0  0  0  0  0  0  0  0
    7.1988    0.0358   18.6025 C   0  0  0  0  0  0  0  0  0  0  0  0
    8.1477   -0.4364   18.3628 H   0  0  0  0  0  0  0  0  0  0  0  0
    6.6969   -0.0181   19.9283 C   0  0  0  0  0  0  0  0  0  0  0  0
    7.3962   -0.6943   21.0058 N   0  0  0  0  0  0  0  0  0  0  0  0
    8.7730   -0.6482   21.1992 C   0  0  0  0  0  0  0  0  0  0  0  0
    9.5696   -0.0595   20.5177 O   0  0  0  0  0  0  0  0  0  0  0  0
    9.0227   -1.5334   22.4347 C   0  0  0  0  0  0  0  0  0  0  0  0
   10.0609   -1.8377   22.9611 O   0  0  0  0  0  0  0  0  0  0  0  0
    7.7894   -1.9760   22.8298 N   0  0  0  0  0  0  0  0  0  0  0  0
    7.5917   -2.8197   23.9258 C   0  0  0  0  0  0  0  0  0  0  0  0
    6.3709   -3.1925   24.2595 N   0  0  0  0  0  0  0  0  0  0  0  0
    6.5560   -3.9642   25.3410 N   0  0  0  0  0  0  0  0  0  0  0  0
    5.7517   -4.3713   25.8003 H   0  0  0  0  0  0  0  0  0  0  0  0
    7.8612   -4.0848   25.6934 C   0  0  0  0  0  0  0  0  0  0  0  0
    8.1507   -4.6808   26.5506 H   0  0  0  0  0  0  0  0  0  0  0  0
    8.5845   -3.3454   24.7865 C   0  0  0  0  0  0  0  0  0  0  0  0
    9.6476   -3.1744   24.7053 H   0  0  0  0  0  0  0  0  0  0  0  0
    6.8314   -1.6450   21.8826 C   0  0  0  0  0  0  0  0  0  0  0  0
    5.7556   -2.1449   21.7556 O   0  0  0  0  0  0  0  0  0  0  0  0
    5.4759    0.6177   20.1845 C   0  0  0  0  0  0  0  0  0  0  0  0
    5.0503    0.5738   21.1839 H   0  0  0  0  0  0  0  0  0  0  0  0
    4.8275    1.2869   19.1354 C   0  0  0  0  0  0  0  0  0  0  0  0
    3.8932    1.8228   19.2881 H   0  0  0  0  0  0  0  0  0  0  0  0
  1  2  1  0
  2  3  2  0
  3  4  1  0
  4  5  1  0
  4  6  2  0
  6  7  1  0
  7  8  1  0
  8  9  2  0
  8 10  1  0
 10 11  2  0
 10 12  1  0
 12 13  1  0
 13 14  2  0
 14 15  1  0
 15 16  1  0
 15 17  1  0
 17 18  1  0
 17 19  2  0
 19 20  1  0
 12 21  1  0
 21 22  2  0
  6 23  1  0
 23 24  1  0
 23 25  2  0
 25 26  1  0
 25  2  1  0
 21  7  1  0
 19 13  1  0
M  END
>  <cnnaffinity>  (1) 
4.59257

>  <plip>  (1) 
-0.07142857142857142

>  <filename>  (1) 
[H][c]1[n][c]([H])[c]([N]2[C](=[O])[C](=[O])[N]([c]3[n][n]([H])[c]([H])[c]3[H])[C]2=[O])[c]([H])[c]1[H]

>  <combo1>  (1) 
-0.4251286104370561

$$$$
