
     RDKit          3D

 43 45  0  0  0  0  0  0  0  0999 V2000
   10.0212   -2.3993   24.1503 C   0  0  0  0  0  0  0  0  0  0  0  0
    8.9924   -1.5759   23.3773 C   0  0  0  0  0  0  0  0  0  0  0  0
    9.5840   -0.9332   22.1218 C   0  0  0  0  0  0  0  0  0  0  0  0
    8.5965   -0.0336   21.3896 N   0  0  0  0  0  4  0  0  0  0  0  0
    7.2985   -0.7201   20.9937 C   0  0  0  0  0  0  0  0  0  0  0  0
    6.6155    0.0452   19.8936 C   0  0  0  0  0  0  0  0  0  0  0  0
    5.3822    0.6873   20.0784 C   0  0  0  0  0  0  0  0  0  0  0  0
    4.8085    1.3679   19.0013 C   0  0  0  0  0  0  0  0  0  0  0  0
    5.4787    1.3685   17.7759 C   0  0  0  0  0  0  0  0  0  0  0  0
    6.6525    0.7488   17.5796 N   0  0  0  0  0  0  0  0  0  0  0  0
    7.2042    0.1210   18.6240 C   0  0  0  0  0  0  0  0  0  0  0  0
    8.1550   -0.3780   18.4219 H   0  0  0  0  0  0  0  0  0  0  0  0
    5.0542    1.8792   16.9108 H   0  0  0  0  0  0  0  0  0  0  0  0
    3.8644    1.8947   19.0956 H   0  0  0  0  0  0  0  0  0  0  0  0
    4.8883    0.6589   21.0522 H   0  0  0  0  0  0  0  0  0  0  0  0
    7.5193   -1.7469   20.6771 H   0  0  0  0  0  0  0  0  0  0  0  0
    6.6464   -0.7793   21.8742 H   0  0  0  0  0  0  0  0  0  0  0  0
    8.3132    1.2706   22.1865 C   0  0  0  0  0  0  0  0  0  0  0  0
    9.5491    2.0179   22.6443 C   0  0  0  0  0  0  0  0  0  0  0  0
    9.7623    2.2912   24.0432 C   0  0  0  0  0  0  0  0  0  0  0  0
   10.7084    3.0997   24.4809 N   0  0  0  0  0  0  0  0  0  0  0  0
   11.5065    3.6807   23.5201 C   0  0  0  0  0  0  0  0  0  0  0  0
   12.4629    4.6602   23.9026 C   0  0  0  0  0  0  0  0  0  0  0  0
   13.2760    5.2322   22.9451 C   0  0  0  0  0  0  0  0  0  0  0  0
   13.1951    4.8216   21.5805 C   0  0  0  0  0  0  0  0  0  0  0  0
   12.2594    3.8909   21.1848 C   0  0  0  0  0  0  0  0  0  0  0  0
   11.3684    3.3271   22.1367 C   0  0  0  0  0  0  0  0  0  0  0  0
   10.3729    2.4714   21.7083 N   0  0  0  0  0  0  0  0  0  0  0  0
   12.0990    3.5943   20.1548 H   0  0  0  0  0  0  0  0  0  0  0  0
   13.8714    5.2448   20.8417 H   0  0  0  0  0  0  0  0  0  0  0  0
   13.9852    6.0077   23.2131 H   0  0  0  0  0  0  0  0  0  0  0  0
   12.4858    4.9485   24.9528 H   0  0  0  0  0  0  0  0  0  0  0  0
    9.0997    1.8470   24.7886 H   0  0  0  0  0  0  0  0  0  0  0  0
    7.6662    1.0365   23.0365 H   0  0  0  0  0  0  0  0  0  0  0  0
    7.7561    1.9296   21.5153 H   0  0  0  0  0  0  0  0  0  0  0  0
    9.0238    0.3026   20.4940 H   0  0  0  0  0  0  0  0  0  0  0  0
   10.4515   -0.3197   22.3869 H   0  0  0  0  0  0  0  0  0  0  0  0
    9.9547   -1.7229   21.4509 H   0  0  0  0  0  0  0  0  0  0  0  0
    8.1458   -2.2041   23.0783 H   0  0  0  0  0  0  0  0  0  0  0  0
    8.5831   -0.7899   24.0259 H   0  0  0  0  0  0  0  0  0  0  0  0
   10.7589   -1.7455   24.6270 H   0  0  0  0  0  0  0  0  0  0  0  0
   10.5603   -3.0951   23.4940 H   0  0  0  0  0  0  0  0  0  0  0  0
    9.5522   -2.9940   24.9425 H   0  0  0  0  0  0  0  0  0  0  0  0
  1  2  1  0
  2  3  1  0
  3  4  1  0
  4  5  1  0
  5  6  1  0
  6  7  2  0
  7  8  1  0
  8  9  2  0
  9 10  1  0
 10 11  2  0
 11 12  1  0
  9 13  1  0
  8 14  1  0
  7 15  1  0
  5 16  1  0
  5 17  1  0
  4 18  1  0
 18 19  1  0
 19 20  2  0
 20 21  1  0
 21 22  2  0
 22 23  1  0
 23 24  2  0
 24 25  1  0
 25 26  2  0
 26 27  1  0
 27 28  2  0
 26 29  1  0
 25 30  1  0
 24 31  1  0
 23 32  1  0
 20 33  1  0
 18 34  1  0
 18 35  1  0
  4 36  1  0
  3 37  1  0
  3 38  1  0
  2 39  1  0
  2 40  1  0
  1 41  1  0
  1 42  1  0
  1 43  1  0
 11  6  1  0
 28 19  1  0
 27 22  1  0
M  CHG  1   4   1
M  END
>  <cnnaffinity>  (1) 
5.56982

>  <plip>  (1) 
-0.13333333333333333

>  <filename>  (1) 
[H][c]1[n][c]2[c]([H])[c]([H])[c]([H])[c]([H])[c]2[n][c]1[C]([H])([H])[N+]([H])([C]([H])([H])[c]1[c]([H])[n][c]([H])[c]([H])[c]1[H])[C]([H])([H])[C]([H])([H])[C]([H])([H])[H]

>  <combo1>  (1) 
-0.8437376209314293

$$$$
