
     RDKit          3D

 35 37  0  0  0  0  0  0  0  0999 V2000
    7.8140    0.2501   22.1146 C   0  0  0  0  0  0  0  0  0  0  0  0
    7.4079   -0.7206   21.0029 C   0  0  0  0  0  0  0  0  0  0  0  0
    6.6125   -1.8250   21.5337 N   0  0  0  0  0  0  0  0  0  0  0  0
    7.1708   -2.8589   22.2212 C   0  0  0  0  0  0  0  0  0  0  0  0
    8.3811   -2.8847   22.4188 O   0  0  0  0  0  0  0  0  0  0  0  0
    6.2202   -3.9763   22.7562 C   0  0  0  0  0  0  0  0  0  0  0  0
    5.2119   -4.3518   21.9737 N   0  0  0  0  0  0  0  0  0  0  0  0
    4.4284   -5.3963   22.3460 C   0  0  0  0  0  0  0  0  0  0  0  0
    4.5840   -6.0753   23.5237 C   0  0  0  0  0  0  0  0  0  0  0  0
    5.6103   -5.6824   24.4059 C   0  0  0  0  0  0  0  0  0  0  0  0
    5.8095   -6.3220   25.6482 C   0  0  0  0  0  0  0  0  0  0  0  0
    6.8038   -5.8713   26.4743 C   0  0  0  0  0  0  0  0  0  0  0  0
    7.6126   -4.8230   26.1755 N   0  0  0  0  0  0  0  0  0  0  0  0
    7.4385   -4.2184   25.0145 C   0  0  0  0  0  0  0  0  0  0  0  0
    6.4574   -4.5985   24.0441 C   0  0  0  0  0  0  0  0  0  0  0  0
    8.0904   -3.3738   24.7940 H   0  0  0  0  0  0  0  0  0  0  0  0
    6.9731   -6.3501   27.4366 H   0  0  0  0  0  0  0  0  0  0  0  0
    5.1721   -7.1525   25.9316 H   0  0  0  0  0  0  0  0  0  0  0  0
    3.9242   -6.8893   23.7957 H   0  0  0  0  0  0  0  0  0  0  0  0
    3.6370   -5.6608   21.6520 H   0  0  0  0  0  0  0  0  0  0  0  0
    5.6186   -1.8216   21.3766 H   0  0  0  0  0  0  0  0  0  0  0  0
    6.6476   -0.0194   19.9077 C   0  0  0  0  0  0  0  0  0  0  0  0
    5.4384    0.6435   20.1570 C   0  0  0  0  0  0  0  0  0  0  0  0
    4.8069    1.3103   19.1073 C   0  0  0  0  0  0  0  0  0  0  0  0
    5.4031    1.2906   17.8419 C   0  0  0  0  0  0  0  0  0  0  0  0
    6.5683    0.6776   17.5846 N   0  0  0  0  0  0  0  0  0  0  0  0
    7.1653    0.0528   18.6078 C   0  0  0  0  0  0  0  0  0  0  0  0
    8.1170   -0.4267   18.3770 H   0  0  0  0  0  0  0  0  0  0  0  0
    4.9143    1.7778   17.0001 H   0  0  0  0  0  0  0  0  0  0  0  0
    3.8751    1.8431   19.2615 H   0  0  0  0  0  0  0  0  0  0  0  0
    5.0011    0.6393   21.1605 H   0  0  0  0  0  0  0  0  0  0  0  0
    8.3212   -1.1535   20.5775 H   0  0  0  0  0  0  0  0  0  0  0  0
    6.9281    0.6368   22.6308 H   0  0  0  0  0  0  0  0  0  0  0  0
    8.3638    1.0952   21.6899 H   0  0  0  0  0  0  0  0  0  0  0  0
    8.4442   -0.2682   22.8408 H   0  0  0  0  0  0  0  0  0  0  0  0
  1  2  1  0
  2  3  1  0
  3  4  1  0
  4  5  2  0
  4  6  1  0
  6  7  2  0
  7  8  1  0
  8  9  2  0
  9 10  1  0
 10 11  2  0
 11 12  1  0
 12 13  2  0
 13 14  1  0
 14 15  2  0
 14 16  1  0
 12 17  1  0
 11 18  1  0
  9 19  1  0
  8 20  1  0
  3 21  1  0
  2 22  1  0
 22 23  2  0
 23 24  1  0
 24 25  2  0
 25 26  1  0
 26 27  2  0
 27 28  1  0
 25 29  1  0
 24 30  1  0
 23 31  1  0
  2 32  1  0
  1 33  1  0
  1 34  1  0
  1 35  1  0
 15  6  1  0
 27 22  1  0
 15 10  1  0
M  END
>  <cnnaffinity>  (1) 
5.26042

>  <plip>  (1) 
-0.13793103448275862

>  <filename>  (1) 
[H][c]1[n][c]([H])[c]([C]([H])([N]([H])[C](=[O])[c]2[n][c]([H])[c]([H])[c]3[c]([H])[c]([H])[n][c]([H])[c]23)[C]([H])([H])[H])[c]([H])[c]1[H]

>  <combo1>  (1) 
-0.8690095424414701

$$$$
