
     RDKit          3D

 39 41  0  0  0  0  0  0  0  0999 V2000
    9.2341    5.3658   23.7558 C   0  0  0  0  0  0  0  0  0  0  0  0
    9.7837    4.5455   24.9276 C   0  0  0  0  0  0  0  0  0  0  0  0
    9.0831    4.8845   26.2560 C   0  0  0  0  0  0  0  0  0  0  0  0
    8.1147    3.8783   26.4960 O   0  0  0  0  0  0  0  0  0  0  0  0
    8.3816    2.7041   25.7399 C   0  0  0  0  0  0  0  0  0  0  0  0
    7.0760    2.3076   25.0346 C   0  0  0  0  0  0  0  0  0  0  0  0
    7.1523    1.0736   24.2704 N   0  0  0  0  0  0  0  0  0  0  0  0
    7.2936    1.0025   22.9150 C   0  0  0  0  0  0  0  0  0  0  0  0
    7.2142    1.9902   22.2056 O   0  0  0  0  0  0  0  0  0  0  0  0
    7.5731   -0.3394   22.3792 C   0  0  0  0  0  0  0  0  0  0  0  0
    8.2522   -1.4238   22.9199 C   0  0  0  0  0  0  0  0  0  0  0  0
    8.4528   -2.2705   21.8957 N   0  0  0  0  0  0  0  0  0  0  0  0
    7.9446   -1.8395   20.7394 N   0  0  0  0  0  0  0  0  0  0  0  0
    7.3686   -0.6791   21.0158 C   0  0  0  0  0  0  0  0  0  0  0  0
    6.6261    0.0315   19.9711 C   0  0  0  0  0  0  0  0  0  0  0  0
    5.4069    0.6930   20.1701 C   0  0  0  0  0  0  0  0  0  0  0  0
    4.8069    1.3121   19.0725 C   0  0  0  0  0  0  0  0  0  0  0  0
    5.4528    1.2657   17.8347 C   0  0  0  0  0  0  0  0  0  0  0  0
    6.6117    0.6237   17.6290 N   0  0  0  0  0  0  0  0  0  0  0  0
    7.1658    0.0108   18.6777 C   0  0  0  0  0  0  0  0  0  0  0  0
    8.0932   -0.5262   18.4887 H   0  0  0  0  0  0  0  0  0  0  0  0
    5.0142    1.7511   16.9644 H   0  0  0  0  0  0  0  0  0  0  0  0
    3.8659    1.8397   19.1668 H   0  0  0  0  0  0  0  0  0  0  0  0
    4.9502    0.7491   21.1586 H   0  0  0  0  0  0  0  0  0  0  0  0
    8.9254   -3.1634   21.9051 H   0  0  0  0  0  0  0  0  0  0  0  0
    8.6172   -1.6483   23.9181 H   0  0  0  0  0  0  0  0  0  0  0  0
    7.1895    0.1917   24.7480 H   0  0  0  0  0  0  0  0  0  0  0  0
    6.2928    2.2196   25.7946 H   0  0  0  0  0  0  0  0  0  0  0  0
    6.8046    3.1306   24.3660 H   0  0  0  0  0  0  0  0  0  0  0  0
    9.5709    3.0204   24.8129 C   0  0  0  0  0  0  0  0  0  0  0  0
    9.3855    2.6886   23.7839 H   0  0  0  0  0  0  0  0  0  0  0  0
   10.4577    2.4762   25.1567 H   0  0  0  0  0  0  0  0  0  0  0  0
    8.6487    1.8892   26.4287 H   0  0  0  0  0  0  0  0  0  0  0  0
    9.8187    4.9200   27.0752 H   0  0  0  0  0  0  0  0  0  0  0  0
    8.5478    5.8447   26.2279 H   0  0  0  0  0  0  0  0  0  0  0  0
   10.8547    4.7695   24.9960 H   0  0  0  0  0  0  0  0  0  0  0  0
    9.6874    5.0720   22.8024 H   0  0  0  0  0  0  0  0  0  0  0  0
    8.1434    5.2849   23.6643 H   0  0  0  0  0  0  0  0  0  0  0  0
    9.4648    6.4251   23.9054 H   0  0  0  0  0  0  0  0  0  0  0  0
  1  2  1  0
  2  3  1  0
  3  4  1  0
  4  5  1  0
  5  6  1  0
  6  7  1  0
  7  8  1  0
  8  9  2  0
  8 10  1  0
 10 11  2  0
 11 12  1  0
 12 13  1  0
 13 14  2  0
 14 15  1  0
 15 16  2  0
 16 17  1  0
 17 18  2  0
 18 19  1  0
 19 20  2  0
 20 21  1  0
 18 22  1  0
 17 23  1  0
 16 24  1  0
 12 25  1  0
 11 26  1  0
  7 27  1  0
  6 28  1  0
  6 29  1  0
  5 30  1  0
 30 31  1  0
 30 32  1  0
  5 33  1  0
  3 34  1  0
  3 35  1  0
  2 36  1  0
  1 37  1  0
  1 38  1  0
  1 39  1  0
 30  2  1  0
 14 10  1  0
 20 15  1  0
M  END
>  <cnnaffinity>  (1) 
4.90043

>  <plip>  (1) 
-0.06896551724137931

>  <filename>  (1) 
[H][c]1[n][c]([H])[c](-[c]2[n][n]([H])[c]([H])[c]2[C](=[O])[N]([H])[C]([H])([H])[C]2([H])[O][C]([H])([H])[C]([H])([C]([H])([H])[H])[C]2([H])[H])[c]([H])[c]1[H]

>  <combo1>  (1) 
-0.39343273863967354

$$$$
