
     RDKit          3D

 37 38  0  0  0  0  0  0  0  0999 V2000
    9.3723   -6.2006   25.0577 C   0  0  0  0  0  0  0  0  0  0  0  0
    8.6256   -5.6267   23.8760 C   0  0  0  0  0  0  0  0  0  0  0  0
    8.5166   -6.3469   22.6713 C   0  0  0  0  0  0  0  0  0  0  0  0
    7.9463   -5.7351   21.5610 C   0  0  0  0  0  0  0  0  0  0  0  0
    7.4553   -4.5045   21.5577 N   0  0  0  0  0  0  0  0  0  0  0  0
    7.4448   -3.8304   22.7152 C   0  0  0  0  0  0  0  0  0  0  0  0
    6.8708   -2.6058   22.6752 N   0  0  0  0  0  0  0  0  0  0  0  0
    6.5171   -1.9016   21.4572 C   0  0  0  0  0  0  0  0  0  0  0  0
    7.3980   -0.6465   21.1229 C   0  0  0  0  0  0  0  0  0  0  0  0
    8.8514   -1.0686   20.8133 C   0  0  0  0  0  0  0  0  0  0  0  0
    9.3074   -1.5335   21.6954 H   0  0  0  0  0  0  0  0  0  0  0  0
    8.9191   -1.7880   19.9911 H   0  0  0  0  0  0  0  0  0  0  0  0
    9.4519   -0.1888   20.5467 H   0  0  0  0  0  0  0  0  0  0  0  0
    7.4631    0.3059   22.3429 C   0  0  0  0  0  0  0  0  0  0  0  0
    7.9985    1.2229   22.0682 H   0  0  0  0  0  0  0  0  0  0  0  0
    6.4743    0.5862   22.7266 H   0  0  0  0  0  0  0  0  0  0  0  0
    8.0148   -0.1645   23.1665 H   0  0  0  0  0  0  0  0  0  0  0  0
    6.7265    0.0599   19.9222 C   0  0  0  0  0  0  0  0  0  0  0  0
    5.4877    0.7039   20.0992 C   0  0  0  0  0  0  0  0  0  0  0  0
    4.8667    1.3293   19.0177 C   0  0  0  0  0  0  0  0  0  0  0  0
    5.4932    1.2886   17.7679 C   0  0  0  0  0  0  0  0  0  0  0  0
    6.6555    0.6581   17.5555 N   0  0  0  0  0  0  0  0  0  0  0  0
    7.2381    0.0643   18.6091 C   0  0  0  0  0  0  0  0  0  0  0  0
    8.1731   -0.4446   18.3846 H   0  0  0  0  0  0  0  0  0  0  0  0
    5.0356    1.7686   16.9044 H   0  0  0  0  0  0  0  0  0  0  0  0
    3.9148    1.8398   19.1324 H   0  0  0  0  0  0  0  0  0  0  0  0
    5.0075    0.7180   21.0802 H   0  0  0  0  0  0  0  0  0  0  0  0
    6.5885   -2.6007   20.6191 H   0  0  0  0  0  0  0  0  0  0  0  0
    5.4640   -1.5908   21.5096 H   0  0  0  0  0  0  0  0  0  0  0  0
    6.8471   -2.1128   23.5488 H   0  0  0  0  0  0  0  0  0  0  0  0
    8.0167   -4.3725   23.9052 C   0  0  0  0  0  0  0  0  0  0  0  0
    7.9254   -3.5019   25.4178 Cl  0  0  0  0  0  0  0  0  0  0  0  0
    7.8723   -6.2531   20.6073 H   0  0  0  0  0  0  0  0  0  0  0  0
    8.8474   -7.3766   22.6132 H   0  0  0  0  0  0  0  0  0  0  0  0
    9.8689   -7.1371   24.7883 H   0  0  0  0  0  0  0  0  0  0  0  0
   10.1344   -5.4974   25.4132 H   0  0  0  0  0  0  0  0  0  0  0  0
    8.6966   -6.3932   25.8983 H   0  0  0  0  0  0  0  0  0  0  0  0
  1  2  1  0
  2  3  2  0
  3  4  1  0
  4  5  2  0
  5  6  1  0
  6  7  1  0
  7  8  1  0
  8  9  1  0
  9 10  1  0
 10 11  1  0
 10 12  1  0
 10 13  1  0
  9 14  1  0
 14 15  1  0
 14 16  1  0
 14 17  1  0
  9 18  1  0
 18 19  2  0
 19 20  1  0
 20 21  2  0
 21 22  1  0
 22 23  2  0
 23 24  1  0
 21 25  1  0
 20 26  1  0
 19 27  1  0
  8 28  1  0
  8 29  1  0
  7 30  1  0
  6 31  2  0
 31 32  1  0
  4 33  1  0
  3 34  1  0
  1 35  1  0
  1 36  1  0
  1 37  1  0
 31  2  1  0
 23 18  1  0
M  END
>  <cnnaffinity>  (1) 
5.26169

>  <plip>  (1) 
-0.06666666666666667

>  <filename>  (1) 
[H][c]1[n][c]([H])[c]([C]([C]([H])([H])[H])([C]([H])([H])[H])[C]([H])([H])[N]([H])[c]2[n][c]([H])[c]([H])[c]([C]([H])([H])[H])[c]2[Cl])[c]([H])[c]1[H]

>  <combo1>  (1) 
-0.42397988434546174

$$$$
