
     RDKit          3D

 32 34  0  0  0  0  0  0  0  0999 V2000
    4.9144    1.7876   16.9939 H   0  0  0  0  0  0  0  0  0  0  0  0
    5.3954    1.2975   17.8368 C   0  0  0  0  0  0  0  0  0  0  0  0
    6.5590    0.6817   17.5710 N   0  0  0  0  0  0  0  0  0  0  0  0
    7.1713    0.0588   18.5887 C   0  0  0  0  0  0  0  0  0  0  0  0
    8.1201   -0.4286   18.3732 H   0  0  0  0  0  0  0  0  0  0  0  0
    6.6623   -0.0152   19.9101 C   0  0  0  0  0  0  0  0  0  0  0  0
    7.3270   -0.7145   20.9242 N   0  0  0  0  0  0  0  0  0  0  0  0
    6.7724   -1.1253   21.6627 H   0  0  0  0  0  0  0  0  0  0  0  0
    8.7091   -0.6922   21.1424 C   0  0  0  0  0  0  0  0  0  0  0  0
    9.6835    0.2131   20.6638 C   0  0  0  0  0  0  0  0  0  0  0  0
    9.5103    1.0347   19.9930 H   0  0  0  0  0  0  0  0  0  0  0  0
   10.8979   -0.0601   21.1269 N   0  0  0  0  0  0  0  0  0  0  0  0
   10.7062   -1.1452   21.8912 N   0  0  0  0  0  0  0  0  0  0  0  0
   11.5026   -1.5301   22.3760 H   0  0  0  0  0  0  0  0  0  0  0  0
    9.4188   -1.5774   21.9294 C   0  0  0  0  0  0  0  0  0  0  0  0
    8.9391   -2.6786   22.8104 C   0  0  0  0  0  0  0  0  0  0  0  0
    8.0782   -3.1576   22.3329 H   0  0  0  0  0  0  0  0  0  0  0  0
    9.7148   -3.4472   22.9170 H   0  0  0  0  0  0  0  0  0  0  0  0
    8.5424   -2.1499   24.1710 C   0  0  0  0  0  0  0  0  0  0  0  0
    9.5203   -1.8053   25.1043 C   0  0  0  0  0  0  0  0  0  0  0  0
   10.5668   -1.9337   24.8651 H   0  0  0  0  0  0  0  0  0  0  0  0
    9.1335   -1.2929   26.3420 C   0  0  0  0  0  0  0  0  0  0  0  0
    9.8838   -1.0331   27.0844 H   0  0  0  0  0  0  0  0  0  0  0  0
    7.8587   -1.1017   26.6963 N   0  0  0  0  0  0  0  0  0  0  0  0
    6.9285   -1.4113   25.7888 C   0  0  0  0  0  0  0  0  0  0  0  0
    5.8957   -1.2499   26.0858 H   0  0  0  0  0  0  0  0  0  0  0  0
    7.2135   -1.9268   24.5237 C   0  0  0  0  0  0  0  0  0  0  0  0
    6.4061   -2.1596   23.8407 H   0  0  0  0  0  0  0  0  0  0  0  0
    5.4413    0.6301   20.1623 C   0  0  0  0  0  0  0  0  0  0  0  0
    5.0206    0.6228   21.1688 H   0  0  0  0  0  0  0  0  0  0  0  0
    4.8119    1.3050   19.1083 C   0  0  0  0  0  0  0  0  0  0  0  0
    3.8831    1.8371   19.2635 H   0  0  0  0  0  0  0  0  0  0  0  0
  1  2  1  0
  2  3  2  0
  3  4  1  0
  4  5  1  0
  4  6  2  0
  6  7  1  0
  7  8  1  0
  7  9  1  0
  9 10  1  0
 10 11  1  0
 10 12  2  0
 12 13  1  0
 13 14  1  0
 13 15  1  0
 15 16  1  0
 16 17  1  0
 16 18  1  0
 16 19  1  0
 19 20  2  0
 20 21  1  0
 20 22  1  0
 22 23  1  0
 22 24  2  0
 24 25  1  0
 25 26  1  0
 25 27  2  0
 27 28  1  0
  6 29  1  0
 29 30  1  0
 29 31  2  0
 31 32  1  0
 31  2  1  0
 15  9  2  0
 27 19  1  0
M  END
>  <cnnaffinity>  (1) 
5.57033

>  <plip>  (1) 
-0.10344827586206896

>  <filename>  (1) 
[H][c]1[n][c]([H])[c]([N]([H])[c]2[c]([H])[n][n]([H])[c]2[C]([H])([H])[c]2[c]([H])[c]([H])[n][c]([H])[c]2[H])[c]([H])[c]1[H]

>  <combo1>  (1) 
-0.7643680676643846

$$$$
