
     RDKit          3D

 39 41  0  0  0  0  0  0  0  0999 V2000
    5.9120   -2.2120   21.5546 O   0  0  0  0  0  0  0  0  0  0  0  0
    6.8773   -1.5218   21.8192 C   0  0  0  0  0  0  0  0  0  0  0  0
    7.6244   -1.6523   23.1727 C   0  0  0  0  0  0  0  0  0  0  0  0
    7.6270   -0.4871   24.0551 O   0  0  0  0  0  0  0  0  0  0  0  0
    8.5219    0.5085   23.8476 C   0  0  0  0  0  0  0  0  0  0  0  0
    9.3559    0.4674   22.9664 O   0  0  0  0  0  0  0  0  0  0  0  0
    8.3085    1.6899   24.7903 C   0  0  0  0  0  0  0  0  0  0  0  0
    8.3826    1.2820   26.2941 C   0  0  0  0  0  0  0  0  0  0  0  0
    7.8948    2.3782   27.2105 C   0  0  0  0  0  0  0  0  0  0  0  0
    6.9834    3.2710   26.8007 C   0  0  0  0  0  0  0  0  0  0  0  0
    6.4244    3.2599   25.4389 C   0  0  0  0  0  0  0  0  0  0  0  0
    5.2750    4.0193   25.1373 C   0  0  0  0  0  0  0  0  0  0  0  0
    4.7320    3.9978   23.8608 C   0  0  0  0  0  0  0  0  0  0  0  0
    5.3442    3.2306   22.8558 C   0  0  0  0  0  0  0  0  0  0  0  0
    6.4840    2.4823   23.1391 C   0  0  0  0  0  0  0  0  0  0  0  0
    7.0293    2.4669   24.4374 C   0  0  0  0  0  0  0  0  0  0  0  0
    6.9487    1.9027   22.3398 H   0  0  0  0  0  0  0  0  0  0  0  0
    4.9402    3.2303   21.8451 H   0  0  0  0  0  0  0  0  0  0  0  0
    3.8450    4.5855   23.6395 H   0  0  0  0  0  0  0  0  0  0  0  0
    4.8181    4.6121   25.9267 H   0  0  0  0  0  0  0  0  0  0  0  0
    6.5986    4.0233   27.4857 H   0  0  0  0  0  0  0  0  0  0  0  0
    8.2236    2.3775   28.2486 H   0  0  0  0  0  0  0  0  0  0  0  0
    7.7532    0.3996   26.4602 H   0  0  0  0  0  0  0  0  0  0  0  0
    9.4075    0.9952   26.5667 H   0  0  0  0  0  0  0  0  0  0  0  0
    9.1593    2.3543   24.5866 H   0  0  0  0  0  0  0  0  0  0  0  0
    7.1176   -2.4243   23.7433 H   0  0  0  0  0  0  0  0  0  0  0  0
    8.6483   -1.9843   22.9815 H   0  0  0  0  0  0  0  0  0  0  0  0
    7.4561   -0.6379   20.9310 N   0  0  0  0  0  0  0  0  0  0  0  0
    6.7363    0.0060   19.8739 C   0  0  0  0  0  0  0  0  0  0  0  0
    5.5207    0.6380   20.1478 C   0  0  0  0  0  0  0  0  0  0  0  0
    4.8591    1.3023   19.1058 C   0  0  0  0  0  0  0  0  0  0  0  0
    5.4298    1.3037   17.8278 C   0  0  0  0  0  0  0  0  0  0  0  0
    6.5958    0.6980   17.5485 N   0  0  0  0  0  0  0  0  0  0  0  0
    7.2282    0.0722   18.5517 C   0  0  0  0  0  0  0  0  0  0  0  0
    8.1706   -0.4062   18.2997 H   0  0  0  0  0  0  0  0  0  0  0  0
    4.9316    1.8011   16.9955 H   0  0  0  0  0  0  0  0  0  0  0  0
    3.9142    1.8090   19.2690 H   0  0  0  0  0  0  0  0  0  0  0  0
    5.1211    0.6113   21.1644 H   0  0  0  0  0  0  0  0  0  0  0  0
    8.3221   -0.2143   21.2381 H   0  0  0  0  0  0  0  0  0  0  0  0
  1  2  2  0
  2  3  1  0
  3  4  1  0
  4  5  1  0
  5  6  2  0
  5  7  1  0
  7  8  1  0
  8  9  1  0
  9 10  2  0
 10 11  1  0
 11 12  2  0
 12 13  1  0
 13 14  2  0
 14 15  1  0
 15 16  2  0
 15 17  1  0
 14 18  1  0
 13 19  1  0
 12 20  1  0
 10 21  1  0
  9 22  1  0
  8 23  1  0
  8 24  1  0
  7 25  1  0
  3 26  1  0
  3 27  1  0
  2 28  1  0
 28 29  1  0
 29 30  2  0
 30 31  1  0
 31 32  2  0
 32 33  1  0
 33 34  2  0
 34 35  1  0
 32 36  1  0
 31 37  1  0
 30 38  1  0
 28 39  1  0
 16  7  1  0
 34 29  1  0
 16 11  1  0
M  END
>  <cnnaffinity>  (1) 
4.87101

>  <plip>  (1) 
-0.10714285714285714

>  <filename>  (1) 
[H][C]1=[C]([H])[C]([H])([H])[C]([H])([C](=[O])[O][C]([H])([H])[C](=[O])[N]([H])[c]2[c]([H])[n][c]([H])[c]([H])[c]2[H])[c]2[c]([H])[c]([H])[c]([H])[c]([H])[c]21

>  <combo1>  (1) 
-0.5642029430692483

$$$$
