
     RDKit          3D

 34 36  0  0  0  0  0  0  0  0999 V2000
    4.9995    1.8085   16.8856 H   0  0  0  0  0  0  0  0  0  0  0  0
    5.4349    1.3031   17.7437 C   0  0  0  0  0  0  0  0  0  0  0  0
    6.5948    0.6663   17.5276 N   0  0  0  0  0  0  0  0  0  0  0  0
    7.1524    0.0458   18.5739 C   0  0  0  0  0  0  0  0  0  0  0  0
    8.0965   -0.4585   18.3591 H   0  0  0  0  0  0  0  0  0  0  0  0
    6.6037    0.0054   19.8647 C   0  0  0  0  0  0  0  0  0  0  0  0
    7.3301   -0.7445   20.9812 C   0  0  1  0  0  0  0  0  0  0  0  0
    8.3512   -0.9439   20.6264 H   0  0  0  0  0  0  0  0  0  0  0  0
    7.4393    0.0133   22.2188 N   0  0  0  0  0  0  0  0  0  0  0  0
    6.6380   -0.0935   22.8279 H   0  0  0  0  0  0  0  0  0  0  0  0
    8.1112    1.2359   22.3328 C   0  0  0  0  0  0  0  0  0  0  0  0
    9.3604    1.4391   21.7601 C   0  0  0  0  0  0  0  0  0  0  0  0
    9.8076    0.6376   21.1730 H   0  0  0  0  0  0  0  0  0  0  0  0
   10.1163    2.5664   21.8833 N   0  0  0  0  0  0  0  0  0  0  0  0
    9.6038    3.5726   22.5658 C   0  0  0  0  0  0  0  0  0  0  0  0
   10.2076    4.4750   22.6568 H   0  0  0  0  0  0  0  0  0  0  0  0
    8.3070    3.5551   23.1683 C   0  0  0  0  0  0  0  0  0  0  0  0
    7.7264    4.7032   23.8030 C   0  0  0  0  0  0  0  0  0  0  0  0
    8.2726    5.6445   23.7984 H   0  0  0  0  0  0  0  0  0  0  0  0
    6.4783    4.6353   24.3780 C   0  0  0  0  0  0  0  0  0  0  0  0
    6.0138    5.5260   24.8064 H   0  0  0  0  0  0  0  0  0  0  0  0
    5.7581    3.4122   24.3681 C   0  0  0  0  0  0  0  0  0  0  0  0
    4.7749    3.3527   24.8308 H   0  0  0  0  0  0  0  0  0  0  0  0
    6.2878    2.2987   23.7481 C   0  0  0  0  0  0  0  0  0  0  0  0
    5.7370    1.3633   23.7258 H   0  0  0  0  0  0  0  0  0  0  0  0
    7.5551    2.3423   23.0993 C   0  0  0  0  0  0  0  0  0  0  0  0
    6.6780   -2.0737   21.3512 C   0  0  0  0  0  0  0  0  0  0  0  0
    5.6601   -1.9010   21.7212 H   0  0  0  0  0  0  0  0  0  0  0  0
    6.6220   -2.7499   20.4945 H   0  0  0  0  0  0  0  0  0  0  0  0
    7.2502   -2.5540   22.1541 H   0  0  0  0  0  0  0  0  0  0  0  0
    5.3861    0.6714   20.0622 C   0  0  0  0  0  0  0  0  0  0  0  0
    4.9260    0.6966   21.0521 H   0  0  0  0  0  0  0  0  0  0  0  0
    4.7929    1.3281   18.9856 C   0  0  0  0  0  0  0  0  0  0  0  0
    3.8582    1.8644   19.1041 H   0  0  0  0  0  0  0  0  0  0  0  0
  1  2  1  0
  2  3  2  0
  3  4  1  0
  4  5  1  0
  4  6  2  0
  6  7  1  0
  7  8  1  6
  7  9  1  0
  9 10  1  0
  9 11  1  0
 11 12  2  0
 12 13  1  0
 12 14  1  0
 14 15  2  0
 15 16  1  0
 15 17  1  0
 17 18  2  0
 18 19  1  0
 18 20  1  0
 20 21  1  0
 20 22  2  0
 22 23  1  0
 22 24  1  0
 24 25  1  0
 24 26  2  0
  7 27  1  0
 27 28  1  0
 27 29  1  0
 27 30  1  0
  6 31  1  0
 31 32  1  0
 31 33  2  0
 33 34  1  0
 33  2  1  0
 26 11  1  0
 26 17  1  0
M  END
>  <cnnaffinity>  (1) 
4.83674

>  <plip>  (1) 
-0.10714285714285714

>  <filename>  (1) 
[H][c]1[n][c]([H])[c]([C@@]([H])([N]([H])[c]2[c]([H])[n][c]([H])[c]3[c]([H])[c]([H])[c]([H])[c]([H])[c]23)[C]([H])([H])[H])[c]([H])[c]1[H]

>  <combo1>  (1) 
-0.6928557390218647

$$$$
