
     RDKit          3D

 29 31  0  0  0  0  0  0  0  0999 V2000
    4.9200    1.8134   16.9747 H   0  0  0  0  0  0  0  0  0  0  0  0
    5.3808    1.3068   17.8221 C   0  0  0  0  0  0  0  0  0  0  0  0
    6.5369    0.6784   17.5608 N   0  0  0  0  0  0  0  0  0  0  0  0
    7.1366    0.0546   18.5802 C   0  0  0  0  0  0  0  0  0  0  0  0
    8.0953   -0.4122   18.3571 H   0  0  0  0  0  0  0  0  0  0  0  0
    6.6267   -0.0087   19.8912 C   0  0  0  0  0  0  0  0  0  0  0  0
    7.4229   -0.6983   20.9964 C   0  0  0  0  0  0  0  0  0  0  0  0
    6.7973   -0.8470   21.8854 H   0  0  0  0  0  0  0  0  0  0  0  0
    7.7663   -1.6939   20.6936 H   0  0  0  0  0  0  0  0  0  0  0  0
    8.6546    0.0753   21.3590 C   0  0  0  0  0  0  0  0  0  0  0  0
    9.8873   -0.2054   21.0122 N   0  0  0  0  0  0  0  0  0  0  0  0
   10.6434    0.8457   21.4029 N   0  0  0  0  0  0  0  0  0  0  0  0
    9.9312    1.7457   21.9650 N   0  0  0  0  0  0  0  0  0  0  0  0
    8.6449    1.2887   21.9534 N   0  0  0  0  0  0  0  0  0  0  0  0
    7.5853    1.9500   22.5952 C   0  0  0  0  0  0  0  0  0  0  0  0
    6.5562    1.4843   23.3888 C   0  0  0  0  0  0  0  0  0  0  0  0
    6.4172    0.4706   23.7335 H   0  0  0  0  0  0  0  0  0  0  0  0
    5.8187    2.6484   23.6966 C   0  0  0  0  0  0  0  0  0  0  0  0
    4.9348    2.7799   24.3052 H   0  0  0  0  0  0  0  0  0  0  0  0
    6.3485    3.7309   23.1487 N   0  0  0  0  0  0  0  0  0  0  0  0
    7.4248    3.2903   22.4798 N   0  0  0  0  0  0  0  0  0  0  0  0
    8.2938    4.2320   21.8137 C   0  0  0  0  0  0  0  0  0  0  0  0
    9.1061    4.5613   22.4662 H   0  0  0  0  0  0  0  0  0  0  0  0
    8.7219    3.6886   20.9772 H   0  0  0  0  0  0  0  0  0  0  0  0
    7.6940    5.0780   21.4787 H   0  0  0  0  0  0  0  0  0  0  0  0
    5.4222    0.6578   20.1410 C   0  0  0  0  0  0  0  0  0  0  0  0
    5.0157    0.6561   21.1554 H   0  0  0  0  0  0  0  0  0  0  0  0
    4.7855    1.3277   19.0875 C   0  0  0  0  0  0  0  0  0  0  0  0
    3.8557    1.8660   19.2280 H   0  0  0  0  0  0  0  0  0  0  0  0
  1  2  1  0
  2  3  2  0
  3  4  1  0
  4  5  1  0
  4  6  2  0
  6  7  1  0
  7  8  1  0
  7  9  1  0
  7 10  1  0
 10 11  2  0
 11 12  1  0
 12 13  2  0
 13 14  1  0
 14 15  1  0
 15 16  2  0
 16 17  1  0
 16 18  1  0
 18 19  1  0
 18 20  2  0
 20 21  1  0
 21 22  1  0
 22 23  1  0
 22 24  1  0
 22 25  1  0
  6 26  1  0
 26 27  1  0
 26 28  2  0
 28 29  1  0
 28  2  1  0
 14 10  1  0
 21 15  1  0
M  END
>  <cnnaffinity>  (1) 
4.5792

>  <plip>  (1) 
-0.07142857142857142

>  <filename>  (1) 
[H][c]1[n][c]([H])[c]([C]([H])([H])[c]2[n][n][n][n]2-[c]2[c]([H])[c]([H])[n][n]2[C]([H])([H])[H])[c]([H])[c]1[H]

>  <combo1>  (1) 
-0.4519169164486624

$$$$
