
     RDKit          3D

 23 24  0  0  0  0  0  0  0  0999 V2000
    6.4283    1.8270   23.6340 H   0  0  0  0  0  0  0  0  0  0  0  0
    6.8380    2.4952   22.9776 N   0  0  0  0  0  0  0  0  0  0  0  0
    7.7481    2.0267   22.3283 N   0  0  0  0  0  4  0  0  0  0  0  0
    8.6892    1.7849   21.6195 N   0  0  0  0  0  0  0  0  0  0  0  0
    9.3921    0.6143   21.4303 C   0  0  0  0  0  0  0  0  0  0  0  0
   10.6855    0.4642   21.5856 N   0  0  0  0  0  0  0  0  0  0  0  0
   10.9656   -0.8272   21.2517 N   0  0  0  0  0  0  0  0  0  0  0  0
    9.8466   -1.4253   20.9539 C   0  0  0  0  0  0  0  0  0  0  0  0
    9.7686   -2.4625   20.6605 H   0  0  0  0  0  0  0  0  0  0  0  0
    8.7934   -0.5690   21.0591 N   0  0  0  0  0  0  0  0  0  0  0  0
    7.3512   -0.7894   20.9536 C   0  0  0  0  0  0  0  0  0  0  0  0
    6.8934   -0.5459   21.9207 H   0  0  0  0  0  0  0  0  0  0  0  0
    7.1900   -1.8585   20.7883 H   0  0  0  0  0  0  0  0  0  0  0  0
    6.6728    0.0224   19.8655 C   0  0  0  0  0  0  0  0  0  0  0  0
    7.1902    0.0867   18.5592 C   0  0  0  0  0  0  0  0  0  0  0  0
    8.1192   -0.4313   18.3147 H   0  0  0  0  0  0  0  0  0  0  0  0
    6.5919    0.7236   17.5458 N   0  0  0  0  0  0  0  0  0  0  0  0
    5.4285    1.3389   17.8031 C   0  0  0  0  0  0  0  0  0  0  0  0
    4.9512    1.8450   16.9652 H   0  0  0  0  0  0  0  0  0  0  0  0
    4.8153    1.3315   19.0552 C   0  0  0  0  0  0  0  0  0  0  0  0
    3.8739    1.8483   19.1963 H   0  0  0  0  0  0  0  0  0  0  0  0
    5.4440    0.6547   20.1017 C   0  0  0  0  0  0  0  0  0  0  0  0
    4.9677    0.6158   21.0845 H   0  0  0  0  0  0  0  0  0  0  0  0
  1  2  1  0
  2  3  2  0
  3  4  2  0
  4  5  1  0
  5  6  2  0
  6  7  1  0
  7  8  2  0
  8  9  1  0
  8 10  1  0
 10 11  1  0
 11 12  1  0
 11 13  1  0
 11 14  1  0
 14 15  2  0
 15 16  1  0
 15 17  1  0
 17 18  2  0
 18 19  1  0
 18 20  1  0
 20 21  1  0
 20 22  2  0
 22 23  1  0
 10  5  1  0
 22 14  1  0
M  CHG  1   3   1
M  END
>  <cnnaffinity>  (1) 
4.06132

>  <plip>  (1) 
-0.10714285714285714

>  <filename>  (1) 
[H][N]=[N+]=[N][c]1[n][n][c]([H])[n]1[C]([H])([H])[c]1[c]([H])[n][c]([H])[c]([H])[c]1[H]

>  <combo1>  (1) 
-0.7173413724815547

$$$$
