
     RDKit          3D

 40 42  0  0  0  0  0  0  0  0999 V2000
    4.7550    1.4436   18.9000 C   0  0  0  0  0  0  0  0  0  0  0  0
    5.3957    1.4171   17.6582 C   0  0  0  0  0  0  0  0  0  0  0  0
    6.5306    0.7405   17.4336 N   0  0  0  0  0  0  0  0  0  0  0  0
    7.0752    0.0954   18.4730 C   0  0  0  0  0  0  0  0  0  0  0  0
    6.5239    0.0409   19.7700 C   0  0  0  0  0  0  0  0  0  0  0  0
    7.2273   -0.6847   20.9054 C   0  0  0  0  0  0  0  0  0  0  0  0
    6.7428   -2.1169   21.1884 C   0  0  0  0  0  0  0  0  0  0  0  0
    7.4417   -2.7936   22.3464 N   0  0  0  0  0  4  0  0  0  0  0  0
    8.9617   -2.6813   22.3485 C   0  0  0  0  0  0  0  0  0  0  0  0
    9.5027   -3.7069   23.3366 C   0  0  0  0  0  0  0  0  0  0  0  0
    8.9136   -3.5488   24.7433 C   0  0  2  0  0  0  0  0  0  0  0  0
    9.1943   -4.8033   25.5190 N   0  0  0  0  0  4  0  0  0  0  0  0
    8.0267   -5.7524   25.2885 C   0  0  0  0  0  0  0  0  0  0  0  0
    6.9275   -4.9019   24.6182 C   0  0  0  0  0  0  0  0  0  0  0  0
    7.3873   -3.4456   24.7629 C   0  0  2  0  0  0  0  0  0  0  0  0
    6.8754   -2.4437   23.7200 C   0  0  0  0  0  0  0  0  0  0  0  0
    7.1784   -1.4169   23.9808 H   0  0  0  0  0  0  0  0  0  0  0  0
    5.7794   -2.4458   23.6792 H   0  0  0  0  0  0  0  0  0  0  0  0
    7.1039   -3.0849   25.7584 H   0  0  0  0  0  0  0  0  0  0  0  0
    5.9451   -5.0755   25.0666 H   0  0  0  0  0  0  0  0  0  0  0  0
    6.8146   -5.1656   23.5576 H   0  0  0  0  0  0  0  0  0  0  0  0
    7.6888   -6.1795   26.2395 H   0  0  0  0  0  0  0  0  0  0  0  0
    8.3386   -6.5900   24.6583 H   0  0  0  0  0  0  0  0  0  0  0  0
    9.2968   -4.6238   26.5495 H   0  0  0  0  0  0  0  0  0  0  0  0
   10.0946   -5.2268   25.2016 H   0  0  0  0  0  0  0  0  0  0  0  0
    9.3520   -2.6743   25.2305 H   0  0  0  0  0  0  0  0  0  0  0  0
   10.5926   -3.6533   23.4159 H   0  0  0  0  0  0  0  0  0  0  0  0
    9.2574   -4.7130   22.9697 H   0  0  0  0  0  0  0  0  0  0  0  0
    9.3522   -2.8617   21.3372 H   0  0  0  0  0  0  0  0  0  0  0  0
    9.2543   -1.6614   22.6391 H   0  0  0  0  0  0  0  0  0  0  0  0
    7.2643   -3.8132   22.2440 H   0  0  0  0  0  0  0  0  0  0  0  0
    6.8832   -2.7201   20.2855 H   0  0  0  0  0  0  0  0  0  0  0  0
    5.6652   -2.0994   21.3873 H   0  0  0  0  0  0  0  0  0  0  0  0
    7.1323   -0.1147   21.8386 H   0  0  0  0  0  0  0  0  0  0  0  0
    8.2995   -0.7424   20.6883 H   0  0  0  0  0  0  0  0  0  0  0  0
    5.3218    0.7395   19.9688 C   0  0  0  0  0  0  0  0  0  0  0  0
    4.8455    0.7668   20.9526 H   0  0  0  0  0  0  0  0  0  0  0  0
    8.0244   -0.3974   18.2569 H   0  0  0  0  0  0  0  0  0  0  0  0
    4.9898    1.9682   16.8109 H   0  0  0  0  0  0  0  0  0  0  0  0
    3.8543    2.0350   19.0189 H   0  0  0  0  0  0  0  0  0  0  0  0
  1  2  2  0
  2  3  1  0
  3  4  2  0
  4  5  1  0
  5  6  1  0
  6  7  1  0
  7  8  1  0
  8  9  1  0
  9 10  1  0
 10 11  1  0
 11 12  1  0
 12 13  1  0
 13 14  1  0
 14 15  1  0
 15 16  1  0
 16 17  1  0
 16 18  1  0
 15 19  1  1
 14 20  1  0
 14 21  1  0
 13 22  1  0
 13 23  1  0
 12 24  1  0
 12 25  1  0
 11 26  1  1
 10 27  1  0
 10 28  1  0
  9 29  1  0
  9 30  1  0
  8 31  1  0
  7 32  1  0
  7 33  1  0
  6 34  1  0
  6 35  1  0
  5 36  2  0
 36 37  1  0
  4 38  1  0
  2 39  1  0
  1 40  1  0
 36  1  1  0
 16  8  1  0
 15 11  1  0
M  CHG  2   8   1  12   1
M  END
>  <cnnaffinity>  (1) 
4.2247

>  <plip>  (1) 
-0.10344827586206896

>  <filename>  (1) 
[H][c]1[n][c]([H])[c]([C]([H])([H])[C]([H])([H])[N+]2([H])[C]([H])([H])[C]([H])([H])[C@@]3([H])[C@]([H])([C]([H])([H])[C]([H])([H])[N+]3([H])[H])[C]2([H])[H])[c]([H])[c]1[H]

>  <combo1>  (1) 
-0.6242712316423514

$$$$
