
     RDKit          3D

 36 38  0  0  0  0  0  0  0  0999 V2000
    6.6698    0.8341   29.0457 H   0  0  0  0  0  0  0  0  0  0  0  0
    6.2489    0.1695   28.4695 O   0  0  0  0  0  0  0  0  0  0  0  0
    7.2813   -0.5771   27.9081 N   0  0  0  0  0  0  0  0  0  0  0  0
    7.0560   -1.5589   27.9706 H   0  0  0  0  0  0  0  0  0  0  0  0
    7.8766   -0.2162   26.7035 C   0  0  0  0  0  0  0  0  0  0  0  0
    7.8025    0.8909   26.2155 O   0  0  0  0  0  0  0  0  0  0  0  0
    8.6859   -1.3527   26.1705 C   0  0  0  0  0  0  0  0  0  0  0  0
    8.7525   -2.2142   26.8322 H   0  0  0  0  0  0  0  0  0  0  0  0
    9.3665   -1.3179   25.0168 C   0  0  0  0  0  0  0  0  0  0  0  0
   10.0318   -2.1313   24.7308 H   0  0  0  0  0  0  0  0  0  0  0  0
    9.2113   -0.2325   23.9851 C   0  0  1  0  0  0  0  0  0  0  0  0
    9.4304    0.7477   24.4420 H   0  0  0  0  0  0  0  0  0  0  0  0
   10.1018   -0.4954   22.9124 O   0  0  0  0  0  0  0  0  0  0  0  0
    9.6829    0.3013   21.8200 C   0  0  0  0  0  0  0  0  0  0  0  0
   10.1124    1.3159   21.8979 H   0  0  0  0  0  0  0  0  0  0  0  0
   10.0755   -0.1604   20.9045 H   0  0  0  0  0  0  0  0  0  0  0  0
    8.1431    0.3377   21.8884 C   0  0  2  0  0  0  0  0  0  0  0  0
    7.7962    1.3590   21.6928 H   0  0  0  0  0  0  0  0  0  0  0  0
    7.8241   -0.1390   23.3190 C   0  0  1  0  0  0  0  0  0  0  0  0
    7.1868    0.5470   23.8826 H   0  0  0  0  0  0  0  0  0  0  0  0
    7.0930   -1.4752   23.1021 C   0  0  0  0  0  0  0  0  0  0  0  0
    6.2945   -1.6549   23.8289 H   0  0  0  0  0  0  0  0  0  0  0  0
    7.7960   -2.3227   23.1570 H   0  0  0  0  0  0  0  0  0  0  0  0
    6.5159   -1.3849   21.8180 O   0  0  0  0  0  0  0  0  0  0  0  0
    7.4054   -0.6758   20.9716 C   0  0  1  0  0  0  0  0  0  0  0  0
    8.1251   -1.4021   20.5569 H   0  0  0  0  0  0  0  0  0  0  0  0
    6.6291   -0.0142   19.8504 C   0  0  0  0  0  0  0  0  0  0  0  0
    7.1458    0.0506   18.5503 C   0  0  0  0  0  0  0  0  0  0  0  0
    8.0931   -0.4325   18.3088 H   0  0  0  0  0  0  0  0  0  0  0  0
    6.5508    0.6826   17.5292 N   0  0  0  0  0  0  0  0  0  0  0  0
    5.3935    1.3074   17.7933 C   0  0  0  0  0  0  0  0  0  0  0  0
    4.9313    1.8332   16.9622 H   0  0  0  0  0  0  0  0  0  0  0  0
    4.7834    1.3144   19.0542 C   0  0  0  0  0  0  0  0  0  0  0  0
    3.8555    1.8604   19.2101 H   0  0  0  0  0  0  0  0  0  0  0  0
    5.4155    0.6474   20.1005 C   0  0  0  0  0  0  0  0  0  0  0  0
    4.9914    0.6307   21.1062 H   0  0  0  0  0  0  0  0  0  0  0  0
  1  2  1  0
  2  3  1  0
  3  4  1  0
  3  5  1  0
  5  6  2  0
  5  7  1  0
  7  8  1  0
  7  9  2  3
  9 10  1  0
  9 11  1  0
 11 12  1  1
 11 13  1  0
 13 14  1  0
 14 15  1  0
 14 16  1  0
 14 17  1  0
 17 18  1  1
 17 19  1  0
 19 20  1  1
 19 21  1  0
 21 22  1  0
 21 23  1  0
 21 24  1  0
 24 25  1  0
 25 26  1  6
 25 27  1  0
 27 28  2  0
 28 29  1  0
 28 30  1  0
 30 31  2  0
 31 32  1  0
 31 33  1  0
 33 34  1  0
 33 35  2  0
 35 36  1  0
 19 11  1  0
 35 27  1  0
 25 17  1  0
M  END
>  <cnnaffinity>  (1) 
4.49299

>  <plip>  (1) 
-0.0

>  <filename>  (1) 
[H][O][N]([H])[C](=[O])[C]([H])=[C]([H])[C@@]1([H])[O][C]([H])([H])[C@]2([H])[C@@]1([H])[C]([H])([H])[O][C@@]2([H])[c]1[c]([H])[n][c]([H])[c]([H])[c]1[H]

>  <combo1>  (1) 
-5.420581606898981e-06

$$$$
