
     RDKit          3D

 26 28  0  0  0  0  0  0  0  0999 V2000
    6.7279    3.0005   25.3103 H   0  0  0  0  0  0  0  0  0  0  0  0
    7.0284    2.6410   24.3305 C   0  0  0  0  0  0  0  0  0  0  0  0
    7.4861    3.2630   23.2436 C   0  0  0  0  0  0  0  0  0  0  0  0
    7.6913    4.3040   23.0258 H   0  0  0  0  0  0  0  0  0  0  0  0
    7.7667    2.2512   22.1900 C   0  0  0  0  0  0  0  0  0  0  0  0
    8.2546    2.3992   21.0997 O   0  0  0  0  0  0  0  0  0  0  0  0
    7.3759    1.0369   22.7362 N   0  0  0  0  0  0  0  0  0  0  0  0
    7.6066   -0.1802   22.1091 C   0  0  0  0  0  0  0  0  0  0  0  0
    8.1985   -1.0683   23.0145 N   0  0  0  0  0  0  0  0  0  0  0  0
    8.8095   -2.0106   22.4902 N   0  0  0  0  0  0  0  0  0  0  0  0
    8.8719   -2.8335   23.1099 H   0  0  0  0  0  0  0  0  0  0  0  0
    6.7694   -2.9434   21.5628 C   0  0  0  0  0  0  0  0  0  0  0  0
    6.5388   -3.2612   21.5318 O   0  0  0  0  0  0  0  0  0  0  0  0
    7.3393   -0.5315   20.9043 N   0  0  0  0  0  0  0  0  0  0  0  0
    6.6866    0.2908   19.9526 C   0  0  0  0  0  0  0  0  0  0  0  0
    7.2662    0.3981   18.6532 C   0  0  0  0  0  0  0  0  0  0  0  0
    8.2704    0.0015   18.4957 H   0  0  0  0  0  0  0  0  0  0  0  0
    6.6614    0.9315   17.5909 N   0  0  0  0  0  0  0  0  0  0  0  0
    5.4259    1.4337   17.7623 C   0  0  0  0  0  0  0  0  0  0  0  0
    4.9404    1.8308   16.8722 H   0  0  0  0  0  0  0  0  0  0  0  0
    4.7651    1.4183   18.9894 C   0  0  0  0  0  0  0  0  0  0  0  0
    3.7776    1.8579   19.0687 H   0  0  0  0  0  0  0  0  0  0  0  0
    5.3989    0.8540   20.1056 C   0  0  0  0  0  0  0  0  0  0  0  0
    4.8993    0.8142   21.0733 H   0  0  0  0  0  0  0  0  0  0  0  0
    6.9459    1.1775   24.0506 C   0  0  0  0  0  0  0  0  0  0  0  0
    6.5542    0.3166   24.7844 O   0  0  0  0  0  0  0  0  0  0  0  0
  1  2  1  0
  2  3  2  0
  3  4  1  0
  3  5  1  0
  5  6  2  0
  5  7  1  0
  7  8  1  0
  8  9  2  0
  9 10  1  0
 10 11  1  0
 10 12  1  0
 12 13  2  0
 12 14  1  0
 14 15  1  0
 15 16  2  0
 16 17  1  0
 16 18  1  0
 18 19  2  0
 19 20  1  0
 19 21  1  0
 21 22  1  0
 21 23  2  0
 23 24  1  0
  7 25  1  0
 25 26  2  0
 25  2  1  0
 14  8  1  0
 23 15  1  0
M  END
>  <cnnaffinity>  (1) 
4.94467

>  <plip>  (1) 
-0.10714285714285714

>  <filename>  (1) 
[H][C]1=[C]([H])[C](=[O])[N]([c]2[n][n]([H])[c](=[O])[n]2-[c]2[c]([H])[n][c]([H])[c]([H])[c]2[H])[C]1=[O]

>  <combo1>  (1) 
-0.6865831177869248

$$$$
