
     RDKit          3D

 56 59  0  0  0  0  0  0  0  0999 V2000
    4.7992    1.3695   19.0497 C   0  0  0  0  0  0  0  0  0  0  0  0
    5.4414    1.3558   17.8084 C   0  0  0  0  0  0  0  0  0  0  0  0
    6.6106    0.7365   17.5925 N   0  0  0  0  0  0  0  0  0  0  0  0
    7.1844    0.1183   18.6318 C   0  0  0  0  0  0  0  0  0  0  0  0
    6.6223    0.0571   19.9190 C   0  0  0  0  0  0  0  0  0  0  0  0
    7.3211   -0.6713   21.0510 C   0  0  0  0  0  0  0  0  0  0  0  0
    7.5876   -2.1529   20.7309 C   0  0  0  0  0  0  0  0  0  0  0  0
    7.4271   -3.1478   21.8398 N   0  0  0  0  0  4  0  0  0  0  0  0
    7.4251   -4.5864   21.3753 C   0  0  0  0  0  0  0  0  0  0  0  0
    7.7690   -5.4111   22.6208 C   0  0  0  0  0  0  0  0  0  0  0  0
    8.4128   -4.4239   23.6192 C   0  0  0  0  0  0  0  0  0  0  0  0
    8.5191   -3.0938   22.8763 C   0  0  0  0  0  0  0  0  0  0  0  0
    9.4822   -3.0089   22.3567 H   0  0  0  0  0  0  0  0  0  0  0  0
    8.3967   -2.2170   23.5213 H   0  0  0  0  0  0  0  0  0  0  0  0
    7.7796   -4.3075   24.5044 H   0  0  0  0  0  0  0  0  0  0  0  0
    9.3965   -4.7554   23.9649 H   0  0  0  0  0  0  0  0  0  0  0  0
    8.4414   -6.2347   22.3606 H   0  0  0  0  0  0  0  0  0  0  0  0
    6.8671   -5.8602   23.0493 H   0  0  0  0  0  0  0  0  0  0  0  0
    6.4606   -4.8470   20.9312 H   0  0  0  0  0  0  0  0  0  0  0  0
    8.1925   -4.7032   20.6012 H   0  0  0  0  0  0  0  0  0  0  0  0
    6.5121   -2.9818   22.3265 H   0  0  0  0  0  0  0  0  0  0  0  0
    8.6304   -2.1999   20.3883 H   0  0  0  0  0  0  0  0  0  0  0  0
    6.9575   -2.4475   19.8834 H   0  0  0  0  0  0  0  0  0  0  0  0
    8.5968    0.0883   21.2728 N   0  0  0  0  0  4  0  0  0  0  0  0
    8.4807    1.4032   21.9446 C   0  0  0  0  0  0  0  0  0  0  0  0
    8.1134    1.2686   23.4249 C   0  0  0  0  0  0  0  0  0  0  0  0
    7.9584    2.6451   24.0562 C   0  0  0  0  0  0  0  0  0  0  0  0
    9.1749    3.4448   23.8454 N   0  0  0  0  0  0  0  0  0  0  0  0
    9.4874    4.4567   24.7367 C   0  0  0  0  0  0  0  0  0  0  0  0
   10.2104    5.6206   24.3244 C   0  0  0  0  0  0  0  0  0  0  0  0
   10.6571    6.4885   25.2983 C   0  0  0  0  0  0  0  0  0  0  0  0
   10.2737    6.2290   26.6318 C   0  0  0  0  0  0  0  0  0  0  0  0
    9.5012    5.1990   26.9538 N   0  0  0  0  0  0  0  0  0  0  0  0
    9.1112    4.3157   26.0232 N   0  0  0  0  0  0  0  0  0  0  0  0
   10.5730    6.8687   27.4558 H   0  0  0  0  0  0  0  0  0  0  0  0
   11.3040    7.3290   25.0524 H   0  0  0  0  0  0  0  0  0  0  0  0
   10.3618    5.8181   23.2669 H   0  0  0  0  0  0  0  0  0  0  0  0
    9.6547    3.5305   22.4651 C   0  0  0  0  0  0  0  0  0  0  0  0
    9.8016    2.1482   21.8428 C   0  0  0  0  0  0  0  0  0  0  0  0
   10.1268    2.2551   20.8042 H   0  0  0  0  0  0  0  0  0  0  0  0
   10.5895    1.5947   22.3711 H   0  0  0  0  0  0  0  0  0  0  0  0
   10.6356    4.0153   22.4383 H   0  0  0  0  0  0  0  0  0  0  0  0
    8.9578    4.1451   21.8644 H   0  0  0  0  0  0  0  0  0  0  0  0
    7.7826    2.5459   25.1308 H   0  0  0  0  0  0  0  0  0  0  0  0
    7.0822    3.1702   23.6314 H   0  0  0  0  0  0  0  0  0  0  0  0
    8.9043    0.7144   23.9495 H   0  0  0  0  0  0  0  0  0  0  0  0
    7.1884    0.7004   23.5455 H   0  0  0  0  0  0  0  0  0  0  0  0
    7.7034    1.9996   21.4422 H   0  0  0  0  0  0  0  0  0  0  0  0
    8.9647    0.2667   20.3106 H   0  0  0  0  0  0  0  0  0  0  0  0
    9.2922   -0.4626   21.8181 H   0  0  0  0  0  0  0  0  0  0  0  0
    6.6963   -0.6211   21.9514 H   0  0  0  0  0  0  0  0  0  0  0  0
    5.4067    0.7186   20.1267 C   0  0  0  0  0  0  0  0  0  0  0  0
    4.9589    0.7428   21.1239 H   0  0  0  0  0  0  0  0  0  0  0  0
    8.1240   -0.3848   18.3946 H   0  0  0  0  0  0  0  0  0  0  0  0
    4.9966    1.8595   16.9500 H   0  0  0  0  0  0  0  0  0  0  0  0
    3.8558    1.8902   19.1607 H   0  0  0  0  0  0  0  0  0  0  0  0
  1  2  2  0
  2  3  1  0
  3  4  2  0
  4  5  1  0
  5  6  1  0
  6  7  1  0
  7  8  1  0
  8  9  1  0
  9 10  1  0
 10 11  1  0
 11 12  1  0
 12 13  1  0
 12 14  1  0
 11 15  1  0
 11 16  1  0
 10 17  1  0
 10 18  1  0
  9 19  1  0
  9 20  1  0
  8 21  1  0
  7 22  1  0
  7 23  1  0
  6 24  1  0
 24 25  1  0
 25 26  1  0
 26 27  1  0
 27 28  1  0
 28 29  1  0
 29 30  2  0
 30 31  1  0
 31 32  2  0
 32 33  1  0
 33 34  2  0
 32 35  1  0
 31 36  1  0
 30 37  1  0
 28 38  1  0
 38 39  1  0
 39 40  1  0
 39 41  1  0
 38 42  1  0
 38 43  1  0
 27 44  1  0
 27 45  1  0
 26 46  1  0
 26 47  1  0
 25 48  1  0
 24 49  1  0
 24 50  1  0
  6 51  1  0
  5 52  2  0
 52 53  1  0
  4 54  1  0
  2 55  1  0
  1 56  1  0
 52  1  1  0
 12  8  1  0
 39 25  1  0
 34 29  1  0
M  CHG  2   8   1  24   1
M  END
>  <cnnaffinity>  (1) 
5.30686

>  <plip>  (1) 
-0.23333333333333334

>  <filename>  (1) 
[H][c]1[n][n][c]([N]2[C]([H])([H])[C]([H])([H])[C]([H])([N+]([H])([H])[C]([H])([c]3[c]([H])[n][c]([H])[c]([H])[c]3[H])[C]([H])([H])[N+]3([H])[C]([H])([H])[C]([H])([H])[C]([H])([H])[C]3([H])[H])[C]([H])([H])[C]2([H])[H])[c]([H])[c]1[H]

>  <combo1>  (1) 
-1.1643256674934923

$$$$
