
     RDKit          3D

 30 32  0  0  0  0  0  0  0  0999 V2000
    6.1254   -2.9109   20.2317 O   0  0  0  0  0  0  0  0  0  0  0  0
    6.5381   -2.2757   21.1821 C   0  0  0  0  0  0  0  0  0  0  0  0
    6.4680   -2.7325   22.4883 N   0  0  0  0  0  0  0  0  0  0  0  0
    5.6256   -3.8062   22.9186 C   0  0  0  0  0  0  0  0  0  0  0  0
    4.4494   -4.0356   22.2562 C   0  0  0  0  0  0  0  0  0  0  0  0
    3.6732   -5.0863   22.6294 N   0  0  0  0  0  0  0  0  0  0  0  0
    2.5259   -5.4310   22.0352 N   0  0  0  0  0  0  0  0  0  0  0  0
    2.2077   -6.5832   22.6231 C   0  0  0  0  0  0  0  0  0  0  0  0
    3.1292   -6.9940   23.5969 C   0  0  0  0  0  0  0  0  0  0  0  0
    4.0824   -5.9912   23.6173 C   0  0  0  0  0  0  0  0  0  0  0  0
    5.2233   -5.7591   24.3467 N   0  0  0  0  0  0  0  0  0  0  0  0
    5.9443   -4.7064   24.0267 C   0  0  0  0  0  0  0  0  0  0  0  0
    6.8393   -4.5456   24.6354 H   0  0  0  0  0  0  0  0  0  0  0  0
    3.1449   -7.9184   24.1504 H   0  0  0  0  0  0  0  0  0  0  0  0
    1.3101   -7.0817   22.2768 H   0  0  0  0  0  0  0  0  0  0  0  0
    4.0658   -3.4380   21.4444 H   0  0  0  0  0  0  0  0  0  0  0  0
    6.7550   -2.0381   23.1627 H   0  0  0  0  0  0  0  0  0  0  0  0
    7.2630   -0.8637   20.9677 C   0  0  0  0  0  0  0  0  0  0  0  0
    7.2912   -0.1714   22.1640 F   0  0  0  0  0  0  0  0  0  0  0  0
    8.5658   -1.1210   20.6547 F   0  0  0  0  0  0  0  0  0  0  0  0
    6.6418    0.0248   19.9095 C   0  0  0  0  0  0  0  0  0  0  0  0
    5.4401    0.7020   20.1576 C   0  0  0  0  0  0  0  0  0  0  0  0
    4.8225    1.3372   19.0801 C   0  0  0  0  0  0  0  0  0  0  0  0
    5.4407    1.3137   17.8244 C   0  0  0  0  0  0  0  0  0  0  0  0
    6.6197    0.7176   17.5923 N   0  0  0  0  0  0  0  0  0  0  0  0
    7.2025    0.0978   18.6236 C   0  0  0  0  0  0  0  0  0  0  0  0
    8.1571   -0.3826   18.4206 H   0  0  0  0  0  0  0  0  0  0  0  0
    4.9653    1.7948   16.9695 H   0  0  0  0  0  0  0  0  0  0  0  0
    3.8751    1.8467   19.1996 H   0  0  0  0  0  0  0  0  0  0  0  0
    5.0113    0.7488   21.1624 H   0  0  0  0  0  0  0  0  0  0  0  0
  1  2  2  0
  2  3  1  0
  3  4  1  0
  4  5  2  0
  5  6  1  0
  6  7  1  0
  7  8  2  0
  8  9  1  0
  9 10  2  0
 10 11  1  0
 11 12  2  0
 12 13  1  0
  9 14  1  0
  8 15  1  0
  5 16  1  0
  3 17  1  0
  2 18  1  0
 18 19  1  0
 18 20  1  0
 18 21  1  0
 21 22  2  0
 22 23  1  0
 23 24  2  0
 24 25  1  0
 25 26  2  0
 26 27  1  0
 24 28  1  0
 23 29  1  0
 22 30  1  0
 12  4  1  0
 26 21  1  0
 10  6  1  0
M  END
>  <cnnaffinity>  (1) 
5.13007

>  <plip>  (1) 
-0.10344827586206896

>  <filename>  (1) 
[H][c]1[n][c]([H])[c]([C]([F])([F])[C](=[O])[N]([H])[c]2[c]([H])[n][c]3[c]([H])[c]([H])[n][n]3[c]2[H])[c]([H])[c]1[H]

>  <combo1>  (1) 
-0.6115886722924905

$$$$
