
     RDKit          3D

 25 25  0  0  0  0  0  0  0  0999 V2000
    5.0149    1.7540   17.0441 H   0  0  0  0  0  0  0  0  0  0  0  0
    5.4683    1.2456   17.8930 C   0  0  0  0  0  0  0  0  0  0  0  0
    6.6366    0.6041   17.6731 N   0  0  0  0  0  0  0  0  0  0  0  0
    7.2057   -0.0105   18.7140 C   0  0  0  0  0  0  0  0  0  0  0  0
    8.1559   -0.5202   18.5456 H   0  0  0  0  0  0  0  0  0  0  0  0
    6.6553   -0.0316   20.0061 C   0  0  0  0  0  0  0  0  0  0  0  0
    7.4089   -0.7264   20.9748 N   0  0  0  0  0  0  0  0  0  0  0  0
    6.9135   -0.7276   22.1248 N   0  0  0  0  0  0  0  0  0  0  0  0
    7.6734   -1.4215   22.9550 N   0  0  0  0  0  0  0  0  0  0  0  0
    8.5521   -1.6908   22.5324 H   0  0  0  0  0  0  0  0  0  0  0  0
    7.3429   -1.5426   24.3474 C   0  0  0  0  0  0  0  0  0  0  0  0
    8.2459   -1.8537   24.8794 H   0  0  0  0  0  0  0  0  0  0  0  0
    7.0489   -0.5627   24.7398 H   0  0  0  0  0  0  0  0  0  0  0  0
    6.2116   -2.5495   24.6161 C   0  0  0  0  0  0  0  0  0  0  0  0
    6.5118   -3.5599   24.2945 H   0  0  0  0  0  0  0  0  0  0  0  0
    5.3625   -2.2922   23.9886 H   0  0  0  0  0  0  0  0  0  0  0  0
    5.8102   -2.5024   25.9718 O   0  0  0  0  0  0  0  0  0  0  0  0
    5.9762   -3.6902   26.7114 C   0  0  0  0  0  0  0  0  0  0  0  0
    5.4444   -4.5433   26.2581 H   0  0  0  0  0  0  0  0  0  0  0  0
    7.0397   -3.9526   26.8271 H   0  0  0  0  0  0  0  0  0  0  0  0
    5.5545   -3.5133   27.7044 H   0  0  0  0  0  0  0  0  0  0  0  0
    5.4360    0.6287   20.2233 C   0  0  0  0  0  0  0  0  0  0  0  0
    5.0241    0.6199   21.2313 H   0  0  0  0  0  0  0  0  0  0  0  0
    4.8321    1.2765   19.1443 C   0  0  0  0  0  0  0  0  0  0  0  0
    3.8941    1.8103   19.2841 H   0  0  0  0  0  0  0  0  0  0  0  0
  1  2  1  0
  2  3  2  0
  3  4  1  0
  4  5  1  0
  4  6  2  0
  6  7  1  0
  7  8  2  3
  8  9  1  0
  9 10  1  0
  9 11  1  0
 11 12  1  0
 11 13  1  0
 11 14  1  0
 14 15  1  0
 14 16  1  0
 14 17  1  0
 17 18  1  0
 18 19  1  0
 18 20  1  0
 18 21  1  0
  6 22  1  0
 22 23  1  0
 22 24  2  0
 24 25  1  0
 24  2  1  0
M  END
>  <cnnaffinity>  (1) 
3.85532

>  <plip>  (1) 
-0.03571428571428571

>  <filename>  (1) 
[H][c]1[n][c]([H])[c]([N]=[N][N]([H])[C]([H])([H])[C]([H])([H])[O][C]([H])([H])[H])[c]([H])[c]1[H]

>  <combo1>  (1) 
-0.25468293648371443

$$$$
