
     RDKit          3D

 38 40  0  0  0  0  0  0  0  0999 V2000
   11.0077    1.6037   24.2053 C   0  0  0  0  0  0  0  0  0  0  0  0
    9.8521    0.9328   24.2519 C   0  0  0  0  0  0  0  0  0  0  0  0
    9.8568   -0.5266   24.6839 C   0  0  0  0  0  0  0  0  0  0  0  0
   10.2865   -1.6736   23.3048 S   0  0  0  0  0  0  0  0  0  0  0  0
    8.7945   -1.4438   22.3857 C   0  0  0  0  0  0  0  0  0  0  0  0
    7.6382   -1.9400   22.7393 N   0  0  0  0  0  0  0  0  0  0  0  0
    6.6988   -1.4574   21.8643 N   0  0  0  0  0  0  0  0  0  0  0  0
    7.3128   -0.6986   20.9928 C   0  0  0  0  0  0  0  0  0  0  0  0
    6.6416    0.0273   19.9021 C   0  0  0  0  0  0  0  0  0  0  0  0
    5.4188    0.6593   20.1400 C   0  0  0  0  0  0  0  0  0  0  0  0
    4.7933    1.3277   19.0870 C   0  0  0  0  0  0  0  0  0  0  0  0
    5.3962    1.3071   17.8221 C   0  0  0  0  0  0  0  0  0  0  0  0
    6.5523    0.6777   17.5714 N   0  0  0  0  0  0  0  0  0  0  0  0
    7.1583    0.0653   18.5973 C   0  0  0  0  0  0  0  0  0  0  0  0
    8.0963   -0.4299   18.3474 H   0  0  0  0  0  0  0  0  0  0  0  0
    4.9347    1.8073   16.9694 H   0  0  0  0  0  0  0  0  0  0  0  0
    3.8588    1.8578   19.2205 H   0  0  0  0  0  0  0  0  0  0  0  0
    4.9813    0.6034   21.1385 H   0  0  0  0  0  0  0  0  0  0  0  0
    8.6531   -0.6566   21.2730 N   0  0  0  0  0  0  0  0  0  0  0  0
    9.6902    0.0922   20.5986 C   0  0  0  0  0  0  0  0  0  0  0  0
    9.2563    0.9945   20.1590 H   0  0  0  0  0  0  0  0  0  0  0  0
   10.4615    0.3826   21.3200 H   0  0  0  0  0  0  0  0  0  0  0  0
   10.1255   -0.5336   19.8146 H   0  0  0  0  0  0  0  0  0  0  0  0
    8.8822   -0.8506   25.0568 H   0  0  0  0  0  0  0  0  0  0  0  0
   10.6120   -0.7221   25.4509 H   0  0  0  0  0  0  0  0  0  0  0  0
    8.5600    1.5560   23.8006 C   0  0  0  0  0  0  0  0  0  0  0  0
    7.3496    1.3005   24.4653 C   0  0  0  0  0  0  0  0  0  0  0  0
    6.1557    1.9032   24.0567 C   0  0  0  0  0  0  0  0  0  0  0  0
    6.1522    2.7656   22.9553 C   0  0  0  0  0  0  0  0  0  0  0  0
    7.3463    3.0246   22.2747 C   0  0  0  0  0  0  0  0  0  0  0  0
    8.5395    2.4292   22.6940 C   0  0  0  0  0  0  0  0  0  0  0  0
    9.4658    2.6370   22.1618 H   0  0  0  0  0  0  0  0  0  0  0  0
    7.3371    3.7116   21.4337 H   0  0  0  0  0  0  0  0  0  0  0  0
    5.2270    3.2279   22.6132 H   0  0  0  0  0  0  0  0  0  0  0  0
    5.2341    1.7070   24.6013 H   0  0  0  0  0  0  0  0  0  0  0  0
    7.3566    0.6680   25.3481 H   0  0  0  0  0  0  0  0  0  0  0  0
   11.9467    1.1220   24.4689 H   0  0  0  0  0  0  0  0  0  0  0  0
   11.0582    2.6417   23.8848 H   0  0  0  0  0  0  0  0  0  0  0  0
  1  2  2  3
  2  3  1  0
  3  4  1  0
  4  5  1  0
  5  6  2  0
  6  7  1  0
  7  8  2  0
  8  9  1  0
  9 10  2  0
 10 11  1  0
 11 12  2  0
 12 13  1  0
 13 14  2  0
 14 15  1  0
 12 16  1  0
 11 17  1  0
 10 18  1  0
  8 19  1  0
 19 20  1  0
 20 21  1  0
 20 22  1  0
 20 23  1  0
  3 24  1  0
  3 25  1  0
  2 26  1  0
 26 27  2  0
 27 28  1  0
 28 29  2  0
 29 30  1  0
 30 31  2  0
 31 32  1  0
 30 33  1  0
 29 34  1  0
 28 35  1  0
 27 36  1  0
  1 37  1  0
  1 38  1  0
 19  5  1  0
 31 26  1  0
 14  9  1  0
M  END
>  <cnnaffinity>  (1) 
5.51303

>  <plip>  (1) 
-0.03571428571428571

>  <filename>  (1) 
[H][C]([H])=[C]([c]1[c]([H])[c]([H])[c]([H])[c]([H])[c]1[H])[C]([H])([H])[S][c]1[n][n][c](-[c]2[c]([H])[n][c]([H])[c]([H])[c]2[H])[n]1[C]([H])([H])[H]

>  <combo1>  (1) 
-0.21280538738630236

$$$$
