
     RDKit          3D

 38 40  0  0  0  0  0  0  0  0999 V2000
   10.6385   -0.8734   22.4630 C   0  0  0  0  0  0  0  0  0  0  0  0
    9.9337   -0.6504   21.1386 C   0  0  0  0  0  0  0  0  0  0  0  0
    8.6435    0.0250   21.2923 N   0  0  0  0  0  0  0  0  0  0  0  0
    7.4075   -0.6904   20.9887 C   0  0  0  0  0  0  0  0  0  0  0  0
    6.6352   -0.0007   19.8995 C   0  0  0  0  0  0  0  0  0  0  0  0
    5.4243    0.6487   20.1585 C   0  0  0  0  0  0  0  0  0  0  0  0
    4.7979    1.3157   19.1018 C   0  0  0  0  0  0  0  0  0  0  0  0
    5.3997    1.2936   17.8384 C   0  0  0  0  0  0  0  0  0  0  0  0
    6.5619    0.6772   17.5767 N   0  0  0  0  0  0  0  0  0  0  0  0
    7.1637    0.0671   18.6031 C   0  0  0  0  0  0  0  0  0  0  0  0
    8.1119   -0.4152   18.3699 H   0  0  0  0  0  0  0  0  0  0  0  0
    4.9194    1.7824   16.9936 H   0  0  0  0  0  0  0  0  0  0  0  0
    3.8670    1.8502   19.2498 H   0  0  0  0  0  0  0  0  0  0  0  0
    5.0116    0.6418   21.1760 H   0  0  0  0  0  0  0  0  0  0  0  0
    7.6710   -1.7093   20.6691 H   0  0  0  0  0  0  0  0  0  0  0  0
    6.7973   -0.7761   21.8954 H   0  0  0  0  0  0  0  0  0  0  0  0
    8.6817    1.3894   21.6135 C   0  0  0  0  0  0  0  0  0  0  0  0
    9.6379    2.0512   21.2383 O   0  0  0  0  0  0  0  0  0  0  0  0
    7.5168    2.0019   22.5247 C   0  0  0  0  0  0  0  0  0  0  0  0
    7.3447    3.3589   22.4827 N   0  0  0  0  0  0  0  0  0  0  0  0
    6.4145    3.8974   23.2296 C   0  0  0  0  0  0  0  0  0  0  0  0
    5.5813    3.1492   24.0990 C   0  0  0  0  0  0  0  0  0  0  0  0
    4.5522    3.6979   24.9175 C   0  0  0  0  0  0  0  0  0  0  0  0
    3.8074    2.8570   25.7097 C   0  0  0  0  0  0  0  0  0  0  0  0
    4.0553    1.4516   25.7189 C   0  0  0  0  0  0  0  0  0  0  0  0
    5.0514    0.9106   24.9304 C   0  0  0  0  0  0  0  0  0  0  0  0
    5.8382    1.7557   24.0985 C   0  0  0  0  0  0  0  0  0  0  0  0
    6.7942    1.2043   23.2968 N   0  0  0  0  0  0  0  0  0  0  0  0
    5.2731   -0.1529   24.9015 H   0  0  0  0  0  0  0  0  0  0  0  0
    3.4532    0.8074   26.3573 H   0  0  0  0  0  0  0  0  0  0  0  0
    3.0222    3.2666   26.3379 H   0  0  0  0  0  0  0  0  0  0  0  0
    4.3776    4.7755   24.8955 H   0  0  0  0  0  0  0  0  0  0  0  0
    6.2907    4.9849   23.1783 H   0  0  0  0  0  0  0  0  0  0  0  0
    9.7798   -1.5979   20.6145 H   0  0  0  0  0  0  0  0  0  0  0  0
   10.5659   -0.0310   20.5204 H   0  0  0  0  0  0  0  0  0  0  0  0
   10.8541    0.0864   22.9419 H   0  0  0  0  0  0  0  0  0  0  0  0
   10.0130   -1.4688   23.1291 H   0  0  0  0  0  0  0  0  0  0  0  0
   11.5892   -1.3935   22.3042 H   0  0  0  0  0  0  0  0  0  0  0  0
  1  2  1  0
  2  3  1  0
  3  4  1  0
  4  5  1  0
  5  6  2  0
  6  7  1  0
  7  8  2  0
  8  9  1  0
  9 10  2  0
 10 11  1  0
  8 12  1  0
  7 13  1  0
  6 14  1  0
  4 15  1  0
  4 16  1  0
  3 17  1  0
 17 18  2  0
 17 19  1  0
 19 20  2  0
 20 21  1  0
 21 22  2  0
 22 23  1  0
 23 24  2  0
 24 25  1  0
 25 26  2  0
 26 27  1  0
 27 28  2  0
 26 29  1  0
 25 30  1  0
 24 31  1  0
 23 32  1  0
 21 33  1  0
  2 34  1  0
  2 35  1  0
  1 36  1  0
  1 37  1  0
  1 38  1  0
 10  5  1  0
 28 19  1  0
 27 22  1  0
M  END
>  <cnnaffinity>  (1) 
4.93448

>  <plip>  (1) 
-0.10714285714285714

>  <filename>  (1) 
[H][c]1[n][c]([H])[c]([C]([H])([H])[N]([C](=[O])[c]2[n][c]([H])[c]3[c]([H])[c]([H])[c]([H])[c]([H])[c]3[n]2)[C]([H])([H])[C]([H])([H])[H])[c]([H])[c]1[H]

>  <combo1>  (1) 
-0.6028262397172787

$$$$
