
     RDKit          3D

 37 39  0  0  0  0  0  0  0  0999 V2000
    9.5822    0.3437   21.2850 O   0  0  0  0  0  0  0  0  0  0  0  0
    8.4235    0.3008   21.6624 C   0  0  0  0  0  0  0  0  0  0  0  0
    7.4106   -0.6592   21.0377 C   0  0  0  0  0  0  0  0  0  0  0  0
    6.6391   -0.0067   19.8966 C   0  0  0  0  0  0  0  0  0  0  0  0
    5.4303    0.6545   20.1390 C   0  0  0  0  0  0  0  0  0  0  0  0
    4.7913    1.3199   19.0884 C   0  0  0  0  0  0  0  0  0  0  0  0
    5.3863    1.3011   17.8239 C   0  0  0  0  0  0  0  0  0  0  0  0
    6.5441    0.6750   17.5641 N   0  0  0  0  0  0  0  0  0  0  0  0
    7.1475    0.0517   18.5842 C   0  0  0  0  0  0  0  0  0  0  0  0
    8.1041   -0.4188   18.3546 H   0  0  0  0  0  0  0  0  0  0  0  0
    4.9172    1.8052   16.9793 H   0  0  0  0  0  0  0  0  0  0  0  0
    3.8614    1.8569   19.2364 H   0  0  0  0  0  0  0  0  0  0  0  0
    5.0029    0.6458   21.1437 H   0  0  0  0  0  0  0  0  0  0  0  0
    7.9998   -1.5073   20.6837 H   0  0  0  0  0  0  0  0  0  0  0  0
    6.7190   -1.0415   21.7994 H   0  0  0  0  0  0  0  0  0  0  0  0
    7.9413    1.1210   22.6336 N   0  0  0  0  0  0  0  0  0  0  0  0
    8.7337    2.2235   23.1527 C   0  0  0  0  0  0  0  0  0  0  0  0
    8.8979    3.3868   22.1561 C   0  0  0  0  0  0  0  0  0  0  0  0
    9.7468    4.4837   22.7271 C   0  0  0  0  0  0  0  0  0  0  0  0
    9.3488    5.6197   23.3654 C   0  0  0  0  0  0  0  0  0  0  0  0
   10.4554    6.3399   23.7844 N   0  0  0  0  0  0  0  0  0  0  0  0
   11.5904    5.6703   23.4331 C   0  0  0  0  0  0  0  0  0  0  0  0
   12.9494    5.9599   23.6309 C   0  0  0  0  0  0  0  0  0  0  0  0
   13.8548    5.0339   23.1282 C   0  0  0  0  0  0  0  0  0  0  0  0
   13.5103    3.9035   22.4770 N   0  0  0  0  0  0  0  0  0  0  0  0
   12.2135    3.6455   22.2921 C   0  0  0  0  0  0  0  0  0  0  0  0
   11.1908    4.4943   22.7606 C   0  0  0  0  0  0  0  0  0  0  0  0
   11.9851    2.7223   21.7526 H   0  0  0  0  0  0  0  0  0  0  0  0
   14.9288    5.1764   23.2386 H   0  0  0  0  0  0  0  0  0  0  0  0
   13.2908    6.8483   24.1444 H   0  0  0  0  0  0  0  0  0  0  0  0
   10.4427    7.2022   24.2969 H   0  0  0  0  0  0  0  0  0  0  0  0
    8.3432    5.9716   23.5513 H   0  0  0  0  0  0  0  0  0  0  0  0
    9.3556    2.9785   21.2429 H   0  0  0  0  0  0  0  0  0  0  0  0
    7.9131    3.7725   21.8637 H   0  0  0  0  0  0  0  0  0  0  0  0
    9.7314    1.8435   23.4081 H   0  0  0  0  0  0  0  0  0  0  0  0
    8.2613    2.5881   24.0700 H   0  0  0  0  0  0  0  0  0  0  0  0
    6.9624    1.0597   22.8533 H   0  0  0  0  0  0  0  0  0  0  0  0
  1  2  2  0
  2  3  1  0
  3  4  1  0
  4  5  2  0
  5  6  1  0
  6  7  2  0
  7  8  1  0
  8  9  2  0
  9 10  1  0
  7 11  1  0
  6 12  1  0
  5 13  1  0
  3 14  1  0
  3 15  1  0
  2 16  1  0
 16 17  1  0
 17 18  1  0
 18 19  1  0
 19 20  2  0
 20 21  1  0
 21 22  1  0
 22 23  2  0
 23 24  1  0
 24 25  2  0
 25 26  1  0
 26 27  2  0
 26 28  1  0
 24 29  1  0
 23 30  1  0
 21 31  1  0
 20 32  1  0
 18 33  1  0
 18 34  1  0
 17 35  1  0
 17 36  1  0
 16 37  1  0
  9  4  1  0
 27 19  1  0
 27 22  1  0
M  END
>  <cnnaffinity>  (1) 
4.82361

>  <plip>  (1) 
-0.10344827586206896

>  <filename>  (1) 
[H][c]1[n][c]([H])[c]([C]([H])([H])[C](=[O])[N]([H])[C]([H])([H])[C]([H])([H])[c]2[c]([H])[n]([H])[c]3[c]([H])[c]([H])[n][c]([H])[c]23)[c]([H])[c]1[H]

>  <combo1>  (1) 
-0.5933392286630624

$$$$
