
     RDKit          3D

 41 43  0  0  0  0  0  0  0  0999 V2000
    5.8508   -2.9992   20.6245 O   0  0  0  0  0  0  0  0  0  0  0  0
    6.9943   -2.8056   20.9934 C   0  0  0  0  0  0  0  0  0  0  0  0
    7.9460   -3.4498   21.4045 O   0  0  0  0  0  1  0  0  0  0  0  0
    7.2461   -0.8483   21.0565 C   0  0  0  0  0  0  0  0  0  0  0  0
    8.5218   -0.1024   21.3986 N   0  0  0  0  0  4  0  0  0  0  0  0
    9.3158   -0.6512   22.5277 C   0  0  0  0  0  0  0  0  0  0  0  0
   10.6498    0.0645   22.5765 C   0  0  0  0  0  0  0  0  0  0  0  0
   11.8472   -0.5818   22.2284 C   0  0  0  0  0  0  0  0  0  0  0  0
   13.0725    0.0850   22.3553 C   0  0  0  0  0  0  0  0  0  0  0  0
   13.1233    1.4004   22.8266 C   0  0  0  0  0  0  0  0  0  0  0  0
   11.9353    2.0784   23.1790 C   0  0  0  0  0  0  0  0  0  0  0  0
   11.8948    3.5084   23.6546 C   0  0  0  0  0  0  0  0  0  0  0  0
   12.9481    4.4142   23.4332 C   0  0  0  0  0  0  0  0  0  0  0  0
   12.8217    5.7315   23.8703 C   0  0  0  0  0  0  0  0  0  0  0  0
   11.6619    6.1121   24.5443 C   0  0  0  0  0  0  0  0  0  0  0  0
   10.6787    5.1455   24.7554 C   0  0  0  0  0  0  0  0  0  0  0  0
   10.7760    3.8953   24.3056 N   0  0  0  0  0  0  0  0  0  0  0  0
    9.7795    5.3853   25.3218 H   0  0  0  0  0  0  0  0  0  0  0  0
   11.5247    7.1210   24.9061 H   0  0  0  0  0  0  0  0  0  0  0  0
   13.6206    6.4467   23.7089 H   0  0  0  0  0  0  0  0  0  0  0  0
   13.8380    4.0913   22.9059 H   0  0  0  0  0  0  0  0  0  0  0  0
   10.7207    1.3810   23.0515 C   0  0  0  0  0  0  0  0  0  0  0  0
    9.8166    1.9016   23.3585 H   0  0  0  0  0  0  0  0  0  0  0  0
   14.1004    1.8715   22.9297 H   0  0  0  0  0  0  0  0  0  0  0  0
   13.9953   -0.4250   22.0888 H   0  0  0  0  0  0  0  0  0  0  0  0
   11.8119   -1.6052   21.8554 H   0  0  0  0  0  0  0  0  0  0  0  0
    8.7795   -0.5075   23.4780 H   0  0  0  0  0  0  0  0  0  0  0  0
    9.4214   -1.7313   22.3744 H   0  0  0  0  0  0  0  0  0  0  0  0
    8.3329    0.9271   21.5927 H   0  0  0  0  0  0  0  0  0  0  0  0
    9.1343   -0.0956   20.5390 H   0  0  0  0  0  0  0  0  0  0  0  0
    6.6592   -0.1211   19.8895 C   0  0  0  0  0  0  0  0  0  0  0  0
    5.4391    0.5515   20.0661 C   0  0  0  0  0  0  0  0  0  0  0  0
    4.8968    1.2770   19.0055 C   0  0  0  0  0  0  0  0  0  0  0  0
    5.5933    1.3033   17.7943 C   0  0  0  0  0  0  0  0  0  0  0  0
    6.7620    0.6747   17.5956 N   0  0  0  0  0  0  0  0  0  0  0  0
    7.2838    0.0004   18.6306 C   0  0  0  0  0  0  0  0  0  0  0  0
    8.2308   -0.5024   18.4272 H   0  0  0  0  0  0  0  0  0  0  0  0
    5.1849    1.8475   16.9443 H   0  0  0  0  0  0  0  0  0  0  0  0
    3.9722    1.8336   19.1138 H   0  0  0  0  0  0  0  0  0  0  0  0
    4.9472    0.5193   21.0403 H   0  0  0  0  0  0  0  0  0  0  0  0
    6.5556   -0.8477   21.9030 H   0  0  0  0  0  0  0  0  0  0  0  0
  1  2  2  0
  2  3  1  0
  2  4  1  0
  4  5  1  0
  5  6  1  0
  6  7  1  0
  7  8  2  0
  8  9  1  0
  9 10  2  0
 10 11  1  0
 11 12  1  0
 12 13  2  0
 13 14  1  0
 14 15  2  0
 15 16  1  0
 16 17  2  0
 16 18  1  0
 15 19  1  0
 14 20  1  0
 13 21  1  0
 11 22  2  0
 22 23  1  0
 10 24  1  0
  9 25  1  0
  8 26  1  0
  6 27  1  0
  6 28  1  0
  5 29  1  0
  5 30  1  0
  4 31  1  0
 31 32  2  0
 32 33  1  0
 33 34  2  0
 34 35  1  0
 35 36  2  0
 36 37  1  0
 34 38  1  0
 33 39  1  0
 32 40  1  0
  4 41  1  0
 22  7  1  0
 36 31  1  0
 17 12  1  0
M  CHG  2   3  -1   5   1
M  END
>  <cnnaffinity>  (1) 
4.86885

>  <plip>  (1) 
-0.2

>  <filename>  (1) 
[H][c]1[n][c](-[c]2[c]([H])[c]([H])[c]([H])[c]([C]([H])([H])[N+]([H])([H])[C]([H])([C](=[O])[O-])[c]3[c]([H])[n][c]([H])[c]([H])[c]3[H])[c]2[H])[c]([H])[c]([H])[c]1[H]

>  <combo1>  (1) 
-1.016363772998835

$$$$
