
     RDKit          3D

 28 30  0  0  0  0  0  0  0  0999 V2000
    4.9642    1.8108   16.9253 H   0  0  0  0  0  0  0  0  0  0  0  0
    5.4367    1.3068   17.7682 C   0  0  0  0  0  0  0  0  0  0  0  0
    6.5917    0.6683   17.5153 N   0  0  0  0  0  0  0  0  0  0  0  0
    7.1980    0.0463   18.5307 C   0  0  0  0  0  0  0  0  0  0  0  0
    8.1280   -0.4669   18.3043 H   0  0  0  0  0  0  0  0  0  0  0  0
    6.7000    0.0219   19.8458 C   0  0  0  0  0  0  0  0  0  0  0  0
    7.4052   -0.6865   20.8811 N   0  0  0  0  0  0  0  0  0  0  0  0
    8.6825   -1.1143   20.7423 N   0  0  0  0  0  0  0  0  0  0  0  0
    9.0252   -1.7408   21.8133 N   0  0  0  0  0  0  0  0  0  0  0  0
    7.9757   -1.7372   22.7015 C   0  0  0  0  0  0  0  0  0  0  0  0
    7.9087   -2.2637   24.1114 C   0  0  0  0  0  0  0  0  0  0  0  0
    6.9238   -1.9740   24.7764 O   0  0  0  0  0  0  0  0  0  0  0  0
    8.9826   -3.1457   24.7701 C   0  0  0  0  0  0  0  0  0  0  0  0
    8.9629   -3.2886   26.1778 C   0  0  0  0  0  0  0  0  0  0  0  0
    8.2930   -2.7185   26.8134 H   0  0  0  0  0  0  0  0  0  0  0  0
    9.8456   -4.1706   26.8003 C   0  0  0  0  0  0  0  0  0  0  0  0
    9.7880   -4.2969   27.8811 H   0  0  0  0  0  0  0  0  0  0  0  0
   10.7740   -4.8797   26.1429 N   0  0  0  0  0  0  0  0  0  0  0  0
   10.8235   -4.7261   24.8149 C   0  0  0  0  0  0  0  0  0  0  0  0
   11.5708   -5.3239   24.3010 H   0  0  0  0  0  0  0  0  0  0  0  0
    9.9732   -3.8777   24.0844 C   0  0  0  0  0  0  0  0  0  0  0  0
   10.1180   -3.7737   23.0101 H   0  0  0  0  0  0  0  0  0  0  0  0
    6.9436   -1.0670   22.0912 C   0  0  0  0  0  0  0  0  0  0  0  0
    5.9539   -0.8541   22.4533 H   0  0  0  0  0  0  0  0  0  0  0  0
    5.4917    0.6885   20.1041 C   0  0  0  0  0  0  0  0  0  0  0  0
    5.0637    0.7404   21.1054 H   0  0  0  0  0  0  0  0  0  0  0  0
    4.8524    1.3301   19.0369 C   0  0  0  0  0  0  0  0  0  0  0  0
    3.9143    1.8551   19.1801 H   0  0  0  0  0  0  0  0  0  0  0  0
  1  2  1  0
  2  3  2  0
  3  4  1  0
  4  5  1  0
  4  6  2  0
  6  7  1  0
  7  8  1  0
  8  9  2  0
  9 10  1  0
 10 11  1  0
 11 12  2  0
 11 13  1  0
 13 14  2  0
 14 15  1  0
 14 16  1  0
 16 17  1  0
 16 18  2  0
 18 19  1  0
 19 20  1  0
 19 21  2  0
 21 22  1  0
 10 23  2  0
 23 24  1  0
  6 25  1  0
 25 26  1  0
 25 27  2  0
 27 28  1  0
 27  2  1  0
 23  7  1  0
 21 13  1  0
M  END
>  <cnnaffinity>  (1) 
5.08398

>  <plip>  (1) 
-0.03571428571428571

>  <filename>  (1) 
[H][c]1[n][c]([H])[c](-[n]2[n][n][c]([C](=[O])[c]3[c]([H])[c]([H])[n][c]([H])[c]3[H])[c]2[H])[c]([H])[c]1[H]

>  <combo1>  (1) 
-0.24089079530096208

$$$$
