
     RDKit          3D

 48 51  0  0  0  0  0  0  0  0999 V2000
    4.7838    1.4288   18.9633 C   0  0  0  0  0  0  0  0  0  0  0  0
    5.4373    1.3254   17.7319 C   0  0  0  0  0  0  0  0  0  0  0  0
    6.5675    0.6298   17.5462 N   0  0  0  0  0  0  0  0  0  0  0  0
    7.0825    0.0131   18.6203 C   0  0  0  0  0  0  0  0  0  0  0  0
    6.5028    0.0295   19.9006 C   0  0  0  0  0  0  0  0  0  0  0  0
    7.2213   -0.6239   21.0575 C   0  0  0  0  0  0  0  0  0  0  0  0
    8.2533    0.2583   21.6912 C   0  0  0  0  0  0  0  0  0  0  0  0
    9.4098    0.5186   21.1377 N   0  0  0  0  0  0  0  0  0  0  0  0
   10.0224    1.3501   22.0706 O   0  0  0  0  0  0  0  0  0  0  0  0
    9.1636    1.5058   23.0788 C   0  0  0  0  0  0  0  0  0  0  0  0
    9.5698    2.1992   24.3308 C   0  0  0  0  0  0  0  0  0  0  0  0
   10.1209    1.2276   25.4061 C   0  0  0  0  0  0  0  0  0  0  0  0
    9.2204    0.0229   25.7358 C   0  0  0  0  0  0  0  0  0  0  0  0
    9.7473   -0.7879   26.9226 C   0  0  0  0  0  0  0  0  0  0  0  0
    9.2589   -2.2386   26.9896 N   0  0  0  0  0  4  0  0  0  0  0  0
    7.7912   -2.3974   27.2968 C   0  0  0  0  0  0  0  0  0  0  0  0
    7.1349   -2.5690   25.9383 C   0  0  0  0  0  0  0  0  0  0  0  0
    8.1251   -3.4833   25.2059 C   0  0  0  0  0  0  0  0  0  0  0  0
    9.5106   -3.0877   25.7451 C   0  0  0  0  0  0  0  0  0  0  0  0
   10.1137   -3.9571   26.0217 H   0  0  0  0  0  0  0  0  0  0  0  0
   10.0989   -2.5000   25.0374 H   0  0  0  0  0  0  0  0  0  0  0  0
    7.9114   -4.5336   25.4399 H   0  0  0  0  0  0  0  0  0  0  0  0
    8.0779   -3.3815   24.1179 H   0  0  0  0  0  0  0  0  0  0  0  0
    7.0511   -1.5972   25.4365 H   0  0  0  0  0  0  0  0  0  0  0  0
    6.1273   -2.9840   26.0180 H   0  0  0  0  0  0  0  0  0  0  0  0
    7.4187   -1.5613   27.8926 H   0  0  0  0  0  0  0  0  0  0  0  0
    7.6650   -3.3164   27.8765 H   0  0  0  0  0  0  0  0  0  0  0  0
    9.8113   -2.6556   27.7536 H   0  0  0  0  0  0  0  0  0  0  0  0
    9.4745   -0.2828   27.8604 H   0  0  0  0  0  0  0  0  0  0  0  0
   10.8422   -0.8135   26.8970 H   0  0  0  0  0  0  0  0  0  0  0  0
    9.1639   -0.6161   24.8485 H   0  0  0  0  0  0  0  0  0  0  0  0
    8.1896    0.3461   25.9314 H   0  0  0  0  0  0  0  0  0  0  0  0
   11.1065    0.8608   25.0827 H   0  0  0  0  0  0  0  0  0  0  0  0
   10.2953    1.8155   26.3102 H   0  0  0  0  0  0  0  0  0  0  0  0
    8.6684    2.6989   24.7002 H   0  0  0  0  0  0  0  0  0  0  0  0
   10.3002    2.9792   24.1009 H   0  0  0  0  0  0  0  0  0  0  0  0
    8.0422    0.8760   22.8977 N   0  0  0  0  0  0  0  0  0  0  0  0
    6.4497   -1.5582   21.9592 C   0  0  0  0  0  0  0  0  0  0  0  0
    7.4365   -2.1275   20.9840 C   0  0  0  0  0  0  0  0  0  0  0  0
    7.0035   -2.6175   20.1128 H   0  0  0  0  0  0  0  0  0  0  0  0
    8.3666   -2.5601   21.3530 H   0  0  0  0  0  0  0  0  0  0  0  0
    6.6945   -1.5738   23.0235 H   0  0  0  0  0  0  0  0  0  0  0  0
    5.4041   -1.7106   21.7075 H   0  0  0  0  0  0  0  0  0  0  0  0
    5.3231    0.7657   20.0709 C   0  0  0  0  0  0  0  0  0  0  0  0
    4.8512    0.8268   21.0528 H   0  0  0  0  0  0  0  0  0  0  0  0
    8.0258   -0.5117   18.4766 H   0  0  0  0  0  0  0  0  0  0  0  0
    5.0394    1.8319   16.8537 H   0  0  0  0  0  0  0  0  0  0  0  0
    3.8936    2.0418   19.0435 H   0  0  0  0  0  0  0  0  0  0  0  0
  1  2  2  0
  2  3  1  0
  3  4  2  0
  4  5  1  0
  5  6  1  0
  6  7  1  0
  7  8  2  0
  8  9  1  0
  9 10  1  0
 10 11  1  0
 11 12  1  0
 12 13  1  0
 13 14  1  0
 14 15  1  0
 15 16  1  0
 16 17  1  0
 17 18  1  0
 18 19  1  0
 19 20  1  0
 19 21  1  0
 18 22  1  0
 18 23  1  0
 17 24  1  0
 17 25  1  0
 16 26  1  0
 16 27  1  0
 15 28  1  0
 14 29  1  0
 14 30  1  0
 13 31  1  0
 13 32  1  0
 12 33  1  0
 12 34  1  0
 11 35  1  0
 11 36  1  0
 10 37  2  0
  6 38  1  0
 38 39  1  0
 39 40  1  0
 39 41  1  0
 38 42  1  0
 38 43  1  0
  5 44  2  0
 44 45  1  0
  4 46  1  0
  2 47  1  0
  1 48  1  0
 44  1  1  0
 39  6  1  0
 37  7  1  0
 19 15  1  0
M  CHG  1  15   1
M  END
>  <cnnaffinity>  (1) 
5.36478

>  <plip>  (1) 
-0.13793103448275862

>  <filename>  (1) 
[H][c]1[n][c]([H])[c]([C]2([c]3[n][o][c]([C]([H])([H])[C]([H])([H])[C]([H])([H])[C]([H])([H])[N+]4([H])[C]([H])([H])[C]([H])([H])[C]([H])([H])[C]4([H])[H])[n]3)[C]([H])([H])[C]2([H])[H])[c]([H])[c]1[H]

>  <combo1>  (1) 
-0.7869715297890658

$$$$
