
     RDKit          3D

 52 55  0  0  0  0  0  0  0  0999 V2000
    4.9931   -7.3939   24.4839 Cl  0  0  0  0  0  0  0  0  0  0  0  0
    3.7739   -6.5222   23.6124 C   0  0  0  0  0  0  0  0  0  0  0  0
    2.4491   -6.9274   23.7651 C   0  0  0  0  0  0  0  0  0  0  0  0
    1.4425   -6.1518   23.1768 C   0  0  0  0  0  0  0  0  0  0  0  0
    1.8110   -5.0314   22.4441 C   0  0  0  0  0  0  0  0  0  0  0  0
    3.0745   -4.6519   22.2758 N   0  0  0  0  0  0  0  0  0  0  0  0
    4.0739   -5.3673   22.8110 C   0  0  0  0  0  0  0  0  0  0  0  0
    5.3329   -4.8702   22.5519 N   0  0  0  0  0  0  0  0  0  0  0  0
    6.5488   -5.6482   22.2781 C   0  0  0  0  0  0  0  0  0  0  0  0
    7.4085   -4.6778   21.4466 C   0  0  0  0  0  0  0  0  0  0  0  0
    6.9987   -3.2830   21.8923 C   0  0  0  0  0  0  0  0  0  0  0  0
    7.4112   -2.2464   20.8319 N   0  0  0  0  0  4  0  0  0  0  0  0
    7.3221   -0.7262   21.0855 C   0  0  0  0  0  0  0  0  0  0  0  0
    6.5945   -0.0811   19.9166 C   0  0  0  0  0  0  0  0  0  0  0  0
    5.4136    0.6560   20.1169 C   0  0  0  0  0  0  0  0  0  0  0  0
    4.8210    1.3293   19.0453 C   0  0  0  0  0  0  0  0  0  0  0  0
    5.4496    1.2651   17.7976 C   0  0  0  0  0  0  0  0  0  0  0  0
    6.5770    0.5748   17.5785 N   0  0  0  0  0  0  0  0  0  0  0  0
    7.1295   -0.0765   18.6138 C   0  0  0  0  0  0  0  0  0  0  0  0
    8.0592   -0.5953   18.3706 H   0  0  0  0  0  0  0  0  0  0  0  0
    5.0252    1.7929   16.9442 H   0  0  0  0  0  0  0  0  0  0  0  0
    3.9119    1.9119   19.1642 H   0  0  0  0  0  0  0  0  0  0  0  0
    4.9617    0.6971   21.1088 H   0  0  0  0  0  0  0  0  0  0  0  0
    8.7174   -0.0787   21.3328 C   0  0  0  0  0  0  0  0  0  0  0  0
    9.4668   -0.7023   22.5242 C   0  0  0  0  0  0  0  0  0  0  0  0
   10.8290   -0.0113   22.7962 C   0  0  0  0  0  0  0  0  0  0  0  0
   10.9700    1.2543   22.1719 O   0  0  0  0  0  0  0  0  0  0  0  0
    9.8263    2.0754   22.2754 C   0  0  0  0  0  0  0  0  0  0  0  0
    8.6056    1.4619   21.5430 C   0  0  0  0  0  0  0  0  0  0  0  0
    8.4714    1.9503   20.5686 H   0  0  0  0  0  0  0  0  0  0  0  0
    7.7129    1.7015   22.1344 H   0  0  0  0  0  0  0  0  0  0  0  0
    9.5900    2.2725   23.3379 H   0  0  0  0  0  0  0  0  0  0  0  0
   10.1117    3.0367   21.8365 H   0  0  0  0  0  0  0  0  0  0  0  0
   10.9950    0.0757   23.8854 H   0  0  0  0  0  0  0  0  0  0  0  0
   11.6588   -0.5975   22.3931 H   0  0  0  0  0  0  0  0  0  0  0  0
    8.8366   -0.6145   23.4197 H   0  0  0  0  0  0  0  0  0  0  0  0
    9.6434   -1.7744   22.3691 H   0  0  0  0  0  0  0  0  0  0  0  0
    9.3298   -0.2462   20.4362 H   0  0  0  0  0  0  0  0  0  0  0  0
    6.7210   -0.5883   21.9895 H   0  0  0  0  0  0  0  0  0  0  0  0
    6.8566   -2.4115   19.9608 H   0  0  0  0  0  0  0  0  0  0  0  0
    8.4052   -2.4237   20.5711 H   0  0  0  0  0  0  0  0  0  0  0  0
    5.5006   -3.4522   22.1713 C   0  0  0  0  0  0  0  0  0  0  0  0
    5.1676   -2.7923   22.9753 H   0  0  0  0  0  0  0  0  0  0  0  0
    4.8949   -3.2294   21.2886 H   0  0  0  0  0  0  0  0  0  0  0  0
    7.4720   -3.0287   22.8462 H   0  0  0  0  0  0  0  0  0  0  0  0
    7.1504   -4.7961   20.3892 H   0  0  0  0  0  0  0  0  0  0  0  0
    8.4803   -4.8524   21.5649 H   0  0  0  0  0  0  0  0  0  0  0  0
    6.3263   -6.5759   21.7335 H   0  0  0  0  0  0  0  0  0  0  0  0
    7.0579   -5.9385   23.2050 H   0  0  0  0  0  0  0  0  0  0  0  0
    1.0537   -4.4052   21.9748 H   0  0  0  0  0  0  0  0  0  0  0  0
    0.3897   -6.3790   23.2831 H   0  0  0  0  0  0  0  0  0  0  0  0
    2.2155   -7.8087   24.3703 H   0  0  0  0  0  0  0  0  0  0  0  0
  1  2  1  0
  2  3  2  0
  3  4  1  0
  4  5  2  0
  5  6  1  0
  6  7  2  0
  7  8  1  0
  8  9  1  0
  9 10  1  0
 10 11  1  0
 11 12  1  0
 12 13  1  0
 13 14  1  0
 14 15  2  0
 15 16  1  0
 16 17  2  0
 17 18  1  0
 18 19  2  0
 19 20  1  0
 17 21  1  0
 16 22  1  0
 15 23  1  0
 13 24  1  0
 24 25  1  0
 25 26  1  0
 26 27  1  0
 27 28  1  0
 28 29  1  0
 29 30  1  0
 29 31  1  0
 28 32  1  0
 28 33  1  0
 26 34  1  0
 26 35  1  0
 25 36  1  0
 25 37  1  0
 24 38  1  0
 13 39  1  0
 12 40  1  0
 12 41  1  0
 11 42  1  0
 42 43  1  0
 42 44  1  0
 11 45  1  0
 10 46  1  0
 10 47  1  0
  9 48  1  0
  9 49  1  0
  5 50  1  0
  4 51  1  0
  3 52  1  0
  7  2  1  0
 42  8  1  0
 19 14  1  0
 29 24  1  0
M  CHG  1  12   1
M  END
>  <cnnaffinity>  (1) 
6.13071

>  <plip>  (1) 
-0.07142857142857142

>  <filename>  (1) 
[H][c]1[n][c]([N]2[C]([H])([H])[C]([H])([H])[C]([H])([N+]([H])([H])[C]([H])([c]3[c]([H])[n][c]([H])[c]([H])[c]3[H])[C]3([H])[C]([H])([H])[C]([H])([H])[O][C]([H])([H])[C]3([H])[H])[C]2([H])[H])[c]([Cl])[c]([H])[c]1[H]

>  <combo1>  (1) 
-0.39038823912375725

$$$$
