
     RDKit          3D

 23 24  0  0  0  0  0  0  0  0999 V2000
    4.9956    1.9646   16.9591 H   0  0  0  0  0  0  0  0  0  0  0  0
    5.4717    1.3874   17.7521 C   0  0  0  0  0  0  0  0  0  0  0  0
    6.6273    0.7768   17.4331 N   0  0  0  0  0  0  0  0  0  0  0  0
    7.2511    0.0776   18.3920 C   0  0  0  0  0  0  0  0  0  0  0  0
    8.2170   -0.3525   18.1341 H   0  0  0  0  0  0  0  0  0  0  0  0
    6.7229   -0.1065   19.6929 C   0  0  0  0  0  0  0  0  0  0  0  0
    7.3591   -0.9288   20.6962 N   0  0  0  0  0  0  0  0  0  0  0  0
    6.7149   -1.8563   21.5210 C   0  0  0  0  0  0  0  0  0  0  0  0
    5.5778   -2.2278   21.4058 O   0  0  0  0  0  0  0  0  0  0  0  0
    7.8116   -2.3269   22.5194 C   0  0  0  0  0  0  0  0  0  0  0  0
    7.7178   -3.1019   23.4332 O   0  0  0  0  0  0  0  0  0  0  0  0
    8.9638   -1.7098   22.0889 N   0  0  0  0  0  0  0  0  0  0  0  0
   10.2542   -1.8452   22.7614 C   0  0  0  0  0  0  0  0  0  0  0  0
   10.9721   -1.1858   22.2836 H   0  0  0  0  0  0  0  0  0  0  0  0
   10.5958   -2.8621   22.6087 H   0  0  0  0  0  0  0  0  0  0  0  0
   10.1314   -1.6445   24.3246 C   0  0  0  0  0  0  0  0  0  0  0  0
   10.2020   -1.6311   24.2977 N   0  0  0  0  0  0  0  0  0  0  0  0
    8.6977   -0.8304   21.0552 C   0  0  0  0  0  0  0  0  0  0  0  0
    9.5181   -0.1115   20.5545 O   0  0  0  0  0  0  0  0  0  0  0  0
    5.5337    0.5510   20.0111 C   0  0  0  0  0  0  0  0  0  0  0  0
    5.1202    0.4422   21.0108 H   0  0  0  0  0  0  0  0  0  0  0  0
    4.8992    1.3197   19.0266 C   0  0  0  0  0  0  0  0  0  0  0  0
    3.9788    1.8601   19.2340 H   0  0  0  0  0  0  0  0  0  0  0  0
  1  2  1  0
  2  3  2  0
  3  4  1  0
  4  5  1  0
  4  6  2  0
  6  7  1  0
  7  8  1  0
  8  9  2  0
  8 10  1  0
 10 11  2  0
 10 12  1  0
 12 13  1  0
 13 14  1  0
 13 15  1  0
 13 16  1  0
 16 17  3  0
 12 18  1  0
 18 19  2  0
  6 20  1  0
 20 21  1  0
 20 22  2  0
 22 23  1  0
 22  2  1  0
 18  7  1  0
M  END
>  <cnnaffinity>  (1) 
4.15542

>  <plip>  (1) 
-0.10714285714285714

>  <filename>  (1) 
[H][c]1[n][c]([H])[c]([N]2[C](=[O])[C](=[O])[N]([C]([H])([H])[C]#[N])[C]2=[O])[c]([H])[c]1[H]

>  <combo1>  (1) 
-0.6447385651540607

$$$$
