
     RDKit          3D

 35 38  0  0  0  0  0  0  0  0999 V2000
    4.9171    1.7842   16.9925 H   0  0  0  0  0  0  0  0  0  0  0  0
    5.3990    1.2955   17.8361 C   0  0  0  0  0  0  0  0  0  0  0  0
    6.5613    0.6800   17.5735 N   0  0  0  0  0  0  0  0  0  0  0  0
    7.1630    0.0699   18.5994 C   0  0  0  0  0  0  0  0  0  0  0  0
    8.1105   -0.4168   18.3723 H   0  0  0  0  0  0  0  0  0  0  0  0
    6.6466    0.0127   19.9035 C   0  0  0  0  0  0  0  0  0  0  0  0
    7.4263   -0.6777   20.9945 C   0  0  0  0  0  0  0  0  0  0  0  0
    6.8013   -0.7994   21.8862 H   0  0  0  0  0  0  0  0  0  0  0  0
    7.7171   -1.6867   20.6815 H   0  0  0  0  0  0  0  0  0  0  0  0
    8.6385    0.0583   21.3367 N   0  0  0  0  0  0  0  0  0  0  0  0
    9.9195   -0.2454   20.9604 C   0  0  0  0  0  0  0  0  0  0  0  0
   10.1834   -1.1733   20.4719 H   0  0  0  0  0  0  0  0  0  0  0  0
   10.7369    0.7259   21.2540 N   0  0  0  0  0  0  0  0  0  0  0  0
    9.9819    1.7314   21.7994 N   0  0  0  0  0  0  0  0  0  0  0  0
    8.7382    1.3289   21.8467 C   0  0  0  0  0  0  0  0  0  0  0  0
    7.6182    2.1637   22.3199 C   0  0  0  0  0  0  0  0  0  0  0  0
    6.6695    1.7013   23.2776 C   0  0  0  0  0  0  0  0  0  0  0  0
    6.8104    0.7102   23.7077 H   0  0  0  0  0  0  0  0  0  0  0  0
    5.6403    2.3976   23.7109 N   0  0  0  0  0  0  0  0  0  0  0  0
    5.4801    3.6686   23.2027 C   0  0  0  0  0  0  0  0  0  0  0  0
    4.3843    4.4661   23.6471 C   0  0  0  0  0  0  0  0  0  0  0  0
    3.7207    4.0168   24.3769 H   0  0  0  0  0  0  0  0  0  0  0  0
    4.1957    5.7419   23.1553 C   0  0  0  0  0  0  0  0  0  0  0  0
    3.3523    6.3456   23.4881 H   0  0  0  0  0  0  0  0  0  0  0  0
    5.0977    6.2957   22.1967 C   0  0  0  0  0  0  0  0  0  0  0  0
    4.9284    7.3020   21.8133 H   0  0  0  0  0  0  0  0  0  0  0  0
    6.1719    5.5652   21.7510 C   0  0  0  0  0  0  0  0  0  0  0  0
    6.8667    5.9706   21.0098 H   0  0  0  0  0  0  0  0  0  0  0  0
    6.3858    4.2369   22.2446 C   0  0  0  0  0  0  0  0  0  0  0  0
    7.4907    3.4487   21.8465 C   0  0  0  0  0  0  0  0  0  0  0  0
    8.2899    3.8692   21.2348 H   0  0  0  0  0  0  0  0  0  0  0  0
    5.4318    0.6577   20.1575 C   0  0  0  0  0  0  0  0  0  0  0  0
    5.0063    0.6429   21.1668 H   0  0  0  0  0  0  0  0  0  0  0  0
    4.7981    1.3165   19.1001 C   0  0  0  0  0  0  0  0  0  0  0  0
    3.8658    1.8504   19.2499 H   0  0  0  0  0  0  0  0  0  0  0  0
  1  2  1  0
  2  3  2  0
  3  4  1  0
  4  5  1  0
  4  6  2  0
  6  7  1  0
  7  8  1  0
  7  9  1  0
  7 10  1  0
 10 11  1  0
 11 12  1  0
 11 13  2  0
 13 14  1  0
 14 15  2  0
 15 16  1  0
 16 17  2  0
 17 18  1  0
 17 19  1  0
 19 20  2  0
 20 21  1  0
 21 22  1  0
 21 23  2  0
 23 24  1  0
 23 25  1  0
 25 26  1  0
 25 27  2  0
 27 28  1  0
 27 29  1  0
 29 30  2  0
 30 31  1  0
  6 32  1  0
 32 33  1  0
 32 34  2  0
 34 35  1  0
 34  2  1  0
 15 10  1  0
 30 16  1  0
 29 20  1  0
M  END
>  <cnnaffinity>  (1) 
5.28953

>  <plip>  (1) 
-0.10344827586206896

>  <filename>  (1) 
[H][c]1[n][c]([H])[c]([C]([H])([H])[n]2[c]([H])[n][n][c]2-[c]2[c]([H])[n][c]3[c]([H])[c]([H])[c]([H])[c]([H])[c]3[c]2[H])[c]([H])[c]1[H]

>  <combo1>  (1) 
-0.6348105852129516

$$$$
