
     RDKit          3D

 28 29  0  0  0  0  0  0  0  0999 V2000
    5.0660    1.7856   16.9840 H   0  0  0  0  0  0  0  0  0  0  0  0
    5.5058    1.2735   17.8400 C   0  0  0  0  0  0  0  0  0  0  0  0
    6.6794    0.6539   17.6444 N   0  0  0  0  0  0  0  0  0  0  0  0
    7.2339    0.0134   18.6900 C   0  0  0  0  0  0  0  0  0  0  0  0
    8.1997   -0.4522   18.5018 H   0  0  0  0  0  0  0  0  0  0  0  0
    6.6264   -0.0704   19.9607 C   0  0  0  0  0  0  0  0  0  0  0  0
    7.0869   -0.8118   21.0277 O   0  0  0  0  0  0  0  0  0  0  0  0
    8.4372   -1.0650   21.1214 C   0  0  0  0  0  0  0  0  0  0  0  0
    9.0155   -2.3060   21.4542 C   0  0  0  0  0  0  0  0  0  0  0  0
    8.5082   -3.2426   21.6590 H   0  0  0  0  0  0  0  0  0  0  0  0
   10.3418   -2.2471   21.4421 N   0  0  0  0  0  0  0  0  0  0  0  0
   10.6192   -0.9728   21.1064 N   0  0  0  0  0  0  0  0  0  0  0  0
   11.5541   -0.6673   20.8755 H   0  0  0  0  0  0  0  0  0  0  0  0
    9.5149   -0.2268   20.9065 C   0  0  0  0  0  0  0  0  0  0  0  0
    9.6632    1.0487   20.5051 O   0  0  0  0  0  0  0  0  0  0  0  0
    8.9850    2.0417   21.2847 C   0  0  0  0  0  0  0  0  0  0  0  0
    8.8908    2.8865   20.6010 H   0  0  0  0  0  0  0  0  0  0  0  0
    7.9742    1.7202   21.5695 H   0  0  0  0  0  0  0  0  0  0  0  0
    9.7784    2.4496   22.5266 C   0  0  0  0  0  0  0  0  0  0  0  0
   10.8367    2.6320   22.2531 H   0  0  0  0  0  0  0  0  0  0  0  0
    9.7728    1.6119   23.2398 H   0  0  0  0  0  0  0  0  0  0  0  0
    9.0829    3.5888   23.1252 N   0  0  0  0  0  0  0  0  0  0  0  0
    9.4949    3.8528   24.0113 H   0  0  0  0  0  0  0  0  0  0  0  0
    9.1729    4.4106   22.5292 H   0  0  0  0  0  0  0  0  0  0  0  0
    5.4210    0.6089   20.1574 C   0  0  0  0  0  0  0  0  0  0  0  0
    4.9783    0.5997   21.1517 H   0  0  0  0  0  0  0  0  0  0  0  0
    4.8512    1.2841   19.0769 C   0  0  0  0  0  0  0  0  0  0  0  0
    3.9140    1.8168   19.1904 H   0  0  0  0  0  0  0  0  0  0  0  0
  1  2  1  0
  2  3  2  0
  3  4  1  0
  4  5  1  0
  4  6  2  0
  6  7  1  0
  7  8  1  0
  8  9  1  0
  9 10  1  0
  9 11  2  0
 11 12  1  0
 12 13  1  0
 12 14  1  0
 14 15  1  0
 15 16  1  0
 16 17  1  0
 16 18  1  0
 16 19  1  0
 19 20  1  0
 19 21  1  0
 19 22  1  0
 22 23  1  0
 22 24  1  0
  6 25  1  0
 25 26  1  0
 25 27  2  0
 27 28  1  0
 27  2  1  0
 14  8  2  0
M  END
>  <cnnaffinity>  (1) 
4.76178

>  <plip>  (1) 
-0.10714285714285714

>  <filename>  (1) 
[H][c]1[n][c]([H])[c]([O][c]2[c]([H])[n][n]([H])[c]2[O][C]([H])([H])[C]([H])([H])[N]([H])[H])[c]([H])[c]1[H]

>  <combo1>  (1) 
-0.7722019117502061

$$$$
