
     RDKit          3D

 35 36  0  0  0  0  0  0  0  0999 V2000
    4.9476    1.8042   16.9879 H   0  0  0  0  0  0  0  0  0  0  0  0
    5.4310    1.3001   17.8214 C   0  0  0  0  0  0  0  0  0  0  0  0
    6.6011    0.6949   17.5595 N   0  0  0  0  0  0  0  0  0  0  0  0
    7.2298    0.0841   18.5785 C   0  0  0  0  0  0  0  0  0  0  0  0
    8.1788   -0.3924   18.3347 H   0  0  0  0  0  0  0  0  0  0  0  0
    6.7275    0.0064   19.9059 C   0  0  0  0  0  0  0  0  0  0  0  0
    7.4041   -0.6274   20.9707 N   0  0  0  0  0  0  0  0  0  0  0  0
    6.7286   -1.5841   21.8245 C   0  0  0  0  0  0  0  0  0  0  0  0
    5.8977   -1.1074   22.3379 H   0  0  0  0  0  0  0  0  0  0  0  0
    6.3123   -2.4256   21.2470 H   0  0  0  0  0  0  0  0  0  0  0  0
    7.7861   -2.0236   22.8425 C   0  0  0  0  0  0  0  0  0  0  0  0
    7.6866   -1.4287   23.7567 H   0  0  0  0  0  0  0  0  0  0  0  0
    7.6698   -3.0754   23.1202 H   0  0  0  0  0  0  0  0  0  0  0  0
    9.1264   -1.7292   22.1617 C   0  0  0  0  0  0  0  0  0  0  0  0
    9.5285   -2.6094   21.6558 H   0  0  0  0  0  0  0  0  0  0  0  0
    9.8758   -1.3961   22.8833 H   0  0  0  0  0  0  0  0  0  0  0  0
    8.8377   -0.6163   21.1386 C   0  0  2  0  0  0  0  0  0  0  0  0
    9.3508   -0.8560   20.1807 H   0  0  0  0  0  0  0  0  0  0  0  0
    9.1629    0.7004   21.6418 N   0  0  0  0  0  0  0  0  0  0  0  0
    8.4196    1.2933   21.2934 H   0  0  0  0  0  0  0  0  0  0  0  0
   10.5244    1.1873   21.4954 C   0  0  0  0  0  0  0  0  0  0  0  0
   10.7870    1.4809   20.4720 H   0  0  0  0  0  0  0  0  0  0  0  0
   11.2280    0.3971   21.7908 H   0  0  0  0  0  0  0  0  0  0  0  0
   10.8444    2.4165   22.3432 C   0  0  0  0  0  0  0  0  0  0  0  0
   10.2074    3.2679   22.0412 H   0  0  0  0  0  0  0  0  0  0  0  0
   10.6489    2.2348   23.4117 H   0  0  0  0  0  0  0  0  0  0  0  0
   12.2165    2.6854   22.1085 O   0  0  0  0  0  0  0  0  0  0  0  0
   12.7064    3.8638   22.6935 C   0  0  0  0  0  0  0  0  0  0  0  0
   13.7626    3.9303   22.4192 H   0  0  0  0  0  0  0  0  0  0  0  0
   12.1871    4.7556   22.3091 H   0  0  0  0  0  0  0  0  0  0  0  0
   12.6264    3.8541   23.7930 H   0  0  0  0  0  0  0  0  0  0  0  0
    5.4838    0.6253   20.1415 C   0  0  0  0  0  0  0  0  0  0  0  0
    5.0621    0.6167   21.1476 H   0  0  0  0  0  0  0  0  0  0  0  0
    4.8396    1.2866   19.0910 C   0  0  0  0  0  0  0  0  0  0  0  0
    3.8901    1.7882   19.2453 H   0  0  0  0  0  0  0  0  0  0  0  0
  1  2  1  0
  2  3  2  0
  3  4  1  0
  4  5  1  0
  4  6  2  0
  6  7  1  0
  7  8  1  0
  8  9  1  0
  8 10  1  0
  8 11  1  0
 11 12  1  0
 11 13  1  0
 11 14  1  0
 14 15  1  0
 14 16  1  0
 14 17  1  0
 17 18  1  6
 17 19  1  0
 19 20  1  0
 19 21  1  0
 21 22  1  0
 21 23  1  0
 21 24  1  0
 24 25  1  0
 24 26  1  0
 24 27  1  0
 27 28  1  0
 28 29  1  0
 28 30  1  0
 28 31  1  0
  6 32  1  0
 32 33  1  0
 32 34  2  0
 34 35  1  0
 34  2  1  0
 17  7  1  0
M  END
>  <cnnaffinity>  (1) 
4.70077

>  <plip>  (1) 
-0.07142857142857142

>  <filename>  (1) 
[H][c]1[n][c]([H])[c]([N]2[C]([H])([H])[C]([H])([H])[C]([H])([H])[C@]2([H])[N]([H])[C]([H])([H])[C]([H])([H])[O][C]([H])([H])[H])[c]([H])[c]1[H]

>  <combo1>  (1) 
-0.5057436613802517

$$$$
