
     RDKit          3D

 27 28  0  0  0  0  0  0  0  0999 V2000
    7.2104   -2.5343   20.1964 H   0  0  0  0  0  0  0  0  0  0  0  0
    7.5923   -1.9173   21.0038 C   0  0  0  0  0  0  0  0  0  0  0  0
    8.2089   -2.3953   21.7632 H   0  0  0  0  0  0  0  0  0  0  0  0
    7.2773   -0.6299   21.0956 C   0  0  0  0  0  0  0  0  0  0  0  0
    6.5971    0.0987   19.9846 C   0  0  0  0  0  0  0  0  0  0  0  0
    7.1437    0.1078   18.6862 C   0  0  0  0  0  0  0  0  0  0  0  0
    8.0908   -0.3996   18.5071 H   0  0  0  0  0  0  0  0  0  0  0  0
    6.5894    0.7059   17.6226 N   0  0  0  0  0  0  0  0  0  0  0  0
    5.4169    1.3314   17.8139 C   0  0  0  0  0  0  0  0  0  0  0  0
    4.9624    1.7907   16.9340 H   0  0  0  0  0  0  0  0  0  0  0  0
    4.7804    1.3932   19.0587 C   0  0  0  0  0  0  0  0  0  0  0  0
    3.8286    1.9085   19.1440 H   0  0  0  0  0  0  0  0  0  0  0  0
    5.3886    0.7910   20.1627 C   0  0  0  0  0  0  0  0  0  0  0  0
    4.9286    0.8374   21.1513 H   0  0  0  0  0  0  0  0  0  0  0  0
    7.7370    0.1605   22.3040 C   0  0  0  0  0  0  0  0  0  0  0  0
    7.8399   -0.5098   23.1600 H   0  0  0  0  0  0  0  0  0  0  0  0
    7.0320    0.9571   22.5580 H   0  0  0  0  0  0  0  0  0  0  0  0
    9.0658    0.7877   22.0442 C   0  0  0  0  0  0  0  0  0  0  0  0
   10.1548    0.4137   22.5862 N   0  0  0  0  0  0  0  0  0  0  0  0
   11.2026    1.3249   22.1057 C   0  0  0  0  0  0  0  0  0  0  0  0
   11.8714    1.6317   22.9194 H   0  0  0  0  0  0  0  0  0  0  0  0
   11.8197    0.8117   21.3570 H   0  0  0  0  0  0  0  0  0  0  0  0
   10.4467    2.5047   21.4637 C   0  0  0  0  0  0  0  0  0  0  0  0
   10.9220    2.8627   20.5479 H   0  0  0  0  0  0  0  0  0  0  0  0
   10.3411    3.3535   22.1587 H   0  0  0  0  0  0  0  0  0  0  0  0
    9.1579    1.8686   21.1659 N   0  0  0  0  0  0  0  0  0  0  0  0
    8.3474    2.4673   21.1646 H   0  0  0  0  0  0  0  0  0  0  0  0
  1  2  1  0
  2  3  1  0
  2  4  2  3
  4  5  1  0
  5  6  2  0
  6  7  1  0
  6  8  1  0
  8  9  2  0
  9 10  1  0
  9 11  1  0
 11 12  1  0
 11 13  2  0
 13 14  1  0
  4 15  1  0
 15 16  1  0
 15 17  1  0
 15 18  1  0
 18 19  2  0
 19 20  1  0
 20 21  1  0
 20 22  1  0
 20 23  1  0
 23 24  1  0
 23 25  1  0
 23 26  1  0
 26 27  1  0
 13  5  1  0
 26 18  1  0
M  END
>  <cnnaffinity>  (1) 
4.34743

>  <plip>  (1) 
-0.07142857142857142

>  <filename>  (1) 
[H][C]([H])=[C]([c]1[c]([H])[n][c]([H])[c]([H])[c]1[H])[C]([H])([H])[C]1=[N][C]([H])([H])[C]([H])([H])[N]1[H]

>  <combo1>  (1) 
-0.5528034676053859

$$$$
