
     RDKit          3D

 39 41  0  0  0  0  0  0  0  0999 V2000
    9.0169   -0.9683   27.7374 C   0  0  0  0  0  0  0  0  0  0  0  0
    8.4331    0.0317   26.7708 C   0  0  0  0  0  0  0  0  0  0  0  0
    8.1679    1.3713   27.0820 C   0  0  0  0  0  0  0  0  0  0  0  0
    7.5895    2.2234   26.1298 C   0  0  0  0  0  0  0  0  0  0  0  0
    7.2384    1.7765   24.8456 C   0  0  0  0  0  0  0  0  0  0  0  0
    6.5999    2.7543   23.8777 C   0  0  0  0  0  0  0  0  0  0  0  0
    5.8313    2.2958   23.2463 H   0  0  0  0  0  0  0  0  0  0  0  0
    7.3578    3.1825   23.2163 H   0  0  0  0  0  0  0  0  0  0  0  0
    6.1205    3.5799   24.4117 H   0  0  0  0  0  0  0  0  0  0  0  0
    7.4975    0.4131   24.5604 C   0  0  0  0  0  0  0  0  0  0  0  0
    7.2125   -0.1530   23.2799 N   0  0  0  0  0  0  0  0  0  0  0  0
    7.8478    0.2588   22.1249 C   0  0  0  0  0  0  0  0  0  0  0  0
    8.6512    1.1522   22.0326 O   0  0  0  0  0  0  0  0  0  0  0  0
    7.3963   -0.6835   21.0053 C   0  0  0  0  0  0  0  0  0  0  0  0
    6.6296   -0.0026   19.8811 C   0  0  0  0  0  0  0  0  0  0  0  0
    5.4182    0.6570   20.1219 C   0  0  0  0  0  0  0  0  0  0  0  0
    4.7876    1.3154   19.0661 C   0  0  0  0  0  0  0  0  0  0  0  0
    5.3979    1.2895   17.8075 C   0  0  0  0  0  0  0  0  0  0  0  0
    6.5500    0.6529   17.5530 N   0  0  0  0  0  0  0  0  0  0  0  0
    7.1461    0.0293   18.5769 C   0  0  0  0  0  0  0  0  0  0  0  0
    8.0963   -0.4570   18.3465 H   0  0  0  0  0  0  0  0  0  0  0  0
    4.9448    1.8123   16.9679 H   0  0  0  0  0  0  0  0  0  0  0  0
    3.8623    1.8644   19.2051 H   0  0  0  0  0  0  0  0  0  0  0  0
    4.9764    0.6574   21.1204 H   0  0  0  0  0  0  0  0  0  0  0  0
    6.6136   -1.6531   21.7423 N   0  0  0  0  0  0  0  0  0  0  0  0
    6.0355   -2.8513   21.1760 C   0  0  0  0  0  0  0  0  0  0  0  0
    6.4494   -3.7487   21.6493 H   0  0  0  0  0  0  0  0  0  0  0  0
    6.2609   -2.8673   20.1061 H   0  0  0  0  0  0  0  0  0  0  0  0
    4.9512   -2.8534   21.3211 H   0  0  0  0  0  0  0  0  0  0  0  0
    6.6595   -1.4244   23.0847 C   0  0  0  0  0  0  0  0  0  0  0  0
    6.3282   -2.2101   23.9443 O   0  0  0  0  0  0  0  0  0  0  0  0
    8.3128   -1.1431   20.6049 H   0  0  0  0  0  0  0  0  0  0  0  0
    8.0571   -0.4368   25.5095 C   0  0  0  0  0  0  0  0  0  0  0  0
    8.1509   -1.4898   25.2580 H   0  0  0  0  0  0  0  0  0  0  0  0
    7.3710    3.2563   26.3963 H   0  0  0  0  0  0  0  0  0  0  0  0
    8.3927    1.7396   28.0805 H   0  0  0  0  0  0  0  0  0  0  0  0
    8.2338   -1.6870   27.9953 H   0  0  0  0  0  0  0  0  0  0  0  0
    9.7878   -1.5717   27.2443 H   0  0  0  0  0  0  0  0  0  0  0  0
    9.4432   -0.5125   28.6400 H   0  0  0  0  0  0  0  0  0  0  0  0
  1  2  1  0
  2  3  2  0
  3  4  1  0
  4  5  2  0
  5  6  1  0
  6  7  1  0
  6  8  1  0
  6  9  1  0
  5 10  1  0
 10 11  1  0
 11 12  1  0
 12 13  2  0
 12 14  1  0
 14 15  1  0
 15 16  2  0
 16 17  1  0
 17 18  2  0
 18 19  1  0
 19 20  2  0
 20 21  1  0
 18 22  1  0
 17 23  1  0
 16 24  1  0
 14 25  1  0
 25 26  1  0
 26 27  1  0
 26 28  1  0
 26 29  1  0
 25 30  1  0
 30 31  2  0
 14 32  1  0
 10 33  2  0
 33 34  1  0
  4 35  1  0
  3 36  1  0
  1 37  1  0
  1 38  1  0
  1 39  1  0
 33  2  1  0
 30 11  1  0
 20 15  1  0
M  END
>  <cnnaffinity>  (1) 
4.56938

>  <plip>  (1) 
-0.034482758620689655

>  <filename>  (1) 
[H][c]1[n][c]([H])[c]([C]2([H])[C](=[O])[N]([c]3[c]([H])[c]([C]([H])([H])[H])[c]([H])[c]([H])[c]3[C]([H])([H])[H])[C](=[O])[N]2[C]([H])([H])[H])[c]([H])[c]1[H]

>  <combo1>  (1) 
-0.17783318727239036

$$$$
