
     RDKit          3D

 24 25  0  0  0  0  0  0  0  0999 V2000
    4.9288    1.8009   16.9920 H   0  0  0  0  0  0  0  0  0  0  0  0
    5.3955    1.2886   17.8320 C   0  0  0  0  0  0  0  0  0  0  0  0
    6.5656    0.6848   17.5827 N   0  0  0  0  0  0  0  0  0  0  0  0
    7.1820    0.0693   18.6045 C   0  0  0  0  0  0  0  0  0  0  0  0
    8.1229   -0.4299   18.3685 H   0  0  0  0  0  0  0  0  0  0  0  0
    6.6585    0.0287   19.9138 C   0  0  0  0  0  0  0  0  0  0  0  0
    7.3326   -0.6509   20.9972 N   0  0  0  0  0  0  0  0  0  0  0  0
    7.8095   -0.2154   22.2607 C   0  0  0  0  0  0  0  0  0  0  0  0
    7.8792    1.0501   22.8074 O   0  0  0  0  0  0  0  0  0  0  0  0
    8.2414    2.3613   21.8962 S   0  0  0  0  0  0  0  0  0  0  0  0
    7.1990    2.5253   20.9367 O   0  0  0  0  0  0  0  0  0  0  0  0
    8.6546    3.3079   22.8737 O   0  0  0  0  0  0  0  0  0  0  0  0
    9.5528    1.8094   21.1050 N   0  0  0  0  0  0  0  0  0  0  0  0
    9.1451    1.0373   20.5955 H   0  0  0  0  0  0  0  0  0  0  0  0
   10.1005    1.4562   21.8795 H   0  0  0  0  0  0  0  0  0  0  0  0
    8.1537   -1.2834   22.9760 C   0  0  0  0  0  0  0  0  0  0  0  0
    8.5682   -1.3409   23.9732 H   0  0  0  0  0  0  0  0  0  0  0  0
    7.8223   -2.4226   22.2747 O   0  0  0  0  0  0  0  0  0  0  0  0
    7.2001   -2.0579   21.1147 C   0  0  0  0  0  0  0  0  0  0  0  0
    6.6271   -2.8237   20.3902 O   0  0  0  0  0  0  0  0  0  0  0  0
    5.4242    0.6234   20.1496 C   0  0  0  0  0  0  0  0  0  0  0  0
    5.0316    0.6547   21.1649 H   0  0  0  0  0  0  0  0  0  0  0  0
    4.7873    1.2753   19.0904 C   0  0  0  0  0  0  0  0  0  0  0  0
    3.8526    1.7955   19.2370 H   0  0  0  0  0  0  0  0  0  0  0  0
  1  2  1  0
  2  3  2  0
  3  4  1  0
  4  5  1  0
  4  6  2  0
  6  7  1  0
  7  8  1  0
  8  9  1  0
  9 10  1  0
 10 11  2  0
 10 12  2  0
 10 13  1  0
 13 14  1  0
 13 15  1  0
  8 16  2  0
 16 17  1  0
 16 18  1  0
 18 19  1  0
 19 20  2  0
  6 21  1  0
 21 22  1  0
 21 23  2  0
 23 24  1  0
 23  2  1  0
 19  7  1  0
M  END
>  <cnnaffinity>  (1) 
4.01026

>  <plip>  (1) 
-0.14285714285714285

>  <filename>  (1) 
[H][c]1[n][c]([H])[c](-[n]2[c]([O][S](=[O])(=[O])[N]([H])[H])[c]([H])[o][c]2=[O])[c]([H])[c]1[H]

>  <combo1>  (1) 
-0.7423978116790302

$$$$
