
     RDKit          3D

 35 37  0  0  0  0  0  0  0  0999 V2000
    8.7340   -0.5793   21.1055 C   0  0  0  0  0  0  0  0  0  0  0  0
    7.4003   -0.6536   20.9881 C   0  0  0  0  0  0  0  0  0  0  0  0
    6.6550    0.0386   19.8911 C   0  0  0  0  0  0  0  0  0  0  0  0
    5.4215    0.6797   20.1073 C   0  0  0  0  0  0  0  0  0  0  0  0
    4.7844    1.3362   19.0526 C   0  0  0  0  0  0  0  0  0  0  0  0
    5.3895    1.3171   17.7942 C   0  0  0  0  0  0  0  0  0  0  0  0
    6.5502    0.6873   17.5440 N   0  0  0  0  0  0  0  0  0  0  0  0
    7.1602    0.0829   18.5714 C   0  0  0  0  0  0  0  0  0  0  0  0
    8.1009   -0.4148   18.3284 H   0  0  0  0  0  0  0  0  0  0  0  0
    4.9265    1.8292   16.9537 H   0  0  0  0  0  0  0  0  0  0  0  0
    3.8460    1.8677   19.1917 H   0  0  0  0  0  0  0  0  0  0  0  0
    4.9726    0.6893   21.1003 H   0  0  0  0  0  0  0  0  0  0  0  0
    6.5679   -1.4558   21.9719 C   0  0  0  0  0  0  0  0  0  0  0  0
    7.4184   -2.5340   22.7246 N   0  0  0  0  0  4  0  0  0  0  0  0
    6.6142   -3.3169   23.7183 C   0  0  0  0  0  0  0  0  0  0  0  0
    5.5993   -4.1882   23.0326 C   0  0  0  0  0  0  0  0  0  0  0  0
    5.6650   -5.4015   22.3779 C   0  0  0  0  0  0  0  0  0  0  0  0
    4.3306   -5.7029   22.0442 C   0  0  0  0  0  0  0  0  0  0  0  0
    3.4930   -4.7532   22.4351 N   0  0  0  0  0  0  0  0  0  0  0  0
    4.2867   -3.8564   23.0367 N   0  0  0  0  0  0  0  0  0  0  0  0
    3.8906   -2.9965   23.3887 H   0  0  0  0  0  0  0  0  0  0  0  0
    3.9499   -6.5821   21.5502 H   0  0  0  0  0  0  0  0  0  0  0  0
    6.5414   -5.9923   22.1559 H   0  0  0  0  0  0  0  0  0  0  0  0
    6.1034   -2.6340   24.4131 H   0  0  0  0  0  0  0  0  0  0  0  0
    7.2788   -3.9364   24.3274 H   0  0  0  0  0  0  0  0  0  0  0  0
    8.6706   -1.8901   23.2666 C   0  0  0  0  0  0  0  0  0  0  0  0
    9.5311   -1.3633   22.1228 C   0  0  0  0  0  0  0  0  0  0  0  0
   10.0583   -2.1904   21.6289 H   0  0  0  0  0  0  0  0  0  0  0  0
   10.3160   -0.7242   22.5412 H   0  0  0  0  0  0  0  0  0  0  0  0
    8.3849   -1.0565   23.9195 H   0  0  0  0  0  0  0  0  0  0  0  0
    9.2345   -2.6087   23.8704 H   0  0  0  0  0  0  0  0  0  0  0  0
    7.6810   -3.2303   21.9859 H   0  0  0  0  0  0  0  0  0  0  0  0
    5.7727   -1.9548   21.4233 H   0  0  0  0  0  0  0  0  0  0  0  0
    6.1141   -0.7991   22.7245 H   0  0  0  0  0  0  0  0  0  0  0  0
    9.2926    0.0771   20.4384 H   0  0  0  0  0  0  0  0  0  0  0  0
  1  2  2  0
  2  3  1  0
  3  4  2  0
  4  5  1  0
  5  6  2  0
  6  7  1  0
  7  8  2  0
  8  9  1  0
  6 10  1  0
  5 11  1  0
  4 12  1  0
  2 13  1  0
 13 14  1  0
 14 15  1  0
 15 16  1  0
 16 17  2  0
 17 18  1  0
 18 19  2  0
 19 20  1  0
 20 21  1  0
 18 22  1  0
 17 23  1  0
 15 24  1  0
 15 25  1  0
 14 26  1  0
 26 27  1  0
 27 28  1  0
 27 29  1  0
 26 30  1  0
 26 31  1  0
 14 32  1  0
 13 33  1  0
 13 34  1  0
  1 35  1  0
 27  1  1  0
  8  3  1  0
 20 16  1  0
M  CHG  1  14   1
M  END
>  <cnnaffinity>  (1) 
4.7807

>  <plip>  (1) 
-0.10714285714285714

>  <filename>  (1) 
[H][C]1=[C]([c]2[c]([H])[n][c]([H])[c]([H])[c]2[H])[C]([H])([H])[N+]([H])([C]([H])([H])[c]2[c]([H])[c]([H])[n][n]2[H])[C]([H])([H])[C]1([H])[H]

>  <combo1>  (1) 
-0.7075281815458676

$$$$
