
     RDKit          3D

 35 38  0  0  0  0  0  0  0  0999 V2000
    5.0538    1.7790   17.0242 H   0  0  0  0  0  0  0  0  0  0  0  0
    5.4787    1.2574   17.8779 C   0  0  0  0  0  0  0  0  0  0  0  0
    6.6237    0.5973   17.6470 N   0  0  0  0  0  0  0  0  0  0  0  0
    7.1781   -0.0428   18.6834 C   0  0  0  0  0  0  0  0  0  0  0  0
    8.1116   -0.5628   18.4706 H   0  0  0  0  0  0  0  0  0  0  0  0
    6.6296   -0.0969   19.9792 C   0  0  0  0  0  0  0  0  0  0  0  0
    7.3530   -0.8349   21.0553 C   0  0  0  0  0  0  0  0  0  0  0  0
    8.7388   -0.6824   21.2026 C   0  0  0  0  0  0  0  0  0  0  0  0
    9.2819   -0.0037   20.5648 H   0  0  0  0  0  0  0  0  0  0  0  0
    9.4174   -1.3989   22.1915 C   0  0  0  0  0  0  0  0  0  0  0  0
   10.4967   -1.3136   22.2956 H   0  0  0  0  0  0  0  0  0  0  0  0
    8.8116   -2.2385   23.0403 N   0  0  0  0  0  0  0  0  0  0  0  0
    7.4770   -2.3271   22.9607 C   0  0  0  0  0  0  0  0  0  0  0  0
    6.8159   -3.1502   23.9935 C   0  0  0  0  0  0  0  0  0  0  0  0
    7.4169   -4.3742   24.4200 C   0  0  0  0  0  0  0  0  0  0  0  0
    8.4083   -4.6522   24.0669 H   0  0  0  0  0  0  0  0  0  0  0  0
    6.8404   -5.2253   25.2337 N   0  0  0  0  0  0  0  0  0  0  0  0
    5.5757   -4.9269   25.6847 C   0  0  0  0  0  0  0  0  0  0  0  0
    4.9429   -5.8529   26.5620 C   0  0  0  0  0  0  0  0  0  0  0  0
    5.5500   -6.7011   26.8504 H   0  0  0  0  0  0  0  0  0  0  0  0
    3.6384   -5.6642   26.9636 C   0  0  0  0  0  0  0  0  0  0  0  0
    3.1632   -6.3761   27.6391 H   0  0  0  0  0  0  0  0  0  0  0  0
    2.8984   -4.5409   26.4863 C   0  0  0  0  0  0  0  0  0  0  0  0
    1.8478   -4.4630   26.7583 H   0  0  0  0  0  0  0  0  0  0  0  0
    3.4970   -3.5934   25.6862 C   0  0  0  0  0  0  0  0  0  0  0  0
    2.9047   -2.7593   25.3063 H   0  0  0  0  0  0  0  0  0  0  0  0
    4.8709   -3.7410   25.3112 C   0  0  0  0  0  0  0  0  0  0  0  0
    5.5966   -2.7967   24.5391 C   0  0  0  0  0  0  0  0  0  0  0  0
    5.2299   -1.7813   24.4632 H   0  0  0  0  0  0  0  0  0  0  0  0
    6.7215   -1.6899   21.9592 C   0  0  0  0  0  0  0  0  0  0  0  0
    5.6621   -1.9041   21.8840 H   0  0  0  0  0  0  0  0  0  0  0  0
    5.4179    0.5844   20.1870 C   0  0  0  0  0  0  0  0  0  0  0  0
    4.9659    0.5936   21.1794 H   0  0  0  0  0  0  0  0  0  0  0  0
    4.8406    1.2798   19.1221 C   0  0  0  0  0  0  0  0  0  0  0  0
    3.9205    1.8414   19.2408 H   0  0  0  0  0  0  0  0  0  0  0  0
  1  2  1  0
  2  3  2  0
  3  4  1  0
  4  5  1  0
  4  6  2  0
  6  7  1  0
  7  8  2  0
  8  9  1  0
  8 10  1  0
 10 11  1  0
 10 12  2  0
 12 13  1  0
 13 14  1  0
 14 15  2  0
 15 16  1  0
 15 17  1  0
 17 18  2  0
 18 19  1  0
 19 20  1  0
 19 21  2  0
 21 22  1  0
 21 23  1  0
 23 24  1  0
 23 25  2  0
 25 26  1  0
 25 27  1  0
 27 28  2  0
 28 29  1  0
 13 30  2  0
 30 31  1  0
  6 32  1  0
 32 33  1  0
 32 34  2  0
 34 35  1  0
 34  2  1  0
 30  7  1  0
 28 14  1  0
 27 18  1  0
M  END
>  <cnnaffinity>  (1) 
5.41873

>  <plip>  (1) 
-0.03571428571428571

>  <filename>  (1) 
[H][c]1[n][c]([H])[c](-[c]2[c]([H])[c]([H])[n][c](-[c]3[c]([H])[n][c]4[c]([H])[c]([H])[c]([H])[c]([H])[c]4[c]3[H])[c]2[H])[c]([H])[c]1[H]

>  <combo1>  (1) 
-0.22767719538138903

$$$$
