
     RDKit          3D

 40 42  0  0  0  0  0  0  0  0999 V2000
    5.8422   -1.9197   20.2834 O   0  0  0  0  0  0  0  0  0  0  0  0
    6.8242   -2.4361   20.8353 C   0  0  0  0  0  0  0  0  0  0  0  0
    6.7221   -3.9221   21.1076 C   0  0  0  0  0  0  0  0  0  0  0  0
    7.1722   -4.5518   22.2221 N   0  0  0  0  0  0  0  0  0  0  0  0
    6.7588   -5.8171   22.4191 C   0  0  0  0  0  0  0  0  0  0  0  0
    5.9592   -6.4723   21.4661 C   0  0  0  0  0  0  0  0  0  0  0  0
    5.5819   -5.8952   20.3130 N   0  0  0  0  0  0  0  0  0  0  0  0
    5.9411   -4.6350   20.1278 C   0  0  0  0  0  0  0  0  0  0  0  0
    5.5530   -4.0947   18.9832 O   0  0  0  0  0  0  0  0  0  0  0  0
    5.5619   -3.1251   19.1509 H   0  0  0  0  0  0  0  0  0  0  0  0
    5.6130   -7.4793   21.6514 H   0  0  0  0  0  0  0  0  0  0  0  0
    7.0605   -6.3179   23.3355 H   0  0  0  0  0  0  0  0  0  0  0  0
    7.9678   -1.7128   21.0706 N   0  0  0  0  0  0  0  0  0  0  0  0
    9.2260   -2.3223   21.4793 C   0  0  0  0  0  0  0  0  0  0  0  0
    9.4757   -2.4239   23.0036 C   0  0  0  0  0  0  0  0  0  0  0  0
    8.4331   -1.8295   23.9653 C   0  0  0  0  0  0  0  0  0  0  0  0
    8.1340   -0.3310   23.8517 C   0  0  0  0  0  0  0  0  0  0  0  0
    7.3132    0.1208   22.6369 C   0  0  0  0  0  0  0  0  0  0  0  0
    7.8896   -0.2341   21.2544 C   0  0  0  0  0  0  0  0  0  0  0  0
    7.1793    0.4357   20.0983 C   0  0  0  0  0  0  0  0  0  0  0  0
    5.9916    1.1643   20.2260 C   0  0  0  0  0  0  0  0  0  0  0  0
    5.3116    1.5611   19.0729 C   0  0  0  0  0  0  0  0  0  0  0  0
    5.8512    1.2361   17.8270 C   0  0  0  0  0  0  0  0  0  0  0  0
    7.0135    0.5822   17.6809 N   0  0  0  0  0  0  0  0  0  0  0  0
    7.6486    0.1990   18.7968 C   0  0  0  0  0  0  0  0  0  0  0  0
    8.5871   -0.3377   18.6407 H   0  0  0  0  0  0  0  0  0  0  0  0
    5.3314    1.5038   16.9086 H   0  0  0  0  0  0  0  0  0  0  0  0
    4.3704    2.0933   19.1423 H   0  0  0  0  0  0  0  0  0  0  0  0
    5.5780    1.3862   21.2110 H   0  0  0  0  0  0  0  0  0  0  0  0
    8.9339    0.1158   21.2399 H   0  0  0  0  0  0  0  0  0  0  0  0
    7.2201    1.2125   22.6904 H   0  0  0  0  0  0  0  0  0  0  0  0
    6.2945   -0.2849   22.6941 H   0  0  0  0  0  0  0  0  0  0  0  0
    9.0742    0.2370   23.8914 H   0  0  0  0  0  0  0  0  0  0  0  0
    7.5672   -0.0345   24.7451 H   0  0  0  0  0  0  0  0  0  0  0  0
    8.8010   -2.0161   24.9820 H   0  0  0  0  0  0  0  0  0  0  0  0
    7.4933   -2.3854   23.8804 H   0  0  0  0  0  0  0  0  0  0  0  0
   10.4588   -1.9771   23.2120 H   0  0  0  0  0  0  0  0  0  0  0  0
    9.5709   -3.4868   23.2498 H   0  0  0  0  0  0  0  0  0  0  0  0
   10.0362   -1.7402   21.0139 H   0  0  0  0  0  0  0  0  0  0  0  0
    9.2783   -3.3053   21.0095 H   0  0  0  0  0  0  0  0  0  0  0  0
  1  2  2  0
  2  3  1  0
  3  4  2  0
  4  5  1  0
  5  6  2  0
  6  7  1  0
  7  8  2  0
  8  9  1  0
  9 10  1  0
  6 11  1  0
  5 12  1  0
  2 13  1  0
 13 14  1  0
 14 15  1  0
 15 16  1  0
 16 17  1  0
 17 18  1  0
 18 19  1  0
 19 20  1  0
 20 21  2  0
 21 22  1  0
 22 23  2  0
 23 24  1  0
 24 25  2  0
 25 26  1  0
 23 27  1  0
 22 28  1  0
 21 29  1  0
 19 30  1  0
 18 31  1  0
 18 32  1  0
 17 33  1  0
 17 34  1  0
 16 35  1  0
 16 36  1  0
 15 37  1  0
 15 38  1  0
 14 39  1  0
 14 40  1  0
  8  3  1  0
 19 13  1  0
 25 20  1  0
M  END
>  <cnnaffinity>  (1) 
5.59497

>  <plip>  (1) 
-0.13333333333333333

>  <filename>  (1) 
[H][O][c]1[n][c]([H])[c]([H])[n][c]1[C](=[O])[N]1[C]([H])([H])[C]([H])([H])[C]([H])([H])[C]([H])([H])[C]([H])([H])[C]1([H])[c]1[c]([H])[n][c]([H])[c]([H])[c]1[H]

>  <combo1>  (1) 
-0.8334796958341442

$$$$
