
     RDKit          3D

 42 44  0  0  0  0  0  0  0  0999 V2000
    5.0824    1.8571   16.9934 H   0  0  0  0  0  0  0  0  0  0  0  0
    5.4818    1.2929   17.8338 C   0  0  0  0  0  0  0  0  0  0  0  0
    6.6260    0.6252   17.6112 N   0  0  0  0  0  0  0  0  0  0  0  0
    7.1618   -0.0570   18.6311 C   0  0  0  0  0  0  0  0  0  0  0  0
    8.0940   -0.5776   18.4103 H   0  0  0  0  0  0  0  0  0  0  0  0
    6.5780   -0.1423   19.9249 C   0  0  0  0  0  0  0  0  0  0  0  0
    7.2015   -0.8315   21.0241 N   0  0  0  0  0  0  0  0  0  0  0  0
    6.4655   -1.7781   21.7815 C   0  0  0  0  0  0  0  0  0  0  0  0
    5.5655   -2.4218   21.2718 O   0  0  0  0  0  0  0  0  0  0  0  0
    6.8361   -1.9086   23.1477 N   0  0  0  0  0  0  0  0  0  0  0  0
    6.5759   -3.1430   23.8110 N   0  0  0  0  0  0  0  0  0  0  0  0
    5.2209   -3.2151   24.3545 C   0  0  0  0  0  0  0  0  0  0  0  0
    5.0555   -2.4845   25.1641 H   0  0  0  0  0  0  0  0  0  0  0  0
    4.5587   -2.9415   23.5315 H   0  0  0  0  0  0  0  0  0  0  0  0
    4.8432   -4.6314   24.7551 C   0  0  0  0  0  0  0  0  0  0  0  0
    4.7781   -5.2870   23.8839 H   0  0  0  0  0  0  0  0  0  0  0  0
    3.9233   -4.6606   25.3407 H   0  0  0  0  0  0  0  0  0  0  0  0
    6.0552   -5.3697   25.8058 S   0  0  0  0  0  0  0  0  0  0  0  0
    6.1484   -4.5794   27.0278 O   0  0  0  0  0  0  0  0  0  0  0  0
    5.7873   -6.7967   25.8230 O   0  0  0  0  0  0  0  0  0  0  0  0
    7.5381   -5.0834   24.8901 C   0  0  0  0  0  0  0  0  0  0  0  0
    8.3437   -5.5017   25.4914 H   0  0  0  0  0  0  0  0  0  0  0  0
    7.4436   -5.6371   23.9557 H   0  0  0  0  0  0  0  0  0  0  0  0
    7.6908   -3.5922   24.6431 C   0  0  0  0  0  0  0  0  0  0  0  0
    7.7870   -3.0274   25.5889 H   0  0  0  0  0  0  0  0  0  0  0  0
    8.6089   -3.4187   24.0748 H   0  0  0  0  0  0  0  0  0  0  0  0
    7.0364   -0.6955   23.9654 C   0  0  0  0  0  0  0  0  0  0  0  0
    6.3115    0.0716   23.6592 H   0  0  0  0  0  0  0  0  0  0  0  0
    6.8035   -0.9358   25.0113 H   0  0  0  0  0  0  0  0  0  0  0  0
    8.4544   -0.1235   23.8671 C   0  0  0  0  0  0  0  0  0  0  0  0
    8.5586    0.6695   24.6191 H   0  0  0  0  0  0  0  0  0  0  0  0
    9.1747   -0.9098   24.1365 H   0  0  0  0  0  0  0  0  0  0  0  0
    8.7940    0.4613   22.4949 C   0  0  0  0  0  0  0  0  0  0  0  0
    9.8438    0.7868   22.4954 H   0  0  0  0  0  0  0  0  0  0  0  0
    8.1997    1.3647   22.3090 H   0  0  0  0  0  0  0  0  0  0  0  0
    8.6031   -0.5085   21.3271 C   0  0  0  0  0  0  0  0  0  0  0  0
    9.1760   -1.4287   21.5010 H   0  0  0  0  0  0  0  0  0  0  0  0
    9.0272   -0.0418   20.4346 H   0  0  0  0  0  0  0  0  0  0  0  0
    5.3708    0.5445   20.1237 C   0  0  0  0  0  0  0  0  0  0  0  0
    4.9018    0.5160   21.1065 H   0  0  0  0  0  0  0  0  0  0  0  0
    4.8223    1.2783   19.0665 C   0  0  0  0  0  0  0  0  0  0  0  0
    3.9068    1.8456   19.1896 H   0  0  0  0  0  0  0  0  0  0  0  0
  1  2  1  0
  2  3  2  0
  3  4  1  0
  4  5  1  0
  4  6  2  0
  6  7  1  0
  7  8  1  0
  8  9  2  0
  8 10  1  0
 10 11  1  0
 11 12  1  0
 12 13  1  0
 12 14  1  0
 12 15  1  0
 15 16  1  0
 15 17  1  0
 15 18  1  0
 18 19  2  0
 18 20  2  0
 18 21  1  0
 21 22  1  0
 21 23  1  0
 21 24  1  0
 24 25  1  0
 24 26  1  0
 10 27  1  0
 27 28  1  0
 27 29  1  0
 27 30  1  0
 30 31  1  0
 30 32  1  0
 30 33  1  0
 33 34  1  0
 33 35  1  0
 33 36  1  0
 36 37  1  0
 36 38  1  0
  6 39  1  0
 39 40  1  0
 39 41  2  0
 41 42  1  0
 41  2  1  0
 36  7  1  0
 24 11  1  0
M  END
>  <cnnaffinity>  (1) 
5.25787

>  <plip>  (1) 
-0.03571428571428571

>  <filename>  (1) 
[H][c]1[n][c]([H])[c]([N]2[C](=[O])[N]([N]3[C]([H])([H])[C]([H])([H])[S](=[O])(=[O])[C]([H])([H])[C]3([H])[H])[C]([H])([H])[C]([H])([H])[C]([H])([H])[C]2([H])[H])[c]([H])[c]1[H]

>  <combo1>  (1) 
-0.19294862140709623

$$$$
