
     RDKit          3D

 48 48  0  0  0  0  0  0  0  0999 V2000
    6.1605   -6.4669   22.1990 C   0  0  0  0  0  0  0  0  0  0  0  0
    5.8941   -5.0045   22.4808 C   0  0  0  0  0  0  0  0  0  0  0  0
    6.3959   -4.6776   23.7633 O   0  0  0  0  0  0  0  0  0  0  0  0
    6.3375   -3.3000   24.0730 C   0  0  0  0  0  0  0  0  0  0  0  0
    7.6879   -2.6512   23.7738 C   0  0  0  0  0  0  0  0  0  0  0  0
    7.6957   -1.1666   24.0313 N   0  0  0  0  0  4  0  0  0  0  0  0
    7.8884   -0.8790   25.4990 C   0  0  0  0  0  0  0  0  0  0  0  0
    7.3876    0.5081   25.8693 C   0  0  0  0  0  0  0  0  0  0  0  0
    7.5605    0.7028   26.9320 H   0  0  0  0  0  0  0  0  0  0  0  0
    7.8970    1.2950   25.3029 H   0  0  0  0  0  0  0  0  0  0  0  0
    6.3123    0.5981   25.6790 H   0  0  0  0  0  0  0  0  0  0  0  0
    7.3604   -1.6372   26.0850 H   0  0  0  0  0  0  0  0  0  0  0  0
    8.9548   -0.9903   25.7357 H   0  0  0  0  0  0  0  0  0  0  0  0
    8.7149   -0.4529   23.1775 C   0  0  0  0  0  0  0  0  0  0  0  0
    8.1042    0.2745   21.9733 C   0  0  0  0  0  0  0  0  0  0  0  0
    9.1954    1.1175   21.2747 C   0  0  0  0  0  0  0  0  0  0  0  0
    8.6936    2.4806   20.8602 N   0  0  0  0  0  4  0  0  0  0  0  0
    8.3712    3.0142   21.6853 H   0  0  0  0  0  0  0  0  0  0  0  0
    9.4000    3.0862   20.3996 H   0  0  0  0  0  0  0  0  0  0  0  0
    7.8692    2.3709   20.2373 H   0  0  0  0  0  0  0  0  0  0  0  0
   10.0616    1.2367   21.9305 H   0  0  0  0  0  0  0  0  0  0  0  0
    9.5449    0.5774   20.3889 H   0  0  0  0  0  0  0  0  0  0  0  0
    7.3890   -0.7072   21.0087 C   0  0  0  0  0  0  0  0  0  0  0  0
    6.6593    0.0081   19.8945 C   0  0  0  0  0  0  0  0  0  0  0  0
    5.4440    0.6618   20.1457 C   0  0  0  0  0  0  0  0  0  0  0  0
    4.8044    1.3199   19.0946 C   0  0  0  0  0  0  0  0  0  0  0  0
    5.3964    1.3039   17.8256 C   0  0  0  0  0  0  0  0  0  0  0  0
    6.5619    0.6963   17.5631 N   0  0  0  0  0  0  0  0  0  0  0  0
    7.1669    0.0695   18.5830 C   0  0  0  0  0  0  0  0  0  0  0  0
    8.1139   -0.4187   18.3477 H   0  0  0  0  0  0  0  0  0  0  0  0
    4.9131    1.7952   16.9826 H   0  0  0  0  0  0  0  0  0  0  0  0
    3.8720    1.8459   19.2454 H   0  0  0  0  0  0  0  0  0  0  0  0
    5.0096    0.6378   21.1525 H   0  0  0  0  0  0  0  0  0  0  0  0
    6.6672   -1.3161   21.5787 H   0  0  0  0  0  0  0  0  0  0  0  0
    8.1292   -1.4073   20.5915 H   0  0  0  0  0  0  0  0  0  0  0  0
    7.3387    0.9523   22.3742 H   0  0  0  0  0  0  0  0  0  0  0  0
    9.2498    0.2649   23.8078 H   0  0  0  0  0  0  0  0  0  0  0  0
    9.4518   -1.1859   22.8221 H   0  0  0  0  0  0  0  0  0  0  0  0
    6.7625   -0.7857   23.7713 H   0  0  0  0  0  0  0  0  0  0  0  0
    8.4551   -3.1375   24.3854 H   0  0  0  0  0  0  0  0  0  0  0  0
    7.9558   -2.8608   22.7326 H   0  0  0  0  0  0  0  0  0  0  0  0
    6.0815   -3.2051   25.1347 H   0  0  0  0  0  0  0  0  0  0  0  0
    5.5493   -2.7773   23.5042 H   0  0  0  0  0  0  0  0  0  0  0  0
    4.8110   -4.7948   22.4403 H   0  0  0  0  0  0  0  0  0  0  0  0
    6.3652   -4.3802   21.7006 H   0  0  0  0  0  0  0  0  0  0  0  0
    5.7630   -6.7255   21.2119 H   0  0  0  0  0  0  0  0  0  0  0  0
    7.2334   -6.6838   22.2093 H   0  0  0  0  0  0  0  0  0  0  0  0
    5.6722   -7.1034   22.9429 H   0  0  0  0  0  0  0  0  0  0  0  0
  1  2  1  0
  2  3  1  0
  3  4  1  0
  4  5  1  0
  5  6  1  0
  6  7  1  0
  7  8  1  0
  8  9  1  0
  8 10  1  0
  8 11  1  0
  7 12  1  0
  7 13  1  0
  6 14  1  0
 14 15  1  0
 15 16  1  0
 16 17  1  0
 17 18  1  0
 17 19  1  0
 17 20  1  0
 16 21  1  0
 16 22  1  0
 15 23  1  0
 23 24  1  0
 24 25  2  0
 25 26  1  0
 26 27  2  0
 27 28  1  0
 28 29  2  0
 29 30  1  0
 27 31  1  0
 26 32  1  0
 25 33  1  0
 23 34  1  0
 23 35  1  0
 15 36  1  0
 14 37  1  0
 14 38  1  0
  6 39  1  0
  5 40  1  0
  5 41  1  0
  4 42  1  0
  4 43  1  0
  2 44  1  0
  2 45  1  0
  1 46  1  0
  1 47  1  0
  1 48  1  0
 29 24  1  0
M  CHG  2   6   1  17   1
M  END
>  <cnnaffinity>  (1) 
4.51043

>  <plip>  (1) 
-0.1724137931034483

>  <filename>  (1) 
[H][c]1[n][c]([H])[c]([C]([H])([H])[C]([H])([C]([H])([H])[N+]([H])([H])[H])[C]([H])([H])[N+]([H])([C]([H])([H])[C]([H])([H])[H])[C]([H])([H])[C]([H])([H])[O][C]([H])([H])[C]([H])([H])[H])[c]([H])[c]1[H]

>  <combo1>  (1) 
-0.969347928301226

$$$$
