
     RDKit          3D

 32 33  0  0  0  0  0  0  0  0999 V2000
    4.9176    1.7835   16.9964 H   0  0  0  0  0  0  0  0  0  0  0  0
    5.4021    1.2947   17.8385 C   0  0  0  0  0  0  0  0  0  0  0  0
    6.5622    0.6710   17.5748 N   0  0  0  0  0  0  0  0  0  0  0  0
    7.1729    0.0466   18.5918 C   0  0  0  0  0  0  0  0  0  0  0  0
    8.1010   -0.4664   18.3509 H   0  0  0  0  0  0  0  0  0  0  0  0
    6.6506   -0.0113   19.9030 C   0  0  0  0  0  0  0  0  0  0  0  0
    7.3219   -0.6361   20.9828 N   0  0  0  0  0  0  0  0  0  0  0  0
    8.7198   -0.5054   20.9944 N   0  0  0  0  0  0  0  0  0  0  0  0
    9.2712   -1.3009   21.2815 H   0  0  0  0  0  0  0  0  0  0  0  0
    9.3102    0.7631   21.0059 C   0  0  0  0  0  0  0  0  0  0  0  0
    8.6055    1.7300   20.7390 O   0  0  0  0  0  0  0  0  0  0  0  0
   10.7842    0.8668   21.3522 C   0  0  0  0  0  0  0  0  0  0  0  0
   11.6784    1.9353   20.7349 C   0  0  0  0  0  0  0  0  0  0  0  0
   11.1478    2.5155   19.8412 H   0  0  0  0  0  0  0  0  0  0  0  0
   11.6727    2.2478   20.8473 C   0  0  0  0  0  0  0  0  0  0  0  0
   11.9455    4.2062   19.6070 H   0  0  0  0  0  0  0  0  0  0  0  0
   13.2104    0.2061   22.2360 C   0  0  0  0  0  0  0  0  0  0  0  0
   14.2619    1.0332   21.8718 H   0  0  0  0  0  0  0  0  0  0  0  0
   13.2114    0.2063   22.2365 C   0  0  0  0  0  0  0  0  0  0  0  0
   13.9000   -0.9592   22.7966 N   0  0  0  0  0  0  0  0  0  0  0  0
   13.1401   -1.3407   23.3133 H   0  0  0  0  0  0  0  0  0  0  0  0
   14.8568   -0.6427   23.0762 H   0  0  0  0  0  0  0  0  0  0  0  0
   11.6542    0.0522   21.9693 C   0  0  0  0  0  0  0  0  0  0  0  0
   11.3175   -0.8242   22.5765 H   0  0  0  0  0  0  0  0  0  0  0  0
    6.7378   -1.8189   21.5759 C   0  0  0  0  0  0  0  0  0  0  0  0
    5.6726   -1.6253   21.7054 H   0  0  0  0  0  0  0  0  0  0  0  0
    6.8345   -2.7267   20.9587 H   0  0  0  0  0  0  0  0  0  0  0  0
    7.1587   -1.9932   22.5716 H   0  0  0  0  0  0  0  0  0  0  0  0
    5.4354    0.6372   20.1551 C   0  0  0  0  0  0  0  0  0  0  0  0
    5.0314    0.6241   21.1701 H   0  0  0  0  0  0  0  0  0  0  0  0
    4.8072    1.3102   19.1046 C   0  0  0  0  0  0  0  0  0  0  0  0
    3.8763    1.8417   19.2616 H   0  0  0  0  0  0  0  0  0  0  0  0
  1  2  1  0
  2  3  2  0
  3  4  1  0
  4  5  1  0
  4  6  2  0
  6  7  1  0
  7  8  1  0
  8  9  1  0
  8 10  1  0
 10 11  2  0
 10 12  1  0
 12 13  2  0
 13 14  1  0
 13 15  1  0
 15 16  1  0
 15 17  2  0
 17 18  1  0
 17 19  1  0
 19 20  1  0
 20 21  1  0
 20 22  1  0
 19 23  2  0
 23 24  1  0
  7 25  1  0
 25 26  1  0
 25 27  1  0
 25 28  1  0
  6 29  1  0
 29 30  1  0
 29 31  2  0
 31 32  1  0
 31  2  1  0
 23 12  1  0
M  END
>  <cnnaffinity>  (1) 
5.33699

>  <plip>  (1) 
-0.1

>  <filename>  (1) 
[H][c]1[n][c]([H])[c]([N]([N]([H])[C](=[O])[c]2[c]([H])[c]([H])[c]([H])[c]([N]([H])[H])[c]2[H])[C]([H])([H])[H])[c]([H])[c]1[H]

>  <combo1>  (1) 
-0.7342669561365129

$$$$
