
     RDKit          3D

 24 24  0  0  0  0  0  0  0  0999 V2000
    4.9221    1.7808   17.0054 H   0  0  0  0  0  0  0  0  0  0  0  0
    5.4074    1.2862   17.8480 C   0  0  0  0  0  0  0  0  0  0  0  0
    6.5700    0.6683   17.5856 N   0  0  0  0  0  0  0  0  0  0  0  0
    7.1894    0.0521   18.5955 C   0  0  0  0  0  0  0  0  0  0  0  0
    8.1333   -0.4290   18.3623 H   0  0  0  0  0  0  0  0  0  0  0  0
    6.6949   -0.0084   19.9138 C   0  0  0  0  0  0  0  0  0  0  0  0
    7.3239   -0.6879   21.0091 N   0  0  0  0  0  0  0  0  0  0  0  0
    8.4101   -1.2416   20.7348 N   0  0  0  0  0  0  0  0  0  0  0  0
    9.0187   -1.9212   21.8843 C   0  0  0  0  0  0  0  0  0  0  0  0
   10.0150   -2.2289   21.5684 H   0  0  0  0  0  0  0  0  0  0  0  0
    9.1458   -1.2364   22.7297 H   0  0  0  0  0  0  0  0  0  0  0  0
    8.2526   -3.1612   22.3149 C   0  0  0  0  0  0  0  0  0  0  0  0
    8.1605   -3.8141   21.4427 H   0  0  0  0  0  0  0  0  0  0  0  0
    7.2280   -2.8557   22.5814 H   0  0  0  0  0  0  0  0  0  0  0  0
    8.9466   -3.9007   23.3653 N   0  0  0  0  0  0  0  0  0  0  0  0
    8.9926   -3.3168   24.1977 H   0  0  0  0  0  0  0  0  0  0  0  0
    8.2494   -5.1322   23.7217 C   0  0  0  0  0  0  0  0  0  0  0  0
    8.7720   -5.6600   24.5276 H   0  0  0  0  0  0  0  0  0  0  0  0
    7.1950   -4.9903   24.0250 H   0  0  0  0  0  0  0  0  0  0  0  0
    8.2428   -5.7997   22.8547 H   0  0  0  0  0  0  0  0  0  0  0  0
    5.4732    0.6307   20.1749 C   0  0  0  0  0  0  0  0  0  0  0  0
    5.0499    0.6068   21.1788 H   0  0  0  0  0  0  0  0  0  0  0  0
    4.8286    1.2917   19.1230 C   0  0  0  0  0  0  0  0  0  0  0  0
    3.8956    1.8250   19.2706 H   0  0  0  0  0  0  0  0  0  0  0  0
  1  2  1  0
  2  3  2  0
  3  4  1  0
  4  5  1  0
  4  6  2  0
  6  7  1  0
  7  8  2  3
  8  9  1  0
  9 10  1  0
  9 11  1  0
  9 12  1  0
 12 13  1  0
 12 14  1  0
 12 15  1  0
 15 16  1  0
 15 17  1  0
 17 18  1  0
 17 19  1  0
 17 20  1  0
  6 21  1  0
 21 22  1  0
 21 23  2  0
 23 24  1  0
 23  2  1  0
M  END
>  <cnnaffinity>  (1) 
3.91991

>  <plip>  (1) 
-0.06896551724137931

>  <filename>  (1) 
[H][c]1[n][c]([H])[c]([N]=[N][C]([H])([H])[C]([H])([H])[N]([H])[C]([H])([H])[H])[c]([H])[c]1[H]

>  <combo1>  (1) 
-0.5487593693714125

$$$$
