
     RDKit          3D

 30 32  0  0  0  0  0  0  0  0999 V2000
    4.9207    1.7793   16.9986 H   0  0  0  0  0  0  0  0  0  0  0  0
    5.4051    1.2894   17.8395 C   0  0  0  0  0  0  0  0  0  0  0  0
    6.5663    0.6758   17.5747 N   0  0  0  0  0  0  0  0  0  0  0  0
    7.1803    0.0609   18.5882 C   0  0  0  0  0  0  0  0  0  0  0  0
    8.1259   -0.4257   18.3653 H   0  0  0  0  0  0  0  0  0  0  0  0
    6.6697    0.0083   19.8924 C   0  0  0  0  0  0  0  0  0  0  0  0
    7.4089   -0.7094   20.9391 C   0  0  0  0  0  0  0  0  0  0  0  0
    8.5923   -1.2854   20.7293 N   0  0  0  0  0  0  0  0  0  0  0  0
    8.9187   -1.8320   21.9090 N   0  0  0  0  0  0  0  0  0  0  0  0
    9.8086   -2.2897   21.9957 H   0  0  0  0  0  0  0  0  0  0  0  0
    7.9961   -1.6255   22.8888 C   0  0  0  0  0  0  0  0  0  0  0  0
    8.0997   -2.1054   24.2764 C   0  0  0  0  0  0  0  0  0  0  0  0
    7.3091   -1.4859   25.2622 C   0  0  0  0  0  0  0  0  0  0  0  0
    6.6586   -0.6596   24.9866 H   0  0  0  0  0  0  0  0  0  0  0  0
    7.3681   -1.9285   26.5800 C   0  0  0  0  0  0  0  0  0  0  0  0
    6.7548   -1.4429   27.3316 H   0  0  0  0  0  0  0  0  0  0  0  0
    8.2052   -2.9863   26.9284 C   0  0  0  0  0  0  0  0  0  0  0  0
    8.2566   -3.3497   27.9440 H   0  0  0  0  0  0  0  0  0  0  0  0
    8.9958   -3.6149   25.9529 C   0  0  0  0  0  0  0  0  0  0  0  0
    9.8246   -4.6495   26.2889 N   0  0  0  0  0  0  0  0  0  0  0  0
   10.3900   -5.1114   25.5999 H   0  0  0  0  0  0  0  0  0  0  0  0
    9.8708   -4.9862   27.2333 H   0  0  0  0  0  0  0  0  0  0  0  0
    8.9343   -3.1726   24.6269 C   0  0  0  0  0  0  0  0  0  0  0  0
    9.5346   -3.6816   23.8792 H   0  0  0  0  0  0  0  0  0  0  0  0
    7.0063   -0.8983   22.2710 C   0  0  0  0  0  0  0  0  0  0  0  0
    6.0970   -0.5542   22.7176 H   0  0  0  0  0  0  0  0  0  0  0  0
    5.4460    0.6504   20.1541 C   0  0  0  0  0  0  0  0  0  0  0  0
    5.0013    0.6417   21.1528 H   0  0  0  0  0  0  0  0  0  0  0  0
    4.8109    1.3066   19.1066 C   0  0  0  0  0  0  0  0  0  0  0  0
    3.8781    1.8392   19.2602 H   0  0  0  0  0  0  0  0  0  0  0  0
  1  2  1  0
  2  3  2  0
  3  4  1  0
  4  5  1  0
  4  6  2  0
  6  7  1  0
  7  8  2  0
  8  9  1  0
  9 10  1  0
  9 11  1  0
 11 12  1  0
 12 13  2  0
 13 14  1  0
 13 15  1  0
 15 16  1  0
 15 17  2  0
 17 18  1  0
 17 19  1  0
 19 20  1  0
 20 21  1  0
 20 22  1  0
 19 23  2  0
 23 24  1  0
 11 25  2  0
 25 26  1  0
  6 27  1  0
 27 28  1  0
 27 29  2  0
 29 30  1  0
 29  2  1  0
 25  7  1  0
 23 12  1  0
M  END
>  <cnnaffinity>  (1) 
4.86303

>  <plip>  (1) 
-0.06896551724137931

>  <filename>  (1) 
[H][c]1[n][c]([H])[c](-[c]2[n][n]([H])[c](-[c]3[c]([H])[c]([H])[c]([H])[c]([N]([H])[H])[c]3[H])[c]2[H])[c]([H])[c]1[H]

>  <combo1>  (1) 
-0.47314516418561303

$$$$
