
     RDKit          3D

 27 28  0  0  0  0  0  0  0  0999 V2000
   11.9437   -3.7970   25.2064 H   0  0  0  0  0  0  0  0  0  0  0  0
   10.9878   -3.9367   25.1643 O   0  0  0  0  0  0  0  0  0  0  0  0
   10.4660   -3.0698   24.2284 C   0  0  0  0  0  0  0  0  0  0  0  0
   11.1351   -2.7827   23.0415 C   0  0  0  0  0  0  0  0  0  0  0  0
   12.1167   -3.2263   22.8924 H   0  0  0  0  0  0  0  0  0  0  0  0
   10.5792   -1.9145   22.0985 C   0  0  0  0  0  0  0  0  0  0  0  0
   11.1364   -1.6187   21.2109 H   0  0  0  0  0  0  0  0  0  0  0  0
    9.2886   -1.4005   22.3083 C   0  0  0  0  0  0  0  0  0  0  0  0
    8.6072   -0.6654   21.2245 C   0  0  0  0  0  0  0  0  0  0  0  0
    9.4481   -0.0223   20.3743 F   0  0  0  0  0  0  0  0  0  0  0  0
    7.2963   -0.6426   20.9769 C   0  0  0  0  0  0  0  0  0  0  0  0
    6.6646   -1.1533   21.6977 H   0  0  0  0  0  0  0  0  0  0  0  0
    6.6102    0.0191   19.8524 C   0  0  0  0  0  0  0  0  0  0  0  0
    7.1448    0.0866   18.5455 C   0  0  0  0  0  0  0  0  0  0  0  0
    8.0999   -0.3884   18.3250 H   0  0  0  0  0  0  0  0  0  0  0  0
    6.5398    0.7042   17.5234 N   0  0  0  0  0  0  0  0  0  0  0  0
    5.3771    1.3192   17.7899 C   0  0  0  0  0  0  0  0  0  0  0  0
    4.9202    1.8393   16.9546 H   0  0  0  0  0  0  0  0  0  0  0  0
    4.7567    1.3209   19.0462 C   0  0  0  0  0  0  0  0  0  0  0  0
    3.8284    1.8626   19.1899 H   0  0  0  0  0  0  0  0  0  0  0  0
    5.3756    0.6432   20.0936 C   0  0  0  0  0  0  0  0  0  0  0  0
    4.9495    0.6308   21.0989 H   0  0  0  0  0  0  0  0  0  0  0  0
    8.6138   -1.6845   23.5211 C   0  0  0  0  0  0  0  0  0  0  0  0
    7.6446   -1.2515   23.7635 H   0  0  0  0  0  0  0  0  0  0  0  0
    9.2123   -2.4678   24.5027 C   0  0  0  0  0  0  0  0  0  0  0  0
    8.5799   -2.6096   25.7018 O   0  0  0  0  0  0  0  0  0  0  0  0
    9.1611   -3.1592   26.2510 H   0  0  0  0  0  0  0  0  0  0  0  0
  1  2  1  0
  2  3  1  0
  3  4  2  0
  4  5  1  0
  4  6  1  0
  6  7  1  0
  6  8  2  0
  8  9  1  0
  9 10  1  0
  9 11  2  3
 11 12  1  0
 11 13  1  0
 13 14  2  0
 14 15  1  0
 14 16  1  0
 16 17  2  0
 17 18  1  0
 17 19  1  0
 19 20  1  0
 19 21  2  0
 21 22  1  0
  8 23  1  0
 23 24  1  0
 23 25  2  0
 25 26  1  0
 26 27  1  0
 25  3  1  0
 21 13  1  0
M  END
>  <cnnaffinity>  (1) 
4.72227

>  <plip>  (1) 
-0.03571428571428571

>  <filename>  (1) 
[H][O][c]1[c]([H])[c]([H])[c]([C]([F])=[C]([H])[c]2[c]([H])[n][c]([H])[c]([H])[c]2[H])[c]([H])[c]1[O][H]

>  <combo1>  (1) 
-0.24312793543978614

$$$$
