
     RDKit          3D

 38 40  0  0  0  0  0  0  0  0999 V2000
    8.6211    0.0395   21.3614 N   0  0  0  0  0  4  0  0  0  0  0  0
    7.2299   -0.4926   21.1754 C   0  0  2  0  0  0  0  0  0  0  0  0
    7.3871   -1.9814   20.8310 C   0  0  0  0  0  0  0  0  0  0  0  0
    7.8000   -2.8252   21.9676 C   0  0  0  0  0  0  0  0  0  0  0  0
    7.0625   -3.3381   22.8987 N   0  0  0  0  0  0  0  0  0  0  0  0
    8.0169   -3.8971   23.7399 C   0  0  0  0  0  0  0  0  0  0  0  0
    7.7096   -4.4875   25.0641 C   0  0  0  0  0  0  0  0  0  0  0  0
    6.3749   -4.5278   25.5050 C   0  0  0  0  0  0  0  0  0  0  0  0
    6.0684   -4.9193   26.8170 C   0  0  0  0  0  0  0  0  0  0  0  0
    4.6117   -4.8994   27.2498 C   0  0  0  0  0  0  0  0  0  0  0  0
    3.9275   -5.9468   26.7528 F   0  0  0  0  0  0  0  0  0  0  0  0
    3.9822   -3.7873   26.8142 F   0  0  0  0  0  0  0  0  0  0  0  0
    4.4736   -4.9380   28.5847 F   0  0  0  0  0  0  0  0  0  0  0  0
    7.0980   -5.2722   27.7092 C   0  0  0  0  0  0  0  0  0  0  0  0
    8.4100   -5.2253   27.2440 C   0  0  0  0  0  0  0  0  0  0  0  0
    9.3959   -5.4819   28.1089 F   0  0  0  0  0  0  0  0  0  0  0  0
    8.7454   -4.8852   25.9397 C   0  0  0  0  0  0  0  0  0  0  0  0
    9.7981   -4.8834   25.6678 H   0  0  0  0  0  0  0  0  0  0  0  0
    6.9403   -5.5220   28.7567 H   0  0  0  0  0  0  0  0  0  0  0  0
    5.5815   -4.2124   24.8299 H   0  0  0  0  0  0  0  0  0  0  0  0
    9.2439   -3.7659   23.3062 N   0  0  0  0  0  0  0  0  0  0  0  0
    9.1032   -3.0507   22.1351 O   0  0  0  0  0  0  0  0  0  0  0  0
    6.4731   -2.3725   20.3950 H   0  0  0  0  0  0  0  0  0  0  0  0
    8.1648   -2.0311   20.0846 H   0  0  0  0  0  0  0  0  0  0  0  0
    6.5785    0.2387   20.0323 C   0  0  0  0  0  0  0  0  0  0  0  0
    5.3311    0.8765   20.1476 C   0  0  0  0  0  0  0  0  0  0  0  0
    4.7595    1.4526   19.0095 C   0  0  0  0  0  0  0  0  0  0  0  0
    5.4542    1.3787   17.7994 C   0  0  0  0  0  0  0  0  0  0  0  0
    6.6346    0.7615   17.6662 N   0  0  0  0  0  0  0  0  0  0  0  0
    7.1668    0.2032   18.7597 C   0  0  0  0  0  0  0  0  0  0  0  0
    8.0961   -0.3415   18.5861 H   0  0  0  0  0  0  0  0  0  0  0  0
    5.0468    1.8195   16.8904 H   0  0  0  0  0  0  0  0  0  0  0  0
    3.7962    1.9523   19.0353 H   0  0  0  0  0  0  0  0  0  0  0  0
    4.8107    0.9278   21.1080 H   0  0  0  0  0  0  0  0  0  0  0  0
    6.6445   -0.3409   22.0925 H   0  0  0  0  0  0  0  0  0  0  0  0
    8.6014    1.0740   21.4391 H   0  0  0  0  0  0  0  0  0  0  0  0
    9.0651   -0.3926   22.1898 H   0  0  0  0  0  0  0  0  0  0  0  0
    9.1809   -0.2172   20.5323 H   0  0  0  0  0  0  0  0  0  0  0  0
  1  2  1  0
  2  3  1  0
  3  4  1  0
  4  5  2  0
  5  6  1  0
  6  7  1  0
  7  8  2  0
  8  9  1  0
  9 10  1  0
 10 11  1  0
 10 12  1  0
 10 13  1  0
  9 14  2  0
 14 15  1  0
 15 16  1  0
 15 17  2  0
 17 18  1  0
 14 19  1  0
  8 20  1  0
  6 21  2  0
 21 22  1  0
  3 23  1  0
  3 24  1  0
  2 25  1  0
 25 26  2  0
 26 27  1  0
 27 28  2  0
 28 29  1  0
 29 30  2  0
 30 31  1  0
 28 32  1  0
 27 33  1  0
 26 34  1  0
  2 35  1  1
  1 36  1  0
  1 37  1  0
  1 38  1  0
 22  4  1  0
 30 25  1  0
 17  7  1  0
M  CHG  1   1   1
M  END
>  <cnnaffinity>  (1) 
5.1043

>  <plip>  (1) 
-0.06896551724137931

>  <filename>  (1) 
[H][c]1[n][c]([H])[c]([C@@]([H])([C]([H])([H])[c]2[n][c](-[c]3[c]([H])[c]([F])[c]([H])[c]([C]([F])([F])[F])[c]3[H])[n][o]2)[N+]([H])([H])[H])[c]([H])[c]1[H]

>  <combo1>  (1) 
-0.33212726298420747

$$$$
