
     RDKit          3D

 32 35  0  0  0  0  0  0  0  0999 V2000
    4.9240    1.8053   16.9881 H   0  0  0  0  0  0  0  0  0  0  0  0
    5.4030    1.3068   17.8267 C   0  0  0  0  0  0  0  0  0  0  0  0
    6.5774    0.7067   17.5629 N   0  0  0  0  0  0  0  0  0  0  0  0
    7.1880    0.0803   18.5788 C   0  0  0  0  0  0  0  0  0  0  0  0
    8.1335   -0.4155   18.3609 H   0  0  0  0  0  0  0  0  0  0  0  0
    6.6656    0.0115   19.8937 C   0  0  0  0  0  0  0  0  0  0  0  0
    7.2991   -0.7474   20.9203 N   0  0  0  0  0  0  0  0  0  0  0  0
    7.2582   -2.1438   20.9366 C   0  0  0  0  0  0  0  0  0  0  0  0
    6.5550   -2.9085   20.3329 O   0  0  0  0  0  0  0  0  0  0  0  0
    8.2065   -2.5176   21.8514 N   0  0  0  0  0  0  0  0  0  0  0  0
    8.3640   -3.4814   22.0600 H   0  0  0  0  0  0  0  0  0  0  0  0
    8.6150   -1.5211   22.6811 C   0  0  0  0  0  0  0  0  0  0  0  0
    9.2924   -1.6965   23.6527 O   0  0  0  0  0  0  0  0  0  0  0  0
    8.0559   -0.2351   22.0928 C   0  0  2  0  0  0  0  0  0  0  0  0
    8.8846    0.4230   21.8067 H   0  0  0  0  0  0  0  0  0  0  0  0
    7.2694    0.5204   23.1249 C   0  0  0  0  0  0  0  0  0  0  0  0
    6.8442    1.7305   22.9782 N   0  0  0  0  0  0  0  0  0  0  0  0
    6.1707    1.9977   24.1685 C   0  0  0  0  0  0  0  0  0  0  0  0
    5.4534    3.1206   24.5957 C   0  0  0  0  0  0  0  0  0  0  0  0
    5.3261    3.9604   23.9207 H   0  0  0  0  0  0  0  0  0  0  0  0
    4.9315    3.1018   25.8888 C   0  0  0  0  0  0  0  0  0  0  0  0
    4.3863    3.9687   26.2453 H   0  0  0  0  0  0  0  0  0  0  0  0
    5.1137    1.9863   26.7338 C   0  0  0  0  0  0  0  0  0  0  0  0
    4.7071    2.0152   27.7386 H   0  0  0  0  0  0  0  0  0  0  0  0
    5.8055    0.8512   26.3045 C   0  0  0  0  0  0  0  0  0  0  0  0
    5.9691   -0.0177   26.9316 H   0  0  0  0  0  0  0  0  0  0  0  0
    6.3015    0.8879   25.0076 C   0  0  0  0  0  0  0  0  0  0  0  0
    7.0013   -0.0638   24.3264 O   0  0  0  0  0  0  0  0  0  0  0  0
    5.4394    0.6345   20.1392 C   0  0  0  0  0  0  0  0  0  0  0  0
    5.0276    0.5953   21.1469 H   0  0  0  0  0  0  0  0  0  0  0  0
    4.8017    1.3047   19.0891 C   0  0  0  0  0  0  0  0  0  0  0  0
    3.8686    1.8327   19.2541 H   0  0  0  0  0  0  0  0  0  0  0  0
  1  2  1  0
  2  3  2  0
  3  4  1  0
  4  5  1  0
  4  6  2  0
  6  7  1  0
  7  8  1  0
  8  9  2  0
  8 10  1  0
 10 11  1  0
 10 12  1  0
 12 13  2  0
 12 14  1  0
 14 15  1  6
 14 16  1  0
 16 17  2  0
 17 18  1  0
 18 19  2  0
 19 20  1  0
 19 21  1  0
 21 22  1  0
 21 23  2  0
 23 24  1  0
 23 25  1  0
 25 26  1  0
 25 27  2  0
 27 28  1  0
  6 29  1  0
 29 30  1  0
 29 31  2  0
 31 32  1  0
 31  2  1  0
 14  7  1  0
 28 16  1  0
 27 18  1  0
M  END
>  <cnnaffinity>  (1) 
5.00479

>  <plip>  (1) 
-0.034482758620689655

>  <filename>  (1) 
[H][c]1[n][c]([H])[c]([N]2[C](=[O])[N]([H])[C](=[O])[C@]2([H])[c]2[n][c]3[c]([H])[c]([H])[c]([H])[c]([H])[c]3[o]2)[c]([H])[c]1[H]

>  <combo1>  (1) 
-0.19548823134903473

$$$$
