
     RDKit          3D

 33 35  0  0  0  0  0  0  0  0999 V2000
    5.2182    1.6508   17.1174 H   0  0  0  0  0  0  0  0  0  0  0  0
    5.6003    1.2141   18.0383 C   0  0  0  0  0  0  0  0  0  0  0  0
    6.7524    0.5358   17.9444 N   0  0  0  0  0  0  0  0  0  0  0  0
    7.2379   -0.0188   19.0629 C   0  0  0  0  0  0  0  0  0  0  0  0
    8.1905   -0.5358   18.9594 H   0  0  0  0  0  0  0  0  0  0  0  0
    6.6044    0.0523   20.3350 C   0  0  0  0  0  0  0  0  0  0  0  0
    7.1128   -0.6133   21.4792 N   0  0  0  0  0  0  0  0  0  0  0  0
    6.5787   -0.5543   22.7751 C   0  0  0  0  0  0  0  0  0  0  0  0
    6.0112    0.3671   23.3215 O   0  0  0  0  0  0  0  0  0  0  0  0
    6.8905   -1.7558   23.3842 N   0  0  0  0  0  0  0  0  0  0  0  0
    6.1974   -1.9921   24.0742 H   0  0  0  0  0  0  0  0  0  0  0  0
    7.3436   -2.7165   22.3910 C   0  0  0  0  0  0  0  0  0  0  0  0
    8.0194   -3.4693   22.8123 H   0  0  0  0  0  0  0  0  0  0  0  0
    6.5104   -3.2504   21.9098 H   0  0  0  0  0  0  0  0  0  0  0  0
    8.0108   -1.7746   21.3788 C   0  0  2  0  0  0  0  0  0  0  0  0
    7.9317   -2.1755   20.3643 H   0  0  0  0  0  0  0  0  0  0  0  0
    9.5176   -1.4872   21.6244 C   0  0  1  0  0  0  0  0  0  0  0  0
    9.9965   -2.4581   21.3995 H   0  0  0  0  0  0  0  0  0  0  0  0
   10.0529   -0.5181   20.5360 N   0  0  0  0  0  0  0  0  0  0  0  0
    9.4447    0.2969   20.6092 H   0  0  0  0  0  0  0  0  0  0  0  0
   11.2085   -0.1930   23.0103 C   0  0  0  0  0  0  0  0  0  0  0  0
   10.9946   -0.0730   20.8122 H   0  0  0  0  0  0  0  0  0  0  0  0
   11.7420    0.8093   21.4307 H   0  0  0  0  0  0  0  0  0  0  0  0
   11.2660   -0.1216   22.8375 C   0  0  0  0  0  0  0  0  0  0  0  0
   11.3616    0.8428   23.6909 H   0  0  0  0  0  0  0  0  0  0  0  0
   12.3631   -0.6111   23.2658 H   0  0  0  0  0  0  0  0  0  0  0  0
    9.9489   -0.9710   23.0333 C   0  0  0  0  0  0  0  0  0  0  0  0
   10.0539   -1.8454   23.7486 H   0  0  0  0  0  0  0  0  0  0  0  0
    9.0362   -0.5266   23.5855 H   0  0  0  0  0  0  0  0  0  0  0  0
    5.4079    0.7835   20.4094 C   0  0  0  0  0  0  0  0  0  0  0  0
    4.9043    0.8863   21.3668 H   0  0  0  0  0  0  0  0  0  0  0  0
    4.9067    1.3629   19.2419 C   0  0  0  0  0  0  0  0  0  0  0  0
    3.9862    1.9360   19.2608 H   0  0  0  0  0  0  0  0  0  0  0  0
  1  2  1  0
  2  3  2  0
  3  4  1  0
  4  5  1  0
  4  6  2  0
  6  7  1  0
  7  8  1  0
  8  9  2  0
  8 10  1  0
 10 11  1  0
 10 12  1  0
 12 13  1  0
 12 14  1  0
 12 15  1  0
 15 16  1  6
 15 17  1  0
 17 18  1  6
 17 19  1  0
 19 20  1  0
 19 21  1  0
 21 22  1  0
 21 23  1  0
 21 24  1  0
 24 25  1  0
 24 26  1  0
 24 27  1  0
 27 28  1  0
 27 29  1  0
  6 30  1  0
 30 31  1  0
 30 32  2  0
 32 33  1  0
 32  2  1  0
 15  7  1  0
 27 17  1  0
M  END
>  <cnnaffinity>  (1) 
4.54592

>  <plip>  (1) 
-0.14285714285714285

>  <filename>  (1) 
[H][c]1[n][c]([H])[c]([N]2[C](=[O])[N]([H])[C]([H])([H])[C@]2([H])[C@@]2([H])[N]([H])[C]([H])([H])[C]([H])([H])[C]2([H])[H])[c]([H])[c]1[H]

>  <combo1>  (1) 
-0.9319177610128025

$$$$
