
     RDKit          3D

 37 38  0  0  0  0  0  0  0  0999 V2000
    6.0474   -2.3211   22.5740 O   0  0  0  0  0  0  0  0  0  0  0  0
    6.5032   -2.0091   21.4879 C   0  0  0  0  0  0  0  0  0  0  0  0
    7.0804   -0.6296   21.1468 C   0  0  0  0  0  0  0  0  0  0  0  0
    6.5202    0.1088   19.9351 C   0  0  0  0  0  0  0  0  0  0  0  0
    5.2685    0.7325   20.0242 C   0  0  0  0  0  0  0  0  0  0  0  0
    4.7536    1.3830   18.9002 C   0  0  0  0  0  0  0  0  0  0  0  0
    5.5101    1.3954   17.7245 C   0  0  0  0  0  0  0  0  0  0  0  0
    6.7165    0.8209   17.6162 N   0  0  0  0  0  0  0  0  0  0  0  0
    7.2029    0.2127   18.7057 C   0  0  0  0  0  0  0  0  0  0  0  0
    8.2021   -0.2099   18.5947 H   0  0  0  0  0  0  0  0  0  0  0  0
    5.1339    1.8794   16.8250 H   0  0  0  0  0  0  0  0  0  0  0  0
    3.7971    1.8935   18.9264 H   0  0  0  0  0  0  0  0  0  0  0  0
    4.7277    0.7085   20.9725 H   0  0  0  0  0  0  0  0  0  0  0  0
    6.9445   -0.0390   22.0542 H   0  0  0  0  0  0  0  0  0  0  0  0
    8.1631   -0.7653   21.0307 H   0  0  0  0  0  0  0  0  0  0  0  0
    6.6227   -2.9334   20.4902 N   0  0  0  0  0  0  0  0  0  0  0  0
    6.3502   -4.3624   20.7113 C   0  0  0  0  0  0  0  0  0  0  0  0
    7.1041   -5.0988   21.8693 C   0  0  0  0  0  0  0  0  0  0  0  0
    8.2155   -5.5732   21.7499 O   0  0  0  0  0  0  0  0  0  0  0  0
    6.3446   -5.1892   23.0004 N   0  0  0  0  0  0  0  0  0  0  0  0
    6.7267   -5.5877   24.2790 C   0  0  0  0  0  0  0  0  0  0  0  0
    8.0101   -5.2760   24.7406 C   0  0  0  0  0  0  0  0  0  0  0  0
    8.3434   -5.4563   26.0826 C   0  0  0  0  0  0  0  0  0  0  0  0
    7.4184   -6.0328   26.9607 C   0  0  0  0  0  0  0  0  0  0  0  0
    6.1610   -6.4182   26.5019 C   0  0  0  0  0  0  0  0  0  0  0  0
    5.8006   -6.1949   25.1594 C   0  0  0  0  0  0  0  0  0  0  0  0
    4.4650   -6.6433   24.7107 N   0  0  0  0  0  4  0  0  0  0  0  0
    4.0644   -6.3187   23.5989 O   0  0  0  0  0  0  0  0  0  0  0  0
    3.8065   -7.3414   25.4656 O   0  0  0  0  0  1  0  0  0  0  0  0
    5.4365   -6.8679   27.1731 H   0  0  0  0  0  0  0  0  0  0  0  0
    7.6704   -6.1776   28.0063 H   0  0  0  0  0  0  0  0  0  0  0  0
    9.3194   -5.1397   26.4433 H   0  0  0  0  0  0  0  0  0  0  0  0
    8.7045   -4.8546   24.0234 H   0  0  0  0  0  0  0  0  0  0  0  0
    5.4419   -4.7529   22.9734 H   0  0  0  0  0  0  0  0  0  0  0  0
    5.2816   -4.4890   20.9142 H   0  0  0  0  0  0  0  0  0  0  0  0
    6.5787   -4.8943   19.7866 H   0  0  0  0  0  0  0  0  0  0  0  0
    7.1886   -2.6573   19.7025 H   0  0  0  0  0  0  0  0  0  0  0  0
  1  2  2  0
  2  3  1  0
  3  4  1  0
  4  5  2  0
  5  6  1  0
  6  7  2  0
  7  8  1  0
  8  9  2  0
  9 10  1  0
  7 11  1  0
  6 12  1  0
  5 13  1  0
  3 14  1  0
  3 15  1  0
  2 16  1  0
 16 17  1  0
 17 18  1  0
 18 19  2  0
 18 20  1  0
 20 21  1  0
 21 22  2  0
 22 23  1  0
 23 24  2  0
 24 25  1  0
 25 26  2  0
 26 27  1  0
 27 28  2  0
 27 29  1  0
 25 30  1  0
 24 31  1  0
 23 32  1  0
 22 33  1  0
 20 34  1  0
 17 35  1  0
 17 36  1  0
 16 37  1  0
  9  4  1  0
 26 21  1  0
M  CHG  2  27   1  29  -1
M  END
>  <cnnaffinity>  (1) 
4.42968

>  <plip>  (1) 
-0.10344827586206896

>  <filename>  (1) 
[H][c]1[n][c]([H])[c]([C]([H])([H])[C](=[O])[N]([H])[C]([H])([H])[C](=[O])[N]([H])[c]2[c]([H])[c]([H])[c]([H])[c]([H])[c]2[N+](=[O])[O-])[c]([H])[c]1[H]

>  <combo1>  (1) 
-0.48599141016699493

$$$$
