
     RDKit          3D

 29 31  0  0  0  0  0  0  0  0999 V2000
   11.5334    2.8144   21.3317 H   0  0  0  0  0  0  0  0  0  0  0  0
   10.9353    1.9258   21.5037 C   0  0  0  0  0  0  0  0  0  0  0  0
   11.4687    0.6786   21.5625 N   0  0  0  0  0  0  0  0  0  0  0  0
   10.4056   -0.0624   21.7833 C   0  0  0  0  0  0  0  0  0  0  0  0
   10.3882   -1.1394   21.8998 H   0  0  0  0  0  0  0  0  0  0  0  0
    9.2985    0.6995   21.8557 N   0  0  0  0  0  0  0  0  0  0  0  0
    7.9322    0.2493   22.0843 C   0  0  2  0  0  0  0  0  0  0  0  0
    7.3204    1.1560   22.1031 H   0  0  0  0  0  0  0  0  0  0  0  0
    7.7230   -0.5402   23.3889 C   0  0  0  0  0  0  0  0  0  0  0  0
    7.5652    0.1169   24.2499 H   0  0  0  0  0  0  0  0  0  0  0  0
    8.6142   -1.1430   23.6081 H   0  0  0  0  0  0  0  0  0  0  0  0
    6.5757   -1.4192   23.1740 N   0  0  0  0  0  0  0  0  0  0  0  0
    5.7109   -0.9186   23.3807 H   0  0  0  0  0  0  0  0  0  0  0  0
    6.5684   -1.7768   21.7489 C   0  0  0  0  0  0  0  0  0  0  0  0
    6.9908   -2.7793   21.5893 H   0  0  0  0  0  0  0  0  0  0  0  0
    5.5397   -1.8273   21.3651 H   0  0  0  0  0  0  0  0  0  0  0  0
    7.4115   -0.7182   20.9862 C   0  0  1  0  0  0  0  0  0  0  0  0
    8.2744   -1.2233   20.5358 H   0  0  0  0  0  0  0  0  0  0  0  0
    6.6658    0.0055   19.8852 C   0  0  0  0  0  0  0  0  0  0  0  0
    7.1711    0.0732   18.5761 C   0  0  0  0  0  0  0  0  0  0  0  0
    8.1225   -0.4082   18.3545 H   0  0  0  0  0  0  0  0  0  0  0  0
    6.5598    0.6853   17.5552 N   0  0  0  0  0  0  0  0  0  0  0  0
    5.3985    1.2967   17.8270 C   0  0  0  0  0  0  0  0  0  0  0  0
    4.9130    1.7897   16.9894 H   0  0  0  0  0  0  0  0  0  0  0  0
    4.8072    1.3104   19.0972 C   0  0  0  0  0  0  0  0  0  0  0  0
    3.8759    1.8425   19.2549 H   0  0  0  0  0  0  0  0  0  0  0  0
    5.4490    0.6498   20.1466 C   0  0  0  0  0  0  0  0  0  0  0  0
    5.0127    0.6387   21.1518 H   0  0  0  0  0  0  0  0  0  0  0  0
    9.6310    1.9937   21.6697 N   0  0  0  0  0  0  0  0  0  0  0  0
  1  2  1  0
  2  3  1  0
  3  4  2  0
  4  5  1  0
  4  6  1  0
  6  7  1  0
  7  8  1  1
  7  9  1  0
  9 10  1  0
  9 11  1  0
  9 12  1  0
 12 13  1  0
 12 14  1  0
 14 15  1  0
 14 16  1  0
 14 17  1  0
 17 18  1  6
 17 19  1  0
 19 20  2  0
 20 21  1  0
 20 22  1  0
 22 23  2  0
 23 24  1  0
 23 25  1  0
 25 26  1  0
 25 27  2  0
 27 28  1  0
  6 29  1  0
 29  2  2  0
 17  7  1  0
 27 19  1  0
M  END
>  <cnnaffinity>  (1) 
4.6557

>  <plip>  (1) 
-0.14285714285714285

>  <filename>  (1) 
[H][c]1[n][c]([H])[n]([C@]2([H])[C]([H])([H])[N]([H])[C]([H])([H])[C@@]2([H])[c]2[c]([H])[n][c]([H])[c]([H])[c]2[H])[n]1

>  <combo1>  (1) 
-1.029917309300381

$$$$
