
     RDKit          3D

 41 44  0  0  0  0  0  0  0  0999 V2000
    9.0690    1.6292   21.5746 C   0  0  0  0  0  0  0  0  0  0  0  0
    8.3812    0.3829   21.2818 N   0  0  0  0  0  0  0  0  0  0  0  0
    9.0181   -0.8197   21.3154 C   0  0  0  0  0  0  0  0  0  0  0  0
   10.2150   -1.0080   21.3743 O   0  0  0  0  0  0  0  0  0  0  0  0
    8.0617   -1.8250   21.2593 N   0  0  0  0  0  0  0  0  0  0  0  0
    8.3800   -3.2409   21.3547 C   0  0  0  0  0  0  0  0  0  0  0  0
    8.5719   -3.7512   22.7711 C   0  0  0  0  0  0  0  0  0  0  0  0
    9.7972   -3.4770   23.4568 C   0  0  0  0  0  0  0  0  0  0  0  0
   10.0528   -4.0214   24.6906 C   0  0  0  0  0  0  0  0  0  0  0  0
    9.0663   -4.8267   25.3342 C   0  0  0  0  0  0  0  0  0  0  0  0
    9.2741   -5.4313   26.6104 C   0  0  0  0  0  0  0  0  0  0  0  0
    8.3804   -6.1603   27.2444 N   0  0  0  0  0  0  0  0  0  0  0  0
    7.1881   -6.3792   26.6178 C   0  0  0  0  0  0  0  0  0  0  0  0
    6.8648   -5.8706   25.3837 C   0  0  0  0  0  0  0  0  0  0  0  0
    7.8126   -5.0614   24.6915 C   0  0  0  0  0  0  0  0  0  0  0  0
    7.5988   -4.5073   23.3952 C   0  0  0  0  0  0  0  0  0  0  0  0
    6.6430   -4.6821   22.9069 H   0  0  0  0  0  0  0  0  0  0  0  0
    5.9041   -6.0988   24.9344 H   0  0  0  0  0  0  0  0  0  0  0  0
    6.4949   -7.0277   27.1541 H   0  0  0  0  0  0  0  0  0  0  0  0
   10.2480   -5.3181   27.0885 H   0  0  0  0  0  0  0  0  0  0  0  0
   11.0179   -3.8655   25.1691 H   0  0  0  0  0  0  0  0  0  0  0  0
   10.5264   -2.8292   22.9788 H   0  0  0  0  0  0  0  0  0  0  0  0
    7.5922   -3.8198   20.8591 H   0  0  0  0  0  0  0  0  0  0  0  0
    9.3024   -3.3737   20.7894 H   0  0  0  0  0  0  0  0  0  0  0  0
    6.7938   -1.3164   21.3492 C   0  0  0  0  0  0  0  0  0  0  0  0
    5.8001   -1.9886   21.4794 O   0  0  0  0  0  0  0  0  0  0  0  0
    6.9414    0.2202   21.1911 C   0  0  0  0  0  0  0  0  0  0  0  0
    6.3464    0.7713   19.8987 C   0  0  0  0  0  0  0  0  0  0  0  0
    5.0491    1.2991   19.8919 C   0  0  0  0  0  0  0  0  0  0  0  0
    4.5029    1.7402   18.6834 C   0  0  0  0  0  0  0  0  0  0  0  0
    5.2762    1.6298   17.5244 C   0  0  0  0  0  0  0  0  0  0  0  0
    6.5133    1.1143   17.5045 N   0  0  0  0  0  0  0  0  0  0  0  0
    7.0324    0.7160   18.6708 C   0  0  0  0  0  0  0  0  0  0  0  0
    8.0458    0.3266   18.6208 H   0  0  0  0  0  0  0  0  0  0  0  0
    4.8887    1.9522   16.5620 H   0  0  0  0  0  0  0  0  0  0  0  0
    3.5132    2.1811   18.6285 H   0  0  0  0  0  0  0  0  0  0  0  0
    4.4769    1.3714   20.8195 H   0  0  0  0  0  0  0  0  0  0  0  0
    6.4363    0.7145   22.0360 H   0  0  0  0  0  0  0  0  0  0  0  0
    8.3357    2.4382   21.6368 H   0  0  0  0  0  0  0  0  0  0  0  0
    9.7979    1.8669   20.7949 H   0  0  0  0  0  0  0  0  0  0  0  0
    9.6176    1.5657   22.5212 H   0  0  0  0  0  0  0  0  0  0  0  0
  1  2  1  0
  2  3  1  0
  3  4  2  0
  3  5  1  0
  5  6  1  0
  6  7  1  0
  7  8  2  0
  8  9  1  0
  9 10  2  0
 10 11  1  0
 11 12  2  0
 12 13  1  0
 13 14  2  0
 14 15  1  0
 15 16  2  0
 16 17  1  0
 14 18  1  0
 13 19  1  0
 11 20  1  0
  9 21  1  0
  8 22  1  0
  6 23  1  0
  6 24  1  0
  5 25  1  0
 25 26  2  0
 25 27  1  0
 27 28  1  0
 28 29  2  0
 29 30  1  0
 30 31  2  0
 31 32  1  0
 32 33  2  0
 33 34  1  0
 31 35  1  0
 30 36  1  0
 29 37  1  0
 27 38  1  0
  1 39  1  0
  1 40  1  0
  1 41  1  0
 27  2  1  0
 33 28  1  0
 16  7  1  0
 15 10  1  0
M  END
>  <cnnaffinity>  (1) 
5.47679

>  <plip>  (1) 
-0.14285714285714285

>  <filename>  (1) 
[H][c]1[n][c]([H])[c]([C]2([H])[C](=[O])[N]([C]([H])([H])[c]3[c]([H])[c]([H])[c]4[c]([H])[n][c]([H])[c]([H])[c]4[c]3[H])[C](=[O])[N]2[C]([H])([H])[H])[c]([H])[c]1[H]

>  <combo1>  (1) 
-0.7846827830099132

$$$$
