
     RDKit          3D

 33 35  0  0  0  0  0  0  0  0999 V2000
    8.3370    1.2788   22.2777 C   0  0  0  0  0  0  0  0  0  0  0  0
    7.6039    0.0332   22.1746 N   0  0  0  0  0  0  0  0  0  0  0  0
    6.9774   -0.5155   23.2537 C   0  0  0  0  0  0  0  0  0  0  0  0
    6.9045   -0.0367   24.3658 O   0  0  0  0  0  0  0  0  0  0  0  0
    6.4309   -1.7337   22.8593 N   0  0  0  0  0  0  0  0  0  0  0  0
    5.9363   -2.7705   23.7743 C   0  0  0  0  0  0  0  0  0  0  0  0
    7.0036   -3.7466   24.1673 C   0  0  0  0  0  0  0  0  0  0  0  0
    7.5531   -4.8283   23.5620 C   0  0  0  0  0  0  0  0  0  0  0  0
    8.6853   -5.2128   24.3575 C   0  0  0  0  0  0  0  0  0  0  0  0
    8.7051   -4.3335   25.3837 C   0  0  0  0  0  0  0  0  0  0  0  0
    9.7494   -4.1257   26.7078 Cl  0  0  0  0  0  0  0  0  0  0  0  0
    7.6988   -3.4449   25.2968 O   0  0  0  0  0  0  0  0  0  0  0  0
    9.3872   -6.0146   24.1931 H   0  0  0  0  0  0  0  0  0  0  0  0
    7.2086   -5.2588   22.6330 H   0  0  0  0  0  0  0  0  0  0  0  0
    5.1196   -3.2962   23.2711 H   0  0  0  0  0  0  0  0  0  0  0  0
    5.5453   -2.2899   24.6724 H   0  0  0  0  0  0  0  0  0  0  0  0
    6.6274   -1.9512   21.5183 C   0  0  0  0  0  0  0  0  0  0  0  0
    6.3036   -2.9532   20.9260 O   0  0  0  0  0  0  0  0  0  0  0  0
    7.3839   -0.7315   20.9623 C   0  0  0  0  0  0  0  0  0  0  0  0
    6.6443    0.0383   19.8654 C   0  0  0  0  0  0  0  0  0  0  0  0
    5.4210    0.6792   20.1018 C   0  0  0  0  0  0  0  0  0  0  0  0
    4.8006    1.3346   19.0371 C   0  0  0  0  0  0  0  0  0  0  0  0
    5.4189    1.3326   17.7834 C   0  0  0  0  0  0  0  0  0  0  0  0
    6.5874    0.7247   17.5379 N   0  0  0  0  0  0  0  0  0  0  0  0
    7.1771    0.1028   18.5663 C   0  0  0  0  0  0  0  0  0  0  0  0
    8.1274   -0.3828   18.3393 H   0  0  0  0  0  0  0  0  0  0  0  0
    4.9509    1.8318   16.9377 H   0  0  0  0  0  0  0  0  0  0  0  0
    3.8595    1.8512   19.1667 H   0  0  0  0  0  0  0  0  0  0  0  0
    4.9759    0.6932   21.0990 H   0  0  0  0  0  0  0  0  0  0  0  0
    8.3402   -1.1035   20.5571 H   0  0  0  0  0  0  0  0  0  0  0  0
    9.1496    1.1862   23.0071 H   0  0  0  0  0  0  0  0  0  0  0  0
    8.7657    1.5350   21.3045 H   0  0  0  0  0  0  0  0  0  0  0  0
    7.6727    2.0849   22.6085 H   0  0  0  0  0  0  0  0  0  0  0  0
  1  2  1  0
  2  3  1  0
  3  4  2  0
  3  5  1  0
  5  6  1  0
  6  7  1  0
  7  8  2  0
  8  9  1  0
  9 10  2  0
 10 11  1  0
 10 12  1  0
  9 13  1  0
  8 14  1  0
  6 15  1  0
  6 16  1  0
  5 17  1  0
 17 18  2  0
 17 19  1  0
 19 20  1  0
 20 21  2  0
 21 22  1  0
 22 23  2  0
 23 24  1  0
 24 25  2  0
 25 26  1  0
 23 27  1  0
 22 28  1  0
 21 29  1  0
 19 30  1  0
  1 31  1  0
  1 32  1  0
  1 33  1  0
 19  2  1  0
 25 20  1  0
 12  7  1  0
M  END
>  <cnnaffinity>  (1) 
4.89843

>  <plip>  (1) 
-0.10714285714285714

>  <filename>  (1) 
[H][c]1[n][c]([H])[c]([C]2([H])[C](=[O])[N]([C]([H])([H])[c]3[o][c]([Cl])[c]([H])[c]3[H])[C](=[O])[N]2[C]([H])([H])[H])[c]([H])[c]1[H]

>  <combo1>  (1) 
-0.572233927572619

$$$$
