
     RDKit          3D

 35 37  0  0  0  0  0  0  0  0999 V2000
    5.8851   -2.4383   22.0148 C   0  0  0  0  0  0  0  0  0  0  0  0
    5.5949   -3.2296   22.9814 N   0  0  0  0  0  0  0  0  0  0  0  0
    4.2770   -3.6464   22.9353 O   0  0  0  0  0  0  0  0  0  0  0  0
    3.8884   -4.2577   24.1848 C   0  0  0  0  0  0  0  0  0  0  0  0
    2.3615   -4.3577   24.2260 C   0  0  0  0  0  0  0  0  0  0  0  0
    2.0189   -5.5745   25.1120 C   0  0  0  0  0  0  0  0  0  0  0  0
    3.3061   -6.4417   25.1705 C   0  0  0  0  0  0  0  0  0  0  0  0
    4.3900   -5.7033   24.3469 C   0  0  0  0  0  0  0  0  0  0  0  0
    5.3788   -5.7365   24.8201 H   0  0  0  0  0  0  0  0  0  0  0  0
    4.5021   -6.1471   23.3515 H   0  0  0  0  0  0  0  0  0  0  0  0
    3.1254   -7.4423   24.7651 H   0  0  0  0  0  0  0  0  0  0  0  0
    3.6241   -6.5827   26.2098 H   0  0  0  0  0  0  0  0  0  0  0  0
    1.1748   -6.1305   24.6895 H   0  0  0  0  0  0  0  0  0  0  0  0
    1.7104   -5.2675   26.1186 H   0  0  0  0  0  0  0  0  0  0  0  0
    1.9125   -3.4208   24.5790 H   0  0  0  0  0  0  0  0  0  0  0  0
    1.9976   -4.5203   23.2054 H   0  0  0  0  0  0  0  0  0  0  0  0
    4.2595   -3.6392   25.0149 H   0  0  0  0  0  0  0  0  0  0  0  0
    7.1944   -1.8202   21.9082 C   0  0  0  0  0  0  0  0  0  0  0  0
    8.3550   -2.0432   22.6272 C   0  0  0  0  0  0  0  0  0  0  0  0
    9.3000   -1.2744   22.0464 N   0  0  0  0  0  0  0  0  0  0  0  0
    8.8391   -0.5601   21.0104 N   0  0  0  0  0  0  0  0  0  0  0  0
    7.5484   -0.8538   20.9308 C   0  0  0  0  0  0  0  0  0  0  0  0
    6.7049   -0.1926   19.9383 C   0  0  0  0  0  0  0  0  0  0  0  0
    5.4753    0.4235   20.2106 C   0  0  0  0  0  0  0  0  0  0  0  0
    4.8721    1.1561   19.1885 C   0  0  0  0  0  0  0  0  0  0  0  0
    5.4908    1.1992   17.9335 C   0  0  0  0  0  0  0  0  0  0  0  0
    6.6383    0.5682   17.6479 N   0  0  0  0  0  0  0  0  0  0  0  0
    7.2325   -0.0921   18.6419 C   0  0  0  0  0  0  0  0  0  0  0  0
    8.1923   -0.5567   18.4244 H   0  0  0  0  0  0  0  0  0  0  0  0
    5.0450    1.7510   17.1103 H   0  0  0  0  0  0  0  0  0  0  0  0
    3.9577    1.7100   19.3513 H   0  0  0  0  0  0  0  0  0  0  0  0
    5.0373    0.3727   21.2111 H   0  0  0  0  0  0  0  0  0  0  0  0
   10.2359   -1.0836   22.3646 H   0  0  0  0  0  0  0  0  0  0  0  0
    8.5774   -2.7058   23.4509 H   0  0  0  0  0  0  0  0  0  0  0  0
    5.1616   -2.2014   21.2313 H   0  0  0  0  0  0  0  0  0  0  0  0
  1  2  2  3
  2  3  1  0
  3  4  1  0
  4  5  1  0
  5  6  1  0
  6  7  1  0
  7  8  1  0
  8  9  1  0
  8 10  1  0
  7 11  1  0
  7 12  1  0
  6 13  1  0
  6 14  1  0
  5 15  1  0
  5 16  1  0
  4 17  1  0
  1 18  1  0
 18 19  2  0
 19 20  1  0
 20 21  1  0
 21 22  2  0
 22 23  1  0
 23 24  2  0
 24 25  1  0
 25 26  2  0
 26 27  1  0
 27 28  2  0
 28 29  1  0
 26 30  1  0
 25 31  1  0
 24 32  1  0
 20 33  1  0
 19 34  1  0
  1 35  1  0
  8  4  1  0
 22 18  1  0
 28 23  1  0
M  END
>  <cnnaffinity>  (1) 
5.10587

>  <plip>  (1) 
-0.06896551724137931

>  <filename>  (1) 
[H][C](=[N][O][C]1([H])[C]([H])([H])[C]([H])([H])[C]([H])([H])[C]1([H])[H])[c]1[c](-[c]2[c]([H])[n][c]([H])[c]([H])[c]2[H])[n][n]([H])[c]1[H]

>  <combo1>  (1) 
-0.4579484990346827

$$$$
