
     RDKit          3D

 42 44  0  0  0  0  0  0  0  0999 V2000
    2.8962   -6.6822   28.3436 C   0  0  0  0  0  0  0  0  0  0  0  0
    4.2558   -6.1407   27.9020 C   0  0  0  0  0  0  0  0  0  0  0  0
    4.1623   -5.0254   26.8539 C   0  0  0  0  0  0  0  0  0  0  0  0
    3.5557   -5.4524   25.5117 C   0  0  0  0  0  0  0  0  0  0  0  0
    4.5368   -6.6493   24.5488 S   0  0  0  0  0  0  0  0  0  0  0  0
    5.6508   -5.5030   23.7136 C   0  0  0  0  0  0  0  0  0  0  0  0
    5.0748   -4.9132   22.4103 C   0  0  0  0  0  0  0  0  0  0  0  0
    5.9760   -3.8674   21.8371 C   0  0  0  0  0  0  0  0  0  0  0  0
    5.7462   -2.6241   21.5577 N   0  0  0  0  0  0  0  0  0  0  0  0
    7.0243   -2.1590   21.2816 C   0  0  0  0  0  0  0  0  0  0  0  0
    7.3663   -0.7052   21.0556 C   0  0  0  0  0  0  0  0  0  0  0  0
    6.6318   -0.0055   19.9347 C   0  0  0  0  0  0  0  0  0  0  0  0
    5.4042    0.6370   20.1387 C   0  0  0  0  0  0  0  0  0  0  0  0
    4.7952    1.3007   19.0692 C   0  0  0  0  0  0  0  0  0  0  0  0
    5.4340    1.2954   17.8265 C   0  0  0  0  0  0  0  0  0  0  0  0
    6.5983    0.6679   17.5990 N   0  0  0  0  0  0  0  0  0  0  0  0
    7.1659    0.0379   18.6351 C   0  0  0  0  0  0  0  0  0  0  0  0
    8.1112   -0.4665   18.4349 H   0  0  0  0  0  0  0  0  0  0  0  0
    4.9869    1.7976   16.9694 H   0  0  0  0  0  0  0  0  0  0  0  0
    3.8497    1.8231   19.1850 H   0  0  0  0  0  0  0  0  0  0  0  0
    4.9565    0.6173   21.1326 H   0  0  0  0  0  0  0  0  0  0  0  0
    7.7479    0.1312   22.2861 C   0  0  0  0  0  0  0  0  0  0  0  0
    8.7987   -0.2809   21.3173 C   0  0  0  0  0  0  0  0  0  0  0  0
    9.2199    0.4831   20.6697 H   0  0  0  0  0  0  0  0  0  0  0  0
    9.4878   -1.0656   21.6155 H   0  0  0  0  0  0  0  0  0  0  0  0
    7.7217   -0.3507   23.2593 H   0  0  0  0  0  0  0  0  0  0  0  0
    7.4512    1.1794   22.2889 H   0  0  0  0  0  0  0  0  0  0  0  0
    7.9415   -3.0882   21.3102 N   0  0  0  0  0  0  0  0  0  0  0  0
    7.2497   -4.2272   21.6609 O   0  0  0  0  0  0  0  0  0  0  0  0
    4.9650   -5.7165   21.6761 H   0  0  0  0  0  0  0  0  0  0  0  0
    4.0883   -4.4640   22.5658 H   0  0  0  0  0  0  0  0  0  0  0  0
    5.9035   -4.7166   24.4354 H   0  0  0  0  0  0  0  0  0  0  0  0
    6.5853   -6.0424   23.5223 H   0  0  0  0  0  0  0  0  0  0  0  0
    2.5702   -5.9088   25.6559 H   0  0  0  0  0  0  0  0  0  0  0  0
    3.4003   -4.5760   24.8730 H   0  0  0  0  0  0  0  0  0  0  0  0
    5.1579   -4.5939   26.6834 H   0  0  0  0  0  0  0  0  0  0  0  0
    3.5452   -4.2070   27.2518 H   0  0  0  0  0  0  0  0  0  0  0  0
    4.7939   -5.7617   28.7790 H   0  0  0  0  0  0  0  0  0  0  0  0
    4.8676   -6.9617   27.5060 H   0  0  0  0  0  0  0  0  0  0  0  0
    2.2574   -5.8846   28.7412 H   0  0  0  0  0  0  0  0  0  0  0  0
    3.0079   -7.4430   29.1215 H   0  0  0  0  0  0  0  0  0  0  0  0
    2.3552   -7.1501   27.5146 H   0  0  0  0  0  0  0  0  0  0  0  0
  1  2  1  0
  2  3  1  0
  3  4  1  0
  4  5  1  0
  5  6  1  0
  6  7  1  0
  7  8  1  0
  8  9  2  0
  9 10  1  0
 10 11  1  0
 11 12  1  0
 12 13  2  0
 13 14  1  0
 14 15  2  0
 15 16  1  0
 16 17  2  0
 17 18  1  0
 15 19  1  0
 14 20  1  0
 13 21  1  0
 11 22  1  0
 22 23  1  0
 23 24  1  0
 23 25  1  0
 22 26  1  0
 22 27  1  0
 10 28  2  0
 28 29  1  0
  7 30  1  0
  7 31  1  0
  6 32  1  0
  6 33  1  0
  4 34  1  0
  4 35  1  0
  3 36  1  0
  3 37  1  0
  2 38  1  0
  2 39  1  0
  1 40  1  0
  1 41  1  0
  1 42  1  0
 29  8  1  0
 23 11  1  0
 17 12  1  0
M  END
>  <cnnaffinity>  (1) 
5.33864

>  <plip>  (1) 
-0.034482758620689655

>  <filename>  (1) 
[H][c]1[n][c]([H])[c]([C]2([c]3[n][o][c]([C]([H])([H])[C]([H])([H])[S][C]([H])([H])[C]([H])([H])[C]([H])([H])[C]([H])([H])[H])[n]3)[C]([H])([H])[C]2([H])[H])[c]([H])[c]1[H]

>  <combo1>  (1) 
-0.20223272559797648

$$$$
