
     RDKit          3D

 32 33  0  0  0  0  0  0  0  0999 V2000
    7.0190    3.2856   23.9397 H   0  0  0  0  0  0  0  0  0  0  0  0
    6.7439    2.2327   24.0187 C   0  0  0  0  0  0  0  0  0  0  0  0
    5.8429    1.9253   24.9422 N   0  0  0  0  0  0  0  0  0  0  0  0
    5.5278    0.6383   24.9657 C   0  0  0  0  0  0  0  0  0  0  0  0
    4.5578    0.2824   25.8325 N   0  0  0  0  0  0  0  0  0  0  0  0
    4.6252    0.9157   26.6097 H   0  0  0  0  0  0  0  0  0  0  0  0
    4.7342   -0.6945   25.9888 H   0  0  0  0  0  0  0  0  0  0  0  0
    6.0543   -0.3585   24.2815 N   0  0  0  0  0  0  0  0  0  0  0  0
    6.8628   -0.0141   23.2597 C   0  0  0  0  0  0  0  0  0  0  0  0
    7.3224   -1.1639   22.2639 C   0  0  0  0  0  0  0  0  0  0  0  0
    7.8491   -0.6913   20.9447 N   0  0  0  0  0  0  0  0  0  0  0  0
    8.4231   -1.4311   20.5489 H   0  0  0  0  0  0  0  0  0  0  0  0
    7.0655   -0.0377   19.9670 C   0  0  0  0  0  0  0  0  0  0  0  0
    7.4597    0.0339   18.5972 C   0  0  0  0  0  0  0  0  0  0  0  0
    8.4071   -0.4065   18.2803 H   0  0  0  0  0  0  0  0  0  0  0  0
    6.7517    0.6205   17.6199 N   0  0  0  0  0  0  0  0  0  0  0  0
    5.5978    1.2182   17.9693 C   0  0  0  0  0  0  0  0  0  0  0  0
    5.0226    1.6697   17.1660 H   0  0  0  0  0  0  0  0  0  0  0  0
    5.1358    1.2620   19.2868 C   0  0  0  0  0  0  0  0  0  0  0  0
    4.2078    1.7770   19.5179 H   0  0  0  0  0  0  0  0  0  0  0  0
    5.8740    0.6335   20.2945 C   0  0  0  0  0  0  0  0  0  0  0  0
    5.5362    0.6602   21.3279 H   0  0  0  0  0  0  0  0  0  0  0  0
    8.5185   -1.8912   22.9059 C   0  0  0  0  0  0  0  0  0  0  0  0
    8.8177   -2.7316   22.2640 H   0  0  0  0  0  0  0  0  0  0  0  0
    9.3758   -1.2141   23.0040 H   0  0  0  0  0  0  0  0  0  0  0  0
    8.2645   -2.2872   23.8987 H   0  0  0  0  0  0  0  0  0  0  0  0
    6.1912   -2.1923   22.0040 C   0  0  0  0  0  0  0  0  0  0  0  0
    5.8149   -2.5886   22.9532 H   0  0  0  0  0  0  0  0  0  0  0  0
    6.5794   -3.0173   21.3943 H   0  0  0  0  0  0  0  0  0  0  0  0
    5.3570   -1.7429   21.4536 H   0  0  0  0  0  0  0  0  0  0  0  0
    7.3277    1.3012   23.1693 C   0  0  0  0  0  0  0  0  0  0  0  0
    8.0806    1.5781   22.4493 H   0  0  0  0  0  0  0  0  0  0  0  0
  1  2  1  0
  2  3  2  0
  3  4  1  0
  4  5  1  0
  5  6  1  0
  5  7  1  0
  4  8  2  0
  8  9  1  0
  9 10  1  0
 10 11  1  0
 11 12  1  0
 11 13  1  0
 13 14  2  0
 14 15  1  0
 14 16  1  0
 16 17  2  0
 17 18  1  0
 17 19  1  0
 19 20  1  0
 19 21  2  0
 21 22  1  0
 10 23  1  0
 23 24  1  0
 23 25  1  0
 23 26  1  0
 10 27  1  0
 27 28  1  0
 27 29  1  0
 27 30  1  0
  9 31  2  0
 31 32  1  0
 31  2  1  0
 21 13  1  0
M  END
>  <cnnaffinity>  (1) 
4.55373

>  <plip>  (1) 
-0.06666666666666667

>  <filename>  (1) 
[H][c]1[n][c]([N]([H])[H])[n][c]([C]([N]([H])[c]2[c]([H])[n][c]([H])[c]([H])[c]2[H])([C]([H])([H])[H])[C]([H])([H])[H])[c]1[H]

>  <combo1>  (1) 
-0.44134207347123894

$$$$
