
     RDKit          3D

 52 56  0  0  0  0  0  0  0  0999 V2000
    4.9661    1.8601   16.9142 H   0  0  0  0  0  0  0  0  0  0  0  0
    5.4122    1.3241   17.7479 C   0  0  0  0  0  0  0  0  0  0  0  0
    6.5483    0.6599   17.4852 N   0  0  0  0  0  0  0  0  0  0  0  0
    7.1260    0.0089   18.4997 C   0  0  0  0  0  0  0  0  0  0  0  0
    8.0408   -0.5294   18.2619 H   0  0  0  0  0  0  0  0  0  0  0  0
    6.6244   -0.0009   19.8163 C   0  0  0  0  0  0  0  0  0  0  0  0
    7.3795   -0.6474   20.9058 C   0  0  0  0  0  0  0  0  0  0  0  0
    8.2174   -1.6701   20.7269 N   0  0  0  0  0  0  0  0  0  0  0  0
    8.7022   -1.8832   21.9520 N   0  0  0  0  0  0  0  0  0  0  0  0
    8.2637   -1.0674   22.9122 C   0  0  0  0  0  0  0  0  0  0  0  0
    7.3589   -0.2341   22.2873 C   0  0  0  0  0  0  0  0  0  0  0  0
    6.7283    0.9050   22.7947 N   0  0  0  0  0  0  0  0  0  0  0  0
    6.3010    0.8781   24.1923 C   0  0  0  0  0  0  0  0  0  0  0  0
    5.8535   -0.0911   24.4308 H   0  0  0  0  0  0  0  0  0  0  0  0
    7.1480    1.0353   24.8882 H   0  0  0  0  0  0  0  0  0  0  0  0
    5.2666    1.9809   24.3729 C   0  0  0  0  0  0  0  0  0  0  0  0
    4.4011    1.7517   23.7371 H   0  0  0  0  0  0  0  0  0  0  0  0
    4.9131    2.0401   25.4067 H   0  0  0  0  0  0  0  0  0  0  0  0
    5.8526    3.3346   23.9616 C   0  0  0  0  0  0  0  0  0  0  0  0
    6.6756    3.5576   24.6661 H   0  0  0  0  0  0  0  0  0  0  0  0
    4.8455    4.3721   24.1328 N   0  0  0  0  0  0  0  0  0  0  0  0
    5.3458    5.7498   24.0675 C   0  0  0  0  0  0  0  0  0  0  0  0
    6.4424    5.7979   24.1393 H   0  0  0  0  0  0  0  0  0  0  0  0
    4.9516    6.3202   24.9210 H   0  0  0  0  0  0  0  0  0  0  0  0
    4.8162    6.3234   22.7536 C   0  0  0  0  0  0  0  0  0  0  0  0
    5.4754    6.0201   21.9298 H   0  0  0  0  0  0  0  0  0  0  0  0
    4.7553    7.4157   22.7706 H   0  0  0  0  0  0  0  0  0  0  0  0
    3.4481    5.6465   22.6206 C   0  0  0  0  0  0  0  0  0  0  0  0
    2.6802    6.2072   23.1659 H   0  0  0  0  0  0  0  0  0  0  0  0
    3.1299    5.5564   21.5757 H   0  0  0  0  0  0  0  0  0  0  0  0
    3.6490    4.2666   23.2697 C   0  0  0  0  0  0  0  0  0  0  0  0
    2.7738    3.9657   23.8621 H   0  0  0  0  0  0  0  0  0  0  0  0
    3.7718    3.4983   22.4903 H   0  0  0  0  0  0  0  0  0  0  0  0
    6.4691    3.2931   22.5465 C   0  0  0  0  0  0  0  0  0  0  0  0
    6.9762    4.2333   22.3046 H   0  0  0  0  0  0  0  0  0  0  0  0
    5.6819    3.1307   21.7943 H   0  0  0  0  0  0  0  0  0  0  0  0
    7.4387    2.1376   22.4330 C   0  0  0  0  0  0  0  0  0  0  0  0
    7.7978    2.0458   21.4027 H   0  0  0  0  0  0  0  0  0  0  0  0
    8.3290    2.2714   23.0797 H   0  0  0  0  0  0  0  0  0  0  0  0
    8.9830   -1.3097   24.2060 C   0  0  0  0  0  0  0  0  0  0  0  0
    9.4758   -0.4001   24.5695 H   0  0  0  0  0  0  0  0  0  0  0  0
    8.2978   -1.6552   24.9914 H   0  0  0  0  0  0  0  0  0  0  0  0
   10.0383   -2.3744   23.8011 C   0  0  0  0  0  0  0  0  0  0  0  0
   11.0117   -1.9039   23.7119 H   0  0  0  0  0  0  0  0  0  0  0  0
   10.1155   -3.1723   24.5406 H   0  0  0  0  0  0  0  0  0  0  0  0
    9.6553   -2.8749   22.3824 C   0  0  0  0  0  0  0  0  0  0  0  0
   10.5100   -2.8554   21.7084 H   0  0  0  0  0  0  0  0  0  0  0  0
    9.2006   -3.8697   22.3752 H   0  0  0  0  0  0  0  0  0  0  0  0
    5.4158    0.6790   20.0628 C   0  0  0  0  0  0  0  0  0  0  0  0
    4.9649    0.6797   21.0565 H   0  0  0  0  0  0  0  0  0  0  0  0
    4.7985    1.3425   19.0057 C   0  0  0  0  0  0  0  0  0  0  0  0
    3.8629    1.8775   19.1390 H   0  0  0  0  0  0  0  0  0  0  0  0
  1  2  1  0
  2  3  2  0
  3  4  1  0
  4  5  1  0
  4  6  2  0
  6  7  1  0
  7  8  2  0
  8  9  1  0
  9 10  1  0
 10 11  2  0
 11 12  1  0
 12 13  1  0
 13 14  1  0
 13 15  1  0
 13 16  1  0
 16 17  1  0
 16 18  1  0
 16 19  1  0
 19 20  1  0
 19 21  1  0
 21 22  1  0
 22 23  1  0
 22 24  1  0
 22 25  1  0
 25 26  1  0
 25 27  1  0
 25 28  1  0
 28 29  1  0
 28 30  1  0
 28 31  1  0
 31 32  1  0
 31 33  1  0
 19 34  1  0
 34 35  1  0
 34 36  1  0
 34 37  1  0
 37 38  1  0
 37 39  1  0
 10 40  1  0
 40 41  1  0
 40 42  1  0
 40 43  1  0
 43 44  1  0
 43 45  1  0
 43 46  1  0
 46 47  1  0
 46 48  1  0
  6 49  1  0
 49 50  1  0
 49 51  2  0
 51 52  1  0
 51  2  1  0
 11  7  1  0
 37 12  1  0
 46  9  1  0
 31 21  1  0
M  END
>  <cnnaffinity>  (1) 
5.84427

>  <plip>  (1) 
-0.06896551724137931

>  <filename>  (1) 
[H][c]1[n][c]([H])[c](-[c]2[n][n]3[c]([c]2[N]2[C]([H])([H])[C]([H])([H])[C]([H])([N]4[C]([H])([H])[C]([H])([H])[C]([H])([H])[C]4([H])[H])[C]([H])([H])[C]2([H])[H])[C]([H])([H])[C]([H])([H])[C]3([H])[H])[c]([H])[c]1[H]

>  <combo1>  (1) 
-0.39811134729431147

$$$$
