
     RDKit          3D

 29 30  0  0  0  0  0  0  0  0999 V2000
    6.5685   -1.2012   24.2788 H   0  0  0  0  0  0  0  0  0  0  0  0
    7.0914   -1.1293   23.3239 C   0  0  0  0  0  0  0  0  0  0  0  0
    6.4862   -0.5156   22.3227 N   0  0  0  0  0  0  0  0  0  0  0  0
    7.1701   -0.5093   21.1819 C   0  0  0  0  0  0  0  0  0  0  0  0
    6.5201    0.1034   20.0222 C   0  0  0  0  0  0  0  0  0  0  0  0
    7.1477    0.0205   18.7770 C   0  0  0  0  0  0  0  0  0  0  0  0
    8.0791   -0.5311   18.6659 H   0  0  0  0  0  0  0  0  0  0  0  0
    6.6580    0.5875   17.6689 N   0  0  0  0  0  0  0  0  0  0  0  0
    5.5032    1.2590   17.7760 C   0  0  0  0  0  0  0  0  0  0  0  0
    5.1393    1.7305   16.8657 H   0  0  0  0  0  0  0  0  0  0  0  0
    4.7757    1.3620   18.9694 C   0  0  0  0  0  0  0  0  0  0  0  0
    3.8391    1.9098   18.9868 H   0  0  0  0  0  0  0  0  0  0  0  0
    5.2845    0.7694   20.1168 C   0  0  0  0  0  0  0  0  0  0  0  0
    4.7498    0.8139   21.0712 H   0  0  0  0  0  0  0  0  0  0  0  0
    8.3828   -1.0326   21.0149 N   0  0  0  0  0  0  0  0  0  0  0  0
    8.9041   -1.6173   22.0955 C   0  0  0  0  0  0  0  0  0  0  0  0
   10.2185   -2.4056   21.8913 C   0  0  0  0  0  0  0  0  0  0  0  0
   10.1890   -2.6336   20.8166 H   0  0  0  0  0  0  0  0  0  0  0  0
   10.0696   -3.3337   22.4520 H   0  0  0  0  0  0  0  0  0  0  0  0
   11.5510   -1.8956   22.3165 N   0  0  0  0  0  0  0  0  0  0  0  0
   12.2101   -2.6603   22.1514 H   0  0  0  0  0  0  0  0  0  0  0  0
   12.0131   -0.7090   21.5952 C   0  0  0  0  0  0  0  0  0  0  0  0
   11.1390   -0.0826   21.3777 H   0  0  0  0  0  0  0  0  0  0  0  0
   12.4420   -0.9851   20.6202 H   0  0  0  0  0  0  0  0  0  0  0  0
   13.0052    0.0910   22.4410 C   0  0  0  0  0  0  0  0  0  0  0  0
   13.0374    1.1408   22.1230 H   0  0  0  0  0  0  0  0  0  0  0  0
   12.6647    0.0742   23.4802 H   0  0  0  0  0  0  0  0  0  0  0  0
   14.0248   -0.3147   22.4047 H   0  0  0  0  0  0  0  0  0  0  0  0
    8.2825   -1.7085   23.2741 N   0  0  0  0  0  0  0  0  0  0  0  0
  1  2  1  0
  2  3  2  0
  3  4  1  0
  4  5  1  0
  5  6  2  0
  6  7  1  0
  6  8  1  0
  8  9  2  0
  9 10  1  0
  9 11  1  0
 11 12  1  0
 11 13  2  0
 13 14  1  0
  4 15  2  0
 15 16  1  0
 16 17  1  0
 17 18  1  0
 17 19  1  0
 17 20  1  0
 20 21  1  0
 20 22  1  0
 22 23  1  0
 22 24  1  0
 22 25  1  0
 25 26  1  0
 25 27  1  0
 25 28  1  0
 16 29  2  0
 29  2  1  0
 13  5  1  0
M  END
>  <cnnaffinity>  (1) 
4.63121

>  <plip>  (1) 
-0.034482758620689655

>  <filename>  (1) 
[H][c]1[n][c](-[c]2[c]([H])[n][c]([H])[c]([H])[c]2[H])[n][c]([C]([H])([H])[N]([H])[C]([H])([H])[C]([H])([H])[H])[n]1

>  <combo1>  (1) 
-0.2472930356339994

$$$$
