
     RDKit          3D

 43 45  0  0  0  0  0  0  0  0999 V2000
   12.1424    6.0319   24.0139 C   0  0  0  0  0  0  0  0  0  0  0  0
   12.0736    5.1092   22.8141 C   0  0  0  0  0  0  0  0  0  0  0  0
   13.3657    4.7403   22.5273 F   0  0  0  0  0  0  0  0  0  0  0  0
   11.6455    5.8333   21.7393 F   0  0  0  0  0  0  0  0  0  0  0  0
   11.2062    3.8752   22.9135 C   0  0  0  0  0  0  0  0  0  0  0  0
    9.8131    3.9198   22.7215 C   0  0  0  0  0  0  0  0  0  0  0  0
    9.0943    2.7343   22.8496 C   0  0  0  0  0  0  0  0  0  0  0  0
    9.7680    1.5545   23.1950 C   0  0  0  0  0  0  0  0  0  0  0  0
    9.0334    0.2512   23.4422 C   0  0  0  0  0  0  0  0  0  0  0  0
    9.4351   -0.9157   22.4607 N   0  0  0  0  0  4  0  0  0  0  0  0
    8.9132   -2.2655   22.9118 C   0  0  0  0  0  0  0  0  0  0  0  0
    7.3802   -2.2513   22.9926 C   0  0  0  0  0  0  0  0  0  0  0  0
    6.7264   -1.5655   21.8112 C   0  0  0  0  0  0  0  0  0  0  0  0
    7.3805   -0.7818   20.9430 C   0  0  0  0  0  0  0  0  0  0  0  0
    6.6746   -0.0301   19.8637 C   0  0  0  0  0  0  0  0  0  0  0  0
    5.4536    0.6303   20.1079 C   0  0  0  0  0  0  0  0  0  0  0  0
    4.8305    1.3217   19.0661 C   0  0  0  0  0  0  0  0  0  0  0  0
    5.4307    1.3203   17.8041 C   0  0  0  0  0  0  0  0  0  0  0  0
    6.5838    0.6889   17.5403 N   0  0  0  0  0  0  0  0  0  0  0  0
    7.1816    0.0469   18.5519 C   0  0  0  0  0  0  0  0  0  0  0  0
    8.1169   -0.4534   18.2999 H   0  0  0  0  0  0  0  0  0  0  0  0
    4.9690    1.8450   16.9676 H   0  0  0  0  0  0  0  0  0  0  0  0
    3.8987    1.8560   19.2168 H   0  0  0  0  0  0  0  0  0  0  0  0
    5.0203    0.6167   21.1084 H   0  0  0  0  0  0  0  0  0  0  0  0
    8.8969   -0.6339   21.0306 C   0  0  0  0  0  0  0  0  0  0  0  0
    9.3817   -1.3216   20.3280 H   0  0  0  0  0  0  0  0  0  0  0  0
    9.1781    0.3824   20.7552 H   0  0  0  0  0  0  0  0  0  0  0  0
    5.6495   -1.6974   21.7017 H   0  0  0  0  0  0  0  0  0  0  0  0
    7.0061   -3.2740   23.1004 H   0  0  0  0  0  0  0  0  0  0  0  0
    7.0715   -1.7303   23.9092 H   0  0  0  0  0  0  0  0  0  0  0  0
    9.3381   -2.5213   23.8875 H   0  0  0  0  0  0  0  0  0  0  0  0
    9.2416   -3.0226   22.1949 H   0  0  0  0  0  0  0  0  0  0  0  0
   10.4818   -0.8991   22.4433 H   0  0  0  0  0  0  0  0  0  0  0  0
    7.9596    0.4016   23.3464 H   0  0  0  0  0  0  0  0  0  0  0  0
    9.2587   -0.0779   24.4612 H   0  0  0  0  0  0  0  0  0  0  0  0
   11.1015    1.5055   23.3363 N   0  0  0  0  0  0  0  0  0  0  0  0
   11.7996    2.6367   23.1832 C   0  0  0  0  0  0  0  0  0  0  0  0
   12.8790    2.5405   23.2838 H   0  0  0  0  0  0  0  0  0  0  0  0
    8.0282    2.7257   22.6514 H   0  0  0  0  0  0  0  0  0  0  0  0
    9.2863    4.8323   22.4184 H   0  0  0  0  0  0  0  0  0  0  0  0
   12.3785    5.4596   24.9109 H   0  0  0  0  0  0  0  0  0  0  0  0
   12.9265    6.7728   23.8310 H   0  0  0  0  0  0  0  0  0  0  0  0
   11.1994    6.5575   24.1545 H   0  0  0  0  0  0  0  0  0  0  0  0
  1  2  1  0
  2  3  1  0
  2  4  1  0
  2  5  1  0
  5  6  2  0
  6  7  1  0
  7  8  2  0
  8  9  1  0
  9 10  1  0
 10 11  1  0
 11 12  1  0
 12 13  1  0
 13 14  2  0
 14 15  1  0
 15 16  2  0
 16 17  1  0
 17 18  2  0
 18 19  1  0
 19 20  2  0
 20 21  1  0
 18 22  1  0
 17 23  1  0
 16 24  1  0
 14 25  1  0
 25 26  1  0
 25 27  1  0
 13 28  1  0
 12 29  1  0
 12 30  1  0
 11 31  1  0
 11 32  1  0
 10 33  1  0
  9 34  1  0
  9 35  1  0
  8 36  1  0
 36 37  2  0
 37 38  1  0
  7 39  1  0
  6 40  1  0
  1 41  1  0
  1 42  1  0
  1 43  1  0
 37  5  1  0
 25 10  1  0
 20 15  1  0
M  CHG  1  10   1
M  END
>  <cnnaffinity>  (1) 
5.42542

>  <plip>  (1) 
-0.06451612903225806

>  <filename>  (1) 
[H][C]1=[C]([c]2[c]([H])[n][c]([H])[c]([H])[c]2[H])[C]([H])([H])[N+]([H])([C]([H])([H])[c]2[n][c]([H])[c]([C]([F])([F])[C]([H])([H])[H])[c]([H])[c]2[H])[C]([H])([H])[C]1([H])[H]

>  <combo1>  (1) 
-0.3687892498608655

$$$$
