
     RDKit          3D

 38 39  0  0  0  0  0  0  0  0999 V2000
    4.9177    1.7953   16.9897 H   0  0  0  0  0  0  0  0  0  0  0  0
    5.3901    1.2973   17.8330 C   0  0  0  0  0  0  0  0  0  0  0  0
    6.5499    0.6756   17.5687 N   0  0  0  0  0  0  0  0  0  0  0  0
    7.1515    0.0356   18.5769 C   0  0  0  0  0  0  0  0  0  0  0  0
    8.1125   -0.4277   18.3562 H   0  0  0  0  0  0  0  0  0  0  0  0
    6.6226   -0.0319   19.8830 C   0  0  0  0  0  0  0  0  0  0  0  0
    7.5558   -0.8334   21.1938 S   0  0  0  0  0  0  0  0  0  0  0  0
    8.4531    0.6171   21.6940 C   0  0  0  0  0  0  0  0  0  0  0  0
    9.6305    0.9950   21.2395 N   0  0  0  0  0  0  0  0  0  0  0  0
    9.8584    2.2159   21.7687 N   0  0  0  0  0  0  0  0  0  0  0  0
    8.8811    2.5999   22.5104 N   0  0  0  0  0  0  0  0  0  0  0  0
    7.9810    1.6165   22.4599 N   0  0  0  0  0  0  0  0  0  0  0  0
    6.7864    1.6024   23.0976 O   0  0  0  0  0  0  0  0  0  0  0  0
    6.3452    2.8449   23.6987 C   0  0  0  0  0  0  0  0  0  0  0  0
    7.1294    3.2911   24.3116 H   0  0  0  0  0  0  0  0  0  0  0  0
    5.5510    2.4817   24.3436 H   0  0  0  0  0  0  0  0  0  0  0  0
    5.8006    3.8151   22.6649 C   0  0  0  0  0  0  0  0  0  0  0  0
    4.9950    3.3139   22.0912 H   0  0  0  0  0  0  0  0  0  0  0  0
    6.6145    4.0253   21.9635 H   0  0  0  0  0  0  0  0  0  0  0  0
    5.3411    5.0682   23.2738 N   0  0  0  0  0  0  0  0  0  0  0  0
    5.3114    6.1707   22.3065 C   0  0  0  0  0  0  0  0  0  0  0  0
    4.4373    6.1013   21.6235 H   0  0  0  0  0  0  0  0  0  0  0  0
    6.2012    6.0877   21.6731 H   0  0  0  0  0  0  0  0  0  0  0  0
    5.3256    7.5403   22.9791 C   0  0  0  0  0  0  0  0  0  0  0  0
    5.4093    8.3348   22.2280 H   0  0  0  0  0  0  0  0  0  0  0  0
    4.4132    7.7248   23.5561 H   0  0  0  0  0  0  0  0  0  0  0  0
    6.1787    7.6241   23.6607 H   0  0  0  0  0  0  0  0  0  0  0  0
    4.0839    4.9493   24.0360 C   0  0  0  0  0  0  0  0  0  0  0  0
    3.6543    3.9437   23.9199 H   0  0  0  0  0  0  0  0  0  0  0  0
    3.3135    5.6281   23.6356 H   0  0  0  0  0  0  0  0  0  0  0  0
    4.2831    5.2414   25.5213 C   0  0  0  0  0  0  0  0  0  0  0  0
    5.0135    4.5489   25.9537 H   0  0  0  0  0  0  0  0  0  0  0  0
    4.6642    6.2574   25.6696 H   0  0  0  0  0  0  0  0  0  0  0  0
    3.3402    5.1388   26.0715 H   0  0  0  0  0  0  0  0  0  0  0  0
    5.4252    0.6384   20.1544 C   0  0  0  0  0  0  0  0  0  0  0  0
    5.0166    0.6480   21.1698 H   0  0  0  0  0  0  0  0  0  0  0  0
    4.7976    1.3100   19.1003 C   0  0  0  0  0  0  0  0  0  0  0  0
    3.8687    1.8468   19.2459 H   0  0  0  0  0  0  0  0  0  0  0  0
  1  2  1  0
  2  3  2  0
  3  4  1  0
  4  5  1  0
  4  6  2  0
  6  7  1  0
  7  8  1  0
  8  9  2  0
  9 10  1  0
 10 11  2  0
 11 12  1  0
 12 13  1  0
 13 14  1  0
 14 15  1  0
 14 16  1  0
 14 17  1  0
 17 18  1  0
 17 19  1  0
 17 20  1  0
 20 21  1  0
 21 22  1  0
 21 23  1  0
 21 24  1  0
 24 25  1  0
 24 26  1  0
 24 27  1  0
 20 28  1  0
 28 29  1  0
 28 30  1  0
 28 31  1  0
 31 32  1  0
 31 33  1  0
 31 34  1  0
  6 35  1  0
 35 36  1  0
 35 37  2  0
 37 38  1  0
 37  2  1  0
 12  8  1  0
M  END
>  <cnnaffinity>  (1) 
4.83768

>  <plip>  (1) 
-0.07142857142857142

>  <filename>  (1) 
[H][c]1[n][c]([H])[c]([S][c]2[n][n][n][n]2[O][C]([H])([H])[C]([H])([H])[N]([C]([H])([H])[C]([H])([H])[H])[C]([H])([H])[C]([H])([H])[H])[c]([H])[c]1[H]

>  <combo1>  (1) 
-0.3912673825440823

$$$$
