
     RDKit          3D

 47 51  0  0  0  0  0  0  0  0999 V2000
    4.8092    1.2899   19.0681 C   0  0  0  0  0  0  0  0  0  0  0  0
    5.4394    1.2943   17.8197 C   0  0  0  0  0  0  0  0  0  0  0  0
    6.6036    0.6709   17.5820 N   0  0  0  0  0  0  0  0  0  0  0  0
    7.1734    0.0314   18.6121 C   0  0  0  0  0  0  0  0  0  0  0  0
    6.6412   -0.0395   19.9129 C   0  0  0  0  0  0  0  0  0  0  0  0
    7.3815   -0.7447   21.0317 C   0  0  0  0  0  0  0  0  0  0  0  0
    7.0549   -2.2024   21.2865 C   0  0  0  0  0  0  0  0  0  0  0  0
    7.9927   -3.1163   21.3504 N   0  0  0  0  0  0  0  0  0  0  0  0
    7.3277   -4.2512   21.7550 O   0  0  0  0  0  0  0  0  0  0  0  0
    6.0462   -3.9143   21.9476 C   0  0  0  0  0  0  0  0  0  0  0  0
    5.1871   -4.9789   22.6129 C   0  0  0  0  0  0  0  0  0  0  0  0
    3.7110   -4.5521   22.7921 C   0  0  0  0  0  0  0  0  0  0  0  0
    3.4556   -3.8460   24.1527 C   0  0  0  0  0  0  0  0  0  0  0  0
    4.6391   -3.2617   24.6468 O   0  0  0  0  0  0  0  0  0  0  0  0
    5.6502   -4.2008   25.0283 C   0  0  0  0  0  0  0  0  0  0  0  0
    6.9605   -3.4034   25.1475 C   0  0  0  0  0  0  0  0  0  0  0  0
    7.8263   -4.1521   26.1893 C   0  0  0  0  0  0  0  0  0  0  0  0
    6.8366   -5.0268   27.0092 C   0  0  0  0  0  0  0  0  0  0  0  0
    5.4413   -4.6425   26.4930 C   0  0  0  0  0  0  0  0  0  0  0  0
    4.6860   -5.4300   26.6095 H   0  0  0  0  0  0  0  0  0  0  0  0
    5.0662   -3.7606   27.0299 H   0  0  0  0  0  0  0  0  0  0  0  0
    7.0308   -6.0940   26.8403 H   0  0  0  0  0  0  0  0  0  0  0  0
    6.9234   -4.8591   28.0879 H   0  0  0  0  0  0  0  0  0  0  0  0
    8.3680   -3.4402   26.8223 H   0  0  0  0  0  0  0  0  0  0  0  0
    8.5855   -4.7781   25.7051 H   0  0  0  0  0  0  0  0  0  0  0  0
    7.4591   -3.2637   24.1812 H   0  0  0  0  0  0  0  0  0  0  0  0
    6.6981   -2.4035   25.5154 H   0  0  0  0  0  0  0  0  0  0  0  0
    5.7375   -5.3864   24.0109 C   0  0  0  0  0  0  0  0  0  0  0  0
    5.1194   -6.2217   24.3708 H   0  0  0  0  0  0  0  0  0  0  0  0
    6.7671   -5.7543   23.9341 H   0  0  0  0  0  0  0  0  0  0  0  0
    3.0566   -4.5770   24.8754 H   0  0  0  0  0  0  0  0  0  0  0  0
    2.7248   -3.0297   24.1316 H   0  0  0  0  0  0  0  0  0  0  0  0
    3.0696   -5.4398   22.7439 H   0  0  0  0  0  0  0  0  0  0  0  0
    3.4618   -3.9213   21.9403 H   0  0  0  0  0  0  0  0  0  0  0  0
    5.2300   -5.8365   21.9272 H   0  0  0  0  0  0  0  0  0  0  0  0
    5.7963   -2.6879   21.5834 N   0  0  0  0  0  0  0  0  0  0  0  0
    8.8160   -0.3179   21.2728 C   0  0  0  0  0  0  0  0  0  0  0  0
    7.7755    0.1068   22.2486 C   0  0  0  0  0  0  0  0  0  0  0  0
    7.7519   -0.3679   23.2276 H   0  0  0  0  0  0  0  0  0  0  0  0
    7.4874    1.1560   22.2482 H   0  0  0  0  0  0  0  0  0  0  0  0
    9.2403    0.4397   20.6187 H   0  0  0  0  0  0  0  0  0  0  0  0
    9.5069   -1.0954   21.5798 H   0  0  0  0  0  0  0  0  0  0  0  0
    5.4218    0.6161   20.1313 C   0  0  0  0  0  0  0  0  0  0  0  0
    4.9806    0.6005   21.1285 H   0  0  0  0  0  0  0  0  0  0  0  0
    8.1200   -0.4645   18.4020 H   0  0  0  0  0  0  0  0  0  0  0  0
    4.9876    1.8086   16.9702 H   0  0  0  0  0  0  0  0  0  0  0  0
    3.8668    1.8105   19.1943 H   0  0  0  0  0  0  0  0  0  0  0  0
  1  2  2  0
  2  3  1  0
  3  4  2  0
  4  5  1  0
  5  6  1  0
  6  7  1  0
  7  8  2  0
  8  9  1  0
  9 10  1  0
 10 11  1  0
 11 12  1  0
 12 13  1  0
 13 14  1  0
 14 15  1  0
 15 16  1  0
 16 17  1  0
 17 18  1  0
 18 19  1  0
 19 20  1  0
 19 21  1  0
 18 22  1  0
 18 23  1  0
 17 24  1  0
 17 25  1  0
 16 26  1  0
 16 27  1  0
 15 28  1  0
 28 29  1  0
 28 30  1  0
 13 31  1  0
 13 32  1  0
 12 33  1  0
 12 34  1  0
 11 35  1  0
 10 36  2  0
  6 37  1  0
 37 38  1  0
 38 39  1  0
 38 40  1  0
 37 41  1  0
 37 42  1  0
  5 43  2  0
 43 44  1  0
  4 45  1  0
  2 46  1  0
  1 47  1  0
 43  1  1  0
 38  6  1  0
 36  7  1  0
 28 11  1  0
 19 15  1  0
M  END
>  <cnnaffinity>  (1) 
5.91881

>  <plip>  (1) 
-0.06666666666666667

>  <filename>  (1) 
[H][c]1[n][c]([H])[c]([C]2([c]3[n][o][c]([C]4([H])[C]([H])([H])[C]([H])([H])[O][C]5([C]([H])([H])[C]([H])([H])[C]([H])([H])[C]5([H])[H])[C]4([H])[H])[n]3)[C]([H])([H])[C]2([H])[H])[c]([H])[c]1[H]

>  <combo1>  (1) 
-0.4041925654588988

$$$$
