
     RDKit          3D

 32 34  0  0  0  0  0  0  0  0999 V2000
    8.2235   -4.4773   22.4149 H   0  0  0  0  0  0  0  0  0  0  0  0
    8.5100   -5.1012   23.0991 O   0  0  0  0  0  0  0  0  0  0  0  0
    8.6867   -4.3855   24.2368 C   0  0  0  0  0  0  0  0  0  0  0  0
    9.4102   -5.0091   25.2648 C   0  0  0  0  0  0  0  0  0  0  0  0
    9.7412   -6.0286   25.1169 H   0  0  0  0  0  0  0  0  0  0  0  0
    9.6968   -4.3160   26.4394 C   0  0  0  0  0  0  0  0  0  0  0  0
   10.5461   -5.1124   27.7250 Cl  0  0  0  0  0  0  0  0  0  0  0  0
    9.2972   -2.9898   26.6020 C   0  0  0  0  0  0  0  0  0  0  0  0
    9.6226   -2.4160   27.4580 H   0  0  0  0  0  0  0  0  0  0  0  0
    8.5121   -2.3895   25.6189 C   0  0  0  0  0  0  0  0  0  0  0  0
    8.1576   -1.3664   25.7349 H   0  0  0  0  0  0  0  0  0  0  0  0
    8.2059   -3.0697   24.4394 C   0  0  0  0  0  0  0  0  0  0  0  0
    7.4151   -2.3855   23.5179 O   0  0  0  0  0  0  0  0  0  0  0  0
    7.9734   -2.3223   22.2160 N   0  0  0  0  0  0  0  0  0  0  0  0
    6.9876   -1.8948   21.2774 C   0  0  0  0  0  0  0  0  0  0  0  0
    5.9022   -2.3833   21.1107 O   0  0  0  0  0  0  0  0  0  0  0  0
    7.5516   -0.8643   20.5136 N   0  0  0  0  0  0  0  0  0  0  0  0
    6.8018   -0.0975   19.5465 C   0  0  0  0  0  0  0  0  0  0  0  0
    7.2377    0.1159   18.2183 C   0  0  0  0  0  0  0  0  0  0  0  0
    8.1798   -0.3117   17.8812 H   0  0  0  0  0  0  0  0  0  0  0  0
    6.5437    0.8320   17.3234 N   0  0  0  0  0  0  0  0  0  0  0  0
    5.3960    1.4006   17.7307 C   0  0  0  0  0  0  0  0  0  0  0  0
    4.8615    1.9914   16.9894 H   0  0  0  0  0  0  0  0  0  0  0  0
    4.8836    1.2535   19.0239 C   0  0  0  0  0  0  0  0  0  0  0  0
    3.9587    1.7477   19.3026 H   0  0  0  0  0  0  0  0  0  0  0  0
    5.5922    0.4749   19.9447 C   0  0  0  0  0  0  0  0  0  0  0  0
    5.2329    0.3039   20.9590 H   0  0  0  0  0  0  0  0  0  0  0  0
    8.8030   -0.5091   20.9950 C   0  0  0  0  0  0  0  0  0  0  0  0
    9.5125    0.3543   20.5525 O   0  0  0  0  0  0  0  0  0  0  0  0
    9.1159   -1.4053   22.1680 C   0  0  0  0  0  0  0  0  0  0  0  0
    9.1903   -0.8129   23.0834 H   0  0  0  0  0  0  0  0  0  0  0  0
   10.0664   -1.9148   22.0048 H   0  0  0  0  0  0  0  0  0  0  0  0
  1  2  1  0
  2  3  1  0
  3  4  2  0
  4  5  1  0
  4  6  1  0
  6  7  1  0
  6  8  2  0
  8  9  1  0
  8 10  1  0
 10 11  1  0
 10 12  2  0
 12 13  1  0
 13 14  1  0
 14 15  1  0
 15 16  2  0
 15 17  1  0
 17 18  1  0
 18 19  2  0
 19 20  1  0
 19 21  1  0
 21 22  2  0
 22 23  1  0
 22 24  1  0
 24 25  1  0
 24 26  2  0
 26 27  1  0
 17 28  1  0
 28 29  2  0
 28 30  1  0
 30 31  1  0
 30 32  1  0
 12  3  1  0
 30 14  1  0
 26 18  1  0
M  END
>  <cnnaffinity>  (1) 
4.64434

>  <plip>  (1) 
-0.1

>  <filename>  (1) 
[H][O][c]1[c]([H])[c]([Cl])[c]([H])[c]([H])[c]1[O][N]1[C](=[O])[N]([c]2[c]([H])[n][c]([H])[c]([H])[c]2[H])[C](=[O])[C]1([H])[H]

>  <combo1>  (1) 
-0.48423333249922845

$$$$
