
     RDKit          3D

 20 21  0  0  0  0  0  0  0  0999 V2000
   10.5524   -3.6953   24.3655 H   0  0  0  0  0  0  0  0  0  0  0  0
    9.9718   -3.2039   25.0600 N   0  0  0  0  0  0  0  0  0  0  0  0
    9.1814   -2.4636   24.5201 N   0  0  0  0  0  4  0  0  0  0  0  0
    8.3256   -1.6796   24.2016 N   0  0  0  0  0  0  0  0  0  0  0  0
    8.1076   -1.4331   22.8248 C   0  0  0  0  0  0  0  0  0  0  0  0
    8.8010   -2.0219   21.7965 N   0  0  0  0  0  0  0  0  0  0  0  0
    8.3505   -1.5635   20.6878 N   0  0  0  0  0  0  0  0  0  0  0  0
    7.3627   -0.6795   20.9558 N   0  0  0  0  0  0  0  0  0  0  0  0
    6.6665    0.0012   19.9069 C   0  0  0  0  0  0  0  0  0  0  0  0
    7.1867    0.0561   18.5990 C   0  0  0  0  0  0  0  0  0  0  0  0
    8.1314   -0.4349   18.3777 H   0  0  0  0  0  0  0  0  0  0  0  0
    6.5694    0.6771   17.5930 N   0  0  0  0  0  0  0  0  0  0  0  0
    5.4009    1.2926   17.8453 C   0  0  0  0  0  0  0  0  0  0  0  0
    4.9109    1.7768   17.0012 H   0  0  0  0  0  0  0  0  0  0  0  0
    4.8113    1.3059   19.1129 C   0  0  0  0  0  0  0  0  0  0  0  0
    3.8775    1.8421   19.2674 H   0  0  0  0  0  0  0  0  0  0  0  0
    5.4496    0.6455   20.1664 C   0  0  0  0  0  0  0  0  0  0  0  0
    4.9963    0.6308   21.1593 H   0  0  0  0  0  0  0  0  0  0  0  0
    7.1861   -0.5765   22.2987 C   0  0  0  0  0  0  0  0  0  0  0  0
    6.4735    0.0836   22.7707 H   0  0  0  0  0  0  0  0  0  0  0  0
  1  2  1  0
  2  3  2  0
  3  4  2  0
  4  5  1  0
  5  6  1  0
  6  7  2  0
  7  8  1  0
  8  9  1  0
  9 10  2  0
 10 11  1  0
 10 12  1  0
 12 13  2  0
 13 14  1  0
 13 15  1  0
 15 16  1  0
 15 17  2  0
 17 18  1  0
  8 19  1  0
 19 20  1  0
 19  5  2  0
 17  9  1  0
M  CHG  1   3   1
M  END
>  <cnnaffinity>  (1) 
4.41585

>  <plip>  (1) 
-0.03333333333333333

>  <filename>  (1) 
[H][N]=[N+]=[N][c]1[n][n][n](-[c]2[c]([H])[n][c]([H])[c]([H])[c]2[H])[c]1[H]

>  <combo1>  (1) 
-0.2607427168471734

$$$$
