
     RDKit          3D

 37 38  0  0  0  0  0  0  0  0999 V2000
    7.0656    4.3037   27.0726 O   0  0  0  0  0  0  0  0  0  0  0  0
    7.0838    3.6832   28.1405 N   0  0  0  0  0  4  0  0  0  0  0  0
    6.9995    4.2408   29.2201 O   0  0  0  0  0  1  0  0  0  0  0  0
    7.1638    2.2265   28.1281 C   0  0  0  0  0  0  0  0  0  0  0  0
    6.5641    1.4995   29.1746 C   0  0  0  0  0  0  0  0  0  0  0  0
    6.4498    0.1147   29.0722 C   0  0  0  0  0  0  0  0  0  0  0  0
    6.9765   -0.5540   27.9603 C   0  0  0  0  0  0  0  0  0  0  0  0
    7.6671    0.1564   26.9845 C   0  0  0  0  0  0  0  0  0  0  0  0
    7.7626    1.5578   27.0346 C   0  0  0  0  0  0  0  0  0  0  0  0
    8.4267    2.2550   26.0546 N   0  0  0  0  0  0  0  0  0  0  0  0
    8.5118    1.7371   24.6958 C   0  0  0  0  0  0  0  0  0  0  0  0
    7.1288    1.5103   24.0305 C   0  0  0  0  0  0  0  0  0  0  0  0
    7.2055    0.9736   22.6752 N   0  0  0  0  0  0  0  0  0  0  0  0
    7.4365   -0.2987   22.3245 C   0  0  0  0  0  0  0  0  0  0  0  0
    7.7942   -1.5544   23.3566 S   0  0  0  0  0  0  0  0  0  0  0  0
    7.4377   -0.5496   20.9701 N   0  0  0  0  0  0  0  0  0  0  0  0
    6.7047    0.0800   19.9166 C   0  0  0  0  0  0  0  0  0  0  0  0
    5.4667    0.6990   20.1419 C   0  0  0  0  0  0  0  0  0  0  0  0
    4.8191    1.3151   19.0624 C   0  0  0  0  0  0  0  0  0  0  0  0
    5.4181    1.2934   17.7997 C   0  0  0  0  0  0  0  0  0  0  0  0
    6.5823    0.6665   17.5570 N   0  0  0  0  0  0  0  0  0  0  0  0
    7.1944    0.0724   18.5881 C   0  0  0  0  0  0  0  0  0  0  0  0
    8.1321   -0.4318   18.3621 H   0  0  0  0  0  0  0  0  0  0  0  0
    4.9408    1.7811   16.9511 H   0  0  0  0  0  0  0  0  0  0  0  0
    3.8677    1.8199   19.1959 H   0  0  0  0  0  0  0  0  0  0  0  0
    5.0188    0.6790   21.1358 H   0  0  0  0  0  0  0  0  0  0  0  0
    7.6594   -1.5278   20.8556 H   0  0  0  0  0  0  0  0  0  0  0  0
    7.1971    1.6116   21.8947 H   0  0  0  0  0  0  0  0  0  0  0  0
    6.5730    2.4545   23.9893 H   0  0  0  0  0  0  0  0  0  0  0  0
    6.5356    0.8333   24.6632 H   0  0  0  0  0  0  0  0  0  0  0  0
    9.1040    2.4489   24.1077 H   0  0  0  0  0  0  0  0  0  0  0  0
    9.0621    0.7856   24.6793 H   0  0  0  0  0  0  0  0  0  0  0  0
    8.2014    3.2383   26.1311 H   0  0  0  0  0  0  0  0  0  0  0  0
    8.1211   -0.3622   26.1474 H   0  0  0  0  0  0  0  0  0  0  0  0
    6.8620   -1.6337   27.8671 H   0  0  0  0  0  0  0  0  0  0  0  0
    5.9811   -0.4596   29.8657 H   0  0  0  0  0  0  0  0  0  0  0  0
    6.1967    2.0178   30.0570 H   0  0  0  0  0  0  0  0  0  0  0  0
  1  2  2  0
  2  3  1  0
  2  4  1  0
  4  5  2  0
  5  6  1  0
  6  7  2  0
  7  8  1  0
  8  9  2  0
  9 10  1  0
 10 11  1  0
 11 12  1  0
 12 13  1  0
 13 14  1  0
 14 15  2  0
 14 16  1  0
 16 17  1  0
 17 18  2  0
 18 19  1  0
 19 20  2  0
 20 21  1  0
 21 22  2  0
 22 23  1  0
 20 24  1  0
 19 25  1  0
 18 26  1  0
 16 27  1  0
 13 28  1  0
 12 29  1  0
 12 30  1  0
 11 31  1  0
 11 32  1  0
 10 33  1  0
  8 34  1  0
  7 35  1  0
  6 36  1  0
  5 37  1  0
  9  4  1  0
 22 17  1  0
M  CHG  2   2   1   3  -1
M  END
>  <cnnaffinity>  (1) 
4.84801

>  <plip>  (1) 
-0.03571428571428571

>  <filename>  (1) 
[H][c]1[n][c]([H])[c]([N]([H])[C](=[S])[N]([H])[C]([H])([H])[C]([H])([H])[N]([H])[c]2[c]([H])[c]([H])[c]([H])[c]([H])[c]2[N+](=[O])[O-])[c]([H])[c]1[H]

>  <combo1>  (1) 
-0.18184981996604893

$$$$
