
     RDKit          3D

 39 41  0  0  0  0  0  0  0  0999 V2000
    4.9670    1.8145   16.9548 H   0  0  0  0  0  0  0  0  0  0  0  0
    5.4118    1.3051   17.8068 C   0  0  0  0  0  0  0  0  0  0  0  0
    6.5764    0.6750   17.5845 N   0  0  0  0  0  0  0  0  0  0  0  0
    7.1419    0.0571   18.6274 C   0  0  0  0  0  0  0  0  0  0  0  0
    8.0963   -0.4308   18.4119 H   0  0  0  0  0  0  0  0  0  0  0  0
    6.5905    0.0166   19.9136 C   0  0  0  0  0  0  0  0  0  0  0  0
    7.3707   -0.6710   21.0118 C   0  0  2  0  0  0  0  0  0  0  0  0
    8.0655   -1.3887   20.5516 H   0  0  0  0  0  0  0  0  0  0  0  0
    6.4885   -1.3785   21.8717 O   0  0  0  0  0  0  0  0  0  0  0  0
    6.8610   -1.1054   23.2215 C   0  0  0  0  0  0  0  0  0  0  0  0
    5.9766   -1.1980   23.8478 H   0  0  0  0  0  0  0  0  0  0  0  0
    7.5990   -1.8359   23.5901 H   0  0  0  0  0  0  0  0  0  0  0  0
    7.4523    0.2993   23.1426 C   0  0  0  0  0  0  0  0  0  0  0  0
    8.1369    0.5405   23.9642 H   0  0  0  0  0  0  0  0  0  0  0  0
    6.6592    1.0582   23.1055 H   0  0  0  0  0  0  0  0  0  0  0  0
    8.1291    0.2635   21.8478 N   0  0  0  0  0  0  0  0  0  0  0  0
    9.5299    0.1423   21.8339 N   0  0  0  0  0  0  0  0  0  0  0  0
   10.0399   -1.0094   22.6013 C   0  0  0  0  0  0  0  0  0  0  0  0
    9.4710   -1.9059   22.3263 H   0  0  0  0  0  0  0  0  0  0  0  0
    9.9079   -0.8576   23.6916 H   0  0  0  0  0  0  0  0  0  0  0  0
   11.5174   -1.1893   22.2895 C   0  0  0  0  0  0  0  0  0  0  0  0
   11.8870   -2.0984   22.7730 H   0  0  0  0  0  0  0  0  0  0  0  0
   11.6236   -1.3496   21.2099 H   0  0  0  0  0  0  0  0  0  0  0  0
   12.3153    0.0597   22.7044 C   0  0  0  0  0  0  0  0  0  0  0  0
   12.1817    0.2053   23.7898 H   0  0  0  0  0  0  0  0  0  0  0  0
   13.8185   -0.1110   22.4655 C   0  0  0  0  0  0  0  0  0  0  0  0
   14.3778    0.8051   22.6828 H   0  0  0  0  0  0  0  0  0  0  0  0
   14.0415   -0.4011   21.4347 H   0  0  0  0  0  0  0  0  0  0  0  0
   14.2386   -0.8931   23.1060 H   0  0  0  0  0  0  0  0  0  0  0  0
   11.7036    1.2837   21.9873 C   0  0  0  0  0  0  0  0  0  0  0  0
   12.2022    2.2068   22.3052 H   0  0  0  0  0  0  0  0  0  0  0  0
   11.8595    1.2014   20.9060 H   0  0  0  0  0  0  0  0  0  0  0  0
   10.1941    1.4003   22.2257 C   0  0  0  0  0  0  0  0  0  0  0  0
    9.7556    2.2102   21.6326 H   0  0  0  0  0  0  0  0  0  0  0  0
    9.9995    1.6415   23.2905 H   0  0  0  0  0  0  0  0  0  0  0  0
    5.3646    0.6687   20.1222 C   0  0  0  0  0  0  0  0  0  0  0  0
    4.8945    0.6547   21.1072 H   0  0  0  0  0  0  0  0  0  0  0  0
    4.7723    1.3281   19.0518 C   0  0  0  0  0  0  0  0  0  0  0  0
    3.8402    1.8710   19.1727 H   0  0  0  0  0  0  0  0  0  0  0  0
  1  2  1  0
  2  3  2  0
  3  4  1  0
  4  5  1  0
  4  6  2  0
  6  7  1  0
  7  8  1  6
  7  9  1  0
  9 10  1  0
 10 11  1  0
 10 12  1  0
 10 13  1  0
 13 14  1  0
 13 15  1  0
 13 16  1  0
 16 17  1  0
 17 18  1  0
 18 19  1  0
 18 20  1  0
 18 21  1  0
 21 22  1  0
 21 23  1  0
 21 24  1  0
 24 25  1  0
 24 26  1  0
 26 27  1  0
 26 28  1  0
 26 29  1  0
 24 30  1  0
 30 31  1  0
 30 32  1  0
 30 33  1  0
 33 34  1  0
 33 35  1  0
  6 36  1  0
 36 37  1  0
 36 38  2  0
 38 39  1  0
 38  2  1  0
 16  7  1  0
 33 17  1  0
M  END
>  <cnnaffinity>  (1) 
4.63467

>  <plip>  (1) 
-0.07142857142857142

>  <filename>  (1) 
[H][c]1[n][c]([H])[c]([C@]2([H])[O][C]([H])([H])[C]([H])([H])[N]2[N]2[C]([H])([H])[C]([H])([H])[C]([H])([C]([H])([H])[H])[C]([H])([H])[C]2([H])[H])[c]([H])[c]1[H]

>  <combo1>  (1) 
-0.4461405087461316

$$$$
