
     RDKit          3D

 42 45  0  0  0  0  0  0  0  0999 V2000
    7.0154   -1.8858   26.3645 C   0  0  0  0  0  0  0  0  0  0  0  0
    6.7904   -0.6600   25.4821 C   0  0  0  0  0  0  0  0  0  0  0  0
    5.9904    0.4270   26.1895 C   0  0  0  0  0  0  0  0  0  0  0  0
    6.5090    1.0284   27.3465 C   0  0  0  0  0  0  0  0  0  0  0  0
    5.7700    2.0062   28.0092 C   0  0  0  0  0  0  0  0  0  0  0  0
    4.5263    2.3463   27.4713 C   0  0  0  0  0  0  0  0  0  0  0  0
    4.0950    1.7056   26.3063 C   0  0  0  0  0  0  0  0  0  0  0  0
    4.8062    0.7740   25.6530 N   0  0  0  0  0  0  0  0  0  0  0  0
    3.1319    1.9435   25.8642 H   0  0  0  0  0  0  0  0  0  0  0  0
    3.8961    3.0931   27.9341 H   0  0  0  0  0  0  0  0  0  0  0  0
    6.1516    2.4789   28.9177 H   0  0  0  0  0  0  0  0  0  0  0  0
    7.4877    0.7231   27.7004 H   0  0  0  0  0  0  0  0  0  0  0  0
    8.1750   -0.1198   24.9710 N   0  0  0  0  0  4  0  0  0  0  0  0
    8.0377    1.1802   24.1428 C   0  0  0  0  0  0  0  0  0  0  0  0
    7.1988    0.9577   22.8690 C   0  0  0  0  0  0  0  0  0  0  0  0
    7.6258   -0.2706   22.1772 N   0  0  0  0  0  0  0  0  0  0  0  0
    8.3749   -1.2701   22.7451 C   0  0  0  0  0  0  0  0  0  0  0  0
    8.5995   -2.2327   21.8971 N   0  0  0  0  0  0  0  0  0  0  0  0
    7.9928   -1.8687   20.7163 N   0  0  0  0  0  0  0  0  0  0  0  0
    7.4108   -0.7138   20.8959 C   0  0  0  0  0  0  0  0  0  0  0  0
    6.6501    0.0250   19.8961 C   0  0  0  0  0  0  0  0  0  0  0  0
    5.4307    0.6663   20.1591 C   0  0  0  0  0  0  0  0  0  0  0  0
    4.7982    1.3165   19.1024 C   0  0  0  0  0  0  0  0  0  0  0  0
    5.3996    1.2968   17.8380 C   0  0  0  0  0  0  0  0  0  0  0  0
    6.5631    0.6816   17.5777 N   0  0  0  0  0  0  0  0  0  0  0  0
    7.1639    0.0600   18.5917 C   0  0  0  0  0  0  0  0  0  0  0  0
    8.1086   -0.4335   18.3743 H   0  0  0  0  0  0  0  0  0  0  0  0
    4.9228    1.7849   16.9923 H   0  0  0  0  0  0  0  0  0  0  0  0
    3.8663    1.8466   19.2520 H   0  0  0  0  0  0  0  0  0  0  0  0
    4.9901    0.6400   21.1611 H   0  0  0  0  0  0  0  0  0  0  0  0
    8.9534   -1.1184   24.1207 C   0  0  0  0  0  0  0  0  0  0  0  0
    9.9861   -0.7736   23.9986 H   0  0  0  0  0  0  0  0  0  0  0  0
    8.9750   -2.1022   24.5883 H   0  0  0  0  0  0  0  0  0  0  0  0
    6.1384    0.9219   23.1488 H   0  0  0  0  0  0  0  0  0  0  0  0
    7.3295    1.8005   22.1862 H   0  0  0  0  0  0  0  0  0  0  0  0
    9.0375    1.5270   23.8603 H   0  0  0  0  0  0  0  0  0  0  0  0
    7.5590    1.9359   24.7683 H   0  0  0  0  0  0  0  0  0  0  0  0
    8.7230    0.0866   25.8389 H   0  0  0  0  0  0  0  0  0  0  0  0
    6.2115   -0.9237   24.6017 H   0  0  0  0  0  0  0  0  0  0  0  0
    7.2782   -2.7694   25.7739 H   0  0  0  0  0  0  0  0  0  0  0  0
    6.1046   -2.1176   26.9255 H   0  0  0  0  0  0  0  0  0  0  0  0
    7.8270   -1.6980   27.0770 H   0  0  0  0  0  0  0  0  0  0  0  0
  1  2  1  0
  2  3  1  0
  3  4  2  0
  4  5  1  0
  5  6  2  0
  6  7  1  0
  7  8  2  0
  7  9  1  0
  6 10  1  0
  5 11  1  0
  4 12  1  0
  2 13  1  0
 13 14  1  0
 14 15  1  0
 15 16  1  0
 16 17  1  0
 17 18  2  0
 18 19  1  0
 19 20  2  0
 20 21  1  0
 21 22  2  0
 22 23  1  0
 23 24  2  0
 24 25  1  0
 25 26  2  0
 26 27  1  0
 24 28  1  0
 23 29  1  0
 22 30  1  0
 17 31  1  0
 31 32  1  0
 31 33  1  0
 15 34  1  0
 15 35  1  0
 14 36  1  0
 14 37  1  0
 13 38  1  0
  2 39  1  0
  1 40  1  0
  1 41  1  0
  1 42  1  0
  8  3  1  0
 31 13  1  0
 20 16  1  0
 26 21  1  0
M  CHG  1  13   1
M  END
>  <cnnaffinity>  (1) 
5.26278

>  <plip>  (1) 
-0.06896551724137931

>  <filename>  (1) 
[H][c]1[n][c]([C]([H])([C]([H])([H])[H])[N+]2([H])[C]([H])([H])[c]3[n][n][c](-[c]4[c]([H])[n][c]([H])[c]([H])[c]4[H])[n]3[C]([H])([H])[C]2([H])[H])[c]([H])[c]([H])[c]1[H]

>  <combo1>  (1) 
-0.39359442605711537

$$$$
