
     RDKit          3D

 46 47  0  0  0  0  0  0  0  0999 V2000
    6.7037   -1.4214   21.5726 H   0  0  0  0  0  0  0  0  0  0  0  0
    7.3201   -0.7168   21.0046 C   0  0  0  0  0  0  0  0  0  0  0  0
    8.5773   -0.4583   21.3870 C   0  0  0  0  0  0  0  0  0  0  0  0
    9.3333   -1.0667   22.5025 C   0  0  0  0  0  0  0  0  0  0  0  0
    8.7867   -2.1819   23.3630 C   0  0  0  0  0  0  0  0  0  0  0  0
    9.6082   -2.8755   23.5700 H   0  0  0  0  0  0  0  0  0  0  0  0
    8.0283   -2.7431   22.8047 H   0  0  0  0  0  0  0  0  0  0  0  0
    8.1950   -1.6494   24.6769 C   0  0  0  0  0  0  0  0  0  0  0  0
    7.9895   -2.4978   25.3429 H   0  0  0  0  0  0  0  0  0  0  0  0
    8.9623   -1.0441   25.1809 H   0  0  0  0  0  0  0  0  0  0  0  0
    6.9267   -0.8091   24.4866 C   0  0  0  0  0  0  0  0  0  0  0  0
    6.1498   -1.4228   24.0002 H   0  0  0  0  0  0  0  0  0  0  0  0
    7.1309    0.0278   23.8048 H   0  0  0  0  0  0  0  0  0  0  0  0
    6.3651   -0.2520   25.8002 C   0  0  0  0  0  0  0  0  0  0  0  0
    7.1606    0.2834   26.3445 H   0  0  0  0  0  0  0  0  0  0  0  0
    5.5965    0.5012   25.5735 H   0  0  0  0  0  0  0  0  0  0  0  0
    5.7571   -1.3153   26.7191 C   0  0  0  0  0  0  0  0  0  0  0  0
    6.5251   -2.0443   27.0218 H   0  0  0  0  0  0  0  0  0  0  0  0
    5.0008   -1.8926   26.1618 H   0  0  0  0  0  0  0  0  0  0  0  0
    5.1114   -0.7155   27.9680 C   0  0  0  0  0  0  0  0  0  0  0  0
    4.3357    0.0081   27.6667 H   0  0  0  0  0  0  0  0  0  0  0  0
    5.8618   -0.1320   28.5270 H   0  0  0  0  0  0  0  0  0  0  0  0
    4.4930   -1.7697   28.8877 C   0  0  0  0  0  0  0  0  0  0  0  0
    5.2706   -2.4896   29.1843 H   0  0  0  0  0  0  0  0  0  0  0  0
    3.7475   -2.3484   28.3208 H   0  0  0  0  0  0  0  0  0  0  0  0
    3.8487   -1.1568   30.1309 C   0  0  0  0  0  0  0  0  0  0  0  0
    3.4140   -1.9230   30.7801 H   0  0  0  0  0  0  0  0  0  0  0  0
    4.5879   -0.5969   30.7176 H   0  0  0  0  0  0  0  0  0  0  0  0
    3.0516   -0.4554   29.8542 H   0  0  0  0  0  0  0  0  0  0  0  0
   10.4734   -0.5378   22.7238 N   0  0  0  0  0  0  0  0  0  0  0  0
   10.7044    0.5472   21.7547 C   0  0  0  0  0  0  0  0  0  0  0  0
   10.8429    1.4789   22.3147 H   0  0  0  0  0  0  0  0  0  0  0  0
   11.6406    0.3365   21.2303 H   0  0  0  0  0  0  0  0  0  0  0  0
    9.4732    0.6131   20.8125 C   0  0  0  0  0  0  0  0  0  0  0  0
    8.9831    1.5900   20.8062 H   0  0  0  0  0  0  0  0  0  0  0  0
    9.6774    0.3753   19.7693 H   0  0  0  0  0  0  0  0  0  0  0  0
    6.6298   -0.0203   19.8974 C   0  0  0  0  0  0  0  0  0  0  0  0
    7.1519    0.0582   18.5922 C   0  0  0  0  0  0  0  0  0  0  0  0
    8.0996   -0.4287   18.3622 H   0  0  0  0  0  0  0  0  0  0  0  0
    6.5554    0.6862   17.5689 N   0  0  0  0  0  0  0  0  0  0  0  0
    5.3922    1.3047   17.8276 C   0  0  0  0  0  0  0  0  0  0  0  0
    4.9209    1.8026   16.9807 H   0  0  0  0  0  0  0  0  0  0  0  0
    4.7912    1.3122   19.0916 C   0  0  0  0  0  0  0  0  0  0  0  0
    3.8651    1.8526   19.2404 H   0  0  0  0  0  0  0  0  0  0  0  0
    5.4132    0.6308   20.1380 C   0  0  0  0  0  0  0  0  0  0  0  0
    4.9987    0.6214   21.1469 H   0  0  0  0  0  0  0  0  0  0  0  0
  1  2  1  0
  2  3  2  3
  3  4  1  0
  4  5  1  0
  5  6  1  0
  5  7  1  0
  5  8  1  0
  8  9  1  0
  8 10  1  0
  8 11  1  0
 11 12  1  0
 11 13  1  0
 11 14  1  0
 14 15  1  0
 14 16  1  0
 14 17  1  0
 17 18  1  0
 17 19  1  0
 17 20  1  0
 20 21  1  0
 20 22  1  0
 20 23  1  0
 23 24  1  0
 23 25  1  0
 23 26  1  0
 26 27  1  0
 26 28  1  0
 26 29  1  0
  4 30  2  0
 30 31  1  0
 31 32  1  0
 31 33  1  0
 31 34  1  0
 34 35  1  0
 34 36  1  0
  2 37  1  0
 37 38  2  0
 38 39  1  0
 38 40  1  0
 40 41  2  0
 41 42  1  0
 41 43  1  0
 43 44  1  0
 43 45  2  0
 45 46  1  0
 34  3  1  0
 45 37  1  0
M  END
>  <cnnaffinity>  (1) 
5.34392

>  <plip>  (1) 
-0.0

>  <filename>  (1) 
[H][C](=[C]1[C]([C]([H])([H])[C]([H])([H])[C]([H])([H])[C]([H])([H])[C]([H])([H])[C]([H])([H])[C]([H])([H])[C]([H])([H])[H])=[N][C]([H])([H])[C]1([H])[H])[c]1[c]([H])[n][c]([H])[c]([H])[c]1[H]

>  <combo1>  (1) 
-6.587185365973917e-06

$$$$
