
     RDKit          3D

 49 51  0  0  0  0  0  0  0  0999 V2000
    7.9500    2.5654   21.4472 C   0  0  0  0  0  0  0  0  0  0  0  0
    8.5817    1.1908   21.6518 C   0  0  0  0  0  0  0  0  0  0  0  0
    7.5210    0.1919   22.0516 N   0  0  0  0  0  4  0  0  0  0  0  0
    7.1633   -0.8563   21.0306 C   0  0  0  0  0  0  0  0  0  0  0  0
    6.3159   -1.9544   21.6688 C   0  0  0  0  0  0  0  0  0  0  0  0
    7.0565   -3.1096   22.2688 N   0  0  0  0  0  4  0  0  0  0  0  0
    6.1617   -4.0237   23.0558 C   0  0  0  0  0  0  0  0  0  0  0  0
    7.0361   -5.2442   23.2845 C   0  0  0  0  0  0  0  0  0  0  0  0
    7.8256   -5.3981   21.9718 C   0  0  0  0  0  0  0  0  0  0  0  0
    7.8071   -4.0076   21.3097 C   0  0  0  0  0  0  0  0  0  0  0  0
    7.2679   -4.0248   20.3580 H   0  0  0  0  0  0  0  0  0  0  0  0
    8.8037   -3.6051   21.1183 H   0  0  0  0  0  0  0  0  0  0  0  0
    7.3431   -6.1168   21.3056 H   0  0  0  0  0  0  0  0  0  0  0  0
    8.8403   -5.7659   22.1522 H   0  0  0  0  0  0  0  0  0  0  0  0
    6.4455   -6.1262   23.5456 H   0  0  0  0  0  0  0  0  0  0  0  0
    7.7173   -5.0411   24.1188 H   0  0  0  0  0  0  0  0  0  0  0  0
    5.8170   -3.5352   23.9730 H   0  0  0  0  0  0  0  0  0  0  0  0
    5.2774   -4.2620   22.4511 H   0  0  0  0  0  0  0  0  0  0  0  0
    7.7609   -2.7367   22.9547 H   0  0  0  0  0  0  0  0  0  0  0  0
    5.6009   -2.3160   20.9234 H   0  0  0  0  0  0  0  0  0  0  0  0
    5.7387   -1.4606   22.4489 H   0  0  0  0  0  0  0  0  0  0  0  0
    6.4641   -0.1159   19.9053 C   0  0  0  0  0  0  0  0  0  0  0  0
    5.2287    0.5405   20.0341 C   0  0  0  0  0  0  0  0  0  0  0  0
    4.7544    1.3015   18.9632 C   0  0  0  0  0  0  0  0  0  0  0  0
    5.5084    1.3482   17.7862 C   0  0  0  0  0  0  0  0  0  0  0  0
    6.6741    0.7062   17.6305 N   0  0  0  0  0  0  0  0  0  0  0  0
    7.1341    0.0135   18.6820 C   0  0  0  0  0  0  0  0  0  0  0  0
    8.0907   -0.4926   18.5360 H   0  0  0  0  0  0  0  0  0  0  0  0
    5.1548    1.9269   16.9337 H   0  0  0  0  0  0  0  0  0  0  0  0
    3.8318    1.8694   19.0315 H   0  0  0  0  0  0  0  0  0  0  0  0
    4.6358    0.4693   20.9503 H   0  0  0  0  0  0  0  0  0  0  0  0
    8.0949   -1.2966   20.6588 H   0  0  0  0  0  0  0  0  0  0  0  0
    7.8812   -0.1700   22.9623 H   0  0  0  0  0  0  0  0  0  0  0  0
    6.6470    0.7604   22.1784 H   0  0  0  0  0  0  0  0  0  0  0  0
    9.6232    1.2011   22.7542 C   0  0  0  0  0  0  0  0  0  0  0  0
    9.2854    1.7068   24.0244 C   0  0  0  0  0  0  0  0  0  0  0  0
   10.2573    1.9878   24.9761 C   0  0  0  0  0  0  0  0  0  0  0  0
   11.6004    1.7449   24.6708 C   0  0  0  0  0  0  0  0  0  0  0  0
   11.9488    1.1005   23.4840 C   0  0  0  0  0  0  0  0  0  0  0  0
   10.9473    0.7808   22.5647 C   0  0  0  0  0  0  0  0  0  0  0  0
   11.3743   -0.2521   21.2251 Cl  0  0  0  0  0  0  0  0  0  0  0  0
   12.9801    0.8567   23.2533 H   0  0  0  0  0  0  0  0  0  0  0  0
   12.3762    2.0478   25.3534 H   0  0  0  0  0  0  0  0  0  0  0  0
    9.9558    2.3916   25.9374 H   0  0  0  0  0  0  0  0  0  0  0  0
    8.2395    1.8980   24.2619 H   0  0  0  0  0  0  0  0  0  0  0  0
    9.0459    0.8567   20.7217 H   0  0  0  0  0  0  0  0  0  0  0  0
    8.6929    3.2696   21.0681 H   0  0  0  0  0  0  0  0  0  0  0  0
    7.1232    2.4924   20.7361 H   0  0  0  0  0  0  0  0  0  0  0  0
    7.5711    2.9588   22.3974 H   0  0  0  0  0  0  0  0  0  0  0  0
  1  2  1  0
  2  3  1  0
  3  4  1  0
  4  5  1  0
  5  6  1  0
  6  7  1  0
  7  8  1  0
  8  9  1  0
  9 10  1  0
 10 11  1  0
 10 12  1  0
  9 13  1  0
  9 14  1  0
  8 15  1  0
  8 16  1  0
  7 17  1  0
  7 18  1  0
  6 19  1  0
  5 20  1  0
  5 21  1  0
  4 22  1  0
 22 23  2  0
 23 24  1  0
 24 25  2  0
 25 26  1  0
 26 27  2  0
 27 28  1  0
 25 29  1  0
 24 30  1  0
 23 31  1  0
  4 32  1  0
  3 33  1  0
  3 34  1  0
  2 35  1  0
 35 36  2  0
 36 37  1  0
 37 38  2  0
 38 39  1  0
 39 40  2  0
 40 41  1  0
 39 42  1  0
 38 43  1  0
 37 44  1  0
 36 45  1  0
  2 46  1  0
  1 47  1  0
  1 48  1  0
  1 49  1  0
 10  6  1  0
 27 22  1  0
 40 35  1  0
M  CHG  2   3   1   6   1
M  END
>  <cnnaffinity>  (1) 
5.27876

>  <plip>  (1) 
-0.12903225806451613

>  <filename>  (1) 
[H][c]1[n][c]([H])[c]([C]([H])([C]([H])([H])[N+]2([H])[C]([H])([H])[C]([H])([H])[C]([H])([H])[C]2([H])[H])[N+]([H])([H])[C]([H])([c]2[c]([H])[c]([H])[c]([H])[c]([H])[c]2[Cl])[C]([H])([H])[H])[c]([H])[c]1[H]

>  <combo1>  (1) 
-0.6840903816620972

$$$$
