
     RDKit          3D

 38 40  0  0  0  0  0  0  0  0999 V2000
    4.7992    1.6130   16.9026 H   0  0  0  0  0  0  0  0  0  0  0  0
    5.3819    1.4316   17.8015 C   0  0  0  0  0  0  0  0  0  0  0  0
    6.6407    1.0138   17.6077 N   0  0  0  0  0  0  0  0  0  0  0  0
    7.3821    0.7673   18.6955 C   0  0  0  0  0  0  0  0  0  0  0  0
    8.4004    0.4318   18.4923 H   0  0  0  0  0  0  0  0  0  0  0  0
    6.9157    0.8878   20.0201 C   0  0  0  0  0  0  0  0  0  0  0  0
    7.6925    0.3291   21.1921 C   0  0  2  0  0  0  0  0  0  0  0  0
    7.2126    0.6702   22.1262 H   0  0  0  0  0  0  0  0  0  0  0  0
    9.1946    0.6347   21.2964 C   0  0  0  0  0  0  0  0  0  0  0  0
    9.4184    1.6413   21.6620 H   0  0  0  0  0  0  0  0  0  0  0  0
    9.6584    0.5298   20.3079 H   0  0  0  0  0  0  0  0  0  0  0  0
    9.7414   -0.3854   22.1939 N   0  0  0  0  0  0  0  0  0  0  0  0
    9.5551   -0.0996   23.1491 H   0  0  0  0  0  0  0  0  0  0  0  0
    8.9916   -1.6240   21.9307 C   0  0  0  0  0  0  0  0  0  0  0  0
    9.6013   -2.3192   21.3367 H   0  0  0  0  0  0  0  0  0  0  0  0
    8.7783   -2.1477   22.8717 H   0  0  0  0  0  0  0  0  0  0  0  0
    7.7091   -1.2164   21.1644 C   0  0  1  0  0  0  0  0  0  0  0  0
    7.8514   -1.5229   20.1145 H   0  0  0  0  0  0  0  0  0  0  0  0
    6.4106   -1.8547   21.6510 C   0  0  0  0  0  0  0  0  0  0  0  0
    5.5491   -1.4121   21.1230 H   0  0  0  0  0  0  0  0  0  0  0  0
    6.2659   -1.6250   22.7148 H   0  0  0  0  0  0  0  0  0  0  0  0
    6.5196   -3.2776   21.4360 N   0  0  0  0  0  0  0  0  0  0  0  0
    6.9608   -3.5109   20.5618 H   0  0  0  0  0  0  0  0  0  0  0  0
    5.6320   -4.2607   21.8240 C   0  0  0  0  0  0  0  0  0  0  0  0
    4.7183   -4.1553   22.8842 C   0  0  0  0  0  0  0  0  0  0  0  0
    4.6704   -3.2361   23.4567 H   0  0  0  0  0  0  0  0  0  0  0  0
    3.8933   -5.2403   23.2022 C   0  0  0  0  0  0  0  0  0  0  0  0
    3.1916   -5.1535   24.0320 H   0  0  0  0  0  0  0  0  0  0  0  0
    3.9529   -6.4209   22.4596 C   0  0  0  0  0  0  0  0  0  0  0  0
    3.2839   -7.2435   22.6905 H   0  0  0  0  0  0  0  0  0  0  0  0
    4.8664   -6.5226   21.4043 C   0  0  0  0  0  0  0  0  0  0  0  0
    4.9062   -7.4002   20.7675 H   0  0  0  0  0  0  0  0  0  0  0  0
    5.7029   -5.4623   21.0983 C   0  0  0  0  0  0  0  0  0  0  0  0
    6.4317   -5.5398   20.2976 H   0  0  0  0  0  0  0  0  0  0  0  0
    5.6108    1.3675   20.1920 C   0  0  0  0  0  0  0  0  0  0  0  0
    5.2172    1.5211   21.1979 H   0  0  0  0  0  0  0  0  0  0  0  0
    4.8243    1.6309   19.0678 C   0  0  0  0  0  0  0  0  0  0  0  0
    3.8027    1.9748   19.1658 H   0  0  0  0  0  0  0  0  0  0  0  0
  1  2  1  0
  2  3  2  0
  3  4  1  0
  4  5  1  0
  4  6  2  0
  6  7  1  0
  7  8  1  1
  7  9  1  0
  9 10  1  0
  9 11  1  0
  9 12  1  0
 12 13  1  0
 12 14  1  0
 14 15  1  0
 14 16  1  0
 14 17  1  0
 17 18  1  6
 17 19  1  0
 19 20  1  0
 19 21  1  0
 19 22  1  0
 22 23  1  0
 22 24  1  0
 24 25  2  0
 25 26  1  0
 25 27  1  0
 27 28  1  0
 27 29  2  0
 29 30  1  0
 29 31  1  0
 31 32  1  0
 31 33  2  0
 33 34  1  0
  6 35  1  0
 35 36  1  0
 35 37  2  0
 37 38  1  0
 37  2  1  0
 17  7  1  0
 33 24  1  0
M  END
>  <cnnaffinity>  (1) 
4.28295

>  <plip>  (1) 
-0.06666666666666667

>  <filename>  (1) 
[H][c]1[n][c]([H])[c]([C@]2([H])[C]([H])([H])[N]([H])[C]([H])([H])[C@@]2([H])[C]([H])([H])[N]([H])[c]2[c]([H])[c]([H])[c]([H])[c]([H])[c]2[H])[c]([H])[c]1[H]

>  <combo1>  (1) 
-0.37567413594159305

$$$$
