
     RDKit          3D

 37 39  0  0  0  0  0  0  0  0999 V2000
    6.6229   -1.4153   21.8949 N   0  0  0  0  0  4  0  0  0  0  0  0
    7.5063   -0.7057   20.9462 C   0  0  2  0  0  0  0  0  0  0  0  0
    8.3714    0.2645   21.7739 C   0  0  0  0  0  0  0  0  0  0  0  0
    7.5402    1.2602   22.5012 C   0  0  0  0  0  0  0  0  0  0  0  0
    6.8947    1.1323   23.6186 N   0  0  0  0  0  0  0  0  0  0  0  0
    6.4033    2.4175   23.8109 C   0  0  0  0  0  0  0  0  0  0  0  0
    5.6607    2.8567   25.0339 C   0  0  0  0  0  0  0  0  0  0  0  0
    5.0707    4.1362   25.1385 C   0  0  0  0  0  0  0  0  0  0  0  0
    4.3810    4.4782   26.3075 C   0  0  0  0  0  0  0  0  0  0  0  0
    4.2521    3.6537   27.3527 N   0  0  0  0  0  0  0  0  0  0  0  0
    4.8247    2.4438   27.2692 C   0  0  0  0  0  0  0  0  0  0  0  0
    4.6969    1.4620   28.4534 C   0  0  0  0  0  0  0  0  0  0  0  0
    5.9143    1.1102   28.9169 F   0  0  0  0  0  0  0  0  0  0  0  0
    4.0001    1.9367   29.4835 F   0  0  0  0  0  0  0  0  0  0  0  0
    4.1023    0.3155   28.0596 F   0  0  0  0  0  0  0  0  0  0  0  0
    5.5398    2.0046   26.1418 C   0  0  0  0  0  0  0  0  0  0  0  0
    5.9950    1.0142   26.1368 H   0  0  0  0  0  0  0  0  0  0  0  0
    3.9118    5.4544   26.3990 H   0  0  0  0  0  0  0  0  0  0  0  0
    5.1432    4.8621   24.3392 H   0  0  0  0  0  0  0  0  0  0  0  0
    6.6557    3.2328   22.8218 N   0  0  0  0  0  0  0  0  0  0  0  0
    7.4050    2.4713   21.9534 O   0  0  0  0  0  0  0  0  0  0  0  0
    8.9275   -0.3168   22.5143 H   0  0  0  0  0  0  0  0  0  0  0  0
    9.0865    0.7756   21.1336 H   0  0  0  0  0  0  0  0  0  0  0  0
    6.6335   -0.0330   19.9018 C   0  0  0  0  0  0  0  0  0  0  0  0
    5.4051    0.6228   20.1267 C   0  0  0  0  0  0  0  0  0  0  0  0
    4.7823    1.2964   19.0724 C   0  0  0  0  0  0  0  0  0  0  0  0
    5.3998    1.2869   17.8181 C   0  0  0  0  0  0  0  0  0  0  0  0
    6.5475    0.6433   17.5695 N   0  0  0  0  0  0  0  0  0  0  0  0
    7.1366    0.0134   18.5929 C   0  0  0  0  0  0  0  0  0  0  0  0
    8.0817   -0.4791   18.3528 H   0  0  0  0  0  0  0  0  0  0  0  0
    4.9551    1.8289   16.9848 H   0  0  0  0  0  0  0  0  0  0  0  0
    3.8582    1.8516   19.2155 H   0  0  0  0  0  0  0  0  0  0  0  0
    4.9330    0.6568   21.1106 H   0  0  0  0  0  0  0  0  0  0  0  0
    8.1701   -1.4141   20.4326 H   0  0  0  0  0  0  0  0  0  0  0  0
    5.9018   -1.9151   21.3542 H   0  0  0  0  0  0  0  0  0  0  0  0
    7.1281   -2.0759   22.5082 H   0  0  0  0  0  0  0  0  0  0  0  0
    6.1892   -0.6905   22.5044 H   0  0  0  0  0  0  0  0  0  0  0  0
  1  2  1  0
  2  3  1  0
  3  4  1  0
  4  5  2  0
  5  6  1  0
  6  7  1  0
  7  8  2  0
  8  9  1  0
  9 10  2  0
 10 11  1  0
 11 12  1  0
 12 13  1  0
 12 14  1  0
 12 15  1  0
 11 16  2  0
 16 17  1  0
  9 18  1  0
  8 19  1  0
  6 20  2  0
 20 21  1  0
  3 22  1  0
  3 23  1  0
  2 24  1  0
 24 25  2  0
 25 26  1  0
 26 27  2  0
 27 28  1  0
 28 29  2  0
 29 30  1  0
 27 31  1  0
 26 32  1  0
 25 33  1  0
  2 34  1  6
  1 35  1  0
  1 36  1  0
  1 37  1  0
 21  4  1  0
 29 24  1  0
 16  7  1  0
M  CHG  1   1   1
M  END
>  <cnnaffinity>  (1) 
5.23327

>  <plip>  (1) 
-0.03571428571428571

>  <filename>  (1) 
[H][c]1[n][c]([H])[c]([C@@]([H])([C]([H])([H])[c]2[n][c](-[c]3[c]([H])[c]([H])[n][c]([C]([F])([F])[F])[c]3[H])[n][o]2)[N+]([H])([H])[H])[c]([H])[c]1[H]

>  <combo1>  (1) 
-0.18525539428937318

$$$$
