
     RDKit          3D

 29 31  0  0  0  0  0  0  0  0999 V2000
    4.7087    1.3420   18.9091 C   0  0  0  0  0  0  0  0  0  0  0  0
    5.4158    1.3958   17.7047 C   0  0  0  0  0  0  0  0  0  0  0  0
    6.5680    0.7363   17.4971 N   0  0  0  0  0  0  0  0  0  0  0  0
    7.0609    0.0313   18.5212 C   0  0  0  0  0  0  0  0  0  0  0  0
    6.4270   -0.1079   19.7662 C   0  0  0  0  0  0  0  0  0  0  0  0
    7.1710   -0.8257   20.8662 C   0  0  0  0  0  0  0  0  0  0  0  0
    8.3307    0.0061   21.1639 N   0  0  0  0  0  0  0  0  0  0  0  0
    9.0956   -0.0691   22.2709 C   0  0  0  0  0  0  0  0  0  0  0  0
    9.2061   -1.2108   22.9386 N   0  0  0  0  0  0  0  0  0  0  0  0
   10.0592   -1.1867   23.9691 C   0  0  0  0  0  0  0  0  0  0  0  0
   10.7621   -0.0625   24.3213 C   0  0  0  0  0  0  0  0  0  0  0  0
   11.7873    0.2770   25.3475 C   0  0  0  0  0  0  0  0  0  0  0  0
   12.3365    1.5151   24.9040 O   0  0  0  0  0  0  0  0  0  0  0  0
   11.3820    2.1856   24.0836 C   0  0  0  0  0  0  0  0  0  0  0  0
   10.5228    1.0720   23.5461 C   0  0  0  0  0  0  0  0  0  0  0  0
    9.6887    1.1061   22.5343 N   0  0  0  0  0  0  0  0  0  0  0  0
   11.9077    2.7283   23.2980 H   0  0  0  0  0  0  0  0  0  0  0  0
   10.7795    2.9006   24.6685 H   0  0  0  0  0  0  0  0  0  0  0  0
   11.3362    0.3908   26.3458 H   0  0  0  0  0  0  0  0  0  0  0  0
   12.6001   -0.4512   25.4182 H   0  0  0  0  0  0  0  0  0  0  0  0
   10.1589   -2.1134   24.5404 H   0  0  0  0  0  0  0  0  0  0  0  0
    8.2230    0.9996   21.0363 H   0  0  0  0  0  0  0  0  0  0  0  0
    7.5389   -1.8016   20.5194 H   0  0  0  0  0  0  0  0  0  0  0  0
    6.5198   -1.0013   21.7405 H   0  0  0  0  0  0  0  0  0  0  0  0
    5.2137    0.5631   19.9559 C   0  0  0  0  0  0  0  0  0  0  0  0
    4.6867    0.4953   20.9109 H   0  0  0  0  0  0  0  0  0  0  0  0
    8.0243   -0.4525   18.3484 H   0  0  0  0  0  0  0  0  0  0  0  0
    5.0504    1.9967   16.8732 H   0  0  0  0  0  0  0  0  0  0  0  0
    3.8143    1.9433   19.0316 H   0  0  0  0  0  0  0  0  0  0  0  0
  1  2  2  0
  2  3  1  0
  3  4  2  0
  4  5  1  0
  5  6  1  0
  6  7  1  0
  7  8  1  0
  8  9  2  0
  9 10  1  0
 10 11  2  0
 11 12  1  0
 12 13  1  0
 13 14  1  0
 14 15  1  0
 15 16  2  0
 14 17  1  0
 14 18  1  0
 12 19  1  0
 12 20  1  0
 10 21  1  0
  7 22  1  0
  6 23  1  0
  6 24  1  0
  5 25  2  0
 25 26  1  0
  4 27  1  0
  2 28  1  0
  1 29  1  0
 25  1  1  0
 16  8  1  0
 15 11  1  0
M  END
>  <cnnaffinity>  (1) 
4.60742

>  <plip>  (1) 
-0.03571428571428571

>  <filename>  (1) 
[H][c]1[n][c]([H])[c]([C]([H])([H])[N]([H])[c]2[n][c]([H])[c]3[c]([n]2)[C]([H])([H])[O][C]3([H])[H])[c]([H])[c]1[H]

>  <combo1>  (1) 
-0.24030246038526243

$$$$
