
     RDKit          3D

 20 21  0  0  0  0  0  0  0  0999 V2000
   12.0804   -1.8945   20.0959 H   0  0  0  0  0  0  0  0  0  0  0  0
   12.1706   -1.8577   21.1277 N   0  0  0  0  0  0  0  0  0  0  0  0
   11.0729   -2.0210   21.6389 N   0  0  0  0  0  4  0  0  0  0  0  0
   10.1141   -2.2666   22.3271 N   0  0  0  0  0  0  0  0  0  0  0  0
    8.8564   -1.7374   22.0377 C   0  0  0  0  0  0  0  0  0  0  0  0
    8.6307   -1.1087   20.8279 N   0  0  0  0  0  0  0  0  0  0  0  0
    7.3973   -0.7048   20.9426 C   0  0  0  0  0  0  0  0  0  0  0  0
    6.6367    0.0082   19.9038 C   0  0  0  0  0  0  0  0  0  0  0  0
    7.1596    0.0608   18.5957 C   0  0  0  0  0  0  0  0  0  0  0  0
    8.1116   -0.4179   18.3736 H   0  0  0  0  0  0  0  0  0  0  0  0
    6.5541    0.6756   17.5779 N   0  0  0  0  0  0  0  0  0  0  0  0
    5.3931    1.2973   17.8308 C   0  0  0  0  0  0  0  0  0  0  0  0
    4.9248    1.8036   16.9849 H   0  0  0  0  0  0  0  0  0  0  0  0
    4.7955    1.3145   19.0939 C   0  0  0  0  0  0  0  0  0  0  0  0
    3.8669    1.8510   19.2402 H   0  0  0  0  0  0  0  0  0  0  0  0
    5.4241    0.6584   20.1517 C   0  0  0  0  0  0  0  0  0  0  0  0
    4.9798    0.6759   21.1453 H   0  0  0  0  0  0  0  0  0  0  0  0
    6.9136   -1.0501   22.1607 N   0  0  0  0  0  0  0  0  0  0  0  0
    5.9815   -0.9273   22.5258 H   0  0  0  0  0  0  0  0  0  0  0  0
    7.8327   -1.7183   22.8747 N   0  0  0  0  0  0  0  0  0  0  0  0
  1  2  1  0
  2  3  2  0
  3  4  2  0
  4  5  1  0
  5  6  1  0
  6  7  2  0
  7  8  1  0
  8  9  2  0
  9 10  1  0
  9 11  1  0
 11 12  2  0
 12 13  1  0
 12 14  1  0
 14 15  1  0
 14 16  2  0
 16 17  1  0
  7 18  1  0
 18 19  1  0
 18 20  1  0
 20  5  2  0
 16  8  1  0
M  CHG  1   3   1
M  END
>  <cnnaffinity>  (1) 
4.77705

>  <plip>  (1) 
-0.03333333333333333

>  <filename>  (1) 
[H][N]=[N+]=[N][c]1[n][c](-[c]2[c]([H])[n][c]([H])[c]([H])[c]2[H])[n]([H])[n]1

>  <combo1>  (1) 
-0.28207049503828013

$$$$
