
     RDKit          3D

 30 32  0  0  0  0  0  0  0  0999 V2000
    4.9160    1.7767   16.9987 H   0  0  0  0  0  0  0  0  0  0  0  0
    5.4068    1.2885   17.8420 C   0  0  0  0  0  0  0  0  0  0  0  0
    6.5713    0.6709   17.5940 N   0  0  0  0  0  0  0  0  0  0  0  0
    7.1776    0.0552   18.6185 C   0  0  0  0  0  0  0  0  0  0  0  0
    8.1214   -0.4281   18.3780 H   0  0  0  0  0  0  0  0  0  0  0  0
    6.6706   -0.0063   19.9392 C   0  0  0  0  0  0  0  0  0  0  0  0
    7.3477   -0.6779   20.9688 N   0  0  0  0  0  0  0  0  0  0  0  0
    6.8485   -0.7394   22.2326 N   0  0  0  0  0  0  0  0  0  0  0  0
    7.6698   -1.4042   22.9735 C   0  0  0  0  0  0  0  0  0  0  0  0
    7.4243   -1.6469   24.4223 C   0  0  0  0  0  0  0  0  0  0  0  0
    6.4428   -2.1151   24.5503 H   0  0  0  0  0  0  0  0  0  0  0  0
    8.1702   -2.3418   24.8220 H   0  0  0  0  0  0  0  0  0  0  0  0
    7.4679   -0.3706   25.1927 C   0  0  0  0  0  0  0  0  0  0  0  0
    8.6301    0.1689   25.6831 N   0  0  0  0  0  0  0  0  0  0  0  0
    8.2910    1.3134   26.2178 C   0  0  0  0  0  0  0  0  0  0  0  0
    8.9608    2.0159   26.7156 H   0  0  0  0  0  0  0  0  0  0  0  0
    6.9550    1.5467   26.0857 N   0  0  0  0  0  0  0  0  0  0  0  0
    6.4612    2.3581   26.4091 H   0  0  0  0  0  0  0  0  0  0  0  0
    6.4193    0.4672   25.4256 C   0  0  0  0  0  0  0  0  0  0  0  0
    5.3790    0.3664   25.1450 H   0  0  0  0  0  0  0  0  0  0  0  0
    8.8821   -1.8881   22.2383 C   0  0  0  0  0  0  0  0  0  0  0  0
    9.7981   -1.4868   22.6766 H   0  0  0  0  0  0  0  0  0  0  0  0
    8.9463   -2.9809   22.2592 H   0  0  0  0  0  0  0  0  0  0  0  0
    8.6310   -1.3395   20.8344 C   0  0  0  0  0  0  0  0  0  0  0  0
    9.4155   -0.6565   20.4822 H   0  0  0  0  0  0  0  0  0  0  0  0
    8.5642   -2.1405   20.1090 H   0  0  0  0  0  0  0  0  0  0  0  0
    5.4436    0.6453   20.1759 C   0  0  0  0  0  0  0  0  0  0  0  0
    5.0105    0.6258   21.1771 H   0  0  0  0  0  0  0  0  0  0  0  0
    4.8156    1.3028   19.1141 C   0  0  0  0  0  0  0  0  0  0  0  0
    3.8813    1.8376   19.2652 H   0  0  0  0  0  0  0  0  0  0  0  0
  1  2  1  0
  2  3  2  0
  3  4  1  0
  4  5  1  0
  4  6  2  0
  6  7  1  0
  7  8  1  0
  8  9  2  0
  9 10  1  0
 10 11  1  0
 10 12  1  0
 10 13  1  0
 13 14  1  0
 14 15  2  0
 15 16  1  0
 15 17  1  0
 17 18  1  0
 17 19  1  0
 19 20  1  0
  9 21  1  0
 21 22  1  0
 21 23  1  0
 21 24  1  0
 24 25  1  0
 24 26  1  0
  6 27  1  0
 27 28  1  0
 27 29  2  0
 29 30  1  0
 29  2  1  0
 24  7  1  0
 19 13  2  0
M  END
>  <cnnaffinity>  (1) 
4.72834

>  <plip>  (1) 
-0.03571428571428571

>  <filename>  (1) 
[H][c]1[n][c]([H])[c]([N]2[N]=[C]([C]([H])([H])[c]3[n][c]([H])[n]([H])[c]3[H])[C]([H])([H])[C]2([H])[H])[c]([H])[c]1[H]

>  <combo1>  (1) 
-0.24767683472489624

$$$$
