
     RDKit          3D

 39 40  0  0  0  0  0  0  0  0999 V2000
    7.7293    7.0014   22.3041 H   0  0  0  0  0  0  0  0  0  0  0  0
    8.3520    6.5426   21.7109 O   0  0  0  0  0  0  0  0  0  0  0  0
    8.4648    5.2232   22.1746 N   0  0  0  0  0  0  0  0  0  0  0  0
    8.1075    4.5874   21.4711 H   0  0  0  0  0  0  0  0  0  0  0  0
    9.6727    4.7959   22.7338 C   0  0  0  0  0  0  0  0  0  0  0  0
   10.3795    5.5022   23.4157 O   0  0  0  0  0  0  0  0  0  0  0  0
    9.9461    3.3062   22.5322 C   0  0  0  0  0  0  0  0  0  0  0  0
    9.5182    2.9399   21.5947 H   0  0  0  0  0  0  0  0  0  0  0  0
   11.0307    3.2053   22.4475 H   0  0  0  0  0  0  0  0  0  0  0  0
    9.4470    2.4436   23.6997 C   0  0  0  0  0  0  0  0  0  0  0  0
    8.3548    2.4960   23.7699 H   0  0  0  0  0  0  0  0  0  0  0  0
    9.8249    2.8714   24.6362 H   0  0  0  0  0  0  0  0  0  0  0  0
    9.8773    0.9685   23.6385 C   0  0  0  0  0  0  0  0  0  0  0  0
   10.9751    0.9105   23.7010 H   0  0  0  0  0  0  0  0  0  0  0  0
    9.4885    0.4747   24.5409 H   0  0  0  0  0  0  0  0  0  0  0  0
    9.4236    0.1550   22.4081 C   0  0  0  0  0  0  0  0  0  0  0  0
    9.9747    0.4700   21.5082 H   0  0  0  0  0  0  0  0  0  0  0  0
    9.7187   -0.8913   22.5727 H   0  0  0  0  0  0  0  0  0  0  0  0
    7.9125    0.2244   22.0864 C   0  0  2  0  0  0  0  0  0  0  0  0
    7.6784    1.2723   21.8537 H   0  0  0  0  0  0  0  0  0  0  0  0
    7.0382   -0.1564   23.2698 C   0  0  0  0  0  0  0  0  0  0  0  0
    6.7732    0.4857   24.2675 O   0  0  0  0  0  0  0  0  0  0  0  0
    6.5474   -1.4061   23.0513 N   0  0  0  0  0  0  0  0  0  0  0  0
    5.7612   -1.6014   23.6556 H   0  0  0  0  0  0  0  0  0  0  0  0
    6.6273   -1.8518   21.6730 C   0  0  0  0  0  0  0  0  0  0  0  0
    5.6253   -1.9674   21.2328 H   0  0  0  0  0  0  0  0  0  0  0  0
    7.1114   -2.8357   21.6061 H   0  0  0  0  0  0  0  0  0  0  0  0
    7.4555   -0.7436   20.9507 C   0  0  1  0  0  0  0  0  0  0  0  0
    8.3228   -1.2266   20.4756 H   0  0  0  0  0  0  0  0  0  0  0  0
    6.6799   -0.0176   19.8622 C   0  0  0  0  0  0  0  0  0  0  0  0
    7.1795    0.0560   18.5498 C   0  0  0  0  0  0  0  0  0  0  0  0
    8.1220   -0.4353   18.3076 H   0  0  0  0  0  0  0  0  0  0  0  0
    6.5767    0.6919   17.5387 N   0  0  0  0  0  0  0  0  0  0  0  0
    5.4195    1.3118   17.8089 C   0  0  0  0  0  0  0  0  0  0  0  0
    4.9557    1.8355   16.9755 H   0  0  0  0  0  0  0  0  0  0  0  0
    4.8212    1.3032   19.0727 C   0  0  0  0  0  0  0  0  0  0  0  0
    3.8873    1.8314   19.2227 H   0  0  0  0  0  0  0  0  0  0  0  0
    5.4605    0.6301   20.1172 C   0  0  0  0  0  0  0  0  0  0  0  0
    5.0199    0.6141   21.1168 H   0  0  0  0  0  0  0  0  0  0  0  0
  1  2  1  0
  2  3  1  0
  3  4  1  0
  3  5  1  0
  5  6  2  0
  5  7  1  0
  7  8  1  0
  7  9  1  0
  7 10  1  0
 10 11  1  0
 10 12  1  0
 10 13  1  0
 13 14  1  0
 13 15  1  0
 13 16  1  0
 16 17  1  0
 16 18  1  0
 16 19  1  0
 19 20  1  6
 19 21  1  0
 21 22  2  0
 21 23  1  0
 23 24  1  0
 23 25  1  0
 25 26  1  0
 25 27  1  0
 25 28  1  0
 28 29  1  6
 28 30  1  0
 30 31  2  0
 31 32  1  0
 31 33  1  0
 33 34  2  0
 34 35  1  0
 34 36  1  0
 36 37  1  0
 36 38  2  0
 38 39  1  0
 28 19  1  0
 38 30  1  0
M  END
>  <cnnaffinity>  (1) 
5.06051

>  <plip>  (1) 
-0.07142857142857142

>  <filename>  (1) 
[H][O][N]([H])[C](=[O])[C]([H])([H])[C]([H])([H])[C]([H])([H])[C]([H])([H])[C@]1([H])[C](=[O])[N]([H])[C]([H])([H])[C@@]1([H])[c]1[c]([H])[n][c]([H])[c]([H])[c]1[H]

>  <combo1>  (1) 
-0.43446774651069986

$$$$
