
     RDKit          3D

 27 29  0  0  0  0  0  0  0  0999 V2000
    5.7411   -2.1664   21.5379 O   0  0  0  0  0  0  0  0  0  0  0  0
    6.7921   -1.5913   21.7685 C   0  0  0  0  0  0  0  0  0  0  0  0
    7.3895   -0.7141   20.8911 N   0  0  0  0  0  0  0  0  0  0  0  0
    6.6975   -0.0117   19.8688 C   0  0  0  0  0  0  0  0  0  0  0  0
    5.4780    0.6269   20.1326 C   0  0  0  0  0  0  0  0  0  0  0  0
    4.8363    1.2990   19.0873 C   0  0  0  0  0  0  0  0  0  0  0  0
    5.4277    1.2948   17.8191 C   0  0  0  0  0  0  0  0  0  0  0  0
    6.5965    0.6860   17.5493 N   0  0  0  0  0  0  0  0  0  0  0  0
    7.2147    0.0626   18.5611 C   0  0  0  0  0  0  0  0  0  0  0  0
    8.1607   -0.4345   18.3464 H   0  0  0  0  0  0  0  0  0  0  0  0
    4.9450    1.7959   16.9843 H   0  0  0  0  0  0  0  0  0  0  0  0
    3.8958    1.8173   19.2476 H   0  0  0  0  0  0  0  0  0  0  0  0
    5.0557    0.5789   21.1357 H   0  0  0  0  0  0  0  0  0  0  0  0
    8.3146   -0.3956   21.1634 H   0  0  0  0  0  0  0  0  0  0  0  0
    7.4952   -1.7707   23.0171 C   0  0  0  0  0  0  0  0  0  0  0  0
    8.6517   -1.1330   23.4749 C   0  0  0  0  0  0  0  0  0  0  0  0
    9.5892   -0.3473   22.8665 N   0  0  0  0  0  0  0  0  0  0  0  0
   10.6184    0.0252   23.6184 C   0  0  0  0  0  0  0  0  0  0  0  0
   10.7793   -0.3593   24.9905 C   0  0  0  0  0  0  0  0  0  0  0  0
    9.7859   -1.0954   25.5806 C   0  0  0  0  0  0  0  0  0  0  0  0
    8.7201   -1.4697   24.8155 N   0  0  0  0  0  0  0  0  0  0  0  0
    7.6896   -2.2581   25.2296 N   0  0  0  0  0  0  0  0  0  0  0  0
    6.9694   -2.4353   24.1377 C   0  0  0  0  0  0  0  0  0  0  0  0
    6.0664   -3.0357   24.1825 H   0  0  0  0  0  0  0  0  0  0  0  0
    9.7402   -1.4553   26.6017 H   0  0  0  0  0  0  0  0  0  0  0  0
   11.6601   -0.0753   25.5556 H   0  0  0  0  0  0  0  0  0  0  0  0
   11.3602    0.6946   23.1806 H   0  0  0  0  0  0  0  0  0  0  0  0
  1  2  2  0
  2  3  1  0
  3  4  1  0
  4  5  2  0
  5  6  1  0
  6  7  2  0
  7  8  1  0
  8  9  2  0
  9 10  1  0
  7 11  1  0
  6 12  1  0
  5 13  1  0
  3 14  1  0
  2 15  1  0
 15 16  2  0
 16 17  1  0
 17 18  2  0
 18 19  1  0
 19 20  2  0
 20 21  1  0
 21 22  1  0
 22 23  2  0
 23 24  1  0
 20 25  1  0
 19 26  1  0
 18 27  1  0
  9  4  1  0
 23 15  1  0
 21 16  1  0
M  END
>  <cnnaffinity>  (1) 
4.74858

>  <plip>  (1) 
-0.06896551724137931

>  <filename>  (1) 
[H][c]1[n][c]([H])[c]([N]([H])[C](=[O])[c]2[c]([H])[n][n]3[c]([H])[c]([H])[c]([H])[n][c]23)[c]([H])[c]1[H]

>  <combo1>  (1) 
-0.4562935596380577

$$$$
