
     RDKit          3D

 29 30  0  0  0  0  0  0  0  0999 V2000
    4.8868    1.8518   17.0368 H   0  0  0  0  0  0  0  0  0  0  0  0
    5.3990    1.3063   17.8285 C   0  0  0  0  0  0  0  0  0  0  0  0
    6.5571    0.7199   17.4814 N   0  0  0  0  0  0  0  0  0  0  0  0
    7.2194    0.0532   18.4340 C   0  0  0  0  0  0  0  0  0  0  0  0
    8.1701   -0.3950   18.1591 H   0  0  0  0  0  0  0  0  0  0  0  0
    6.7518   -0.0949   19.7618 C   0  0  0  0  0  0  0  0  0  0  0  0
    7.4972   -0.8262   20.7642 N   0  0  0  0  0  0  0  0  0  0  0  0
    8.8027   -0.5468   21.1649 C   0  0  0  0  0  0  0  0  0  0  0  0
    9.5325    0.2542   20.6496 O   0  0  0  0  0  0  0  0  0  0  0  0
    9.0641   -1.4806   22.3776 C   0  0  0  0  0  0  0  0  0  0  0  0
   10.0520   -1.6382   23.0448 O   0  0  0  0  0  0  0  0  0  0  0  0
    7.8763   -2.1568   22.5508 N   0  0  0  0  0  0  0  0  0  0  0  0
    7.6462   -3.2209   23.5510 C   0  0  0  0  0  0  0  0  0  0  0  0
    8.4195   -3.1537   24.3156 H   0  0  0  0  0  0  0  0  0  0  0  0
    6.6663   -3.0391   24.0063 H   0  0  0  0  0  0  0  0  0  0  0  0
    7.6841   -4.6931   23.0366 C   0  0  0  0  0  0  0  0  0  0  0  0
    8.5902   -5.4608   23.3008 O   0  0  0  0  0  0  0  0  0  0  0  0
    6.5960   -5.0277   22.2886 N   0  0  0  0  0  0  0  0  0  0  0  0
    6.0336   -4.2441   21.9707 H   0  0  0  0  0  0  0  0  0  0  0  0
    6.5449   -6.2640   21.5288 C   0  0  0  0  0  0  0  0  0  0  0  0
    5.5120   -6.4634   21.2296 H   0  0  0  0  0  0  0  0  0  0  0  0
    6.8919   -7.1004   22.1412 H   0  0  0  0  0  0  0  0  0  0  0  0
    7.1728   -6.2205   20.6303 H   0  0  0  0  0  0  0  0  0  0  0  0
    6.9630   -1.8175   21.5687 C   0  0  0  0  0  0  0  0  0  0  0  0
    5.8911   -2.3645   21.4324 O   0  0  0  0  0  0  0  0  0  0  0  0
    5.5361    0.5065   20.1044 C   0  0  0  0  0  0  0  0  0  0  0  0
    5.1419    0.4108   21.1173 H   0  0  0  0  0  0  0  0  0  0  0  0
    4.8533    1.2340   19.1165 C   0  0  0  0  0  0  0  0  0  0  0  0
    3.9184    1.7496   19.3258 H   0  0  0  0  0  0  0  0  0  0  0  0
  1  2  1  0
  2  3  2  0
  3  4  1  0
  4  5  1  0
  4  6  2  0
  6  7  1  0
  7  8  1  0
  8  9  2  0
  8 10  1  0
 10 11  2  0
 10 12  1  0
 12 13  1  0
 13 14  1  0
 13 15  1  0
 13 16  1  0
 16 17  2  0
 16 18  1  0
 18 19  1  0
 18 20  1  0
 20 21  1  0
 20 22  1  0
 20 23  1  0
 12 24  1  0
 24 25  2  0
  6 26  1  0
 26 27  1  0
 26 28  2  0
 28 29  1  0
 28  2  1  0
 24  7  1  0
M  END
>  <cnnaffinity>  (1) 
4.58525

>  <plip>  (1) 
-0.06896551724137931

>  <filename>  (1) 
[H][c]1[n][c]([H])[c]([N]2[C](=[O])[C](=[O])[N]([C]([H])([H])[C](=[O])[N]([H])[C]([H])([H])[H])[C]2=[O])[c]([H])[c]1[H]

>  <combo1>  (1) 
-0.4019755781371398

$$$$
