
     RDKit          3D

 27 29  0  0  0  0  0  0  0  0999 V2000
    4.9125    1.7802   16.9958 H   0  0  0  0  0  0  0  0  0  0  0  0
    5.4006    1.2940   17.8370 C   0  0  0  0  0  0  0  0  0  0  0  0
    6.5661    0.6812   17.5708 N   0  0  0  0  0  0  0  0  0  0  0  0
    7.1664    0.0566   18.5905 C   0  0  0  0  0  0  0  0  0  0  0  0
    8.1172   -0.4298   18.3782 H   0  0  0  0  0  0  0  0  0  0  0  0
    6.6315   -0.0238   19.8880 C   0  0  0  0  0  0  0  0  0  0  0  0
    7.5459   -0.8434   21.1792 S   0  0  0  0  0  0  0  0  0  0  0  0
    8.4978    0.5814   21.6828 C   0  0  0  0  0  0  0  0  0  0  0  0
    9.6958    0.8384   21.0337 C   0  0  0  0  0  0  0  0  0  0  0  0
   10.0345    0.1294   20.2843 H   0  0  0  0  0  0  0  0  0  0  0  0
   10.4770    1.9780   21.3486 C   0  0  0  0  0  0  0  0  0  0  0  0
   11.4260    2.1473   20.8419 H   0  0  0  0  0  0  0  0  0  0  0  0
   10.0401    2.8667   22.3060 C   0  0  0  0  0  0  0  0  0  0  0  0
   10.6239    3.7484   22.5662 H   0  0  0  0  0  0  0  0  0  0  0  0
    8.7938    2.6487   22.9715 C   0  0  0  0  0  0  0  0  0  0  0  0
    8.3035    3.5464   23.9681 C   0  0  0  0  0  0  0  0  0  0  0  0
    8.8950    4.4239   24.2266 H   0  0  0  0  0  0  0  0  0  0  0  0
    7.1006    3.2771   24.5726 C   0  0  0  0  0  0  0  0  0  0  0  0
    6.6927    3.9335   25.3340 H   0  0  0  0  0  0  0  0  0  0  0  0
    6.3781    2.1130   24.1843 C   0  0  0  0  0  0  0  0  0  0  0  0
    5.4270    1.8958   24.6591 H   0  0  0  0  0  0  0  0  0  0  0  0
    6.7808    1.2563   23.2713 N   0  0  0  0  0  0  0  0  0  0  0  0
    7.9899    1.4994   22.6621 C   0  0  0  0  0  0  0  0  0  0  0  0
    5.4262    0.6401   20.1552 C   0  0  0  0  0  0  0  0  0  0  0  0
    5.0115    0.6292   21.1662 H   0  0  0  0  0  0  0  0  0  0  0  0
    4.8002    1.3119   19.1022 C   0  0  0  0  0  0  0  0  0  0  0  0
    3.8697    1.8477   19.2593 H   0  0  0  0  0  0  0  0  0  0  0  0
  1  2  1  0
  2  3  2  0
  3  4  1  0
  4  5  1  0
  4  6  2  0
  6  7  1  0
  7  8  1  0
  8  9  2  0
  9 10  1  0
  9 11  1  0
 11 12  1  0
 11 13  2  0
 13 14  1  0
 13 15  1  0
 15 16  2  0
 16 17  1  0
 16 18  1  0
 18 19  1  0
 18 20  2  0
 20 21  1  0
 20 22  1  0
 22 23  2  0
  6 24  1  0
 24 25  1  0
 24 26  2  0
 26 27  1  0
 26  2  1  0
 23  8  1  0
 23 15  1  0
M  END
>  <cnnaffinity>  (1) 
4.57664

>  <plip>  (1) 
-0.03571428571428571

>  <filename>  (1) 
[H][c]1[n][c]([H])[c]([S][c]2[c]([H])[c]([H])[c]([H])[c]3[c]([H])[c]([H])[c]([H])[n][c]23)[c]([H])[c]1[H]

>  <combo1>  (1) 
-0.22862098283284532

$$$$
