
     RDKit          3D

 38 41  0  0  0  0  0  0  0  0999 V2000
    9.5785    0.7384   20.1960 O   0  0  0  0  0  0  0  0  0  0  0  0
    9.1984    1.0690   21.3113 C   0  0  0  0  0  0  0  0  0  0  0  0
    8.1355    0.4847   21.9205 N   0  0  0  0  0  0  0  0  0  0  0  0
    7.3731   -0.5049   21.1973 C   0  0  0  0  0  0  0  0  0  0  0  0
    6.6238    0.1186   20.0261 C   0  0  0  0  0  0  0  0  0  0  0  0
    5.3848    0.7457   20.1932 C   0  0  0  0  0  0  0  0  0  0  0  0
    4.7754    1.3417   19.0871 C   0  0  0  0  0  0  0  0  0  0  0  0
    5.4200    1.2888   17.8470 C   0  0  0  0  0  0  0  0  0  0  0  0
    6.6056    0.6935   17.6617 N   0  0  0  0  0  0  0  0  0  0  0  0
    7.1889    0.1471   18.7359 C   0  0  0  0  0  0  0  0  0  0  0  0
    8.1735   -0.2802   18.5604 H   0  0  0  0  0  0  0  0  0  0  0  0
    4.9765    1.7461   16.9656 H   0  0  0  0  0  0  0  0  0  0  0  0
    3.8220    1.8468   19.1723 H   0  0  0  0  0  0  0  0  0  0  0  0
    4.9087    0.7624   21.1765 H   0  0  0  0  0  0  0  0  0  0  0  0
    8.2903   -1.6930   20.8198 C   0  0  0  0  0  0  0  0  0  0  0  0
    7.4568   -2.6457   21.6916 C   0  0  0  0  0  0  0  0  0  0  0  0
    6.5316   -1.4615   22.0655 C   0  0  0  0  0  0  0  0  0  0  0  0
    5.5253   -1.5837   21.6619 H   0  0  0  0  0  0  0  0  0  0  0  0
    6.4713   -1.1976   23.1227 H   0  0  0  0  0  0  0  0  0  0  0  0
    6.9494   -3.4364   21.1373 H   0  0  0  0  0  0  0  0  0  0  0  0
    8.0109   -3.0955   22.5199 H   0  0  0  0  0  0  0  0  0  0  0  0
    9.3326   -1.5609   21.1188 H   0  0  0  0  0  0  0  0  0  0  0  0
    8.2335   -1.8368   19.7538 H   0  0  0  0  0  0  0  0  0  0  0  0
    7.8218    0.8908   22.7863 H   0  0  0  0  0  0  0  0  0  0  0  0
    9.8910    2.1199   22.0895 C   0  0  0  0  0  0  0  0  0  0  0  0
   11.0395    2.7705   21.7003 C   0  0  0  0  0  0  0  0  0  0  0  0
   11.2973    3.6722   22.6881 N   0  0  0  0  0  0  0  0  0  0  0  0
   12.3228    4.5882   22.8157 C   0  0  0  0  0  0  0  0  0  0  0  0
   12.3649    5.3767   23.9266 C   0  0  0  0  0  0  0  0  0  0  0  0
   11.3296    5.2695   24.9258 C   0  0  0  0  0  0  0  0  0  0  0  0
   10.2993    4.3840   24.7745 C   0  0  0  0  0  0  0  0  0  0  0  0
   10.2796    3.5232   23.6381 C   0  0  0  0  0  0  0  0  0  0  0  0
    9.4333    2.5757   23.2948 N   0  0  0  0  0  0  0  0  0  0  0  0
    9.4963    4.2617   25.4926 H   0  0  0  0  0  0  0  0  0  0  0  0
   11.3799    5.8930   25.8148 H   0  0  0  0  0  0  0  0  0  0  0  0
   13.1752    6.0843   24.0443 H   0  0  0  0  0  0  0  0  0  0  0  0
   13.0225    4.6095   21.9878 H   0  0  0  0  0  0  0  0  0  0  0  0
   11.6460    2.6915   20.8140 H   0  0  0  0  0  0  0  0  0  0  0  0
  1  2  2  0
  2  3  1  0
  3  4  1  0
  4  5  1  0
  5  6  2  0
  6  7  1  0
  7  8  2  0
  8  9  1  0
  9 10  2  0
 10 11  1  0
  8 12  1  0
  7 13  1  0
  6 14  1  0
  4 15  1  0
 15 16  1  0
 16 17  1  0
 17 18  1  0
 17 19  1  0
 16 20  1  0
 16 21  1  0
 15 22  1  0
 15 23  1  0
  3 24  1  0
  2 25  1  0
 25 26  2  0
 26 27  1  0
 27 28  1  0
 28 29  2  0
 29 30  1  0
 30 31  2  0
 31 32  1  0
 32 33  2  0
 31 34  1  0
 30 35  1  0
 29 36  1  0
 28 37  1  0
 26 38  1  0
 17  4  1  0
 33 25  1  0
 10  5  1  0
 32 27  1  0
M  END
>  <cnnaffinity>  (1) 
5.57434

>  <plip>  (1) 
-0.10714285714285714

>  <filename>  (1) 
[H][c]1[n][c]([H])[c]([C]2([N]([H])[C](=[O])[c]3[n][c]4[c]([H])[c]([H])[c]([H])[c]([H])[n]4[c]3[H])[C]([H])([H])[C]([H])([H])[C]2([H])[H])[c]([H])[c]1[H]

>  <combo1>  (1) 
-0.6809954485793058

$$$$
