
     RDKit          3D

 40 41  0  0  0  0  0  0  0  0999 V2000
   13.2709    1.1960   22.8364 C   0  0  0  0  0  0  0  0  0  0  0  0
   11.9419    0.8459   22.5459 O   0  0  0  0  0  0  0  0  0  0  0  0
   10.9592    1.3196   23.4412 C   0  0  0  0  0  0  0  0  0  0  0  0
    9.6160    0.7337   23.0102 C   0  0  0  0  0  0  0  0  0  0  0  0
    9.1126    1.1914   21.6225 C   0  0  0  0  0  0  0  0  0  0  0  0
    7.6814    0.7266   21.2799 C   0  0  0  0  0  0  0  0  0  0  0  0
    7.6346   -0.7298   21.3408 N   0  0  0  0  0  0  0  0  0  0  0  0
    6.5720   -1.4897   21.0437 C   0  0  0  0  0  0  0  0  0  0  0  0
    5.4892   -1.0279   20.6440 O   0  0  0  0  0  0  0  0  0  0  0  0
    6.7800   -2.9607   21.1429 C   0  0  0  0  0  0  0  0  0  0  0  0
    7.6768   -3.5334   21.9832 N   0  0  0  0  0  0  0  0  0  0  0  0
    7.7122   -4.8735   21.9960 C   0  0  0  0  0  0  0  0  0  0  0  0
    6.9095   -5.6241   21.1140 C   0  0  0  0  0  0  0  0  0  0  0  0
    6.0609   -5.0608   20.2432 N   0  0  0  0  0  0  0  0  0  0  0  0
    5.9803   -3.7327   20.2536 C   0  0  0  0  0  0  0  0  0  0  0  0
    5.1347   -3.2204   19.3779 O   0  0  0  0  0  0  0  0  0  0  0  0
    5.0221   -2.2695   19.6238 H   0  0  0  0  0  0  0  0  0  0  0  0
    6.9578   -6.7075   21.1007 H   0  0  0  0  0  0  0  0  0  0  0  0
    8.4045   -5.3545   22.6804 H   0  0  0  0  0  0  0  0  0  0  0  0
    8.4377   -1.2343   21.6830 H   0  0  0  0  0  0  0  0  0  0  0  0
    7.1532    1.1958   19.9265 C   0  0  0  0  0  0  0  0  0  0  0  0
    5.9505    1.9088   19.8181 C   0  0  0  0  0  0  0  0  0  0  0  0
    5.3841    2.1141   18.5566 C   0  0  0  0  0  0  0  0  0  0  0  0
    6.0677    1.6297   17.4367 C   0  0  0  0  0  0  0  0  0  0  0  0
    7.2343    0.9703   17.5088 N   0  0  0  0  0  0  0  0  0  0  0  0
    7.7435    0.7555   18.7336 C   0  0  0  0  0  0  0  0  0  0  0  0
    8.6744    0.1871   18.7549 H   0  0  0  0  0  0  0  0  0  0  0  0
    5.6716    1.7948   16.4395 H   0  0  0  0  0  0  0  0  0  0  0  0
    4.4446    2.6472   18.4375 H   0  0  0  0  0  0  0  0  0  0  0  0
    5.4400    2.2600   20.7171 H   0  0  0  0  0  0  0  0  0  0  0  0
    6.9971    1.1330   22.0444 H   0  0  0  0  0  0  0  0  0  0  0  0
    9.8102    0.8426   20.8528 H   0  0  0  0  0  0  0  0  0  0  0  0
    9.1389    2.2868   21.5753 H   0  0  0  0  0  0  0  0  0  0  0  0
    8.8624    0.9698   23.7715 H   0  0  0  0  0  0  0  0  0  0  0  0
    9.7373   -0.3568   23.0294 H   0  0  0  0  0  0  0  0  0  0  0  0
   11.1860    0.9936   24.4743 H   0  0  0  0  0  0  0  0  0  0  0  0
   10.9126    2.4247   23.4462 H   0  0  0  0  0  0  0  0  0  0  0  0
   13.8846    0.7141   22.0733 H   0  0  0  0  0  0  0  0  0  0  0  0
   13.4433    2.2815   22.7841 H   0  0  0  0  0  0  0  0  0  0  0  0
   13.6017    0.8384   23.8248 H   0  0  0  0  0  0  0  0  0  0  0  0
  1  2  1  0
  2  3  1  0
  3  4  1  0
  4  5  1  0
  5  6  1  0
  6  7  1  0
  7  8  1  0
  8  9  2  0
  8 10  1  0
 10 11  2  0
 11 12  1  0
 12 13  2  0
 13 14  1  0
 14 15  2  0
 15 16  1  0
 16 17  1  0
 13 18  1  0
 12 19  1  0
  7 20  1  0
  6 21  1  0
 21 22  2  0
 22 23  1  0
 23 24  2  0
 24 25  1  0
 25 26  2  0
 26 27  1  0
 24 28  1  0
 23 29  1  0
 22 30  1  0
  6 31  1  0
  5 32  1  0
  5 33  1  0
  4 34  1  0
  4 35  1  0
  3 36  1  0
  3 37  1  0
  1 38  1  0
  1 39  1  0
  1 40  1  0
 15 10  1  0
 26 21  1  0
M  END
>  <cnnaffinity>  (1) 
5.643

>  <plip>  (1) 
-0.13793103448275862

>  <filename>  (1) 
[H][O][c]1[n][c]([H])[c]([H])[n][c]1[C](=[O])[N]([H])[C]([H])([c]1[c]([H])[n][c]([H])[c]([H])[c]1[H])[C]([H])([H])[C]([H])([H])[C]([H])([H])[O][C]([H])([H])[H]

>  <combo1>  (1) 
-0.858151170103492

$$$$
