
     RDKit          3D

 32 35  0  0  0  0  0  0  0  0999 V2000
    8.5632   -1.8849   19.8168 H   0  0  0  0  0  0  0  0  0  0  0  0
    8.2868   -1.6415   20.8298 C   0  0  0  0  0  0  0  0  0  0  0  0
    8.8752   -2.3486   21.8042 N   0  0  0  0  0  0  0  0  0  0  0  0
    8.6104   -1.9216   23.0546 C   0  0  0  0  0  0  0  0  0  0  0  0
    9.1000   -2.4664   23.8510 H   0  0  0  0  0  0  0  0  0  0  0  0
    7.7950   -0.7920   23.3301 C   0  0  0  0  0  0  0  0  0  0  0  0
    7.6474   -0.2702   24.7110 C   0  0  0  0  0  0  0  0  0  0  0  0
    7.6258   -1.0364   25.8303 C   0  0  0  0  0  0  0  0  0  0  0  0
    7.6893   -2.1149   25.9016 H   0  0  0  0  0  0  0  0  0  0  0  0
    7.3867   -0.1430   27.2889 S   0  0  0  0  0  0  0  0  0  0  0  0
    7.3417    1.3580   26.4092 C   0  0  0  0  0  0  0  0  0  0  0  0
    7.1454    2.6470   26.9361 C   0  0  0  0  0  0  0  0  0  0  0  0
    6.9707    2.7896   27.9975 H   0  0  0  0  0  0  0  0  0  0  0  0
    7.1636    3.7332   26.0655 C   0  0  0  0  0  0  0  0  0  0  0  0
    7.0090    4.7365   26.4513 H   0  0  0  0  0  0  0  0  0  0  0  0
    7.3710    3.5394   24.6817 C   0  0  0  0  0  0  0  0  0  0  0  0
    7.3933    4.3984   24.0172 H   0  0  0  0  0  0  0  0  0  0  0  0
    7.5386    2.2671   24.1578 C   0  0  0  0  0  0  0  0  0  0  0  0
    7.6650    2.1162   23.0893 H   0  0  0  0  0  0  0  0  0  0  0  0
    7.5121    1.1451   25.0243 C   0  0  0  0  0  0  0  0  0  0  0  0
    7.1518   -0.1541   22.3265 N   0  0  0  0  0  0  0  0  0  0  0  0
    7.3829   -0.5796   21.0769 C   0  0  0  0  0  0  0  0  0  0  0  0
    6.6379    0.1048   19.9880 C   0  0  0  0  0  0  0  0  0  0  0  0
    7.1671    0.0991   18.6895 C   0  0  0  0  0  0  0  0  0  0  0  0
    8.1249   -0.3846   18.4957 H   0  0  0  0  0  0  0  0  0  0  0  0
    6.5801    0.6685   17.6379 N   0  0  0  0  0  0  0  0  0  0  0  0
    5.4083    1.2852   17.8511 C   0  0  0  0  0  0  0  0  0  0  0  0
    4.9638    1.7704   16.9864 H   0  0  0  0  0  0  0  0  0  0  0  0
    4.7769    1.3361   19.0996 C   0  0  0  0  0  0  0  0  0  0  0  0
    3.8219    1.8421   19.1948 H   0  0  0  0  0  0  0  0  0  0  0  0
    5.4064    0.7483   20.1974 C   0  0  0  0  0  0  0  0  0  0  0  0
    4.9770    0.7862   21.2008 H   0  0  0  0  0  0  0  0  0  0  0  0
  1  2  1  0
  2  3  2  0
  3  4  1  0
  4  5  1  0
  4  6  2  0
  6  7  1  0
  7  8  2  0
  8  9  1  0
  8 10  1  0
 10 11  1  0
 11 12  2  0
 12 13  1  0
 12 14  1  0
 14 15  1  0
 14 16  2  0
 16 17  1  0
 16 18  1  0
 18 19  1  0
 18 20  2  0
  6 21  1  0
 21 22  2  0
 22 23  1  0
 23 24  2  0
 24 25  1  0
 24 26  1  0
 26 27  2  0
 27 28  1  0
 27 29  1  0
 29 30  1  0
 29 31  2  0
 31 32  1  0
 22  2  1  0
 31 23  1  0
 20  7  1  0
 20 11  1  0
M  END
>  <cnnaffinity>  (1) 
5.57999

>  <plip>  (1) 
-0.0

>  <filename>  (1) 
[H][c]1[n][c]([H])[c](-[c]2[c]([H])[s][c]3[c]([H])[c]([H])[c]([H])[c]([H])[c]23)[n][c]1-[c]1[c]([H])[n][c]([H])[c]([H])[c]1[H]

>  <combo1>  (1) 
-6.427900825836982e-06

$$$$
