
     RDKit          3D

 32 34  0  0  0  0  0  0  0  0999 V2000
    5.0342    1.7932   16.9814 H   0  0  0  0  0  0  0  0  0  0  0  0
    5.4806    1.3074   17.8452 C   0  0  0  0  0  0  0  0  0  0  0  0
    6.6568    0.7019   17.6258 N   0  0  0  0  0  0  0  0  0  0  0  0
    7.2219    0.0721   18.6590 C   0  0  0  0  0  0  0  0  0  0  0  0
    8.1793   -0.4139   18.4812 H   0  0  0  0  0  0  0  0  0  0  0  0
    6.6363   -0.0084   19.9282 C   0  0  0  0  0  0  0  0  0  0  0  0
    7.2517   -0.8983   20.9859 C   0  0  0  0  0  0  0  0  0  0  0  0
    8.5434   -1.2082   20.6605 F   0  0  0  0  0  0  0  0  0  0  0  0
    7.3042   -0.1902   22.1675 F   0  0  0  0  0  0  0  0  0  0  0  0
    6.5019   -2.2864   21.2272 C   0  0  0  0  0  0  0  0  0  0  0  0
    6.1048   -2.9244   20.2695 O   0  0  0  0  0  0  0  0  0  0  0  0
    6.3832   -2.7165   22.5275 N   0  0  0  0  0  0  0  0  0  0  0  0
    6.7301   -2.1088   23.2516 H   0  0  0  0  0  0  0  0  0  0  0  0
    5.5710   -3.8097   22.9240 C   0  0  0  0  0  0  0  0  0  0  0  0
    5.9455   -4.6325   24.0146 C   0  0  0  0  0  0  0  0  0  0  0  0
    6.8607   -4.4085   24.5499 H   0  0  0  0  0  0  0  0  0  0  0  0
    5.1627   -5.7292   24.3768 C   0  0  0  0  0  0  0  0  0  0  0  0
    5.4374   -6.3607   25.2147 H   0  0  0  0  0  0  0  0  0  0  0  0
    3.9891   -6.0219   23.6465 C   0  0  0  0  0  0  0  0  0  0  0  0
    2.9811   -7.0484   23.6662 C   0  0  0  0  0  0  0  0  0  0  0  0
    2.9804   -7.9172   24.3126 H   0  0  0  0  0  0  0  0  0  0  0  0
    2.0606   -6.7206   22.7099 C   0  0  0  0  0  0  0  0  0  0  0  0
    1.1428   -7.2083   22.4187 H   0  0  0  0  0  0  0  0  0  0  0  0
    2.4342   -5.5456   22.0941 N   0  0  0  0  0  0  0  0  0  0  0  0
    1.9752   -5.0774   21.3281 H   0  0  0  0  0  0  0  0  0  0  0  0
    3.6200   -5.1268   22.6174 C   0  0  0  0  0  0  0  0  0  0  0  0
    4.3946   -4.0348   22.2377 C   0  0  0  0  0  0  0  0  0  0  0  0
    4.1117   -3.3642   21.4489 H   0  0  0  0  0  0  0  0  0  0  0  0
    5.4408    0.6862   20.1670 C   0  0  0  0  0  0  0  0  0  0  0  0
    5.0005    0.7290   21.1649 H   0  0  0  0  0  0  0  0  0  0  0  0
    4.8391    1.3339   19.0887 C   0  0  0  0  0  0  0  0  0  0  0  0
    3.9021    1.8680   19.1994 H   0  0  0  0  0  0  0  0  0  0  0  0
  1  2  1  0
  2  3  2  0
  3  4  1  0
  4  5  1  0
  4  6  2  0
  6  7  1  0
  7  8  1  0
  7  9  1  0
  7 10  1  0
 10 11  2  0
 10 12  1  0
 12 13  1  0
 12 14  1  0
 14 15  2  0
 15 16  1  0
 15 17  1  0
 17 18  1  0
 17 19  2  0
 19 20  1  0
 20 21  1  0
 20 22  2  0
 22 23  1  0
 22 24  1  0
 24 25  1  0
 24 26  1  0
 26 27  2  0
 27 28  1  0
  6 29  1  0
 29 30  1  0
 29 31  2  0
 31 32  1  0
 31  2  1  0
 27 14  1  0
 26 19  1  0
M  END
>  <cnnaffinity>  (1) 
5.08699

>  <plip>  (1) 
-0.13333333333333333

>  <filename>  (1) 
[H][c]1[n][c]([H])[c]([C]([F])([F])[C](=[O])[N]([H])[c]2[c]([H])[c]([H])[c]3[c]([H])[c]([H])[n]([H])[c]3[c]2[H])[c]([H])[c]1[H]

>  <combo1>  (1) 
-0.7870269484157512

$$$$
