
     RDKit          3D

 32 35  0  0  0  0  0  0  0  0999 V2000
    4.9640    1.8025   17.0107 H   0  0  0  0  0  0  0  0  0  0  0  0
    5.4349    1.2883   17.8450 C   0  0  0  0  0  0  0  0  0  0  0  0
    6.5844    0.6518   17.5723 N   0  0  0  0  0  0  0  0  0  0  0  0
    7.2029    0.0107   18.5716 C   0  0  0  0  0  0  0  0  0  0  0  0
    8.1441   -0.4866   18.3361 H   0  0  0  0  0  0  0  0  0  0  0  0
    6.6995   -0.0140   19.8822 C   0  0  0  0  0  0  0  0  0  0  0  0
    7.2842   -0.6979   20.9122 O   0  0  0  0  0  0  0  0  0  0  0  0
    8.6430   -0.7042   21.0549 C   0  0  0  0  0  0  0  0  0  0  0  0
    9.6519    0.1741   20.6200 C   0  0  0  0  0  0  0  0  0  0  0  0
    9.5666    1.0390   19.9882 H   0  0  0  0  0  0  0  0  0  0  0  0
   10.8420   -0.2155   21.0651 N   0  0  0  0  0  0  0  0  0  0  0  0
   10.5929   -1.3181   21.7665 N   0  0  0  0  0  0  0  0  0  0  0  0
   11.3554   -1.8277   22.1832 H   0  0  0  0  0  0  0  0  0  0  0  0
    9.2796   -1.6742   21.8050 C   0  0  0  0  0  0  0  0  0  0  0  0
    8.7713   -2.7992   22.5524 C   0  0  0  0  0  0  0  0  0  0  0  0
    7.0443   -3.1074   22.5863 S   0  0  0  0  0  0  0  0  0  0  0  0
    7.2646   -4.3635   23.7613 C   0  0  0  0  0  0  0  0  0  0  0  0
    6.2684   -5.1346   24.3858 C   0  0  0  0  0  0  0  0  0  0  0  0
    5.2309   -5.0140   24.0906 H   0  0  0  0  0  0  0  0  0  0  0  0
    6.6422   -6.0394   25.3723 C   0  0  0  0  0  0  0  0  0  0  0  0
    5.8752   -6.5809   25.9262 H   0  0  0  0  0  0  0  0  0  0  0  0
    8.0087   -6.2708   25.6601 C   0  0  0  0  0  0  0  0  0  0  0  0
    8.2918   -6.9913   26.4204 H   0  0  0  0  0  0  0  0  0  0  0  0
    9.0008   -5.5782   24.9825 C   0  0  0  0  0  0  0  0  0  0  0  0
   10.0556   -5.8003   25.1471 H   0  0  0  0  0  0  0  0  0  0  0  0
    8.6309   -4.5596   24.0743 C   0  0  0  0  0  0  0  0  0  0  0  0
    9.4686   -3.6432   23.3645 C   0  0  0  0  0  0  0  0  0  0  0  0
   10.5489   -3.6296   23.4842 H   0  0  0  0  0  0  0  0  0  0  0  0
    5.4903    0.6283   20.1618 C   0  0  0  0  0  0  0  0  0  0  0  0
    5.1027    0.5976   21.1794 H   0  0  0  0  0  0  0  0  0  0  0  0
    4.8462    1.2941   19.1164 C   0  0  0  0  0  0  0  0  0  0  0  0
    3.9064    1.8130   19.2740 H   0  0  0  0  0  0  0  0  0  0  0  0
  1  2  1  0
  2  3  2  0
  3  4  1  0
  4  5  1  0
  4  6  2  0
  6  7  1  0
  7  8  1  0
  8  9  1  0
  9 10  1  0
  9 11  2  0
 11 12  1  0
 12 13  1  0
 12 14  1  0
 14 15  1  0
 15 16  1  0
 16 17  1  0
 17 18  2  0
 18 19  1  0
 18 20  1  0
 20 21  1  0
 20 22  2  0
 22 23  1  0
 22 24  1  0
 24 25  1  0
 24 26  2  0
 26 27  1  0
 27 28  1  0
  6 29  1  0
 29 30  1  0
 29 31  2  0
 31 32  1  0
 31  2  1  0
 14  8  2  0
 27 15  2  0
 26 17  1  0
M  END
>  <cnnaffinity>  (1) 
5.7786

>  <plip>  (1) 
-0.10344827586206896

>  <filename>  (1) 
[H][c]1[n][c]([H])[c]([O][c]2[c]([H])[n][n]([H])[c]2-[c]2[s][c]3[c]([H])[c]([H])[c]([H])[c]([H])[c]3[c]2[H])[c]([H])[c]1[H]

>  <combo1>  (1) 
-0.6792615977634889

$$$$
