
     RDKit          3D

 34 35  0  0  0  0  0  0  0  0999 V2000
    6.8026   -4.2582   26.6027 C   0  0  0  0  0  0  0  0  0  0  0  0
    6.4665   -2.8119   26.2583 C   0  0  0  0  0  0  0  0  0  0  0  0
    6.9130   -1.7997   27.3161 C   0  0  0  0  0  0  0  0  0  0  0  0
    7.0342   -0.2180   26.4582 S   0  0  0  0  0  0  0  0  0  0  0  0
    7.8785   -1.1246   25.1363 C   0  0  0  0  0  0  0  0  0  0  0  0
    7.1481   -2.3811   25.0166 N   0  0  0  0  0  0  0  0  0  0  0  0
    6.7839   -2.9410   23.8089 C   0  0  0  0  0  0  0  0  0  0  0  0
    5.8972   -3.7731   23.7233 O   0  0  0  0  0  0  0  0  0  0  0  0
    7.5062   -2.4377   22.5572 C   0  0  0  0  0  0  0  0  0  0  0  0
    6.8001   -1.2257   21.9020 C   0  0  0  0  0  0  0  0  0  0  0  0
    7.5320   -0.6153   20.6992 C   0  0  0  0  0  0  0  0  0  0  0  0
    8.7329   -0.7296   20.5572 O   0  0  0  0  0  0  0  0  0  0  0  0
    6.7141    0.1180   19.6951 C   0  0  0  0  0  0  0  0  0  0  0  0
    5.4845    0.7347   19.9778 C   0  0  0  0  0  0  0  0  0  0  0  0
    4.8155    1.3755   18.9354 C   0  0  0  0  0  0  0  0  0  0  0  0
    5.3961    1.3746   17.6621 C   0  0  0  0  0  0  0  0  0  0  0  0
    6.5738    0.7883   17.3850 N   0  0  0  0  0  0  0  0  0  0  0  0
    7.2155    0.1907   18.3896 C   0  0  0  0  0  0  0  0  0  0  0  0
    8.1720   -0.2689   18.1482 H   0  0  0  0  0  0  0  0  0  0  0  0
    4.8999    1.8563   16.8265 H   0  0  0  0  0  0  0  0  0  0  0  0
    3.8660    1.8744   19.0937 H   0  0  0  0  0  0  0  0  0  0  0  0
    5.0671    0.7285   20.9866 H   0  0  0  0  0  0  0  0  0  0  0  0
    6.6535   -0.4142   22.6289 H   0  0  0  0  0  0  0  0  0  0  0  0
    5.7929   -1.5262   21.5879 H   0  0  0  0  0  0  0  0  0  0  0  0
    8.5542   -2.2040   22.7636 H   0  0  0  0  0  0  0  0  0  0  0  0
    7.5065   -3.2772   21.8585 H   0  0  0  0  0  0  0  0  0  0  0  0
    7.8650   -0.5405   24.2148 H   0  0  0  0  0  0  0  0  0  0  0  0
    8.9212   -1.3087   25.4287 H   0  0  0  0  0  0  0  0  0  0  0  0
    7.9081   -2.0592   27.6980 H   0  0  0  0  0  0  0  0  0  0  0  0
    6.2269   -1.7175   28.1618 H   0  0  0  0  0  0  0  0  0  0  0  0
    5.3756   -2.7309   26.1319 H   0  0  0  0  0  0  0  0  0  0  0  0
    6.3806   -4.5567   27.5676 H   0  0  0  0  0  0  0  0  0  0  0  0
    6.3782   -4.9108   25.8400 H   0  0  0  0  0  0  0  0  0  0  0  0
    7.8851   -4.4138   26.6359 H   0  0  0  0  0  0  0  0  0  0  0  0
  1  2  1  0
  2  3  1  0
  3  4  1  0
  4  5  1  0
  5  6  1  0
  6  7  1  0
  7  8  2  0
  7  9  1  0
  9 10  1  0
 10 11  1  0
 11 12  2  0
 11 13  1  0
 13 14  2  0
 14 15  1  0
 15 16  2  0
 16 17  1  0
 17 18  2  0
 18 19  1  0
 16 20  1  0
 15 21  1  0
 14 22  1  0
 10 23  1  0
 10 24  1  0
  9 25  1  0
  9 26  1  0
  5 27  1  0
  5 28  1  0
  3 29  1  0
  3 30  1  0
  2 31  1  0
  1 32  1  0
  1 33  1  0
  1 34  1  0
  6  2  1  0
 18 13  1  0
M  END
>  <cnnaffinity>  (1) 
4.41437

>  <plip>  (1) 
-0.07142857142857142

>  <filename>  (1) 
[H][c]1[n][c]([H])[c]([C](=[O])[C]([H])([H])[C]([H])([H])[C](=[O])[N]2[C]([H])([H])[S][C]([H])([H])[C]2([H])[C]([H])([H])[H])[c]([H])[c]1[H]

>  <combo1>  (1) 
-0.3975942788691041

$$$$
