
     RDKit          3D

 41 43  0  0  0  0  0  0  0  0999 V2000
    4.1918    6.0733   21.0659 N   0  0  0  0  0  4  0  0  0  0  0  0
    3.7102    4.9640   21.9769 C   0  0  2  0  0  0  0  0  0  0  0  0
    3.8338    5.4094   23.4386 C   0  0  0  0  0  0  0  0  0  0  0  0
    5.2246    4.9395   23.9203 C   0  0  0  0  0  0  0  0  0  0  0  0
    5.5063    3.6255   23.1354 C   0  0  2  0  0  0  0  0  0  0  0  0
    7.0054    3.3939   22.8449 C   0  0  0  0  0  0  0  0  0  0  0  0
    7.2889    2.1000   22.2442 N   0  0  0  0  0  0  0  0  0  0  0  0
    7.2570    0.9697   22.9920 C   0  0  0  0  0  0  0  0  0  0  0  0
    6.9817    0.9833   24.1849 O   0  0  0  0  0  0  0  0  0  0  0  0
    7.6160   -0.2736   22.3100 C   0  0  0  0  0  0  0  0  0  0  0  0
    8.2072   -1.3738   22.9024 C   0  0  0  0  0  0  0  0  0  0  0  0
    8.3543   -2.2830   21.9277 N   0  0  0  0  0  0  0  0  0  0  0  0
    7.8784   -1.8739   20.7448 N   0  0  0  0  0  0  0  0  0  0  0  0
    7.3970   -0.6577   20.9635 C   0  0  0  0  0  0  0  0  0  0  0  0
    6.6575    0.0346   19.9055 C   0  0  0  0  0  0  0  0  0  0  0  0
    5.4247    0.6538   20.1445 C   0  0  0  0  0  0  0  0  0  0  0  0
    4.7946    1.3111   19.0914 C   0  0  0  0  0  0  0  0  0  0  0  0
    5.4019    1.2964   17.8313 C   0  0  0  0  0  0  0  0  0  0  0  0
    6.5660    0.6784   17.5798 N   0  0  0  0  0  0  0  0  0  0  0  0
    7.1672    0.0529   18.5961 C   0  0  0  0  0  0  0  0  0  0  0  0
    8.1093   -0.4396   18.3582 H   0  0  0  0  0  0  0  0  0  0  0  0
    4.9383    1.7976   16.9849 H   0  0  0  0  0  0  0  0  0  0  0  0
    3.8662    1.8522   19.2424 H   0  0  0  0  0  0  0  0  0  0  0  0
    4.9872    0.6359   21.1446 H   0  0  0  0  0  0  0  0  0  0  0  0
    8.7722   -3.1984   22.0025 H   0  0  0  0  0  0  0  0  0  0  0  0
    8.4960   -1.5594   23.9300 H   0  0  0  0  0  0  0  0  0  0  0  0
    7.5559    1.9809   21.2811 H   0  0  0  0  0  0  0  0  0  0  0  0
    7.5544    3.4639   23.7941 H   0  0  0  0  0  0  0  0  0  0  0  0
    7.3790    4.1771   22.1750 H   0  0  0  0  0  0  0  0  0  0  0  0
    4.6244    3.7238   21.8507 C   0  0  0  0  0  0  0  0  0  0  0  0
    4.0157    2.8186   21.7336 H   0  0  0  0  0  0  0  0  0  0  0  0
    5.2281    3.7958   20.9373 H   0  0  0  0  0  0  0  0  0  0  0  0
    5.1640    2.7759   23.7468 H   0  0  0  0  0  0  0  0  0  0  0  0
    5.2659    4.7904   25.0079 H   0  0  0  0  0  0  0  0  0  0  0  0
    5.9930    5.6975   23.6980 H   0  0  0  0  0  0  0  0  0  0  0  0
    3.0384    4.9278   24.0197 H   0  0  0  0  0  0  0  0  0  0  0  0
    3.6832    6.4921   23.5234 H   0  0  0  0  0  0  0  0  0  0  0  0
    2.6770    4.7199   21.7075 H   0  0  0  0  0  0  0  0  0  0  0  0
    5.1895    6.2559   21.2797 H   0  0  0  0  0  0  0  0  0  0  0  0
    4.1605    5.7494   20.0811 H   0  0  0  0  0  0  0  0  0  0  0  0
    3.6445    6.9430   21.1543 H   0  0  0  0  0  0  0  0  0  0  0  0
  1  2  1  0
  2  3  1  0
  3  4  1  0
  4  5  1  0
  5  6  1  0
  6  7  1  0
  7  8  1  0
  8  9  2  0
  8 10  1  0
 10 11  2  0
 11 12  1  0
 12 13  1  0
 13 14  2  0
 14 15  1  0
 15 16  2  0
 16 17  1  0
 17 18  2  0
 18 19  1  0
 19 20  2  0
 20 21  1  0
 18 22  1  0
 17 23  1  0
 16 24  1  0
 12 25  1  0
 11 26  1  0
  7 27  1  0
  6 28  1  0
  6 29  1  0
  5 30  1  0
 30 31  1  0
 30 32  1  0
  5 33  1  1
  4 34  1  0
  4 35  1  0
  3 36  1  0
  3 37  1  0
  2 38  1  6
  1 39  1  0
  1 40  1  0
  1 41  1  0
 30  2  1  0
 14 10  1  0
 20 15  1  0
M  CHG  1   1   1
M  END
>  <cnnaffinity>  (1) 
4.77531

>  <plip>  (1) 
-0.034482758620689655

>  <filename>  (1) 
[H][c]1[n][c]([H])[c](-[c]2[n][n]([H])[c]([H])[c]2[C](=[O])[N]([H])[C]([H])([H])[C@@]2([H])[C]([H])([H])[C]([H])([H])[C@@]([H])([N+]([H])([H])[H])[C]2([H])[H])[c]([H])[c]1[H]

>  <combo1>  (1) 
-0.19167765179252352

$$$$
