
     RDKit          3D

 38 41  0  0  0  0  0  0  0  0999 V2000
    4.9209    1.8025   17.0647 H   0  0  0  0  0  0  0  0  0  0  0  0
    5.4365    1.2843   17.8708 C   0  0  0  0  0  0  0  0  0  0  0  0
    6.5971    0.6929   17.5424 N   0  0  0  0  0  0  0  0  0  0  0  0
    7.2544    0.0372   18.5063 C   0  0  0  0  0  0  0  0  0  0  0  0
    8.2007   -0.4318   18.2448 H   0  0  0  0  0  0  0  0  0  0  0  0
    6.7810   -0.0786   19.8325 C   0  0  0  0  0  0  0  0  0  0  0  0
    7.4876   -0.8177   20.8521 N   0  0  0  0  0  0  0  0  0  0  0  0
    8.8035   -0.6360   21.2507 C   0  0  0  0  0  0  0  0  0  0  0  0
    9.5898    0.1178   20.7406 O   0  0  0  0  0  0  0  0  0  0  0  0
    9.0232   -1.6089   22.4271 C   0  0  0  0  0  0  0  0  0  0  0  0
   10.0291   -1.8310   23.0429 O   0  0  0  0  0  0  0  0  0  0  0  0
    7.7749   -2.2113   22.6212 N   0  0  0  0  0  0  0  0  0  0  0  0
    7.5885   -3.2233   23.5657 N   0  0  0  0  0  0  0  0  0  0  0  0
    6.7270   -2.7937   24.6928 C   0  0  0  0  0  0  0  0  0  0  0  0
    7.2010   -1.9327   25.1724 H   0  0  0  0  0  0  0  0  0  0  0  0
    5.7580   -2.4467   24.3002 H   0  0  0  0  0  0  0  0  0  0  0  0
    6.4967   -3.8946   25.7141 C   0  0  0  0  0  0  0  0  0  0  0  0
    6.0073   -3.5687   26.9906 C   0  0  0  0  0  0  0  0  0  0  0  0
    5.8369   -2.5251   27.2554 H   0  0  0  0  0  0  0  0  0  0  0  0
    5.7235   -4.5717   27.9218 C   0  0  0  0  0  0  0  0  0  0  0  0
    5.3377   -4.3127   28.9056 H   0  0  0  0  0  0  0  0  0  0  0  0
    5.9262   -5.9132   27.5805 C   0  0  0  0  0  0  0  0  0  0  0  0
    5.7283   -6.7025   28.3029 H   0  0  0  0  0  0  0  0  0  0  0  0
    6.4089   -6.2440   26.3125 C   0  0  0  0  0  0  0  0  0  0  0  0
    6.5645   -7.2925   26.0749 H   0  0  0  0  0  0  0  0  0  0  0  0
    6.7053   -5.2459   25.3731 C   0  0  0  0  0  0  0  0  0  0  0  0
    7.3256   -5.5859   24.0278 C   0  0  0  0  0  0  0  0  0  0  0  0
    8.4047   -5.7257   24.1692 H   0  0  0  0  0  0  0  0  0  0  0  0
    6.9232   -6.5113   23.6134 H   0  0  0  0  0  0  0  0  0  0  0  0
    7.1197   -4.4949   22.9883 C   0  0  0  0  0  0  0  0  0  0  0  0
    7.7020   -4.7058   22.0873 H   0  0  0  0  0  0  0  0  0  0  0  0
    6.0687   -4.4028   22.6765 H   0  0  0  0  0  0  0  0  0  0  0  0
    6.9051   -1.8395   21.5872 C   0  0  0  0  0  0  0  0  0  0  0  0
    5.8401   -2.3463   21.3396 O   0  0  0  0  0  0  0  0  0  0  0  0
    5.5687    0.5324   20.1572 C   0  0  0  0  0  0  0  0  0  0  0  0
    5.1808    0.4493   21.1703 H   0  0  0  0  0  0  0  0  0  0  0  0
    4.8898    1.2372   19.1566 C   0  0  0  0  0  0  0  0  0  0  0  0
    3.9532    1.7416   19.3613 H   0  0  0  0  0  0  0  0  0  0  0  0
  1  2  1  0
  2  3  2  0
  3  4  1  0
  4  5  1  0
  4  6  2  0
  6  7  1  0
  7  8  1  0
  8  9  2  0
  8 10  1  0
 10 11  2  0
 10 12  1  0
 12 13  1  0
 13 14  1  0
 14 15  1  0
 14 16  1  0
 14 17  1  0
 17 18  2  0
 18 19  1  0
 18 20  1  0
 20 21  1  0
 20 22  2  0
 22 23  1  0
 22 24  1  0
 24 25  1  0
 24 26  2  0
 26 27  1  0
 27 28  1  0
 27 29  1  0
 27 30  1  0
 30 31  1  0
 30 32  1  0
 12 33  1  0
 33 34  2  0
  6 35  1  0
 35 36  1  0
 35 37  2  0
 37 38  1  0
 37  2  1  0
 33  7  1  0
 30 13  1  0
 26 17  1  0
M  END
>  <cnnaffinity>  (1) 
5.34366

>  <plip>  (1) 
-0.14285714285714285

>  <filename>  (1) 
[H][c]1[n][c]([H])[c]([N]2[C](=[O])[C](=[O])[N]([N]3[C]([H])([H])[c]4[c]([H])[c]([H])[c]([H])[c]([H])[c]4[C]([H])([H])[C]3([H])[H])[C]2=[O])[c]([H])[c]1[H]

>  <combo1>  (1) 
-0.7894540896737442

$$$$
