
     RDKit          3D

 40 43  0  0  0  0  0  0  0  0999 V2000
   12.0040    1.6356   21.6857 C   0  0  0  0  0  0  0  0  0  0  0  0
   11.0692    2.5596   22.4227 C   0  0  0  0  0  0  0  0  0  0  0  0
   11.6252    3.5561   23.1366 N   0  0  0  0  0  0  0  0  0  0  0  0
   10.7897    4.4129   23.7579 C   0  0  0  0  0  0  0  0  0  0  0  0
    9.3950    4.2792   23.7008 C   0  0  0  0  0  0  0  0  0  0  0  0
    8.8181    3.2659   23.0402 N   0  0  0  0  0  0  0  0  0  0  0  0
    9.6543    2.4226   22.3821 C   0  0  0  0  0  0  0  0  0  0  0  0
    9.0970    1.2923   21.5476 C   0  0  0  0  0  0  0  0  0  0  0  0
    9.5780    1.0021   20.4545 O   0  0  0  0  0  0  0  0  0  0  0  0
    8.0649    0.5546   22.0819 N   0  0  0  0  0  0  0  0  0  0  0  0
    7.8480    0.3020   23.5118 C   0  0  0  0  0  0  0  0  0  0  0  0
    6.7668   -0.7858   23.5760 C   0  0  0  0  0  0  0  0  0  0  0  0
    6.6471   -1.3504   22.1612 C   0  0  2  0  0  0  0  0  0  0  0  0
    7.5779   -2.5262   21.7661 C   0  0  0  0  0  0  0  0  0  0  0  0
    8.3318   -1.5813   20.8157 C   0  0  0  0  0  0  0  0  0  0  0  0
    7.4114   -0.4081   21.2073 C   0  0  2  0  0  0  0  0  0  0  0  0
    6.6615    0.2352   20.0563 C   0  0  0  0  0  0  0  0  0  0  0  0
    5.3985    0.8250   20.1959 C   0  0  0  0  0  0  0  0  0  0  0  0
    4.7777    1.3636   19.0673 C   0  0  0  0  0  0  0  0  0  0  0  0
    5.4423    1.3072   17.8370 C   0  0  0  0  0  0  0  0  0  0  0  0
    6.6658    0.7824   17.6836 N   0  0  0  0  0  0  0  0  0  0  0  0
    7.2521    0.2812   18.7758 C   0  0  0  0  0  0  0  0  0  0  0  0
    8.2566   -0.1159   18.6363 H   0  0  0  0  0  0  0  0  0  0  0  0
    4.9808    1.7067   16.9378 H   0  0  0  0  0  0  0  0  0  0  0  0
    3.8012    1.8296   19.1259 H   0  0  0  0  0  0  0  0  0  0  0  0
    4.9158    0.8621   21.1746 H   0  0  0  0  0  0  0  0  0  0  0  0
    9.3782   -1.3993   21.0535 H   0  0  0  0  0  0  0  0  0  0  0  0
    8.2465   -1.7884   19.7610 H   0  0  0  0  0  0  0  0  0  0  0  0
    7.0571   -3.3469   21.2637 H   0  0  0  0  0  0  0  0  0  0  0  0
    8.1841   -2.9496   22.5761 H   0  0  0  0  0  0  0  0  0  0  0  0
    5.6304   -1.5566   21.8364 H   0  0  0  0  0  0  0  0  0  0  0  0
    5.8352   -0.3242   23.9088 H   0  0  0  0  0  0  0  0  0  0  0  0
    7.0186   -1.5769   24.2961 H   0  0  0  0  0  0  0  0  0  0  0  0
    8.7758   -0.0374   23.9869 H   0  0  0  0  0  0  0  0  0  0  0  0
    7.5408    1.2264   24.0068 H   0  0  0  0  0  0  0  0  0  0  0  0
    8.7277    4.9658   24.2112 H   0  0  0  0  0  0  0  0  0  0  0  0
   11.2355    5.2294   24.3163 H   0  0  0  0  0  0  0  0  0  0  0  0
   11.7200    0.5890   21.8239 H   0  0  0  0  0  0  0  0  0  0  0  0
   11.9395    1.8206   20.6102 H   0  0  0  0  0  0  0  0  0  0  0  0
   13.0283    1.7915   22.0268 H   0  0  0  0  0  0  0  0  0  0  0  0
  1  2  1  0
  2  3  2  0
  3  4  1  0
  4  5  2  0
  5  6  1  0
  6  7  2  0
  7  8  1  0
  8  9  2  0
  8 10  1  0
 10 11  1  0
 11 12  1  0
 12 13  1  0
 13 14  1  0
 14 15  1  0
 15 16  1  0
 16 17  1  6
 17 18  2  0
 18 19  1  0
 19 20  2  0
 20 21  1  0
 21 22  2  0
 22 23  1  0
 20 24  1  0
 19 25  1  0
 18 26  1  0
 15 27  1  0
 15 28  1  0
 14 29  1  0
 14 30  1  0
 13 31  1  6
 12 32  1  0
 12 33  1  0
 11 34  1  0
 11 35  1  0
  5 36  1  0
  4 37  1  0
  1 38  1  0
  1 39  1  0
  1 40  1  0
  7  2  1  0
 16 10  1  0
 22 17  1  0
 16 13  1  0
M  END
>  <cnnaffinity>  (1) 
5.69557

>  <plip>  (1) 
-0.10714285714285714

>  <filename>  (1) 
[H][c]1[n][c]([C](=[O])[N]2[C]([H])([H])[C]([H])([H])[C@]3([H])[C]([H])([H])[C]([H])([H])[C@]23[c]2[c]([H])[n][c]([H])[c]([H])[c]2[H])[c]([C]([H])([H])[H])[n][c]1[H]

>  <combo1>  (1) 
-0.6910402105113997

$$$$
