
     RDKit          3D

 40 42  0  0  0  0  0  0  0  0999 V2000
   13.7903   -0.0896   22.4504 C   0  0  0  0  0  0  0  0  0  0  0  0
   12.6477    0.9219   22.4065 C   0  0  0  0  0  0  0  0  0  0  0  0
   12.9858    2.1225   23.2999 C   0  0  0  0  0  0  0  0  0  0  0  0
   11.5436    3.1284   23.7332 S   0  0  0  0  0  0  0  0  0  0  0  0
   10.6631    1.8394   24.6838 C   0  0  0  0  0  0  0  0  0  0  0  0
   10.9770    0.3977   24.2636 C   0  0  0  0  0  0  0  0  0  0  0  0
   11.2717    0.3133   22.7676 N   0  0  0  0  0  4  0  0  0  0  0  0
   10.9703   -1.0551   22.2246 C   0  0  0  0  0  0  0  0  0  0  0  0
    9.4774   -1.1944   22.0630 C   0  0  0  0  0  0  0  0  0  0  0  0
    8.7401   -2.0029   22.9377 C   0  0  0  0  0  0  0  0  0  0  0  0
    7.4187   -2.1862   22.8507 N   0  0  0  0  0  0  0  0  0  0  0  0
    6.7649   -1.5335   21.8815 C   0  0  0  0  0  0  0  0  0  0  0  0
    7.3824   -0.6802   20.9413 C   0  0  0  0  0  0  0  0  0  0  0  0
    6.6278    0.0229   19.8464 C   0  0  0  0  0  0  0  0  0  0  0  0
    5.4013    0.6736   20.0636 C   0  0  0  0  0  0  0  0  0  0  0  0
    4.7935    1.3488   18.9993 C   0  0  0  0  0  0  0  0  0  0  0  0
    5.4244    1.3458   17.7521 C   0  0  0  0  0  0  0  0  0  0  0  0
    6.5805    0.7086   17.5083 N   0  0  0  0  0  0  0  0  0  0  0  0
    7.1553    0.0744   18.5367 C   0  0  0  0  0  0  0  0  0  0  0  0
    8.0859   -0.4490   18.3134 H   0  0  0  0  0  0  0  0  0  0  0  0
    4.9861    1.8698   16.9050 H   0  0  0  0  0  0  0  0  0  0  0  0
    3.8551    1.8822   19.1209 H   0  0  0  0  0  0  0  0  0  0  0  0
    4.9482    0.6838   21.0570 H   0  0  0  0  0  0  0  0  0  0  0  0
    8.7682   -0.5137   21.0648 C   0  0  0  0  0  0  0  0  0  0  0  0
    9.2787    0.1716   20.3856 H   0  0  0  0  0  0  0  0  0  0  0  0
    5.6967   -1.7233   21.8284 H   0  0  0  0  0  0  0  0  0  0  0  0
    9.2360   -2.5271   23.7549 H   0  0  0  0  0  0  0  0  0  0  0  0
   11.4812   -1.2170   21.2665 H   0  0  0  0  0  0  0  0  0  0  0  0
   11.3461   -1.8180   22.9211 H   0  0  0  0  0  0  0  0  0  0  0  0
   10.5469    0.9277   22.3182 H   0  0  0  0  0  0  0  0  0  0  0  0
   11.8416    0.0022   24.8090 H   0  0  0  0  0  0  0  0  0  0  0  0
   10.1238   -0.2400   24.5193 H   0  0  0  0  0  0  0  0  0  0  0  0
    9.6027    2.0618   24.5369 H   0  0  0  0  0  0  0  0  0  0  0  0
   10.8754    1.9260   25.7517 H   0  0  0  0  0  0  0  0  0  0  0  0
   13.4630    1.7711   24.2201 H   0  0  0  0  0  0  0  0  0  0  0  0
   13.7080    2.7558   22.7742 H   0  0  0  0  0  0  0  0  0  0  0  0
   12.5506    1.3061   21.3868 H   0  0  0  0  0  0  0  0  0  0  0  0
   14.0353   -0.3773   23.4758 H   0  0  0  0  0  0  0  0  0  0  0  0
   13.5625   -0.9909   21.8854 H   0  0  0  0  0  0  0  0  0  0  0  0
   14.6814    0.3738   22.0160 H   0  0  0  0  0  0  0  0  0  0  0  0
  1  2  1  0
  2  3  1  0
  3  4  1  0
  4  5  1  0
  5  6  1  0
  6  7  1  0
  7  8  1  0
  8  9  1  0
  9 10  2  0
 10 11  1  0
 11 12  2  0
 12 13  1  0
 13 14  1  0
 14 15  2  0
 15 16  1  0
 16 17  2  0
 17 18  1  0
 18 19  2  0
 19 20  1  0
 17 21  1  0
 16 22  1  0
 15 23  1  0
 13 24  2  0
 24 25  1  0
 12 26  1  0
 10 27  1  0
  8 28  1  0
  8 29  1  0
  7 30  1  0
  6 31  1  0
  6 32  1  0
  5 33  1  0
  5 34  1  0
  3 35  1  0
  3 36  1  0
  2 37  1  0
  1 38  1  0
  1 39  1  0
  1 40  1  0
  7  2  1  0
 24  9  1  0
 19 14  1  0
M  CHG  1   7   1
M  END
>  <cnnaffinity>  (1) 
4.81768

>  <plip>  (1) 
-0.03571428571428571

>  <filename>  (1) 
[H][c]1[n][c]([H])[c](-[c]2[c]([H])[n][c]([H])[c]([C]([H])([H])[N+]3([H])[C]([H])([H])[C]([H])([H])[S][C]([H])([H])[C]3([H])[C]([H])([H])[H])[c]2[H])[c]([H])[c]1[H]

>  <combo1>  (1) 
-0.20023927231423835

$$$$
