
     RDKit          3D

 37 39  0  0  0  0  0  0  0  0999 V2000
    4.9873    1.7478   17.0219 H   0  0  0  0  0  0  0  0  0  0  0  0
    5.4489    1.2429   17.8679 C   0  0  0  0  0  0  0  0  0  0  0  0
    6.6058    0.6058   17.6146 N   0  0  0  0  0  0  0  0  0  0  0  0
    7.2023   -0.0190   18.6347 C   0  0  0  0  0  0  0  0  0  0  0  0
    8.1468   -0.5248   18.4354 H   0  0  0  0  0  0  0  0  0  0  0  0
    6.6743   -0.0591   19.9354 C   0  0  0  0  0  0  0  0  0  0  0  0
    7.4598   -0.6966   20.8657 O   0  0  0  0  0  0  0  0  0  0  0  0
    6.9612   -1.5612   21.8064 C   0  0  0  0  0  0  0  0  0  0  0  0
    5.8830   -2.4682   21.8065 C   0  0  0  0  0  0  0  0  0  0  0  0
    5.2276   -2.7581   20.9991 H   0  0  0  0  0  0  0  0  0  0  0  0
    5.7766   -3.0606   22.9968 N   0  0  0  0  0  0  0  0  0  0  0  0
    6.7809   -2.5676   23.7274 N   0  0  0  0  0  0  0  0  0  0  0  0
    6.9031   -2.8413   24.6930 H   0  0  0  0  0  0  0  0  0  0  0  0
    7.5811   -1.7102   23.0373 C   0  0  0  0  0  0  0  0  0  0  0  0
    8.9270   -1.2951   23.4405 C   0  0  0  0  0  0  0  0  0  0  0  0
    9.9266   -1.2577   22.4579 C   0  0  0  0  0  0  0  0  0  0  0  0
    9.7140   -1.6516   21.4677 H   0  0  0  0  0  0  0  0  0  0  0  0
   11.1834   -0.7332   22.7178 C   0  0  0  0  0  0  0  0  0  0  0  0
   11.9243   -0.6805   21.9330 H   0  0  0  0  0  0  0  0  0  0  0  0
   11.4636   -0.2264   23.9921 C   0  0  0  0  0  0  0  0  0  0  0  0
   12.6574    0.3238   24.3309 O   0  0  0  0  0  0  0  0  0  0  0  0
   13.7032    0.3408   23.3734 C   0  0  0  0  0  0  0  0  0  0  0  0
   13.8712   -0.6409   22.9103 H   0  0  0  0  0  0  0  0  0  0  0  0
   14.6064    0.6274   23.9061 H   0  0  0  0  0  0  0  0  0  0  0  0
   13.4983    1.0681   22.5792 H   0  0  0  0  0  0  0  0  0  0  0  0
   10.5042   -0.2936   25.0139 C   0  0  0  0  0  0  0  0  0  0  0  0
   10.7461    0.1365   25.9805 H   0  0  0  0  0  0  0  0  0  0  0  0
    9.2697   -0.8900   24.7606 C   0  0  0  0  0  0  0  0  0  0  0  0
    8.3380   -1.1292   25.7221 O   0  0  0  0  0  0  0  0  0  0  0  0
    8.5150   -0.6400   27.0431 C   0  0  0  0  0  0  0  0  0  0  0  0
    9.2230   -1.2525   27.6167 H   0  0  0  0  0  0  0  0  0  0  0  0
    8.8385    0.4080   27.0687 H   0  0  0  0  0  0  0  0  0  0  0  0
    7.5295   -0.7053   27.5038 H   0  0  0  0  0  0  0  0  0  0  0  0
    5.4733    0.6093   20.2052 C   0  0  0  0  0  0  0  0  0  0  0  0
    5.0461    0.6320   21.2079 H   0  0  0  0  0  0  0  0  0  0  0  0
    4.8541    1.2696   19.1321 C   0  0  0  0  0  0  0  0  0  0  0  0
    3.9252    1.8120   19.2683 H   0  0  0  0  0  0  0  0  0  0  0  0
  1  2  1  0
  2  3  2  0
  3  4  1  0
  4  5  1  0
  4  6  2  0
  6  7  1  0
  7  8  1  0
  8  9  1  0
  9 10  1  0
  9 11  2  0
 11 12  1  0
 12 13  1  0
 12 14  1  0
 14 15  1  0
 15 16  2  0
 16 17  1  0
 16 18  1  0
 18 19  1  0
 18 20  2  0
 20 21  1  0
 21 22  1  0
 22 23  1  0
 22 24  1  0
 22 25  1  0
 20 26  1  0
 26 27  1  0
 26 28  2  0
 28 29  1  0
 29 30  1  0
 30 31  1  0
 30 32  1  0
 30 33  1  0
  6 34  1  0
 34 35  1  0
 34 36  2  0
 36 37  1  0
 36  2  1  0
 14  8  2  0
 28 15  1  0
M  END
>  <cnnaffinity>  (1) 
5.49883

>  <plip>  (1) 
-0.034482758620689655

>  <filename>  (1) 
[H][c]1[n][c]([H])[c]([O][c]2[c]([H])[n][n]([H])[c]2-[c]2[c]([H])[c]([H])[c]([O][C]([H])([H])[H])[c]([H])[c]2[O][C]([H])([H])[H])[c]([H])[c]1[H]

>  <combo1>  (1) 
-0.21258649955513573

$$$$
