
     RDKit          3D

 30 32  0  0  0  0  0  0  0  0999 V2000
    7.1533   -2.0014   21.1895 C   0  0  0  0  0  0  0  0  0  0  0  0
    7.2302   -0.4830   21.1955 C   0  0  1  0  0  0  0  0  0  0  0  0
    8.6293   -0.0955   21.1357 N   0  0  0  0  0  0  0  0  0  0  0  0
    9.0765    1.0995   21.5411 C   0  0  0  0  0  0  0  0  0  0  0  0
    8.1387    2.0006   21.9317 N   0  0  0  0  0  0  0  0  0  0  0  0
    8.5688    3.1610   22.3761 C   0  0  0  0  0  0  0  0  0  0  0  0
    9.9479    3.4366   22.4533 C   0  0  0  0  0  0  0  0  0  0  0  0
   10.7269    4.4988   22.8093 N   0  0  0  0  0  0  0  0  0  0  0  0
   12.0358    4.2567   22.5932 N   0  0  0  0  0  0  0  0  0  0  0  0
   12.1144    3.0314   22.1086 C   0  0  0  0  0  0  0  0  0  0  0  0
   10.8215    2.4343   21.9786 C   0  0  0  0  0  0  0  0  0  0  0  0
   10.3951    1.2354   21.5228 N   0  0  0  0  0  0  0  0  0  0  0  0
   13.0682    2.5910   21.8608 H   0  0  0  0  0  0  0  0  0  0  0  0
   10.4499    5.4332   23.0771 H   0  0  0  0  0  0  0  0  0  0  0  0
    7.8187    3.8904   22.6837 H   0  0  0  0  0  0  0  0  0  0  0  0
    9.3866   -0.7442   21.0564 H   0  0  0  0  0  0  0  0  0  0  0  0
    6.5102    0.1831   20.0389 C   0  0  0  0  0  0  0  0  0  0  0  0
    5.2620    0.8130   20.1456 C   0  0  0  0  0  0  0  0  0  0  0  0
    4.6928    1.3786   18.9998 C   0  0  0  0  0  0  0  0  0  0  0  0
    5.4023    1.3136   17.7973 C   0  0  0  0  0  0  0  0  0  0  0  0
    6.5998    0.7249   17.6754 N   0  0  0  0  0  0  0  0  0  0  0  0
    7.1291    0.1876   18.7793 C   0  0  0  0  0  0  0  0  0  0  0  0
    8.1127   -0.2651   18.6581 H   0  0  0  0  0  0  0  0  0  0  0  0
    4.9911    1.7337   16.8825 H   0  0  0  0  0  0  0  0  0  0  0  0
    3.7269    1.8710   19.0230 H   0  0  0  0  0  0  0  0  0  0  0  0
    4.7563    0.8819   21.1118 H   0  0  0  0  0  0  0  0  0  0  0  0
    6.7989   -0.1156   22.1378 H   0  0  0  0  0  0  0  0  0  0  0  0
    7.8115   -2.4043   21.9665 H   0  0  0  0  0  0  0  0  0  0  0  0
    6.1423   -2.3778   21.3800 H   0  0  0  0  0  0  0  0  0  0  0  0
    7.4856   -2.3720   20.2216 H   0  0  0  0  0  0  0  0  0  0  0  0
  1  2  1  0
  2  3  1  0
  3  4  1  0
  4  5  2  0
  5  6  1  0
  6  7  2  0
  7  8  1  0
  8  9  1  0
  9 10  2  0
 10 11  1  0
 11 12  2  0
 10 13  1  0
  8 14  1  0
  6 15  1  0
  3 16  1  0
  2 17  1  0
 17 18  2  0
 18 19  1  0
 19 20  2  0
 20 21  1  0
 21 22  2  0
 22 23  1  0
 20 24  1  0
 19 25  1  0
 18 26  1  0
  2 27  1  1
  1 28  1  0
  1 29  1  0
  1 30  1  0
 12  4  1  0
 22 17  1  0
 11  7  1  0
M  END
>  <cnnaffinity>  (1) 
5.15701

>  <plip>  (1) 
-0.034482758620689655

>  <filename>  (1) 
[H][c]1[n][c]([H])[c]([C@]([H])([N]([H])[c]2[n][c]([H])[c]3[c]([n]2)[c]([H])[n][n]3[H])[C]([H])([H])[H])[c]([H])[c]1[H]

>  <combo1>  (1) 
-0.24670569364254472

$$$$
