
     RDKit          3D

 30 32  0  0  0  0  0  0  0  0999 V2000
    4.9235    1.7876   16.9955 H   0  0  0  0  0  0  0  0  0  0  0  0
    5.4065    1.2888   17.8431 C   0  0  0  0  0  0  0  0  0  0  0  0
    6.5664    0.6666   17.5898 N   0  0  0  0  0  0  0  0  0  0  0  0
    7.1588    0.0318   18.6154 C   0  0  0  0  0  0  0  0  0  0  0  0
    8.1033   -0.4461   18.3971 H   0  0  0  0  0  0  0  0  0  0  0  0
    6.6782   -0.0341   19.9269 C   0  0  0  0  0  0  0  0  0  0  0  0
    7.5166   -0.7932   20.9861 C   0  0  0  0  0  0  0  0  0  0  0  0
    7.6545   -2.2791   20.9196 C   0  0  0  0  0  0  0  0  0  0  0  0
    7.6543   -2.2789   20.9197 O   0  0  0  0  0  0  0  0  0  0  0  0
    6.5932   -2.9777   21.7482 C   0  0  0  0  0  0  0  0  0  0  0  0
    5.2322   -2.6659   22.0283 C   0  0  0  0  0  0  0  0  0  0  0  0
    4.8134   -1.7989   21.5344 H   0  0  0  0  0  0  0  0  0  0  0  0
    4.4289   -3.3245   23.0222 C   0  0  0  0  0  0  0  0  0  0  0  0
    3.5812   -2.8843   23.5622 H   0  0  0  0  0  0  0  0  0  0  0  0
    4.8500   -4.5022   23.5912 C   0  0  0  0  0  0  0  0  0  0  0  0
    4.2650   -5.0936   24.3065 H   0  0  0  0  0  0  0  0  0  0  0  0
    6.1279   -4.8866   23.2469 C   0  0  0  0  0  0  0  0  0  0  0  0
    6.7599   -6.1850   24.0729 Cl  0  0  0  0  0  0  0  0  0  0  0  0
    6.9523   -4.1437   22.4015 C   0  0  0  0  0  0  0  0  0  0  0  0
    8.5240   -4.7375   22.0850 Cl  0  0  0  0  0  0  0  0  0  0  0  0
    8.7429   -0.0826   21.3931 C   0  0  0  0  0  0  0  0  0  0  0  0
    9.0397    0.8241   20.8647 H   0  0  0  0  0  0  0  0  0  0  0  0
    9.6116   -0.6880   21.6320 H   0  0  0  0  0  0  0  0  0  0  0  0
    7.6054   -0.0661   22.3195 C   0  0  0  0  0  0  0  0  0  0  0  0
    7.6481   -0.6646   23.2258 H   0  0  0  0  0  0  0  0  0  0  0  0
    7.0779    0.8791   22.4533 H   0  0  0  0  0  0  0  0  0  0  0  0
    5.4589    0.6202   20.1673 C   0  0  0  0  0  0  0  0  0  0  0  0
    5.0286    0.6412   21.1696 H   0  0  0  0  0  0  0  0  0  0  0  0
    4.8165    1.2932   19.1156 C   0  0  0  0  0  0  0  0  0  0  0  0
    3.8866    1.8361   19.2619 H   0  0  0  0  0  0  0  0  0  0  0  0
  1  2  1  0
  2  3  2  0
  3  4  1  0
  4  5  1  0
  4  6  2  0
  6  7  1  0
  7  8  1  0
  8  9  2  0
  8 10  1  0
 10 11  2  0
 11 12  1  0
 11 13  1  0
 13 14  1  0
 13 15  2  0
 15 16  1  0
 15 17  1  0
 17 18  1  0
 17 19  2  0
 19 20  1  0
  7 21  1  0
 21 22  1  0
 21 23  1  0
 21 24  1  0
 24 25  1  0
 24 26  1  0
  6 27  1  0
 27 28  1  0
 27 29  2  0
 29 30  1  0
 29  2  1  0
 24  7  1  0
 19 10  1  0
M  END
>  <cnnaffinity>  (1) 
4.89077

>  <plip>  (1) 
-0.0

>  <filename>  (1) 
[H][c]1[n][c]([H])[c]([C]2([C](=[O])[c]3[c]([H])[c]([H])[c]([H])[c]([Cl])[c]3[Cl])[C]([H])([H])[C]2([H])[H])[c]([H])[c]1[H]

>  <combo1>  (1) 
-5.579917740546153e-06

$$$$
