
     RDKit          3D

 31 33  0  0  0  0  0  0  0  0999 V2000
    8.6102    1.2911   21.6177 O   0  0  0  0  0  0  0  0  0  0  0  0
    8.7929   -0.0804   21.3010 C   0  0  0  0  0  0  0  0  0  0  0  0
    7.4096   -0.7492   21.0381 C   0  0  0  0  0  0  0  0  0  0  0  0
    7.5497   -2.1811   20.7946 N   0  0  0  0  0  0  0  0  0  0  0  0
    7.7842   -3.0985   21.7400 C   0  0  0  0  0  0  0  0  0  0  0  0
    7.9393   -4.3484   21.2484 N   0  0  0  0  0  0  0  0  0  0  0  0
    8.1649   -5.2923   22.1429 C   0  0  0  0  0  0  0  0  0  0  0  0
    8.2488   -5.0144   23.5110 C   0  0  0  0  0  0  0  0  0  0  0  0
    8.5481   -6.0212   24.8882 S   0  0  0  0  0  0  0  0  0  0  0  0
    8.4027   -4.6505   25.9440 C   0  0  0  0  0  0  0  0  0  0  0  0
    8.1528   -3.4892   25.2920 C   0  0  0  0  0  0  0  0  0  0  0  0
    8.0630   -3.6762   23.8768 C   0  0  0  0  0  0  0  0  0  0  0  0
    7.8375   -2.7009   22.9912 N   0  0  0  0  0  0  0  0  0  0  0  0
    8.0310   -2.5123   25.7438 H   0  0  0  0  0  0  0  0  0  0  0  0
    8.5167   -4.8065   27.0097 H   0  0  0  0  0  0  0  0  0  0  0  0
    8.2969   -6.3169   21.7775 H   0  0  0  0  0  0  0  0  0  0  0  0
    7.4980   -2.6382   19.9019 H   0  0  0  0  0  0  0  0  0  0  0  0
    6.6392   -0.0829   19.9129 C   0  0  0  0  0  0  0  0  0  0  0  0
    5.4391    0.6067   20.1558 C   0  0  0  0  0  0  0  0  0  0  0  0
    4.8149    1.2899   19.1101 C   0  0  0  0  0  0  0  0  0  0  0  0
    5.4155    1.2718   17.8492 C   0  0  0  0  0  0  0  0  0  0  0  0
    6.5683    0.6376   17.5943 N   0  0  0  0  0  0  0  0  0  0  0  0
    7.1578   -0.0125   18.6113 C   0  0  0  0  0  0  0  0  0  0  0  0
    8.1268   -0.4500   18.3611 H   0  0  0  0  0  0  0  0  0  0  0  0
    4.9537    1.7826   17.0048 H   0  0  0  0  0  0  0  0  0  0  0  0
    3.8927    1.8395   19.2561 H   0  0  0  0  0  0  0  0  0  0  0  0
    5.0189    0.6313   21.1622 H   0  0  0  0  0  0  0  0  0  0  0  0
    6.8421   -0.6136   21.9737 H   0  0  0  0  0  0  0  0  0  0  0  0
    9.2701   -0.6367   22.1223 H   0  0  0  0  0  0  0  0  0  0  0  0
    9.4090   -0.2181   20.3978 H   0  0  0  0  0  0  0  0  0  0  0  0
    9.4706    1.6986   21.7773 H   0  0  0  0  0  0  0  0  0  0  0  0
  1  2  1  0
  2  3  1  0
  3  4  1  0
  4  5  1  0
  5  6  2  0
  6  7  1  0
  7  8  2  0
  8  9  1  0
  9 10  1  0
 10 11  2  0
 11 12  1  0
 12 13  2  0
 11 14  1  0
 10 15  1  0
  7 16  1  0
  4 17  1  0
  3 18  1  0
 18 19  2  0
 19 20  1  0
 20 21  2  0
 21 22  1  0
 22 23  2  0
 23 24  1  0
 21 25  1  0
 20 26  1  0
 19 27  1  0
  3 28  1  0
  2 29  1  0
  2 30  1  0
  1 31  1  0
 13  5  1  0
 23 18  1  0
 12  8  1  0
M  END
>  <cnnaffinity>  (1) 
4.83389

>  <plip>  (1) 
-0.13793103448275862

>  <filename>  (1) 
[H][O][C]([H])([H])[C]([H])([c]1[c]([H])[n][c]([H])[c]([H])[c]1[H])[N]([H])[c]1[n][c]([H])[c]2[s][c]([H])[c]([H])[c]2[n]1

>  <combo1>  (1) 
-0.8160884508743126

$$$$
