
     RDKit          3D

 40 42  0  0  0  0  0  0  0  0999 V2000
    4.7963    1.3234   19.0751 C   0  0  0  0  0  0  0  0  0  0  0  0
    5.4296    1.2975   17.8302 C   0  0  0  0  0  0  0  0  0  0  0  0
    6.5891    0.6610   17.6056 N   0  0  0  0  0  0  0  0  0  0  0  0
    7.1772    0.0620   18.6472 C   0  0  0  0  0  0  0  0  0  0  0  0
    6.6594    0.0691   19.9492 C   0  0  0  0  0  0  0  0  0  0  0  0
    7.3841   -0.6184   21.0300 C   0  0  0  0  0  0  0  0  0  0  0  0
    6.7525   -1.5005   21.8037 N   0  0  0  0  0  0  0  0  0  0  0  0
    7.6779   -1.9356   22.6658 N   0  0  0  0  0  0  0  0  0  0  0  0
    8.8938   -1.3617   22.4911 C   0  0  0  0  0  0  0  0  0  0  0  0
    8.7513   -0.5017   21.4171 C   0  0  0  0  0  0  0  0  0  0  0  0
    9.7681    0.4474   20.8542 C   0  0  0  0  0  0  0  0  0  0  0  0
    9.7190    1.7023   21.6583 N   0  0  0  0  0  4  0  0  0  0  0  0
    8.4638    2.5145   21.4866 C   0  0  0  0  0  0  0  0  0  0  0  0
    8.5364    3.8014   22.3022 C   0  0  0  0  0  0  0  0  0  0  0  0
    8.5171    3.6926   23.8350 C   0  0  0  0  0  0  0  0  0  0  0  0
    7.9856    5.0506   24.3295 C   0  0  0  0  0  0  0  0  0  0  0  0
    7.2251    5.6552   23.1555 N   0  0  0  0  0  4  0  0  0  0  0  0
    7.3596    4.7153   21.9762 C   0  0  0  0  0  0  0  0  0  0  0  0
    7.5123    5.2668   21.0437 H   0  0  0  0  0  0  0  0  0  0  0  0
    6.4436    4.1254   21.8686 H   0  0  0  0  0  0  0  0  0  0  0  0
    7.6313    6.5847   22.8870 H   0  0  0  0  0  0  0  0  0  0  0  0
    6.2231    5.8158   23.4058 H   0  0  0  0  0  0  0  0  0  0  0  0
    8.8091    5.7116   24.6097 H   0  0  0  0  0  0  0  0  0  0  0  0
    7.3294    4.9605   25.1995 H   0  0  0  0  0  0  0  0  0  0  0  0
    9.5160    3.4964   24.2447 H   0  0  0  0  0  0  0  0  0  0  0  0
    7.8681    2.8769   24.1733 H   0  0  0  0  0  0  0  0  0  0  0  0
    9.4558    4.3333   22.0579 H   0  0  0  0  0  0  0  0  0  0  0  0
    8.2949    2.7112   20.4176 H   0  0  0  0  0  0  0  0  0  0  0  0
    7.6046    1.9323   21.8296 H   0  0  0  0  0  0  0  0  0  0  0  0
   10.5311    2.3412   21.5149 H   0  0  0  0  0  0  0  0  0  0  0  0
    9.7044    1.3576   22.6501 H   0  0  0  0  0  0  0  0  0  0  0  0
    9.5467    0.6644   19.8078 H   0  0  0  0  0  0  0  0  0  0  0  0
   10.7754    0.0299   20.8783 H   0  0  0  0  0  0  0  0  0  0  0  0
    9.7378   -1.6002   23.1329 H   0  0  0  0  0  0  0  0  0  0  0  0
    7.4023   -2.6161   23.3563 H   0  0  0  0  0  0  0  0  0  0  0  0
    5.4094    0.6822   20.1534 C   0  0  0  0  0  0  0  0  0  0  0  0
    4.9202    0.6409   21.1283 H   0  0  0  0  0  0  0  0  0  0  0  0
    8.1028   -0.4721   18.4286 H   0  0  0  0  0  0  0  0  0  0  0  0
    4.9821    1.8104   16.9795 H   0  0  0  0  0  0  0  0  0  0  0  0
    3.8542    1.8498   19.1870 H   0  0  0  0  0  0  0  0  0  0  0  0
  1  2  2  0
  2  3  1  0
  3  4  2  0
  4  5  1  0
  5  6  1  0
  6  7  2  0
  7  8  1  0
  8  9  1  0
  9 10  2  0
 10 11  1  0
 11 12  1  0
 12 13  1  0
 13 14  1  0
 14 15  1  0
 15 16  1  0
 16 17  1  0
 17 18  1  0
 18 19  1  0
 18 20  1  0
 17 21  1  0
 17 22  1  0
 16 23  1  0
 16 24  1  0
 15 25  1  0
 15 26  1  0
 14 27  1  0
 13 28  1  0
 13 29  1  0
 12 30  1  0
 12 31  1  0
 11 32  1  0
 11 33  1  0
  9 34  1  0
  8 35  1  0
  5 36  2  0
 36 37  1  0
  4 38  1  0
  2 39  1  0
  1 40  1  0
 36  1  1  0
 10  6  1  0
 18 14  1  0
M  CHG  2  12   1  17   1
M  END
>  <cnnaffinity>  (1) 
4.49621

>  <plip>  (1) 
-0.07142857142857142

>  <filename>  (1) 
[H][c]1[n][c]([H])[c](-[c]2[n][n]([H])[c]([H])[c]2[C]([H])([H])[N+]([H])([H])[C]([H])([H])[C]2([H])[C]([H])([H])[C]([H])([H])[N+]([H])([H])[C]2([H])[H])[c]([H])[c]1[H]

>  <combo1>  (1) 
-0.4127616337620306

$$$$
