
     RDKit          3D

 40 42  0  0  0  0  0  0  0  0999 V2000
   10.0140   -2.1112   24.1964 C   0  0  0  0  0  0  0  0  0  0  0  0
    9.7283   -1.5976   22.7937 C   0  0  0  0  0  0  0  0  0  0  0  0
   10.9928   -1.3780   21.9612 C   0  0  0  0  0  0  0  0  0  0  0  0
   11.8366   -0.2112   22.4449 C   0  0  0  0  0  0  0  0  0  0  0  0
   13.2175   -0.1672   22.2142 C   0  0  0  0  0  0  0  0  0  0  0  0
   13.9528    0.9879   22.4765 C   0  0  0  0  0  0  0  0  0  0  0  0
   13.3040    2.1262   22.9673 C   0  0  0  0  0  0  0  0  0  0  0  0
   11.9315    2.0830   23.2407 C   0  0  0  0  0  0  0  0  0  0  0  0
   11.2044    0.8948   23.0507 C   0  0  0  0  0  0  0  0  0  0  0  0
    9.7880    0.7841   23.6058 C   0  0  0  0  0  0  0  0  0  0  0  0
    8.9469   -0.2726   22.9123 N   0  0  0  0  0  4  0  0  0  0  0  0
    8.3681    0.2783   21.6312 C   0  0  0  0  0  0  0  0  0  0  0  0
    7.3710   -0.6827   20.9795 C   0  0  0  0  0  0  0  0  0  0  0  0
    6.6132   -0.0220   19.8511 C   0  0  0  0  0  0  0  0  0  0  0  0
    5.4020    0.6425   20.0875 C   0  0  0  0  0  0  0  0  0  0  0  0
    4.7817    1.3250   19.0391 C   0  0  0  0  0  0  0  0  0  0  0  0
    5.3929    1.3229   17.7822 C   0  0  0  0  0  0  0  0  0  0  0  0
    6.5427    0.6821   17.5253 N   0  0  0  0  0  0  0  0  0  0  0  0
    7.1261    0.0332   18.5420 C   0  0  0  0  0  0  0  0  0  0  0  0
    8.0651   -0.4683   18.3028 H   0  0  0  0  0  0  0  0  0  0  0  0
    4.9415    1.8581   16.9472 H   0  0  0  0  0  0  0  0  0  0  0  0
    3.8555    1.8691   19.1867 H   0  0  0  0  0  0  0  0  0  0  0  0
    4.9572    0.6319   21.0851 H   0  0  0  0  0  0  0  0  0  0  0  0
    6.6734   -1.0226   21.7577 H   0  0  0  0  0  0  0  0  0  0  0  0
    7.9022   -1.5698   20.6147 H   0  0  0  0  0  0  0  0  0  0  0  0
    9.1822    0.5208   20.9387 H   0  0  0  0  0  0  0  0  0  0  0  0
    7.8554    1.2267   21.8460 H   0  0  0  0  0  0  0  0  0  0  0  0
    8.1372   -0.4820   23.5280 H   0  0  0  0  0  0  0  0  0  0  0  0
    9.7989    0.5778   24.6868 H   0  0  0  0  0  0  0  0  0  0  0  0
    9.3110    1.7611   23.4908 H   0  0  0  0  0  0  0  0  0  0  0  0
   11.4301    2.9736   23.6164 H   0  0  0  0  0  0  0  0  0  0  0  0
   13.8678    3.0346   23.1667 H   0  0  0  0  0  0  0  0  0  0  0  0
   15.0129    1.0081   22.2283 H   0  0  0  0  0  0  0  0  0  0  0  0
   13.7254   -1.0321   21.7930 H   0  0  0  0  0  0  0  0  0  0  0  0
   11.5710   -2.3062   21.9462 H   0  0  0  0  0  0  0  0  0  0  0  0
   10.6904   -1.1709   20.9259 H   0  0  0  0  0  0  0  0  0  0  0  0
    9.0863   -2.3162   22.2727 H   0  0  0  0  0  0  0  0  0  0  0  0
    9.0953   -2.1390   24.7944 H   0  0  0  0  0  0  0  0  0  0  0  0
   10.7288   -1.4557   24.7013 H   0  0  0  0  0  0  0  0  0  0  0  0
   10.4475   -3.1129   24.1515 H   0  0  0  0  0  0  0  0  0  0  0  0
  1  2  1  0
  2  3  1  0
  3  4  1  0
  4  5  2  0
  5  6  1  0
  6  7  2  0
  7  8  1  0
  8  9  2  0
  9 10  1  0
 10 11  1  0
 11 12  1  0
 12 13  1  0
 13 14  1  0
 14 15  2  0
 15 16  1  0
 16 17  2  0
 17 18  1  0
 18 19  2  0
 19 20  1  0
 17 21  1  0
 16 22  1  0
 15 23  1  0
 13 24  1  0
 13 25  1  0
 12 26  1  0
 12 27  1  0
 11 28  1  0
 10 29  1  0
 10 30  1  0
  8 31  1  0
  7 32  1  0
  6 33  1  0
  5 34  1  0
  3 35  1  0
  3 36  1  0
  2 37  1  0
  1 38  1  0
  1 39  1  0
  1 40  1  0
 11  2  1  0
 19 14  1  0
  9  4  1  0
M  CHG  1  11   1
M  END
>  <cnnaffinity>  (1) 
5.11733

>  <plip>  (1) 
-0.03571428571428571

>  <filename>  (1) 
[H][c]1[n][c]([H])[c]([C]([H])([H])[C]([H])([H])[N+]2([H])[C]([H])([H])[c]3[c]([H])[c]([H])[c]([H])[c]([H])[c]3[C]([H])([H])[C]2([H])[C]([H])([H])[H])[c]([H])[c]1[H]

>  <combo1>  (1) 
-0.2404421821063161

$$$$
