
     RDKit          3D

 33 34  0  0  0  0  0  0  0  0999 V2000
   11.5800    1.8915   24.5284 H   0  0  0  0  0  0  0  0  0  0  0  0
   11.5435    2.8695   24.6006 O   0  0  0  0  0  0  0  0  0  0  0  0
   12.1979    3.4286   23.4892 C   0  0  0  0  0  0  0  0  0  0  0  0
   12.9975    4.1023   23.8371 H   0  0  0  0  0  0  0  0  0  0  0  0
   11.5045    4.0537   22.8997 H   0  0  0  0  0  0  0  0  0  0  0  0
   12.8293    2.3980   22.5547 C   0  0  0  0  0  0  0  0  0  0  0  0
   13.3543    2.9641   21.7853 H   0  0  0  0  0  0  0  0  0  0  0  0
   13.5633    1.8146   23.1224 H   0  0  0  0  0  0  0  0  0  0  0  0
   11.9110    1.4580   21.9044 N   0  0  0  0  0  0  0  0  0  0  0  0
   11.3038    1.8330   21.1961 H   0  0  0  0  0  0  0  0  0  0  0  0
   11.2850    0.4859   22.6626 C   0  0  0  0  0  0  0  0  0  0  0  0
   11.6621    0.1647   23.7880 O   0  0  0  0  0  0  0  0  0  0  0  0
   10.1989   -0.0773   22.0771 N   0  0  0  0  0  0  0  0  0  0  0  0
    9.3539   -1.1359   22.6092 C   0  0  0  0  0  0  0  0  0  0  0  0
    8.7323   -0.8447   23.4650 H   0  0  0  0  0  0  0  0  0  0  0  0
    9.9354   -2.0344   22.8561 H   0  0  0  0  0  0  0  0  0  0  0  0
    8.6027   -1.1471   21.2482 C   0  0  0  0  0  0  0  0  0  0  0  0
    8.6703   -2.1067   20.7271 H   0  0  0  0  0  0  0  0  0  0  0  0
    7.1340   -0.7454   21.3093 C   0  0  0  0  0  0  0  0  0  0  0  0
    6.4799   -0.9859   22.3022 O   0  0  0  0  0  0  0  0  0  0  0  0
    6.5232   -0.0804   20.1256 C   0  0  0  0  0  0  0  0  0  0  0  0
    7.1523   -0.1102   18.8751 C   0  0  0  0  0  0  0  0  0  0  0  0
    8.0846   -0.6616   18.7425 H   0  0  0  0  0  0  0  0  0  0  0  0
    6.6907    0.5184   17.7917 N   0  0  0  0  0  0  0  0  0  0  0  0
    5.5534    1.2159   17.9204 C   0  0  0  0  0  0  0  0  0  0  0  0
    5.2132    1.7440   17.0328 H   0  0  0  0  0  0  0  0  0  0  0  0
    4.8295    1.2871   19.1149 C   0  0  0  0  0  0  0  0  0  0  0  0
    3.9184    1.8729   19.1526 H   0  0  0  0  0  0  0  0  0  0  0  0
    5.3098    0.6224   20.2375 C   0  0  0  0  0  0  0  0  0  0  0  0
    4.7729    0.6582   21.1862 H   0  0  0  0  0  0  0  0  0  0  0  0
    9.6354   -0.1050   20.7441 C   0  0  0  0  0  0  0  0  0  0  0  0
   10.3068   -0.5454   20.0028 H   0  0  0  0  0  0  0  0  0  0  0  0
    9.2419    0.8700   20.4224 H   0  0  0  0  0  0  0  0  0  0  0  0
  1  2  1  0
  2  3  1  0
  3  4  1  0
  3  5  1  0
  3  6  1  0
  6  7  1  0
  6  8  1  0
  6  9  1  0
  9 10  1  0
  9 11  1  0
 11 12  2  0
 11 13  1  0
 13 14  1  0
 14 15  1  0
 14 16  1  0
 14 17  1  0
 17 18  1  0
 17 19  1  0
 19 20  2  0
 19 21  1  0
 21 22  2  0
 22 23  1  0
 22 24  1  0
 24 25  2  0
 25 26  1  0
 25 27  1  0
 27 28  1  0
 27 29  2  0
 29 30  1  0
 17 31  1  0
 31 32  1  0
 31 33  1  0
 31 13  1  0
 29 21  1  0
M  END
>  <cnnaffinity>  (1) 
4.19954

>  <plip>  (1) 
-0.10714285714285714

>  <filename>  (1) 
[H][O][C]([H])([H])[C]([H])([H])[N]([H])[C](=[O])[N]1[C]([H])([H])[C]([H])([C](=[O])[c]2[c]([H])[n][c]([H])[c]([H])[c]2[H])[C]1([H])[H]

>  <combo1>  (1) 
-0.6016912240886243

$$$$
