
     RDKit          3D

 39 40  0  0  0  0  0  0  0  0999 V2000
    6.3657    3.2721   32.9214 C   0  0  0  0  0  0  0  0  0  0  0  0
    6.7939    3.8481   31.6996 O   0  0  0  0  0  0  0  0  0  0  0  0
    6.4211    3.2941   30.5142 C   0  0  0  0  0  0  0  0  0  0  0  0
    5.6143    2.1551   30.3775 C   0  0  0  0  0  0  0  0  0  0  0  0
    5.2951    1.6863   29.0964 C   0  0  0  0  0  0  0  0  0  0  0  0
    5.7588    2.3265   27.9438 C   0  0  0  0  0  0  0  0  0  0  0  0
    5.4231    1.7968   26.5660 C   0  0  0  0  0  0  0  0  0  0  0  0
    6.4436    0.9032   26.1325 O   0  0  0  0  0  0  0  0  0  0  0  0
    6.3072    0.4496   24.7962 C   0  0  0  0  0  0  0  0  0  0  0  0
    7.1953    1.2812   23.8709 C   0  0  0  0  0  0  0  0  0  0  0  0
    7.0079    0.9267   22.5072 O   0  0  0  0  0  0  0  0  0  0  0  0
    7.5759   -0.2984   22.2127 N   0  0  0  0  0  0  0  0  0  0  0  0
    7.3992   -0.6463   20.9946 C   0  0  0  0  0  0  0  0  0  0  0  0
    6.6495    0.0302   19.9213 C   0  0  0  0  0  0  0  0  0  0  0  0
    5.4222    0.6647   20.1560 C   0  0  0  0  0  0  0  0  0  0  0  0
    4.7927    1.3073   19.0934 C   0  0  0  0  0  0  0  0  0  0  0  0
    5.4010    1.2894   17.8351 C   0  0  0  0  0  0  0  0  0  0  0  0
    6.5659    0.6669   17.5918 N   0  0  0  0  0  0  0  0  0  0  0  0
    7.1644    0.0533   18.6187 C   0  0  0  0  0  0  0  0  0  0  0  0
    8.1143   -0.4258   18.3793 H   0  0  0  0  0  0  0  0  0  0  0  0
    4.9305    1.7849   16.9863 H   0  0  0  0  0  0  0  0  0  0  0  0
    3.8673    1.8455   19.2427 H   0  0  0  0  0  0  0  0  0  0  0  0
    4.9938    0.6547   21.1559 H   0  0  0  0  0  0  0  0  0  0  0  0
    7.8819   -1.5974   20.7556 H   0  0  0  0  0  0  0  0  0  0  0  0
    6.9021    2.3352   23.9010 H   0  0  0  0  0  0  0  0  0  0  0  0
    8.2466    1.2051   24.1586 H   0  0  0  0  0  0  0  0  0  0  0  0
    6.6209   -0.5976   24.7526 H   0  0  0  0  0  0  0  0  0  0  0  0
    5.2605    0.5037   24.4491 H   0  0  0  0  0  0  0  0  0  0  0  0
    5.3253    2.6337   25.8500 H   0  0  0  0  0  0  0  0  0  0  0  0
    4.4521    1.2716   26.5807 H   0  0  0  0  0  0  0  0  0  0  0  0
    6.5744    3.4600   28.0993 C   0  0  0  0  0  0  0  0  0  0  0  0
    6.9047    3.9456   29.3621 C   0  0  0  0  0  0  0  0  0  0  0  0
    7.5280    4.8252   29.4878 H   0  0  0  0  0  0  0  0  0  0  0  0
    6.9581    3.9610   27.2122 H   0  0  0  0  0  0  0  0  0  0  0  0
    4.6773    0.7951   28.9946 H   0  0  0  0  0  0  0  0  0  0  0  0
    5.2403    1.6362   31.2554 H   0  0  0  0  0  0  0  0  0  0  0  0
    5.2719    3.2771   33.0272 H   0  0  0  0  0  0  0  0  0  0  0  0
    6.7981    3.8999   33.7009 H   0  0  0  0  0  0  0  0  0  0  0  0
    6.7291    2.2432   33.0509 H   0  0  0  0  0  0  0  0  0  0  0  0
  1  2  1  0
  2  3  1  0
  3  4  2  0
  4  5  1  0
  5  6  2  0
  6  7  1  0
  7  8  1  0
  8  9  1  0
  9 10  1  0
 10 11  1  0
 11 12  1  0
 12 13  2  3
 13 14  1  0
 14 15  2  0
 15 16  1  0
 16 17  2  0
 17 18  1  0
 18 19  2  0
 19 20  1  0
 17 21  1  0
 16 22  1  0
 15 23  1  0
 13 24  1  0
 10 25  1  0
 10 26  1  0
  9 27  1  0
  9 28  1  0
  7 29  1  0
  7 30  1  0
  6 31  1  0
 31 32  2  0
 32 33  1  0
 31 34  1  0
  5 35  1  0
  4 36  1  0
  1 37  1  0
  1 38  1  0
  1 39  1  0
 32  3  1  0
 19 14  1  0
M  END
>  <cnnaffinity>  (1) 
3.96957

>  <plip>  (1) 
-0.03571428571428571

>  <filename>  (1) 
[H][C](=[N][O][C]([H])([H])[C]([H])([H])[O][C]([H])([H])[c]1[c]([H])[c]([H])[c]([O][C]([H])([H])[H])[c]([H])[c]1[H])[c]1[c]([H])[n][c]([H])[c]([H])[c]1[H]

>  <combo1>  (1) 
-0.16504250575133578

$$$$
