
     RDKit          3D

 37 39  0  0  0  0  0  0  0  0999 V2000
    4.9244    1.7627   16.9752 H   0  0  0  0  0  0  0  0  0  0  0  0
    5.3917    1.2853   17.8342 C   0  0  0  0  0  0  0  0  0  0  0  0
    6.5588    0.6682   17.6045 N   0  0  0  0  0  0  0  0  0  0  0  0
    7.1752    0.1056   18.6502 C   0  0  0  0  0  0  0  0  0  0  0  0
    8.1089   -0.4068   18.4280 H   0  0  0  0  0  0  0  0  0  0  0  0
    6.7020    0.1338   19.9826 C   0  0  0  0  0  0  0  0  0  0  0  0
    7.5100   -0.3901   21.0131 N   0  0  0  0  0  0  0  0  0  0  0  0
    7.1930   -0.0774   22.3189 N   0  0  0  0  0  0  0  0  0  0  0  0
    7.5442    0.8114   22.6543 H   0  0  0  0  0  0  0  0  0  0  0  0
    6.8657   -0.9685   23.3034 C   0  0  0  0  0  0  0  0  0  0  0  0
    6.5973   -2.1526   23.1106 O   0  0  0  0  0  0  0  0  0  0  0  0
    6.9045   -0.3648   24.6951 C   0  0  0  0  0  0  0  0  0  0  0  0
    7.2926    0.8502   25.0192 N   0  0  0  0  0  0  0  0  0  0  0  0
    7.1711    0.9099   26.3905 C   0  0  0  0  0  0  0  0  0  0  0  0
    7.4312    1.9673   27.2686 C   0  0  0  0  0  0  0  0  0  0  0  0
    7.8027    2.8981   26.8471 H   0  0  0  0  0  0  0  0  0  0  0  0
    7.1849    1.7898   28.6408 C   0  0  0  0  0  0  0  0  0  0  0  0
    7.3629    2.9598   29.5700 C   0  0  0  0  0  0  0  0  0  0  0  0
    7.2613    4.1229   29.2332 O   0  0  0  0  0  0  0  0  0  0  0  0
    7.6748    2.6658   30.8740 N   0  0  0  0  0  0  0  0  0  0  0  0
    7.9880    3.5058   31.3392 H   0  0  0  0  0  0  0  0  0  0  0  0
    8.2304    1.8397   31.0122 H   0  0  0  0  0  0  0  0  0  0  0  0
    6.7053    0.5340   29.1194 C   0  0  0  0  0  0  0  0  0  0  0  0
    6.5287    0.3898   30.1856 H   0  0  0  0  0  0  0  0  0  0  0  0
    6.4447   -0.5189   28.2518 C   0  0  0  0  0  0  0  0  0  0  0  0
    6.0817   -1.4790   28.5983 H   0  0  0  0  0  0  0  0  0  0  0  0
    6.6880   -0.3140   26.8913 C   0  0  0  0  0  0  0  0  0  0  0  0
    6.5359   -1.1084   25.7889 N   0  0  0  0  0  0  0  0  0  0  0  0
    6.2624   -2.0789   25.7849 H   0  0  0  0  0  0  0  0  0  0  0  0
    8.2196   -1.6462   20.7907 C   0  0  0  0  0  0  0  0  0  0  0  0
    7.5622   -2.3540   20.2789 H   0  0  0  0  0  0  0  0  0  0  0  0
    9.1211   -1.4581   20.2067 H   0  0  0  0  0  0  0  0  0  0  0  0
    8.5212   -2.0814   21.7434 H   0  0  0  0  0  0  0  0  0  0  0  0
    5.4398    0.7305   20.1872 C   0  0  0  0  0  0  0  0  0  0  0  0
    4.9978    0.7244   21.1812 H   0  0  0  0  0  0  0  0  0  0  0  0
    4.7905    1.3160   19.0964 C   0  0  0  0  0  0  0  0  0  0  0  0
    3.8357    1.8142   19.2136 H   0  0  0  0  0  0  0  0  0  0  0  0
  1  2  1  0
  2  3  2  0
  3  4  1  0
  4  5  1  0
  4  6  2  0
  6  7  1  0
  7  8  1  0
  8  9  1  0
  8 10  1  0
 10 11  2  0
 10 12  1  0
 12 13  2  0
 13 14  1  0
 14 15  2  0
 15 16  1  0
 15 17  1  0
 17 18  1  0
 18 19  2  0
 18 20  1  0
 20 21  1  0
 20 22  1  0
 17 23  2  0
 23 24  1  0
 23 25  1  0
 25 26  1  0
 25 27  2  0
 27 28  1  0
 28 29  1  0
  7 30  1  0
 30 31  1  0
 30 32  1  0
 30 33  1  0
  6 34  1  0
 34 35  1  0
 34 36  2  0
 36 37  1  0
 36  2  1  0
 28 12  1  0
 27 14  1  0
M  END
>  <cnnaffinity>  (1) 
4.5819

>  <plip>  (1) 
-0.07142857142857142

>  <filename>  (1) 
[H][c]1[n][c]([H])[c]([N]([N]([H])[C](=[O])[c]2[n][c]3[c]([H])[c]([C](=[O])[N]([H])[H])[c]([H])[c]([H])[c]3[n]2[H])[C]([H])([H])[H])[c]([H])[c]1[H]

>  <combo1>  (1) 
-0.35155295115271534

$$$$
