
     RDKit          3D

 38 40  0  0  0  0  0  0  0  0999 V2000
    9.5959   -0.0081   21.0282 C   0  0  0  0  0  0  0  0  0  0  0  0
    8.2971    0.1709   21.6859 N   0  0  0  0  0  0  0  0  0  0  0  0
    7.9933    1.2372   22.5290 C   0  0  0  0  0  0  0  0  0  0  0  0
    6.8320    1.5349   22.7892 O   0  0  0  0  0  0  0  0  0  0  0  0
    9.1607    2.0050   23.1194 C   0  0  0  0  0  0  0  0  0  0  0  0
   10.1692    1.3355   23.7971 C   0  0  0  0  0  0  0  0  0  0  0  0
   11.3427    1.9954   24.2440 C   0  0  0  0  0  0  0  0  0  0  0  0
   11.4594    3.3571   24.1018 C   0  0  0  0  0  0  0  0  0  0  0  0
   10.3960    4.1160   23.5337 C   0  0  0  0  0  0  0  0  0  0  0  0
   10.5549    5.4787   23.4922 N   0  0  0  0  0  0  0  0  0  0  0  0
    9.5921    6.1814   22.9452 C   0  0  0  0  0  0  0  0  0  0  0  0
    8.4004    5.6231   22.4046 C   0  0  0  0  0  0  0  0  0  0  0  0
    8.2214    4.2562   22.4325 C   0  0  0  0  0  0  0  0  0  0  0  0
    9.2317    3.4428   23.0285 C   0  0  0  0  0  0  0  0  0  0  0  0
    7.3362    3.7680   22.0200 H   0  0  0  0  0  0  0  0  0  0  0  0
    7.6571    6.2847   21.9752 H   0  0  0  0  0  0  0  0  0  0  0  0
    9.7422    7.2628   22.9063 H   0  0  0  0  0  0  0  0  0  0  0  0
   12.3275    3.9270   24.4072 H   0  0  0  0  0  0  0  0  0  0  0  0
   12.1421    1.4018   24.6832 H   0  0  0  0  0  0  0  0  0  0  0  0
   10.0828    0.2682   23.9713 H   0  0  0  0  0  0  0  0  0  0  0  0
    7.1856   -0.6618   21.1749 C   0  0  0  0  0  0  0  0  0  0  0  0
    7.5331   -2.3293   20.9764 C   0  0  0  0  0  0  0  0  0  0  0  0
    8.7379   -2.6274   20.9388 O   0  0  0  0  0  0  0  0  0  0  0  0
    6.5164   -3.0256   20.9212 O   0  0  0  0  0  1  0  0  0  0  0  0
    6.5546   -0.0206   19.9386 C   0  0  0  0  0  0  0  0  0  0  0  0
    5.3636    0.7051   20.0834 C   0  0  0  0  0  0  0  0  0  0  0  0
    4.8165    1.3446   18.9696 C   0  0  0  0  0  0  0  0  0  0  0  0
    5.4961    1.2579   17.7508 C   0  0  0  0  0  0  0  0  0  0  0  0
    6.6458    0.5901   17.5885 N   0  0  0  0  0  0  0  0  0  0  0  0
    7.1586   -0.0179   18.6705 C   0  0  0  0  0  0  0  0  0  0  0  0
    8.0974   -0.5402   18.4949 H   0  0  0  0  0  0  0  0  0  0  0  0
    5.0971    1.7452   16.8649 H   0  0  0  0  0  0  0  0  0  0  0  0
    3.9060    1.9295   19.0431 H   0  0  0  0  0  0  0  0  0  0  0  0
    4.9003    0.7816   21.0672 H   0  0  0  0  0  0  0  0  0  0  0  0
    6.4267   -0.6878   21.9617 H   0  0  0  0  0  0  0  0  0  0  0  0
    9.5031   -0.7841   20.2725 H   0  0  0  0  0  0  0  0  0  0  0  0
   10.3628   -0.3622   21.7254 H   0  0  0  0  0  0  0  0  0  0  0  0
    9.9300    0.9314   20.5741 H   0  0  0  0  0  0  0  0  0  0  0  0
  1  2  1  0
  2  3  1  0
  3  4  2  0
  3  5  1  0
  5  6  2  0
  6  7  1  0
  7  8  2  0
  8  9  1  0
  9 10  2  0
 10 11  1  0
 11 12  2  0
 12 13  1  0
 13 14  2  0
 13 15  1  0
 12 16  1  0
 11 17  1  0
  8 18  1  0
  7 19  1  0
  6 20  1  0
  2 21  1  0
 21 22  1  0
 22 23  2  0
 22 24  1  0
 21 25  1  0
 25 26  2  0
 26 27  1  0
 27 28  2  0
 28 29  1  0
 29 30  2  0
 30 31  1  0
 28 32  1  0
 27 33  1  0
 26 34  1  0
 21 35  1  0
  1 36  1  0
  1 37  1  0
  1 38  1  0
 14  5  1  0
 30 25  1  0
 14  9  1  0
M  CHG  1  24  -1
M  END
>  <cnnaffinity>  (1) 
5.16485

>  <plip>  (1) 
-0.06666666666666667

>  <filename>  (1) 
[H][c]1[n][c]([H])[c]([C]([H])([C](=[O])[O-])[N]([C](=[O])[c]2[c]([H])[c]([H])[c]([H])[c]3[n][c]([H])[c]([H])[c]([H])[c]23)[C]([H])([H])[H])[c]([H])[c]1[H]

>  <combo1>  (1) 
-0.35830287843848957

$$$$
