
     RDKit          3D

 27 28  0  0  0  0  0  0  0  0999 V2000
    4.9771    1.7779   17.0026 H   0  0  0  0  0  0  0  0  0  0  0  0
    5.4566    1.2897   17.8530 C   0  0  0  0  0  0  0  0  0  0  0  0
    6.6378    0.7011   17.6076 N   0  0  0  0  0  0  0  0  0  0  0  0
    7.2453    0.0809   18.6214 C   0  0  0  0  0  0  0  0  0  0  0  0
    8.2142   -0.3616   18.3969 H   0  0  0  0  0  0  0  0  0  0  0  0
    6.6863   -0.0353   19.9079 C   0  0  0  0  0  0  0  0  0  0  0  0
    7.4581   -0.7990   20.9415 C   0  0  0  0  0  0  0  0  0  0  0  0
    8.6736   -0.7148   20.9764 O   0  0  0  0  0  0  0  0  0  0  0  0
    6.7043   -1.7596   21.9761 C   0  0  0  0  0  0  0  0  0  0  0  0
    5.6594   -2.3197   21.7040 O   0  0  0  0  0  0  0  0  0  0  0  0
    7.3806   -1.9152   23.1800 N   0  0  0  0  0  0  0  0  0  0  0  0
    8.3657   -1.6765   23.1439 H   0  0  0  0  0  0  0  0  0  0  0  0
    6.8440   -2.4483   24.4076 C   0  0  0  0  0  0  0  0  0  0  0  0
    7.4428   -3.5047   25.1209 C   0  0  0  0  0  0  0  0  0  0  0  0
    8.3977   -3.9077   24.7767 H   0  0  0  0  0  0  0  0  0  0  0  0
    6.9173   -4.0574   26.2159 N   0  0  0  0  0  0  0  0  0  0  0  0
    5.7455   -3.5574   26.5885 C   0  0  0  0  0  0  0  0  0  0  0  0
    5.0841   -4.2191   27.5480 N   0  0  0  0  0  0  0  0  0  0  0  0
    4.4175   -3.5846   27.9461 H   0  0  0  0  0  0  0  0  0  0  0  0
    5.7409   -4.6869   28.1446 H   0  0  0  0  0  0  0  0  0  0  0  0
    5.1369   -2.4705   26.1287 N   0  0  0  0  0  0  0  0  0  0  0  0
    5.6897   -1.9411   25.0383 C   0  0  0  0  0  0  0  0  0  0  0  0
    5.2223   -1.0329   24.6576 H   0  0  0  0  0  0  0  0  0  0  0  0
    5.4663    0.6070   20.1620 C   0  0  0  0  0  0  0  0  0  0  0  0
    5.0127    0.5941   21.1553 H   0  0  0  0  0  0  0  0  0  0  0  0
    4.8447    1.2825   19.1084 C   0  0  0  0  0  0  0  0  0  0  0  0
    3.9035    1.8029   19.2411 H   0  0  0  0  0  0  0  0  0  0  0  0
  1  2  1  0
  2  3  2  0
  3  4  1  0
  4  5  1  0
  4  6  2  0
  6  7  1  0
  7  8  2  0
  7  9  1  0
  9 10  2  0
  9 11  1  0
 11 12  1  0
 11 13  1  0
 13 14  2  0
 14 15  1  0
 14 16  1  0
 16 17  2  0
 17 18  1  0
 18 19  1  0
 18 20  1  0
 17 21  1  0
 21 22  2  0
 22 23  1  0
  6 24  1  0
 24 25  1  0
 24 26  2  0
 26 27  1  0
 26  2  1  0
 22 13  1  0
M  END
>  <cnnaffinity>  (1) 
4.44888

>  <plip>  (1) 
-0.07142857142857142

>  <filename>  (1) 
[H][c]1[n][c]([H])[c]([C](=[O])[C](=[O])[N]([H])[c]2[c]([H])[n][c]([N]([H])[H])[n][c]2[H])[c]([H])[c]1[H]

>  <combo1>  (1) 
-0.4355032532941143

$$$$
