
     RDKit          3D

 34 37  0  0  0  0  0  0  0  0999 V2000
    5.0202    1.8010   16.9383 H   0  0  0  0  0  0  0  0  0  0  0  0
    5.4427    1.2939   17.8037 C   0  0  0  0  0  0  0  0  0  0  0  0
    6.5771    0.6135   17.5820 N   0  0  0  0  0  0  0  0  0  0  0  0
    7.1392   -0.0073   18.6225 C   0  0  0  0  0  0  0  0  0  0  0  0
    8.0391   -0.5811   18.4114 H   0  0  0  0  0  0  0  0  0  0  0  0
    6.6325    0.0473   19.9309 C   0  0  0  0  0  0  0  0  0  0  0  0
    7.3674   -0.6054   21.0058 C   0  0  0  0  0  0  0  0  0  0  0  0
    7.9506   -1.8379   20.8298 N   0  0  0  0  0  0  0  0  0  0  0  0
    8.3876   -2.1421   22.0208 C   0  0  0  0  0  0  0  0  0  0  0  0
    9.2180   -3.4899   22.7452 S   0  0  0  0  0  0  0  0  0  0  0  0
    9.3210   -2.6106   24.2631 C   0  0  0  0  0  0  0  0  0  0  0  0
    9.8534   -3.0542   25.0940 H   0  0  0  0  0  0  0  0  0  0  0  0
    8.7109   -1.4150   24.2111 C   0  0  0  0  0  0  0  0  0  0  0  0
    8.5714   -0.6872   25.0057 H   0  0  0  0  0  0  0  0  0  0  0  0
    8.1732   -1.1636   22.9531 N   0  0  0  0  0  0  0  0  0  0  0  0
    7.5236   -0.1362   22.3024 C   0  0  0  0  0  0  0  0  0  0  0  0
    7.2342    1.1377   23.0285 C   0  0  0  0  0  0  0  0  0  0  0  0
    8.1313    1.4794   23.5729 H   0  0  0  0  0  0  0  0  0  0  0  0
    6.9885    1.9265   22.3103 H   0  0  0  0  0  0  0  0  0  0  0  0
    6.1162    1.0189   23.9720 N   0  0  0  0  0  0  0  0  0  0  0  0
    5.9854   -0.0098   24.9147 N   0  0  0  0  0  0  0  0  0  0  0  0
    4.7504    0.1038   25.2619 C   0  0  0  0  0  0  0  0  0  0  0  0
    4.0975   -0.6722   26.1079 O   0  0  0  0  0  0  0  0  0  0  0  0
    2.7769   -0.2818   26.5233 C   0  0  0  0  0  0  0  0  0  0  0  0
    2.4438   -1.0724   27.1926 H   0  0  0  0  0  0  0  0  0  0  0  0
    2.8161    0.6705   27.0650 H   0  0  0  0  0  0  0  0  0  0  0  0
    2.0989   -0.2095   25.6652 H   0  0  0  0  0  0  0  0  0  0  0  0
    4.0589    1.0922   24.6641 O   0  0  0  0  0  0  0  0  0  0  0  0
    4.9326    1.6644   23.7786 C   0  0  0  0  0  0  0  0  0  0  0  0
    4.6223    2.5445   23.0243 O   0  0  0  0  0  0  0  0  0  0  0  0
    5.4171    0.7220   20.1403 C   0  0  0  0  0  0  0  0  0  0  0  0
    4.9364    0.7414   21.1205 H   0  0  0  0  0  0  0  0  0  0  0  0
    4.8144    1.3493   19.0520 C   0  0  0  0  0  0  0  0  0  0  0  0
    3.8787    1.8830   19.1585 H   0  0  0  0  0  0  0  0  0  0  0  0
  1  2  1  0
  2  3  2  0
  3  4  1  0
  4  5  1  0
  4  6  2  0
  6  7  1  0
  7  8  1  0
  8  9  2  0
  9 10  1  0
 10 11  1  0
 11 12  1  0
 11 13  2  0
 13 14  1  0
 13 15  1  0
 15 16  1  0
 16 17  1  0
 17 18  1  0
 17 19  1  0
 17 20  1  0
 20 21  1  0
 21 22  2  0
 22 23  1  0
 23 24  1  0
 24 25  1  0
 24 26  1  0
 24 27  1  0
 22 28  1  0
 28 29  1  0
 29 30  2  0
  6 31  1  0
 31 32  1  0
 31 33  2  0
 33 34  1  0
 33  2  1  0
 16  7  2  0
 29 20  1  0
 15  9  1  0
M  END
>  <cnnaffinity>  (1) 
5.26482

>  <plip>  (1) 
-0.06896551724137931

>  <filename>  (1) 
[H][c]1[n][c]([H])[c](-[c]2[n][c]3[s][c]([H])[c]([H])[n]3[c]2[C]([H])([H])[n]2[n][c]([O][C]([H])([H])[H])[o][c]2=[O])[c]([H])[c]1[H]

>  <combo1>  (1) 
-0.36749249206016316

$$$$
