
     RDKit          3D

 40 42  0  0  0  0  0  0  0  0999 V2000
    4.9743    1.7679   17.0327 H   0  0  0  0  0  0  0  0  0  0  0  0
    5.4316    1.2664   17.8820 C   0  0  0  0  0  0  0  0  0  0  0  0
    6.5904    0.6263   17.6429 N   0  0  0  0  0  0  0  0  0  0  0  0
    7.1891    0.0174   18.6712 C   0  0  0  0  0  0  0  0  0  0  0  0
    8.1312   -0.4920   18.4548 H   0  0  0  0  0  0  0  0  0  0  0  0
    6.6810    0.0187   19.9912 C   0  0  0  0  0  0  0  0  0  0  0  0
    7.3534   -0.6571   21.0403 N   0  0  0  0  0  0  0  0  0  0  0  0
    7.3294   -0.3381   22.3948 C   0  0  0  0  0  0  0  0  0  0  0  0
    6.7341    0.5554   22.9480 O   0  0  0  0  0  0  0  0  0  0  0  0
    8.1674   -1.2343   23.0400 N   0  0  0  0  0  0  0  0  0  0  0  0
    8.3506   -1.2797   24.4720 C   0  0  0  0  0  0  0  0  0  0  0  0
    9.3076   -1.7806   24.6662 H   0  0  0  0  0  0  0  0  0  0  0  0
    8.4603   -0.2477   24.8320 H   0  0  0  0  0  0  0  0  0  0  0  0
    7.2872   -1.9383   25.1664 N   0  0  0  0  0  0  0  0  0  0  0  0
    7.0895   -3.3883   24.9800 C   0  0  0  0  0  0  0  0  0  0  0  0
    8.0512   -3.8993   25.0941 H   0  0  0  0  0  0  0  0  0  0  0  0
    6.7132   -3.6419   23.9758 H   0  0  0  0  0  0  0  0  0  0  0  0
    6.0871   -3.9604   26.0081 C   0  0  0  0  0  0  0  0  0  0  0  0
    5.9289   -5.0267   25.7892 H   0  0  0  0  0  0  0  0  0  0  0  0
    6.5403   -3.8937   27.0163 H   0  0  0  0  0  0  0  0  0  0  0  0
    4.7840   -3.2726   25.9483 N   0  0  0  0  0  0  0  0  0  0  0  0
    3.7934   -3.8558   26.8464 C   0  0  0  0  0  0  0  0  0  0  0  0
    4.0639   -3.7994   27.9216 H   0  0  0  0  0  0  0  0  0  0  0  0
    2.8271   -3.3523   26.7155 H   0  0  0  0  0  0  0  0  0  0  0  0
    3.6382   -4.9117   26.5925 H   0  0  0  0  0  0  0  0  0  0  0  0
    4.9907   -1.8344   26.1901 C   0  0  0  0  0  0  0  0  0  0  0  0
    4.0319   -1.3097   26.0557 H   0  0  0  0  0  0  0  0  0  0  0  0
    5.3304   -1.6351   27.2241 H   0  0  0  0  0  0  0  0  0  0  0  0
    6.0125   -1.2176   25.2174 C   0  0  0  0  0  0  0  0  0  0  0  0
    6.1891   -0.1731   25.4885 H   0  0  0  0  0  0  0  0  0  0  0  0
    5.5717   -1.1937   24.2299 H   0  0  0  0  0  0  0  0  0  0  0  0
    8.4403   -2.3076   22.2456 C   0  0  0  0  0  0  0  0  0  0  0  0
    8.9342   -3.3518   22.6055 O   0  0  0  0  0  0  0  0  0  0  0  0
    8.0272   -1.9293   20.8516 C   0  0  0  0  0  0  0  0  0  0  0  0
    7.3662   -2.7055   20.4626 H   0  0  0  0  0  0  0  0  0  0  0  0
    8.9176   -1.8505   20.2207 H   0  0  0  0  0  0  0  0  0  0  0  0
    5.4668    0.6857   20.2233 C   0  0  0  0  0  0  0  0  0  0  0  0
    5.0632    0.7196   21.2303 H   0  0  0  0  0  0  0  0  0  0  0  0
    4.8295    1.3027   19.1421 C   0  0  0  0  0  0  0  0  0  0  0  0
    3.8845    1.8235   19.2690 H   0  0  0  0  0  0  0  0  0  0  0  0
  1  2  1  0
  2  3  2  0
  3  4  1  0
  4  5  1  0
  4  6  2  0
  6  7  1  0
  7  8  1  0
  8  9  2  0
  8 10  1  0
 10 11  1  0
 11 12  1  0
 11 13  1  0
 11 14  1  0
 14 15  1  0
 15 16  1  0
 15 17  1  0
 15 18  1  0
 18 19  1  0
 18 20  1  0
 18 21  1  0
 21 22  1  0
 22 23  1  0
 22 24  1  0
 22 25  1  0
 21 26  1  0
 26 27  1  0
 26 28  1  0
 26 29  1  0
 29 30  1  0
 29 31  1  0
 10 32  1  0
 32 33  2  0
 32 34  1  0
 34 35  1  0
 34 36  1  0
  6 37  1  0
 37 38  1  0
 37 39  2  0
 39 40  1  0
 39  2  1  0
 34  7  1  0
 29 14  1  0
M  END
>  <cnnaffinity>  (1) 
4.56091

>  <plip>  (1) 
-0.03571428571428571

>  <filename>  (1) 
[H][c]1[n][c]([H])[c]([N]2[C](=[O])[N]([C]([H])([H])[N]3[C]([H])([H])[C]([H])([H])[N]([C]([H])([H])[H])[C]([H])([H])[C]3([H])[H])[C](=[O])[C]2([H])[H])[c]([H])[c]1[H]

>  <combo1>  (1) 
-0.18765720355378154

$$$$
