
     RDKit          3D

 47 49  0  0  0  0  0  0  0  0999 V2000
    1.6271   -8.0964   23.0512 C   0  0  0  0  0  0  0  0  0  0  0  0
    2.0376   -6.9565   23.7871 O   0  0  0  0  0  0  0  0  0  0  0  0
    2.9772   -6.1236   23.2555 C   0  0  0  0  0  0  0  0  0  0  0  0
    3.1770   -4.8986   23.9112 C   0  0  0  0  0  0  0  0  0  0  0  0
    4.0494   -3.9558   23.3577 C   0  0  0  0  0  0  0  0  0  0  0  0
    4.7772   -4.2163   22.1758 C   0  0  0  0  0  0  0  0  0  0  0  0
    5.6048   -3.1679   21.4520 C   0  0  0  0  0  0  0  0  0  0  0  0
    7.1119   -3.2386   21.6927 C   0  0  0  0  0  0  0  0  0  0  0  0
    7.8343   -2.1375   20.9723 N   0  0  0  0  0  4  0  0  0  0  0  0
    9.3150   -2.2195   21.1484 C   0  0  0  0  0  0  0  0  0  0  0  0
    9.8500   -0.8007   21.0122 C   0  0  0  0  0  0  0  0  0  0  0  0
   11.2211   -0.6756   21.6847 C   0  0  0  0  0  0  0  0  0  0  0  0
   11.6967    0.2977   21.5258 H   0  0  0  0  0  0  0  0  0  0  0  0
   11.9124   -1.4489   21.3217 H   0  0  0  0  0  0  0  0  0  0  0  0
   11.1245   -0.8255   22.7683 H   0  0  0  0  0  0  0  0  0  0  0  0
    8.7136    0.0518   21.6003 C   0  0  0  0  0  0  0  0  0  0  0  0
    7.4005   -0.6927   21.2780 C   0  0  0  0  0  0  0  0  0  0  0  0
    6.6452   -0.1421   20.0859 C   0  0  0  0  0  0  0  0  0  0  0  0
    5.4510    0.5834   20.2197 C   0  0  0  0  0  0  0  0  0  0  0  0
    4.9209    1.2228   19.0937 C   0  0  0  0  0  0  0  0  0  0  0  0
    5.5879    1.1065   17.8723 C   0  0  0  0  0  0  0  0  0  0  0  0
    6.7049    0.3825   17.7113 N   0  0  0  0  0  0  0  0  0  0  0  0
    7.1976   -0.2327   18.7930 C   0  0  0  0  0  0  0  0  0  0  0  0
    8.1072   -0.8065   18.6205 H   0  0  0  0  0  0  0  0  0  0  0  0
    5.2112    1.6138   16.9841 H   0  0  0  0  0  0  0  0  0  0  0  0
    4.0240    1.8285   19.1547 H   0  0  0  0  0  0  0  0  0  0  0  0
    4.9401    0.6605   21.1829 H   0  0  0  0  0  0  0  0  0  0  0  0
    6.7510   -0.7186   22.1577 H   0  0  0  0  0  0  0  0  0  0  0  0
    8.6944    1.0762   21.2153 H   0  0  0  0  0  0  0  0  0  0  0  0
    8.8270    0.1090   22.6900 H   0  0  0  0  0  0  0  0  0  0  0  0
    9.9451   -0.5683   19.9437 H   0  0  0  0  0  0  0  0  0  0  0  0
    9.7813   -2.9038   20.4308 H   0  0  0  0  0  0  0  0  0  0  0  0
    9.5402   -2.5886   22.1597 H   0  0  0  0  0  0  0  0  0  0  0  0
    7.5949   -2.2170   19.9612 H   0  0  0  0  0  0  0  0  0  0  0  0
    7.5131   -4.2054   21.3589 H   0  0  0  0  0  0  0  0  0  0  0  0
    7.3224   -3.1502   22.7689 H   0  0  0  0  0  0  0  0  0  0  0  0
    5.4561   -3.2623   20.3668 H   0  0  0  0  0  0  0  0  0  0  0  0
    5.2766   -2.1587   21.7146 H   0  0  0  0  0  0  0  0  0  0  0  0
    4.6471   -5.4906   21.6149 C   0  0  0  0  0  0  0  0  0  0  0  0
    3.7329   -6.4168   22.1136 C   0  0  0  0  0  0  0  0  0  0  0  0
    3.5529   -7.3399   21.5860 H   0  0  0  0  0  0  0  0  0  0  0  0
    5.2483   -5.7631   20.7471 H   0  0  0  0  0  0  0  0  0  0  0  0
    4.1117   -2.9785   23.8272 H   0  0  0  0  0  0  0  0  0  0  0  0
    2.6468   -4.7275   24.8457 H   0  0  0  0  0  0  0  0  0  0  0  0
    0.7286   -8.4828   23.5393 H   0  0  0  0  0  0  0  0  0  0  0  0
    1.3868   -7.8344   22.0118 H   0  0  0  0  0  0  0  0  0  0  0  0
    2.4004   -8.8771   23.0572 H   0  0  0  0  0  0  0  0  0  0  0  0
  1  2  1  0
  2  3  1  0
  3  4  2  0
  4  5  1  0
  5  6  2  0
  6  7  1  0
  7  8  1  0
  8  9  1  0
  9 10  1  0
 10 11  1  0
 11 12  1  0
 12 13  1  0
 12 14  1  0
 12 15  1  0
 11 16  1  0
 16 17  1  0
 17 18  1  0
 18 19  2  0
 19 20  1  0
 20 21  2  0
 21 22  1  0
 22 23  2  0
 23 24  1  0
 21 25  1  0
 20 26  1  0
 19 27  1  0
 17 28  1  0
 16 29  1  0
 16 30  1  0
 11 31  1  0
 10 32  1  0
 10 33  1  0
  9 34  1  0
  8 35  1  0
  8 36  1  0
  7 37  1  0
  7 38  1  0
  6 39  1  0
 39 40  2  0
 40 41  1  0
 39 42  1  0
  5 43  1  0
  4 44  1  0
  1 45  1  0
  1 46  1  0
  1 47  1  0
 40  3  1  0
 17  9  1  0
 23 18  1  0
M  CHG  1   9   1
M  END
>  <cnnaffinity>  (1) 
5.2619

>  <plip>  (1) 
-0.03333333333333333

>  <filename>  (1) 
[H][c]1[n][c]([H])[c]([C]2([H])[C]([H])([H])[C]([H])([C]([H])([H])[H])[C]([H])([H])[N+]2([H])[C]([H])([H])[C]([H])([H])[c]2[c]([H])[c]([H])[c]([O][C]([H])([H])[H])[c]([H])[c]2[H])[c]([H])[c]1[H]

>  <combo1>  (1) 
-0.1965744146551217

$$$$
