
     RDKit          3D

 26 28  0  0  0  0  0  0  0  0999 V2000
    4.9426    1.8081   16.9680 H   0  0  0  0  0  0  0  0  0  0  0  0
    5.3944    1.2909   17.8128 C   0  0  0  0  0  0  0  0  0  0  0  0
    6.5547    0.6586   17.5699 N   0  0  0  0  0  0  0  0  0  0  0  0
    7.1587    0.0476   18.5925 C   0  0  0  0  0  0  0  0  0  0  0  0
    8.1133   -0.4253   18.3615 H   0  0  0  0  0  0  0  0  0  0  0  0
    6.6453    0.0272   19.9008 C   0  0  0  0  0  0  0  0  0  0  0  0
    7.3807   -0.5886   21.0034 C   0  0  0  0  0  0  0  0  0  0  0  0
    7.4877   -0.0312   22.2603 C   0  0  0  0  0  0  0  0  0  0  0  0
    7.0302    0.9334   22.4611 H   0  0  0  0  0  0  0  0  0  0  0  0
    8.1920   -0.7245   23.2640 C   0  0  0  0  0  0  0  0  0  0  0  0
    8.2739   -0.3092   24.2694 H   0  0  0  0  0  0  0  0  0  0  0  0
    8.7529   -1.9657   22.9931 C   0  0  0  0  0  0  0  0  0  0  0  0
    9.4270   -2.7523   24.0021 C   0  0  0  0  0  0  0  0  0  0  0  0
    9.1634   -2.7136   25.2925 N   0  0  0  0  0  0  0  0  0  0  0  0
    9.9517   -3.6363   25.8770 N   0  0  0  0  0  0  0  0  0  0  0  0
   10.7133   -4.2090   25.0123 N   0  0  0  0  0  0  0  0  0  0  0  0
   10.3975   -3.6668   23.8340 N   0  0  0  0  0  0  0  0  0  0  0  0
   10.7906   -3.9988   22.9700 H   0  0  0  0  0  0  0  0  0  0  0  0
    8.5160   -2.6167   21.7228 C   0  0  0  0  0  0  0  0  0  0  0  0
    8.6861   -3.7884   21.4383 O   0  0  0  0  0  0  0  0  0  0  0  0
    7.9981   -1.7870   20.7460 N   0  0  0  0  0  0  0  0  0  0  0  0
    7.7729   -2.3511   19.9422 H   0  0  0  0  0  0  0  0  0  0  0  0
    5.4165    0.6694   20.1286 C   0  0  0  0  0  0  0  0  0  0  0  0
    4.9731    0.6599   21.1255 H   0  0  0  0  0  0  0  0  0  0  0  0
    4.7803    1.3118   19.0692 C   0  0  0  0  0  0  0  0  0  0  0  0
    3.8519    1.8584   19.2107 H   0  0  0  0  0  0  0  0  0  0  0  0
  1  2  1  0
  2  3  2  0
  3  4  1  0
  4  5  1  0
  4  6  2  0
  6  7  1  0
  7  8  2  0
  8  9  1  0
  8 10  1  0
 10 11  1  0
 10 12  2  0
 12 13  1  0
 13 14  2  0
 14 15  1  0
 15 16  2  0
 16 17  1  0
 17 18  1  0
 12 19  1  0
 19 20  2  0
 19 21  1  0
 21 22  1  0
  6 23  1  0
 23 24  1  0
 23 25  2  0
 25 26  1  0
 25  2  1  0
 21  7  1  0
 17 13  1  0
M  END
>  <cnnaffinity>  (1) 
5.00766

>  <plip>  (1) 
-0.0

>  <filename>  (1) 
[H][c]1[n][c]([H])[c](-[c]2[c]([H])[c]([H])[c](-[c]3[n][n][n][n]3[H])[c](=[O])[n]2[H])[c]([H])[c]1[H]

>  <combo1>  (1) 
-6.948540124715892e-06

$$$$
