
     RDKit          3D

 45 48  0  0  0  0  0  0  0  0999 V2000
    4.9225    1.8635   16.9634 H   0  0  0  0  0  0  0  0  0  0  0  0
    5.3820    1.3254   17.7921 C   0  0  0  0  0  0  0  0  0  0  0  0
    6.5272    0.6837   17.5240 N   0  0  0  0  0  0  0  0  0  0  0  0
    7.1357    0.0621   18.5469 C   0  0  0  0  0  0  0  0  0  0  0  0
    8.0608   -0.4608   18.3000 H   0  0  0  0  0  0  0  0  0  0  0  0
    6.6531    0.0309   19.8774 C   0  0  0  0  0  0  0  0  0  0  0  0
    7.3958   -0.6838   20.9594 C   0  0  0  0  0  0  0  0  0  0  0  0
    8.5990   -0.2600   21.4631 C   0  0  0  0  0  0  0  0  0  0  0  0
    9.3106    0.8404   20.9415 N   0  0  0  0  0  0  0  0  0  0  0  0
    9.0919    0.9038   19.9549 H   0  0  0  0  0  0  0  0  0  0  0  0
    9.1942    2.1692   21.5871 C   0  0  0  0  0  0  0  0  0  0  0  0
    9.5636    2.8557   20.8220 H   0  0  0  0  0  0  0  0  0  0  0  0
    7.7663    2.6256   21.9719 C   0  0  0  0  0  0  0  0  0  0  0  0
    7.1106    2.6113   21.0929 H   0  0  0  0  0  0  0  0  0  0  0  0
    7.3449    1.8940   22.6745 H   0  0  0  0  0  0  0  0  0  0  0  0
    7.7583    4.0201   22.6353 C   0  0  0  0  0  0  0  0  0  0  0  0
    6.7408    4.2870   22.9470 H   0  0  0  0  0  0  0  0  0  0  0  0
    8.0586    4.7781   21.8968 H   0  0  0  0  0  0  0  0  0  0  0  0
    8.7118    4.0941   23.8396 C   0  0  0  0  0  0  0  0  0  0  0  0
    8.7160    5.1043   24.2678 H   0  0  0  0  0  0  0  0  0  0  0  0
    8.3443    3.4304   24.6364 H   0  0  0  0  0  0  0  0  0  0  0  0
   10.1336    3.6735   23.4421 C   0  0  0  0  0  0  0  0  0  0  0  0
   10.5482    4.4107   22.7390 H   0  0  0  0  0  0  0  0  0  0  0  0
   10.7941    3.6801   24.3175 H   0  0  0  0  0  0  0  0  0  0  0  0
   10.1394    2.2768   22.7943 C   0  0  0  0  0  0  0  0  0  0  0  0
    9.8210    1.5459   23.5477 H   0  0  0  0  0  0  0  0  0  0  0  0
   11.1487    1.9997   22.4746 H   0  0  0  0  0  0  0  0  0  0  0  0
    9.2559   -0.9984   22.6122 C   0  0  2  0  0  0  0  0  0  0  0  0
   10.2918   -0.6603   22.7071 H   0  0  0  0  0  0  0  0  0  0  0  0
    9.2502   -2.8057   22.2954 S   0  0  0  0  0  0  0  0  0  0  0  0
    7.4520   -2.7229   22.5659 C   0  0  2  0  0  0  0  0  0  0  0  0
    7.0704   -3.7473   22.6433 H   0  0  0  0  0  0  0  0  0  0  0  0
    6.7750   -2.0018   21.3802 C   0  0  0  0  0  0  0  0  0  0  0  0
    5.7188   -1.8331   21.6303 H   0  0  0  0  0  0  0  0  0  0  0  0
    6.7698   -2.6769   20.5123 H   0  0  0  0  0  0  0  0  0  0  0  0
    7.3274   -1.9595   23.8995 C   0  0  0  0  0  0  0  0  0  0  0  0
    7.4536   -2.6595   24.7310 H   0  0  0  0  0  0  0  0  0  0  0  0
    6.3292   -1.5189   23.9879 H   0  0  0  0  0  0  0  0  0  0  0  0
    8.4495   -0.8885   23.9395 C   0  0  0  0  0  0  0  0  0  0  0  0
    9.1253   -1.0716   24.7814 H   0  0  0  0  0  0  0  0  0  0  0  0
    8.0457    0.1222   24.0753 H   0  0  0  0  0  0  0  0  0  0  0  0
    5.4073    0.6464   20.1008 C   0  0  0  0  0  0  0  0  0  0  0  0
    4.9594    0.6132   21.0960 H   0  0  0  0  0  0  0  0  0  0  0  0
    4.7773    1.3260   19.0532 C   0  0  0  0  0  0  0  0  0  0  0  0
    3.8433    1.8506   19.1996 H   0  0  0  0  0  0  0  0  0  0  0  0
  1  2  1  0
  2  3  2  0
  3  4  1  0
  4  5  1  0
  4  6  2  0
  6  7  1  0
  7  8  2  0
  8  9  1  0
  9 10  1  0
  9 11  1  0
 11 12  1  0
 11 13  1  0
 13 14  1  0
 13 15  1  0
 13 16  1  0
 16 17  1  0
 16 18  1  0
 16 19  1  0
 19 20  1  0
 19 21  1  0
 19 22  1  0
 22 23  1  0
 22 24  1  0
 22 25  1  0
 25 26  1  0
 25 27  1  0
  8 28  1  0
 28 29  1  1
 28 30  1  0
 30 31  1  0
 31 32  1  1
 31 33  1  0
 33 34  1  0
 33 35  1  0
 31 36  1  0
 36 37  1  0
 36 38  1  0
 36 39  1  0
 39 40  1  0
 39 41  1  0
  6 42  1  0
 42 43  1  0
 42 44  2  0
 44 45  1  0
 44  2  1  0
 33  7  1  0
 25 11  1  0
 39 28  1  0
M  END
>  <cnnaffinity>  (1) 
5.49673

>  <plip>  (1) 
-0.07142857142857142

>  <filename>  (1) 
[H][c]1[n][c]([H])[c]([C]2=[C]([N]([H])[C]3([H])[C]([H])([H])[C]([H])([H])[C]([H])([H])[C]([H])([H])[C]3([H])[H])[C@]3([H])[S][C@]([H])([C]2([H])[H])[C]([H])([H])[C]3([H])[H])[c]([H])[c]1[H]

>  <combo1>  (1) 
-0.4355645763136003

$$$$
