
     RDKit          3D

 45 48  0  0  0  0  0  0  0  0999 V2000
   12.5675    4.1870   21.1992 Cl  0  0  0  0  0  0  0  0  0  0  0  0
   11.6277    4.6918   22.5736 C   0  0  0  0  0  0  0  0  0  0  0  0
   12.1080    5.8143   23.2584 C   0  0  0  0  0  0  0  0  0  0  0  0
   11.4408    6.2917   24.3864 C   0  0  0  0  0  0  0  0  0  0  0  0
   10.2945    5.6360   24.8419 C   0  0  0  0  0  0  0  0  0  0  0  0
    9.8136    4.5216   24.1586 C   0  0  0  0  0  0  0  0  0  0  0  0
   10.4566    4.0283   23.0002 C   0  0  0  0  0  0  0  0  0  0  0  0
    9.8675    2.8482   22.3079 C   0  0  0  0  0  0  0  0  0  0  0  0
   10.2874    2.3799   21.1534 N   0  0  0  0  0  0  0  0  0  0  0  0
    9.4261    1.2924   20.9288 O   0  0  0  0  0  0  0  0  0  0  0  0
    8.6309    1.2321   21.9928 C   0  0  0  0  0  0  0  0  0  0  0  0
    7.7610    0.2317   22.1595 N   0  0  0  0  0  0  0  0  0  0  0  0
    7.3700   -0.6388   21.0710 C   0  0  0  0  0  0  0  0  0  0  0  0
    6.5944   -1.8376   21.6363 C   0  0  0  0  0  0  0  0  0  0  0  0
    6.6882   -3.0771   20.7451 C   0  0  0  0  0  0  0  0  0  0  0  0
    6.0876   -4.3752   21.3120 C   0  0  0  0  0  0  0  0  0  0  0  0
    5.8047   -5.1542   20.0301 C   0  0  0  0  0  0  0  0  0  0  0  0
    5.3869   -4.1895   19.0760 O   0  0  0  0  0  0  0  0  0  0  0  0
    5.9342   -2.9207   19.3899 C   0  0  0  0  0  0  0  0  0  0  0  0
    5.1194   -2.1855   19.4785 H   0  0  0  0  0  0  0  0  0  0  0  0
    6.5340   -2.5521   18.5429 H   0  0  0  0  0  0  0  0  0  0  0  0
    5.0192   -5.9080   20.1190 H   0  0  0  0  0  0  0  0  0  0  0  0
    6.7214   -5.6585   19.6977 H   0  0  0  0  0  0  0  0  0  0  0  0
    6.7747   -4.9132   21.9815 H   0  0  0  0  0  0  0  0  0  0  0  0
    5.1495   -4.1788   21.8500 H   0  0  0  0  0  0  0  0  0  0  0  0
    7.7631   -3.2799   20.6099 H   0  0  0  0  0  0  0  0  0  0  0  0
    6.9921   -2.0638   22.6328 H   0  0  0  0  0  0  0  0  0  0  0  0
    5.5421   -1.5551   21.7526 H   0  0  0  0  0  0  0  0  0  0  0  0
    6.6447    0.1237   19.9773 C   0  0  0  0  0  0  0  0  0  0  0  0
    5.4013    0.7497   20.1510 C   0  0  0  0  0  0  0  0  0  0  0  0
    4.8016    1.3598   19.0468 C   0  0  0  0  0  0  0  0  0  0  0  0
    5.4625    1.3299   17.8137 C   0  0  0  0  0  0  0  0  0  0  0  0
    6.6643    0.7618   17.6352 N   0  0  0  0  0  0  0  0  0  0  0  0
    7.2367    0.2040   18.7111 C   0  0  0  0  0  0  0  0  0  0  0  0
    8.2218   -0.2439   18.5495 H   0  0  0  0  0  0  0  0  0  0  0  0
    5.0118    1.7812   16.9329 H   0  0  0  0  0  0  0  0  0  0  0  0
    3.8434    1.8605   19.1304 H   0  0  0  0  0  0  0  0  0  0  0  0
    4.9140    0.7772   21.1301 H   0  0  0  0  0  0  0  0  0  0  0  0
    8.3041   -1.0222   20.6337 H   0  0  0  0  0  0  0  0  0  0  0  0
    7.1172    0.4971   22.8828 H   0  0  0  0  0  0  0  0  0  0  0  0
    8.8184    2.1646   22.8699 N   0  0  0  0  0  0  0  0  0  0  0  0
    8.9200    4.0147   24.5199 H   0  0  0  0  0  0  0  0  0  0  0  0
    9.7787    5.9933   25.7298 H   0  0  0  0  0  0  0  0  0  0  0  0
   11.8269    7.1614   24.9080 H   0  0  0  0  0  0  0  0  0  0  0  0
   13.0081    6.2928   22.8902 H   0  0  0  0  0  0  0  0  0  0  0  0
  1  2  1  0
  2  3  2  0
  3  4  1  0
  4  5  2  0
  5  6  1  0
  6  7  2  0
  7  8  1  0
  8  9  2  0
  9 10  1  0
 10 11  1  0
 11 12  1  0
 12 13  1  0
 13 14  1  0
 14 15  1  0
 15 16  1  0
 16 17  1  0
 17 18  1  0
 18 19  1  0
 19 20  1  0
 19 21  1  0
 17 22  1  0
 17 23  1  0
 16 24  1  0
 16 25  1  0
 15 26  1  0
 14 27  1  0
 14 28  1  0
 13 29  1  0
 29 30  2  0
 30 31  1  0
 31 32  2  0
 32 33  1  0
 33 34  2  0
 34 35  1  0
 32 36  1  0
 31 37  1  0
 30 38  1  0
 13 39  1  0
 12 40  1  0
 11 41  2  0
  6 42  1  0
  5 43  1  0
  4 44  1  0
  3 45  1  0
  7  2  1  0
 41  8  1  0
 19 15  1  0
 34 29  1  0
M  END
>  <cnnaffinity>  (1) 
6.0823

>  <plip>  (1) 
-0.2857142857142857

>  <filename>  (1) 
[H][c]1[n][c]([H])[c]([C]([H])([N]([H])[c]2[n][c](-[c]3[c]([H])[c]([H])[c]([H])[c]([H])[c]3[Cl])[n][o]2)[C]([H])([H])[C]2([H])[C]([H])([H])[O][C]([H])([H])[C]2([H])[H])[c]([H])[c]1[H]

>  <combo1>  (1) 
-1.5620393341243315

$$$$
