
     RDKit          3D

 40 42  0  0  0  0  0  0  0  0999 V2000
   10.3831   -0.4846   21.4480 C   0  0  0  0  0  0  0  0  0  0  0  0
   10.4343   -0.5873   21.4068 C   0  0  0  0  0  0  0  0  0  0  0  0
    9.3293   -0.5010   22.5468 C   0  0  0  0  0  0  0  0  0  0  0  0
    7.9034   -0.1791   22.1133 N   0  0  0  0  0  0  0  0  0  0  0  0
    7.1433   -1.0860   21.2413 C   0  0  0  0  0  0  0  0  0  0  0  0
    6.6623   -0.3843   19.9746 C   0  0  0  0  0  0  0  0  0  0  0  0
    5.5634    0.4932   20.0173 C   0  0  0  0  0  0  0  0  0  0  0  0
    5.2257    1.2063   18.8671 C   0  0  0  0  0  0  0  0  0  0  0  0
    5.9668    0.9962   17.7011 C   0  0  0  0  0  0  0  0  0  0  0  0
    6.9946    0.1409   17.6279 N   0  0  0  0  0  0  0  0  0  0  0  0
    7.3212   -0.5257   18.7445 C   0  0  0  0  0  0  0  0  0  0  0  0
    8.1558   -1.2182   18.6373 H   0  0  0  0  0  0  0  0  0  0  0  0
    5.7222    1.5348   16.7866 H   0  0  0  0  0  0  0  0  0  0  0  0
    4.4187    1.9322   18.8710 H   0  0  0  0  0  0  0  0  0  0  0  0
    5.0171    0.6391   20.9502 H   0  0  0  0  0  0  0  0  0  0  0  0
    7.7227   -1.9859   21.0063 H   0  0  0  0  0  0  0  0  0  0  0  0
    6.2606   -1.4290   21.7998 H   0  0  0  0  0  0  0  0  0  0  0  0
    7.1576    0.8352   22.7190 C   0  0  0  0  0  0  0  0  0  0  0  0
    5.9819    0.6584   22.9952 O   0  0  0  0  0  0  0  0  0  0  0  0
    7.8342    2.2158   22.9690 C   0  0  0  0  0  0  0  0  0  0  0  0
    9.0863    2.3672   22.3931 N   0  0  0  0  0  0  0  0  0  0  0  0
    9.7304    3.4886   22.4408 N   0  0  0  0  0  0  0  0  0  0  0  0
    9.1262    4.5524   23.0522 C   0  0  0  0  0  0  0  0  0  0  0  0
    9.7574    5.8293   23.0519 C   0  0  0  0  0  0  0  0  0  0  0  0
    9.1225    6.8882   23.6599 C   0  0  0  0  0  0  0  0  0  0  0  0
    7.8589    6.7182   24.3013 C   0  0  0  0  0  0  0  0  0  0  0  0
    7.2383    5.4859   24.3143 C   0  0  0  0  0  0  0  0  0  0  0  0
    7.8545    4.3754   23.6729 C   0  0  0  0  0  0  0  0  0  0  0  0
    7.2128    3.1706   23.6396 N   0  0  0  0  0  0  0  0  0  0  0  0
    6.2767    5.2982   24.7793 H   0  0  0  0  0  0  0  0  0  0  0  0
    7.3844    7.5764   24.7702 H   0  0  0  0  0  0  0  0  0  0  0  0
    9.5714    7.8755   23.6530 H   0  0  0  0  0  0  0  0  0  0  0  0
   10.7152    5.9096   22.5463 H   0  0  0  0  0  0  0  0  0  0  0  0
    9.5063    0.3260   23.2451 H   0  0  0  0  0  0  0  0  0  0  0  0
    9.2476   -1.4374   23.1619 H   0  0  0  0  0  0  0  0  0  0  0  0
   11.3667    0.0254   22.1222 H   0  0  0  0  0  0  0  0  0  0  0  0
   10.3716    0.8039   21.2030 H   0  0  0  0  0  0  0  0  0  0  0  0
   11.2199   -2.4155   21.4182 H   0  0  0  0  0  0  0  0  0  0  0  0
    9.6763   -0.5990   20.2835 H   0  0  0  0  0  0  0  0  0  0  0  0
   11.6700   -2.1312   20.9942 H   0  0  0  0  0  0  0  0  0  0  0  0
  1  2  1  0
  2  3  1  0
  3  4  1  0
  4  5  1  0
  5  6  1  0
  6  7  2  0
  7  8  1  0
  8  9  2  0
  9 10  1  0
 10 11  2  0
 11 12  1  0
  9 13  1  0
  8 14  1  0
  7 15  1  0
  5 16  1  0
  5 17  1  0
  4 18  1  0
 18 19  2  0
 18 20  1  0
 20 21  2  0
 21 22  1  0
 22 23  2  0
 23 24  1  0
 24 25  2  0
 25 26  1  0
 26 27  2  0
 27 28  1  0
 28 29  2  0
 27 30  1  0
 26 31  1  0
 25 32  1  0
 24 33  1  0
  3 34  1  0
  3 35  1  0
  2 36  1  0
  2 37  1  0
  1 38  1  0
  1 39  1  0
  1 40  1  0
 11  6  1  0
 29 20  1  0
 28 23  1  0
M  END
>  <cnnaffinity>  (1) 
4.81923

>  <plip>  (1) 
-0.14285714285714285

>  <filename>  (1) 
[H][c]1[n][c]([H])[c]([C]([H])([H])[N]([C](=[O])[c]2[n][n][c]3[c]([H])[c]([H])[c]([H])[c]([H])[c]3[n]2)[C]([H])([H])[C]([H])([H])[C]([H])([H])[H])[c]([H])[c]1[H]

>  <combo1>  (1) 
-0.746646872715256

$$$$
