
     RDKit          3D

 30 33  0  0  0  0  0  0  0  0999 V2000
    4.8076    1.3016   19.1071 C   0  0  0  0  0  0  0  0  0  0  0  0
    5.4065    1.2904   17.8446 C   0  0  0  0  0  0  0  0  0  0  0  0
    6.5759    0.6726   17.6004 N   0  0  0  0  0  0  0  0  0  0  0  0
    7.1780    0.0399   18.6099 C   0  0  0  0  0  0  0  0  0  0  0  0
    6.6534   -0.0020   19.9126 C   0  0  0  0  0  0  0  0  0  0  0  0
    7.3479   -0.6963   20.9425 N   0  0  0  0  0  0  0  0  0  0  0  0
    7.7478   -1.9660   20.7429 N   0  0  0  0  0  0  0  0  0  0  0  0
    8.2427   -2.3607   21.9078 C   0  0  0  0  0  0  0  0  0  0  0  0
    8.1875   -1.3509   22.8763 C   0  0  0  0  0  0  0  0  0  0  0  0
    7.6109   -0.2770   22.2320 C   0  0  0  0  0  0  0  0  0  0  0  0
    7.4328    1.0892   22.7144 C   0  0  0  0  0  0  0  0  0  0  0  0
    7.4476    2.2532   21.9790 C   0  0  0  0  0  0  0  0  0  0  0  0
    7.3028    3.2637   22.8943 N   0  0  0  0  0  0  0  0  0  0  0  0
    7.2526    4.6265   22.7477 C   0  0  0  0  0  0  0  0  0  0  0  0
    7.1095    5.3770   23.8745 C   0  0  0  0  0  0  0  0  0  0  0  0
    7.0223    4.6877   25.1444 C   0  0  0  0  0  0  0  0  0  0  0  0
    7.0685    3.3928   25.3031 N   0  0  0  0  0  0  0  0  0  0  0  0
    7.2096    2.6454   24.1697 C   0  0  0  0  0  0  0  0  0  0  0  0
    7.2984    1.3402   24.0505 N   0  0  0  0  0  0  0  0  0  0  0  0
    6.9098    5.2786   26.0518 H   0  0  0  0  0  0  0  0  0  0  0  0
    7.0607    6.4565   23.8254 H   0  0  0  0  0  0  0  0  0  0  0  0
    7.3294    5.0097   21.7308 H   0  0  0  0  0  0  0  0  0  0  0  0
    7.5720    2.4224   20.9176 H   0  0  0  0  0  0  0  0  0  0  0  0
    8.5316   -1.3619   23.9008 H   0  0  0  0  0  0  0  0  0  0  0  0
    8.6285   -3.3644   22.0274 H   0  0  0  0  0  0  0  0  0  0  0  0
    5.4330    0.6398   20.1661 C   0  0  0  0  0  0  0  0  0  0  0  0
    5.0034    0.6316   21.1704 H   0  0  0  0  0  0  0  0  0  0  0  0
    8.1247   -0.4406   18.3809 H   0  0  0  0  0  0  0  0  0  0  0  0
    4.9234    1.7790   16.9991 H   0  0  0  0  0  0  0  0  0  0  0  0
    3.8784    1.8386   19.2602 H   0  0  0  0  0  0  0  0  0  0  0  0
  1  2  2  0
  2  3  1  0
  3  4  2  0
  4  5  1  0
  5  6  1  0
  6  7  1  0
  7  8  2  0
  8  9  1  0
  9 10  2  0
 10 11  1  0
 11 12  2  0
 12 13  1  0
 13 14  1  0
 14 15  2  0
 15 16  1  0
 16 17  2  0
 17 18  1  0
 18 19  2  0
 16 20  1  0
 15 21  1  0
 14 22  1  0
 12 23  1  0
  9 24  1  0
  8 25  1  0
  5 26  2  0
 26 27  1  0
  4 28  1  0
  2 29  1  0
  1 30  1  0
 26  1  1  0
 10  6  1  0
 19 11  1  0
 18 13  1  0
M  END
>  <cnnaffinity>  (1) 
5.14361

>  <plip>  (1) 
-0.0

>  <filename>  (1) 
[H][c]1[n][c]([H])[c](-[n]2[n][c]([H])[c]([H])[c]2-[c]2[n][c]3[n][c]([H])[c]([H])[c]([H])[n]3[c]2[H])[c]([H])[c]1[H]

>  <combo1>  (1) 
-6.537146619083206e-06

$$$$
