
     RDKit          3D

 26 28  0  0  0  0  0  0  0  0999 V2000
    4.9203    1.7819   16.9989 H   0  0  0  0  0  0  0  0  0  0  0  0
    5.4048    1.2896   17.8418 C   0  0  0  0  0  0  0  0  0  0  0  0
    6.5648    0.6674   17.5854 N   0  0  0  0  0  0  0  0  0  0  0  0
    7.1871    0.0534   18.6011 C   0  0  0  0  0  0  0  0  0  0  0  0
    8.1260   -0.4364   18.3621 H   0  0  0  0  0  0  0  0  0  0  0  0
    6.6850    0.0140   19.9154 C   0  0  0  0  0  0  0  0  0  0  0  0
    7.2787   -0.6873   20.9443 O   0  0  0  0  0  0  0  0  0  0  0  0
    8.6451   -0.7440   21.0828 C   0  0  0  0  0  0  0  0  0  0  0  0
    9.6670    0.1007   20.6147 C   0  0  0  0  0  0  0  0  0  0  0  0
    9.5742    0.9637   19.9823 H   0  0  0  0  0  0  0  0  0  0  0  0
   10.8571   -0.2893   21.0545 N   0  0  0  0  0  0  0  0  0  0  0  0
   10.6013   -1.3675   21.7907 N   0  0  0  0  0  0  0  0  0  0  0  0
   11.3635   -1.8498   22.2337 H   0  0  0  0  0  0  0  0  0  0  0  0
    9.2801   -1.6943   21.8639 C   0  0  0  0  0  0  0  0  0  0  0  0
    8.7599   -2.7914   22.6301 C   0  0  0  0  0  0  0  0  0  0  0  0
    7.4449   -3.1509   22.7173 C   0  0  0  0  0  0  0  0  0  0  0  0
    6.5528   -2.7296   22.2706 H   0  0  0  0  0  0  0  0  0  0  0  0
    7.3081   -4.2275   23.5156 O   0  0  0  0  0  0  0  0  0  0  0  0
    8.5522   -4.5623   23.9598 C   0  0  0  0  0  0  0  0  0  0  0  0
    8.5987   -5.4156   24.6190 H   0  0  0  0  0  0  0  0  0  0  0  0
    9.4861   -3.7277   23.4596 C   0  0  0  0  0  0  0  0  0  0  0  0
   10.5512   -3.7668   23.6504 H   0  0  0  0  0  0  0  0  0  0  0  0
    5.4604    0.6425   20.1747 C   0  0  0  0  0  0  0  0  0  0  0  0
    5.0323    0.6106   21.1774 H   0  0  0  0  0  0  0  0  0  0  0  0
    4.8230    1.3002   19.1149 C   0  0  0  0  0  0  0  0  0  0  0  0
    3.8901    1.8286   19.2663 H   0  0  0  0  0  0  0  0  0  0  0  0
  1  2  1  0
  2  3  2  0
  3  4  1  0
  4  5  1  0
  4  6  2  0
  6  7  1  0
  7  8  1  0
  8  9  1  0
  9 10  1  0
  9 11  2  0
 11 12  1  0
 12 13  1  0
 12 14  1  0
 14 15  1  0
 15 16  2  0
 16 17  1  0
 16 18  1  0
 18 19  1  0
 19 20  1  0
 19 21  2  0
 21 22  1  0
  6 23  1  0
 23 24  1  0
 23 25  2  0
 25 26  1  0
 25  2  1  0
 14  8  2  0
 21 15  1  0
M  END
>  <cnnaffinity>  (1) 
5.0683

>  <plip>  (1) 
-0.06896551724137931

>  <filename>  (1) 
[H][c]1[n][c]([H])[c]([O][c]2[c]([H])[n][n]([H])[c]2-[c]2[c]([H])[o][c]([H])[c]2[H])[c]([H])[c]1[H]

>  <combo1>  (1) 
-0.5127678257841897

$$$$
