
     RDKit          3D

 35 37  0  0  0  0  0  0  0  0999 V2000
    7.5442   -4.1712   22.0159 C   0  0  0  0  0  0  0  0  0  0  0  0
    8.2217   -3.0919   22.8797 C   0  0  0  0  0  0  0  0  0  0  0  0
    8.7044   -3.7174   24.2229 C   0  0  0  0  0  0  0  0  0  0  0  0
    8.9630   -2.6932   25.2873 C   0  0  0  0  0  0  0  0  0  0  0  0
    8.6938   -1.3451   25.2020 C   0  0  0  0  0  0  0  0  0  0  0  0
    9.1063   -0.8245   26.4524 C   0  0  0  0  0  0  0  0  0  0  0  0
    9.5388   -1.7835   27.2634 N   0  0  0  0  0  0  0  0  0  0  0  0
    9.4240   -2.9141   26.5470 N   0  0  0  0  0  0  0  0  0  0  0  0
    9.7511   -3.7753   26.9640 H   0  0  0  0  0  0  0  0  0  0  0  0
    9.0676    0.1912   26.8264 H   0  0  0  0  0  0  0  0  0  0  0  0
    8.0515   -0.7631   23.9581 C   0  0  0  0  0  0  0  0  0  0  0  0
    7.3022   -1.8620   23.1456 C   0  0  0  0  0  0  0  0  0  0  0  0
    6.7230   -1.3006   21.9246 N   0  0  0  0  0  0  0  0  0  0  0  0
    7.4249   -0.7198   20.9235 C   0  0  0  0  0  0  0  0  0  0  0  0
    8.6413   -0.8007   20.8166 O   0  0  0  0  0  0  0  0  0  0  0  0
    6.5954   -0.0047   19.9184 C   0  0  0  0  0  0  0  0  0  0  0  0
    5.3771    0.6597   20.1438 C   0  0  0  0  0  0  0  0  0  0  0  0
    4.7824    1.3167   19.0681 C   0  0  0  0  0  0  0  0  0  0  0  0
    5.4159    1.2780   17.8194 C   0  0  0  0  0  0  0  0  0  0  0  0
    6.5737    0.6392   17.5972 N   0  0  0  0  0  0  0  0  0  0  0  0
    7.1462    0.0286   18.6366 C   0  0  0  0  0  0  0  0  0  0  0  0
    8.0964   -0.4696   18.4543 H   0  0  0  0  0  0  0  0  0  0  0  0
    4.9769    1.7825   16.9611 H   0  0  0  0  0  0  0  0  0  0  0  0
    3.8470    1.8561   19.1790 H   0  0  0  0  0  0  0  0  0  0  0  0
    4.9060    0.7027   21.1320 H   0  0  0  0  0  0  0  0  0  0  0  0
    5.7330   -1.1385   21.9008 H   0  0  0  0  0  0  0  0  0  0  0  0
    6.4430   -2.2003   23.7440 H   0  0  0  0  0  0  0  0  0  0  0  0
    8.8091   -0.3319   23.2863 H   0  0  0  0  0  0  0  0  0  0  0  0
    7.3320    0.0379   24.1790 H   0  0  0  0  0  0  0  0  0  0  0  0
    9.5903   -4.3355   24.0305 H   0  0  0  0  0  0  0  0  0  0  0  0
    7.9375   -4.4114   24.5917 H   0  0  0  0  0  0  0  0  0  0  0  0
    9.0951   -2.7017   22.3380 H   0  0  0  0  0  0  0  0  0  0  0  0
    7.2543   -3.7898   21.0316 H   0  0  0  0  0  0  0  0  0  0  0  0
    6.6315   -4.5569   22.4954 H   0  0  0  0  0  0  0  0  0  0  0  0
    8.2208   -5.0192   21.8506 H   0  0  0  0  0  0  0  0  0  0  0  0
  1  2  1  0
  2  3  1  0
  3  4  1  0
  4  5  2  0
  5  6  1  0
  6  7  2  0
  7  8  1  0
  8  9  1  0
  6 10  1  0
  5 11  1  0
 11 12  1  0
 12 13  1  0
 13 14  1  0
 14 15  2  0
 14 16  1  0
 16 17  2  0
 17 18  1  0
 18 19  2  0
 19 20  1  0
 20 21  2  0
 21 22  1  0
 19 23  1  0
 18 24  1  0
 17 25  1  0
 13 26  1  0
 12 27  1  0
 11 28  1  0
 11 29  1  0
  3 30  1  0
  3 31  1  0
  2 32  1  0
  1 33  1  0
  1 34  1  0
  1 35  1  0
 12  2  1  0
 21 16  1  0
  8  4  1  0
M  END
>  <cnnaffinity>  (1) 
5.0116

>  <plip>  (1) 
-0.03571428571428571

>  <filename>  (1) 
[H][c]1[n][c]([H])[c]([C](=[O])[N]([H])[C]2([H])[C]([H])([H])[c]3[c]([H])[n][n]([H])[c]3[C]([H])([H])[C]2([H])[C]([H])([H])[H])[c]([H])[c]1[H]

>  <combo1>  (1) 
-0.23277335076764663

$$$$
