
     RDKit          3D

 38 40  0  0  0  0  0  0  0  0999 V2000
    9.4754    0.0076   24.4358 C   0  0  0  0  0  0  0  0  0  0  0  0
    8.3287    0.8913   23.9963 C   0  0  0  0  0  0  0  0  0  0  0  0
    7.0567    0.7795   24.5840 C   0  0  0  0  0  0  0  0  0  0  0  0
    5.9852    1.5693   24.1506 C   0  0  0  0  0  0  0  0  0  0  0  0
    6.1619    2.4680   23.0937 C   0  0  0  0  0  0  0  0  0  0  0  0
    7.4211    2.5866   22.4988 C   0  0  0  0  0  0  0  0  0  0  0  0
    8.5178    1.8368   22.9600 C   0  0  0  0  0  0  0  0  0  0  0  0
    9.8373    1.9736   22.2304 C   0  0  0  0  0  0  0  0  0  0  0  0
    9.7909    1.2954   20.8571 C   0  0  0  0  0  0  0  0  0  0  0  0
    9.7576   -0.1785   20.8855 N   0  0  0  0  0  0  0  0  0  0  0  0
   10.7966   -1.0442   21.1533 C   0  0  0  0  0  0  0  0  0  0  0  0
   10.3618   -2.1976   21.5690 N   0  0  0  0  0  0  0  0  0  0  0  0
    8.9884   -2.1315   21.6152 N   0  0  0  0  0  0  0  0  0  0  0  0
    8.6537   -0.9517   21.1603 C   0  0  0  0  0  0  0  0  0  0  0  0
    7.3565   -0.5428   21.0133 N   0  0  0  0  0  0  0  0  0  0  0  0
    6.7149    0.0358   19.9035 C   0  0  0  0  0  0  0  0  0  0  0  0
    5.4923    0.6643   20.1559 C   0  0  0  0  0  0  0  0  0  0  0  0
    4.8288    1.3042   19.1049 C   0  0  0  0  0  0  0  0  0  0  0  0
    5.4044    1.2939   17.8278 C   0  0  0  0  0  0  0  0  0  0  0  0
    6.5593    0.6693   17.5517 N   0  0  0  0  0  0  0  0  0  0  0  0
    7.1919    0.0548   18.5671 C   0  0  0  0  0  0  0  0  0  0  0  0
    8.1127   -0.4598   18.3069 H   0  0  0  0  0  0  0  0  0  0  0  0
    4.9127    1.8044   17.0010 H   0  0  0  0  0  0  0  0  0  0  0  0
    3.8842    1.8104   19.2646 H   0  0  0  0  0  0  0  0  0  0  0  0
    5.1213    0.6613   21.1812 H   0  0  0  0  0  0  0  0  0  0  0  0
    6.7518   -0.9561   21.7070 H   0  0  0  0  0  0  0  0  0  0  0  0
   11.8464   -0.7991   21.0127 H   0  0  0  0  0  0  0  0  0  0  0  0
    8.8773    1.6044   20.3391 H   0  0  0  0  0  0  0  0  0  0  0  0
   10.6674    1.6422   20.3042 H   0  0  0  0  0  0  0  0  0  0  0  0
   10.0552    3.0362   22.0589 H   0  0  0  0  0  0  0  0  0  0  0  0
   10.6920    1.5865   22.8005 H   0  0  0  0  0  0  0  0  0  0  0  0
    7.5510    3.2702   21.6587 H   0  0  0  0  0  0  0  0  0  0  0  0
    5.3234    3.0567   22.7191 H   0  0  0  0  0  0  0  0  0  0  0  0
    5.0122    1.4776   24.6292 H   0  0  0  0  0  0  0  0  0  0  0  0
    6.9074    0.0592   25.3891 H   0  0  0  0  0  0  0  0  0  0  0  0
    9.8516   -0.5662   23.5783 H   0  0  0  0  0  0  0  0  0  0  0  0
    9.1804   -0.6946   25.2196 H   0  0  0  0  0  0  0  0  0  0  0  0
   10.3158    0.6007   24.8152 H   0  0  0  0  0  0  0  0  0  0  0  0
  1  2  1  0
  2  3  2  0
  3  4  1  0
  4  5  2  0
  5  6  1  0
  6  7  2  0
  7  8  1  0
  8  9  1  0
  9 10  1  0
 10 11  1  0
 11 12  2  0
 12 13  1  0
 13 14  2  0
 14 15  1  0
 15 16  1  0
 16 17  2  0
 17 18  1  0
 18 19  2  0
 19 20  1  0
 20 21  2  0
 21 22  1  0
 19 23  1  0
 18 24  1  0
 17 25  1  0
 15 26  1  0
 11 27  1  0
  9 28  1  0
  9 29  1  0
  8 30  1  0
  8 31  1  0
  6 32  1  0
  5 33  1  0
  4 34  1  0
  3 35  1  0
  1 36  1  0
  1 37  1  0
  1 38  1  0
  7  2  1  0
 14 10  1  0
 21 16  1  0
M  END
>  <cnnaffinity>  (1) 
5.49794

>  <plip>  (1) 
-0.07142857142857142

>  <filename>  (1) 
[H][c]1[n][c]([H])[c]([N]([H])[c]2[n][n][c]([H])[n]2[C]([H])([H])[C]([H])([H])[c]2[c]([H])[c]([H])[c]([H])[c]([H])[c]2[C]([H])([H])[H])[c]([H])[c]1[H]

>  <combo1>  (1) 
-0.4686047580011007

$$$$
