
     RDKit          3D

 45 48  0  0  0  0  0  0  0  0999 V2000
    3.6432   -6.1186   26.7513 C   0  0  0  0  0  0  0  0  0  0  0  0
    4.9860   -6.5093   26.7717 C   0  0  0  0  0  0  0  0  0  0  0  0
    5.9067   -5.8846   25.9331 C   0  0  0  0  0  0  0  0  0  0  0  0
    5.5098   -4.8569   25.0458 C   0  0  0  0  0  0  0  0  0  0  0  0
    6.5266   -4.2085   24.1475 C   0  0  0  0  0  0  0  0  0  0  0  0
    6.1256   -3.2645   23.2987 N   0  0  0  0  0  0  0  0  0  0  0  0
    7.0807   -2.7144   22.5550 C   0  0  0  0  0  0  0  0  0  0  0  0
    6.6106   -1.7789   21.7142 N   0  0  0  0  0  0  0  0  0  0  0  0
    7.4255   -0.7798   21.0581 C   0  0  0  0  0  0  0  0  0  0  0  0
    6.6323   -0.0536   19.9910 C   0  0  0  0  0  0  0  0  0  0  0  0
    5.4240    0.6233   20.2149 C   0  0  0  0  0  0  0  0  0  0  0  0
    4.8095    1.2781   19.1418 C   0  0  0  0  0  0  0  0  0  0  0  0
    5.4226    1.2440   17.8858 C   0  0  0  0  0  0  0  0  0  0  0  0
    6.5683    0.5886   17.6419 N   0  0  0  0  0  0  0  0  0  0  0  0
    7.1460   -0.0279   18.6817 C   0  0  0  0  0  0  0  0  0  0  0  0
    8.0877   -0.5361   18.4483 H   0  0  0  0  0  0  0  0  0  0  0  0
    4.9830    1.7817   17.0481 H   0  0  0  0  0  0  0  0  0  0  0  0
    3.8878    1.8336   19.2803 H   0  0  0  0  0  0  0  0  0  0  0  0
    4.9656    0.6597   21.2031 H   0  0  0  0  0  0  0  0  0  0  0  0
    8.1986    0.1297   22.0691 C   0  0  0  0  0  0  0  0  0  0  0  0
    9.1018    1.1730   21.3788 C   0  0  0  0  0  0  0  0  0  0  0  0
    8.1541    2.3789   21.2443 C   0  0  0  0  0  0  0  0  0  0  0  0
    7.1266    2.2112   22.2136 O   0  0  0  0  0  0  0  0  0  0  0  0
    7.3056    1.0108   22.9373 C   0  0  0  0  0  0  0  0  0  0  0  0
    7.7832    1.2180   23.9106 H   0  0  0  0  0  0  0  0  0  0  0  0
    6.3213    0.5769   23.1515 H   0  0  0  0  0  0  0  0  0  0  0  0
    7.6980    2.3510   20.2498 H   0  0  0  0  0  0  0  0  0  0  0  0
    8.6187    3.3660   21.3876 H   0  0  0  0  0  0  0  0  0  0  0  0
    9.9859    1.4019   21.9882 H   0  0  0  0  0  0  0  0  0  0  0  0
    9.4678    0.8380   20.3991 H   0  0  0  0  0  0  0  0  0  0  0  0
    8.7747   -0.5374   22.7125 H   0  0  0  0  0  0  0  0  0  0  0  0
    8.2177   -1.3101   20.5188 H   0  0  0  0  0  0  0  0  0  0  0  0
    5.6528   -1.6084   21.9707 H   0  0  0  0  0  0  0  0  0  0  0  0
    8.4209   -3.0804   22.6056 C   0  0  0  0  0  0  0  0  0  0  0  0
    8.7088   -4.0787   23.5019 C   0  0  0  0  0  0  0  0  0  0  0  0
    7.7848   -4.6473   24.2654 N   0  0  0  0  0  0  0  0  0  0  0  0
    9.7156   -4.4731   23.6431 H   0  0  0  0  0  0  0  0  0  0  0  0
    9.1603   -2.6076   21.9849 H   0  0  0  0  0  0  0  0  0  0  0  0
    4.1518   -4.4669   25.0428 C   0  0  0  0  0  0  0  0  0  0  0  0
    3.2302   -5.0964   25.8880 C   0  0  0  0  0  0  0  0  0  0  0  0
    2.1832   -4.7913   25.8771 H   0  0  0  0  0  0  0  0  0  0  0  0
    3.8179   -3.6654   24.3838 H   0  0  0  0  0  0  0  0  0  0  0  0
    6.9501   -6.1882   25.9683 H   0  0  0  0  0  0  0  0  0  0  0  0
    5.3242   -7.3003   27.4413 H   0  0  0  0  0  0  0  0  0  0  0  0
    2.9299   -6.6119   27.4095 H   0  0  0  0  0  0  0  0  0  0  0  0
  1  2  2  0
  2  3  1  0
  3  4  2  0
  4  5  1  0
  5  6  2  0
  6  7  1  0
  7  8  1  0
  8  9  1  0
  9 10  1  0
 10 11  2  0
 11 12  1  0
 12 13  2  0
 13 14  1  0
 14 15  2  0
 15 16  1  0
 13 17  1  0
 12 18  1  0
 11 19  1  0
  9 20  1  0
 20 21  1  0
 21 22  1  0
 22 23  1  0
 23 24  1  0
 24 25  1  0
 24 26  1  0
 22 27  1  0
 22 28  1  0
 21 29  1  0
 21 30  1  0
 20 31  1  0
  9 32  1  0
  8 33  1  0
  7 34  2  0
 34 35  1  0
 35 36  2  0
 35 37  1  0
 34 38  1  0
  4 39  1  0
 39 40  2  0
 40 41  1  0
 39 42  1  0
  3 43  1  0
  2 44  1  0
  1 45  1  0
 40  1  1  0
 36  5  1  0
 15 10  1  0
 24 20  1  0
M  END
>  <cnnaffinity>  (1) 
5.73097

>  <plip>  (1) 
-0.07142857142857142

>  <filename>  (1) 
[H][c]1[n][c](-[c]2[c]([H])[c]([H])[c]([H])[c]([H])[c]2[H])[n][c]([N]([H])[C]([H])([c]2[c]([H])[n][c]([H])[c]([H])[c]2[H])[C]2([H])[C]([H])([H])[O][C]([H])([H])[C]2([H])[H])[c]1[H]

>  <combo1>  (1) 
-0.4104957677385455

$$$$
