
     RDKit          3D

 33 35  0  0  0  0  0  0  0  0999 V2000
    8.3776    5.2789   22.4785 H   0  0  0  0  0  0  0  0  0  0  0  0
    7.9726    4.2724   22.5453 C   0  0  0  0  0  0  0  0  0  0  0  0
    8.7580    3.2963   22.1027 N   0  0  0  0  0  0  0  0  0  0  0  0
    8.2664    2.0562   22.1528 C   0  0  0  0  0  0  0  0  0  0  0  0
    9.0995    1.0341   21.6643 N   0  0  0  0  0  0  0  0  0  0  0  0
   10.4890    1.1302   21.5864 C   0  0  0  0  0  0  0  0  0  0  0  0
   10.9756    2.0725   21.8032 H   0  0  0  0  0  0  0  0  0  0  0  0
   10.9839   -0.0810   21.2045 C   0  0  0  0  0  0  0  0  0  0  0  0
   12.0274   -0.3566   21.1366 H   0  0  0  0  0  0  0  0  0  0  0  0
    9.8657   -0.9314   20.9616 C   0  0  0  0  0  0  0  0  0  0  0  0
    9.8696   -1.9455   20.5834 H   0  0  0  0  0  0  0  0  0  0  0  0
    8.7235   -0.2403   21.2511 C   0  0  0  0  0  0  0  0  0  0  0  0
    7.3101   -0.6901   21.0249 C   0  0  0  0  0  0  0  0  0  0  0  0
    6.7186   -0.6143   21.9432 H   0  0  0  0  0  0  0  0  0  0  0  0
    7.3976   -1.7595   20.7997 H   0  0  0  0  0  0  0  0  0  0  0  0
    6.5834    0.0264   19.8967 C   0  0  0  0  0  0  0  0  0  0  0  0
    7.1128    0.0604   18.5937 C   0  0  0  0  0  0  0  0  0  0  0  0
    8.0625   -0.4295   18.3734 H   0  0  0  0  0  0  0  0  0  0  0  0
    6.5256    0.6762   17.5594 N   0  0  0  0  0  0  0  0  0  0  0  0
    5.3694    1.3138   17.8002 C   0  0  0  0  0  0  0  0  0  0  0  0
    4.9260    1.8357   16.9580 H   0  0  0  0  0  0  0  0  0  0  0  0
    4.7389    1.3397   19.0474 C   0  0  0  0  0  0  0  0  0  0  0  0
    3.8077    1.8872   19.1807 H   0  0  0  0  0  0  0  0  0  0  0  0
    5.3630    0.6835   20.1100 C   0  0  0  0  0  0  0  0  0  0  0  0
    4.9397    0.7198   21.1164 H   0  0  0  0  0  0  0  0  0  0  0  0
    7.0809    1.7257   22.6590 N   0  0  0  0  0  0  0  0  0  0  0  0
    6.3057    2.7127   23.1391 C   0  0  0  0  0  0  0  0  0  0  0  0
    4.9104    2.3434   23.7163 C   0  0  0  0  0  0  0  0  0  0  0  0
    4.7390    1.0381   23.9351 F   0  0  0  0  0  0  0  0  0  0  0  0
    3.9154    2.7287   22.8851 F   0  0  0  0  0  0  0  0  0  0  0  0
    4.6914    2.9731   24.8878 F   0  0  0  0  0  0  0  0  0  0  0  0
    6.7162    4.0455   23.0982 C   0  0  0  0  0  0  0  0  0  0  0  0
    6.1115    4.8581   23.4722 H   0  0  0  0  0  0  0  0  0  0  0  0
  1  2  1  0
  2  3  2  0
  3  4  1  0
  4  5  1  0
  5  6  1  0
  6  7  1  0
  6  8  2  0
  8  9  1  0
  8 10  1  0
 10 11  1  0
 10 12  2  0
 12 13  1  0
 13 14  1  0
 13 15  1  0
 13 16  1  0
 16 17  2  0
 17 18  1  0
 17 19  1  0
 19 20  2  0
 20 21  1  0
 20 22  1  0
 22 23  1  0
 22 24  2  0
 24 25  1  0
  4 26  2  0
 26 27  1  0
 27 28  1  0
 28 29  1  0
 28 30  1  0
 28 31  1  0
 27 32  2  0
 32 33  1  0
 32  2  1  0
 12  5  1  0
 24 16  1  0
M  END
>  <cnnaffinity>  (1) 
4.81277

>  <plip>  (1) 
-0.06896551724137931

>  <filename>  (1) 
[H][c]1[n][c](-[n]2[c]([H])[c]([H])[c]([H])[c]2[C]([H])([H])[c]2[c]([H])[n][c]([H])[c]([H])[c]2[H])[n][c]([C]([F])([F])[F])[c]1[H]

>  <combo1>  (1) 
-0.3636131486471045

$$$$
