
     RDKit          3D

 33 34  0  0  0  0  0  0  0  0999 V2000
    5.2338    1.6937   17.1077 H   0  0  0  0  0  0  0  0  0  0  0  0
    5.6101    1.1772   17.9872 C   0  0  0  0  0  0  0  0  0  0  0  0
    6.7496    0.4910   17.8241 N   0  0  0  0  0  0  0  0  0  0  0  0
    7.2468   -0.1525   18.8776 C   0  0  0  0  0  0  0  0  0  0  0  0
    8.1759   -0.6956   18.7194 H   0  0  0  0  0  0  0  0  0  0  0  0
    6.6274   -0.1165   20.1168 C   0  0  0  0  0  0  0  0  0  0  0  0
    7.4583   -0.9546   21.3956 S   0  0  0  0  0  0  0  0  0  0  0  0
    8.3123   -1.9491   20.7501 O   0  0  0  0  0  0  0  0  0  0  0  0
    6.4549   -1.3686   22.3563 O   0  0  0  0  0  0  0  0  0  0  0  0
    8.5815    0.3812   22.0768 C   0  0  0  0  0  0  0  0  0  0  0  0
    9.1843   -0.5005   23.1375 C   0  0  0  0  0  0  0  0  0  0  0  0
    8.5729   -0.6190   24.2855 N   0  0  0  0  0  0  0  0  0  0  0  0
    9.2156   -1.6113   24.9618 C   0  0  0  0  0  0  0  0  0  0  0  0
    8.9106   -1.9110   25.9580 H   0  0  0  0  0  0  0  0  0  0  0  0
   10.2284   -2.1114   24.1934 C   0  0  0  0  0  0  0  0  0  0  0  0
   10.9205   -2.9198   24.3679 H   0  0  0  0  0  0  0  0  0  0  0  0
   10.2245   -1.3931   23.0207 N   0  0  0  0  0  0  0  0  0  0  0  0
   11.1108   -1.6910   21.8945 C   0  0  0  0  0  0  0  0  0  0  0  0
   11.7007   -0.8113   21.6249 H   0  0  0  0  0  0  0  0  0  0  0  0
   10.5344   -2.0378   21.0362 H   0  0  0  0  0  0  0  0  0  0  0  0
   11.7970   -2.4828   22.2052 H   0  0  0  0  0  0  0  0  0  0  0  0
    7.8149    1.5878   22.6631 C   0  0  0  0  0  0  0  0  0  0  0  0
    8.5443    2.2553   23.1368 H   0  0  0  0  0  0  0  0  0  0  0  0
    7.0726    1.3026   23.4102 H   0  0  0  0  0  0  0  0  0  0  0  0
    7.3254    2.1672   21.8720 H   0  0  0  0  0  0  0  0  0  0  0  0
    9.5497    0.9247   21.0164 C   0  0  0  0  0  0  0  0  0  0  0  0
    9.0074    1.6490   20.4054 H   0  0  0  0  0  0  0  0  0  0  0  0
   10.3694    1.4612   21.5078 H   0  0  0  0  0  0  0  0  0  0  0  0
    9.9405    0.1490   20.3553 H   0  0  0  0  0  0  0  0  0  0  0  0
    5.4394    0.5869   20.3122 C   0  0  0  0  0  0  0  0  0  0  0  0
    4.9352    0.6276   21.2811 H   0  0  0  0  0  0  0  0  0  0  0  0
    4.9242    1.2505   19.2028 C   0  0  0  0  0  0  0  0  0  0  0  0
    4.0133    1.8327   19.2651 H   0  0  0  0  0  0  0  0  0  0  0  0
  1  2  1  0
  2  3  2  0
  3  4  1  0
  4  5  1  0
  4  6  2  0
  6  7  1  0
  7  8  2  0
  7  9  2  0
  7 10  1  0
 10 11  1  0
 11 12  2  0
 12 13  1  0
 13 14  1  0
 13 15  2  0
 15 16  1  0
 15 17  1  0
 17 18  1  0
 18 19  1  0
 18 20  1  0
 18 21  1  0
 10 22  1  0
 22 23  1  0
 22 24  1  0
 22 25  1  0
 10 26  1  0
 26 27  1  0
 26 28  1  0
 26 29  1  0
  6 30  1  0
 30 31  1  0
 30 32  2  0
 32 33  1  0
 32  2  1  0
 17 11  1  0
M  END
>  <cnnaffinity>  (1) 
4.41809

>  <plip>  (1) 
-0.03571428571428571

>  <filename>  (1) 
[H][c]1[n][c]([H])[c]([S](=[O])(=[O])[C]([c]2[n][c]([H])[c]([H])[n]2[C]([H])([H])[H])([C]([H])([H])[H])[C]([H])([H])[H])[c]([H])[c]1[H]

>  <combo1>  (1) 
-0.19822381085185503

$$$$
