
     RDKit          3D

 54 55  0  0  0  0  0  0  0  0999 V2000
   14.1574   -1.9503   21.7557 C   0  0  0  0  0  0  0  0  0  0  0  0
   12.8044   -1.3747   22.0794 C   0  0  0  0  0  0  0  0  0  0  0  0
   11.7281   -2.1844   22.4615 C   0  0  0  0  0  0  0  0  0  0  0  0
   10.4930   -1.6174   22.7732 C   0  0  0  0  0  0  0  0  0  0  0  0
   10.2559   -0.2393   22.6105 C   0  0  0  0  0  0  0  0  0  0  0  0
    8.8274    0.2592   22.8739 C   0  0  0  0  0  0  0  0  0  0  0  0
    8.6683    1.4791   23.7838 C   0  0  0  0  0  0  0  0  0  0  0  0
    7.6021    1.6149   24.0055 H   0  0  0  0  0  0  0  0  0  0  0  0
    9.2094    1.3510   24.7220 H   0  0  0  0  0  0  0  0  0  0  0  0
    9.0157    2.3863   23.2856 H   0  0  0  0  0  0  0  0  0  0  0  0
    8.0747    0.5606   21.6153 N   0  0  0  0  0  4  0  0  0  0  0  0
    7.0267   -0.4164   21.1840 C   0  0  0  0  0  0  0  0  0  0  0  0
    7.6382   -1.7921   20.8559 C   0  0  0  0  0  0  0  0  0  0  0  0
    6.9443   -2.9903   21.4849 C   0  0  0  0  0  0  0  0  0  0  0  0
    5.4762   -2.9612   21.1333 N   0  0  0  0  0  4  0  0  0  0  0  0
    4.6959   -3.8820   22.0054 C   0  0  0  0  0  0  0  0  0  0  0  0
    5.0529   -4.9138   21.8802 H   0  0  0  0  0  0  0  0  0  0  0  0
    4.8265   -3.6241   23.0626 H   0  0  0  0  0  0  0  0  0  0  0  0
    3.6289   -3.8539   21.7642 H   0  0  0  0  0  0  0  0  0  0  0  0
    5.2739   -3.2860   19.6772 C   0  0  0  0  0  0  0  0  0  0  0  0
    4.2421   -3.0910   19.3746 H   0  0  0  0  0  0  0  0  0  0  0  0
    5.5052   -4.3446   19.5006 H   0  0  0  0  0  0  0  0  0  0  0  0
    5.9196   -2.6857   19.0340 H   0  0  0  0  0  0  0  0  0  0  0  0
    5.1571   -1.9847   21.3045 H   0  0  0  0  0  0  0  0  0  0  0  0
    7.0596   -3.0192   22.5775 H   0  0  0  0  0  0  0  0  0  0  0  0
    7.3758   -3.9248   21.0992 H   0  0  0  0  0  0  0  0  0  0  0  0
    7.5777   -1.9186   19.7780 H   0  0  0  0  0  0  0  0  0  0  0  0
    8.6995   -1.8194   21.0913 H   0  0  0  0  0  0  0  0  0  0  0  0
    6.3766    0.2485   19.9928 C   0  0  0  0  0  0  0  0  0  0  0  0
    5.1295    0.8824   20.0667 C   0  0  0  0  0  0  0  0  0  0  0  0
    4.6405    1.5483   18.9361 C   0  0  0  0  0  0  0  0  0  0  0  0
    5.4049    1.5288   17.7645 C   0  0  0  0  0  0  0  0  0  0  0  0
    6.5837    0.8998   17.6632 N   0  0  0  0  0  0  0  0  0  0  0  0
    7.0540    0.2931   18.7575 C   0  0  0  0  0  0  0  0  0  0  0  0
    8.0133   -0.2106   18.6257 H   0  0  0  0  0  0  0  0  0  0  0  0
    5.0497    2.0264   16.8633 H   0  0  0  0  0  0  0  0  0  0  0  0
    3.7144    2.1143   18.9568 H   0  0  0  0  0  0  0  0  0  0  0  0
    4.5617    0.8812   21.0012 H   0  0  0  0  0  0  0  0  0  0  0  0
    6.2905   -0.5009   21.9955 H   0  0  0  0  0  0  0  0  0  0  0  0
    8.7483    0.6114   20.8109 H   0  0  0  0  0  0  0  0  0  0  0  0
    7.6258    1.5013   21.7243 H   0  0  0  0  0  0  0  0  0  0  0  0
    8.3246   -0.5899   23.3507 H   0  0  0  0  0  0  0  0  0  0  0  0
   11.3250    0.5854   22.1977 C   0  0  0  0  0  0  0  0  0  0  0  0
   11.1486    2.0488   21.8515 C   0  0  0  0  0  0  0  0  0  0  0  0
   10.2631    2.1888   21.2185 H   0  0  0  0  0  0  0  0  0  0  0  0
   11.0193    2.6721   22.7433 H   0  0  0  0  0  0  0  0  0  0  0  0
   12.0085    2.4376   21.2973 H   0  0  0  0  0  0  0  0  0  0  0  0
   12.5904    0.0092   22.0227 C   0  0  0  0  0  0  0  0  0  0  0  0
   13.4354    0.6665   21.8168 H   0  0  0  0  0  0  0  0  0  0  0  0
    9.6812   -2.2600   23.1168 H   0  0  0  0  0  0  0  0  0  0  0  0
   11.8661   -3.2502   22.5801 H   0  0  0  0  0  0  0  0  0  0  0  0
   14.4526   -1.7366   20.7212 H   0  0  0  0  0  0  0  0  0  0  0  0
   14.9220   -1.5093   22.4096 H   0  0  0  0  0  0  0  0  0  0  0  0
   14.1814   -3.0381   21.8798 H   0  0  0  0  0  0  0  0  0  0  0  0
  1  2  1  0
  2  3  2  0
  3  4  1  0
  4  5  2  0
  5  6  1  0
  6  7  1  0
  7  8  1  0
  7  9  1  0
  7 10  1  0
  6 11  1  0
 11 12  1  0
 12 13  1  0
 13 14  1  0
 14 15  1  0
 15 16  1  0
 16 17  1  0
 16 18  1  0
 16 19  1  0
 15 20  1  0
 20 21  1  0
 20 22  1  0
 20 23  1  0
 15 24  1  0
 14 25  1  0
 14 26  1  0
 13 27  1  0
 13 28  1  0
 12 29  1  0
 29 30  2  0
 30 31  1  0
 31 32  2  0
 32 33  1  0
 33 34  2  0
 34 35  1  0
 32 36  1  0
 31 37  1  0
 30 38  1  0
 12 39  1  0
 11 40  1  0
 11 41  1  0
  6 42  1  0
  5 43  1  0
 43 44  1  0
 44 45  1  0
 44 46  1  0
 44 47  1  0
 43 48  2  0
 48 49  1  0
  4 50  1  0
  3 51  1  0
  1 52  1  0
  1 53  1  0
  1 54  1  0
 48  2  1  0
 34 29  1  0
M  CHG  2  11   1  15   1
M  END
>  <cnnaffinity>  (1) 
5.61525

>  <plip>  (1) 
-0.17857142857142858

>  <filename>  (1) 
[H][c]1[n][c]([H])[c]([C]([H])([C]([H])([H])[C]([H])([H])[N+]([H])([C]([H])([H])[H])[C]([H])([H])[H])[N+]([H])([H])[C]([H])([c]2[c]([H])[c]([H])[c]([C]([H])([H])[H])[c]([H])[c]2[C]([H])([H])[H])[C]([H])([H])[H])[c]([H])[c]1[H]

>  <combo1>  (1) 
-1.0661971279010478

$$$$
