
     RDKit          3D

 33 35  0  0  0  0  0  0  0  0999 V2000
    8.0966   -1.9366   25.4117 H   0  0  0  0  0  0  0  0  0  0  0  0
    8.1252   -2.4917   24.4705 C   0  0  0  0  0  0  0  0  0  0  0  0
    7.7654   -1.8707   23.3288 C   0  0  0  0  0  0  0  0  0  0  0  0
    7.7364   -2.4140   22.3829 H   0  0  0  0  0  0  0  0  0  0  0  0
    7.4687   -0.4511   23.1657 C   0  0  0  0  0  0  0  0  0  0  0  0
    7.2288    0.2811   22.0099 C   0  0  0  0  0  0  0  0  0  0  0  0
    7.1996   -0.2828   20.7561 O   0  0  0  0  0  0  0  0  0  0  0  0
    6.5385    0.3352   19.7129 C   0  0  0  0  0  0  0  0  0  0  0  0
    7.1733    0.3428   18.4571 C   0  0  0  0  0  0  0  0  0  0  0  0
    8.1682   -0.0869   18.3535 H   0  0  0  0  0  0  0  0  0  0  0  0
    6.6157    0.8471   17.3490 N   0  0  0  0  0  0  0  0  0  0  0  0
    5.3873    1.3816   17.4538 C   0  0  0  0  0  0  0  0  0  0  0  0
    4.9688    1.7909   16.5373 H   0  0  0  0  0  0  0  0  0  0  0  0
    4.6753    1.4135   18.6552 C   0  0  0  0  0  0  0  0  0  0  0  0
    3.6869    1.8553   18.6708 H   0  0  0  0  0  0  0  0  0  0  0  0
    5.2546    0.8840   19.8156 C   0  0  0  0  0  0  0  0  0  0  0  0
    4.7311    0.8943   20.7716 H   0  0  0  0  0  0  0  0  0  0  0  0
    7.1201    1.6289   22.4187 C   0  0  0  0  0  0  0  0  0  0  0  0
    6.9719    2.5087   21.8093 H   0  0  0  0  0  0  0  0  0  0  0  0
    7.2467    1.7379   23.7353 N   0  0  0  0  0  0  0  0  0  0  0  0
    7.4445    0.4868   24.1613 N   0  0  0  0  0  0  0  0  0  0  0  0
    7.5605    0.3364   25.1523 H   0  0  0  0  0  0  0  0  0  0  0  0
    8.6567   -3.8619   24.6268 C   0  0  0  0  0  0  0  0  0  0  0  0
    9.4712   -4.1320   25.7480 C   0  0  0  0  0  0  0  0  0  0  0  0
    9.7547   -3.3192   26.4090 H   0  0  0  0  0  0  0  0  0  0  0  0
    9.9646   -5.4121   25.9969 C   0  0  0  0  0  0  0  0  0  0  0  0
   10.5555   -5.6028   26.8904 H   0  0  0  0  0  0  0  0  0  0  0  0
    9.6679   -6.4524   25.1088 C   0  0  0  0  0  0  0  0  0  0  0  0
   10.0616   -7.4483   25.2908 H   0  0  0  0  0  0  0  0  0  0  0  0
    8.8740   -6.2019   23.9833 C   0  0  0  0  0  0  0  0  0  0  0  0
    8.6160   -7.0023   23.2939 H   0  0  0  0  0  0  0  0  0  0  0  0
    8.3894   -4.9160   23.7340 C   0  0  0  0  0  0  0  0  0  0  0  0
    7.7963   -4.7373   22.8415 H   0  0  0  0  0  0  0  0  0  0  0  0
  1  2  1  0
  2  3  2  3
  3  4  1  0
  3  5  1  0
  5  6  2  0
  6  7  1  0
  7  8  1  0
  8  9  2  0
  9 10  1  0
  9 11  1  0
 11 12  2  0
 12 13  1  0
 12 14  1  0
 14 15  1  0
 14 16  2  0
 16 17  1  0
  6 18  1  0
 18 19  1  0
 18 20  2  0
 20 21  1  0
 21 22  1  0
  2 23  1  0
 23 24  2  0
 24 25  1  0
 24 26  1  0
 26 27  1  0
 26 28  2  0
 28 29  1  0
 28 30  1  0
 30 31  1  0
 30 32  2  0
 32 33  1  0
 21  5  1  0
 32 23  1  0
 16  8  1  0
M  END
>  <cnnaffinity>  (1) 
5.08609

>  <plip>  (1) 
-0.07142857142857142

>  <filename>  (1) 
[H][C](=[C]([H])[c]1[c]([O][c]2[c]([H])[n][c]([H])[c]([H])[c]2[H])[c]([H])[n][n]1[H])[c]1[c]([H])[c]([H])[c]([H])[c]([H])[c]1[H]

>  <combo1>  (1) 
-0.4599216899064981

$$$$
