
     RDKit          3D

 57 60  0  0  0  0  0  0  0  0999 V2000
    4.7638    1.3355   19.0469 C   0  0  0  0  0  0  0  0  0  0  0  0
    5.3901    1.3111   17.7960 C   0  0  0  0  0  0  0  0  0  0  0  0
    6.5259    0.6401   17.5614 N   0  0  0  0  0  0  0  0  0  0  0  0
    7.0742    0.0017   18.5991 C   0  0  0  0  0  0  0  0  0  0  0  0
    6.5590   -0.0194   19.9038 C   0  0  0  0  0  0  0  0  0  0  0  0
    7.4063   -0.6593   20.9772 C   0  0  0  0  0  0  0  0  0  0  0  0
    7.8056    0.2884   22.1237 C   0  0  0  0  0  0  0  0  0  0  0  0
    8.7320    1.4011   21.7379 N   0  0  0  0  0  4  0  0  0  0  0  0
   10.0818    0.9638   21.2053 C   0  0  0  0  0  0  0  0  0  0  0  0
   11.0098    2.1546   21.4433 C   0  0  0  0  0  0  0  0  0  0  0  0
   10.3738    2.9876   22.5800 C   0  0  0  0  0  0  0  0  0  0  0  0
    9.0295    2.3223   22.8937 C   0  0  0  0  0  0  0  0  0  0  0  0
    9.0976    1.7158   23.8045 H   0  0  0  0  0  0  0  0  0  0  0  0
    8.2045    3.0258   23.0267 H   0  0  0  0  0  0  0  0  0  0  0  0
   10.2371    4.0344   22.2812 H   0  0  0  0  0  0  0  0  0  0  0  0
   10.9888    2.9830   23.4851 H   0  0  0  0  0  0  0  0  0  0  0  0
   11.0959    2.7491   20.5328 H   0  0  0  0  0  0  0  0  0  0  0  0
   12.0197    1.8116   21.6869 H   0  0  0  0  0  0  0  0  0  0  0  0
   10.4187    0.0824   21.7625 H   0  0  0  0  0  0  0  0  0  0  0  0
    9.9822    0.6801   20.1547 H   0  0  0  0  0  0  0  0  0  0  0  0
    8.2373    1.9522   20.9874 H   0  0  0  0  0  0  0  0  0  0  0  0
    8.2861   -0.3324   22.8909 H   0  0  0  0  0  0  0  0  0  0  0  0
    6.8743    0.6663   22.5681 H   0  0  0  0  0  0  0  0  0  0  0  0
    6.6546   -1.8389   21.4999 N   0  0  0  0  0  4  0  0  0  0  0  0
    7.4046   -2.8119   22.3536 C   0  0  0  0  0  0  0  0  0  0  0  0
    7.2295   -4.2102   21.7619 C   0  0  0  0  0  0  0  0  0  0  0  0
    5.8068   -4.7182   21.9514 C   0  0  0  0  0  0  0  0  0  0  0  0
    5.4217   -4.6375   23.3566 N   0  0  0  0  0  0  0  0  0  0  0  0
    4.6496   -5.6401   23.8957 C   0  0  0  0  0  0  0  0  0  0  0  0
    5.1153   -6.9363   23.7220 C   0  0  0  0  0  0  0  0  0  0  0  0
    4.4990   -7.9361   24.4318 C   0  0  0  0  0  0  0  0  0  0  0  0
    3.3896   -7.7967   25.1675 N   0  0  0  0  0  0  0  0  0  0  0  0
    2.8950   -6.5554   25.2558 C   0  0  0  0  0  0  0  0  0  0  0  0
    3.4924   -5.4431   24.6617 C   0  0  0  0  0  0  0  0  0  0  0  0
    3.0950   -4.4500   24.8095 H   0  0  0  0  0  0  0  0  0  0  0  0
    1.9972   -6.4355   25.8650 H   0  0  0  0  0  0  0  0  0  0  0  0
    5.0074   -8.8760   24.4266 H   0  0  0  0  0  0  0  0  0  0  0  0
    5.9936   -7.1388   23.1215 H   0  0  0  0  0  0  0  0  0  0  0  0
    5.5204   -3.3488   24.0167 C   0  0  0  0  0  0  0  0  0  0  0  0
    6.9137   -2.7471   23.8112 C   0  0  0  0  0  0  0  0  0  0  0  0
    7.6179   -3.3044   24.4398 H   0  0  0  0  0  0  0  0  0  0  0  0
    6.9194   -1.7060   24.1513 H   0  0  0  0  0  0  0  0  0  0  0  0
    5.3441   -3.4728   25.0933 H   0  0  0  0  0  0  0  0  0  0  0  0
    4.7148   -2.7046   23.6648 H   0  0  0  0  0  0  0  0  0  0  0  0
    5.1012   -4.1581   21.3120 H   0  0  0  0  0  0  0  0  0  0  0  0
    5.7544   -5.7569   21.6145 H   0  0  0  0  0  0  0  0  0  0  0  0
    7.9257   -4.8966   22.2552 H   0  0  0  0  0  0  0  0  0  0  0  0
    7.4774   -4.1915   20.6955 H   0  0  0  0  0  0  0  0  0  0  0  0
    8.4715   -2.5603   22.3325 H   0  0  0  0  0  0  0  0  0  0  0  0
    5.8455   -1.4712   22.0761 H   0  0  0  0  0  0  0  0  0  0  0  0
    6.2570   -2.3343   20.6603 H   0  0  0  0  0  0  0  0  0  0  0  0
    8.3322   -1.0147   20.5056 H   0  0  0  0  0  0  0  0  0  0  0  0
    5.3491    0.6612   20.1226 C   0  0  0  0  0  0  0  0  0  0  0  0
    4.8671    0.6724   21.1063 H   0  0  0  0  0  0  0  0  0  0  0  0
    8.0012   -0.5300   18.3935 H   0  0  0  0  0  0  0  0  0  0  0  0
    4.9612    1.8417   16.9450 H   0  0  0  0  0  0  0  0  0  0  0  0
    3.8367    1.8857   19.1588 H   0  0  0  0  0  0  0  0  0  0  0  0
  1  2  2  0
  2  3  1  0
  3  4  2  0
  4  5  1  0
  5  6  1  0
  6  7  1  0
  7  8  1  0
  8  9  1  0
  9 10  1  0
 10 11  1  0
 11 12  1  0
 12 13  1  0
 12 14  1  0
 11 15  1  0
 11 16  1  0
 10 17  1  0
 10 18  1  0
  9 19  1  0
  9 20  1  0
  8 21  1  0
  7 22  1  0
  7 23  1  0
  6 24  1  0
 24 25  1  0
 25 26  1  0
 26 27  1  0
 27 28  1  0
 28 29  1  0
 29 30  2  0
 30 31  1  0
 31 32  2  0
 32 33  1  0
 33 34  2  0
 34 35  1  0
 33 36  1  0
 31 37  1  0
 30 38  1  0
 28 39  1  0
 39 40  1  0
 40 41  1  0
 40 42  1  0
 39 43  1  0
 39 44  1  0
 27 45  1  0
 27 46  1  0
 26 47  1  0
 26 48  1  0
 25 49  1  0
 24 50  1  0
 24 51  1  0
  6 52  1  0
  5 53  2  0
 53 54  1  0
  4 55  1  0
  2 56  1  0
  1 57  1  0
 53  1  1  0
 12  8  1  0
 40 25  1  0
 34 29  1  0
M  CHG  2   8   1  24   1
M  END
>  <cnnaffinity>  (1) 
5.10793

>  <plip>  (1) 
-0.20689655172413793

>  <filename>  (1) 
[H][c]1[n][c]([H])[c]([C]([H])([C]([H])([H])[N+]2([H])[C]([H])([H])[C]([H])([H])[C]([H])([H])[C]2([H])[H])[N+]([H])([H])[C]2([H])[C]([H])([H])[C]([H])([H])[N]([c]3[c]([H])[c]([H])[n][c]([H])[c]3[H])[C]([H])([H])[C]2([H])[H])[c]([H])[c]1[H]

>  <combo1>  (1) 
-0.9964839708830733

$$$$
