
     RDKit          3D

 38 39  0  0  0  0  0  0  0  0999 V2000
   11.3738    4.7517   24.1163 C   0  0  0  0  0  0  0  0  0  0  0  0
   10.2412    4.3652   23.9372 C   0  0  0  0  0  0  0  0  0  0  0  0
    8.7337    2.7102   21.9611 C   0  0  0  0  0  0  0  0  0  0  0  0
    8.7704    2.5151   22.2324 C   0  0  0  0  0  0  0  0  0  0  0  0
    9.9188    1.9571   22.3697 C   0  0  0  0  0  0  0  0  0  0  0  0
    8.3157   -0.4392   21.8185 N   0  0  0  0  0  4  0  0  0  0  0  0
    7.5571   -1.2059   20.8302 C   0  0  0  0  0  0  0  0  0  0  0  0
    6.8645   -0.2492   19.8819 C   0  0  0  0  0  0  0  0  0  0  0  0
    5.7902    0.5878   20.2334 C   0  0  0  0  0  0  0  0  0  0  0  0
    5.2479    1.4347   19.2615 C   0  0  0  0  0  0  0  0  0  0  0  0
    5.7958    1.4238   17.9747 C   0  0  0  0  0  0  0  0  0  0  0  0
    6.8171    0.6337   17.6171 N   0  0  0  0  0  0  0  0  0  0  0  0
    7.3198   -0.1749   18.5573 C   0  0  0  0  0  0  0  0  0  0  0  0
    8.1417   -0.8137   18.2305 H   0  0  0  0  0  0  0  0  0  0  0  0
    5.4074    2.0799   17.1978 H   0  0  0  0  0  0  0  0  0  0  0  0
    4.4207    2.1025   19.4833 H   0  0  0  0  0  0  0  0  0  0  0  0
    5.3673    0.5699   21.2434 H   0  0  0  0  0  0  0  0  0  0  0  0
    6.6019   -2.2171   21.4731 C   0  0  0  0  0  0  0  0  0  0  0  0
    7.2463   -3.4051   22.2484 C   0  0  0  0  0  0  0  0  0  0  0  0
    6.7776   -4.3877   21.1461 C   0  0  0  0  0  0  0  0  0  0  0  0
    5.9488   -3.2457   20.5098 C   0  0  0  0  0  0  0  0  0  0  0  0
    6.0824   -3.0666   19.4360 H   0  0  0  0  0  0  0  0  0  0  0  0
    4.8813   -3.3514   20.7034 H   0  0  0  0  0  0  0  0  0  0  0  0
    6.2125   -5.2646   21.4875 H   0  0  0  0  0  0  0  0  0  0  0  0
    7.5972   -4.7530   20.5165 H   0  0  0  0  0  0  0  0  0  0  0  0
    6.7644   -3.5734   23.2181 H   0  0  0  0  0  0  0  0  0  0  0  0
    8.3286   -3.3558   22.4261 H   0  0  0  0  0  0  0  0  0  0  0  0
    5.8715   -1.6695   22.0839 H   0  0  0  0  0  0  0  0  0  0  0  0
    8.2692   -1.7864   20.2169 H   0  0  0  0  0  0  0  0  0  0  0  0
    7.7028    0.2710   22.2162 H   0  0  0  0  0  0  0  0  0  0  0  0
    8.5225   -1.0770   22.5919 H   0  0  0  0  0  0  0  0  0  0  0  0
   10.4834    2.3476   23.2111 H   0  0  0  0  0  0  0  0  0  0  0  0
   10.1394    0.9405   21.9943 H   0  0  0  0  0  0  0  0  0  0  0  0
    7.7532    2.0862   21.6860 H   0  0  0  0  0  0  0  0  0  0  0  0
    8.1951    2.5481   23.2882 H   0  0  0  0  0  0  0  0  0  0  0  0
    8.9278    3.0037   20.4425 H   0  0  0  0  0  0  0  0  0  0  0  0
    8.3069    4.0376   21.5586 H   0  0  0  0  0  0  0  0  0  0  0  0
   12.3741    5.1632   24.2708 H   0  0  0  0  0  0  0  0  0  0  0  0
  1  2  3  0
  2  3  1  0
  3  4  1  0
  4  5  1  0
  5  6  1  0
  6  7  1  0
  7  8  1  0
  8  9  2  0
  9 10  1  0
 10 11  2  0
 11 12  1  0
 12 13  2  0
 13 14  1  0
 11 15  1  0
 10 16  1  0
  9 17  1  0
  7 18  1  0
 18 19  1  0
 19 20  1  0
 20 21  1  0
 21 22  1  0
 21 23  1  0
 20 24  1  0
 20 25  1  0
 19 26  1  0
 19 27  1  0
 18 28  1  0
  7 29  1  0
  6 30  1  0
  6 31  1  0
  5 32  1  0
  5 33  1  0
  4 34  1  0
  4 35  1  0
  3 36  1  0
  3 37  1  0
  1 38  1  0
 13  8  1  0
 21 18  1  0
M  CHG  1   6   1
M  END
>  <cnnaffinity>  (1) 
4.6644

>  <plip>  (1) 
-0.03571428571428571

>  <filename>  (1) 
[H][C]#[C][C]([H])([H])[C]([H])([H])[C]([H])([H])[N+]([H])([H])[C]([H])([c]1[c]([H])[n][c]([H])[c]([H])[c]1[H])[C]1([H])[C]([H])([H])[C]([H])([H])[C]1([H])[H]

>  <combo1>  (1) 
-0.2421159702484505

$$$$
