
     RDKit          3D

 32 34  0  0  0  0  0  0  0  0999 V2000
    2.5559   -5.0492   22.7894 H   0  0  0  0  0  0  0  0  0  0  0  0
    3.5766   -5.0470   22.4176 C   0  0  0  0  0  0  0  0  0  0  0  0
    4.1214   -3.8450   22.2204 N   0  0  0  0  0  0  0  0  0  0  0  0
    5.3697   -3.8157   21.7418 C   0  0  0  0  0  0  0  0  0  0  0  0
    5.8045   -2.5484   21.5553 N   0  0  0  0  0  0  0  0  0  0  0  0
    5.1957   -1.9259   22.0624 H   0  0  0  0  0  0  0  0  0  0  0  0
    7.1275   -2.1629   21.1459 C   0  0  0  0  0  0  0  0  0  0  0  0
    7.3100   -2.5764   20.1544 H   0  0  0  0  0  0  0  0  0  0  0  0
    7.9001   -2.5847   21.8073 H   0  0  0  0  0  0  0  0  0  0  0  0
    7.3415   -0.6536   21.0619 C   0  0  0  0  0  0  0  0  0  0  0  0
    6.6104    0.0453   19.9432 C   0  0  0  0  0  0  0  0  0  0  0  0
    7.1370    0.0514   18.6377 C   0  0  0  0  0  0  0  0  0  0  0  0
    8.0770   -0.4695   18.4442 H   0  0  0  0  0  0  0  0  0  0  0  0
    6.5692    0.6649   17.5907 N   0  0  0  0  0  0  0  0  0  0  0  0
    5.4080    1.2986   17.8104 C   0  0  0  0  0  0  0  0  0  0  0  0
    4.9690    1.7942   16.9460 H   0  0  0  0  0  0  0  0  0  0  0  0
    4.7643    1.3198   19.0520 C   0  0  0  0  0  0  0  0  0  0  0  0
    3.8195    1.8409   19.1577 H   0  0  0  0  0  0  0  0  0  0  0  0
    5.3747    0.6772   20.1328 C   0  0  0  0  0  0  0  0  0  0  0  0
    4.9221    0.6778   21.1236 H   0  0  0  0  0  0  0  0  0  0  0  0
    7.6326    0.0644   22.3533 C   0  0  0  0  0  0  0  0  0  0  0  0
    7.2821    1.0870   22.4758 H   0  0  0  0  0  0  0  0  0  0  0  0
    7.6000   -0.5296   23.2657 H   0  0  0  0  0  0  0  0  0  0  0  0
    8.7486   -0.1929   21.3758 C   0  0  0  0  0  0  0  0  0  0  0  0
    9.4745   -0.9683   21.6197 H   0  0  0  0  0  0  0  0  0  0  0  0
    9.1545    0.6540   20.8234 H   0  0  0  0  0  0  0  0  0  0  0  0
    6.1319   -4.9702   21.4549 C   0  0  0  0  0  0  0  0  0  0  0  0
    7.1588   -4.8653   21.1205 H   0  0  0  0  0  0  0  0  0  0  0  0
    5.5378   -6.2099   21.6783 C   0  0  0  0  0  0  0  0  0  0  0  0
    6.0906   -7.1314   21.4947 H   0  0  0  0  0  0  0  0  0  0  0  0
    4.2268   -6.2547   22.1636 C   0  0  0  0  0  0  0  0  0  0  0  0
    3.7105   -7.1881   22.3567 H   0  0  0  0  0  0  0  0  0  0  0  0
  1  2  1  0
  2  3  2  0
  3  4  1  0
  4  5  1  0
  5  6  1  0
  5  7  1  0
  7  8  1  0
  7  9  1  0
  7 10  1  0
 10 11  1  0
 11 12  2  0
 12 13  1  0
 12 14  1  0
 14 15  2  0
 15 16  1  0
 15 17  1  0
 17 18  1  0
 17 19  2  0
 19 20  1  0
 10 21  1  0
 21 22  1  0
 21 23  1  0
 21 24  1  0
 24 25  1  0
 24 26  1  0
  4 27  2  0
 27 28  1  0
 27 29  1  0
 29 30  1  0
 29 31  2  0
 31 32  1  0
 31  2  1  0
 24 10  1  0
 19 11  1  0
M  END
>  <cnnaffinity>  (1) 
4.92109

>  <plip>  (1) 
-0.06896551724137931

>  <filename>  (1) 
[H][c]1[n][c]([N]([H])[C]([H])([H])[C]2([c]3[c]([H])[n][c]([H])[c]([H])[c]3[H])[C]([H])([H])[C]2([H])[H])[c]([H])[c]([H])[c]1[H]

>  <combo1>  (1) 
-0.5021350040929733

$$$$
