
     RDKit          3D

 38 39  0  0  0  0  0  0  0  0999 V2000
    6.2990   -4.2419   21.3970 C   0  0  0  0  0  0  0  0  0  0  0  0
    6.9818   -2.9907   20.8519 C   0  0  0  0  0  0  0  0  0  0  0  0
    6.7092   -1.7161   21.6473 C   0  0  0  0  0  0  0  0  0  0  0  0
    7.3695   -0.5541   21.0291 N   0  0  0  0  0  0  0  0  0  0  0  0
    8.7410   -0.4173   21.2622 C   0  0  0  0  0  0  0  0  0  0  0  0
    9.4347   -1.2999   21.7256 O   0  0  0  0  0  0  0  0  0  0  0  0
    9.2146    0.8622   20.9491 N   0  0  0  0  0  0  0  0  0  0  0  0
   10.3999    1.3970   21.5149 N   0  0  0  0  0  0  0  0  0  0  0  0
   10.6249    1.1940   22.8965 C   0  0  0  0  0  0  0  0  0  0  0  0
    9.5775    1.2598   23.8380 C   0  0  0  0  0  0  0  0  0  0  0  0
    9.7969    0.9361   25.1764 C   0  0  0  0  0  0  0  0  0  0  0  0
   11.0600    0.5283   25.6052 C   0  0  0  0  0  0  0  0  0  0  0  0
   12.1333    0.5237   24.7103 C   0  0  0  0  0  0  0  0  0  0  0  0
   11.9149    0.8761   23.3786 C   0  0  0  0  0  0  0  0  0  0  0  0
   13.2811    0.8508   22.2990 Cl  0  0  0  0  0  0  0  0  0  0  0  0
   13.1165    0.1843   25.0270 H   0  0  0  0  0  0  0  0  0  0  0  0
   11.1979    0.2245   26.6358 H   0  0  0  0  0  0  0  0  0  0  0  0
    8.9659    0.9756   25.8774 H   0  0  0  0  0  0  0  0  0  0  0  0
    8.5808    1.5300   23.5083 H   0  0  0  0  0  0  0  0  0  0  0  0
   11.2159    1.0865   20.9873 H   0  0  0  0  0  0  0  0  0  0  0  0
    8.4469    1.5199   20.8945 H   0  0  0  0  0  0  0  0  0  0  0  0
    6.7015    0.0669   19.9208 C   0  0  0  0  0  0  0  0  0  0  0  0
    5.4940    0.7394   20.1364 C   0  0  0  0  0  0  0  0  0  0  0  0
    4.8652    1.3650   19.0547 C   0  0  0  0  0  0  0  0  0  0  0  0
    5.4490    1.2775   17.7875 C   0  0  0  0  0  0  0  0  0  0  0  0
    6.5947    0.6168   17.5543 N   0  0  0  0  0  0  0  0  0  0  0  0
    7.2002    0.0338   18.5963 C   0  0  0  0  0  0  0  0  0  0  0  0
    8.1406   -0.4783   18.3907 H   0  0  0  0  0  0  0  0  0  0  0  0
    4.9811    1.7532   16.9277 H   0  0  0  0  0  0  0  0  0  0  0  0
    3.9418    1.9173   19.1847 H   0  0  0  0  0  0  0  0  0  0  0  0
    5.0798    0.7729   21.1436 H   0  0  0  0  0  0  0  0  0  0  0  0
    5.6315   -1.5157   21.6872 H   0  0  0  0  0  0  0  0  0  0  0  0
    7.0700   -1.8097   22.6793 H   0  0  0  0  0  0  0  0  0  0  0  0
    6.6510   -2.8021   19.8219 H   0  0  0  0  0  0  0  0  0  0  0  0
    8.0684   -3.1352   20.8389 H   0  0  0  0  0  0  0  0  0  0  0  0
    6.6454   -4.4736   22.4114 H   0  0  0  0  0  0  0  0  0  0  0  0
    6.5286   -5.1078   20.7648 H   0  0  0  0  0  0  0  0  0  0  0  0
    5.2090   -4.1270   21.4232 H   0  0  0  0  0  0  0  0  0  0  0  0
  1  2  1  0
  2  3  1  0
  3  4  1  0
  4  5  1  0
  5  6  2  0
  5  7  1  0
  7  8  1  0
  8  9  1  0
  9 10  2  0
 10 11  1  0
 11 12  2  0
 12 13  1  0
 13 14  2  0
 14 15  1  0
 13 16  1  0
 12 17  1  0
 11 18  1  0
 10 19  1  0
  8 20  1  0
  7 21  1  0
  4 22  1  0
 22 23  2  0
 23 24  1  0
 24 25  2  0
 25 26  1  0
 26 27  2  0
 27 28  1  0
 25 29  1  0
 24 30  1  0
 23 31  1  0
  3 32  1  0
  3 33  1  0
  2 34  1  0
  2 35  1  0
  1 36  1  0
  1 37  1  0
  1 38  1  0
 14  9  1  0
 27 22  1  0
M  END
>  <cnnaffinity>  (1) 
4.60673

>  <plip>  (1) 
-0.13333333333333333

>  <filename>  (1) 
[H][c]1[n][c]([H])[c]([N]([C](=[O])[N]([H])[N]([H])[c]2[c]([H])[c]([H])[c]([H])[c]([H])[c]2[Cl])[C]([H])([H])[C]([H])([H])[C]([H])([H])[H])[c]([H])[c]1[H]

>  <combo1>  (1) 
-0.6717727009083756

$$$$
