
     RDKit          3D

 30 32  0  0  0  0  0  0  0  0999 V2000
    8.7629   -0.0887   21.2801 C   0  0  0  0  0  0  0  0  0  0  0  0
    7.4019   -0.7566   21.0351 C   0  0  0  0  0  0  0  0  0  0  0  0
    7.5418   -2.1734   20.7666 N   0  0  0  0  0  0  0  0  0  0  0  0
    7.8162   -3.0863   21.7043 C   0  0  0  0  0  0  0  0  0  0  0  0
    7.9663   -4.3482   21.2072 N   0  0  0  0  0  0  0  0  0  0  0  0
    8.2100   -5.3050   22.0804 C   0  0  0  0  0  0  0  0  0  0  0  0
    8.3241   -5.0271   23.4601 C   0  0  0  0  0  0  0  0  0  0  0  0
    8.5691   -5.7283   24.6102 N   0  0  0  0  0  0  0  0  0  0  0  0
    8.5543   -4.9252   25.6907 N   0  0  0  0  0  0  0  0  0  0  0  0
    8.3045   -3.7021   25.2625 C   0  0  0  0  0  0  0  0  0  0  0  0
    8.1461   -3.6793   23.8419 C   0  0  0  0  0  0  0  0  0  0  0  0
    7.8930   -2.6884   22.9583 N   0  0  0  0  0  0  0  0  0  0  0  0
    8.2451   -2.8875   25.9739 H   0  0  0  0  0  0  0  0  0  0  0  0
    8.7565   -6.7104   24.7783 H   0  0  0  0  0  0  0  0  0  0  0  0
    8.3353   -6.3226   21.7091 H   0  0  0  0  0  0  0  0  0  0  0  0
    7.4963   -2.6060   19.8661 H   0  0  0  0  0  0  0  0  0  0  0  0
    6.6409   -0.0702   19.9199 C   0  0  0  0  0  0  0  0  0  0  0  0
    5.4371    0.6132   20.1591 C   0  0  0  0  0  0  0  0  0  0  0  0
    4.8143    1.2921   19.1099 C   0  0  0  0  0  0  0  0  0  0  0  0
    5.4180    1.2731   17.8498 C   0  0  0  0  0  0  0  0  0  0  0  0
    6.5730    0.6406   17.6007 N   0  0  0  0  0  0  0  0  0  0  0  0
    7.1628   -0.0042   18.6198 C   0  0  0  0  0  0  0  0  0  0  0  0
    8.1262   -0.4524   18.3675 H   0  0  0  0  0  0  0  0  0  0  0  0
    4.9547    1.7809   17.0048 H   0  0  0  0  0  0  0  0  0  0  0  0
    3.8890    1.8398   19.2555 H   0  0  0  0  0  0  0  0  0  0  0  0
    5.0073    0.6307   21.1625 H   0  0  0  0  0  0  0  0  0  0  0  0
    6.8154   -0.6549   21.9632 H   0  0  0  0  0  0  0  0  0  0  0  0
    8.6204    0.9845   21.4419 H   0  0  0  0  0  0  0  0  0  0  0  0
    9.4257   -0.2240   20.4178 H   0  0  0  0  0  0  0  0  0  0  0  0
    9.2488   -0.5187   22.1624 H   0  0  0  0  0  0  0  0  0  0  0  0
  1  2  1  0
  2  3  1  0
  3  4  1  0
  4  5  2  0
  5  6  1  0
  6  7  2  0
  7  8  1  0
  8  9  1  0
  9 10  2  0
 10 11  1  0
 11 12  2  0
 10 13  1  0
  8 14  1  0
  6 15  1  0
  3 16  1  0
  2 17  1  0
 17 18  2  0
 18 19  1  0
 19 20  2  0
 20 21  1  0
 21 22  2  0
 22 23  1  0
 20 24  1  0
 19 25  1  0
 18 26  1  0
  2 27  1  0
  1 28  1  0
  1 29  1  0
  1 30  1  0
 12  4  1  0
 22 17  1  0
 11  7  1  0
M  END
>  <cnnaffinity>  (1) 
5.27217

>  <plip>  (1) 
-0.13793103448275862

>  <filename>  (1) 
[H][c]1[n][c]([H])[c]([C]([H])([N]([H])[c]2[n][c]([H])[c]3[c]([n]2)[c]([H])[n][n]3[H])[C]([H])([H])[H])[c]([H])[c]1[H]

>  <combo1>  (1) 
-1.008859286176614

$$$$
