
     RDKit          3D

 28 30  0  0  0  0  0  0  0  0999 V2000
    4.9293    1.8413   17.0064 H   0  0  0  0  0  0  0  0  0  0  0  0
    5.4031    1.3128   17.8312 C   0  0  0  0  0  0  0  0  0  0  0  0
    6.5583    0.6897   17.5523 N   0  0  0  0  0  0  0  0  0  0  0  0
    7.1656    0.0193   18.5440 C   0  0  0  0  0  0  0  0  0  0  0  0
    8.1148   -0.4547   18.3012 H   0  0  0  0  0  0  0  0  0  0  0  0
    6.6555   -0.0862   19.8607 C   0  0  0  0  0  0  0  0  0  0  0  0
    7.2758   -0.8665   20.8730 N   0  0  0  0  0  0  0  0  0  0  0  0
    6.7467   -0.8171   21.7416 H   0  0  0  0  0  0  0  0  0  0  0  0
    8.6902   -0.8087   21.1045 C   0  0  0  0  0  0  0  0  0  0  0  0
    9.6588    0.1490   20.7145 C   0  0  0  0  0  0  0  0  0  0  0  0
    9.5129    1.0592   20.1586 H   0  0  0  0  0  0  0  0  0  0  0  0
   10.8798   -0.1609   21.1341 N   0  0  0  0  0  0  0  0  0  0  0  0
   10.7082   -1.3059   21.7992 N   0  0  0  0  0  0  0  0  0  0  0  0
   11.5121   -1.8157   22.1278 H   0  0  0  0  0  0  0  0  0  0  0  0
    9.4254   -1.7547   21.8172 C   0  0  0  0  0  0  0  0  0  0  0  0
    9.0259   -2.9549   22.5057 C   0  0  0  0  0  0  0  0  0  0  0  0
    9.5887   -3.6723   23.5464 C   0  0  0  0  0  0  0  0  0  0  0  0
   10.5027   -3.4341   24.0747 H   0  0  0  0  0  0  0  0  0  0  0  0
    8.7357   -4.7700   23.8127 C   0  0  0  0  0  0  0  0  0  0  0  0
    8.8745   -5.5298   24.5711 H   0  0  0  0  0  0  0  0  0  0  0  0
    7.6809   -4.6943   22.9379 C   0  0  0  0  0  0  0  0  0  0  0  0
    6.8100   -5.3280   22.8434 H   0  0  0  0  0  0  0  0  0  0  0  0
    7.8625   -3.5895   22.1642 N   0  0  0  0  0  0  0  0  0  0  0  0
    7.2955   -3.2707   21.3906 H   0  0  0  0  0  0  0  0  0  0  0  0
    5.4545    0.5944   20.1301 C   0  0  0  0  0  0  0  0  0  0  0  0
    5.0432    0.5897   21.1390 H   0  0  0  0  0  0  0  0  0  0  0  0
    4.8156    1.2974   19.1013 C   0  0  0  0  0  0  0  0  0  0  0  0
    3.8857    1.8360   19.2682 H   0  0  0  0  0  0  0  0  0  0  0  0
  1  2  1  0
  2  3  2  0
  3  4  1  0
  4  5  1  0
  4  6  2  0
  6  7  1  0
  7  8  1  0
  7  9  1  0
  9 10  1  0
 10 11  1  0
 10 12  2  0
 12 13  1  0
 13 14  1  0
 13 15  1  0
 15 16  1  0
 16 17  2  0
 17 18  1  0
 17 19  1  0
 19 20  1  0
 19 21  2  0
 21 22  1  0
 21 23  1  0
 23 24  1  0
  6 25  1  0
 25 26  1  0
 25 27  2  0
 27 28  1  0
 27  2  1  0
 15  9  2  0
 23 16  1  0
M  END
>  <cnnaffinity>  (1) 
5.34627

>  <plip>  (1) 
-0.13333333333333333

>  <filename>  (1) 
[H][c]1[n][c]([H])[c]([N]([H])[c]2[c]([H])[n][n]([H])[c]2-[c]2[c]([H])[c]([H])[c]([H])[n]2[H])[c]([H])[c]1[H]

>  <combo1>  (1) 
-1.0548578277951652

$$$$
