
     RDKit          3D

 37 39  0  0  0  0  0  0  0  0999 V2000
    6.7510   -1.9320   21.2956 C   0  0  0  0  0  0  0  0  0  0  0  0
    6.8696   -0.4143   21.1942 C   0  0  0  0  0  0  0  0  0  0  0  0
    8.2905    0.0412   21.2257 N   0  0  0  0  0  4  0  0  0  0  0  0
    9.1153   -0.0874   22.4384 C   0  0  0  0  0  0  0  0  0  0  0  0
    8.5991    0.8006   23.5888 C   0  0  0  0  0  0  0  0  0  0  0  0
    9.3658    0.5111   24.8903 C   0  0  0  0  0  0  0  0  0  0  0  0
   10.8348    0.4947   24.5749 C   0  0  0  0  0  0  0  0  0  0  0  0
   11.4231    0.3435   23.3361 C   0  0  0  0  0  0  0  0  0  0  0  0
   12.8104    0.3737   23.5987 C   0  0  0  0  0  0  0  0  0  0  0  0
   13.0602    0.5052   24.8978 N   0  0  0  0  0  0  0  0  0  0  0  0
   11.8427    0.5684   25.4578 N   0  0  0  0  0  0  0  0  0  0  0  0
   11.7454    0.6502   26.4589 H   0  0  0  0  0  0  0  0  0  0  0  0
   13.6355    0.2889   22.9022 H   0  0  0  0  0  0  0  0  0  0  0  0
   10.5832    0.2554   22.0824 C   0  0  0  0  0  0  0  0  0  0  0  0
   10.5995    1.2140   21.5363 H   0  0  0  0  0  0  0  0  0  0  0  0
   10.9573   -0.5010   21.3849 H   0  0  0  0  0  0  0  0  0  0  0  0
    9.0785   -0.4740   25.2956 H   0  0  0  0  0  0  0  0  0  0  0  0
    9.1222    1.2540   25.6637 H   0  0  0  0  0  0  0  0  0  0  0  0
    8.7280    1.8548   23.3068 H   0  0  0  0  0  0  0  0  0  0  0  0
    7.5274    0.6443   23.7271 H   0  0  0  0  0  0  0  0  0  0  0  0
    9.1114   -1.1277   22.8001 H   0  0  0  0  0  0  0  0  0  0  0  0
    8.2614    1.0547   20.9598 H   0  0  0  0  0  0  0  0  0  0  0  0
    8.7529   -0.4739   20.4492 H   0  0  0  0  0  0  0  0  0  0  0  0
    6.3292    0.2025   19.9303 C   0  0  0  0  0  0  0  0  0  0  0  0
    5.0956    0.8643   19.9219 C   0  0  0  0  0  0  0  0  0  0  0  0
    4.6874    1.5195   18.7590 C   0  0  0  0  0  0  0  0  0  0  0  0
    5.5060    1.4581   17.6283 C   0  0  0  0  0  0  0  0  0  0  0  0
    6.6648    0.7872   17.5990 N   0  0  0  0  0  0  0  0  0  0  0  0
    7.0614    0.1925   18.7315 C   0  0  0  0  0  0  0  0  0  0  0  0
    8.0251   -0.3106   18.6548 H   0  0  0  0  0  0  0  0  0  0  0  0
    5.2178    1.9615   16.7056 H   0  0  0  0  0  0  0  0  0  0  0  0
    3.7733    2.1012   18.7269 H   0  0  0  0  0  0  0  0  0  0  0  0
    4.4784    0.8875   20.8237 H   0  0  0  0  0  0  0  0  0  0  0  0
    6.3090    0.0146   22.0406 H   0  0  0  0  0  0  0  0  0  0  0  0
    7.0833   -2.2497   22.2880 H   0  0  0  0  0  0  0  0  0  0  0  0
    5.7126   -2.2415   21.1624 H   0  0  0  0  0  0  0  0  0  0  0  0
    7.3569   -2.4515   20.5442 H   0  0  0  0  0  0  0  0  0  0  0  0
  1  2  1  0
  2  3  1  0
  3  4  1  0
  4  5  1  0
  5  6  1  0
  6  7  1  0
  7  8  2  0
  8  9  1  0
  9 10  2  0
 10 11  1  0
 11 12  1  0
  9 13  1  0
  8 14  1  0
 14 15  1  0
 14 16  1  0
  6 17  1  0
  6 18  1  0
  5 19  1  0
  5 20  1  0
  4 21  1  0
  3 22  1  0
  3 23  1  0
  2 24  1  0
 24 25  2  0
 25 26  1  0
 26 27  2  0
 27 28  1  0
 28 29  2  0
 29 30  1  0
 27 31  1  0
 26 32  1  0
 25 33  1  0
  2 34  1  0
  1 35  1  0
  1 36  1  0
  1 37  1  0
 14  4  1  0
 29 24  1  0
 11  7  1  0
M  CHG  1   3   1
M  END
>  <cnnaffinity>  (1) 
5.04914

>  <plip>  (1) 
-0.10714285714285714

>  <filename>  (1) 
[H][c]1[n][c]([H])[c]([C]([H])([C]([H])([H])[H])[N+]([H])([H])[C]2([H])[C]([H])([H])[c]3[c]([H])[n][n]([H])[c]3[C]([H])([H])[C]2([H])[H])[c]([H])[c]1[H]

>  <combo1>  (1) 
-0.741065484360708

$$$$
