
     RDKit          3D

 40 41  0  0  0  0  0  0  0  0999 V2000
    6.4120   -3.3916   20.2954 O   0  0  0  0  0  0  0  0  0  0  0  0
    6.1593   -2.9822   21.4138 C   0  0  0  0  0  0  0  0  0  0  0  0
    5.5948   -3.8706   22.5116 C   0  0  0  0  0  0  0  0  0  0  0  0
    6.5889   -4.0862   23.6290 C   0  0  0  0  0  0  0  0  0  0  0  0
    6.5200   -3.3312   24.8035 C   0  0  0  0  0  0  0  0  0  0  0  0
    7.4951   -3.4964   25.7881 C   0  0  0  0  0  0  0  0  0  0  0  0
    8.5248   -4.3461   25.6711 N   0  0  0  0  0  0  0  0  0  0  0  0
    8.5929   -5.0753   24.5470 C   0  0  0  0  0  0  0  0  0  0  0  0
    7.6664   -4.9725   23.5046 C   0  0  0  0  0  0  0  0  0  0  0  0
    7.8034   -5.5776   22.6180 H   0  0  0  0  0  0  0  0  0  0  0  0
    9.4453   -5.7524   24.4799 H   0  0  0  0  0  0  0  0  0  0  0  0
    7.4602   -2.9069   26.7041 H   0  0  0  0  0  0  0  0  0  0  0  0
    5.7147   -2.6294   24.9762 H   0  0  0  0  0  0  0  0  0  0  0  0
    4.6858   -3.4052   22.9069 H   0  0  0  0  0  0  0  0  0  0  0  0
    5.3174   -4.8159   22.0441 H   0  0  0  0  0  0  0  0  0  0  0  0
    6.3866   -1.6927   21.7958 N   0  0  0  0  0  0  0  0  0  0  0  0
    7.2495   -0.7933   21.0600 C   0  0  0  0  0  0  0  0  0  0  0  0
    7.9132    0.2029   22.0346 C   0  0  0  0  0  0  0  0  0  0  0  0
    8.6930   -0.3872   23.2277 C   0  0  0  0  0  0  0  0  0  0  0  0
    9.8333   -1.3403   22.8580 C   0  0  0  0  0  0  0  0  0  0  0  0
   10.4527   -1.8757   24.0085 O   0  0  0  0  0  0  0  0  0  0  0  0
    9.7884   -2.3977   24.4846 H   0  0  0  0  0  0  0  0  0  0  0  0
   10.6217   -0.8019   22.3113 H   0  0  0  0  0  0  0  0  0  0  0  0
    9.4719   -2.1503   22.2015 H   0  0  0  0  0  0  0  0  0  0  0  0
    9.1217    0.4473   23.7969 H   0  0  0  0  0  0  0  0  0  0  0  0
    8.0070   -0.9108   23.9161 H   0  0  0  0  0  0  0  0  0  0  0  0
    7.1273    0.8704   22.4176 H   0  0  0  0  0  0  0  0  0  0  0  0
    8.5849    0.8392   21.4444 H   0  0  0  0  0  0  0  0  0  0  0  0
    6.5093   -0.0791   19.9290 C   0  0  0  0  0  0  0  0  0  0  0  0
    5.3155    0.6348   20.1075 C   0  0  0  0  0  0  0  0  0  0  0  0
    4.7744    1.3247   19.0154 C   0  0  0  0  0  0  0  0  0  0  0  0
    5.4460    1.3005   17.7868 C   0  0  0  0  0  0  0  0  0  0  0  0
    6.5788    0.6127   17.5879 N   0  0  0  0  0  0  0  0  0  0  0  0
    7.0748   -0.0531   18.6431 C   0  0  0  0  0  0  0  0  0  0  0  0
    7.9948   -0.6022   18.4548 H   0  0  0  0  0  0  0  0  0  0  0  0
    5.0643    1.8694   16.9358 H   0  0  0  0  0  0  0  0  0  0  0  0
    3.8597    1.8978   19.1069 H   0  0  0  0  0  0  0  0  0  0  0  0
    4.8101    0.6695   21.0774 H   0  0  0  0  0  0  0  0  0  0  0  0
    8.0214   -1.4085   20.5763 H   0  0  0  0  0  0  0  0  0  0  0  0
    6.0323   -1.3822   22.6832 H   0  0  0  0  0  0  0  0  0  0  0  0
  1  2  2  0
  2  3  1  0
  3  4  1  0
  4  5  2  0
  5  6  1  0
  6  7  2  0
  7  8  1  0
  8  9  2  0
  9 10  1  0
  8 11  1  0
  6 12  1  0
  5 13  1  0
  3 14  1  0
  3 15  1  0
  2 16  1  0
 16 17  1  0
 17 18  1  0
 18 19  1  0
 19 20  1  0
 20 21  1  0
 21 22  1  0
 20 23  1  0
 20 24  1  0
 19 25  1  0
 19 26  1  0
 18 27  1  0
 18 28  1  0
 17 29  1  0
 29 30  2  0
 30 31  1  0
 31 32  2  0
 32 33  1  0
 33 34  2  0
 34 35  1  0
 32 36  1  0
 31 37  1  0
 30 38  1  0
 17 39  1  0
 16 40  1  0
  9  4  1  0
 34 29  1  0
M  END
>  <cnnaffinity>  (1) 
4.89897

>  <plip>  (1) 
-0.13793103448275862

>  <filename>  (1) 
[H][O][C]([H])([H])[C]([H])([H])[C]([H])([H])[C]([H])([c]1[c]([H])[n][c]([H])[c]([H])[c]1[H])[N]([H])[C](=[O])[C]([H])([H])[c]1[c]([H])[c]([H])[n][c]([H])[c]1[H]

>  <combo1>  (1) 
-0.7893547154867586

$$$$
