
     RDKit          3D

 36 38  0  0  0  0  0  0  0  0999 V2000
    6.4119   -4.7794   28.2542 Cl  0  0  0  0  0  0  0  0  0  0  0  0
    7.3452   -4.4672   26.8262 C   0  0  0  0  0  0  0  0  0  0  0  0
    8.6038   -5.0765   26.7176 C   0  0  0  0  0  0  0  0  0  0  0  0
    9.3204   -4.8537   25.5456 C   0  0  0  0  0  0  0  0  0  0  0  0
    8.7522   -4.0602   24.5397 C   0  0  0  0  0  0  0  0  0  0  0  0
    9.3968   -3.9588   23.1770 C   0  0  0  0  0  0  0  0  0  0  0  0
    8.8741   -2.8279   22.3004 C   0  0  0  0  0  0  0  0  0  0  0  0
    7.3586   -2.8803   22.2734 N   0  0  0  0  0  4  0  0  0  0  0  0
    6.7133   -2.1142   21.1302 C   0  0  0  0  0  0  0  0  0  0  0  0
    7.2569   -0.6845   20.9152 C   0  0  0  0  0  0  0  0  0  0  0  0
    6.5848    0.0814   19.7857 C   0  0  0  0  0  0  0  0  0  0  0  0
    5.3799    0.7654   20.0003 C   0  0  0  0  0  0  0  0  0  0  0  0
    4.7579    1.4246   18.9368 C   0  0  0  0  0  0  0  0  0  0  0  0
    5.3832    1.4081   17.6862 C   0  0  0  0  0  0  0  0  0  0  0  0
    6.5456    0.7806   17.4540 N   0  0  0  0  0  0  0  0  0  0  0  0
    7.1242    0.1526   18.4866 C   0  0  0  0  0  0  0  0  0  0  0  0
    8.0819   -0.3218   18.2696 H   0  0  0  0  0  0  0  0  0  0  0  0
    4.9366    1.9169   16.8342 H   0  0  0  0  0  0  0  0  0  0  0  0
    3.8264    1.9688   19.0707 H   0  0  0  0  0  0  0  0  0  0  0  0
    4.9549    0.8053   21.0047 H   0  0  0  0  0  0  0  0  0  0  0  0
    8.3381   -0.7372   20.7334 H   0  0  0  0  0  0  0  0  0  0  0  0
    7.1273   -0.1313   21.8536 H   0  0  0  0  0  0  0  0  0  0  0  0
    6.8736   -2.6797   20.2009 H   0  0  0  0  0  0  0  0  0  0  0  0
    5.6323   -2.0676   21.3127 H   0  0  0  0  0  0  0  0  0  0  0  0
    6.8178   -2.6204   23.7098 C   0  0  0  0  0  0  0  0  0  0  0  0
    7.4945   -3.4732   24.7813 C   0  0  0  0  0  0  0  0  0  0  0  0
    6.8017   -3.6728   25.9140 N   0  0  0  0  0  0  0  0  0  0  0  0
    5.7453   -2.8244   23.7547 H   0  0  0  0  0  0  0  0  0  0  0  0
    6.9667   -1.5645   23.9516 H   0  0  0  0  0  0  0  0  0  0  0  0
    7.1278   -3.8852   22.1018 H   0  0  0  0  0  0  0  0  0  0  0  0
    9.1885   -1.8544   22.6958 H   0  0  0  0  0  0  0  0  0  0  0  0
    9.2610   -2.9228   21.2772 H   0  0  0  0  0  0  0  0  0  0  0  0
    9.2086   -4.9172   22.6702 H   0  0  0  0  0  0  0  0  0  0  0  0
   10.4763   -3.8331   23.2865 H   0  0  0  0  0  0  0  0  0  0  0  0
   10.3026   -5.3193   25.4050 H   0  0  0  0  0  0  0  0  0  0  0  0
    8.9661   -5.7050   27.5188 H   0  0  0  0  0  0  0  0  0  0  0  0
  1  2  1  0
  2  3  2  0
  3  4  1  0
  4  5  2  0
  5  6  1  0
  6  7  1  0
  7  8  1  0
  8  9  1  0
  9 10  1  0
 10 11  1  0
 11 12  2  0
 12 13  1  0
 13 14  2  0
 14 15  1  0
 15 16  2  0
 16 17  1  0
 14 18  1  0
 13 19  1  0
 12 20  1  0
 10 21  1  0
 10 22  1  0
  9 23  1  0
  9 24  1  0
  8 25  1  0
 25 26  1  0
 26 27  2  0
 25 28  1  0
 25 29  1  0
  8 30  1  0
  7 31  1  0
  7 32  1  0
  6 33  1  0
  6 34  1  0
  4 35  1  0
  3 36  1  0
 27  2  1  0
 26  5  1  0
 16 11  1  0
M  CHG  1   8   1
M  END
>  <cnnaffinity>  (1) 
4.57422

>  <plip>  (1) 
-0.034482758620689655

>  <filename>  (1) 
[H][c]1[n][c]([H])[c]([C]([H])([H])[C]([H])([H])[N+]2([H])[C]([H])([H])[c]3[n][c]([Cl])[c]([H])[c]([H])[c]3[C]([H])([H])[C]2([H])[H])[c]([H])[c]1[H]

>  <combo1>  (1) 
-0.1913465248996829

$$$$
