
     RDKit          3D

 27 28  0  0  0  0  0  0  0  0999 V2000
    4.9446    1.7774   17.0287 H   0  0  0  0  0  0  0  0  0  0  0  0
    5.4232    1.2762   17.8621 C   0  0  0  0  0  0  0  0  0  0  0  0
    6.5880    0.6719   17.5815 N   0  0  0  0  0  0  0  0  0  0  0  0
    7.2152    0.0633   18.5924 C   0  0  0  0  0  0  0  0  0  0  0  0
    8.1538   -0.4370   18.3538 H   0  0  0  0  0  0  0  0  0  0  0  0
    6.7149   -0.0080   19.9123 C   0  0  0  0  0  0  0  0  0  0  0  0
    7.4106   -0.7161   20.9242 N   0  0  0  0  0  0  0  0  0  0  0  0
    6.7877   -1.6054   21.7947 C   0  0  0  0  0  0  0  0  0  0  0  0
    5.6755   -2.0852   21.7168 O   0  0  0  0  0  0  0  0  0  0  0  0
    7.7234   -1.9491   22.7305 N   0  0  0  0  0  0  0  0  0  0  0  0
    7.4049   -2.6898   23.3260 H   0  0  0  0  0  0  0  0  0  0  0  0
    9.0797   -1.7454   22.2616 C   0  0  0  0  0  0  0  0  0  0  0  0
    9.5772   -2.6597   21.9127 H   0  0  0  0  0  0  0  0  0  0  0  0
    9.7202   -1.3390   23.0515 H   0  0  0  0  0  0  0  0  0  0  0  0
    8.8683   -0.7609   21.0779 C   0  0  2  0  0  0  0  0  0  0  0  0
    9.3205   -1.1829   20.1666 H   0  0  0  0  0  0  0  0  0  0  0  0
    9.4889    0.6160   21.3018 C   0  0  0  0  0  0  0  0  0  0  0  0
   10.5422    0.5081   21.5809 H   0  0  0  0  0  0  0  0  0  0  0  0
    9.4399    1.1867   20.3774 H   0  0  0  0  0  0  0  0  0  0  0  0
    8.8457    1.4801   22.3629 C   0  0  0  0  0  0  0  0  0  0  0  0
    9.6091    2.5730   22.5591 F   0  0  0  0  0  0  0  0  0  0  0  0
    8.7268    0.8630   23.5538 F   0  0  0  0  0  0  0  0  0  0  0  0
    7.6238    1.9111   22.0168 F   0  0  0  0  0  0  0  0  0  0  0  0
    5.4835    0.6145   20.1837 C   0  0  0  0  0  0  0  0  0  0  0  0
    5.0545    0.5771   21.1863 H   0  0  0  0  0  0  0  0  0  0  0  0
    4.8374    1.2782   19.1334 C   0  0  0  0  0  0  0  0  0  0  0  0
    3.9040    1.8089   19.2901 H   0  0  0  0  0  0  0  0  0  0  0  0
  1  2  1  0
  2  3  2  0
  3  4  1  0
  4  5  1  0
  4  6  2  0
  6  7  1  0
  7  8  1  0
  8  9  2  0
  8 10  1  0
 10 11  1  0
 10 12  1  0
 12 13  1  0
 12 14  1  0
 12 15  1  0
 15 16  1  6
 15 17  1  0
 17 18  1  0
 17 19  1  0
 17 20  1  0
 20 21  1  0
 20 22  1  0
 20 23  1  0
  6 24  1  0
 24 25  1  0
 24 26  2  0
 26 27  1  0
 26  2  1  0
 15  7  1  0
M  END
>  <cnnaffinity>  (1) 
4.69374

>  <plip>  (1) 
-0.07142857142857142

>  <filename>  (1) 
[H][c]1[n][c]([H])[c]([N]2[C](=[O])[N]([H])[C]([H])([H])[C@]2([H])[C]([H])([H])[C]([F])([F])[F])[c]([H])[c]1[H]

>  <combo1>  (1) 
-0.45576627740866504

$$$$
