
     RDKit          3D

 27 28  0  0  0  0  0  0  0  0999 V2000
    4.6375   -4.3232   22.0374 H   0  0  0  0  0  0  0  0  0  0  0  0
    5.6603   -4.1671   22.3662 C   0  0  0  0  0  0  0  0  0  0  0  0
    5.9102   -4.4985   23.3741 H   0  0  0  0  0  0  0  0  0  0  0  0
    6.5653   -3.5754   21.5888 C   0  0  0  0  0  0  0  0  0  0  0  0
    6.2961   -3.2358   20.5853 H   0  0  0  0  0  0  0  0  0  0  0  0
    7.9804   -3.3281   22.0679 C   0  0  0  0  0  0  0  0  0  0  0  0
    8.4443   -4.2782   22.3469 H   0  0  0  0  0  0  0  0  0  0  0  0
    8.5930   -2.8756   21.2837 H   0  0  0  0  0  0  0  0  0  0  0  0
    8.0615   -2.5533   23.2926 O   0  0  0  0  0  0  0  0  0  0  0  0
    7.7219   -1.2396   23.2093 C   0  0  0  0  0  0  0  0  0  0  0  0
    7.3890   -0.3650   22.1897 C   0  0  0  0  0  0  0  0  0  0  0  0
    7.3689   -0.7071   20.8534 O   0  0  0  0  0  0  0  0  0  0  0  0
    6.6650    0.0224   19.9225 C   0  0  0  0  0  0  0  0  0  0  0  0
    7.1814    0.0585   18.6145 C   0  0  0  0  0  0  0  0  0  0  0  0
    8.1235   -0.4348   18.3892 H   0  0  0  0  0  0  0  0  0  0  0  0
    6.5689    0.6724   17.5933 N   0  0  0  0  0  0  0  0  0  0  0  0
    5.4018    1.2917   17.8412 C   0  0  0  0  0  0  0  0  0  0  0  0
    4.9164    1.7790   16.9967 H   0  0  0  0  0  0  0  0  0  0  0  0
    4.8077    1.3052   19.1070 C   0  0  0  0  0  0  0  0  0  0  0  0
    3.8765    1.8392   19.2613 H   0  0  0  0  0  0  0  0  0  0  0  0
    5.4383    0.6485   20.1711 C   0  0  0  0  0  0  0  0  0  0  0  0
    5.0048    0.6239   21.1721 H   0  0  0  0  0  0  0  0  0  0  0  0
    7.1931    0.8848   22.8197 C   0  0  0  0  0  0  0  0  0  0  0  0
    6.9439    1.8232   22.3405 H   0  0  0  0  0  0  0  0  0  0  0  0
    7.3724    0.8033   24.1287 N   0  0  0  0  0  0  0  0  0  0  0  0
    7.6846   -0.4962   24.3379 N   0  0  0  0  0  0  0  0  0  0  0  0
    7.8754   -0.8109   25.2702 H   0  0  0  0  0  0  0  0  0  0  0  0
  1  2  1  0
  2  3  1  0
  2  4  2  3
  4  5  1  0
  4  6  1  0
  6  7  1  0
  6  8  1  0
  6  9  1  0
  9 10  1  0
 10 11  2  0
 11 12  1  0
 12 13  1  0
 13 14  2  0
 14 15  1  0
 14 16  1  0
 16 17  2  0
 17 18  1  0
 17 19  1  0
 19 20  1  0
 19 21  2  0
 21 22  1  0
 11 23  1  0
 23 24  1  0
 23 25  2  0
 25 26  1  0
 26 27  1  0
 26 10  1  0
 21 13  1  0
M  END
>  <cnnaffinity>  (1) 
4.34763

>  <plip>  (1) 
-0.0

>  <filename>  (1) 
[H][C]([H])=[C]([H])[C]([H])([H])[O][c]1[c]([O][c]2[c]([H])[n][c]([H])[c]([H])[c]2[H])[c]([H])[n][n]1[H]

>  <combo1>  (1) 
-6.671377538807151e-06

$$$$
