
     RDKit          3D

 30 32  0  0  0  0  0  0  0  0999 V2000
    8.7095    1.3530   20.9537 H   0  0  0  0  0  0  0  0  0  0  0  0
    8.5108    2.2884   21.1203 O   0  0  0  0  0  0  0  0  0  0  0  0
    7.6779    2.3015   22.1947 C   0  0  0  0  0  0  0  0  0  0  0  0
    7.2475    3.5336   22.6931 C   0  0  0  0  0  0  0  0  0  0  0  0
    7.6068    4.4224   22.1850 H   0  0  0  0  0  0  0  0  0  0  0  0
    6.3997    3.5872   23.8045 C   0  0  0  0  0  0  0  0  0  0  0  0
    6.0720    4.5487   24.2012 H   0  0  0  0  0  0  0  0  0  0  0  0
    5.9728    2.4008   24.4214 C   0  0  0  0  0  0  0  0  0  0  0  0
    5.3142    2.4184   25.2829 H   0  0  0  0  0  0  0  0  0  0  0  0
    6.3982    1.1702   23.9193 C   0  0  0  0  0  0  0  0  0  0  0  0
    6.0613    0.2283   24.3574 H   0  0  0  0  0  0  0  0  0  0  0  0
    7.2432    1.1016   22.8061 C   0  0  0  0  0  0  0  0  0  0  0  0
    7.6425   -0.2075   22.2838 C   0  0  0  0  0  0  0  0  0  0  0  0
    8.2546   -1.2440   22.9432 C   0  0  0  0  0  0  0  0  0  0  0  0
    8.5174   -1.2083   23.9901 H   0  0  0  0  0  0  0  0  0  0  0  0
    8.4017   -2.3223   22.0373 C   0  0  0  0  0  0  0  0  0  0  0  0
    8.8771   -3.2768   22.2446 H   0  0  0  0  0  0  0  0  0  0  0  0
    7.8268   -1.9132   20.8618 C   0  0  0  0  0  0  0  0  0  0  0  0
    7.4824   -2.4343   19.9918 H   0  0  0  0  0  0  0  0  0  0  0  0
    7.4172   -0.6081   20.9713 N   0  0  0  0  0  0  0  0  0  0  0  0
    6.6753    0.0468   19.9367 C   0  0  0  0  0  0  0  0  0  0  0  0
    7.1805    0.0485   18.6225 C   0  0  0  0  0  0  0  0  0  0  0  0
    8.1281   -0.4407   18.3944 H   0  0  0  0  0  0  0  0  0  0  0  0
    6.5716    0.6455   17.5915 N   0  0  0  0  0  0  0  0  0  0  0  0
    5.4131    1.2747   17.8412 C   0  0  0  0  0  0  0  0  0  0  0  0
    4.9543    1.7839   16.9981 H   0  0  0  0  0  0  0  0  0  0  0  0
    4.8064    1.3017   19.1027 C   0  0  0  0  0  0  0  0  0  0  0  0
    3.8666    1.8285   19.2370 H   0  0  0  0  0  0  0  0  0  0  0  0
    5.4458    0.6746   20.1764 C   0  0  0  0  0  0  0  0  0  0  0  0
    5.0059    0.6712   21.1782 H   0  0  0  0  0  0  0  0  0  0  0  0
  1  2  1  0
  2  3  1  0
  3  4  2  0
  4  5  1  0
  4  6  1  0
  6  7  1  0
  6  8  2  0
  8  9  1  0
  8 10  1  0
 10 11  1  0
 10 12  2  0
 12 13  1  0
 13 14  2  0
 14 15  1  0
 14 16  1  0
 16 17  1  0
 16 18  2  0
 18 19  1  0
 18 20  1  0
 20 21  1  0
 21 22  2  0
 22 23  1  0
 22 24  1  0
 24 25  2  0
 25 26  1  0
 25 27  1  0
 27 28  1  0
 27 29  2  0
 29 30  1  0
 12  3  1  0
 20 13  1  0
 29 21  1  0
M  END
>  <cnnaffinity>  (1) 
4.61331

>  <plip>  (1) 
-0.03571428571428571

>  <filename>  (1) 
[H][O][c]1[c]([H])[c]([H])[c]([H])[c]([H])[c]1-[c]1[c]([H])[c]([H])[c]([H])[n]1-[c]1[c]([H])[n][c]([H])[c]([H])[c]1[H]

>  <combo1>  (1) 
-0.23244350687277116

$$$$
