
     RDKit          3D

 42 44  0  0  0  0  0  0  0  0999 V2000
    8.7731   -0.3844   23.1087 C   0  0  0  0  0  0  0  0  0  0  0  0
    7.7344    0.2059   22.1632 C   0  0  0  0  0  0  0  0  0  0  0  0
    7.3860   -0.7380   20.9972 C   0  0  0  0  0  0  0  0  0  0  0  0
    6.6117   -1.8963   21.4475 N   0  0  0  0  0  0  0  0  0  0  0  0
    7.1620   -3.1436   21.6347 C   0  0  0  0  0  0  0  0  0  0  0  0
    8.3444   -3.3162   21.3858 O   0  0  0  0  0  0  0  0  0  0  0  0
    6.2458   -4.2914   22.1672 C   0  0  0  0  0  0  0  0  0  0  0  0
    6.2827   -5.4420   21.5034 N   0  0  0  0  0  0  0  0  0  0  0  0
    5.5022   -6.4648   21.9167 C   0  0  0  0  0  0  0  0  0  0  0  0
    4.6523   -6.3855   22.9905 C   0  0  0  0  0  0  0  0  0  0  0  0
    4.5970   -5.1868   23.7578 C   0  0  0  0  0  0  0  0  0  0  0  0
    3.7422   -5.0416   24.9024 C   0  0  0  0  0  0  0  0  0  0  0  0
    2.8301   -6.1633   25.3194 C   0  0  0  0  0  0  0  0  0  0  0  0
    3.4036   -7.0590   25.5882 H   0  0  0  0  0  0  0  0  0  0  0  0
    2.1432   -6.4368   24.5101 H   0  0  0  0  0  0  0  0  0  0  0  0
    2.2284   -5.8814   26.1883 H   0  0  0  0  0  0  0  0  0  0  0  0
    3.7798   -3.8691   25.6267 C   0  0  0  0  0  0  0  0  0  0  0  0
    4.6500   -2.8082   25.2719 C   0  0  0  0  0  0  0  0  0  0  0  0
    5.4746   -2.9198   24.1787 C   0  0  0  0  0  0  0  0  0  0  0  0
    5.4517   -4.1009   23.3647 C   0  0  0  0  0  0  0  0  0  0  0  0
    6.1423   -2.0976   23.9302 H   0  0  0  0  0  0  0  0  0  0  0  0
    4.6582   -1.9023   25.8737 H   0  0  0  0  0  0  0  0  0  0  0  0
    3.1384   -3.7595   26.4992 H   0  0  0  0  0  0  0  0  0  0  0  0
    4.0388   -7.2407   23.2499 H   0  0  0  0  0  0  0  0  0  0  0  0
    5.5822   -7.3741   21.3286 H   0  0  0  0  0  0  0  0  0  0  0  0
    5.6382   -1.7196   21.6249 H   0  0  0  0  0  0  0  0  0  0  0  0
    6.6445   -0.0121   19.9066 C   0  0  0  0  0  0  0  0  0  0  0  0
    5.4348    0.6473   20.1550 C   0  0  0  0  0  0  0  0  0  0  0  0
    4.8038    1.3122   19.1044 C   0  0  0  0  0  0  0  0  0  0  0  0
    5.4018    1.2921   17.8398 C   0  0  0  0  0  0  0  0  0  0  0  0
    6.5670    0.6786   17.5817 N   0  0  0  0  0  0  0  0  0  0  0  0
    7.1639    0.0551   18.6056 C   0  0  0  0  0  0  0  0  0  0  0  0
    8.1158   -0.4263   18.3751 H   0  0  0  0  0  0  0  0  0  0  0  0
    4.9143    1.7792   16.9983 H   0  0  0  0  0  0  0  0  0  0  0  0
    3.8725    1.8447   19.2601 H   0  0  0  0  0  0  0  0  0  0  0  0
    4.9977    0.6432   21.1587 H   0  0  0  0  0  0  0  0  0  0  0  0
    8.3247   -1.1234   20.5828 H   0  0  0  0  0  0  0  0  0  0  0  0
    8.1052    1.1534   21.7508 H   0  0  0  0  0  0  0  0  0  0  0  0
    6.8194    0.4598   22.7151 H   0  0  0  0  0  0  0  0  0  0  0  0
    9.7025   -0.6044   22.5706 H   0  0  0  0  0  0  0  0  0  0  0  0
    8.4165   -1.3219   23.5501 H   0  0  0  0  0  0  0  0  0  0  0  0
    8.9973    0.3134   23.9197 H   0  0  0  0  0  0  0  0  0  0  0  0
  1  2  1  0
  2  3  1  0
  3  4  1  0
  4  5  1  0
  5  6  2  0
  5  7  1  0
  7  8  2  0
  8  9  1  0
  9 10  2  0
 10 11  1  0
 11 12  2  0
 12 13  1  0
 13 14  1  0
 13 15  1  0
 13 16  1  0
 12 17  1  0
 17 18  2  0
 18 19  1  0
 19 20  2  0
 19 21  1  0
 18 22  1  0
 17 23  1  0
 10 24  1  0
  9 25  1  0
  4 26  1  0
  3 27  1  0
 27 28  2  0
 28 29  1  0
 29 30  2  0
 30 31  1  0
 31 32  2  0
 32 33  1  0
 30 34  1  0
 29 35  1  0
 28 36  1  0
  3 37  1  0
  2 38  1  0
  2 39  1  0
  1 40  1  0
  1 41  1  0
  1 42  1  0
 20  7  1  0
 32 27  1  0
 20 11  1  0
M  END
>  <cnnaffinity>  (1) 
4.91929

>  <plip>  (1) 
-0.10344827586206896

>  <filename>  (1) 
[H][c]1[n][c]([H])[c]([C]([H])([N]([H])[C](=[O])[c]2[n][c]([H])[c]([H])[c]3[c]([C]([H])([H])[H])[c]([H])[c]([H])[c]([H])[c]23)[C]([H])([H])[C]([H])([H])[H])[c]([H])[c]1[H]

>  <combo1>  (1) 
-0.5554723105077672

$$$$
