
     RDKit          3D

 35 36  0  0  0  0  0  0  0  0999 V2000
   10.4234   -2.4815   22.4028 N   0  0  0  0  0  4  0  0  0  0  0  0
    8.9690   -2.5879   22.8302 C   0  0  0  0  0  0  0  0  0  0  0  0
    7.9556   -2.9576   21.7151 C   0  0  0  0  0  0  0  0  0  0  0  0
    7.7251   -1.9215   20.6556 N   0  0  0  0  0  4  0  0  0  0  0  0
    7.3868   -0.4744   21.1215 C   0  0  0  0  0  0  0  0  0  0  0  0
    6.6567    0.1043   19.9313 C   0  0  0  0  0  0  0  0  0  0  0  0
    5.4275    0.7509   20.1188 C   0  0  0  0  0  0  0  0  0  0  0  0
    4.8029    1.3483   19.0260 C   0  0  0  0  0  0  0  0  0  0  0  0
    5.4282    1.2821   17.7775 C   0  0  0  0  0  0  0  0  0  0  0  0
    6.5861    0.6361   17.5700 N   0  0  0  0  0  0  0  0  0  0  0  0
    7.1599    0.0391   18.6204 C   0  0  0  0  0  0  0  0  0  0  0  0
    8.0661   -0.5204   18.3765 H   0  0  0  0  0  0  0  0  0  0  0  0
    4.9742    1.7494   16.9058 H   0  0  0  0  0  0  0  0  0  0  0  0
    3.8592    1.8694   19.1292 H   0  0  0  0  0  0  0  0  0  0  0  0
    4.9670    0.7629   21.1082 H   0  0  0  0  0  0  0  0  0  0  0  0
    8.5887    0.3540   21.6715 C   0  0  0  0  0  0  0  0  0  0  0  0
    8.4129    1.2217   22.7622 C   0  0  0  0  0  0  0  0  0  0  0  0
    9.4761    2.0305   23.1885 C   0  0  0  0  0  0  0  0  0  0  0  0
   10.6876    1.9481   22.4927 C   0  0  0  0  0  0  0  0  0  0  0  0
   10.7939    1.0208   21.4551 C   0  0  0  0  0  0  0  0  0  0  0  0
    9.8031    0.1843   21.0976 N   0  0  0  0  0  0  0  0  0  0  0  0
   11.7399    0.9212   20.9252 H   0  0  0  0  0  0  0  0  0  0  0  0
   11.5532    2.5595   22.7169 H   0  0  0  0  0  0  0  0  0  0  0  0
    9.3583    2.7130   24.0330 H   0  0  0  0  0  0  0  0  0  0  0  0
    7.4573    1.2400   23.2751 H   0  0  0  0  0  0  0  0  0  0  0  0
    6.6920   -0.5618   21.9603 H   0  0  0  0  0  0  0  0  0  0  0  0
    8.5942   -1.7529   20.0955 H   0  0  0  0  0  0  0  0  0  0  0  0
    6.9749   -2.1501   19.9664 H   0  0  0  0  0  0  0  0  0  0  0  0
    7.0168   -3.1463   22.2541 H   0  0  0  0  0  0  0  0  0  0  0  0
    8.2386   -3.9087   21.2499 H   0  0  0  0  0  0  0  0  0  0  0  0
    8.6432   -1.6393   23.2653 H   0  0  0  0  0  0  0  0  0  0  0  0
    8.8693   -3.3523   23.6000 H   0  0  0  0  0  0  0  0  0  0  0  0
   10.5418   -1.5773   21.8834 H   0  0  0  0  0  0  0  0  0  0  0  0
   11.0760   -2.4927   23.2101 H   0  0  0  0  0  0  0  0  0  0  0  0
   10.7014   -3.2527   21.7635 H   0  0  0  0  0  0  0  0  0  0  0  0
  1  2  1  0
  2  3  1  0
  3  4  1  0
  4  5  1  0
  5  6  1  0
  6  7  2  0
  7  8  1  0
  8  9  2  0
  9 10  1  0
 10 11  2  0
 11 12  1  0
  9 13  1  0
  8 14  1  0
  7 15  1  0
  5 16  1  0
 16 17  2  0
 17 18  1  0
 18 19  2  0
 19 20  1  0
 20 21  2  0
 20 22  1  0
 19 23  1  0
 18 24  1  0
 17 25  1  0
  5 26  1  0
  4 27  1  0
  4 28  1  0
  3 29  1  0
  3 30  1  0
  2 31  1  0
  2 32  1  0
  1 33  1  0
  1 34  1  0
  1 35  1  0
 11  6  1  0
 21 16  1  0
M  CHG  2   1   1   4   1
M  END
>  <cnnaffinity>  (1) 
4.58669

>  <plip>  (1) 
-0.06666666666666667

>  <filename>  (1) 
[H][c]1[n][c]([C]([H])([c]2[c]([H])[n][c]([H])[c]([H])[c]2[H])[N+]([H])([H])[C]([H])([H])[C]([H])([H])[N+]([H])([H])[H])[c]([H])[c]([H])[c]1[H]

>  <combo1>  (1) 
-0.4425523498011176

$$$$
