
     RDKit          3D

 30 32  0  0  0  0  0  0  0  0999 V2000
    5.0168    2.2561   16.7352 H   0  0  0  0  0  0  0  0  0  0  0  0
    5.4120    1.5768   17.4871 C   0  0  0  0  0  0  0  0  0  0  0  0
    6.5816    0.9779   17.1959 N   0  0  0  0  0  0  0  0  0  0  0  0
    7.1107    0.1708   18.1197 C   0  0  0  0  0  0  0  0  0  0  0  0
    8.0730   -0.2757   17.8801 H   0  0  0  0  0  0  0  0  0  0  0  0
    6.4838   -0.1118   19.3507 C   0  0  0  0  0  0  0  0  0  0  0  0
    7.1366   -0.9299   20.3097 N   0  0  0  0  0  0  0  0  0  0  0  0
    8.5011   -0.8217   20.4509 N   0  0  0  0  0  0  0  0  0  0  0  0
    8.8405   -1.5406   21.4759 C   0  0  0  0  0  0  0  0  0  0  0  0
   10.2770   -1.7197   21.8971 C   0  0  1  0  0  0  0  0  0  0  0  0
   10.7034   -2.4533   21.2099 H   0  0  0  0  0  0  0  0  0  0  0  0
   11.0707   -0.5531   21.7429 O   0  0  0  0  0  0  0  0  0  0  0  0
   11.1950    0.1440   22.9743 C   0  0  0  0  0  0  0  0  0  0  0  0
   10.6839    1.1135   22.9006 H   0  0  0  0  0  0  0  0  0  0  0  0
   12.2621    0.3412   23.1274 H   0  0  0  0  0  0  0  0  0  0  0  0
   10.6066   -0.7575   24.0740 C   0  0  0  0  0  0  0  0  0  0  0  0
   11.2504   -0.7607   24.9603 H   0  0  0  0  0  0  0  0  0  0  0  0
    9.6221   -0.3964   24.3917 H   0  0  0  0  0  0  0  0  0  0  0  0
   10.4693   -2.1206   23.3718 C   0  0  0  0  0  0  0  0  0  0  0  0
   11.3790   -2.7213   23.4319 H   0  0  0  0  0  0  0  0  0  0  0  0
    9.6666   -2.7515   23.7700 H   0  0  0  0  0  0  0  0  0  0  0  0
    7.6766   -2.2395   22.1146 C   0  0  0  0  0  0  0  0  0  0  0  0
    7.7595   -3.3294   22.1622 H   0  0  0  0  0  0  0  0  0  0  0  0
    7.4549   -1.8743   23.1263 H   0  0  0  0  0  0  0  0  0  0  0  0
    6.5529   -1.8285   21.2026 C   0  0  0  0  0  0  0  0  0  0  0  0
    5.4075   -2.2041   21.2477 O   0  0  0  0  0  0  0  0  0  0  0  0
    5.2554    0.4931   19.6375 C   0  0  0  0  0  0  0  0  0  0  0  0
    4.7558    0.2885   20.5821 H   0  0  0  0  0  0  0  0  0  0  0  0
    4.7294    1.3796   18.6917 C   0  0  0  0  0  0  0  0  0  0  0  0
    3.8088    1.9198   18.8841 H   0  0  0  0  0  0  0  0  0  0  0  0
  1  2  1  0
  2  3  2  0
  3  4  1  0
  4  5  1  0
  4  6  2  0
  6  7  1  0
  7  8  1  0
  8  9  2  0
  9 10  1  0
 10 11  1  6
 10 12  1  0
 12 13  1  0
 13 14  1  0
 13 15  1  0
 13 16  1  0
 16 17  1  0
 16 18  1  0
 16 19  1  0
 19 20  1  0
 19 21  1  0
  9 22  1  0
 22 23  1  0
 22 24  1  0
 22 25  1  0
 25 26  2  0
  6 27  1  0
 27 28  1  0
 27 29  2  0
 29 30  1  0
 29  2  1  0
 25  7  1  0
 19 10  1  0
M  END
>  <cnnaffinity>  (1) 
4.54897

>  <plip>  (1) 
-0.10714285714285714

>  <filename>  (1) 
[H][c]1[n][c]([H])[c]([N]2[N]=[C]([C@@]3([H])[O][C]([H])([H])[C]([H])([H])[C]3([H])[H])[C]([H])([H])[C]2=[O])[c]([H])[c]1[H]

>  <combo1>  (1) 
-0.702528439539531

$$$$
