
     RDKit          3D

 33 35  0  0  0  0  0  0  0  0999 V2000
    4.9923    1.8241   16.9832 H   0  0  0  0  0  0  0  0  0  0  0  0
    5.4387    1.2740   17.8080 C   0  0  0  0  0  0  0  0  0  0  0  0
    6.5993    0.6465   17.5527 N   0  0  0  0  0  0  0  0  0  0  0  0
    7.1739   -0.0317   18.5567 C   0  0  0  0  0  0  0  0  0  0  0  0
    8.1188   -0.5246   18.3380 H   0  0  0  0  0  0  0  0  0  0  0  0
    6.6220   -0.1139   19.8479 C   0  0  0  0  0  0  0  0  0  0  0  0
    7.2823   -0.8601   20.7972 O   0  0  0  0  0  0  0  0  0  0  0  0
    7.2272   -0.4598   22.1215 C   0  0  0  0  0  0  0  0  0  0  0  0
    7.2605   -1.3509   23.2068 C   0  0  0  0  0  0  0  0  0  0  0  0
    7.3374   -2.4317   23.1635 H   0  0  0  0  0  0  0  0  0  0  0  0
    7.2435   -0.7121   24.3727 N   0  0  0  0  0  0  0  0  0  0  0  0
    7.1744    0.5922   24.0329 N   0  0  0  0  0  0  0  0  0  0  0  0
    7.3368    1.3134   24.7172 H   0  0  0  0  0  0  0  0  0  0  0  0
    7.1834    0.8061   22.6940 C   0  0  0  0  0  0  0  0  0  0  0  0
    7.0602    2.0612   22.1326 N   0  0  0  0  0  0  0  0  0  0  0  0
    7.3917    2.1231   21.1826 H   0  0  0  0  0  0  0  0  0  0  0  0
    7.0564    3.2896   22.8907 C   0  0  0  0  0  0  0  0  0  0  0  0
    6.2680    3.2532   23.6529 H   0  0  0  0  0  0  0  0  0  0  0  0
    6.7713    4.0861   22.1921 H   0  0  0  0  0  0  0  0  0  0  0  0
    8.3807    3.6478   23.5626 C   0  0  0  0  0  0  0  0  0  0  0  0
    8.4324    4.1047   24.8891 C   0  0  0  0  0  0  0  0  0  0  0  0
    7.5752    4.0718   25.5537 H   0  0  0  0  0  0  0  0  0  0  0  0
    9.6185    4.6470   25.3846 C   0  0  0  0  0  0  0  0  0  0  0  0
    9.6313    5.0563   26.3930 H   0  0  0  0  0  0  0  0  0  0  0  0
   10.7595    4.7187   24.6899 N   0  0  0  0  0  0  0  0  0  0  0  0
   10.7331    4.2137   23.4502 C   0  0  0  0  0  0  0  0  0  0  0  0
   11.6524    4.3291   22.8788 H   0  0  0  0  0  0  0  0  0  0  0  0
    9.6005    3.6440   22.8634 C   0  0  0  0  0  0  0  0  0  0  0  0
    9.6885    3.2629   21.8517 H   0  0  0  0  0  0  0  0  0  0  0  0
    5.4167    0.5419   20.1097 C   0  0  0  0  0  0  0  0  0  0  0  0
    5.0259    0.5503   21.1309 H   0  0  0  0  0  0  0  0  0  0  0  0
    4.8162    1.2453   19.0607 C   0  0  0  0  0  0  0  0  0  0  0  0
    3.8904    1.7865   19.2187 H   0  0  0  0  0  0  0  0  0  0  0  0
  1  2  1  0
  2  3  2  0
  3  4  1  0
  4  5  1  0
  4  6  2  0
  6  7  1  0
  7  8  1  0
  8  9  1  0
  9 10  1  0
  9 11  2  0
 11 12  1  0
 12 13  1  0
 12 14  1  0
 14 15  1  0
 15 16  1  0
 15 17  1  0
 17 18  1  0
 17 19  1  0
 17 20  1  0
 20 21  2  0
 21 22  1  0
 21 23  1  0
 23 24  1  0
 23 25  2  0
 25 26  1  0
 26 27  1  0
 26 28  2  0
 28 29  1  0
  6 30  1  0
 30 31  1  0
 30 32  2  0
 32 33  1  0
 32  2  1  0
 14  8  2  0
 28 20  1  0
M  END
>  <cnnaffinity>  (1) 
5.11561

>  <plip>  (1) 
-0.0

>  <filename>  (1) 
[H][c]1[n][c]([H])[c]([O][c]2[c]([H])[n][n]([H])[c]2[N]([H])[C]([H])([H])[c]2[c]([H])[c]([H])[n][c]([H])[c]2[H])[c]([H])[c]1[H]

>  <combo1>  (1) 
-6.379552449505908e-06

$$$$
