
     RDKit          3D

 32 33  0  0  0  0  0  0  0  0999 V2000
    5.5720    2.9396   26.0617 H   0  0  0  0  0  0  0  0  0  0  0  0
    6.2484    2.1156   25.8789 C   0  0  0  0  0  0  0  0  0  0  0  0
    7.0122    1.3716   26.6859 C   0  0  0  0  0  0  0  0  0  0  0  0
    7.1811    1.3661   27.7519 H   0  0  0  0  0  0  0  0  0  0  0  0
    7.7365    0.3536   25.8683 C   0  0  0  0  0  0  0  0  0  0  0  0
    8.4874   -0.4879   26.2598 O   0  0  0  0  0  0  0  0  0  0  0  0
    7.3630    0.6059   24.5466 N   0  0  0  0  0  0  0  0  0  0  0  0
    7.5613   -0.3510   23.5638 C   0  0  0  0  0  0  0  0  0  0  0  0
    7.8911   -1.4766   23.8527 O   0  0  0  0  0  0  0  0  0  0  0  0
    7.3787    0.1472   22.3345 N   0  0  0  0  0  0  0  0  0  0  0  0
    6.9227    1.0453   22.3480 H   0  0  0  0  0  0  0  0  0  0  0  0
    7.3390   -0.6963   21.1482 C   0  0  0  0  0  0  0  0  0  0  0  0
    6.6739    0.0960   20.0302 C   0  0  0  0  0  0  0  0  0  0  0  0
    7.1855    0.0878   18.7260 C   0  0  0  0  0  0  0  0  0  0  0  0
    8.1299   -0.4083   18.5141 H   0  0  0  0  0  0  0  0  0  0  0  0
    6.5968    0.6552   17.6618 N   0  0  0  0  0  0  0  0  0  0  0  0
    5.4325    1.2774   17.8692 C   0  0  0  0  0  0  0  0  0  0  0  0
    4.9723    1.7443   17.0008 H   0  0  0  0  0  0  0  0  0  0  0  0
    4.8091    1.3317   19.1195 C   0  0  0  0  0  0  0  0  0  0  0  0
    3.8623    1.8418   19.2256 H   0  0  0  0  0  0  0  0  0  0  0  0
    5.4375    0.7410   20.2167 C   0  0  0  0  0  0  0  0  0  0  0  0
    4.9876    0.7890   21.2133 H   0  0  0  0  0  0  0  0  0  0  0  0
    6.5272   -1.9899   21.3549 C   0  0  0  0  0  0  0  0  0  0  0  0
    6.4445   -2.5214   20.4018 H   0  0  0  0  0  0  0  0  0  0  0  0
    7.0083   -2.6203   22.1037 H   0  0  0  0  0  0  0  0  0  0  0  0
    5.5202   -1.7473   21.7009 H   0  0  0  0  0  0  0  0  0  0  0  0
    8.7928   -1.0753   20.8524 C   0  0  0  0  0  0  0  0  0  0  0  0
    8.8465   -1.7850   20.0252 H   0  0  0  0  0  0  0  0  0  0  0  0
    9.2212   -1.5434   21.7440 H   0  0  0  0  0  0  0  0  0  0  0  0
    9.3771   -0.1827   20.6101 H   0  0  0  0  0  0  0  0  0  0  0  0
    6.4283    1.6188   24.4988 C   0  0  0  0  0  0  0  0  0  0  0  0
    5.8573    1.9951   23.4961 O   0  0  0  0  0  0  0  0  0  0  0  0
  1  2  1  0
  2  3  2  0
  3  4  1  0
  3  5  1  0
  5  6  2  0
  5  7  1  0
  7  8  1  0
  8  9  2  0
  8 10  1  0
 10 11  1  0
 10 12  1  0
 12 13  1  0
 13 14  2  0
 14 15  1  0
 14 16  1  0
 16 17  2  0
 17 18  1  0
 17 19  1  0
 19 20  1  0
 19 21  2  0
 21 22  1  0
 12 23  1  0
 23 24  1  0
 23 25  1  0
 23 26  1  0
 12 27  1  0
 27 28  1  0
 27 29  1  0
 27 30  1  0
  7 31  1  0
 31 32  2  0
 31  2  1  0
 21 13  1  0
M  END
>  <cnnaffinity>  (1) 
4.76163

>  <plip>  (1) 
-0.07142857142857142

>  <filename>  (1) 
[H][C]1=[C]([H])[C](=[O])[N]([C](=[O])[N]([H])[C]([c]2[c]([H])[n][c]([H])[c]([H])[c]2[H])([C]([H])([H])[H])[C]([H])([H])[H])[C]1=[O]

>  <combo1>  (1) 
-0.4372828683283236

$$$$
