
     RDKit          3D

 23 24  0  0  0  0  0  0  0  0999 V2000
    6.6535   -1.1246   21.7103 H   0  0  0  0  0  0  0  0  0  0  0  0
    7.2809   -0.6323   20.9687 C   0  0  0  0  0  0  0  0  0  0  0  0
    8.5949   -0.6678   21.1958 C   0  0  0  0  0  0  0  0  0  0  0  0
    9.4307   -0.0076   20.3546 F   0  0  0  0  0  0  0  0  0  0  0  0
    9.3098   -1.4047   22.2689 C   0  0  0  0  0  0  0  0  0  0  0  0
    8.6971   -1.7371   23.5005 C   0  0  0  0  0  0  0  0  0  0  0  0
    7.7167   -1.3699   23.7773 H   0  0  0  0  0  0  0  0  0  0  0  0
    9.2854   -2.4972   24.4302 N   0  0  0  0  0  0  0  0  0  0  0  0
   10.4883   -3.0338   24.2018 N   0  0  0  0  0  0  0  0  0  0  0  0
   11.1193   -2.7700   23.0499 C   0  0  0  0  0  0  0  0  0  0  0  0
   12.0744   -3.2715   22.9175 H   0  0  0  0  0  0  0  0  0  0  0  0
   10.5990   -1.9074   22.0772 C   0  0  0  0  0  0  0  0  0  0  0  0
   11.1535   -1.6408   21.1836 H   0  0  0  0  0  0  0  0  0  0  0  0
    6.5852    0.0264   19.8389 C   0  0  0  0  0  0  0  0  0  0  0  0
    7.1184    0.0929   18.5306 C   0  0  0  0  0  0  0  0  0  0  0  0
    8.0744   -0.3781   18.3075 H   0  0  0  0  0  0  0  0  0  0  0  0
    6.5154    0.7142   17.5101 N   0  0  0  0  0  0  0  0  0  0  0  0
    5.3546    1.3356   17.7668 C   0  0  0  0  0  0  0  0  0  0  0  0
    4.9097    1.8700   16.9335 H   0  0  0  0  0  0  0  0  0  0  0  0
    4.7300    1.3312   19.0182 C   0  0  0  0  0  0  0  0  0  0  0  0
    3.8040    1.8802   19.1571 H   0  0  0  0  0  0  0  0  0  0  0  0
    5.3450    0.6493   20.0667 C   0  0  0  0  0  0  0  0  0  0  0  0
    4.9091    0.6417   21.0662 H   0  0  0  0  0  0  0  0  0  0  0  0
  1  2  1  0
  2  3  2  3
  3  4  1  0
  3  5  1  0
  5  6  2  0
  6  7  1  0
  6  8  1  0
  8  9  2  0
  9 10  1  0
 10 11  1  0
 10 12  2  0
 12 13  1  0
  2 14  1  0
 14 15  2  0
 15 16  1  0
 15 17  1  0
 17 18  2  0
 18 19  1  0
 18 20  1  0
 20 21  1  0
 20 22  2  0
 22 23  1  0
 12  5  1  0
 22 14  1  0
M  END
>  <cnnaffinity>  (1) 
4.62215

>  <plip>  (1) 
-0.0

>  <filename>  (1) 
[H][C](=[C]([F])[c]1[c]([H])[n][n][c]([H])[c]1[H])[c]1[c]([H])[n][c]([H])[c]([H])[c]1[H]

>  <combo1>  (1) 
-7.657485271995918e-06

$$$$
