
     RDKit          3D

 41 43  0  0  0  0  0  0  0  0999 V2000
    6.6596    1.6728   24.9900 C   0  0  0  0  0  0  0  0  0  0  0  0
    6.6212    2.5826   23.7815 C   0  0  0  0  0  0  0  0  0  0  0  0
    5.3830    2.9260   23.2109 C   0  0  0  0  0  0  0  0  0  0  0  0
    5.2128    3.7731   22.1929 N   0  0  0  0  0  0  0  0  0  0  0  0
    6.3090    4.3651   21.6952 C   0  0  0  0  0  0  0  0  0  0  0  0
    7.5910    4.1043   22.1673 C   0  0  0  0  0  0  0  0  0  0  0  0
    7.7685    3.1366   23.1750 C   0  0  0  0  0  0  0  0  0  0  0  0
    9.1576    2.7286   23.5252 C   0  0  0  0  0  0  0  0  0  0  0  0
    9.6416    1.4770   23.5771 C   0  0  0  0  0  0  0  0  0  0  0  0
    9.0624    0.2596   22.9344 C   0  0  0  0  0  0  0  0  0  0  0  0
    9.3642   -0.8570   23.3315 O   0  0  0  0  0  0  0  0  0  0  0  0
    8.2517    0.5044   21.8691 N   0  0  0  0  0  0  0  0  0  0  0  0
    7.4098   -0.4484   21.1980 C   0  0  0  0  0  0  0  0  0  0  0  0
    6.7002    0.2663   20.0649 C   0  0  0  0  0  0  0  0  0  0  0  0
    5.4458    0.8759   20.2041 C   0  0  0  0  0  0  0  0  0  0  0  0
    4.8276    1.4370   19.0835 C   0  0  0  0  0  0  0  0  0  0  0  0
    5.4954    1.3937   17.8572 C   0  0  0  0  0  0  0  0  0  0  0  0
    6.7136    0.8531   17.7067 N   0  0  0  0  0  0  0  0  0  0  0  0
    7.2944    0.3272   18.7906 C   0  0  0  0  0  0  0  0  0  0  0  0
    8.2888   -0.0936   18.6249 H   0  0  0  0  0  0  0  0  0  0  0  0
    5.0314    1.7880   16.9544 H   0  0  0  0  0  0  0  0  0  0  0  0
    3.8467    1.8974   19.1482 H   0  0  0  0  0  0  0  0  0  0  0  0
    4.9568    0.9008   21.1781 H   0  0  0  0  0  0  0  0  0  0  0  0
    6.5152   -1.3198   22.1293 C   0  0  0  0  0  0  0  0  0  0  0  0
    7.4006   -2.5654   21.8570 C   0  0  0  0  0  0  0  0  0  0  0  0
    8.1345   -1.7439   20.7744 C   0  0  0  0  0  0  0  0  0  0  0  0
    9.2274   -1.7123   20.7774 H   0  0  0  0  0  0  0  0  0  0  0  0
    7.7523   -1.9790   19.7882 H   0  0  0  0  0  0  0  0  0  0  0  0
    6.8769   -3.4610   21.4966 H   0  0  0  0  0  0  0  0  0  0  0  0
    8.0407   -2.8449   22.6940 H   0  0  0  0  0  0  0  0  0  0  0  0
    6.4523   -0.9505   23.1583 H   0  0  0  0  0  0  0  0  0  0  0  0
    5.5150   -1.4379   21.7055 H   0  0  0  0  0  0  0  0  0  0  0  0
    8.0384    1.4761   21.7163 H   0  0  0  0  0  0  0  0  0  0  0  0
   10.5441    1.2517   24.1371 H   0  0  0  0  0  0  0  0  0  0  0  0
    9.8313    3.5743   23.6791 H   0  0  0  0  0  0  0  0  0  0  0  0
    8.4585    4.5804   21.7206 H   0  0  0  0  0  0  0  0  0  0  0  0
    6.1531    5.0851   20.8959 H   0  0  0  0  0  0  0  0  0  0  0  0
    4.4677    2.4953   23.6242 H   0  0  0  0  0  0  0  0  0  0  0  0
    5.6571    1.5642   25.4092 H   0  0  0  0  0  0  0  0  0  0  0  0
    7.0196    0.6659   24.7521 H   0  0  0  0  0  0  0  0  0  0  0  0
    7.3160    2.0701   25.7708 H   0  0  0  0  0  0  0  0  0  0  0  0
  1  2  1  0
  2  3  2  0
  3  4  1  0
  4  5  2  0
  5  6  1  0
  6  7  2  0
  7  8  1  0
  8  9  2  3
  9 10  1  0
 10 11  2  0
 10 12  1  0
 12 13  1  0
 13 14  1  0
 14 15  2  0
 15 16  1  0
 16 17  2  0
 17 18  1  0
 18 19  2  0
 19 20  1  0
 17 21  1  0
 16 22  1  0
 15 23  1  0
 13 24  1  0
 24 25  1  0
 25 26  1  0
 26 27  1  0
 26 28  1  0
 25 29  1  0
 25 30  1  0
 24 31  1  0
 24 32  1  0
 12 33  1  0
  9 34  1  0
  8 35  1  0
  6 36  1  0
  5 37  1  0
  3 38  1  0
  1 39  1  0
  1 40  1  0
  1 41  1  0
  7  2  1  0
 26 13  1  0
 19 14  1  0
M  END
>  <cnnaffinity>  (1) 
5.12404

>  <plip>  (1) 
-0.03571428571428571

>  <filename>  (1) 
[H][C]([C](=[O])[N]([H])[C]1([c]2[c]([H])[n][c]([H])[c]([H])[c]2[H])[C]([H])([H])[C]([H])([H])[C]1([H])[H])=[C]([H])[c]1[c]([H])[c]([H])[n][c]([H])[c]1[C]([H])([H])[H]

>  <combo1>  (1) 
-0.20793017755897408

$$$$
