
     RDKit          3D

 35 36  0  0  0  0  0  0  0  0999 V2000
    9.2851   -2.1143   25.3220 O   0  0  0  0  0  0  0  0  0  0  0  0
    8.9878   -0.9821   24.9722 C   0  0  0  0  0  0  0  0  0  0  0  0
    9.5479    0.2234   25.7146 C   0  0  0  0  0  0  0  0  0  0  0  0
   10.6466    0.9220   24.9474 C   0  0  0  0  0  0  0  0  0  0  0  0
   11.9412    0.3859   24.9183 C   0  0  0  0  0  0  0  0  0  0  0  0
   12.9836    1.0634   24.2661 C   0  0  0  0  0  0  0  0  0  0  0  0
   12.7242    2.2705   23.6048 C   0  0  0  0  0  0  0  0  0  0  0  0
   13.9895    3.1537   22.7861 Cl  0  0  0  0  0  0  0  0  0  0  0  0
   11.4285    2.7888   23.6051 C   0  0  0  0  0  0  0  0  0  0  0  0
   11.0840    4.4493   22.7336 Br  0  0  0  0  0  0  0  0  0  0  0  0
   10.3965    2.1222   24.2738 C   0  0  0  0  0  0  0  0  0  0  0  0
    9.4039    2.5655   24.2818 H   0  0  0  0  0  0  0  0  0  0  0  0
   13.9913    0.6656   24.2895 H   0  0  0  0  0  0  0  0  0  0  0  0
   12.1319   -0.5425   25.4370 H   0  0  0  0  0  0  0  0  0  0  0  0
    8.7327    0.9269   25.9006 H   0  0  0  0  0  0  0  0  0  0  0  0
    9.9244   -0.1170   26.6815 H   0  0  0  0  0  0  0  0  0  0  0  0
    8.1073   -0.8086   23.9120 N   0  0  0  0  0  0  0  0  0  0  0  0
    7.5489   -1.9122   23.0829 C   0  0  0  0  0  0  0  0  0  0  0  0
    6.8130   -1.5242   21.7671 C   0  0  0  0  0  0  0  0  0  0  0  0
    5.7079   -1.9991   21.5173 O   0  0  0  0  0  0  0  0  0  0  0  0
    7.4296   -0.7207   20.8161 N   0  0  0  0  0  0  0  0  0  0  0  0
    6.7454   -0.0568   19.7716 C   0  0  0  0  0  0  0  0  0  0  0  0
    5.4948    0.5076   20.0382 C   0  0  0  0  0  0  0  0  0  0  0  0
    4.8492    1.2143   19.0192 C   0  0  0  0  0  0  0  0  0  0  0  0
    5.4446    1.3142   17.7536 C   0  0  0  0  0  0  0  0  0  0  0  0
    6.6346    0.7494   17.4670 N   0  0  0  0  0  0  0  0  0  0  0  0
    7.2699    0.0939   18.4639 C   0  0  0  0  0  0  0  0  0  0  0  0
    8.2358   -0.3581   18.2543 H   0  0  0  0  0  0  0  0  0  0  0  0
    4.9270    1.8736   16.9815 H   0  0  0  0  0  0  0  0  0  0  0  0
    3.8976    1.7056   19.1976 H   0  0  0  0  0  0  0  0  0  0  0  0
    5.0600    0.4160   21.0317 H   0  0  0  0  0  0  0  0  0  0  0  0
    8.3856   -0.4410   21.0186 H   0  0  0  0  0  0  0  0  0  0  0  0
    6.8466   -2.4997   23.6841 H   0  0  0  0  0  0  0  0  0  0  0  0
    8.3728   -2.5763   22.8017 H   0  0  0  0  0  0  0  0  0  0  0  0
    7.7969    0.1476   23.7494 H   0  0  0  0  0  0  0  0  0  0  0  0
  1  2  2  0
  2  3  1  0
  3  4  1  0
  4  5  2  0
  5  6  1  0
  6  7  2  0
  7  8  1  0
  7  9  1  0
  9 10  1  0
  9 11  2  0
 11 12  1  0
  6 13  1  0
  5 14  1  0
  3 15  1  0
  3 16  1  0
  2 17  1  0
 17 18  1  0
 18 19  1  0
 19 20  2  0
 19 21  1  0
 21 22  1  0
 22 23  2  0
 23 24  1  0
 24 25  2  0
 25 26  1  0
 26 27  2  0
 27 28  1  0
 25 29  1  0
 24 30  1  0
 23 31  1  0
 21 32  1  0
 18 33  1  0
 18 34  1  0
 17 35  1  0
 11  4  1  0
 27 22  1  0
M  END
>  <cnnaffinity>  (1) 
5.27955

>  <plip>  (1) 
-0.06666666666666667

>  <filename>  (1) 
[H][c]1[n][c]([H])[c]([N]([H])[C](=[O])[C]([H])([H])[N]([H])[C](=[O])[C]([H])([H])[c]2[c]([H])[c]([H])[c]([Cl])[c]([Br])[c]2[H])[c]([H])[c]1[H]

>  <combo1>  (1) 
-0.3066114370587184

$$$$
