
     RDKit          3D

 34 35  0  0  0  0  0  0  0  0999 V2000
    8.4185    7.4452   25.1281 C   0  0  0  0  0  0  0  0  0  0  0  0
    9.2200    6.4283   24.3542 C   0  0  0  0  0  0  0  0  0  0  0  0
   10.6357    6.5095   24.2968 C   0  0  0  0  0  0  0  0  0  0  0  0
   11.3834    5.6252   23.6258 N   0  0  0  0  0  0  0  0  0  0  0  0
   10.7116    4.6404   22.9944 C   0  0  0  0  0  0  0  0  0  0  0  0
    9.3051    4.5325   23.0382 C   0  0  0  0  0  0  0  0  0  0  0  0
    8.5768    3.3939   22.3720 C   0  0  0  0  0  0  0  0  0  0  0  0
    8.4921    2.1554   23.2787 C   0  0  0  0  0  0  0  0  0  0  0  0
    7.7395    1.1024   22.6427 O   0  0  0  0  0  0  0  0  0  0  0  0
    8.3681    0.3720   21.7044 C   0  0  0  0  0  0  0  0  0  0  0  0
    9.5309    0.5001   21.4011 O   0  0  0  0  0  0  0  0  0  0  0  0
    7.4272   -0.6341   21.0469 C   0  0  0  0  0  0  0  0  0  0  0  0
    6.6458   -0.0005   19.8989 C   0  0  0  0  0  0  0  0  0  0  0  0
    5.4335    0.6550   20.1420 C   0  0  0  0  0  0  0  0  0  0  0  0
    4.7913    1.3163   19.0890 C   0  0  0  0  0  0  0  0  0  0  0  0
    5.3866    1.2992   17.8237 C   0  0  0  0  0  0  0  0  0  0  0  0
    6.5441    0.6724   17.5632 N   0  0  0  0  0  0  0  0  0  0  0  0
    7.1501    0.0527   18.5848 C   0  0  0  0  0  0  0  0  0  0  0  0
    8.1047   -0.4173   18.3494 H   0  0  0  0  0  0  0  0  0  0  0  0
    4.9217    1.8073   16.9793 H   0  0  0  0  0  0  0  0  0  0  0  0
    3.8615    1.8557   19.2324 H   0  0  0  0  0  0  0  0  0  0  0  0
    5.0183    0.6507   21.1511 H   0  0  0  0  0  0  0  0  0  0  0  0
    6.7470   -1.0380   21.8033 H   0  0  0  0  0  0  0  0  0  0  0  0
    8.0552   -1.4539   20.6910 H   0  0  0  0  0  0  0  0  0  0  0  0
    7.9167    2.3647   24.1837 H   0  0  0  0  0  0  0  0  0  0  0  0
    9.4908    1.7812   23.5430 H   0  0  0  0  0  0  0  0  0  0  0  0
    9.0871    3.1048   21.4433 H   0  0  0  0  0  0  0  0  0  0  0  0
    7.5675    3.7350   22.1212 H   0  0  0  0  0  0  0  0  0  0  0  0
    8.5651    5.4260   23.7372 N   0  0  0  0  0  0  0  0  0  0  0  0
   11.3160    3.9171   22.4475 H   0  0  0  0  0  0  0  0  0  0  0  0
   11.1687    7.3083   24.8144 H   0  0  0  0  0  0  0  0  0  0  0  0
    8.6961    8.4669   24.8411 H   0  0  0  0  0  0  0  0  0  0  0  0
    7.3499    7.3016   24.9540 H   0  0  0  0  0  0  0  0  0  0  0  0
    8.6165    7.3523   26.2028 H   0  0  0  0  0  0  0  0  0  0  0  0
  1  2  1  0
  2  3  2  0
  3  4  1  0
  4  5  2  0
  5  6  1  0
  6  7  1  0
  7  8  1  0
  8  9  1  0
  9 10  1  0
 10 11  2  0
 10 12  1  0
 12 13  1  0
 13 14  2  0
 14 15  1  0
 15 16  2  0
 16 17  1  0
 17 18  2  0
 18 19  1  0
 16 20  1  0
 15 21  1  0
 14 22  1  0
 12 23  1  0
 12 24  1  0
  8 25  1  0
  8 26  1  0
  7 27  1  0
  7 28  1  0
  6 29  2  0
  5 30  1  0
  3 31  1  0
  1 32  1  0
  1 33  1  0
  1 34  1  0
 29  2  1  0
 18 13  1  0
M  END
>  <cnnaffinity>  (1) 
4.18501

>  <plip>  (1) 
-0.07142857142857142

>  <filename>  (1) 
[H][c]1[n][c]([H])[c]([C]([H])([H])[C]([H])([H])[O][C](=[O])[C]([H])([H])[c]2[c]([H])[n][c]([H])[c]([H])[c]2[H])[n][c]1[C]([H])([H])[H]

>  <combo1>  (1) 
-0.387274800472983

$$$$
