
     RDKit          3D

 40 42  0  0  0  0  0  0  0  0999 V2000
    4.7957    1.3192   19.0900 C   0  0  0  0  0  0  0  0  0  0  0  0
    5.4131    1.2984   17.8349 C   0  0  0  0  0  0  0  0  0  0  0  0
    6.5735    0.6667   17.5982 N   0  0  0  0  0  0  0  0  0  0  0  0
    7.1670    0.0521   18.6265 C   0  0  0  0  0  0  0  0  0  0  0  0
    6.6569    0.0355   19.9313 C   0  0  0  0  0  0  0  0  0  0  0  0
    7.3859   -0.6453   21.0171 C   0  0  0  0  0  0  0  0  0  0  0  0
    6.7523   -1.5264   21.7884 N   0  0  0  0  0  0  0  0  0  0  0  0
    7.6682   -1.9463   22.6675 N   0  0  0  0  0  0  0  0  0  0  0  0
    8.8750   -1.3532   22.4977 C   0  0  0  0  0  0  0  0  0  0  0  0
    8.7396   -0.4995   21.4223 C   0  0  0  0  0  0  0  0  0  0  0  0
    9.7575    0.4512   20.8625 C   0  0  0  0  0  0  0  0  0  0  0  0
    9.7274    1.7030   21.6728 N   0  0  0  0  0  4  0  0  0  0  0  0
    8.4769    2.5201   21.4899 C   0  0  0  0  0  0  0  0  0  0  0  0
    8.5668    3.8217   22.2759 C   0  0  1  0  0  0  0  0  0  0  0  0
    7.3721    4.7402   22.0031 C   0  0  0  0  0  0  0  0  0  0  0  0
    7.2855    5.6855   23.2029 C   0  0  0  0  0  0  0  0  0  0  0  0
    8.0216    4.9637   24.3388 N   0  0  0  0  0  4  0  0  0  0  0  0
    8.5988    3.6609   23.7984 C   0  0  0  0  0  0  0  0  0  0  0  0
    9.6178    3.5280   24.1705 H   0  0  0  0  0  0  0  0  0  0  0  0
    8.0163    2.8050   24.1607 H   0  0  0  0  0  0  0  0  0  0  0  0
    7.3676    4.7867   25.1367 H   0  0  0  0  0  0  0  0  0  0  0  0
    8.7977    5.5724   24.7014 H   0  0  0  0  0  0  0  0  0  0  0  0
    7.7579    6.6494   22.9897 H   0  0  0  0  0  0  0  0  0  0  0  0
    6.2542    5.9032   23.4946 H   0  0  0  0  0  0  0  0  0  0  0  0
    7.4774    5.2921   21.0628 H   0  0  0  0  0  0  0  0  0  0  0  0
    6.4481    4.1532   21.9186 H   0  0  0  0  0  0  0  0  0  0  0  0
    9.5011    4.3535   22.0590 H   0  0  0  0  0  0  0  0  0  0  0  0
    7.6082    1.9492   21.8376 H   0  0  0  0  0  0  0  0  0  0  0  0
    8.2991    2.6953   20.4192 H   0  0  0  0  0  0  0  0  0  0  0  0
   10.5393    2.3385   21.5090 H   0  0  0  0  0  0  0  0  0  0  0  0
    9.7338    1.3538   22.6638 H   0  0  0  0  0  0  0  0  0  0  0  0
   10.7526    0.0029   20.8858 H   0  0  0  0  0  0  0  0  0  0  0  0
    9.5257    0.6816   19.8189 H   0  0  0  0  0  0  0  0  0  0  0  0
    9.7261   -1.5661   23.1279 H   0  0  0  0  0  0  0  0  0  0  0  0
    7.3901   -2.6079   23.3769 H   0  0  0  0  0  0  0  0  0  0  0  0
    5.4168    0.6605   20.1534 C   0  0  0  0  0  0  0  0  0  0  0  0
    4.9519    0.6357   21.1429 H   0  0  0  0  0  0  0  0  0  0  0  0
    8.1056   -0.4536   18.4000 H   0  0  0  0  0  0  0  0  0  0  0  0
    4.9575    1.7993   16.9813 H   0  0  0  0  0  0  0  0  0  0  0  0
    3.8582    1.8584   19.2096 H   0  0  0  0  0  0  0  0  0  0  0  0
  1  2  2  0
  2  3  1  0
  3  4  2  0
  4  5  1  0
  5  6  1  0
  6  7  2  0
  7  8  1  0
  8  9  1  0
  9 10  2  0
 10 11  1  0
 11 12  1  0
 12 13  1  0
 13 14  1  0
 14 15  1  0
 15 16  1  0
 16 17  1  0
 17 18  1  0
 18 19  1  0
 18 20  1  0
 17 21  1  0
 17 22  1  0
 16 23  1  0
 16 24  1  0
 15 25  1  0
 15 26  1  0
 14 27  1  6
 13 28  1  0
 13 29  1  0
 12 30  1  0
 12 31  1  0
 11 32  1  0
 11 33  1  0
  9 34  1  0
  8 35  1  0
  5 36  2  0
 36 37  1  0
  4 38  1  0
  2 39  1  0
  1 40  1  0
 36  1  1  0
 10  6  1  0
 18 14  1  0
M  CHG  2  12   1  17   1
M  END
>  <cnnaffinity>  (1) 
4.60474

>  <plip>  (1) 
-0.10714285714285714

>  <filename>  (1) 
[H][c]1[n][c]([H])[c](-[c]2[n][n]([H])[c]([H])[c]2[C]([H])([H])[N+]([H])([H])[C]([H])([H])[C@@]2([H])[C]([H])([H])[C]([H])([H])[N+]([H])([H])[C]2([H])[H])[c]([H])[c]1[H]

>  <combo1>  (1) 
-0.6340873776300618

$$$$
