
     RDKit          3D

 58 60  0  0  0  0  0  0  0  0999 V2000
    4.7800   -6.4344   27.8298 C   0  0  0  0  0  0  0  0  0  0  0  0
    4.7270   -6.4230   26.3195 C   0  0  0  0  0  0  0  0  0  0  0  0
    3.7319   -7.1272   25.6316 C   0  0  0  0  0  0  0  0  0  0  0  0
    3.6924   -7.1190   24.2361 C   0  0  0  0  0  0  0  0  0  0  0  0
    4.6497   -6.4229   23.4776 C   0  0  0  0  0  0  0  0  0  0  0  0
    4.5632   -6.4812   21.9739 C   0  0  0  0  0  0  0  0  0  0  0  0
    3.6161   -6.9244   21.6625 H   0  0  0  0  0  0  0  0  0  0  0  0
    4.6647   -5.4932   21.5133 H   0  0  0  0  0  0  0  0  0  0  0  0
    5.3597   -7.1119   21.5665 H   0  0  0  0  0  0  0  0  0  0  0  0
    5.6676   -5.7148   24.1536 C   0  0  0  0  0  0  0  0  0  0  0  0
    6.8081   -5.0089   23.4256 C   0  0  0  0  0  0  0  0  0  0  0  0
    7.6746   -5.9294   22.5566 C   0  0  0  0  0  0  0  0  0  0  0  0
    8.6302   -5.4426   22.3628 H   0  0  0  0  0  0  0  0  0  0  0  0
    7.2030   -6.1078   21.5882 H   0  0  0  0  0  0  0  0  0  0  0  0
    7.8542   -6.8895   23.0473 H   0  0  0  0  0  0  0  0  0  0  0  0
    6.2959   -3.9028   22.5969 N   0  0  0  0  0  0  0  0  0  0  0  0
    7.1994   -2.9379   22.1860 C   0  0  0  0  0  0  0  0  0  0  0  0
    8.4126   -3.0220   22.2684 O   0  0  0  0  0  0  0  0  0  0  0  0
    6.5608   -1.8422   21.6753 N   0  0  0  0  0  0  0  0  0  0  0  0
    7.3434   -0.7742   21.0650 C   0  0  0  0  0  0  0  0  0  0  0  0
    7.7795    0.1868   22.1924 C   0  0  0  0  0  0  0  0  0  0  0  0
    8.6862    1.3059   21.7826 N   0  0  0  0  0  4  0  0  0  0  0  0
    8.9616    2.2462   22.9307 C   0  0  0  0  0  0  0  0  0  0  0  0
   10.3000    2.9209   22.6186 C   0  0  0  0  0  0  0  0  0  0  0  0
   10.9574    2.0819   21.5015 C   0  0  0  0  0  0  0  0  0  0  0  0
   10.0464    0.8734   21.2759 C   0  0  0  0  0  0  0  0  0  0  0  0
    9.9711    0.5698   20.2299 H   0  0  0  0  0  0  0  0  0  0  0  0
   10.3747    0.0015   21.8509 H   0  0  0  0  0  0  0  0  0  0  0  0
   11.0495    2.6633   20.5823 H   0  0  0  0  0  0  0  0  0  0  0  0
   11.9666    1.7538   21.7650 H   0  0  0  0  0  0  0  0  0  0  0  0
   10.9079    2.9492   23.5269 H   0  0  0  0  0  0  0  0  0  0  0  0
   10.1503    3.9571   22.3027 H   0  0  0  0  0  0  0  0  0  0  0  0
    8.1323    2.9436   23.0484 H   0  0  0  0  0  0  0  0  0  0  0  0
    9.0287    1.6493   23.8472 H   0  0  0  0  0  0  0  0  0  0  0  0
    8.1865    1.8335   21.0189 H   0  0  0  0  0  0  0  0  0  0  0  0
    6.8718    0.5775   22.6642 H   0  0  0  0  0  0  0  0  0  0  0  0
    8.2807   -0.4348   22.9419 H   0  0  0  0  0  0  0  0  0  0  0  0
    6.5630   -0.1028   19.9596 C   0  0  0  0  0  0  0  0  0  0  0  0
    5.3513    0.5787   20.1649 C   0  0  0  0  0  0  0  0  0  0  0  0
    4.7884    1.2823   19.0958 C   0  0  0  0  0  0  0  0  0  0  0  0
    5.4481    1.2727   17.8601 C   0  0  0  0  0  0  0  0  0  0  0  0
    6.5859    0.5971   17.6329 N   0  0  0  0  0  0  0  0  0  0  0  0
    7.1127   -0.0646   18.6686 C   0  0  0  0  0  0  0  0  0  0  0  0
    8.0353   -0.6139   18.4611 H   0  0  0  0  0  0  0  0  0  0  0  0
    5.0381    1.8149   17.0109 H   0  0  0  0  0  0  0  0  0  0  0  0
    3.8633    1.8408   19.2033 H   0  0  0  0  0  0  0  0  0  0  0  0
    4.8537    0.5605   21.1401 H   0  0  0  0  0  0  0  0  0  0  0  0
    8.2633   -1.1876   20.6266 H   0  0  0  0  0  0  0  0  0  0  0  0
    5.6636   -2.0466   21.2759 H   0  0  0  0  0  0  0  0  0  0  0  0
    5.4877   -3.4410   22.9794 H   0  0  0  0  0  0  0  0  0  0  0  0
    7.4593   -4.6006   24.2126 H   0  0  0  0  0  0  0  0  0  0  0  0
    5.6783   -5.7241   25.5632 C   0  0  0  0  0  0  0  0  0  0  0  0
    6.4610   -5.1821   26.0912 H   0  0  0  0  0  0  0  0  0  0  0  0
    2.9040   -7.6627   23.7169 H   0  0  0  0  0  0  0  0  0  0  0  0
    2.9860   -7.6828   26.2011 H   0  0  0  0  0  0  0  0  0  0  0  0
    5.2234   -5.5138   28.2295 H   0  0  0  0  0  0  0  0  0  0  0  0
    3.7756   -6.5358   28.2610 H   0  0  0  0  0  0  0  0  0  0  0  0
    5.3794   -7.2796   28.1942 H   0  0  0  0  0  0  0  0  0  0  0  0
  1  2  1  0
  2  3  2  0
  3  4  1  0
  4  5  2  0
  5  6  1  0
  6  7  1  0
  6  8  1  0
  6  9  1  0
  5 10  1  0
 10 11  1  0
 11 12  1  0
 12 13  1  0
 12 14  1  0
 12 15  1  0
 11 16  1  0
 16 17  1  0
 17 18  2  0
 17 19  1  0
 19 20  1  0
 20 21  1  0
 21 22  1  0
 22 23  1  0
 23 24  1  0
 24 25  1  0
 25 26  1  0
 26 27  1  0
 26 28  1  0
 25 29  1  0
 25 30  1  0
 24 31  1  0
 24 32  1  0
 23 33  1  0
 23 34  1  0
 22 35  1  0
 21 36  1  0
 21 37  1  0
 20 38  1  0
 38 39  2  0
 39 40  1  0
 40 41  2  0
 41 42  1  0
 42 43  2  0
 43 44  1  0
 41 45  1  0
 40 46  1  0
 39 47  1  0
 20 48  1  0
 19 49  1  0
 16 50  1  0
 11 51  1  0
 10 52  2  0
 52 53  1  0
  4 54  1  0
  3 55  1  0
  1 56  1  0
  1 57  1  0
  1 58  1  0
 52  2  1  0
 26 22  1  0
 43 38  1  0
M  CHG  1  22   1
M  END
>  <cnnaffinity>  (1) 
5.03057

>  <plip>  (1) 
-0.16666666666666666

>  <filename>  (1) 
[H][c]1[n][c]([H])[c]([C]([H])([N]([H])[C](=[O])[N]([H])[C]([H])([c]2[c]([H])[c]([C]([H])([H])[H])[c]([H])[c]([H])[c]2[C]([H])([H])[H])[C]([H])([H])[H])[C]([H])([H])[N+]2([H])[C]([H])([H])[C]([H])([H])[C]([H])([H])[C]2([H])[H])[c]([H])[c]1[H]

>  <combo1>  (1) 
-0.7604440369047185

$$$$
