
     RDKit          3D

 41 42  0  0  0  0  0  0  0  0999 V2000
    5.0094    5.9134   22.2977 O   0  0  0  0  0  0  0  0  0  0  0  0
    5.6130    5.0267   22.8750 C   0  0  0  0  0  0  0  0  0  0  0  0
    5.4165    3.5526   22.5528 C   0  0  0  0  0  0  0  0  0  0  0  0
    5.4039    2.5554   23.7345 C   0  0  0  0  0  0  0  0  0  0  0  0
    6.7540    2.2046   24.3924 C   0  0  0  0  0  0  0  0  0  0  0  0
    7.3849    1.0196   23.7599 N   0  0  0  0  0  4  0  0  0  0  0  0
    7.0289   -0.3037   24.3008 C   0  0  0  0  0  0  0  0  0  0  0  0
    7.6585   -1.3168   23.3447 C   0  0  0  0  0  0  0  0  0  0  0  0
    6.9673   -1.1978   22.0065 C   0  0  0  0  0  0  0  0  0  0  0  0
    5.9633   -1.8261   21.7526 O   0  0  0  0  0  0  0  0  0  0  0  0
    7.4917   -0.2556   21.1308 N   0  0  0  0  0  0  0  0  0  0  0  0
    6.7649    0.2282   20.0043 C   0  0  0  0  0  0  0  0  0  0  0  0
    5.4932    0.7836   20.1954 C   0  0  0  0  0  0  0  0  0  0  0  0
    4.8319    1.3481   19.0988 C   0  0  0  0  0  0  0  0  0  0  0  0
    5.4468    1.2908   17.8429 C   0  0  0  0  0  0  0  0  0  0  0  0
    6.6385    0.7084   17.6347 N   0  0  0  0  0  0  0  0  0  0  0  0
    7.2807    0.1943   18.6915 C   0  0  0  0  0  0  0  0  0  0  0  0
    8.2298   -0.3097   18.5000 H   0  0  0  0  0  0  0  0  0  0  0  0
    4.9630    1.7194   16.9685 H   0  0  0  0  0  0  0  0  0  0  0  0
    3.8627    1.8280   19.1982 H   0  0  0  0  0  0  0  0  0  0  0  0
    5.0399    0.7504   21.1876 H   0  0  0  0  0  0  0  0  0  0  0  0
    8.4969   -0.1446   21.1109 H   0  0  0  0  0  0  0  0  0  0  0  0
    8.7282   -1.1132   23.2474 H   0  0  0  0  0  0  0  0  0  0  0  0
    7.5238   -2.3433   23.6928 H   0  0  0  0  0  0  0  0  0  0  0  0
    5.9365   -0.4418   24.3593 H   0  0  0  0  0  0  0  0  0  0  0  0
    7.3994   -0.4274   25.3308 H   0  0  0  0  0  0  0  0  0  0  0  0
    7.1640    1.0551   22.7357 H   0  0  0  0  0  0  0  0  0  0  0  0
    8.4243    1.1223   23.8260 H   0  0  0  0  0  0  0  0  0  0  0  0
    7.7696    3.3518   24.4049 C   0  0  0  0  0  0  0  0  0  0  0  0
    7.2047    4.6869   24.8748 C   0  0  0  0  0  0  0  0  0  0  0  0
    6.4976    5.4151   23.8344 N   0  0  0  0  0  0  0  0  0  0  0  0
    6.3727    6.4141   23.9091 H   0  0  0  0  0  0  0  0  0  0  0  0
    6.5588    4.5310   25.7567 H   0  0  0  0  0  0  0  0  0  0  0  0
    8.0289    5.3331   25.1950 H   0  0  0  0  0  0  0  0  0  0  0  0
    8.5714    3.0580   25.0913 H   0  0  0  0  0  0  0  0  0  0  0  0
    8.2251    3.4785   23.4179 H   0  0  0  0  0  0  0  0  0  0  0  0
    6.5490    1.9538   25.4423 H   0  0  0  0  0  0  0  0  0  0  0  0
    4.9438    1.6146   23.4018 H   0  0  0  0  0  0  0  0  0  0  0  0
    4.7465    2.9489   24.5161 H   0  0  0  0  0  0  0  0  0  0  0  0
    6.1903    3.2821   21.8218 H   0  0  0  0  0  0  0  0  0  0  0  0
    4.4587    3.5210   22.0281 H   0  0  0  0  0  0  0  0  0  0  0  0
  1  2  2  0
  2  3  1  0
  3  4  1  0
  4  5  1  0
  5  6  1  0
  6  7  1  0
  7  8  1  0
  8  9  1  0
  9 10  2  0
  9 11  1  0
 11 12  1  0
 12 13  2  0
 13 14  1  0
 14 15  2  0
 15 16  1  0
 16 17  2  0
 17 18  1  0
 15 19  1  0
 14 20  1  0
 13 21  1  0
 11 22  1  0
  8 23  1  0
  8 24  1  0
  7 25  1  0
  7 26  1  0
  6 27  1  0
  6 28  1  0
  5 29  1  0
 29 30  1  0
 30 31  1  0
 31 32  1  0
 30 33  1  0
 30 34  1  0
 29 35  1  0
 29 36  1  0
  5 37  1  0
  4 38  1  0
  4 39  1  0
  3 40  1  0
  3 41  1  0
 31  2  1  0
 17 12  1  0
M  CHG  1   6   1
M  END
>  <cnnaffinity>  (1) 
4.46999

>  <plip>  (1) 
-0.07142857142857142

>  <filename>  (1) 
[H][c]1[n][c]([H])[c]([N]([H])[C](=[O])[C]([H])([H])[C]([H])([H])[N+]([H])([H])[C]2([H])[C]([H])([H])[C]([H])([H])[C](=[O])[N]([H])[C]([H])([H])[C]2([H])[H])[c]([H])[c]1[H]

>  <combo1>  (1) 
-0.38373571589964

$$$$
