
     RDKit          3D

 29 31  0  0  0  0  0  0  0  0999 V2000
    5.0161    2.0061   16.7956 H   0  0  0  0  0  0  0  0  0  0  0  0
    5.4429    1.4043   17.5994 C   0  0  0  0  0  0  0  0  0  0  0  0
    6.5306    0.6815   17.2843 N   0  0  0  0  0  0  0  0  0  0  0  0
    7.0876   -0.0708   18.2402 C   0  0  0  0  0  0  0  0  0  0  0  0
    7.9674   -0.6532   17.9723 H   0  0  0  0  0  0  0  0  0  0  0  0
    6.5813   -0.1550   19.5442 C   0  0  0  0  0  0  0  0  0  0  0  0
    7.2837   -0.9386   20.4389 O   0  0  0  0  0  0  0  0  0  0  0  0
    6.5913   -1.8173   21.2298 C   0  0  0  0  0  0  0  0  0  0  0  0
    5.5573   -2.7182   20.8978 C   0  0  0  0  0  0  0  0  0  0  0  0
    5.1007   -2.9184   19.9348 H   0  0  0  0  0  0  0  0  0  0  0  0
    5.1357   -3.3556   21.9864 N   0  0  0  0  0  0  0  0  0  0  0  0
    5.9139   -2.9074   22.9806 N   0  0  0  0  0  0  0  0  0  0  0  0
    5.7286   -3.2123   23.9292 H   0  0  0  0  0  0  0  0  0  0  0  0
    6.8559   -2.0015   22.5781 C   0  0  0  0  0  0  0  0  0  0  0  0
    8.0131   -1.5014   23.3583 C   0  0  0  0  0  0  0  0  0  0  0  0
    8.2783   -0.1175   23.3947 C   0  0  0  0  0  0  0  0  0  0  0  0
    7.5178    0.5690   23.0264 H   0  0  0  0  0  0  0  0  0  0  0  0
    9.4945    0.3937   23.8559 C   0  0  0  0  0  0  0  0  0  0  0  0
    9.7179    1.4581   23.8343 H   0  0  0  0  0  0  0  0  0  0  0  0
   10.4608   -0.4952   24.3363 C   0  0  0  0  0  0  0  0  0  0  0  0
   11.9886    0.1453   24.8689 Cl  0  0  0  0  0  0  0  0  0  0  0  0
   10.2092   -1.8672   24.4030 C   0  0  0  0  0  0  0  0  0  0  0  0
   10.9282   -2.5798   24.7985 H   0  0  0  0  0  0  0  0  0  0  0  0
    8.9871   -2.3555   23.9308 C   0  0  0  0  0  0  0  0  0  0  0  0
    8.7294   -4.0711   24.0833 Cl  0  0  0  0  0  0  0  0  0  0  0  0
    5.4458    0.5931   19.8783 C   0  0  0  0  0  0  0  0  0  0  0  0
    5.0283    0.5500   20.8862 H   0  0  0  0  0  0  0  0  0  0  0  0
    4.8714    1.3865   18.8755 C   0  0  0  0  0  0  0  0  0  0  0  0
    3.9985    1.9957   19.0722 H   0  0  0  0  0  0  0  0  0  0  0  0
  1  2  1  0
  2  3  2  0
  3  4  1  0
  4  5  1  0
  4  6  2  0
  6  7  1  0
  7  8  1  0
  8  9  1  0
  9 10  1  0
  9 11  2  0
 11 12  1  0
 12 13  1  0
 12 14  1  0
 14 15  1  0
 15 16  2  0
 16 17  1  0
 16 18  1  0
 18 19  1  0
 18 20  2  0
 20 21  1  0
 20 22  1  0
 22 23  1  0
 22 24  2  0
 24 25  1  0
  6 26  1  0
 26 27  1  0
 26 28  2  0
 28 29  1  0
 28  2  1  0
 14  8  2  0
 24 15  1  0
M  END
>  <cnnaffinity>  (1) 
5.58966

>  <plip>  (1) 
-0.10714285714285714

>  <filename>  (1) 
[H][c]1[n][c]([H])[c]([O][c]2[c]([H])[n][n]([H])[c]2-[c]2[c]([H])[c]([H])[c]([Cl])[c]([H])[c]2[Cl])[c]([H])[c]1[H]

>  <combo1>  (1) 
-0.6520640540833125

$$$$
