
     RDKit          3D

 34 37  0  0  0  0  0  0  0  0999 V2000
    7.3555    0.5146   24.9273 C   0  0  0  0  0  0  0  0  0  0  0  0
    7.6517   -0.9222   25.2276 C   0  0  0  0  0  0  0  0  0  0  0  0
    7.6861   -1.2291   26.5500 N   0  0  0  0  0  0  0  0  0  0  0  0
    7.9671   -2.4652   26.9054 C   0  0  0  0  0  0  0  0  0  0  0  0
    8.2276   -3.5338   26.0114 C   0  0  0  0  0  0  0  0  0  0  0  0
    8.5118   -4.8637   26.4588 C   0  0  0  0  0  0  0  0  0  0  0  0
    8.7257   -5.8597   25.5383 C   0  0  0  0  0  0  0  0  0  0  0  0
    8.6564   -5.5776   24.1446 C   0  0  0  0  0  0  0  0  0  0  0  0
    8.3848   -4.3031   23.6946 C   0  0  0  0  0  0  0  0  0  0  0  0
    8.1838   -3.2383   24.6188 C   0  0  0  0  0  0  0  0  0  0  0  0
    7.9081   -1.8792   24.2454 C   0  0  0  0  0  0  0  0  0  0  0  0
    7.8437   -1.4701   22.8462 C   0  0  0  0  0  0  0  0  0  0  0  0
    6.9273   -0.7666   22.2417 N   0  0  0  0  0  0  0  0  0  0  0  0
    7.3951   -0.7056   20.9535 C   0  0  0  0  0  0  0  0  0  0  0  0
    6.6573    0.0078   19.9065 C   0  0  0  0  0  0  0  0  0  0  0  0
    5.4390    0.6508   20.1682 C   0  0  0  0  0  0  0  0  0  0  0  0
    4.8089    1.3066   19.1138 C   0  0  0  0  0  0  0  0  0  0  0  0
    5.4080    1.2869   17.8469 C   0  0  0  0  0  0  0  0  0  0  0  0
    6.5714    0.6714   17.5903 N   0  0  0  0  0  0  0  0  0  0  0  0
    7.1794    0.0564   18.6074 C   0  0  0  0  0  0  0  0  0  0  0  0
    8.1249   -0.4290   18.3740 H   0  0  0  0  0  0  0  0  0  0  0  0
    4.9210    1.7736   17.0035 H   0  0  0  0  0  0  0  0  0  0  0  0
    3.8751    1.8425   19.2617 H   0  0  0  0  0  0  0  0  0  0  0  0
    5.0025    0.6322   21.1720 H   0  0  0  0  0  0  0  0  0  0  0  0
    8.5400   -1.3093   20.7620 N   0  0  0  0  0  0  0  0  0  0  0  0
    8.8332   -1.8282   22.0151 O   0  0  0  0  0  0  0  0  0  0  0  0
    8.3207   -4.0887   22.6338 H   0  0  0  0  0  0  0  0  0  0  0  0
    8.8171   -6.3733   23.4254 H   0  0  0  0  0  0  0  0  0  0  0  0
    8.9452   -6.8739   25.8651 H   0  0  0  0  0  0  0  0  0  0  0  0
    8.5509   -5.0842   27.5291 H   0  0  0  0  0  0  0  0  0  0  0  0
    8.0107   -2.6941   27.9619 H   0  0  0  0  0  0  0  0  0  0  0  0
    6.3743    0.6026   24.4597 H   0  0  0  0  0  0  0  0  0  0  0  0
    7.3861    1.1153   25.8362 H   0  0  0  0  0  0  0  0  0  0  0  0
    8.0677    0.9104   24.2037 H   0  0  0  0  0  0  0  0  0  0  0  0
  1  2  1  0
  2  3  2  0
  3  4  1  0
  4  5  2  0
  5  6  1  0
  6  7  2  0
  7  8  1  0
  8  9  2  0
  9 10  1  0
 10 11  2  0
 11 12  1  0
 12 13  2  0
 13 14  1  0
 14 15  1  0
 15 16  2  0
 16 17  1  0
 17 18  2  0
 18 19  1  0
 19 20  2  0
 20 21  1  0
 18 22  1  0
 17 23  1  0
 16 24  1  0
 14 25  2  0
 25 26  1  0
  9 27  1  0
  8 28  1  0
  7 29  1  0
  6 30  1  0
  4 31  1  0
  1 32  1  0
  1 33  1  0
  1 34  1  0
 11  2  1  0
 26 12  1  0
 10  5  1  0
 20 15  1  0
M  END
>  <cnnaffinity>  (1) 
5.57403

>  <plip>  (1) 
-0.07142857142857142

>  <filename>  (1) 
[H][c]1[n][c]([H])[c](-[c]2[n][o][c](-[c]3[c]([C]([H])([H])[H])[n][c]([H])[c]4[c]([H])[c]([H])[c]([H])[c]([H])[c]34)[n]2)[c]([H])[c]1[H]

>  <combo1>  (1) 
-0.46032048836322037

$$$$
