
     RDKit          3D

 30 32  0  0  0  0  0  0  0  0999 V2000
    5.5559    1.3673   16.6521 H   0  0  0  0  0  0  0  0  0  0  0  0
    5.8576    1.0504   17.6497 C   0  0  0  0  0  0  0  0  0  0  0  0
    7.0254    0.3974   17.7268 N   0  0  0  0  0  0  0  0  0  0  0  0
    7.4323    0.0107   18.9405 C   0  0  0  0  0  0  0  0  0  0  0  0
    8.3844   -0.5141   19.0018 H   0  0  0  0  0  0  0  0  0  0  0  0
    6.7023    0.2572   20.1192 C   0  0  0  0  0  0  0  0  0  0  0  0
    7.2994   -0.1979   21.3800 C   0  0  0  0  0  0  0  0  0  0  0  0
    8.3800   -0.9114   21.3897 N   0  0  0  0  0  0  0  0  0  0  0  0
    8.6773   -1.2149   22.6665 N   0  0  0  0  0  0  0  0  0  0  0  0
    9.6069   -2.0610   23.2227 C   0  0  0  0  0  0  0  0  0  0  0  0
   10.8466   -2.3982   22.4825 C   0  0  0  0  0  0  0  0  0  0  0  0
   11.2583   -3.3388   22.8706 H   0  0  0  0  0  0  0  0  0  0  0  0
   10.6072   -2.5233   21.4136 H   0  0  0  0  0  0  0  0  0  0  0  0
   11.7961   -1.3705   22.7173 O   0  0  0  0  0  0  0  0  0  0  0  0
   12.4331   -0.7801   21.6104 C   0  0  0  0  0  0  0  0  0  0  0  0
   11.6888   -0.3928   20.8900 H   0  0  0  0  0  0  0  0  0  0  0  0
   12.9530    0.0911   22.0255 H   0  0  0  0  0  0  0  0  0  0  0  0
   13.4079   -1.7316   20.9268 C   0  0  0  0  0  0  0  0  0  0  0  0
   14.0925   -1.2002   20.2581 H   0  0  0  0  0  0  0  0  0  0  0  0
   12.8735   -2.4569   20.3075 H   0  0  0  0  0  0  0  0  0  0  0  0
   14.0005   -2.2680   21.6796 H   0  0  0  0  0  0  0  0  0  0  0  0
    9.2461   -2.1206   24.5396 C   0  0  0  0  0  0  0  0  0  0  0  0
    9.7056   -2.7048   25.3302 H   0  0  0  0  0  0  0  0  0  0  0  0
    8.1462   -1.3421   24.8220 N   0  0  0  0  0  0  0  0  0  0  0  0
    7.8475   -0.8098   23.6629 C   0  0  0  0  0  0  0  0  0  0  0  0
    6.6006    0.1773   22.9637 S   0  0  0  0  0  0  0  0  0  0  0  0
    5.4647    0.9152   20.0239 C   0  0  0  0  0  0  0  0  0  0  0  0
    4.8465    1.1188   20.9030 H   0  0  0  0  0  0  0  0  0  0  0  0
    5.0425    1.3168   18.7554 C   0  0  0  0  0  0  0  0  0  0  0  0
    4.1037    1.8408   18.6128 H   0  0  0  0  0  0  0  0  0  0  0  0
  1  2  1  0
  2  3  2  0
  3  4  1  0
  4  5  1  0
  4  6  2  0
  6  7  1  0
  7  8  2  0
  8  9  1  0
  9 10  1  0
 10 11  1  0
 11 12  1  0
 11 13  1  0
 11 14  1  0
 14 15  1  0
 15 16  1  0
 15 17  1  0
 15 18  1  0
 18 19  1  0
 18 20  1  0
 18 21  1  0
 10 22  2  0
 22 23  1  0
 22 24  1  0
 24 25  2  0
 25 26  1  0
  6 27  1  0
 27 28  1  0
 27 29  2  0
 29 30  1  0
 29  2  1  0
 26  7  1  0
 25  9  1  0
M  END
>  <cnnaffinity>  (1) 
5.16719

>  <plip>  (1) 
-0.06896551724137931

>  <filename>  (1) 
[H][c]1[n][c]([H])[c](-[c]2[n][n]3[c]([C]([H])([H])[O][C]([H])([H])[C]([H])([H])[H])[c]([H])[n][c]3[s]2)[c]([H])[c]1[H]

>  <combo1>  (1) 
-0.45630402736416525

$$$$
