
     RDKit          3D

 35 37  0  0  0  0  0  0  0  0999 V2000
    5.8523   -1.1118   24.1220 H   0  0  0  0  0  0  0  0  0  0  0  0
    6.3988   -0.6174   23.3149 C   0  0  0  0  0  0  0  0  0  0  0  0
    6.7892    0.6553   23.4804 C   0  0  0  0  0  0  0  0  0  0  0  0
    6.2814    1.4369   24.6376 C   0  0  0  0  0  0  0  0  0  0  0  0
    7.1932    1.9590   25.5662 C   0  0  0  0  0  0  0  0  0  0  0  0
    8.2594    1.7935   25.4426 H   0  0  0  0  0  0  0  0  0  0  0  0
    6.7111    2.6562   26.6714 C   0  0  0  0  0  0  0  0  0  0  0  0
    7.8140    3.3455   27.7952 Cl  0  0  0  0  0  0  0  0  0  0  0  0
    5.3525    2.8574   26.8959 C   0  0  0  0  0  0  0  0  0  0  0  0
    5.0218    3.4254   27.7603 H   0  0  0  0  0  0  0  0  0  0  0  0
    4.4545    2.3117   25.9825 C   0  0  0  0  0  0  0  0  0  0  0  0
    2.7563    2.5509   26.2454 Cl  0  0  0  0  0  0  0  0  0  0  0  0
    4.9016    1.5905   24.8742 C   0  0  0  0  0  0  0  0  0  0  0  0
    4.1813    1.1595   24.1929 H   0  0  0  0  0  0  0  0  0  0  0  0
    7.7798    1.3179   22.5336 C   0  0  0  0  0  0  0  0  0  0  0  0
    8.5141    1.8952   23.1133 H   0  0  0  0  0  0  0  0  0  0  0  0
    7.2518    2.0633   21.9144 H   0  0  0  0  0  0  0  0  0  0  0  0
    8.4860    0.2701   21.6485 C   0  0  0  0  0  0  0  0  0  0  0  0
    9.1810   -0.3208   22.2629 H   0  0  0  0  0  0  0  0  0  0  0  0
    9.0840    0.7676   20.8792 H   0  0  0  0  0  0  0  0  0  0  0  0
    7.4868   -0.7074   20.9805 C   0  0  2  0  0  0  0  0  0  0  0  0
    8.0656   -1.4813   20.4544 H   0  0  0  0  0  0  0  0  0  0  0  0
    6.6562   -0.0096   19.8997 C   0  0  0  0  0  0  0  0  0  0  0  0
    7.1564    0.0619   18.5825 C   0  0  0  0  0  0  0  0  0  0  0  0
    8.1059   -0.4166   18.3411 H   0  0  0  0  0  0  0  0  0  0  0  0
    6.5551    0.6839   17.5601 N   0  0  0  0  0  0  0  0  0  0  0  0
    5.3940    1.2998   17.8269 C   0  0  0  0  0  0  0  0  0  0  0  0
    4.9194    1.7992   16.9840 H   0  0  0  0  0  0  0  0  0  0  0  0
    4.8063    1.3091   19.0960 C   0  0  0  0  0  0  0  0  0  0  0  0
    3.8764    1.8402   19.2459 H   0  0  0  0  0  0  0  0  0  0  0  0
    5.4431    0.6425   20.1494 C   0  0  0  0  0  0  0  0  0  0  0  0
    5.0203    0.6347   21.1573 H   0  0  0  0  0  0  0  0  0  0  0  0
    6.6559   -1.4325   22.0737 C   0  0  0  0  0  0  0  0  0  0  0  0
    7.1694   -2.3415   22.4099 H   0  0  0  0  0  0  0  0  0  0  0  0
    5.7198   -1.8053   21.6355 H   0  0  0  0  0  0  0  0  0  0  0  0
  1  2  1  0
  2  3  2  0
  3  4  1  0
  4  5  2  0
  5  6  1  0
  5  7  1  0
  7  8  1  0
  7  9  2  0
  9 10  1  0
  9 11  1  0
 11 12  1  0
 11 13  2  0
 13 14  1  0
  3 15  1  0
 15 16  1  0
 15 17  1  0
 15 18  1  0
 18 19  1  0
 18 20  1  0
 18 21  1  0
 21 22  1  6
 21 23  1  0
 23 24  2  0
 24 25  1  0
 24 26  1  0
 26 27  2  0
 27 28  1  0
 27 29  1  0
 29 30  1  0
 29 31  2  0
 31 32  1  0
 21 33  1  0
 33 34  1  0
 33 35  1  0
 33  2  1  0
 13  4  1  0
 31 23  1  0
M  END
>  <cnnaffinity>  (1) 
4.98485

>  <plip>  (1) 
-0.034482758620689655

>  <filename>  (1) 
[H][C]1=[C]([c]2[c]([H])[c]([Cl])[c]([H])[c]([Cl])[c]2[H])[C]([H])([H])[C]([H])([H])[C@]([H])([c]2[c]([H])[n][c]([H])[c]([H])[c]2[H])[C]1([H])[H]

>  <combo1>  (1) 
-0.18834109012156203

$$$$
