
     RDKit          3D

 44 46  0  0  0  0  0  0  0  0999 V2000
    4.4647   -8.0893   23.6608 N   0  0  0  0  0  4  0  0  0  0  0  0
    4.1076   -6.6280   23.6377 C   0  0  0  0  0  0  0  0  0  0  0  0
    5.3327   -5.7297   23.8282 C   0  0  1  0  0  0  0  0  0  0  0  0
    6.3506   -5.8228   22.6722 C   0  0  0  0  0  0  0  0  0  0  0  0
    7.5240   -4.8523   22.8563 C   0  0  0  0  0  0  0  0  0  0  0  0
    7.0503   -3.4022   23.0502 C   0  0  2  0  0  0  0  0  0  0  0  0
    8.2471   -2.4628   23.2353 C   0  0  0  0  0  0  0  0  0  0  0  0
    7.8891   -1.0498   23.2560 N   0  0  0  0  0  0  0  0  0  0  0  0
    7.7527   -0.2423   24.3603 C   0  0  0  0  0  0  0  0  0  0  0  0
    7.2803    0.9262   24.0472 N   0  0  0  0  0  0  0  0  0  0  0  0
    7.0549    0.9182   22.6869 N   0  0  0  0  0  0  0  0  0  0  0  0
    7.4066   -0.2578   22.2425 C   0  0  0  0  0  0  0  0  0  0  0  0
    7.3104   -0.7115   20.9514 N   0  0  0  0  0  0  0  0  0  0  0  0
    6.6588   -0.0059   19.9022 C   0  0  0  0  0  0  0  0  0  0  0  0
    5.4411    0.6437   20.1560 C   0  0  0  0  0  0  0  0  0  0  0  0
    4.8102    1.3005   19.0962 C   0  0  0  0  0  0  0  0  0  0  0  0
    5.3996    1.2949   17.8273 C   0  0  0  0  0  0  0  0  0  0  0  0
    6.5638    0.6785   17.5687 N   0  0  0  0  0  0  0  0  0  0  0  0
    7.1711    0.0507   18.5854 C   0  0  0  0  0  0  0  0  0  0  0  0
    8.1232   -0.4260   18.3573 H   0  0  0  0  0  0  0  0  0  0  0  0
    4.9175    1.7909   16.9886 H   0  0  0  0  0  0  0  0  0  0  0  0
    3.8854    1.8361   19.2564 H   0  0  0  0  0  0  0  0  0  0  0  0
    5.0528    0.6321   21.1768 H   0  0  0  0  0  0  0  0  0  0  0  0
    7.9303   -1.4752   20.7443 H   0  0  0  0  0  0  0  0  0  0  0  0
    7.9989   -0.5558   25.3632 H   0  0  0  0  0  0  0  0  0  0  0  0
    8.9930   -2.6225   22.4481 H   0  0  0  0  0  0  0  0  0  0  0  0
    8.7521   -2.6927   24.1803 H   0  0  0  0  0  0  0  0  0  0  0  0
    6.0448   -3.3089   24.2132 C   0  0  0  0  0  0  0  0  0  0  0  0
    4.8706   -4.2742   24.0274 C   0  0  0  0  0  0  0  0  0  0  0  0
    4.2831   -3.9578   23.1516 H   0  0  0  0  0  0  0  0  0  0  0  0
    4.1925   -4.2041   24.8895 H   0  0  0  0  0  0  0  0  0  0  0  0
    6.5635   -3.5432   25.1554 H   0  0  0  0  0  0  0  0  0  0  0  0
    5.6779   -2.2808   24.3184 H   0  0  0  0  0  0  0  0  0  0  0  0
    6.5249   -3.0935   22.1346 H   0  0  0  0  0  0  0  0  0  0  0  0
    8.1132   -5.1581   23.7357 H   0  0  0  0  0  0  0  0  0  0  0  0
    8.2040   -4.9182   21.9962 H   0  0  0  0  0  0  0  0  0  0  0  0
    6.7413   -6.8425   22.5690 H   0  0  0  0  0  0  0  0  0  0  0  0
    5.8297   -5.5986   21.7297 H   0  0  0  0  0  0  0  0  0  0  0  0
    5.8434   -6.0416   24.7513 H   0  0  0  0  0  0  0  0  0  0  0  0
    3.3729   -6.4217   24.4201 H   0  0  0  0  0  0  0  0  0  0  0  0
    3.6383   -6.3754   22.6822 H   0  0  0  0  0  0  0  0  0  0  0  0
    5.0736   -8.2821   24.4800 H   0  0  0  0  0  0  0  0  0  0  0  0
    3.6170   -8.6748   23.6663 H   0  0  0  0  0  0  0  0  0  0  0  0
    4.9896   -8.3214   22.7945 H   0  0  0  0  0  0  0  0  0  0  0  0
  1  2  1  0
  2  3  1  0
  3  4  1  0
  4  5  1  0
  5  6  1  0
  6  7  1  0
  7  8  1  0
  8  9  1  0
  9 10  2  0
 10 11  1  0
 11 12  2  0
 12 13  1  0
 13 14  1  0
 14 15  2  0
 15 16  1  0
 16 17  2  0
 17 18  1  0
 18 19  2  0
 19 20  1  0
 17 21  1  0
 16 22  1  0
 15 23  1  0
 13 24  1  0
  9 25  1  0
  7 26  1  0
  7 27  1  0
  6 28  1  0
 28 29  1  0
 29 30  1  0
 29 31  1  0
 28 32  1  0
 28 33  1  0
  6 34  1  6
  5 35  1  0
  5 36  1  0
  4 37  1  0
  4 38  1  0
  3 39  1  1
  2 40  1  0
  2 41  1  0
  1 42  1  0
  1 43  1  0
  1 44  1  0
 29  3  1  0
 12  8  1  0
 19 14  1  0
M  CHG  1   1   1
M  END
>  <cnnaffinity>  (1) 
5.49959

>  <plip>  (1) 
-0.03333333333333333

>  <filename>  (1) 
[H][c]1[n][c]([H])[c]([N]([H])[c]2[n][n][c]([H])[n]2[C]([H])([H])[C@]2([H])[C]([H])([H])[C]([H])([H])[C@@]([H])([C]([H])([H])[N+]([H])([H])[H])[C]([H])([H])[C]2([H])[H])[c]([H])[c]1[H]

>  <combo1>  (1) 
-0.21262515372978139

$$$$
