
     RDKit          3D

 30 32  0  0  0  0  0  0  0  0999 V2000
    6.5843   -2.7438   20.8819 C   0  0  0  0  0  0  0  0  0  0  0  0
    7.5239   -1.6467   21.0257 N   0  0  0  0  0  0  0  0  0  0  0  0
    8.8694   -1.8390   21.0842 C   0  0  0  0  0  0  0  0  0  0  0  0
    9.4071   -2.9086   20.9142 O   0  0  0  0  0  0  0  0  0  0  0  0
    9.5066   -0.6270   21.3756 N   0  0  0  0  0  0  0  0  0  0  0  0
   10.8978   -0.5121   21.6836 C   0  0  0  0  0  0  0  0  0  0  0  0
   11.6296    0.6502   21.7069 C   0  0  0  0  0  0  0  0  0  0  0  0
   11.2098    2.1972   21.1146 Cl  0  0  0  0  0  0  0  0  0  0  0  0
   13.2609    0.3943   22.2431 S   0  0  0  0  0  0  0  0  0  0  0  0
   13.0166   -1.3098   22.2338 C   0  0  0  0  0  0  0  0  0  0  0  0
   11.7286   -1.6486   21.9758 C   0  0  0  0  0  0  0  0  0  0  0  0
   11.3297   -2.6507   21.9667 H   0  0  0  0  0  0  0  0  0  0  0  0
   13.8745   -1.9527   22.3731 H   0  0  0  0  0  0  0  0  0  0  0  0
    8.5194    0.3189   21.6700 C   0  0  0  0  0  0  0  0  0  0  0  0
    8.6747    1.3193   22.3125 O   0  0  0  0  0  0  0  0  0  0  0  0
    7.1599   -0.2600   21.1887 C   0  0  0  0  0  0  0  0  0  0  0  0
    6.4839    0.3143   19.9302 C   0  0  0  0  0  0  0  0  0  0  0  0
    5.2703    1.0068   20.0405 C   0  0  0  0  0  0  0  0  0  0  0  0
    4.6776    1.5388   18.8919 C   0  0  0  0  0  0  0  0  0  0  0  0
    5.3247    1.3698   17.6659 C   0  0  0  0  0  0  0  0  0  0  0  0
    6.4667    0.6815   17.5243 N   0  0  0  0  0  0  0  0  0  0  0  0
    7.0135    0.1582   18.6316 C   0  0  0  0  0  0  0  0  0  0  0  0
    7.9287   -0.4032   18.4663 H   0  0  0  0  0  0  0  0  0  0  0  0
    4.9017    1.7999   16.7596 H   0  0  0  0  0  0  0  0  0  0  0  0
    3.7364    2.0775   18.9357 H   0  0  0  0  0  0  0  0  0  0  0  0
    4.7890    1.1260   21.0129 H   0  0  0  0  0  0  0  0  0  0  0  0
    6.4666   -0.1166   22.0425 H   0  0  0  0  0  0  0  0  0  0  0  0
    5.7142   -2.5681   21.5217 H   0  0  0  0  0  0  0  0  0  0  0  0
    6.2606   -2.8582   19.8413 H   0  0  0  0  0  0  0  0  0  0  0  0
    7.0659   -3.6769   21.1926 H   0  0  0  0  0  0  0  0  0  0  0  0
  1  2  1  0
  2  3  1  0
  3  4  2  0
  3  5  1  0
  5  6  1  0
  6  7  2  0
  7  8  1  0
  7  9  1  0
  9 10  1  0
 10 11  2  0
 11 12  1  0
 10 13  1  0
  5 14  1  0
 14 15  2  0
 14 16  1  0
 16 17  1  0
 17 18  2  0
 18 19  1  0
 19 20  2  0
 20 21  1  0
 21 22  2  0
 22 23  1  0
 20 24  1  0
 19 25  1  0
 18 26  1  0
 16 27  1  0
  1 28  1  0
  1 29  1  0
  1 30  1  0
 16  2  1  0
 22 17  1  0
 11  6  1  0
M  END
>  <cnnaffinity>  (1) 
5.55204

>  <plip>  (1) 
-0.10344827586206896

>  <filename>  (1) 
[H][c]1[n][c]([H])[c]([C]2([H])[C](=[O])[N]([c]3[c]([Cl])[s][c]([H])[c]3[H])[C](=[O])[N]2[C]([H])([H])[H])[c]([H])[c]1[H]

>  <combo1>  (1) 
-0.6220704803465466

$$$$
