
     RDKit          3D

 30 31  0  0  0  0  0  0  0  0999 V2000
    9.4375   -0.6714   22.6453 N   0  0  0  0  0  4  0  0  0  0  0  0
    8.5302    0.2108   21.6398 C   0  0  0  0  0  0  0  0  0  0  0  0
    7.4301   -0.6864   21.0192 C   0  0  0  0  0  0  0  0  0  0  0  0
    6.6455   -0.0010   19.8994 C   0  0  0  0  0  0  0  0  0  0  0  0
    5.4184    0.6488   20.1273 C   0  0  0  0  0  0  0  0  0  0  0  0
    4.7837    1.3137   19.0733 C   0  0  0  0  0  0  0  0  0  0  0  0
    5.3947    1.3047   17.8174 C   0  0  0  0  0  0  0  0  0  0  0  0
    6.5488    0.6738   17.5603 N   0  0  0  0  0  0  0  0  0  0  0  0
    7.1476    0.0465   18.5818 C   0  0  0  0  0  0  0  0  0  0  0  0
    8.0885   -0.4463   18.3314 H   0  0  0  0  0  0  0  0  0  0  0  0
    4.9373    1.8311   16.9814 H   0  0  0  0  0  0  0  0  0  0  0  0
    3.8512    1.8489   19.2121 H   0  0  0  0  0  0  0  0  0  0  0  0
    4.9741    0.6541   21.1259 H   0  0  0  0  0  0  0  0  0  0  0  0
    6.7330   -1.0264   21.8005 H   0  0  0  0  0  0  0  0  0  0  0  0
    7.9286   -1.5820   20.6314 H   0  0  0  0  0  0  0  0  0  0  0  0
    7.9112    1.5670   22.1174 C   0  0  0  0  0  0  0  0  0  0  0  0
    8.2644    2.5939   21.5712 O   0  0  0  0  0  0  0  0  0  0  0  0
    6.9380    1.5582   23.0718 N   0  0  0  0  0  0  0  0  0  0  0  0
    6.1387    2.6590   23.3308 C   0  0  0  0  0  0  0  0  0  0  0  0
    5.9292    3.8001   22.6027 C   0  0  0  0  0  0  0  0  0  0  0  0
    4.9954    4.4428   23.3580 N   0  0  0  0  0  0  0  0  0  0  0  0
    4.6642    3.7586   24.4470 N   0  0  0  0  0  0  0  0  0  0  0  0
    5.3598    2.6552   24.4321 N   0  0  0  0  0  0  0  0  0  0  0  0
    4.5224    5.3225   23.2042 H   0  0  0  0  0  0  0  0  0  0  0  0
    6.3464    4.1447   21.6741 H   0  0  0  0  0  0  0  0  0  0  0  0
    6.7442    0.7703   23.6575 H   0  0  0  0  0  0  0  0  0  0  0  0
    9.1739    0.5877   20.8425 H   0  0  0  0  0  0  0  0  0  0  0  0
   10.2239   -0.1347   23.0636 H   0  0  0  0  0  0  0  0  0  0  0  0
    9.8458   -1.4580   22.1045 H   0  0  0  0  0  0  0  0  0  0  0  0
    8.8723   -1.0645   23.4259 H   0  0  0  0  0  0  0  0  0  0  0  0
  1  2  1  0
  2  3  1  0
  3  4  1  0
  4  5  2  0
  5  6  1  0
  6  7  2  0
  7  8  1  0
  8  9  2  0
  9 10  1  0
  7 11  1  0
  6 12  1  0
  5 13  1  0
  3 14  1  0
  3 15  1  0
  2 16  1  0
 16 17  2  0
 16 18  1  0
 18 19  1  0
 19 20  2  0
 20 21  1  0
 21 22  1  0
 22 23  2  0
 21 24  1  0
 20 25  1  0
 18 26  1  0
  2 27  1  0
  1 28  1  0
  1 29  1  0
  1 30  1  0
  9  4  1  0
 23 19  1  0
M  CHG  1   1   1
M  END
>  <cnnaffinity>  (1) 
4.10806

>  <plip>  (1) 
-0.10714285714285714

>  <filename>  (1) 
[H][c]1[n][c]([H])[c]([C]([H])([H])[C]([H])([C](=[O])[N]([H])[c]2[n][n][n]([H])[c]2[H])[N+]([H])([H])[H])[c]([H])[c]1[H]

>  <combo1>  (1) 
-0.6289958567723246

$$$$
