
     RDKit          3D

 34 37  0  0  0  0  0  0  0  0999 V2000
    4.9246    1.2253   19.1107 C   0  0  0  0  0  0  0  0  0  0  0  0
    5.4933    1.2506   17.8345 C   0  0  0  0  0  0  0  0  0  0  0  0
    6.6449    0.6219   17.5431 N   0  0  0  0  0  0  0  0  0  0  0  0
    7.2613   -0.0550   18.5211 C   0  0  0  0  0  0  0  0  0  0  0  0
    6.7416   -0.1702   19.8248 C   0  0  0  0  0  0  0  0  0  0  0  0
    7.4731   -0.8746   20.7670 O   0  0  0  0  0  0  0  0  0  0  0  0
    6.8636   -1.7010   21.6645 C   0  0  0  0  0  0  0  0  0  0  0  0
    5.9382   -2.6623   21.2457 C   0  0  0  0  0  0  0  0  0  0  0  0
    5.4075   -3.4989   22.2275 C   0  0  0  0  0  0  0  0  0  0  0  0
    5.8462   -3.3694   23.5484 C   0  0  0  0  0  0  0  0  0  0  0  0
    6.8575   -2.4266   23.8220 C   0  0  0  0  0  0  0  0  0  0  0  0
    7.4932   -2.3733   25.0733 N   0  0  0  0  0  0  0  0  0  0  0  0
    7.2970   -3.2186   26.1531 C   0  0  0  0  0  0  0  0  0  0  0  0
    8.0176   -2.9438   27.1967 N   0  0  0  0  0  0  0  0  0  0  0  0
    8.7722   -1.8399   26.8231 C   0  0  0  0  0  0  0  0  0  0  0  0
    9.7387   -1.1132   27.5345 C   0  0  0  0  0  0  0  0  0  0  0  0
   10.4566   -0.1286   26.8663 C   0  0  0  0  0  0  0  0  0  0  0  0
   10.1499    0.2323   25.5357 C   0  0  0  0  0  0  0  0  0  0  0  0
    9.1416   -0.4201   24.8356 C   0  0  0  0  0  0  0  0  0  0  0  0
    8.4854   -1.4727   25.4972 C   0  0  0  0  0  0  0  0  0  0  0  0
    8.8473   -0.1339   23.8337 H   0  0  0  0  0  0  0  0  0  0  0  0
   10.7083    1.0354   25.0603 H   0  0  0  0  0  0  0  0  0  0  0  0
   11.2600    0.3718   27.3942 H   0  0  0  0  0  0  0  0  0  0  0  0
    9.9089   -1.2984   28.5853 H   0  0  0  0  0  0  0  0  0  0  0  0
    6.5996   -4.0469   26.1235 H   0  0  0  0  0  0  0  0  0  0  0  0
    7.3049   -1.5772   22.8982 N   0  0  0  0  0  0  0  0  0  0  0  0
    5.4118   -3.9857   24.3230 H   0  0  0  0  0  0  0  0  0  0  0  0
    4.6714   -4.2593   21.9716 H   0  0  0  0  0  0  0  0  0  0  0  0
    5.7133   -2.7341   20.1912 H   0  0  0  0  0  0  0  0  0  0  0  0
    5.5592    0.5059   20.1314 C   0  0  0  0  0  0  0  0  0  0  0  0
    5.1728    0.4882   21.1490 H   0  0  0  0  0  0  0  0  0  0  0  0
    8.2119   -0.5250   18.2784 H   0  0  0  0  0  0  0  0  0  0  0  0
    5.0180    1.8031   17.0241 H   0  0  0  0  0  0  0  0  0  0  0  0
    4.0112    1.7752   19.3033 H   0  0  0  0  0  0  0  0  0  0  0  0
  1  2  2  0
  2  3  1  0
  3  4  2  0
  4  5  1  0
  5  6  1  0
  6  7  1  0
  7  8  2  0
  8  9  1  0
  9 10  2  0
 10 11  1  0
 11 12  1  0
 12 13  1  0
 13 14  2  0
 14 15  1  0
 15 16  2  0
 16 17  1  0
 17 18  2  0
 18 19  1  0
 19 20  2  0
 19 21  1  0
 18 22  1  0
 17 23  1  0
 16 24  1  0
 13 25  1  0
 11 26  2  0
 10 27  1  0
  9 28  1  0
  8 29  1  0
  5 30  2  0
 30 31  1  0
  4 32  1  0
  2 33  1  0
  1 34  1  0
 30  1  1  0
 26  7  1  0
 20 12  1  0
 20 15  1  0
M  END
>  <cnnaffinity>  (1) 
5.23116

>  <plip>  (1) 
-0.06666666666666667

>  <filename>  (1) 
[H][c]1[n][c]([H])[c]([O][c]2[n][c](-[n]3[c]([H])[n][c]4[c]([H])[c]([H])[c]([H])[c]([H])[c]43)[c]([H])[c]([H])[c]2[H])[c]([H])[c]1[H]

>  <combo1>  (1) 
-0.4032048836322016

$$$$
