
     RDKit          3D

 36 38  0  0  0  0  0  0  0  0999 V2000
    6.8057   -5.5895   26.9806 H   0  0  0  0  0  0  0  0  0  0  0  0
    6.5619   -4.6642   27.1057 O   0  0  0  0  0  0  0  0  0  0  0  0
    6.0551   -4.1867   25.8717 C   0  0  0  0  0  0  0  0  0  0  0  0
    5.6091   -3.2091   26.0859 H   0  0  0  0  0  0  0  0  0  0  0  0
    5.2388   -4.8323   25.5073 H   0  0  0  0  0  0  0  0  0  0  0  0
    7.1299   -4.0292   24.7900 C   0  0  0  0  0  0  0  0  0  0  0  0
    7.6028   -5.0170   24.6660 H   0  0  0  0  0  0  0  0  0  0  0  0
    6.5179   -3.6149   23.4434 C   0  0  0  0  0  0  0  0  0  0  0  0
    5.9859   -2.6594   23.5567 H   0  0  0  0  0  0  0  0  0  0  0  0
    5.7733   -4.3455   23.1157 H   0  0  0  0  0  0  0  0  0  0  0  0
    7.5936   -3.4535   22.3654 C   0  0  0  0  0  0  0  0  0  0  0  0
    7.1433   -3.0752   21.4434 H   0  0  0  0  0  0  0  0  0  0  0  0
    8.0505   -4.4292   22.1234 H   0  0  0  0  0  0  0  0  0  0  0  0
    8.5898   -2.5081   22.8486 N   0  0  0  0  0  0  0  0  0  0  0  0
    9.1768   -1.6478   21.9485 N   0  0  0  0  0  0  0  0  0  0  0  0
   10.5216   -1.4920   21.8601 N   0  0  0  0  0  0  0  0  0  0  0  0
   10.7320   -0.5793   20.9902 N   0  0  0  0  0  0  0  0  0  0  0  0
    9.5681   -0.0989   20.4689 N   0  0  0  0  0  0  0  0  0  0  0  0
    8.6208   -0.7581   21.0815 C   0  0  0  0  0  0  0  0  0  0  0  0
    7.2864   -0.6765   20.9427 O   0  0  0  0  0  0  0  0  0  0  0  0
    6.6872    0.0268   19.8939 C   0  0  0  0  0  0  0  0  0  0  0  0
    7.1886    0.0597   18.5786 C   0  0  0  0  0  0  0  0  0  0  0  0
    8.1358   -0.4167   18.3492 H   0  0  0  0  0  0  0  0  0  0  0  0
    6.5505    0.6654   17.5708 N   0  0  0  0  0  0  0  0  0  0  0  0
    5.3966    1.2908   17.8381 C   0  0  0  0  0  0  0  0  0  0  0  0
    4.9166    1.7893   16.9985 H   0  0  0  0  0  0  0  0  0  0  0  0
    4.8248    1.3003   19.1158 C   0  0  0  0  0  0  0  0  0  0  0  0
    3.8934    1.8254   19.2682 H   0  0  0  0  0  0  0  0  0  0  0  0
    5.4683    0.6459   20.1702 C   0  0  0  0  0  0  0  0  0  0  0  0
    5.0493    0.6064   21.1780 H   0  0  0  0  0  0  0  0  0  0  0  0
    9.2750   -2.8375   24.0973 C   0  0  0  0  0  0  0  0  0  0  0  0
    9.9715   -2.0343   24.3590 H   0  0  0  0  0  0  0  0  0  0  0  0
    9.8765   -3.7545   23.9863 H   0  0  0  0  0  0  0  0  0  0  0  0
    8.2222   -3.0218   25.1918 C   0  0  0  0  0  0  0  0  0  0  0  0
    7.7621   -2.0463   25.3926 H   0  0  0  0  0  0  0  0  0  0  0  0
    8.6922   -3.3384   26.1250 H   0  0  0  0  0  0  0  0  0  0  0  0
  1  2  1  0
  2  3  1  0
  3  4  1  0
  3  5  1  0
  3  6  1  0
  6  7  1  0
  6  8  1  0
  8  9  1  0
  8 10  1  0
  8 11  1  0
 11 12  1  0
 11 13  1  0
 11 14  1  0
 14 15  1  0
 15 16  1  0
 16 17  2  0
 17 18  1  0
 18 19  2  0
 19 20  1  0
 20 21  1  0
 21 22  2  0
 22 23  1  0
 22 24  1  0
 24 25  2  0
 25 26  1  0
 25 27  1  0
 27 28  1  0
 27 29  2  0
 29 30  1  0
 14 31  1  0
 31 32  1  0
 31 33  1  0
 31 34  1  0
 34 35  1  0
 34 36  1  0
 34  6  1  0
 19 15  1  0
 29 21  1  0
M  END
>  <cnnaffinity>  (1) 
5.30553

>  <plip>  (1) 
-0.07142857142857142

>  <filename>  (1) 
[H][O][C]([H])([H])[C]1([H])[C]([H])([H])[C]([H])([H])[N]([n]2[n][n][n][c]2[O][c]2[c]([H])[n][c]([H])[c]([H])[c]2[H])[C]([H])([H])[C]1([H])[H]

>  <combo1>  (1) 
-0.45719197559588437

$$$$
