
     RDKit          3D

 34 36  0  0  0  0  0  0  0  0999 V2000
    8.7276   -0.5821   21.0581 C   0  0  0  0  0  0  0  0  0  0  0  0
    7.3966   -0.6394   20.9224 C   0  0  0  0  0  0  0  0  0  0  0  0
    6.6621    0.0705   19.8312 C   0  0  0  0  0  0  0  0  0  0  0  0
    5.4335    0.7158   20.0532 C   0  0  0  0  0  0  0  0  0  0  0  0
    4.7985    1.3648   18.9885 C   0  0  0  0  0  0  0  0  0  0  0  0
    5.4073    1.3560   17.7301 C   0  0  0  0  0  0  0  0  0  0  0  0
    6.5709    0.7362   17.4837 N   0  0  0  0  0  0  0  0  0  0  0  0
    7.1704    0.1227   18.5136 C   0  0  0  0  0  0  0  0  0  0  0  0
    8.0978   -0.3921   18.2733 H   0  0  0  0  0  0  0  0  0  0  0  0
    4.9397    1.8612   16.8834 H   0  0  0  0  0  0  0  0  0  0  0  0
    3.8526    1.8774   19.1198 H   0  0  0  0  0  0  0  0  0  0  0  0
    4.9719    0.7146   21.0428 H   0  0  0  0  0  0  0  0  0  0  0  0
    6.5333   -1.4006   21.9281 C   0  0  0  0  0  0  0  0  0  0  0  0
    7.3272   -2.4859   22.6530 N   0  0  0  0  0  4  0  0  0  0  0  0
    6.5647   -3.2896   23.7018 C   0  0  0  0  0  0  0  0  0  0  0  0
    7.3930   -4.4550   24.2131 C   0  0  0  0  0  0  0  0  0  0  0  0
    7.8209   -5.3037   23.3145 N   0  0  0  0  0  0  0  0  0  0  0  0
    8.5405   -6.2562   23.9923 O   0  0  0  0  0  0  0  0  0  0  0  0
    8.5425   -5.9509   25.2955 C   0  0  0  0  0  0  0  0  0  0  0  0
    7.8282   -4.8254   25.5239 C   0  0  0  0  0  0  0  0  0  0  0  0
    7.6834   -4.3364   26.4776 H   0  0  0  0  0  0  0  0  0  0  0  0
    9.0764   -6.6454   25.9285 H   0  0  0  0  0  0  0  0  0  0  0  0
    5.6658   -3.7190   23.2491 H   0  0  0  0  0  0  0  0  0  0  0  0
    6.2663   -2.6392   24.5324 H   0  0  0  0  0  0  0  0  0  0  0  0
    8.5983   -1.8535   23.2343 C   0  0  0  0  0  0  0  0  0  0  0  0
    9.4881   -1.3701   22.1010 C   0  0  0  0  0  0  0  0  0  0  0  0
    9.9784   -2.2280   21.6258 H   0  0  0  0  0  0  0  0  0  0  0  0
   10.2853   -0.7621   22.5349 H   0  0  0  0  0  0  0  0  0  0  0  0
    9.0972   -2.5973   23.8560 H   0  0  0  0  0  0  0  0  0  0  0  0
    8.3053   -1.0154   23.8756 H   0  0  0  0  0  0  0  0  0  0  0  0
    7.6338   -3.1795   21.9180 H   0  0  0  0  0  0  0  0  0  0  0  0
    5.6786   -1.8404   21.4108 H   0  0  0  0  0  0  0  0  0  0  0  0
    6.1359   -0.6895   22.6680 H   0  0  0  0  0  0  0  0  0  0  0  0
    9.3210    0.0476   20.3921 H   0  0  0  0  0  0  0  0  0  0  0  0
  1  2  2  0
  2  3  1  0
  3  4  2  0
  4  5  1  0
  5  6  2  0
  6  7  1  0
  7  8  2  0
  8  9  1  0
  6 10  1  0
  5 11  1  0
  4 12  1  0
  2 13  1  0
 13 14  1  0
 14 15  1  0
 15 16  1  0
 16 17  2  0
 17 18  1  0
 18 19  1  0
 19 20  2  0
 20 21  1  0
 19 22  1  0
 15 23  1  0
 15 24  1  0
 14 25  1  0
 25 26  1  0
 26 27  1  0
 26 28  1  0
 25 29  1  0
 25 30  1  0
 14 31  1  0
 13 32  1  0
 13 33  1  0
  1 34  1  0
 26  1  1  0
  8  3  1  0
 20 16  1  0
M  CHG  1  14   1
M  END
>  <cnnaffinity>  (1) 
4.72173

>  <plip>  (1) 
-0.034482758620689655

>  <filename>  (1) 
[H][C]1=[C]([c]2[c]([H])[n][c]([H])[c]([H])[c]2[H])[C]([H])([H])[N+]([H])([C]([H])([H])[c]2[n][o][c]([H])[c]2[H])[C]([H])([H])[C]1([H])[H]

>  <combo1>  (1) 
-0.22398807529731343

$$$$
