
     RDKit          3D

 30 32  0  0  0  0  0  0  0  0999 V2000
    8.7619   -0.0984   21.2906 C   0  0  0  0  0  0  0  0  0  0  0  0
    7.3751   -0.7458   21.0886 C   0  0  0  0  0  0  0  0  0  0  0  0
    7.4224   -2.1768   20.8693 N   0  0  0  0  0  0  0  0  0  0  0  0
    7.7323   -3.1033   21.8481 C   0  0  0  0  0  0  0  0  0  0  0  0
    7.9346   -2.7508   23.1621 C   0  0  0  0  0  0  0  0  0  0  0  0
    8.3128   -3.7600   24.0878 C   0  0  0  0  0  0  0  0  0  0  0  0
    8.5382   -3.5681   25.3846 N   0  0  0  0  0  0  0  0  0  0  0  0
    9.0073   -5.0055   25.9816 S   0  0  0  0  0  0  0  0  0  0  0  0
    8.9375   -5.9213   24.6363 N   0  0  0  0  0  0  0  0  0  0  0  0
    8.5224   -5.1168   23.6615 C   0  0  0  0  0  0  0  0  0  0  0  0
    8.2617   -5.4776   22.2940 C   0  0  0  0  0  0  0  0  0  0  0  0
    7.8397   -4.4949   21.4425 C   0  0  0  0  0  0  0  0  0  0  0  0
    7.5379   -4.7295   20.4282 H   0  0  0  0  0  0  0  0  0  0  0  0
    8.4194   -6.5116   21.9998 H   0  0  0  0  0  0  0  0  0  0  0  0
    7.8054   -1.7458   23.5388 H   0  0  0  0  0  0  0  0  0  0  0  0
    7.4699   -2.4939   19.9159 H   0  0  0  0  0  0  0  0  0  0  0  0
    6.6276   -0.1003   19.9418 C   0  0  0  0  0  0  0  0  0  0  0  0
    5.4281    0.5945   20.1465 C   0  0  0  0  0  0  0  0  0  0  0  0
    4.8519    1.2674   19.0690 C   0  0  0  0  0  0  0  0  0  0  0  0
    5.4877    1.2210   17.8247 C   0  0  0  0  0  0  0  0  0  0  0  0
    6.6133    0.5253   17.5989 N   0  0  0  0  0  0  0  0  0  0  0  0
    7.1500   -0.1267   18.6415 C   0  0  0  0  0  0  0  0  0  0  0  0
    8.0740   -0.6706   18.4269 H   0  0  0  0  0  0  0  0  0  0  0  0
    5.0670    1.7513   16.9707 H   0  0  0  0  0  0  0  0  0  0  0  0
    3.9314    1.8285   19.1836 H   0  0  0  0  0  0  0  0  0  0  0  0
    4.9641    0.6160   21.1357 H   0  0  0  0  0  0  0  0  0  0  0  0
    6.7884   -0.5803   22.0082 H   0  0  0  0  0  0  0  0  0  0  0  0
    9.3913   -0.1747   20.3930 H   0  0  0  0  0  0  0  0  0  0  0  0
    8.6254    0.9650   21.5188 H   0  0  0  0  0  0  0  0  0  0  0  0
    9.2909   -0.5773   22.1228 H   0  0  0  0  0  0  0  0  0  0  0  0
  1  2  1  0
  2  3  1  0
  3  4  1  0
  4  5  2  0
  5  6  1  0
  6  7  2  0
  7  8  1  0
  8  9  1  0
  9 10  2  0
 10 11  1  0
 11 12  2  0
 12 13  1  0
 11 14  1  0
  5 15  1  0
  3 16  1  0
  2 17  1  0
 17 18  2  0
 18 19  1  0
 19 20  2  0
 20 21  1  0
 21 22  2  0
 22 23  1  0
 20 24  1  0
 19 25  1  0
 18 26  1  0
  2 27  1  0
  1 28  1  0
  1 29  1  0
  1 30  1  0
 12  4  1  0
 22 17  1  0
 10  6  1  0
M  END
>  <cnnaffinity>  (1) 
4.67861

>  <plip>  (1) 
-0.10344827586206896

>  <filename>  (1) 
[H][c]1[n][c]([H])[c]([C]([H])([N]([H])[c]2[c]([H])[c]([H])[c]3[n][s][n][c]3[c]2[H])[C]([H])([H])[H])[c]([H])[c]1[H]

>  <combo1>  (1) 
-0.6293795567905343

$$$$
