
     RDKit          3D

 42 44  0  0  0  0  0  0  0  0999 V2000
    6.9602   -3.4544   22.8221 H   0  0  0  0  0  0  0  0  0  0  0  0
    7.4684   -2.5465   22.5026 C   0  0  0  0  0  0  0  0  0  0  0  0
    8.7654   -2.3444   22.7446 C   0  0  0  0  0  0  0  0  0  0  0  0
    9.6399   -3.3855   23.3996 C   0  0  0  0  0  0  0  0  0  0  0  0
    9.3153   -4.3851   23.0769 H   0  0  0  0  0  0  0  0  0  0  0  0
   10.6785   -3.2625   23.0648 H   0  0  0  0  0  0  0  0  0  0  0  0
    9.6128   -3.3360   24.9363 C   0  0  0  0  0  0  0  0  0  0  0  0
    9.9145   -2.3278   25.2470 H   0  0  0  0  0  0  0  0  0  0  0  0
   10.3748   -4.0396   25.3326 H   0  0  0  0  0  0  0  0  0  0  0  0
    8.2635   -3.5725   25.4621 N   0  0  0  0  0  0  0  0  0  0  0  0
    8.0455   -3.0846   26.8279 C   0  0  0  0  0  0  0  0  0  0  0  0
    6.9939   -2.7819   26.9410 H   0  0  0  0  0  0  0  0  0  0  0  0
    8.6287   -2.1693   27.0063 H   0  0  0  0  0  0  0  0  0  0  0  0
    8.4083   -4.2660   27.7552 C   0  0  0  0  0  0  0  0  0  0  0  0
    9.4715   -4.2229   28.0147 H   0  0  0  0  0  0  0  0  0  0  0  0
    7.8304   -4.2852   28.6797 H   0  0  0  0  0  0  0  0  0  0  0  0
    8.1234   -5.5283   26.9125 C   0  0  0  0  0  0  0  0  0  0  0  0
    7.2665   -6.0931   27.2943 H   0  0  0  0  0  0  0  0  0  0  0  0
    8.9769   -6.2141   26.9340 H   0  0  0  0  0  0  0  0  0  0  0  0
    7.8505   -4.9867   25.4848 C   0  0  0  0  0  0  0  0  0  0  0  0
    8.3828   -5.5549   24.7130 H   0  0  0  0  0  0  0  0  0  0  0  0
    6.7798   -5.0526   25.2402 H   0  0  0  0  0  0  0  0  0  0  0  0
    9.3173   -0.9664   22.4254 C   0  0  0  0  0  0  0  0  0  0  0  0
    8.9848   -0.2437   23.1887 H   0  0  0  0  0  0  0  0  0  0  0  0
   10.4114   -0.9615   22.4371 H   0  0  0  0  0  0  0  0  0  0  0  0
    8.8093   -0.5132   21.0463 C   0  0  0  0  0  0  0  0  0  0  0  0
    9.0809    0.5344   20.8594 H   0  0  0  0  0  0  0  0  0  0  0  0
    9.3022   -1.1212   20.2688 H   0  0  0  0  0  0  0  0  0  0  0  0
    7.3534   -0.6328   20.9509 N   0  0  0  0  0  0  0  0  0  0  0  0
    6.6770    0.0103   19.9148 C   0  0  0  0  0  0  0  0  0  0  0  0
    7.1806    0.0764   18.5855 C   0  0  0  0  0  0  0  0  0  0  0  0
    8.1300   -0.3994   18.3425 H   0  0  0  0  0  0  0  0  0  0  0  0
    6.5603    0.6832   17.5628 N   0  0  0  0  0  0  0  0  0  0  0  0
    5.3947    1.2962   17.8223 C   0  0  0  0  0  0  0  0  0  0  0  0
    4.9263    1.8027   16.9812 H   0  0  0  0  0  0  0  0  0  0  0  0
    4.8062    1.3018   19.0911 C   0  0  0  0  0  0  0  0  0  0  0  0
    3.8768    1.8305   19.2471 H   0  0  0  0  0  0  0  0  0  0  0  0
    5.4388    0.6398   20.1472 C   0  0  0  0  0  0  0  0  0  0  0  0
    5.0171    0.6173   21.1522 H   0  0  0  0  0  0  0  0  0  0  0  0
    6.6117   -1.4392   21.9264 C   0  0  0  0  0  0  0  0  0  0  0  0
    5.7351   -1.8758   21.4391 H   0  0  0  0  0  0  0  0  0  0  0  0
    6.2350   -0.8092   22.7562 H   0  0  0  0  0  0  0  0  0  0  0  0
  1  2  1  0
  2  3  2  0
  3  4  1  0
  4  5  1  0
  4  6  1  0
  4  7  1  0
  7  8  1  0
  7  9  1  0
  7 10  1  0
 10 11  1  0
 11 12  1  0
 11 13  1  0
 11 14  1  0
 14 15  1  0
 14 16  1  0
 14 17  1  0
 17 18  1  0
 17 19  1  0
 17 20  1  0
 20 21  1  0
 20 22  1  0
  3 23  1  0
 23 24  1  0
 23 25  1  0
 23 26  1  0
 26 27  1  0
 26 28  1  0
 26 29  1  0
 29 30  1  0
 30 31  2  0
 31 32  1  0
 31 33  1  0
 33 34  2  0
 34 35  1  0
 34 36  1  0
 36 37  1  0
 36 38  2  0
 38 39  1  0
 29 40  1  0
 40 41  1  0
 40 42  1  0
 40  2  1  0
 20 10  1  0
 38 30  1  0
M  END
>  <cnnaffinity>  (1) 
4.78972

>  <plip>  (1) 
-0.0

>  <filename>  (1) 
[H][C]1=[C]([C]([H])([H])[C]([H])([H])[N]2[C]([H])([H])[C]([H])([H])[C]([H])([H])[C]2([H])[H])[C]([H])([H])[C]([H])([H])[N]([c]2[c]([H])[n][c]([H])[c]([H])[c]2[H])[C]1([H])[H]

>  <combo1>  (1) 
-6.2031514887786346e-06

$$$$
