
     RDKit          3D

 34 36  0  0  0  0  0  0  0  0999 V2000
    9.4313    1.3387   20.7861 O   0  0  0  0  0  0  0  0  0  0  0  0
    8.8081    1.1414   21.8154 C   0  0  0  0  0  0  0  0  0  0  0  0
    7.8392    0.1802   21.9735 N   0  0  0  0  0  0  0  0  0  0  0  0
    7.3568   -0.7410   20.9449 C   0  0  0  0  0  0  0  0  0  0  0  0
    6.4399   -2.2067   21.5080 C   0  0  0  0  0  0  0  0  0  0  0  0
    6.6927   -2.5097   22.6716 O   0  0  0  0  0  0  0  0  0  0  0  0
    5.7779   -2.7111   20.6034 O   0  0  0  0  0  1  0  0  0  0  0  0
    6.6159    0.0020   19.8550 C   0  0  0  0  0  0  0  0  0  0  0  0
    5.3867    0.6366   20.0790 C   0  0  0  0  0  0  0  0  0  0  0  0
    4.7768    1.3064   19.0121 C   0  0  0  0  0  0  0  0  0  0  0  0
    5.4197    1.3240   17.7698 C   0  0  0  0  0  0  0  0  0  0  0  0
    6.6052    0.7400   17.5366 N   0  0  0  0  0  0  0  0  0  0  0  0
    7.1799    0.1132   18.5728 C   0  0  0  0  0  0  0  0  0  0  0  0
    8.1565   -0.3337   18.3800 H   0  0  0  0  0  0  0  0  0  0  0  0
    4.9672    1.8294   16.9193 H   0  0  0  0  0  0  0  0  0  0  0  0
    3.8316    1.8255   19.1304 H   0  0  0  0  0  0  0  0  0  0  0  0
    4.9285    0.6295   21.0707 H   0  0  0  0  0  0  0  0  0  0  0  0
    8.2254   -1.2514   20.5116 H   0  0  0  0  0  0  0  0  0  0  0  0
    7.3236    0.2652   22.8349 H   0  0  0  0  0  0  0  0  0  0  0  0
    9.0021    1.9792   23.0544 C   0  0  0  0  0  0  0  0  0  0  0  0
    9.2118    3.3337   22.8920 C   0  0  0  0  0  0  0  0  0  0  0  0
    9.1736    4.2247   23.9231 N   0  0  0  0  0  0  0  0  0  0  0  0
    8.9471    3.8253   25.1453 N   0  0  0  0  0  0  0  0  0  0  0  0
    8.8105    2.4865   25.4157 C   0  0  0  0  0  0  0  0  0  0  0  0
    8.5159    2.1016   26.7543 C   0  0  0  0  0  0  0  0  0  0  0  0
    8.4706    0.7746   27.0859 C   0  0  0  0  0  0  0  0  0  0  0  0
    8.7304   -0.2232   26.1067 C   0  0  0  0  0  0  0  0  0  0  0  0
    8.9554    0.1108   24.7866 C   0  0  0  0  0  0  0  0  0  0  0  0
    8.9389    1.4903   24.3968 C   0  0  0  0  0  0  0  0  0  0  0  0
    9.1530   -0.6578   24.0407 H   0  0  0  0  0  0  0  0  0  0  0  0
    8.6920   -1.2634   26.4025 H   0  0  0  0  0  0  0  0  0  0  0  0
    8.2654    0.4631   28.1091 H   0  0  0  0  0  0  0  0  0  0  0  0
    8.3695    2.9012   27.4704 H   0  0  0  0  0  0  0  0  0  0  0  0
    9.3928    3.7764   21.9253 H   0  0  0  0  0  0  0  0  0  0  0  0
  1  2  2  0
  2  3  1  0
  3  4  1  0
  4  5  1  0
  5  6  2  0
  5  7  1  0
  4  8  1  0
  8  9  2  0
  9 10  1  0
 10 11  2  0
 11 12  1  0
 12 13  2  0
 13 14  1  0
 11 15  1  0
 10 16  1  0
  9 17  1  0
  4 18  1  0
  3 19  1  0
  2 20  1  0
 20 21  2  0
 21 22  1  0
 22 23  2  0
 23 24  1  0
 24 25  2  0
 25 26  1  0
 26 27  2  0
 27 28  1  0
 28 29  2  0
 28 30  1  0
 27 31  1  0
 26 32  1  0
 25 33  1  0
 21 34  1  0
 13  8  1  0
 29 20  1  0
 29 24  1  0
M  CHG  1   7  -1
M  END
>  <cnnaffinity>  (1) 
4.8773

>  <plip>  (1) 
-0.14285714285714285

>  <filename>  (1) 
[H][c]1[n][c]([H])[c]([C]([H])([C](=[O])[O-])[N]([H])[C](=[O])[c]2[c]([H])[n][n][c]3[c]([H])[c]([H])[c]([H])[c]([H])[c]23)[c]([H])[c]1[H]

>  <combo1>  (1) 
-0.75581091725503

$$$$
