
     RDKit          3D

 41 43  0  0  0  0  0  0  0  0999 V2000
    7.1665   -4.8192   25.7625 O   0  0  0  0  0  0  0  0  0  0  0  0
    5.7349   -4.5619   25.7916 S   0  0  0  0  0  0  0  0  0  0  0  0
    4.8320   -5.0366   24.7595 O   0  0  0  0  0  0  0  0  0  0  0  0
    5.5206   -2.8226   25.9606 C   0  0  0  0  0  0  0  0  0  0  0  0
    5.6067   -2.2645   24.5694 C   0  0  0  0  0  0  0  0  0  0  0  0
    6.8924   -2.6516   24.0603 N   0  0  0  0  0  0  0  0  0  0  0  0
    7.3772   -2.0737   22.9506 C   0  0  0  0  0  0  0  0  0  0  0  0
    6.6247   -1.3867   22.1449 N   0  0  0  0  0  0  0  0  0  0  0  0
    7.3514   -0.8801   21.1009 C   0  0  0  0  0  0  0  0  0  0  0  0
    6.6508   -0.1212   20.0495 C   0  0  0  0  0  0  0  0  0  0  0  0
    5.4458    0.5713   20.2611 C   0  0  0  0  0  0  0  0  0  0  0  0
    4.8857    1.2545   19.1834 C   0  0  0  0  0  0  0  0  0  0  0  0
    5.5298    1.2211   17.9407 C   0  0  0  0  0  0  0  0  0  0  0  0
    6.6651    0.5452   17.7177 N   0  0  0  0  0  0  0  0  0  0  0  0
    7.1984   -0.1000   18.7576 C   0  0  0  0  0  0  0  0  0  0  0  0
    8.1148   -0.6471   18.5494 H   0  0  0  0  0  0  0  0  0  0  0  0
    5.1159    1.7448   17.0826 H   0  0  0  0  0  0  0  0  0  0  0  0
    3.9679    1.8205   19.2879 H   0  0  0  0  0  0  0  0  0  0  0  0
    4.9645    0.5698   21.2422 H   0  0  0  0  0  0  0  0  0  0  0  0
    8.6858   -1.1354   21.1254 C   0  0  0  0  0  0  0  0  0  0  0  0
    9.0753   -2.1255   22.4978 S   0  0  0  0  0  0  0  0  0  0  0  0
    9.4469   -0.7508   20.4657 H   0  0  0  0  0  0  0  0  0  0  0  0
    7.4212   -3.3498   24.5552 H   0  0  0  0  0  0  0  0  0  0  0  0
    5.5291   -1.1663   24.5943 H   0  0  0  0  0  0  0  0  0  0  0  0
    4.7977   -2.6794   23.9433 H   0  0  0  0  0  0  0  0  0  0  0  0
    4.5528   -2.6498   26.4265 H   0  0  0  0  0  0  0  0  0  0  0  0
    6.3255   -2.4643   26.6050 H   0  0  0  0  0  0  0  0  0  0  0  0
    5.1558   -5.0844   27.2349 N   0  0  0  0  0  0  0  0  0  0  0  0
    6.0224   -5.0560   28.4240 C   0  0  0  0  0  0  0  0  0  0  0  0
    5.4039   -4.2187   29.5464 C   0  0  0  0  0  0  0  0  0  0  0  0
    3.7952   -4.8758   30.1336 S   0  0  0  0  0  0  0  0  0  0  0  0
    3.3783   -5.9468   28.7111 C   0  0  0  0  0  0  0  0  0  0  0  0
    3.6980   -5.2838   27.3705 C   0  0  0  0  0  0  0  0  0  0  0  0
    3.1416   -4.3324   27.3090 H   0  0  0  0  0  0  0  0  0  0  0  0
    3.3471   -5.9305   26.5547 H   0  0  0  0  0  0  0  0  0  0  0  0
    2.3078   -6.1591   28.7867 H   0  0  0  0  0  0  0  0  0  0  0  0
    3.9257   -6.8925   28.7890 H   0  0  0  0  0  0  0  0  0  0  0  0
    5.2660   -3.1894   29.1899 H   0  0  0  0  0  0  0  0  0  0  0  0
    6.0844   -4.1916   30.4024 H   0  0  0  0  0  0  0  0  0  0  0  0
    7.0123   -4.6589   28.1762 H   0  0  0  0  0  0  0  0  0  0  0  0
    6.1865   -6.0850   28.7774 H   0  0  0  0  0  0  0  0  0  0  0  0
  1  2  2  0
  2  3  2  0
  2  4  1  0
  4  5  1  0
  5  6  1  0
  6  7  1  0
  7  8  2  0
  8  9  1  0
  9 10  1  0
 10 11  2  0
 11 12  1  0
 12 13  2  0
 13 14  1  0
 14 15  2  0
 15 16  1  0
 13 17  1  0
 12 18  1  0
 11 19  1  0
  9 20  2  0
 20 21  1  0
 20 22  1  0
  6 23  1  0
  5 24  1  0
  5 25  1  0
  4 26  1  0
  4 27  1  0
  2 28  1  0
 28 29  1  0
 29 30  1  0
 30 31  1  0
 31 32  1  0
 32 33  1  0
 33 34  1  0
 33 35  1  0
 32 36  1  0
 32 37  1  0
 30 38  1  0
 30 39  1  0
 29 40  1  0
 29 41  1  0
 21  7  1  0
 33 28  1  0
 15 10  1  0
M  END
>  <cnnaffinity>  (1) 
4.96698

>  <plip>  (1) 
-0.03571428571428571

>  <filename>  (1) 
[H][c]1[n][c]([H])[c](-[c]2[n][c]([N]([H])[C]([H])([H])[C]([H])([H])[S](=[O])(=[O])[N]3[C]([H])([H])[C]([H])([H])[S][C]([H])([H])[C]3([H])[H])[s][c]2[H])[c]([H])[c]1[H]

>  <combo1>  (1) 
-0.15958630129063978

$$$$
