
     RDKit          3D

 37 40  0  0  0  0  0  0  0  0999 V2000
    5.1420    1.3318   17.1380 H   0  0  0  0  0  0  0  0  0  0  0  0
    5.6031    0.7822   17.9564 C   0  0  0  0  0  0  0  0  0  0  0  0
    6.6299   -0.0151   17.6272 N   0  0  0  0  0  0  0  0  0  0  0  0
    7.2268   -0.6914   18.6207 C   0  0  0  0  0  0  0  0  0  0  0  0
    8.0720   -1.3093   18.3088 H   0  0  0  0  0  0  0  0  0  0  0  0
    6.8413   -0.6165   19.9604 C   0  0  0  0  0  0  0  0  0  0  0  0
    7.6781   -1.3422   21.0139 C   0  0  2  0  0  0  0  0  0  0  0  0
    8.7268   -1.3965   20.6763 H   0  0  0  0  0  0  0  0  0  0  0  0
    7.2422   -2.6605   21.2138 O   0  0  0  0  0  0  0  0  0  0  0  0
    6.3090   -2.6142   22.2750 C   0  0  0  0  0  0  0  0  0  0  0  0
    6.1929   -3.6222   22.6793 H   0  0  0  0  0  0  0  0  0  0  0  0
    5.3473   -2.2433   21.8901 H   0  0  0  0  0  0  0  0  0  0  0  0
    6.9068   -1.6060   23.2511 C   0  0  0  0  0  0  0  0  0  0  0  0
    6.1232   -1.1184   23.8353 H   0  0  0  0  0  0  0  0  0  0  0  0
    7.6164   -2.0756   23.9480 H   0  0  0  0  0  0  0  0  0  0  0  0
    7.6069   -0.7095   22.3397 N   0  0  0  0  0  0  0  0  0  0  0  0
    7.9321    0.6437   22.5219 C   0  0  0  0  0  0  0  0  0  0  0  0
    8.5810    1.2768   21.4659 C   0  0  0  0  0  0  0  0  0  0  0  0
    8.9527    0.6909   20.6414 H   0  0  0  0  0  0  0  0  0  0  0  0
    8.7140    2.6727   21.3879 C   0  0  0  0  0  0  0  0  0  0  0  0
    9.1710    3.0825   20.5007 H   0  0  0  0  0  0  0  0  0  0  0  0
    8.2772    3.4718   22.4044 C   0  0  0  0  0  0  0  0  0  0  0  0
    8.3471    4.5523   22.3341 H   0  0  0  0  0  0  0  0  0  0  0  0
    7.7841    2.8808   23.5995 C   0  0  0  0  0  0  0  0  0  0  0  0
    7.5188    3.7208   24.7217 C   0  0  0  0  0  0  0  0  0  0  0  0
    7.6412    4.7916   24.5790 H   0  0  0  0  0  0  0  0  0  0  0  0
    7.1906    3.1864   25.9393 C   0  0  0  0  0  0  0  0  0  0  0  0
    7.0454    3.8353   26.7980 H   0  0  0  0  0  0  0  0  0  0  0  0
    7.0892    1.7791   26.0723 C   0  0  0  0  0  0  0  0  0  0  0  0
    6.8143    1.3437   27.0256 H   0  0  0  0  0  0  0  0  0  0  0  0
    7.3040    0.9436   24.9975 C   0  0  0  0  0  0  0  0  0  0  0  0
    7.2522   -0.1215   25.1602 H   0  0  0  0  0  0  0  0  0  0  0  0
    7.6474    1.4515   23.7040 C   0  0  0  0  0  0  0  0  0  0  0  0
    5.7394    0.1949   20.2818 C   0  0  0  0  0  0  0  0  0  0  0  0
    5.4418    0.3320   21.3248 H   0  0  0  0  0  0  0  0  0  0  0  0
    5.1184    0.9137   19.2633 C   0  0  0  0  0  0  0  0  0  0  0  0
    4.2966    1.5904   19.4774 H   0  0  0  0  0  0  0  0  0  0  0  0
  1  2  1  0
  2  3  2  0
  3  4  1  0
  4  5  1  0
  4  6  2  0
  6  7  1  0
  7  8  1  6
  7  9  1  0
  9 10  1  0
 10 11  1  0
 10 12  1  0
 10 13  1  0
 13 14  1  0
 13 15  1  0
 13 16  1  0
 16 17  1  0
 17 18  2  0
 18 19  1  0
 18 20  1  0
 20 21  1  0
 20 22  2  0
 22 23  1  0
 22 24  1  0
 24 25  2  0
 25 26  1  0
 25 27  1  0
 27 28  1  0
 27 29  2  0
 29 30  1  0
 29 31  1  0
 31 32  1  0
 31 33  2  0
  6 34  1  0
 34 35  1  0
 34 36  2  0
 36 37  1  0
 36  2  1  0
 16  7  1  0
 33 17  1  0
 33 24  1  0
M  END
>  <cnnaffinity>  (1) 
4.26083

>  <plip>  (1) 
-0.034482758620689655

>  <filename>  (1) 
[H][c]1[n][c]([H])[c]([C@]2([H])[O][C]([H])([H])[C]([H])([H])[N]2[c]2[c]([H])[c]([H])[c]([H])[c]3[c]([H])[c]([H])[c]([H])[c]([H])[c]23)[c]([H])[c]1[H]

>  <combo1>  (1) 
-0.1772281779671504

$$$$
