
     RDKit          3D

 38 39  0  0  0  0  0  0  0  0999 V2000
    7.7519   -3.5145   26.2060 C   0  0  0  0  0  0  0  0  0  0  0  0
    9.0051   -3.3982   25.3288 C   0  0  0  0  0  0  0  0  0  0  0  0
    8.7002   -3.7557   23.8903 C   0  0  0  0  0  0  0  0  0  0  0  0
    8.7512   -5.0898   23.4674 C   0  0  0  0  0  0  0  0  0  0  0  0
    8.3196   -5.4407   22.1839 C   0  0  0  0  0  0  0  0  0  0  0  0
    7.8606   -4.4623   21.2993 C   0  0  0  0  0  0  0  0  0  0  0  0
    7.8452   -3.1112   21.6926 C   0  0  0  0  0  0  0  0  0  0  0  0
    7.3893   -2.1514   20.7917 N   0  0  0  0  0  0  0  0  0  0  0  0
    7.4537   -0.7164   21.0240 C   0  0  0  0  0  0  0  0  0  0  0  0
    8.8886   -0.0786   21.1950 C   0  0  0  0  0  0  0  0  0  0  0  0
    9.8980   -0.3714   20.6027 O   0  0  0  0  0  0  0  0  0  0  0  0
    8.8090    0.9028   22.1177 O   0  0  0  0  0  0  0  0  0  0  0  0
    9.9946    1.6464   22.4313 C   0  0  0  0  0  0  0  0  0  0  0  0
    9.6876    2.3863   23.1727 H   0  0  0  0  0  0  0  0  0  0  0  0
   10.7589    0.9959   22.8679 H   0  0  0  0  0  0  0  0  0  0  0  0
   10.3783    2.1576   21.5433 H   0  0  0  0  0  0  0  0  0  0  0  0
    6.6779   -0.0303   19.9135 C   0  0  0  0  0  0  0  0  0  0  0  0
    5.4718    0.6331   20.1618 C   0  0  0  0  0  0  0  0  0  0  0  0
    4.8367    1.2781   19.0998 C   0  0  0  0  0  0  0  0  0  0  0  0
    5.4252    1.2339   17.8346 C   0  0  0  0  0  0  0  0  0  0  0  0
    6.5612    0.5683   17.5748 N   0  0  0  0  0  0  0  0  0  0  0  0
    7.1580   -0.0593   18.5965 C   0  0  0  0  0  0  0  0  0  0  0  0
    8.0996   -0.5669   18.3694 H   0  0  0  0  0  0  0  0  0  0  0  0
    4.9781    1.7646   16.9963 H   0  0  0  0  0  0  0  0  0  0  0  0
    3.9147    1.8225   19.2401 H   0  0  0  0  0  0  0  0  0  0  0  0
    5.0389    0.6474   21.1630 H   0  0  0  0  0  0  0  0  0  0  0  0
    6.9553   -0.4973   21.9757 H   0  0  0  0  0  0  0  0  0  0  0  0
    7.3328   -2.4442   19.8288 H   0  0  0  0  0  0  0  0  0  0  0  0
    8.2612   -2.7755   22.9928 C   0  0  0  0  0  0  0  0  0  0  0  0
    8.2466   -1.7359   23.2993 H   0  0  0  0  0  0  0  0  0  0  0  0
    7.4815   -4.7332   20.3185 H   0  0  0  0  0  0  0  0  0  0  0  0
    8.3392   -6.4836   21.8907 H   0  0  0  0  0  0  0  0  0  0  0  0
    9.1260   -5.8460   24.1544 H   0  0  0  0  0  0  0  0  0  0  0  0
    9.7886   -4.0650   25.7095 H   0  0  0  0  0  0  0  0  0  0  0  0
    9.4113   -2.3807   25.3856 H   0  0  0  0  0  0  0  0  0  0  0  0
    7.3561   -4.5357   26.1673 H   0  0  0  0  0  0  0  0  0  0  0  0
    6.9688   -2.8401   25.8415 H   0  0  0  0  0  0  0  0  0  0  0  0
    7.9626   -3.2649   27.2500 H   0  0  0  0  0  0  0  0  0  0  0  0
  1  2  1  0
  2  3  1  0
  3  4  2  0
  4  5  1  0
  5  6  2  0
  6  7  1  0
  7  8  1  0
  8  9  1  0
  9 10  1  0
 10 11  2  0
 10 12  1  0
 12 13  1  0
 13 14  1  0
 13 15  1  0
 13 16  1  0
  9 17  1  0
 17 18  2  0
 18 19  1  0
 19 20  2  0
 20 21  1  0
 21 22  2  0
 22 23  1  0
 20 24  1  0
 19 25  1  0
 18 26  1  0
  9 27  1  0
  8 28  1  0
  7 29  2  0
 29 30  1  0
  6 31  1  0
  5 32  1  0
  4 33  1  0
  2 34  1  0
  2 35  1  0
  1 36  1  0
  1 37  1  0
  1 38  1  0
 29  3  1  0
 22 17  1  0
M  END
>  <cnnaffinity>  (1) 
5.01801

>  <plip>  (1) 
-0.1724137931034483

>  <filename>  (1) 
[H][c]1[n][c]([H])[c]([C]([H])([C](=[O])[O][C]([H])([H])[H])[N]([H])[c]2[c]([H])[c]([H])[c]([H])[c]([C]([H])([H])[C]([H])([H])[H])[c]2[H])[c]([H])[c]1[H]

>  <combo1>  (1) 
-1.066804445312967

$$$$
