
     RDKit          3D

 37 39  0  0  0  0  0  0  0  0999 V2000
    7.8972   -3.0367   21.1320 N   0  0  0  0  0  0  0  0  0  0  0  0
    6.9309   -2.1256   21.2246 C   0  0  0  0  0  0  0  0  0  0  0  0
    5.6449   -2.4666   21.5153 N   0  0  0  0  0  4  0  0  0  0  0  0
    5.4864   -3.9033   21.5317 O   0  0  0  0  0  0  0  0  0  0  0  0
    4.3875   -4.3843   22.2933 C   0  0  0  0  0  0  0  0  0  0  0  0
    4.6083   -4.2992   23.7621 C   0  0  0  0  0  0  0  0  0  0  0  0
    5.3502   -5.1088   24.5490 C   0  0  0  0  0  0  0  0  0  0  0  0
    5.2921   -4.5468   25.8742 C   0  0  0  0  0  0  0  0  0  0  0  0
    5.8335   -4.8975   27.1232 C   0  0  0  0  0  0  0  0  0  0  0  0
    5.5631   -4.0782   28.2160 C   0  0  0  0  0  0  0  0  0  0  0  0
    4.7692   -2.9169   28.0737 C   0  0  0  0  0  0  0  0  0  0  0  0
    4.2201   -2.5523   26.8396 C   0  0  0  0  0  0  0  0  0  0  0  0
    4.4996   -3.3945   25.7584 C   0  0  0  0  0  0  0  0  0  0  0  0
    4.0924   -3.2374   24.4583 O   0  0  0  0  0  0  0  0  0  0  0  0
    3.6123   -1.6622   26.7182 H   0  0  0  0  0  0  0  0  0  0  0  0
    4.5841   -2.2960   28.9501 H   0  0  0  0  0  0  0  0  0  0  0  0
    5.9667   -4.3382   29.1932 H   0  0  0  0  0  0  0  0  0  0  0  0
    6.4530   -5.7856   27.2181 H   0  0  0  0  0  0  0  0  0  0  0  0
    5.8705   -6.0060   24.2421 H   0  0  0  0  0  0  0  0  0  0  0  0
    4.3560   -5.4475   22.0312 H   0  0  0  0  0  0  0  0  0  0  0  0
    3.4567   -3.9224   21.9713 H   0  0  0  0  0  0  0  0  0  0  0  0
    5.4346   -2.0345   22.4317 H   0  0  0  0  0  0  0  0  0  0  0  0
    7.2703   -0.6901   21.0998 C   0  0  0  0  0  0  0  0  0  0  0  0
    6.6126    0.0676   19.9342 C   0  0  0  0  0  0  0  0  0  0  0  0
    5.3910    0.7175   20.1303 C   0  0  0  0  0  0  0  0  0  0  0  0
    4.7768    1.3565   19.0517 C   0  0  0  0  0  0  0  0  0  0  0  0
    5.4106    1.3233   17.8090 C   0  0  0  0  0  0  0  0  0  0  0  0
    6.5777    0.6972   17.5914 N   0  0  0  0  0  0  0  0  0  0  0  0
    7.1563    0.0946   18.6364 C   0  0  0  0  0  0  0  0  0  0  0  0
    8.1051   -0.4063   18.4340 H   0  0  0  0  0  0  0  0  0  0  0  0
    4.9619    1.8116   16.9455 H   0  0  0  0  0  0  0  0  0  0  0  0
    3.8300    1.8721   19.1627 H   0  0  0  0  0  0  0  0  0  0  0  0
    4.9272    0.7119   21.1184 H   0  0  0  0  0  0  0  0  0  0  0  0
    8.3664   -0.5980   21.0376 H   0  0  0  0  0  0  0  0  0  0  0  0
    6.9855   -0.1895   22.0363 H   0  0  0  0  0  0  0  0  0  0  0  0
    7.5366   -3.9719   20.9644 H   0  0  0  0  0  0  0  0  0  0  0  0
    8.7208   -2.7730   20.5966 H   0  0  0  0  0  0  0  0  0  0  0  0
  1  2  1  0
  2  3  2  3
  3  4  1  0
  4  5  1  0
  5  6  1  0
  6  7  2  0
  7  8  1  0
  8  9  2  0
  9 10  1  0
 10 11  2  0
 11 12  1  0
 12 13  2  0
 13 14  1  0
 12 15  1  0
 11 16  1  0
 10 17  1  0
  9 18  1  0
  7 19  1  0
  5 20  1  0
  5 21  1  0
  3 22  1  0
  2 23  1  0
 23 24  1  0
 24 25  2  0
 25 26  1  0
 26 27  2  0
 27 28  1  0
 28 29  2  0
 29 30  1  0
 27 31  1  0
 26 32  1  0
 25 33  1  0
 23 34  1  0
 23 35  1  0
  1 36  1  0
  1 37  1  0
 14  6  1  0
 29 24  1  0
 13  8  1  0
M  CHG  1   3   1
M  END
>  <cnnaffinity>  (1) 
4.88692

>  <plip>  (1) 
-0.10344827586206896

>  <filename>  (1) 
[H][c]1[n][c]([H])[c]([C]([H])([H])[C]([N]([H])[H])=[N+]([H])[O][C]([H])([H])[c]2[o][c]3[c]([H])[c]([H])[c]([H])[c]([H])[c]3[c]2[H])[c]([H])[c]1[H]

>  <combo1>  (1) 
-0.5968854211616509

$$$$
