
     RDKit          3D

 39 40  0  0  0  0  0  0  0  0999 V2000
   14.9506    3.6963   21.9876 H   0  0  0  0  0  0  0  0  0  0  0  0
   14.4608    4.5396   21.8758 O   0  0  0  0  0  0  0  0  0  0  0  0
   13.1458    4.2857   22.2574 N   0  0  0  0  0  0  0  0  0  0  0  0
   12.4858    4.6818   21.6042 H   0  0  0  0  0  0  0  0  0  0  0  0
   12.7745    3.1922   22.9809 C   0  0  0  0  0  0  0  0  0  0  0  0
   13.5925    2.4089   23.4424 O   0  0  0  0  0  0  0  0  0  0  0  0
   11.2729    3.0695   23.1667 C   0  0  0  0  0  0  0  0  0  0  0  0
   11.1382    2.9606   24.2461 H   0  0  0  0  0  0  0  0  0  0  0  0
   10.7583    3.9945   22.8768 H   0  0  0  0  0  0  0  0  0  0  0  0
   10.6451    1.8529   22.4602 C   0  0  0  0  0  0  0  0  0  0  0  0
    9.5593    1.8832   22.6278 H   0  0  0  0  0  0  0  0  0  0  0  0
   10.7815    1.9207   21.3702 H   0  0  0  0  0  0  0  0  0  0  0  0
   11.2212    0.5215   22.9559 C   0  0  0  0  0  0  0  0  0  0  0  0
   12.3079    0.6148   23.0474 H   0  0  0  0  0  0  0  0  0  0  0  0
   10.8527    0.3377   23.9762 H   0  0  0  0  0  0  0  0  0  0  0  0
   10.8594   -0.6602   22.0398 C   0  0  0  0  0  0  0  0  0  0  0  0
   11.3579   -1.5718   22.3949 H   0  0  0  0  0  0  0  0  0  0  0  0
   11.2198   -0.4729   21.0204 H   0  0  0  0  0  0  0  0  0  0  0  0
    9.3759   -0.9044   21.9914 C   0  0  0  0  0  0  0  0  0  0  0  0
    8.7224   -0.5411   20.9465 N   0  0  0  0  0  0  0  0  0  0  0  0
    7.3406   -0.7478   20.9300 N   0  0  0  0  0  0  0  0  0  0  0  0
    6.6666   -0.0242   19.9056 C   0  0  0  0  0  0  0  0  0  0  0  0
    7.2357    0.0711   18.6217 C   0  0  0  0  0  0  0  0  0  0  0  0
    8.1992   -0.3903   18.4274 H   0  0  0  0  0  0  0  0  0  0  0  0
    6.6380    0.6917   17.5987 N   0  0  0  0  0  0  0  0  0  0  0  0
    5.4593    1.2915   17.8390 C   0  0  0  0  0  0  0  0  0  0  0  0
    4.9983    1.7910   16.9896 H   0  0  0  0  0  0  0  0  0  0  0  0
    4.8372    1.2903   19.0923 C   0  0  0  0  0  0  0  0  0  0  0  0
    3.9006    1.8209   19.2240 H   0  0  0  0  0  0  0  0  0  0  0  0
    5.4444    0.6085   20.1535 C   0  0  0  0  0  0  0  0  0  0  0  0
    4.9905    0.5671   21.1437 H   0  0  0  0  0  0  0  0  0  0  0  0
    6.6708   -1.7575   21.6594 C   0  0  0  0  0  0  0  0  0  0  0  0
    5.5604   -2.1643   21.3798 O   0  0  0  0  0  0  0  0  0  0  0  0
    7.4888   -2.3457   22.8001 C   0  0  0  0  0  0  0  0  0  0  0  0
    7.8214   -3.3278   22.4392 H   0  0  0  0  0  0  0  0  0  0  0  0
    6.7993   -2.5305   23.6261 H   0  0  0  0  0  0  0  0  0  0  0  0
    8.6765   -1.4660   23.2167 C   0  0  0  0  0  0  0  0  0  0  0  0
    9.3909   -2.0340   23.8253 H   0  0  0  0  0  0  0  0  0  0  0  0
    8.3402   -0.6173   23.8385 H   0  0  0  0  0  0  0  0  0  0  0  0
  1  2  1  0
  2  3  1  0
  3  4  1  0
  3  5  1  0
  5  6  2  0
  5  7  1  0
  7  8  1  0
  7  9  1  0
  7 10  1  0
 10 11  1  0
 10 12  1  0
 10 13  1  0
 13 14  1  0
 13 15  1  0
 13 16  1  0
 16 17  1  0
 16 18  1  0
 16 19  1  0
 19 20  2  0
 20 21  1  0
 21 22  1  0
 22 23  2  0
 23 24  1  0
 23 25  1  0
 25 26  2  0
 26 27  1  0
 26 28  1  0
 28 29  1  0
 28 30  2  0
 30 31  1  0
 21 32  1  0
 32 33  2  0
 32 34  1  0
 34 35  1  0
 34 36  1  0
 34 37  1  0
 37 38  1  0
 37 39  1  0
 37 19  1  0
 30 22  1  0
M  END
>  <cnnaffinity>  (1) 
5.62281

>  <plip>  (1) 
-0.12903225806451613

>  <filename>  (1) 
[H][O][N]([H])[C](=[O])[C]([H])([H])[C]([H])([H])[C]([H])([H])[C]([H])([H])[C]1=[N][N]([c]2[c]([H])[n][c]([H])[c]([H])[c]2[H])[C](=[O])[C]([H])([H])[C]1([H])[H]

>  <combo1>  (1) 
-0.8330076856555654

$$$$
