
     RDKit          3D

 48 49  0  0  0  0  0  0  0  0999 V2000
   11.6441    1.6247   22.2202 C   0  0  0  0  0  0  0  0  0  0  0  0
   10.2110    1.2922   22.6370 C   0  0  0  0  0  0  0  0  0  0  0  0
    9.4565    0.4802   21.5775 C   0  0  0  0  0  0  0  0  0  0  0  0
    8.0100    0.1467   21.9511 C   0  0  0  0  0  0  0  0  0  0  0  0
    7.3332   -0.6338   20.9148 N   0  0  0  0  0  0  0  0  0  0  0  0
    7.1441   -2.0243   20.9779 C   0  0  0  0  0  0  0  0  0  0  0  0
    6.3751   -2.5957   20.2330 O   0  0  0  0  0  0  0  0  0  0  0  0
    7.9541   -2.8148   22.0281 C   0  0  0  0  0  0  0  0  0  0  0  0
    7.1440   -3.1192   23.2917 C   0  0  0  0  0  0  0  0  0  0  0  0
    7.3880   -2.5352   24.5355 C   0  0  0  0  0  0  0  0  0  0  0  0
    6.4856   -2.6673   25.6058 C   0  0  0  0  0  0  0  0  0  0  0  0
    5.2864   -3.3662   25.4073 C   0  0  0  0  0  0  0  0  0  0  0  0
    4.2652   -3.4443   26.2987 O   0  0  0  0  0  0  0  0  0  0  0  0
    4.4471   -3.0264   27.6362 C   0  0  0  0  0  0  0  0  0  0  0  0
    3.5338   -3.3218   28.1595 H   0  0  0  0  0  0  0  0  0  0  0  0
    5.3154   -3.5188   28.0928 H   0  0  0  0  0  0  0  0  0  0  0  0
    4.5772   -1.9380   27.7108 H   0  0  0  0  0  0  0  0  0  0  0  0
    5.0565   -4.0442   24.2047 C   0  0  0  0  0  0  0  0  0  0  0  0
    6.0323   -4.0044   23.2098 C   0  0  0  0  0  0  0  0  0  0  0  0
    5.9969   -4.8155   22.1250 O   0  0  0  0  0  0  0  0  0  0  0  0
    4.7981   -5.4740   21.7832 C   0  0  0  0  0  0  0  0  0  0  0  0
    4.9372   -5.7755   20.7436 H   0  0  0  0  0  0  0  0  0  0  0  0
    3.9336   -4.8013   21.8726 H   0  0  0  0  0  0  0  0  0  0  0  0
    4.6264   -6.3567   22.4148 H   0  0  0  0  0  0  0  0  0  0  0  0
    4.1203   -4.5702   24.0504 H   0  0  0  0  0  0  0  0  0  0  0  0
    6.6823   -2.1896   26.5569 H   0  0  0  0  0  0  0  0  0  0  0  0
    8.2948   -1.9564   24.7105 H   0  0  0  0  0  0  0  0  0  0  0  0
    8.2366   -3.7518   21.5383 H   0  0  0  0  0  0  0  0  0  0  0  0
    8.8777   -2.2762   22.2595 H   0  0  0  0  0  0  0  0  0  0  0  0
    6.6755    0.0958   19.8532 C   0  0  0  0  0  0  0  0  0  0  0  0
    5.4616    0.7502   20.0994 C   0  0  0  0  0  0  0  0  0  0  0  0
    4.8085    1.3917   19.0389 C   0  0  0  0  0  0  0  0  0  0  0  0
    5.4114    1.3815   17.7770 C   0  0  0  0  0  0  0  0  0  0  0  0
    6.5813    0.7724   17.5240 N   0  0  0  0  0  0  0  0  0  0  0  0
    7.1866    0.1397   18.5402 C   0  0  0  0  0  0  0  0  0  0  0  0
    8.1240   -0.3695   18.3085 H   0  0  0  0  0  0  0  0  0  0  0  0
    4.9402    1.8825   16.9340 H   0  0  0  0  0  0  0  0  0  0  0  0
    3.8617    1.9013   19.1827 H   0  0  0  0  0  0  0  0  0  0  0  0
    5.0441    0.7341   21.1063 H   0  0  0  0  0  0  0  0  0  0  0  0
    7.9608   -0.3903   22.9055 H   0  0  0  0  0  0  0  0  0  0  0  0
    7.4398    1.0730   22.0999 H   0  0  0  0  0  0  0  0  0  0  0  0
   10.0046   -0.4523   21.3778 H   0  0  0  0  0  0  0  0  0  0  0  0
    9.4443    1.0373   20.6308 H   0  0  0  0  0  0  0  0  0  0  0  0
    9.6728    2.2291   22.8388 H   0  0  0  0  0  0  0  0  0  0  0  0
   10.2323    0.7421   23.5892 H   0  0  0  0  0  0  0  0  0  0  0  0
   11.6692    2.2142   21.2968 H   0  0  0  0  0  0  0  0  0  0  0  0
   12.1582    2.2042   22.9928 H   0  0  0  0  0  0  0  0  0  0  0  0
   12.2363    0.7200   22.0438 H   0  0  0  0  0  0  0  0  0  0  0  0
  1  2  1  0
  2  3  1  0
  3  4  1  0
  4  5  1  0
  5  6  1  0
  6  7  2  0
  6  8  1  0
  8  9  1  0
  9 10  2  0
 10 11  1  0
 11 12  2  0
 12 13  1  0
 13 14  1  0
 14 15  1  0
 14 16  1  0
 14 17  1  0
 12 18  1  0
 18 19  2  0
 19 20  1  0
 20 21  1  0
 21 22  1  0
 21 23  1  0
 21 24  1  0
 18 25  1  0
 11 26  1  0
 10 27  1  0
  8 28  1  0
  8 29  1  0
  5 30  1  0
 30 31  2  0
 31 32  1  0
 32 33  2  0
 33 34  1  0
 34 35  2  0
 35 36  1  0
 33 37  1  0
 32 38  1  0
 31 39  1  0
  4 40  1  0
  4 41  1  0
  3 42  1  0
  3 43  1  0
  2 44  1  0
  2 45  1  0
  1 46  1  0
  1 47  1  0
  1 48  1  0
 19  9  1  0
 35 30  1  0
M  END
>  <cnnaffinity>  (1) 
5.6033

>  <plip>  (1) 
-0.07142857142857142

>  <filename>  (1) 
[H][c]1[n][c]([H])[c]([N]([C](=[O])[C]([H])([H])[c]2[c]([H])[c]([H])[c]([O][C]([H])([H])[H])[c]([H])[c]2[O][C]([H])([H])[H])[C]([H])([H])[C]([H])([H])[C]([H])([H])[C]([H])([H])[H])[c]([H])[c]1[H]

>  <combo1>  (1) 
-0.40623334336718747

$$$$
