
     RDKit          3D

 32 35  0  0  0  0  0  0  0  0999 V2000
    5.0504    2.0669   16.3318 H   0  0  0  0  0  0  0  0  0  0  0  0
    5.2694    1.6087   17.2913 C   0  0  0  0  0  0  0  0  0  0  0  0
    6.3764    0.8546   17.3381 N   0  0  0  0  0  0  0  0  0  0  0  0
    6.6758    0.2936   18.5097 C   0  0  0  0  0  0  0  0  0  0  0  0
    7.5711   -0.3245   18.5354 H   0  0  0  0  0  0  0  0  0  0  0  0
    5.9078    0.4522   19.6725 C   0  0  0  0  0  0  0  0  0  0  0  0
    6.4071   -0.2369   20.8622 C   0  0  0  0  0  0  0  0  0  0  0  0
    7.4232   -1.1330   20.7341 N   0  0  0  0  0  0  0  0  0  0  0  0
    7.6256   -1.5665   21.9594 C   0  0  0  0  0  0  0  0  0  0  0  0
    8.8116   -2.3104   22.3662 C   0  0  0  0  0  0  0  0  0  0  0  0
    9.9898   -1.8290   21.8346 C   0  0  0  0  0  0  0  0  0  0  0  0
    9.9697   -1.0439   21.0817 H   0  0  0  0  0  0  0  0  0  0  0  0
   11.2187   -2.2333   22.2112 N   0  0  0  0  0  0  0  0  0  0  0  0
   11.2933   -3.1520   23.1493 C   0  0  0  0  0  0  0  0  0  0  0  0
   12.2935   -3.4935   23.4077 H   0  0  0  0  0  0  0  0  0  0  0  0
   10.1670   -3.7489   23.7831 C   0  0  0  0  0  0  0  0  0  0  0  0
   10.3094   -4.7271   24.8146 C   0  0  0  0  0  0  0  0  0  0  0  0
   11.3002   -4.9637   25.2069 H   0  0  0  0  0  0  0  0  0  0  0  0
    9.1949   -5.3411   25.3296 C   0  0  0  0  0  0  0  0  0  0  0  0
    9.3157   -6.1049   26.0951 H   0  0  0  0  0  0  0  0  0  0  0  0
    7.8964   -5.0122   24.8441 C   0  0  0  0  0  0  0  0  0  0  0  0
    7.0301   -5.5149   25.2669 H   0  0  0  0  0  0  0  0  0  0  0  0
    7.7318   -4.0693   23.8440 C   0  0  0  0  0  0  0  0  0  0  0  0
    6.7574   -3.8877   23.3929 H   0  0  0  0  0  0  0  0  0  0  0  0
    8.8653   -3.3719   23.3236 C   0  0  0  0  0  0  0  0  0  0  0  0
    6.7507   -0.9652   22.7820 N   0  0  0  0  0  0  0  0  0  0  0  0
    6.6592   -1.1298   23.7741 H   0  0  0  0  0  0  0  0  0  0  0  0
    5.9789   -0.0744   22.0987 N   0  0  0  0  0  0  0  0  0  0  0  0
    4.7288    1.2134   19.6045 C   0  0  0  0  0  0  0  0  0  0  0  0
    4.0787    1.3377   20.4731 H   0  0  0  0  0  0  0  0  0  0  0  0
    4.4145    1.8037   18.3823 C   0  0  0  0  0  0  0  0  0  0  0  0
    3.5338    2.4253   18.2591 H   0  0  0  0  0  0  0  0  0  0  0  0
  1  2  1  0
  2  3  2  0
  3  4  1  0
  4  5  1  0
  4  6  2  0
  6  7  1  0
  7  8  1  0
  8  9  2  0
  9 10  1  0
 10 11  2  0
 11 12  1  0
 11 13  1  0
 13 14  2  0
 14 15  1  0
 14 16  1  0
 16 17  2  0
 17 18  1  0
 17 19  1  0
 19 20  1  0
 19 21  2  0
 21 22  1  0
 21 23  1  0
 23 24  1  0
 23 25  2  0
  9 26  1  0
 26 27  1  0
 26 28  1  0
  6 29  1  0
 29 30  1  0
 29 31  2  0
 31 32  1  0
 31  2  1  0
 28  7  2  0
 25 10  1  0
 25 16  1  0
M  END
>  <cnnaffinity>  (1) 
5.5697

>  <plip>  (1) 
-0.14285714285714285

>  <filename>  (1) 
[H][c]1[n][c]([H])[c](-[c]2[n][c](-[c]3[c]([H])[n][c]([H])[c]4[c]([H])[c]([H])[c]([H])[c]([H])[c]34)[n]([H])[n]2)[c]([H])[c]1[H]

>  <combo1>  (1) 
-0.9704529088061409

$$$$
