
     RDKit          3D

 31 33  0  0  0  0  0  0  0  0999 V2000
    0.9164    1.2074   25.1393 H   0  0  0  0  0  0  0  0  0  0  0  0
    1.8701    1.1410   25.6583 C   0  0  0  0  0  0  0  0  0  0  0  0
    2.9479    1.2911   24.8878 N   0  0  0  0  0  0  0  0  0  0  0  0
    4.1587    1.1957   25.4663 C   0  0  0  0  0  0  0  0  0  0  0  0
    5.2956    1.2480   24.5687 C   0  0  0  0  0  0  0  0  0  0  0  0
    6.2267    1.2370   23.7998 C   0  0  0  0  0  0  0  0  0  0  0  0
    7.3872    1.2031   22.8782 C   0  0  0  0  0  0  0  0  0  0  0  0
    8.3004    1.4414   23.4365 H   0  0  0  0  0  0  0  0  0  0  0  0
    7.2614    1.9697   22.1043 H   0  0  0  0  0  0  0  0  0  0  0  0
    7.6629   -0.1551   22.2786 C   0  0  0  0  0  0  0  0  0  0  0  0
    8.3571   -1.0622   22.9111 N   0  0  0  0  0  0  0  0  0  0  0  0
    8.3410   -2.2119   22.1598 N   0  0  0  0  0  0  0  0  0  0  0  0
    7.6531   -1.9544   21.0878 C   0  0  0  0  0  0  0  0  0  0  0  0
    7.3762   -2.6688   20.3283 H   0  0  0  0  0  0  0  0  0  0  0  0
    7.2175   -0.6500   21.0654 N   0  0  0  0  0  0  0  0  0  0  0  0
    6.5930    0.0364   19.9671 C   0  0  0  0  0  0  0  0  0  0  0  0
    7.1623    0.0671   18.6718 C   0  0  0  0  0  0  0  0  0  0  0  0
    8.1200   -0.4236   18.4840 H   0  0  0  0  0  0  0  0  0  0  0  0
    6.5938    0.6879   17.6329 N   0  0  0  0  0  0  0  0  0  0  0  0
    5.4205    1.3070   17.8471 C   0  0  0  0  0  0  0  0  0  0  0  0
    4.9719    1.7852   16.9832 H   0  0  0  0  0  0  0  0  0  0  0  0
    4.7773    1.3385   19.0864 C   0  0  0  0  0  0  0  0  0  0  0  0
    3.8373    1.8665   19.2040 H   0  0  0  0  0  0  0  0  0  0  0  0
    5.3811    0.7011   20.1746 C   0  0  0  0  0  0  0  0  0  0  0  0
    4.9525    0.7108   21.1757 H   0  0  0  0  0  0  0  0  0  0  0  0
    4.3106    1.0349   26.8577 C   0  0  0  0  0  0  0  0  0  0  0  0
    5.3062    1.0443   27.2818 H   0  0  0  0  0  0  0  0  0  0  0  0
    3.1777    0.8807   27.6593 C   0  0  0  0  0  0  0  0  0  0  0  0
    3.2683    0.7297   28.7407 H   0  0  0  0  0  0  0  0  0  0  0  0
    1.9274    0.9163   27.0380 C   0  0  0  0  0  0  0  0  0  0  0  0
    1.0108    0.7775   27.5993 H   0  0  0  0  0  0  0  0  0  0  0  0
  1  2  1  0
  2  3  2  0
  3  4  1  0
  4  5  1  0
  5  6  3  0
  6  7  1  0
  7  8  1  0
  7  9  1  0
  7 10  1  0
 10 11  2  0
 11 12  1  0
 12 13  2  0
 13 14  1  0
 13 15  1  0
 15 16  1  0
 16 17  2  0
 17 18  1  0
 17 19  1  0
 19 20  2  0
 20 21  1  0
 20 22  1  0
 22 23  1  0
 22 24  2  0
 24 25  1  0
  4 26  2  0
 26 27  1  0
 26 28  1  0
 28 29  1  0
 28 30  2  0
 30 31  1  0
 30  2  1  0
 15 10  1  0
 24 16  1  0
M  END
>  <cnnaffinity>  (1) 
5.10608

>  <plip>  (1) 
-0.06896551724137931

>  <filename>  (1) 
[H][c]1[n][c]([C]#[C][C]([H])([H])[c]2[n][n][c]([H])[n]2-[c]2[c]([H])[n][c]([H])[c]([H])[c]2[H])[c]([H])[c]([H])[c]1[H]

>  <combo1>  (1) 
-0.4492404910492918

$$$$
