
     RDKit          3D

 32 35  0  0  0  0  0  0  0  0999 V2000
    4.9200    1.7998   16.9810 H   0  0  0  0  0  0  0  0  0  0  0  0
    5.3841    1.2994   17.8272 C   0  0  0  0  0  0  0  0  0  0  0  0
    6.5426    0.6726   17.5669 N   0  0  0  0  0  0  0  0  0  0  0  0
    7.1507    0.0528   18.5819 C   0  0  0  0  0  0  0  0  0  0  0  0
    8.1133   -0.4128   18.3858 H   0  0  0  0  0  0  0  0  0  0  0  0
    6.6287   -0.0038   19.8881 C   0  0  0  0  0  0  0  0  0  0  0  0
    7.3577   -0.6782   20.8963 N   0  0  0  0  0  0  0  0  0  0  0  0
    8.7603   -0.6455   21.1381 C   0  0  0  0  0  0  0  0  0  0  0  0
    9.5774   -0.0390   20.4644 O   0  0  0  0  0  0  0  0  0  0  0  0
    8.9232   -1.4664   22.3115 C   0  0  0  0  0  0  0  0  0  0  0  0
    9.8925   -1.6807   22.7223 H   0  0  0  0  0  0  0  0  0  0  0  0
    7.7086   -1.9193   22.7185 C   0  0  0  0  0  0  0  0  0  0  0  0
    7.3678   -2.7886   23.8610 C   0  0  0  0  0  0  0  0  0  0  0  0
    6.1322   -3.5086   23.9369 C   0  0  0  0  0  0  0  0  0  0  0  0
    5.4165   -3.4081   23.1238 H   0  0  0  0  0  0  0  0  0  0  0  0
    5.8301   -4.3374   25.0049 C   0  0  0  0  0  0  0  0  0  0  0  0
    4.8873   -4.8769   25.0591 H   0  0  0  0  0  0  0  0  0  0  0  0
    6.8031   -4.4450   26.0321 C   0  0  0  0  0  0  0  0  0  0  0  0
    8.0319   -3.7498   25.9793 C   0  0  0  0  0  0  0  0  0  0  0  0
    8.7101   -4.1295   27.1801 C   0  0  0  0  0  0  0  0  0  0  0  0
    9.6925   -3.8258   27.5262 H   0  0  0  0  0  0  0  0  0  0  0  0
    7.9781   -4.9566   27.8960 N   0  0  0  0  0  0  0  0  0  0  0  0
    6.8326   -5.1433   27.1992 N   0  0  0  0  0  0  0  0  0  0  0  0
    6.1185   -5.7583   27.5580 H   0  0  0  0  0  0  0  0  0  0  0  0
    8.3076   -2.9131   24.8802 C   0  0  0  0  0  0  0  0  0  0  0  0
    9.2377   -2.3564   24.8220 H   0  0  0  0  0  0  0  0  0  0  0  0
    6.7622   -1.4417   21.8745 N   0  0  0  0  0  0  0  0  0  0  0  0
    5.7655   -1.5476   21.9442 H   0  0  0  0  0  0  0  0  0  0  0  0
    5.4176    0.6508   20.1521 C   0  0  0  0  0  0  0  0  0  0  0  0
    5.0121    0.6498   21.1638 H   0  0  0  0  0  0  0  0  0  0  0  0
    4.7929    1.3173   19.0964 C   0  0  0  0  0  0  0  0  0  0  0  0
    3.8650    1.8530   19.2474 H   0  0  0  0  0  0  0  0  0  0  0  0
  1  2  1  0
  2  3  2  0
  3  4  1  0
  4  5  1  0
  4  6  2  0
  6  7  1  0
  7  8  1  0
  8  9  2  0
  8 10  1  0
 10 11  1  0
 10 12  2  0
 12 13  1  0
 13 14  2  0
 14 15  1  0
 14 16  1  0
 16 17  1  0
 16 18  2  0
 18 19  1  0
 19 20  1  0
 20 21  1  0
 20 22  2  0
 22 23  1  0
 23 24  1  0
 19 25  2  0
 25 26  1  0
 12 27  1  0
 27 28  1  0
  6 29  1  0
 29 30  1  0
 29 31  2  0
 31 32  1  0
 31  2  1  0
 27  7  1  0
 25 13  1  0
 23 18  1  0
M  END
>  <cnnaffinity>  (1) 
5.3929

>  <plip>  (1) 
-0.06896551724137931

>  <filename>  (1) 
[H][c]1[n][c]([H])[c](-[n]2[c](=[O])[c]([H])[c](-[c]3[c]([H])[c]([H])[c]4[c]([c]([H])[n][n]4[H])[c]3[H])[n]2[H])[c]([H])[c]1[H]

>  <combo1>  (1) 
-0.4470988998535025

$$$$
