
     RDKit          3D

 26 28  0  0  0  0  0  0  0  0999 V2000
    8.9382   -2.7859   23.7173 H   0  0  0  0  0  0  0  0  0  0  0  0
    8.4885   -2.1940   22.9234 C   0  0  0  0  0  0  0  0  0  0  0  0
    8.1042   -2.8553   21.8276 N   0  0  0  0  0  0  0  0  0  0  0  0
    7.5384   -2.0999   20.8944 C   0  0  0  0  0  0  0  0  0  0  0  0
    7.1508   -2.6040   20.0111 H   0  0  0  0  0  0  0  0  0  0  0  0
    7.3623   -0.7162   20.9809 C   0  0  0  0  0  0  0  0  0  0  0  0
    6.6492    0.0055   19.8832 C   0  0  0  0  0  0  0  0  0  0  0  0
    7.1610    0.0689   18.5740 C   0  0  0  0  0  0  0  0  0  0  0  0
    8.1146   -0.4159   18.3657 H   0  0  0  0  0  0  0  0  0  0  0  0
    6.5577    0.6896   17.5548 N   0  0  0  0  0  0  0  0  0  0  0  0
    5.3921    1.2995   17.8261 C   0  0  0  0  0  0  0  0  0  0  0  0
    4.9091    1.7919   16.9868 H   0  0  0  0  0  0  0  0  0  0  0  0
    4.7936    1.3058   19.0904 C   0  0  0  0  0  0  0  0  0  0  0  0
    3.8705    1.8463   19.2531 H   0  0  0  0  0  0  0  0  0  0  0  0
    5.4268    0.6365   20.1401 C   0  0  0  0  0  0  0  0  0  0  0  0
    5.0277    0.6319   21.1599 H   0  0  0  0  0  0  0  0  0  0  0  0
    7.8426   -0.1271   22.1694 C   0  0  0  0  0  0  0  0  0  0  0  0
    7.8068    1.3651   22.3567 C   0  0  0  0  0  0  0  0  0  0  0  0
    7.7069    2.2726   21.4002 N   0  0  0  0  0  0  0  0  0  0  0  0
    7.7343    3.4797   22.0357 C   0  0  0  0  0  0  0  0  0  0  0  0
    7.6708    4.4129   21.4963 H   0  0  0  0  0  0  0  0  0  0  0  0
    7.8494    3.3180   23.3908 C   0  0  0  0  0  0  0  0  0  0  0  0
    7.9207    4.0364   24.1947 H   0  0  0  0  0  0  0  0  0  0  0  0
    7.8878    1.9636   23.5799 N   0  0  0  0  0  0  0  0  0  0  0  0
    7.9983    1.4360   24.4312 H   0  0  0  0  0  0  0  0  0  0  0  0
    8.3739   -0.8911   23.1477 N   0  0  0  0  0  0  0  0  0  0  0  0
  1  2  1  0
  2  3  2  0
  3  4  1  0
  4  5  1  0
  4  6  2  0
  6  7  1  0
  7  8  2  0
  8  9  1  0
  8 10  1  0
 10 11  2  0
 11 12  1  0
 11 13  1  0
 13 14  1  0
 13 15  2  0
 15 16  1  0
  6 17  1  0
 17 18  1  0
 18 19  2  0
 19 20  1  0
 20 21  1  0
 20 22  2  0
 22 23  1  0
 22 24  1  0
 24 25  1  0
 17 26  2  0
 26  2  1  0
 15  7  1  0
 24 18  1  0
M  END
>  <cnnaffinity>  (1) 
4.51248

>  <plip>  (1) 
-0.034482758620689655

>  <filename>  (1) 
[H][c]1[n][c]([H])[c](-[c]2[c]([H])[n][c]([H])[c]([H])[c]2[H])[c](-[c]2[n][c]([H])[c]([H])[n]2[H])[n]1

>  <combo1>  (1) 
-0.23234106140457783

$$$$
