
     RDKit          3D

 25 25  0  0  0  0  0  0  0  0999 V2000
    8.7759   -1.9148   21.4321 H   0  0  0  0  0  0  0  0  0  0  0  0
    8.4097   -1.4435   20.6128 N   0  0  0  0  0  0  0  0  0  0  0  0
    7.4231   -0.7220   20.9335 C   0  0  0  0  0  0  0  0  0  0  0  0
    6.9802   -0.4827   22.6745 S   0  0  0  0  0  0  0  0  0  0  0  0
    8.0114    0.9892   22.9177 C   0  0  0  0  0  0  0  0  0  0  0  0
    7.5435    2.1125   22.8462 O   0  0  0  0  0  0  0  0  0  0  0  0
    9.4081    0.7236   23.2438 C   0  0  0  0  0  0  0  0  0  0  0  0
    9.8069   -0.2669   23.1054 H   0  0  0  0  0  0  0  0  0  0  0  0
   10.2151    1.6561   23.8071 C   0  0  0  0  0  0  0  0  0  0  0  0
    9.7380    2.8320   24.1990 O   0  0  0  0  0  0  0  0  0  0  0  0
    8.8331    2.9310   23.7989 H   0  0  0  0  0  0  0  0  0  0  0  0
   11.7178    1.3613   24.0275 C   0  0  0  0  0  0  0  0  0  0  0  0
   12.5571    2.0982   24.4635 O   0  0  0  0  0  0  0  0  0  0  0  0
   12.1095    0.1198   23.6565 O   0  0  0  0  0  0  0  0  0  0  0  0
   13.0550    0.2250   23.8767 H   0  0  0  0  0  0  0  0  0  0  0  0
    6.6518    0.0152   19.9151 C   0  0  0  0  0  0  0  0  0  0  0  0
    7.1756    0.0438   18.6138 C   0  0  0  0  0  0  0  0  0  0  0  0
    8.1170   -0.4513   18.4023 H   0  0  0  0  0  0  0  0  0  0  0  0
    6.5785    0.6619   17.5942 N   0  0  0  0  0  0  0  0  0  0  0  0
    5.4209    1.2908   17.8371 C   0  0  0  0  0  0  0  0  0  0  0  0
    4.9584    1.7971   16.9907 H   0  0  0  0  0  0  0  0  0  0  0  0
    4.8097    1.3105   19.0944 C   0  0  0  0  0  0  0  0  0  0  0  0
    3.8782    1.8439   19.2348 H   0  0  0  0  0  0  0  0  0  0  0  0
    5.4342    0.6611   20.1555 C   0  0  0  0  0  0  0  0  0  0  0  0
    4.9906    0.6638   21.1505 H   0  0  0  0  0  0  0  0  0  0  0  0
  1  2  1  0
  2  3  2  3
  3  4  1  0
  4  5  1  0
  5  6  2  0
  5  7  1  0
  7  8  1  0
  7  9  2  3
  9 10  1  0
 10 11  1  0
  9 12  1  0
 12 13  2  0
 12 14  1  0
 14 15  1  0
  3 16  1  0
 16 17  2  0
 17 18  1  0
 17 19  1  0
 19 20  2  0
 20 21  1  0
 20 22  1  0
 22 23  1  0
 22 24  2  0
 24 25  1  0
 24 16  1  0
M  END
>  <cnnaffinity>  (1) 
4.3487

>  <plip>  (1) 
-0.03571428571428571

>  <filename>  (1) 
[H][N]=[C]([S][C](=[O])[C]([H])=[C]([O][H])[C](=[O])[O][H])[c]1[c]([H])[n][c]([H])[c]([H])[c]1[H]

>  <combo1>  (1) 
-0.20523303414154193

$$$$
