
     RDKit          3D

 39 40  0  0  0  0  0  0  0  0999 V2000
    8.8698    1.1722   26.1817 O   0  0  0  0  0  0  0  0  0  0  0  0
    9.1076    0.5891   25.1054 C   0  0  0  0  0  0  0  0  0  0  0  0
    8.7097   -0.5072   24.6734 O   0  0  0  0  0  1  0  0  0  0  0  0
    9.9452    1.4357   24.1124 C   0  0  0  0  0  0  0  0  0  0  0  0
    8.9211    2.2196   23.2721 C   0  0  1  0  0  0  0  0  0  0  0  0
    8.0245    1.2872   22.6166 N   0  0  0  0  0  0  0  0  0  0  0  0
    8.4870    0.3974   21.7053 C   0  0  0  0  0  0  0  0  0  0  0  0
    9.6530    0.3817   21.3346 O   0  0  0  0  0  0  0  0  0  0  0  0
    7.4467   -0.5438   21.0996 C   0  0  0  0  0  0  0  0  0  0  0  0
    6.6574    0.0517   19.9299 C   0  0  0  0  0  0  0  0  0  0  0  0
    5.4232    0.6837   20.1369 C   0  0  0  0  0  0  0  0  0  0  0  0
    4.7892    1.3206   19.0657 C   0  0  0  0  0  0  0  0  0  0  0  0
    5.3988    1.2872   17.8105 C   0  0  0  0  0  0  0  0  0  0  0  0
    6.5503    0.6436   17.5687 N   0  0  0  0  0  0  0  0  0  0  0  0
    7.1503    0.0477   18.6077 C   0  0  0  0  0  0  0  0  0  0  0  0
    8.0872   -0.4605   18.3756 H   0  0  0  0  0  0  0  0  0  0  0  0
    4.9455    1.7955   16.9604 H   0  0  0  0  0  0  0  0  0  0  0  0
    3.8528    1.8528   19.1901 H   0  0  0  0  0  0  0  0  0  0  0  0
    4.9615    0.6773   21.1269 H   0  0  0  0  0  0  0  0  0  0  0  0
    6.7757   -0.8750   21.9026 H   0  0  0  0  0  0  0  0  0  0  0  0
    8.0249   -1.4166   20.7839 H   0  0  0  0  0  0  0  0  0  0  0  0
    7.0967    1.1741   22.9877 H   0  0  0  0  0  0  0  0  0  0  0  0
    8.1340    3.2908   24.0406 C   0  0  0  0  0  0  0  0  0  0  0  0
    7.0627    2.9271   24.8879 C   0  0  0  0  0  0  0  0  0  0  0  0
    6.3138    3.8993   25.5632 C   0  0  0  0  0  0  0  0  0  0  0  0
    6.6546    5.2478   25.4624 C   0  0  0  0  0  0  0  0  0  0  0  0
    7.7392    5.6175   24.6747 C   0  0  0  0  0  0  0  0  0  0  0  0
    8.4574    4.6671   23.9403 C   0  0  0  0  0  0  0  0  0  0  0  0
    9.3711    5.2303   22.8714 C   0  0  0  0  0  0  0  0  0  0  0  0
   10.4788    4.4869   22.6485 F   0  0  0  0  0  0  0  0  0  0  0  0
    9.8327    6.4697   23.1400 F   0  0  0  0  0  0  0  0  0  0  0  0
    8.6723    5.3366   21.7248 F   0  0  0  0  0  0  0  0  0  0  0  0
    8.0389    6.6561   24.5997 H   0  0  0  0  0  0  0  0  0  0  0  0
    6.0898    6.0195   25.9737 H   0  0  0  0  0  0  0  0  0  0  0  0
    5.4807    3.6044   26.1962 H   0  0  0  0  0  0  0  0  0  0  0  0
    6.8309    1.8805   25.0866 H   0  0  0  0  0  0  0  0  0  0  0  0
    9.4761    2.7061   22.4684 H   0  0  0  0  0  0  0  0  0  0  0  0
   10.5073    0.7946   23.4297 H   0  0  0  0  0  0  0  0  0  0  0  0
   10.6326    2.1079   24.6319 H   0  0  0  0  0  0  0  0  0  0  0  0
  1  2  2  0
  2  3  1  0
  2  4  1  0
  4  5  1  0
  5  6  1  0
  6  7  1  0
  7  8  2  0
  7  9  1  0
  9 10  1  0
 10 11  2  0
 11 12  1  0
 12 13  2  0
 13 14  1  0
 14 15  2  0
 15 16  1  0
 13 17  1  0
 12 18  1  0
 11 19  1  0
  9 20  1  0
  9 21  1  0
  6 22  1  0
  5 23  1  0
 23 24  2  0
 24 25  1  0
 25 26  2  0
 26 27  1  0
 27 28  2  0
 28 29  1  0
 29 30  1  0
 29 31  1  0
 29 32  1  0
 27 33  1  0
 26 34  1  0
 25 35  1  0
 24 36  1  0
  5 37  1  6
  4 38  1  0
  4 39  1  0
 15 10  1  0
 28 23  1  0
M  CHG  1   3  -1
M  END
>  <cnnaffinity>  (1) 
4.93793

>  <plip>  (1) 
-0.10714285714285714

>  <filename>  (1) 
[H][c]1[n][c]([H])[c]([C]([H])([H])[C](=[O])[N]([H])[C@@]([H])([c]2[c]([H])[c]([H])[c]([H])[c]([H])[c]2[C]([F])([F])[F])[C]([H])([H])[C](=[O])[O-])[c]([H])[c]1[H]

>  <combo1>  (1) 
-0.5020000992221634

$$$$
