
     RDKit          3D

 34 36  0  0  0  0  0  0  0  0999 V2000
    8.2052    4.2290   21.9467 F   0  0  0  0  0  0  0  0  0  0  0  0
    9.1880    3.3608   22.2604 C   0  0  0  0  0  0  0  0  0  0  0  0
   10.2448    4.1135   22.6395 F   0  0  0  0  0  0  0  0  0  0  0  0
    9.5258    2.7096   21.1418 F   0  0  0  0  0  0  0  0  0  0  0  0
    8.7696    2.4056   23.3903 C   0  0  0  0  0  0  0  0  0  0  0  0
    8.4476    2.9180   24.6560 C   0  0  0  0  0  0  0  0  0  0  0  0
    8.1756    2.0178   25.6853 C   0  0  0  0  0  0  0  0  0  0  0  0
    8.2254    0.6458   25.4197 C   0  0  0  0  0  0  0  0  0  0  0  0
    8.5197    0.2211   24.1133 C   0  0  0  0  0  0  0  0  0  0  0  0
    8.6373   -1.2392   23.6928 C   0  0  0  0  0  0  0  0  0  0  0  0
    7.4387   -1.8317   23.0735 N   0  0  0  0  0  0  0  0  0  0  0  0
    6.6107   -2.7718   23.6292 C   0  0  0  0  0  0  0  0  0  0  0  0
    5.6987   -3.1655   22.7930 N   0  0  0  0  0  0  0  0  0  0  0  0
    5.8910   -2.4579   21.6177 N   0  0  0  0  0  0  0  0  0  0  0  0
    6.9144   -1.6721   21.8071 C   0  0  0  0  0  0  0  0  0  0  0  0
    7.5123   -0.7760   20.9353 N   0  0  0  0  0  0  0  0  0  0  0  0
    6.7735   -0.1787   19.8543 C   0  0  0  0  0  0  0  0  0  0  0  0
    5.5577    0.4446   20.1447 C   0  0  0  0  0  0  0  0  0  0  0  0
    4.9115    1.1801   19.1458 C   0  0  0  0  0  0  0  0  0  0  0  0
    5.4918    1.2499   17.8759 C   0  0  0  0  0  0  0  0  0  0  0  0
    6.6329    0.6164   17.5606 N   0  0  0  0  0  0  0  0  0  0  0  0
    7.2580   -0.0750   18.5277 C   0  0  0  0  0  0  0  0  0  0  0  0
    8.1942   -0.5583   18.2509 H   0  0  0  0  0  0  0  0  0  0  0  0
    5.0253    1.8360   17.0855 H   0  0  0  0  0  0  0  0  0  0  0  0
    3.9959    1.7187   19.3521 H   0  0  0  0  0  0  0  0  0  0  0  0
    5.1479    0.3277   21.1494 H   0  0  0  0  0  0  0  0  0  0  0  0
    7.9909   -0.0609   21.4863 H   0  0  0  0  0  0  0  0  0  0  0  0
    6.7559   -3.1301   24.6416 H   0  0  0  0  0  0  0  0  0  0  0  0
    9.4501   -1.2797   22.9596 H   0  0  0  0  0  0  0  0  0  0  0  0
    8.9222   -1.8649   24.5442 H   0  0  0  0  0  0  0  0  0  0  0  0
    8.7526    1.0915   23.1231 N   0  0  0  0  0  0  0  0  0  0  0  0
    8.0526   -0.0867   26.1983 H   0  0  0  0  0  0  0  0  0  0  0  0
    7.9482    2.3851   26.6867 H   0  0  0  0  0  0  0  0  0  0  0  0
    8.4310    3.9900   24.8206 H   0  0  0  0  0  0  0  0  0  0  0  0
  1  2  1  0
  2  3  1  0
  2  4  1  0
  2  5  1  0
  5  6  2  0
  6  7  1  0
  7  8  2  0
  8  9  1  0
  9 10  1  0
 10 11  1  0
 11 12  1  0
 12 13  2  0
 13 14  1  0
 14 15  2  0
 15 16  1  0
 16 17  1  0
 17 18  2  0
 18 19  1  0
 19 20  2  0
 20 21  1  0
 21 22  2  0
 22 23  1  0
 20 24  1  0
 19 25  1  0
 18 26  1  0
 16 27  1  0
 12 28  1  0
 10 29  1  0
 10 30  1  0
  9 31  2  0
  8 32  1  0
  7 33  1  0
  6 34  1  0
 31  5  1  0
 15 11  1  0
 22 17  1  0
M  END
>  <cnnaffinity>  (1) 
5.38383

>  <plip>  (1) 
-0.03571428571428571

>  <filename>  (1) 
[H][c]1[n][c]([H])[c]([N]([H])[c]2[n][n][c]([H])[n]2[C]([H])([H])[c]2[n][c]([C]([F])([F])[F])[c]([H])[c]([H])[c]2[H])[c]([H])[c]1[H]

>  <combo1>  (1) 
-0.20011744261458578

$$$$
