
     RDKit          3D

 37 40  0  0  0  0  0  0  0  0999 V2000
   14.3847    5.4335   21.7612 O   0  0  0  0  0  0  0  0  0  0  0  0
   13.5096    4.7035   22.5035 C   0  0  0  0  0  0  0  0  0  0  0  0
   12.3735    5.2889   23.0666 C   0  0  0  0  0  0  0  0  0  0  0  0
   11.4711    4.5219   23.8041 C   0  0  0  0  0  0  0  0  0  0  0  0
   11.6884    3.1450   23.9570 C   0  0  0  0  0  0  0  0  0  0  0  0
   10.5264    2.1461   24.8543 S   0  0  0  0  0  0  0  0  0  0  0  0
    9.2973    1.8230   23.5515 C   0  0  0  0  0  0  0  0  0  0  0  0
    8.1351    0.9643   24.0753 C   0  0  0  0  0  0  0  0  0  0  0  0
    7.0412    0.8116   22.9908 C   0  0  0  0  0  0  0  0  0  0  0  0
    7.5220   -0.2811   22.1683 N   0  0  0  0  0  0  0  0  0  0  0  0
    8.3434   -1.1875   22.7628 C   0  0  0  0  0  0  0  0  0  0  0  0
    8.7368   -2.1055   21.9279 N   0  0  0  0  0  0  0  0  0  0  0  0
    8.1636   -1.7816   20.7132 N   0  0  0  0  0  0  0  0  0  0  0  0
    7.4372   -0.7017   20.8740 C   0  0  0  0  0  0  0  0  0  0  0  0
    6.6515   -0.0071   19.8537 C   0  0  0  0  0  0  0  0  0  0  0  0
    5.4354    0.6418   20.1088 C   0  0  0  0  0  0  0  0  0  0  0  0
    4.8077    1.3065   19.0579 C   0  0  0  0  0  0  0  0  0  0  0  0
    5.4175    1.3058   17.7976 C   0  0  0  0  0  0  0  0  0  0  0  0
    6.5641    0.6609   17.5343 N   0  0  0  0  0  0  0  0  0  0  0  0
    7.1537    0.0147   18.5444 C   0  0  0  0  0  0  0  0  0  0  0  0
    8.0764   -0.5124   18.3128 H   0  0  0  0  0  0  0  0  0  0  0  0
    4.9639    1.8382   16.9637 H   0  0  0  0  0  0  0  0  0  0  0  0
    3.8743    1.8360   19.2039 H   0  0  0  0  0  0  0  0  0  0  0  0
    4.9841    0.6236   21.1026 H   0  0  0  0  0  0  0  0  0  0  0  0
    8.6777   -0.7742   24.4297 S   0  0  0  0  0  0  0  0  0  0  0  0
    6.9195    1.7247   22.3971 H   0  0  0  0  0  0  0  0  0  0  0  0
    6.0725    0.5568   23.4419 H   0  0  0  0  0  0  0  0  0  0  0  0
    7.7187    1.3842   24.9938 H   0  0  0  0  0  0  0  0  0  0  0  0
    8.9086    2.7778   23.1782 H   0  0  0  0  0  0  0  0  0  0  0  0
    9.7850    1.3025   22.7193 H   0  0  0  0  0  0  0  0  0  0  0  0
   12.8464    2.5682   23.4072 C   0  0  0  0  0  0  0  0  0  0  0  0
   13.7695    3.3485   22.7107 C   0  0  0  0  0  0  0  0  0  0  0  0
   14.7011    2.9303   22.3501 H   0  0  0  0  0  0  0  0  0  0  0  0
   13.0109    1.4996   23.5108 H   0  0  0  0  0  0  0  0  0  0  0  0
   10.5881    4.9852   24.2411 H   0  0  0  0  0  0  0  0  0  0  0  0
   12.1975    6.3450   22.9293 H   0  0  0  0  0  0  0  0  0  0  0  0
   13.9215    6.2397   21.5161 H   0  0  0  0  0  0  0  0  0  0  0  0
  1  2  1  0
  2  3  2  0
  3  4  1  0
  4  5  2  0
  5  6  1  0
  6  7  1  0
  7  8  1  0
  8  9  1  0
  9 10  1  0
 10 11  1  0
 11 12  2  0
 12 13  1  0
 13 14  2  0
 14 15  1  0
 15 16  2  0
 16 17  1  0
 17 18  2  0
 18 19  1  0
 19 20  2  0
 20 21  1  0
 18 22  1  0
 17 23  1  0
 16 24  1  0
 11 25  1  0
  9 26  1  0
  9 27  1  0
  8 28  1  0
  7 29  1  0
  7 30  1  0
  5 31  1  0
 31 32  2  0
 32 33  1  0
 31 34  1  0
  4 35  1  0
  3 36  1  0
  1 37  1  0
 32  2  1  0
 25  8  1  0
 14 10  1  0
 20 15  1  0
M  END
>  <cnnaffinity>  (1) 
5.91817

>  <plip>  (1) 
-0.06451612903225806

>  <filename>  (1) 
[H][O][c]1[c]([H])[c]([H])[c]([S][C]([H])([H])[C]2([H])[S][c]3[n][n][c](-[c]4[c]([H])[n][c]([H])[c]([H])[c]4[H])[n]3[C]2([H])[H])[c]([H])[c]1[H]

>  <combo1>  (1) 
-0.37165380280941

$$$$
