
     RDKit          3D

 34 36  0  0  0  0  0  0  0  0999 V2000
    4.9512    1.8683   17.0177 H   0  0  0  0  0  0  0  0  0  0  0  0
    5.3827    1.3319   17.8626 C   0  0  0  0  0  0  0  0  0  0  0  0
    6.5034    0.6356   17.6171 N   0  0  0  0  0  0  0  0  0  0  0  0
    7.0752   -0.0108   18.6418 C   0  0  0  0  0  0  0  0  0  0  0  0
    7.9787   -0.5786   18.4320 H   0  0  0  0  0  0  0  0  0  0  0  0
    6.5654    0.0177   19.9462 C   0  0  0  0  0  0  0  0  0  0  0  0
    7.2017   -0.6774   21.0169 N   0  0  0  0  0  0  0  0  0  0  0  0
    6.4707   -1.5223   21.7837 N   0  0  0  0  0  0  0  0  0  0  0  0
    7.2330   -1.9181   22.7305 N   0  0  0  0  0  0  0  0  0  0  0  0
    8.4670   -1.3697   22.6346 N   0  0  0  0  0  0  0  0  0  0  0  0
    8.4440   -0.6138   21.5647 C   0  0  0  0  0  0  0  0  0  0  0  0
    9.8386    0.1868   20.8673 S   0  0  0  0  0  0  0  0  0  0  0  0
    9.6969    1.7535   21.7835 C   0  0  0  0  0  0  0  0  0  0  0  0
   10.2862    1.9402   22.8159 O   0  0  0  0  0  0  0  0  0  0  0  0
    8.8804    2.6482   21.1530 N   0  0  0  0  0  0  0  0  0  0  0  0
    8.2555    2.2504   20.4629 H   0  0  0  0  0  0  0  0  0  0  0  0
    8.2859    3.7445   21.9281 C   0  0  0  0  0  0  0  0  0  0  0  0
    8.2321    4.6555   21.3164 H   0  0  0  0  0  0  0  0  0  0  0  0
    8.9395    3.9782   22.7766 H   0  0  0  0  0  0  0  0  0  0  0  0
    6.9098    3.3326   22.4004 C   0  0  0  0  0  0  0  0  0  0  0  0
    5.7508    3.8533   21.8019 C   0  0  0  0  0  0  0  0  0  0  0  0
    5.8473    4.6054   21.0249 H   0  0  0  0  0  0  0  0  0  0  0  0
    4.4778    3.4530   22.2239 C   0  0  0  0  0  0  0  0  0  0  0  0
    3.5945    3.8133   21.6943 H   0  0  0  0  0  0  0  0  0  0  0  0
    4.3517    2.5709   23.3025 C   0  0  0  0  0  0  0  0  0  0  0  0
    3.3694    2.3345   23.7033 H   0  0  0  0  0  0  0  0  0  0  0  0
    5.5015    2.0170   23.8853 C   0  0  0  0  0  0  0  0  0  0  0  0
    5.4104    1.2983   24.6967 H   0  0  0  0  0  0  0  0  0  0  0  0
    6.7720    2.3772   23.4252 C   0  0  0  0  0  0  0  0  0  0  0  0
    7.6645    1.9413   23.8794 H   0  0  0  0  0  0  0  0  0  0  0  0
    5.3793    0.7092   20.1958 C   0  0  0  0  0  0  0  0  0  0  0  0
    4.9414    0.6974   21.1947 H   0  0  0  0  0  0  0  0  0  0  0  0
    4.7847    1.3842   19.1264 C   0  0  0  0  0  0  0  0  0  0  0  0
    3.8649    1.9444   19.2599 H   0  0  0  0  0  0  0  0  0  0  0  0
  1  2  1  0
  2  3  2  0
  3  4  1  0
  4  5  1  0
  4  6  2  0
  6  7  1  0
  7  8  1  0
  8  9  2  0
  9 10  1  0
 10 11  2  0
 11 12  1  0
 12 13  1  0
 13 14  2  0
 13 15  1  0
 15 16  1  0
 15 17  1  0
 17 18  1  0
 17 19  1  0
 17 20  1  0
 20 21  2  0
 21 22  1  0
 21 23  1  0
 23 24  1  0
 23 25  2  0
 25 26  1  0
 25 27  1  0
 27 28  1  0
 27 29  2  0
 29 30  1  0
  6 31  1  0
 31 32  1  0
 31 33  2  0
 33 34  1  0
 33  2  1  0
 11  7  1  0
 29 20  1  0
M  END
>  <cnnaffinity>  (1) 
4.9309

>  <plip>  (1) 
-0.07142857142857142

>  <filename>  (1) 
[H][c]1[n][c]([H])[c](-[n]2[n][n][n][c]2[S][C](=[O])[N]([H])[C]([H])([H])[c]2[c]([H])[c]([H])[c]([H])[c]([H])[c]2[H])[c]([H])[c]1[H]

>  <combo1>  (1) 
-0.375858409108718

$$$$
