
     RDKit          3D

 33 36  0  0  0  0  0  0  0  0999 V2000
    6.8286    3.9096   23.9125 H   0  0  0  0  0  0  0  0  0  0  0  0
    7.1951    3.1785   23.2037 C   0  0  0  0  0  0  0  0  0  0  0  0
    7.7123    3.4972   21.9848 N   0  0  0  0  0  0  0  0  0  0  0  0
    7.9891    2.3183   21.4777 C   0  0  0  0  0  0  0  0  0  0  0  0
    8.3749    2.0922   20.4907 H   0  0  0  0  0  0  0  0  0  0  0  0
    7.6656    1.3351   22.3524 N   0  0  0  0  0  0  0  0  0  0  0  0
    7.7234   -0.0698   22.1699 C   0  0  0  0  0  0  0  0  0  0  0  0
    7.3105   -0.6788   21.0264 C   0  0  0  0  0  0  0  0  0  0  0  0
    6.6106    0.0147   19.9119 C   0  0  0  0  0  0  0  0  0  0  0  0
    7.1308    0.0406   18.5996 C   0  0  0  0  0  0  0  0  0  0  0  0
    8.0823   -0.4413   18.3654 H   0  0  0  0  0  0  0  0  0  0  0  0
    6.5444    0.6585   17.5676 N   0  0  0  0  0  0  0  0  0  0  0  0
    5.3892    1.3000   17.8056 C   0  0  0  0  0  0  0  0  0  0  0  0
    4.9452    1.8200   16.9586 H   0  0  0  0  0  0  0  0  0  0  0  0
    4.7728    1.3309   19.0617 C   0  0  0  0  0  0  0  0  0  0  0  0
    3.8409    1.8724   19.1973 H   0  0  0  0  0  0  0  0  0  0  0  0
    5.3971    0.6873   20.1299 C   0  0  0  0  0  0  0  0  0  0  0  0
    4.9697    0.6973   21.1340 H   0  0  0  0  0  0  0  0  0  0  0  0
    7.6851   -2.1077   20.7633 C   0  0  0  0  0  0  0  0  0  0  0  0
    8.5557   -2.0563   20.0979 H   0  0  0  0  0  0  0  0  0  0  0  0
    6.8730   -2.5936   20.2103 H   0  0  0  0  0  0  0  0  0  0  0  0
    8.0615   -2.9333   22.0051 C   0  0  1  0  0  0  0  0  0  0  0  0
    8.3704   -3.9281   21.6784 H   0  0  0  0  0  0  0  0  0  0  0  0
    9.4540   -2.1129   22.8454 S   0  0  0  0  0  0  0  0  0  0  0  0
    8.2318   -0.8554   23.3533 C   0  0  2  0  0  0  0  0  0  0  0  0
    8.6950   -0.1744   24.0706 H   0  0  0  0  0  0  0  0  0  0  0  0
    7.0838   -1.7097   23.9598 C   0  0  0  0  0  0  0  0  0  0  0  0
    6.1669   -1.1092   24.0052 H   0  0  0  0  0  0  0  0  0  0  0  0
    7.3555   -1.9781   24.9874 H   0  0  0  0  0  0  0  0  0  0  0  0
    6.9453   -2.9851   23.0758 C   0  0  0  0  0  0  0  0  0  0  0  0
    5.9632   -3.0614   22.5948 H   0  0  0  0  0  0  0  0  0  0  0  0
    7.0570   -3.8834   23.6961 H   0  0  0  0  0  0  0  0  0  0  0  0
    7.1542    1.8892   23.4806 N   0  0  0  0  0  0  0  0  0  0  0  0
  1  2  1  0
  2  3  1  0
  3  4  2  0
  4  5  1  0
  4  6  1  0
  6  7  1  0
  7  8  2  0
  8  9  1  0
  9 10  2  0
 10 11  1  0
 10 12  1  0
 12 13  2  0
 13 14  1  0
 13 15  1  0
 15 16  1  0
 15 17  2  0
 17 18  1  0
  8 19  1  0
 19 20  1  0
 19 21  1  0
 19 22  1  0
 22 23  1  6
 22 24  1  0
 24 25  1  0
 25 26  1  1
 25 27  1  0
 27 28  1  0
 27 29  1  0
 27 30  1  0
 30 31  1  0
 30 32  1  0
  6 33  1  0
 33  2  2  0
 25  7  1  0
 17  9  1  0
 30 22  1  0
M  END
>  <cnnaffinity>  (1) 
5.00487

>  <plip>  (1) 
-0.03571428571428571

>  <filename>  (1) 
[H][c]1[n][c]([H])[n]([C]2=[C]([c]3[c]([H])[n][c]([H])[c]([H])[c]3[H])[C]([H])([H])[C@@]3([H])[S][C@]2([H])[C]([H])([H])[C]3([H])[H])[n]1

>  <combo1>  (1) 
-0.22037862603809613

$$$$
