
     RDKit          3D

 31 32  0  0  0  0  0  0  0  0999 V2000
    5.0045    1.8026   16.9359 H   0  0  0  0  0  0  0  0  0  0  0  0
    5.4558    1.3050   17.7895 C   0  0  0  0  0  0  0  0  0  0  0  0
    6.6169    0.6629   17.5563 N   0  0  0  0  0  0  0  0  0  0  0  0
    7.1854    0.0416   18.5900 C   0  0  0  0  0  0  0  0  0  0  0  0
    8.1177   -0.4818   18.3797 H   0  0  0  0  0  0  0  0  0  0  0  0
    6.6559    0.0118   19.8926 C   0  0  0  0  0  0  0  0  0  0  0  0
    7.4390   -0.7263   20.8214 N   0  0  0  0  0  0  0  0  0  0  0  0
    6.9394   -0.8095   21.9629 N   0  0  0  0  0  0  0  0  0  0  0  0
    7.6444   -1.5860   22.8034 N   0  0  0  0  0  0  0  0  0  0  0  0
    8.6440   -1.5238   22.6454 H   0  0  0  0  0  0  0  0  0  0  0  0
    7.2563   -1.5346   24.2012 C   0  0  0  0  0  0  0  0  0  0  0  0
    6.2380   -1.1217   24.2637 H   0  0  0  0  0  0  0  0  0  0  0  0
    8.1955   -0.6108   24.9970 C   0  0  0  0  0  0  0  0  0  0  0  0
    8.2163    0.3783   24.5196 H   0  0  0  0  0  0  0  0  0  0  0  0
    9.2172   -1.0071   24.9215 H   0  0  0  0  0  0  0  0  0  0  0  0
    7.7604   -0.5158   26.4652 C   0  0  0  0  0  0  0  0  0  0  0  0
    6.8431    0.0828   26.5122 H   0  0  0  0  0  0  0  0  0  0  0  0
    8.5134    0.0290   27.0489 H   0  0  0  0  0  0  0  0  0  0  0  0
    7.5104   -1.8959   27.1145 C   0  0  0  0  0  0  0  0  0  0  0  0
    6.9473   -1.7331   28.0411 H   0  0  0  0  0  0  0  0  0  0  0  0
    8.4766   -2.3332   27.3862 H   0  0  0  0  0  0  0  0  0  0  0  0
    6.7417   -2.9181   26.2476 C   0  0  0  0  0  0  0  0  0  0  0  0
    6.8308   -3.9218   26.6833 H   0  0  0  0  0  0  0  0  0  0  0  0
    5.6701   -2.6828   26.2488 H   0  0  0  0  0  0  0  0  0  0  0  0
    7.2195   -2.9484   24.7901 C   0  0  0  0  0  0  0  0  0  0  0  0
    6.5622   -3.5671   24.1690 H   0  0  0  0  0  0  0  0  0  0  0  0
    8.2178   -3.3979   24.7076 H   0  0  0  0  0  0  0  0  0  0  0  0
    5.4337    0.6794   20.1250 C   0  0  0  0  0  0  0  0  0  0  0  0
    4.9870    0.6689   21.1228 H   0  0  0  0  0  0  0  0  0  0  0  0
    4.8309    1.3352   19.0438 C   0  0  0  0  0  0  0  0  0  0  0  0
    3.8926    1.8708   19.1636 H   0  0  0  0  0  0  0  0  0  0  0  0
  1  2  1  0
  2  3  2  0
  3  4  1  0
  4  5  1  0
  4  6  2  0
  6  7  1  0
  7  8  2  3
  8  9  1  0
  9 10  1  0
  9 11  1  0
 11 12  1  0
 11 13  1  0
 13 14  1  0
 13 15  1  0
 13 16  1  0
 16 17  1  0
 16 18  1  0
 16 19  1  0
 19 20  1  0
 19 21  1  0
 19 22  1  0
 22 23  1  0
 22 24  1  0
 22 25  1  0
 25 26  1  0
 25 27  1  0
  6 28  1  0
 28 29  1  0
 28 30  2  0
 30 31  1  0
 30  2  1  0
 25 11  1  0
M  END
>  <cnnaffinity>  (1) 
4.3415

>  <plip>  (1) 
-0.07142857142857142

>  <filename>  (1) 
[H][c]1[n][c]([H])[c]([N]=[N][N]([H])[C]2([H])[C]([H])([H])[C]([H])([H])[C]([H])([H])[C]([H])([H])[C]2([H])[H])[c]([H])[c]1[H]

>  <combo1>  (1) 
-0.5060239166379356

$$$$
