
     RDKit          3D

 33 34  0  0  0  0  0  0  0  0999 V2000
    4.9340    1.7972   16.9870 H   0  0  0  0  0  0  0  0  0  0  0  0
    5.3976    1.2951   17.8293 C   0  0  0  0  0  0  0  0  0  0  0  0
    6.5598    0.6721   17.5720 N   0  0  0  0  0  0  0  0  0  0  0  0
    7.1758    0.0567   18.5851 C   0  0  0  0  0  0  0  0  0  0  0  0
    8.1128   -0.4391   18.3390 H   0  0  0  0  0  0  0  0  0  0  0  0
    6.6739    0.0141   19.8972 C   0  0  0  0  0  0  0  0  0  0  0  0
    7.3912   -0.6642   20.9155 N   0  0  0  0  0  0  0  0  0  0  0  0
    8.7600   -0.7869   21.0385 C   0  0  0  0  0  0  0  0  0  0  0  0
    9.3936   -0.3180   20.3020 H   0  0  0  0  0  0  0  0  0  0  0  0
    9.0331   -1.5100   22.1717 C   0  0  0  0  0  0  0  0  0  0  0  0
   10.0161   -1.7999   22.5332 H   0  0  0  0  0  0  0  0  0  0  0  0
    7.7843   -1.8562   22.7825 C   0  0  0  0  0  0  0  0  0  0  0  0
    7.5460   -2.7117   24.0186 C   0  0  0  0  0  0  0  0  0  0  0  0
    8.4786   -2.7847   24.6006 H   0  0  0  0  0  0  0  0  0  0  0  0
    6.8135   -2.2579   24.7066 H   0  0  0  0  0  0  0  0  0  0  0  0
    7.0542   -4.0688   23.7237 N   0  0  0  0  0  0  0  0  0  0  0  0
    6.2975   -3.9732   23.0511 H   0  0  0  0  0  0  0  0  0  0  0  0
    8.0656   -4.9579   23.1399 C   0  0  0  0  0  0  0  0  0  0  0  0
    8.7779   -4.3813   22.5206 H   0  0  0  0  0  0  0  0  0  0  0  0
    7.3869   -5.9743   22.2360 C   0  0  0  0  0  0  0  0  0  0  0  0
    8.1466   -6.6552   21.8581 H   0  0  0  0  0  0  0  0  0  0  0  0
    6.8933   -5.5092   21.3729 H   0  0  0  0  0  0  0  0  0  0  0  0
    6.6473   -6.5574   22.7956 H   0  0  0  0  0  0  0  0  0  0  0  0
    8.8185   -5.6344   24.2870 C   0  0  0  0  0  0  0  0  0  0  0  0
    9.3880   -4.8918   24.8581 H   0  0  0  0  0  0  0  0  0  0  0  0
    9.5066   -6.4133   23.9415 H   0  0  0  0  0  0  0  0  0  0  0  0
    8.0915   -6.1034   24.9593 H   0  0  0  0  0  0  0  0  0  0  0  0
    6.8134   -1.3294   21.9710 C   0  0  0  0  0  0  0  0  0  0  0  0
    5.7397   -1.3949   22.0117 H   0  0  0  0  0  0  0  0  0  0  0  0
    5.4503    0.6549   20.1543 C   0  0  0  0  0  0  0  0  0  0  0  0
    5.0194    0.6657   21.1578 H   0  0  0  0  0  0  0  0  0  0  0  0
    4.8107    1.3079   19.0998 C   0  0  0  0  0  0  0  0  0  0  0  0
    3.8758    1.8377   19.2480 H   0  0  0  0  0  0  0  0  0  0  0  0
  1  2  1  0
  2  3  2  0
  3  4  1  0
  4  5  1  0
  4  6  2  0
  6  7  1  0
  7  8  1  0
  8  9  1  0
  8 10  2  0
 10 11  1  0
 10 12  1  0
 12 13  1  0
 13 14  1  0
 13 15  1  0
 13 16  1  0
 16 17  1  0
 16 18  1  0
 18 19  1  0
 18 20  1  0
 20 21  1  0
 20 22  1  0
 20 23  1  0
 18 24  1  0
 24 25  1  0
 24 26  1  0
 24 27  1  0
 12 28  2  0
 28 29  1  0
  6 30  1  0
 30 31  1  0
 30 32  2  0
 32 33  1  0
 32  2  1  0
 28  7  1  0
M  END
>  <cnnaffinity>  (1) 
4.66899

>  <plip>  (1) 
-0.034482758620689655

>  <filename>  (1) 
[H][c]1[n][c]([H])[c](-[n]2[c]([H])[c]([H])[c]([C]([H])([H])[N]([H])[C]([H])([C]([H])([H])[H])[C]([H])([H])[H])[c]2[H])[c]([H])[c]1[H]

>  <combo1>  (1) 
-0.24926405817063596

$$$$
