
     RDKit          3D

 36 39  0  0  0  0  0  0  0  0999 V2000
    4.9763    1.8044   17.0172 H   0  0  0  0  0  0  0  0  0  0  0  0
    5.4367    1.2923   17.8570 C   0  0  0  0  0  0  0  0  0  0  0  0
    6.6040    0.6730   17.6061 N   0  0  0  0  0  0  0  0  0  0  0  0
    7.1892    0.0397   18.6289 C   0  0  0  0  0  0  0  0  0  0  0  0
    8.1310   -0.4697   18.4383 H   0  0  0  0  0  0  0  0  0  0  0  0
    6.6560   -0.0032   19.9298 C   0  0  0  0  0  0  0  0  0  0  0  0
    7.3779   -0.7140   20.8558 O   0  0  0  0  0  0  0  0  0  0  0  0
    7.2980   -0.4001   22.1842 C   0  0  0  0  0  0  0  0  0  0  0  0
    7.1809   -1.3482   23.2119 C   0  0  0  0  0  0  0  0  0  0  0  0
    7.1347   -2.4234   23.1096 H   0  0  0  0  0  0  0  0  0  0  0  0
    7.1462   -0.7513   24.4038 N   0  0  0  0  0  0  0  0  0  0  0  0
    7.2550    0.5540   24.1336 N   0  0  0  0  0  0  0  0  0  0  0  0
    7.2445    1.2215   24.8931 H   0  0  0  0  0  0  0  0  0  0  0  0
    7.3733    0.8328   22.8079 C   0  0  0  0  0  0  0  0  0  0  0  0
    7.4982    2.2295   22.2744 C   0  0  0  0  0  0  0  0  0  0  0  0
    7.8050    2.1873   21.2239 H   0  0  0  0  0  0  0  0  0  0  0  0
    6.5155    2.7216   22.2983 H   0  0  0  0  0  0  0  0  0  0  0  0
    8.4465    3.0486   23.0296 N   0  0  0  0  0  0  0  0  0  0  0  0
    8.1025    3.8610   24.1044 C   0  0  0  0  0  0  0  0  0  0  0  0
    6.9680    4.0530   24.4771 O   0  0  0  0  0  0  0  0  0  0  0  0
    9.3802    4.3890   24.6716 C   0  0  0  0  0  0  0  0  0  0  0  0
    9.6188    5.3550   25.6518 C   0  0  0  0  0  0  0  0  0  0  0  0
    8.8009    5.7850   26.2298 H   0  0  0  0  0  0  0  0  0  0  0  0
   10.9444    5.7728   25.8410 C   0  0  0  0  0  0  0  0  0  0  0  0
   11.1599    6.5357   26.5849 H   0  0  0  0  0  0  0  0  0  0  0  0
   12.0052    5.1916   25.1075 C   0  0  0  0  0  0  0  0  0  0  0  0
   13.0325    5.5164   25.2730 H   0  0  0  0  0  0  0  0  0  0  0  0
   11.7529    4.1870   24.1690 C   0  0  0  0  0  0  0  0  0  0  0  0
   12.5565    3.7194   23.6064 H   0  0  0  0  0  0  0  0  0  0  0  0
   10.4243    3.8071   23.9594 C   0  0  0  0  0  0  0  0  0  0  0  0
    9.8279    2.8784   22.9525 C   0  0  0  0  0  0  0  0  0  0  0  0
   10.3913    2.1248   22.1965 O   0  0  0  0  0  0  0  0  0  0  0  0
    5.4365    0.6320   20.1845 C   0  0  0  0  0  0  0  0  0  0  0  0
    5.0022    0.6179   21.1855 H   0  0  0  0  0  0  0  0  0  0  0  0
    4.8215    1.2915   19.1132 C   0  0  0  0  0  0  0  0  0  0  0  0
    3.8788    1.8116   19.2447 H   0  0  0  0  0  0  0  0  0  0  0  0
  1  2  1  0
  2  3  2  0
  3  4  1  0
  4  5  1  0
  4  6  2  0
  6  7  1  0
  7  8  1  0
  8  9  1  0
  9 10  1  0
  9 11  2  0
 11 12  1  0
 12 13  1  0
 12 14  1  0
 14 15  1  0
 15 16  1  0
 15 17  1  0
 15 18  1  0
 18 19  1  0
 19 20  2  0
 19 21  1  0
 21 22  2  0
 22 23  1  0
 22 24  1  0
 24 25  1  0
 24 26  2  0
 26 27  1  0
 26 28  1  0
 28 29  1  0
 28 30  2  0
 30 31  1  0
 31 32  2  0
  6 33  1  0
 33 34  1  0
 33 35  2  0
 35 36  1  0
 35  2  1  0
 14  8  2  0
 31 18  1  0
 30 21  1  0
M  END
>  <cnnaffinity>  (1) 
5.31481

>  <plip>  (1) 
-0.10714285714285714

>  <filename>  (1) 
[H][c]1[n][c]([H])[c]([O][c]2[c]([H])[n][n]([H])[c]2[C]([H])([H])[N]2[C](=[O])[c]3[c]([H])[c]([H])[c]([H])[c]([H])[c]3[C]2=[O])[c]([H])[c]1[H]

>  <combo1>  (1) 
-0.5926003810617992

$$$$
