
     RDKit          3D

 44 47  0  0  0  0  0  0  0  0999 V2000
    5.8515   -2.6165   21.5382 C   0  0  0  0  0  0  0  0  0  0  0  0
    6.6506   -1.4757   21.9277 N   0  0  0  0  0  0  0  0  0  0  0  0
    6.7429   -1.0431   23.2183 C   0  0  0  0  0  0  0  0  0  0  0  0
    6.2542   -1.5566   24.2005 O   0  0  0  0  0  0  0  0  0  0  0  0
    7.5518    0.0917   23.2422 N   0  0  0  0  0  0  0  0  0  0  0  0
    7.6035    1.0258   24.3661 C   0  0  0  0  0  0  0  0  0  0  0  0
    6.4293    2.0184   24.3569 C   0  0  2  0  0  0  0  0  0  0  0  0
    6.4633    3.0107   23.1830 C   0  0  0  0  0  0  0  0  0  0  0  0
    5.4870    4.1506   23.3839 C   0  0  0  0  0  0  0  0  0  0  0  0
    5.1288    4.9640   22.3010 C   0  0  0  0  0  0  0  0  0  0  0  0
    4.2391    6.0269   22.4688 C   0  0  0  0  0  0  0  0  0  0  0  0
    3.6985    6.2870   23.7301 C   0  0  0  0  0  0  0  0  0  0  0  0
    4.0512    5.4851   24.8194 C   0  0  0  0  0  0  0  0  0  0  0  0
    4.9487    4.4175   24.6581 C   0  0  0  0  0  0  0  0  0  0  0  0
    5.3155    3.4981   25.8189 C   0  0  0  0  0  0  0  0  0  0  0  0
    6.4911    2.7387   25.5778 O   0  0  0  0  0  0  0  0  0  0  0  0
    5.5180    4.0729   26.7295 H   0  0  0  0  0  0  0  0  0  0  0  0
    4.4716    2.8181   26.0427 H   0  0  0  0  0  0  0  0  0  0  0  0
    3.6170    5.6940   25.7944 H   0  0  0  0  0  0  0  0  0  0  0  0
    3.0039    7.1111   23.8627 H   0  0  0  0  0  0  0  0  0  0  0  0
    3.9719    6.6471   21.6175 H   0  0  0  0  0  0  0  0  0  0  0  0
    5.5474    4.7674   21.3167 H   0  0  0  0  0  0  0  0  0  0  0  0
    7.4783    3.4212   23.0906 H   0  0  0  0  0  0  0  0  0  0  0  0
    6.2473    2.4975   22.2372 H   0  0  0  0  0  0  0  0  0  0  0  0
    5.4902    1.4400   24.3167 H   0  0  0  0  0  0  0  0  0  0  0  0
    7.5712    0.4444   25.2920 H   0  0  0  0  0  0  0  0  0  0  0  0
    8.5544    1.5726   24.3274 H   0  0  0  0  0  0  0  0  0  0  0  0
    8.0726    0.3429   21.9975 C   0  0  0  0  0  0  0  0  0  0  0  0
    8.8753    1.2019   21.7317 O   0  0  0  0  0  0  0  0  0  0  0  0
    7.4361   -0.6625   21.0208 C   0  0  0  0  0  0  0  0  0  0  0  0
    6.6375   -0.0066   19.8943 C   0  0  0  0  0  0  0  0  0  0  0  0
    5.4238    0.6534   20.1310 C   0  0  0  0  0  0  0  0  0  0  0  0
    4.7928    1.3156   19.0768 C   0  0  0  0  0  0  0  0  0  0  0  0
    5.3975    1.2933   17.8162 C   0  0  0  0  0  0  0  0  0  0  0  0
    6.5486    0.6531   17.5600 N   0  0  0  0  0  0  0  0  0  0  0  0
    7.1461    0.0311   18.5842 C   0  0  0  0  0  0  0  0  0  0  0  0
    8.0945   -0.4532   18.3445 H   0  0  0  0  0  0  0  0  0  0  0  0
    4.9427    1.8181   16.9785 H   0  0  0  0  0  0  0  0  0  0  0  0
    3.8685    1.8670   19.2218 H   0  0  0  0  0  0  0  0  0  0  0  0
    4.9662    0.6488   21.1218 H   0  0  0  0  0  0  0  0  0  0  0  0
    8.2584   -1.2470   20.5858 H   0  0  0  0  0  0  0  0  0  0  0  0
    4.7919   -2.4564   21.7585 H   0  0  0  0  0  0  0  0  0  0  0  0
    5.9619   -2.7609   20.4609 H   0  0  0  0  0  0  0  0  0  0  0  0
    6.1749   -3.5247   22.0580 H   0  0  0  0  0  0  0  0  0  0  0  0
  1  2  1  0
  2  3  1  0
  3  4  2  0
  3  5  1  0
  5  6  1  0
  6  7  1  0
  7  8  1  0
  8  9  1  0
  9 10  2  0
 10 11  1  0
 11 12  2  0
 12 13  1  0
 13 14  2  0
 14 15  1  0
 15 16  1  0
 15 17  1  0
 15 18  1  0
 13 19  1  0
 12 20  1  0
 11 21  1  0
 10 22  1  0
  8 23  1  0
  8 24  1  0
  7 25  1  1
  6 26  1  0
  6 27  1  0
  5 28  1  0
 28 29  2  0
 28 30  1  0
 30 31  1  0
 31 32  2  0
 32 33  1  0
 33 34  2  0
 34 35  1  0
 35 36  2  0
 36 37  1  0
 34 38  1  0
 33 39  1  0
 32 40  1  0
 30 41  1  0
  1 42  1  0
  1 43  1  0
  1 44  1  0
 30  2  1  0
 36 31  1  0
 16  7  1  0
 14  9  1  0
M  END
>  <cnnaffinity>  (1) 
4.81267

>  <plip>  (1) 
-0.03571428571428571

>  <filename>  (1) 
[H][c]1[n][c]([H])[c]([C]2([H])[C](=[O])[N]([C]([H])([H])[C@@]3([H])[O][C]([H])([H])[c]4[c]([H])[c]([H])[c]([H])[c]([H])[c]4[C]3([H])[H])[C](=[O])[N]2[C]([H])([H])[H])[c]([H])[c]1[H]

>  <combo1>  (1) 
-0.16981996649521894

$$$$
