
     RDKit          3D

 47 50  0  0  0  0  0  0  0  0999 V2000
    7.8074   -2.6340   23.0124 O   0  0  0  0  0  0  0  0  0  0  0  0
    7.8310   -2.9968   21.8500 C   0  0  0  0  0  0  0  0  0  0  0  0
    8.1383   -4.4253   21.4891 C   0  0  0  0  0  0  0  0  0  0  0  0
    6.8411   -5.1287   21.3891 C   0  0  0  0  0  0  0  0  0  0  0  0
    6.4081   -5.4074   20.1984 N   0  0  0  0  0  0  0  0  0  0  0  0
    5.1392   -5.9347   20.3228 O   0  0  0  0  0  0  0  0  0  0  0  0
    4.8074   -5.9541   21.6257 C   0  0  0  0  0  0  0  0  0  0  0  0
    3.5831   -6.3626   22.1838 C   0  0  0  0  0  0  0  0  0  0  0  0
    3.5006   -6.3379   23.5681 C   0  0  0  0  0  0  0  0  0  0  0  0
    4.5798   -5.9054   24.3789 C   0  0  0  0  0  0  0  0  0  0  0  0
    5.7590   -5.4565   23.7963 C   0  0  0  0  0  0  0  0  0  0  0  0
    5.8704   -5.4807   22.3903 C   0  0  0  0  0  0  0  0  0  0  0  0
    6.5522   -5.0507   24.4094 H   0  0  0  0  0  0  0  0  0  0  0  0
    4.4800   -5.9370   25.4639 H   0  0  0  0  0  0  0  0  0  0  0  0
    2.5822   -6.6719   24.0468 H   0  0  0  0  0  0  0  0  0  0  0  0
    2.7511   -6.6945   21.5731 H   0  0  0  0  0  0  0  0  0  0  0  0
    8.7751   -4.8450   22.2710 H   0  0  0  0  0  0  0  0  0  0  0  0
    8.6191   -4.4756   20.5165 H   0  0  0  0  0  0  0  0  0  0  0  0
    7.5457   -2.1592   20.8188 N   0  0  0  0  0  0  0  0  0  0  0  0
    7.3872   -0.7279   21.0444 C   0  0  0  0  0  0  0  0  0  0  0  0
    8.7731   -0.0759   21.2836 C   0  0  0  0  0  0  0  0  0  0  0  0
    8.7120    1.3938   21.7053 C   0  0  0  0  0  0  0  0  0  0  0  0
   10.0802    2.0265   21.9721 C   0  0  0  0  0  0  0  0  0  0  0  0
    9.7590    3.1530   22.9570 C   0  0  0  0  0  0  0  0  0  0  0  0
    8.5604    2.7908   23.6265 O   0  0  0  0  0  0  0  0  0  0  0  0
    8.0011    1.6270   23.0489 C   0  0  0  0  0  0  0  0  0  0  0  0
    8.1580    0.7719   23.7312 H   0  0  0  0  0  0  0  0  0  0  0  0
    6.9196    1.7714   22.9293 H   0  0  0  0  0  0  0  0  0  0  0  0
   10.5578    3.2931   23.6958 H   0  0  0  0  0  0  0  0  0  0  0  0
    9.6040    4.1111   22.4440 H   0  0  0  0  0  0  0  0  0  0  0  0
   10.5571    2.4045   21.0620 H   0  0  0  0  0  0  0  0  0  0  0  0
   10.7585    1.2985   22.4389 H   0  0  0  0  0  0  0  0  0  0  0  0
    8.1900    1.9776   20.9312 H   0  0  0  0  0  0  0  0  0  0  0  0
    9.3883   -0.1791   20.3791 H   0  0  0  0  0  0  0  0  0  0  0  0
    9.2790   -0.6583   22.0644 H   0  0  0  0  0  0  0  0  0  0  0  0
    6.6261   -0.0819   19.9119 C   0  0  0  0  0  0  0  0  0  0  0  0
    5.4245    0.6102   20.1328 C   0  0  0  0  0  0  0  0  0  0  0  0
    4.8261    1.2878   19.0696 C   0  0  0  0  0  0  0  0  0  0  0  0
    5.4523    1.2565   17.8195 C   0  0  0  0  0  0  0  0  0  0  0  0
    6.5887    0.5849   17.5784 N   0  0  0  0  0  0  0  0  0  0  0  0
    7.1487   -0.0646   18.6099 C   0  0  0  0  0  0  0  0  0  0  0  0
    8.0814   -0.5852   18.3815 H   0  0  0  0  0  0  0  0  0  0  0  0
    5.0115    1.7830   16.9747 H   0  0  0  0  0  0  0  0  0  0  0  0
    3.9019    1.8414   19.1996 H   0  0  0  0  0  0  0  0  0  0  0  0
    4.9691    0.6180   21.1267 H   0  0  0  0  0  0  0  0  0  0  0  0
    6.7914   -0.6170   21.9647 H   0  0  0  0  0  0  0  0  0  0  0  0
    7.3873   -2.5366   19.9007 H   0  0  0  0  0  0  0  0  0  0  0  0
  1  2  2  0
  2  3  1  0
  3  4  1  0
  4  5  2  0
  5  6  1  0
  6  7  1  0
  7  8  2  0
  8  9  1  0
  9 10  2  0
 10 11  1  0
 11 12  2  0
 11 13  1  0
 10 14  1  0
  9 15  1  0
  8 16  1  0
  3 17  1  0
  3 18  1  0
  2 19  1  0
 19 20  1  0
 20 21  1  0
 21 22  1  0
 22 23  1  0
 23 24  1  0
 24 25  1  0
 25 26  1  0
 26 27  1  0
 26 28  1  0
 24 29  1  0
 24 30  1  0
 23 31  1  0
 23 32  1  0
 22 33  1  0
 21 34  1  0
 21 35  1  0
 20 36  1  0
 36 37  2  0
 37 38  1  0
 38 39  2  0
 39 40  1  0
 40 41  2  0
 41 42  1  0
 39 43  1  0
 38 44  1  0
 37 45  1  0
 20 46  1  0
 19 47  1  0
 12  4  1  0
 26 22  1  0
 41 36  1  0
 12  7  1  0
M  END
>  <cnnaffinity>  (1) 
5.77887

>  <plip>  (1) 
-0.1724137931034483

>  <filename>  (1) 
[H][c]1[n][c]([H])[c]([C]([H])([N]([H])[C](=[O])[C]([H])([H])[c]2[n][o][c]3[c]([H])[c]([H])[c]([H])[c]([H])[c]23)[C]([H])([H])[C]2([H])[C]([H])([H])[O][C]([H])([H])[C]2([H])[H])[c]([H])[c]1[H]

>  <combo1>  (1) 
-0.945114669405877

$$$$
