
     RDKit          3D

 24 25  0  0  0  0  0  0  0  0999 V2000
    4.9622    1.7941   16.9592 H   0  0  0  0  0  0  0  0  0  0  0  0
    5.4134    1.2958   17.8209 C   0  0  0  0  0  0  0  0  0  0  0  0
    6.5732    0.6649   17.5962 N   0  0  0  0  0  0  0  0  0  0  0  0
    7.1588    0.0489   18.6317 C   0  0  0  0  0  0  0  0  0  0  0  0
    8.1069   -0.4409   18.4197 H   0  0  0  0  0  0  0  0  0  0  0  0
    6.6224    0.0254   19.9182 C   0  0  0  0  0  0  0  0  0  0  0  0
    7.3425   -0.7539   20.9835 C   0  0  0  0  0  0  0  0  0  0  0  0
    8.7480   -0.5669   20.8455 O   0  0  0  0  0  0  0  0  0  0  0  0
    9.3083    0.5571   21.3755 C   0  0  0  0  0  0  0  0  0  0  0  0
   10.3196    0.6444   20.9764 H   0  0  0  0  0  0  0  0  0  0  0  0
    8.6167    1.6819   21.0582 F   0  0  0  0  0  0  0  0  0  0  0  0
    9.3665    0.4725   22.7233 F   0  0  0  0  0  0  0  0  0  0  0  0
    6.8608   -0.4046   22.2444 O   0  0  0  0  0  0  0  0  0  0  0  0
    6.8035   -1.5852   23.0286 C   0  0  0  0  0  0  0  0  0  0  0  0
    6.0422   -1.4410   23.8084 H   0  0  0  0  0  0  0  0  0  0  0  0
    7.7785   -1.7714   23.4938 H   0  0  0  0  0  0  0  0  0  0  0  0
    6.4796   -2.6286   21.9560 C   0  0  0  0  0  0  0  0  0  0  0  0
    6.8383   -3.6443   22.1619 H   0  0  0  0  0  0  0  0  0  0  0  0
    5.4139   -2.6729   21.7003 H   0  0  0  0  0  0  0  0  0  0  0  0
    7.1911   -2.1267   20.8354 O   0  0  0  0  0  0  0  0  0  0  0  0
    5.4151    0.6948   20.1435 C   0  0  0  0  0  0  0  0  0  0  0  0
    4.9851    0.7011   21.1439 H   0  0  0  0  0  0  0  0  0  0  0  0
    4.7932    1.3372   19.0743 C   0  0  0  0  0  0  0  0  0  0  0  0
    3.8521    1.8628   19.1987 H   0  0  0  0  0  0  0  0  0  0  0  0
  1  2  1  0
  2  3  2  0
  3  4  1  0
  4  5  1  0
  4  6  2  0
  6  7  1  0
  7  8  1  0
  8  9  1  0
  9 10  1  0
  9 11  1  0
  9 12  1  0
  7 13  1  0
 13 14  1  0
 14 15  1  0
 14 16  1  0
 14 17  1  0
 17 18  1  0
 17 19  1  0
 17 20  1  0
  6 21  1  0
 21 22  1  0
 21 23  2  0
 23 24  1  0
 23  2  1  0
 20  7  1  0
M  END
>  <cnnaffinity>  (1) 
3.45418

>  <plip>  (1) 
-0.07142857142857142

>  <filename>  (1) 
[H][c]1[n][c]([H])[c]([C]2([O][C]([H])([F])[F])[O][C]([H])([H])[C]([H])([H])[O]2)[c]([H])[c]1[H]

>  <combo1>  (1) 
-0.3786987256695458

$$$$
