
     RDKit          3D

 46 48  0  0  0  0  0  0  0  0999 V2000
    9.0915   -3.3120   22.3385 C   0  0  0  0  0  0  0  0  0  0  0  0
    8.3692   -2.0707   22.1931 N   0  0  0  0  0  0  0  0  0  0  0  0
    7.9750   -1.2220   23.1631 C   0  0  0  0  0  0  0  0  0  0  0  0
    7.3136   -0.1813   22.5533 C   0  0  0  0  0  0  0  0  0  0  0  0
    6.8545    1.0639   23.2308 C   0  0  0  0  0  0  0  0  0  0  0  0
    7.7761    2.1282   22.7740 N   0  0  0  0  0  4  0  0  0  0  0  0
    7.9079    3.3423   23.6078 C   0  0  0  0  0  0  0  0  0  0  0  0
    8.9297    4.2772   22.9884 C   0  0  1  0  0  0  0  0  0  0  0  0
    8.8726    5.7194   23.5048 C   0  0  0  0  0  0  0  0  0  0  0  0
   10.1491    6.3594   22.9275 C   0  0  0  0  0  0  0  0  0  0  0  0
   11.1467    5.2081   22.6737 C   0  0  1  0  0  0  0  0  0  0  0  0
   12.4309    5.4953   23.4115 N   0  0  0  0  0  4  0  0  0  0  0  0
   12.2141    5.5287   24.4230 H   0  0  0  0  0  0  0  0  0  0  0  0
   13.1618    4.7862   23.2421 H   0  0  0  0  0  0  0  0  0  0  0  0
   12.7811    6.4216   23.1178 H   0  0  0  0  0  0  0  0  0  0  0  0
   10.4254    3.9530   23.1893 C   0  0  0  0  0  0  0  0  0  0  0  0
   10.6223    3.8736   24.2681 H   0  0  0  0  0  0  0  0  0  0  0  0
   10.7633    3.0180   22.7257 H   0  0  0  0  0  0  0  0  0  0  0  0
   11.3612    5.1182   21.6039 H   0  0  0  0  0  0  0  0  0  0  0  0
   10.5895    7.0865   23.6109 H   0  0  0  0  0  0  0  0  0  0  0  0
    9.9117    6.8842   22.0006 H   0  0  0  0  0  0  0  0  0  0  0  0
    8.9148    5.7280   24.6033 H   0  0  0  0  0  0  0  0  0  0  0  0
    7.9481    6.2343   23.2149 H   0  0  0  0  0  0  0  0  0  0  0  0
    8.7016    4.3065   21.9115 H   0  0  0  0  0  0  0  0  0  0  0  0
    6.9416    3.8587   23.7027 H   0  0  0  0  0  0  0  0  0  0  0  0
    8.2022    3.0718   24.6344 H   0  0  0  0  0  0  0  0  0  0  0  0
    7.4751    2.3666   21.7966 H   0  0  0  0  0  0  0  0  0  0  0  0
    8.7085    1.6538   22.6622 H   0  0  0  0  0  0  0  0  0  0  0  0
    5.8056    1.3081   23.0137 H   0  0  0  0  0  0  0  0  0  0  0  0
    6.9280    0.9418   24.3214 H   0  0  0  0  0  0  0  0  0  0  0  0
    7.3341   -0.5126   21.1716 C   0  0  0  0  0  0  0  0  0  0  0  0
    6.6744    0.1460   20.0368 C   0  0  0  0  0  0  0  0  0  0  0  0
    5.4467    0.8200   20.1548 C   0  0  0  0  0  0  0  0  0  0  0  0
    4.8976    1.4212   19.0224 C   0  0  0  0  0  0  0  0  0  0  0  0
    5.5760    1.3044   17.8043 C   0  0  0  0  0  0  0  0  0  0  0  0
    6.7267    0.6287   17.6667 N   0  0  0  0  0  0  0  0  0  0  0  0
    7.2501    0.0597   18.7550 C   0  0  0  0  0  0  0  0  0  0  0  0
    8.1745   -0.4971   18.6042 H   0  0  0  0  0  0  0  0  0  0  0  0
    5.1732    1.7541   16.8967 H   0  0  0  0  0  0  0  0  0  0  0  0
    3.9650    1.9717   19.0629 H   0  0  0  0  0  0  0  0  0  0  0  0
    4.9076    0.8454   21.1040 H   0  0  0  0  0  0  0  0  0  0  0  0
    8.0185   -1.6438   20.9812 N   0  0  0  0  0  0  0  0  0  0  0  0
    8.2160   -1.4066   24.2028 H   0  0  0  0  0  0  0  0  0  0  0  0
   10.1715   -3.1364   22.2684 H   0  0  0  0  0  0  0  0  0  0  0  0
    8.8504   -3.7541   23.3094 H   0  0  0  0  0  0  0  0  0  0  0  0
    8.7572   -3.9743   21.5360 H   0  0  0  0  0  0  0  0  0  0  0  0
  1  2  1  0
  2  3  1  0
  3  4  2  0
  4  5  1  0
  5  6  1  0
  6  7  1  0
  7  8  1  0
  8  9  1  0
  9 10  1  0
 10 11  1  0
 11 12  1  0
 12 13  1  0
 12 14  1  0
 12 15  1  0
 11 16  1  0
 16 17  1  0
 16 18  1  0
 11 19  1  6
 10 20  1  0
 10 21  1  0
  9 22  1  0
  9 23  1  0
  8 24  1  6
  7 25  1  0
  7 26  1  0
  6 27  1  0
  6 28  1  0
  5 29  1  0
  5 30  1  0
  4 31  1  0
 31 32  1  0
 32 33  2  0
 33 34  1  0
 34 35  2  0
 35 36  1  0
 36 37  2  0
 37 38  1  0
 35 39  1  0
 34 40  1  0
 33 41  1  0
 31 42  2  0
  3 43  1  0
  1 44  1  0
  1 45  1  0
  1 46  1  0
 42  2  1  0
 16  8  1  0
 37 32  1  0
M  CHG  2   6   1  12   1
M  END
>  <cnnaffinity>  (1) 
4.92134

>  <plip>  (1) 
-0.06896551724137931

>  <filename>  (1) 
[H][c]1[n][c]([H])[c](-[c]2[n][n]([C]([H])([H])[H])[c]([H])[c]2[C]([H])([H])[N+]([H])([H])[C]([H])([H])[C@@]2([H])[C]([H])([H])[C]([H])([H])[C@@]([H])([N+]([H])([H])[H])[C]2([H])[H])[c]([H])[c]1[H]

>  <combo1>  (1) 
-0.39363229964602336

$$$$
