
     RDKit          3D

 30 31  0  0  0  0  0  0  0  0999 V2000
    6.5068   -2.9853   23.7906 C   0  0  0  0  0  0  0  0  0  0  0  0
    7.0672   -1.9747   22.9104 N   0  0  0  0  0  0  0  0  0  0  0  0
    6.6800   -1.8255   21.6194 C   0  0  0  0  0  0  0  0  0  0  0  0
    5.6202   -2.8614   20.8664 S   0  0  0  0  0  0  0  0  0  0  0  0
    7.3009   -0.7463   20.9842 N   0  0  0  0  0  0  0  0  0  0  0  0
    8.6367   -0.2476   21.3581 C   0  0  0  0  0  0  0  0  0  0  0  0
    8.6496    0.9197   22.3078 C   0  0  0  0  0  0  0  0  0  0  0  0
    9.2407    1.1256   23.5135 C   0  0  0  0  0  0  0  0  0  0  0  0
    8.8834    2.4516   23.9311 C   0  0  0  0  0  0  0  0  0  0  0  0
    8.1256    2.9518   22.9221 C   0  0  0  0  0  0  0  0  0  0  0  0
    7.9900    2.0428   21.9264 O   0  0  0  0  0  0  0  0  0  0  0  0
    7.6078    3.8864   22.7686 H   0  0  0  0  0  0  0  0  0  0  0  0
    9.1330    2.9553   24.8562 H   0  0  0  0  0  0  0  0  0  0  0  0
    9.8676    0.4193   24.0396 H   0  0  0  0  0  0  0  0  0  0  0  0
    9.1275    0.0822   20.4354 H   0  0  0  0  0  0  0  0  0  0  0  0
    9.2502   -1.0400   21.7888 H   0  0  0  0  0  0  0  0  0  0  0  0
    6.6457   -0.0407   19.9176 C   0  0  0  0  0  0  0  0  0  0  0  0
    5.4383    0.6302   20.1648 C   0  0  0  0  0  0  0  0  0  0  0  0
    4.8120    1.3074   19.1134 C   0  0  0  0  0  0  0  0  0  0  0  0
    5.4271    1.2871   17.8565 C   0  0  0  0  0  0  0  0  0  0  0  0
    6.5839    0.6587   17.5969 N   0  0  0  0  0  0  0  0  0  0  0  0
    7.1828    0.0221   18.6118 C   0  0  0  0  0  0  0  0  0  0  0  0
    8.1335   -0.4685   18.3831 H   0  0  0  0  0  0  0  0  0  0  0  0
    4.9668    1.7904   17.0133 H   0  0  0  0  0  0  0  0  0  0  0  0
    3.8777    1.8484   19.2550 H   0  0  0  0  0  0  0  0  0  0  0  0
    5.0159    0.6261   21.1711 H   0  0  0  0  0  0  0  0  0  0  0  0
    7.4607   -1.1324   23.2983 H   0  0  0  0  0  0  0  0  0  0  0  0
    6.7688   -3.9801   23.4140 H   0  0  0  0  0  0  0  0  0  0  0  0
    5.4127   -2.9160   23.8106 H   0  0  0  0  0  0  0  0  0  0  0  0
    6.9012   -2.8626   24.8057 H   0  0  0  0  0  0  0  0  0  0  0  0
  1  2  1  0
  2  3  1  0
  3  4  2  0
  3  5  1  0
  5  6  1  0
  6  7  1  0
  7  8  2  0
  8  9  1  0
  9 10  2  0
 10 11  1  0
 10 12  1  0
  9 13  1  0
  8 14  1  0
  6 15  1  0
  6 16  1  0
  5 17  1  0
 17 18  2  0
 18 19  1  0
 19 20  2  0
 20 21  1  0
 21 22  2  0
 22 23  1  0
 20 24  1  0
 19 25  1  0
 18 26  1  0
  2 27  1  0
  1 28  1  0
  1 29  1  0
  1 30  1  0
 11  7  1  0
 22 17  1  0
M  END
>  <cnnaffinity>  (1) 
4.83379

>  <plip>  (1) 
-0.07142857142857142

>  <filename>  (1) 
[H][c]1[n][c]([H])[c]([N]([C](=[S])[N]([H])[C]([H])([H])[H])[C]([H])([H])[c]2[o][c]([H])[c]([H])[c]2[H])[c]([H])[c]1[H]

>  <combo1>  (1) 
-0.4653438543735845

$$$$
