
     RDKit          3D

 26 27  0  0  0  0  0  0  0  0999 V2000
    8.8241   -1.3491   22.5376 H   0  0  0  0  0  0  0  0  0  0  0  0
    7.9463   -1.6162   22.8411 O   0  0  0  0  0  0  0  0  0  0  0  0
    7.1017   -0.6037   22.3230 C   0  0  1  0  0  0  0  0  0  0  0  0
    6.0637   -0.9056   22.5336 H   0  0  0  0  0  0  0  0  0  0  0  0
    7.2417    0.8015   22.9719 C   0  0  0  0  0  0  0  0  0  0  0  0
    6.2262    1.2319   23.7570 N   0  0  0  0  0  0  0  0  0  0  0  0
    6.3046    2.4610   24.2908 C   0  0  0  0  0  0  0  0  0  0  0  0
    5.4664    2.8278   24.8845 H   0  0  0  0  0  0  0  0  0  0  0  0
    7.4124    3.2929   24.0790 C   0  0  0  0  0  0  0  0  0  0  0  0
    7.4595    4.5075   24.6433 F   0  0  0  0  0  0  0  0  0  0  0  0
    8.4606    2.8755   23.2708 C   0  0  0  0  0  0  0  0  0  0  0  0
    9.3080    3.5358   23.0805 H   0  0  0  0  0  0  0  0  0  0  0  0
    8.3638    1.6029   22.7054 C   0  0  0  0  0  0  0  0  0  0  0  0
    9.1379    1.2536   22.0343 H   0  0  0  0  0  0  0  0  0  0  0  0
    7.4679   -0.6826   20.9072 N   0  0  0  0  0  0  0  0  0  0  0  0
    7.7225   -1.6585   20.7808 H   0  0  0  0  0  0  0  0  0  0  0  0
    6.7308   -0.0443   19.8719 C   0  0  0  0  0  0  0  0  0  0  0  0
    7.2089    0.0152   18.5320 C   0  0  0  0  0  0  0  0  0  0  0  0
    8.1459   -0.4807   18.2835 H   0  0  0  0  0  0  0  0  0  0  0  0
    6.5960    0.6574   17.5226 N   0  0  0  0  0  0  0  0  0  0  0  0
    5.4399    1.2876   17.7956 C   0  0  0  0  0  0  0  0  0  0  0  0
    4.9671    1.8259   16.9736 H   0  0  0  0  0  0  0  0  0  0  0  0
    4.8600    1.2741   19.0666 C   0  0  0  0  0  0  0  0  0  0  0  0
    3.9212    1.7913   19.2390 H   0  0  0  0  0  0  0  0  0  0  0  0
    5.5110    0.6071   20.1152 C   0  0  0  0  0  0  0  0  0  0  0  0
    5.0998    0.5999   21.1234 H   0  0  0  0  0  0  0  0  0  0  0  0
  1  2  1  0
  2  3  1  0
  3  4  1  6
  3  5  1  0
  5  6  2  0
  6  7  1  0
  7  8  1  0
  7  9  2  0
  9 10  1  0
  9 11  1  0
 11 12  1  0
 11 13  2  0
 13 14  1  0
  3 15  1  0
 15 16  1  0
 15 17  1  0
 17 18  2  0
 18 19  1  0
 18 20  1  0
 20 21  2  0
 21 22  1  0
 21 23  1  0
 23 24  1  0
 23 25  2  0
 25 26  1  0
 13  5  1  0
 25 17  1  0
M  END
>  <cnnaffinity>  (1) 
4.39266

>  <plip>  (1) 
-0.07142857142857142

>  <filename>  (1) 
[H][O][C@@]([H])([c]1[n][c]([H])[c]([F])[c]([H])[c]1[H])[N]([H])[c]1[c]([H])[n][c]([H])[c]([H])[c]1[H]

>  <combo1>  (1) 
-0.47708977258879415

$$$$
