
     RDKit          3D

 46 48  0  0  0  0  0  0  0  0999 V2000
    7.5761    7.3646   21.6519 C   0  0  0  0  0  0  0  0  0  0  0  0
    7.1887    6.1607   22.4167 N   0  0  0  0  0  4  0  0  0  0  0  0
    7.0615    6.3309   23.9290 C   0  0  0  0  0  0  0  0  0  0  0  0
    7.5374    4.9872   24.5366 C   0  0  0  0  0  0  0  0  0  0  0  0
    7.8220    4.0571   23.3388 C   0  0  0  0  0  0  0  0  0  0  0  0
    8.9202    3.0053   23.5196 C   0  0  0  0  0  0  0  0  0  0  0  0
    8.7633    1.8298   22.5884 N   0  0  0  0  0  4  0  0  0  0  0  0
    8.9276    2.1569   21.1196 C   0  0  0  0  0  0  0  0  0  0  0  0
    9.7071    2.9100   20.9673 H   0  0  0  0  0  0  0  0  0  0  0  0
    7.9796    2.5165   20.6991 H   0  0  0  0  0  0  0  0  0  0  0  0
    9.2073    1.2574   20.5667 H   0  0  0  0  0  0  0  0  0  0  0  0
    7.4670    1.0513   22.8097 C   0  0  0  0  0  0  0  0  0  0  0  0
    7.6928   -0.3190   22.2759 C   0  0  0  0  0  0  0  0  0  0  0  0
    8.4265   -1.3361   22.8439 C   0  0  0  0  0  0  0  0  0  0  0  0
    8.5749   -2.2712   21.8698 N   0  0  0  0  0  0  0  0  0  0  0  0
    7.9996   -1.9155   20.7105 N   0  0  0  0  0  0  0  0  0  0  0  0
    7.4449   -0.7298   20.9430 C   0  0  0  0  0  0  0  0  0  0  0  0
    6.6893   -0.0041   19.9099 C   0  0  0  0  0  0  0  0  0  0  0  0
    5.4641    0.6456   20.1400 C   0  0  0  0  0  0  0  0  0  0  0  0
    4.8471    1.3049   19.0777 C   0  0  0  0  0  0  0  0  0  0  0  0
    5.4839    1.3071   17.8359 C   0  0  0  0  0  0  0  0  0  0  0  0
    6.6451    0.6785   17.6010 N   0  0  0  0  0  0  0  0  0  0  0  0
    7.2177    0.0258   18.6150 C   0  0  0  0  0  0  0  0  0  0  0  0
    8.1415   -0.5055   18.3798 H   0  0  0  0  0  0  0  0  0  0  0  0
    5.0378    1.8231   16.9883 H   0  0  0  0  0  0  0  0  0  0  0  0
    3.9039    1.8245   19.2033 H   0  0  0  0  0  0  0  0  0  0  0  0
    4.9989    0.6196   21.1249 H   0  0  0  0  0  0  0  0  0  0  0  0
    8.9884   -3.1876   21.9435 H   0  0  0  0  0  0  0  0  0  0  0  0
    8.8726   -1.4387   23.8268 H   0  0  0  0  0  0  0  0  0  0  0  0
    6.6739    1.5749   22.2756 H   0  0  0  0  0  0  0  0  0  0  0  0
    7.2251    1.0538   23.8771 H   0  0  0  0  0  0  0  0  0  0  0  0
    9.4662    1.0949   22.8202 H   0  0  0  0  0  0  0  0  0  0  0  0
    9.9076    3.4595   23.3536 H   0  0  0  0  0  0  0  0  0  0  0  0
    8.9334    2.6308   24.5503 H   0  0  0  0  0  0  0  0  0  0  0  0
    8.1477    5.0319   22.2199 C   0  0  0  0  0  0  0  0  0  0  0  0
    8.0683    4.6265   21.2116 H   0  0  0  0  0  0  0  0  0  0  0  0
    9.1745    5.4082   22.3424 H   0  0  0  0  0  0  0  0  0  0  0  0
    6.8770    3.5511   23.0948 H   0  0  0  0  0  0  0  0  0  0  0  0
    6.7907    4.5646   25.2179 H   0  0  0  0  0  0  0  0  0  0  0  0
    8.4329    5.1444   25.1495 H   0  0  0  0  0  0  0  0  0  0  0  0
    6.0251    6.5741   24.1833 H   0  0  0  0  0  0  0  0  0  0  0  0
    7.6823    7.1706   24.2635 H   0  0  0  0  0  0  0  0  0  0  0  0
    6.2576    5.8504   22.0536 H   0  0  0  0  0  0  0  0  0  0  0  0
    7.5185    7.2037   20.5655 H   0  0  0  0  0  0  0  0  0  0  0  0
    6.9469    8.2199   21.9144 H   0  0  0  0  0  0  0  0  0  0  0  0
    8.6200    7.6240   21.8804 H   0  0  0  0  0  0  0  0  0  0  0  0
  1  2  1  0
  2  3  1  0
  3  4  1  0
  4  5  1  0
  5  6  1  0
  6  7  1  0
  7  8  1  0
  8  9  1  0
  8 10  1  0
  8 11  1  0
  7 12  1  0
 12 13  1  0
 13 14  2  0
 14 15  1  0
 15 16  1  0
 16 17  2  0
 17 18  1  0
 18 19  2  0
 19 20  1  0
 20 21  2  0
 21 22  1  0
 22 23  2  0
 23 24  1  0
 21 25  1  0
 20 26  1  0
 19 27  1  0
 15 28  1  0
 14 29  1  0
 12 30  1  0
 12 31  1  0
  7 32  1  0
  6 33  1  0
  6 34  1  0
  5 35  1  0
 35 36  1  0
 35 37  1  0
  5 38  1  0
  4 39  1  0
  4 40  1  0
  3 41  1  0
  3 42  1  0
  2 43  1  0
  1 44  1  0
  1 45  1  0
  1 46  1  0
 35  2  1  0
 17 13  1  0
 23 18  1  0
M  CHG  2   2   1   7   1
M  END
>  <cnnaffinity>  (1) 
4.42085

>  <plip>  (1) 
-0.06896551724137931

>  <filename>  (1) 
[H][c]1[n][c]([H])[c](-[c]2[n][n]([H])[c]([H])[c]2[C]([H])([H])[N+]([H])([C]([H])([H])[H])[C]([H])([H])[C]2([H])[C]([H])([H])[C]([H])([H])[N+]([H])([C]([H])([H])[H])[C]2([H])[H])[c]([H])[c]1[H]

>  <combo1>  (1) 
-0.35360071685559713

$$$$
