
     RDKit          3D

 36 39  0  0  0  0  0  0  0  0999 V2000
    9.2381   -3.3293   22.1944 C   0  0  0  0  0  0  0  0  0  0  0  0
    8.4743   -2.1065   21.9080 C   0  0  0  0  0  0  0  0  0  0  0  0
    7.9144   -1.8573   20.7432 N   0  0  0  0  0  0  0  0  0  0  0  0
    7.3987   -0.6215   20.9287 N   0  0  0  0  0  0  0  0  0  0  0  0
    6.6668    0.0266   19.9071 C   0  0  0  0  0  0  0  0  0  0  0  0
    5.4501    0.6653   20.1709 C   0  0  0  0  0  0  0  0  0  0  0  0
    4.8086    1.3083   19.1081 C   0  0  0  0  0  0  0  0  0  0  0  0
    5.4033    1.2879   17.8425 C   0  0  0  0  0  0  0  0  0  0  0  0
    6.5615    0.6554   17.5831 N   0  0  0  0  0  0  0  0  0  0  0  0
    7.1697    0.0341   18.5940 C   0  0  0  0  0  0  0  0  0  0  0  0
    8.1114   -0.4642   18.3724 H   0  0  0  0  0  0  0  0  0  0  0  0
    4.9371    1.7934   16.9996 H   0  0  0  0  0  0  0  0  0  0  0  0
    3.8718    1.8379   19.2531 H   0  0  0  0  0  0  0  0  0  0  0  0
    5.0194    0.6549   21.1738 H   0  0  0  0  0  0  0  0  0  0  0  0
    7.7067   -0.1928   22.1888 C   0  0  0  0  0  0  0  0  0  0  0  0
    7.3361    1.1196   22.7303 C   0  0  2  0  0  0  0  0  0  0  0  0
    7.4942    1.3661   24.1993 C   0  0  0  0  0  0  0  0  0  0  0  0
    6.1033    1.2651   23.6275 C   0  0  1  0  0  0  0  0  0  0  0  0
    5.2250    2.4568   23.5003 C   0  0  0  0  0  0  0  0  0  0  0  0
    5.7483    3.7311   23.2437 C   0  0  0  0  0  0  0  0  0  0  0  0
    4.8782    4.8185   23.1567 C   0  0  0  0  0  0  0  0  0  0  0  0
    3.5083    4.5866   23.3253 C   0  0  0  0  0  0  0  0  0  0  0  0
    3.0820    3.2772   23.5723 C   0  0  0  0  0  0  0  0  0  0  0  0
    3.9080    2.2341   23.6632 N   0  0  0  0  0  0  0  0  0  0  0  0
    2.0249    3.0485   23.7028 H   0  0  0  0  0  0  0  0  0  0  0  0
    2.7792    5.3860   23.2658 H   0  0  0  0  0  0  0  0  0  0  0  0
    5.2709    5.8165   22.9598 H   0  0  0  0  0  0  0  0  0  0  0  0
    6.8214    3.8454   23.1251 H   0  0  0  0  0  0  0  0  0  0  0  0
    5.5215    0.3623   23.8299 H   0  0  0  0  0  0  0  0  0  0  0  0
    7.8575    2.3365   24.5290 H   0  0  0  0  0  0  0  0  0  0  0  0
    7.8507    0.5223   24.7885 H   0  0  0  0  0  0  0  0  0  0  0  0
    7.5319    1.9244   22.0206 H   0  0  0  0  0  0  0  0  0  0  0  0
    8.3995   -1.1177   22.8208 N   0  0  0  0  0  0  0  0  0  0  0  0
    8.8277   -4.1513   21.6072 H   0  0  0  0  0  0  0  0  0  0  0  0
   10.2724   -3.1019   21.9174 H   0  0  0  0  0  0  0  0  0  0  0  0
    9.2196   -3.5670   23.2577 H   0  0  0  0  0  0  0  0  0  0  0  0
  1  2  1  0
  2  3  2  0
  3  4  1  0
  4  5  1  0
  5  6  2  0
  6  7  1  0
  7  8  2  0
  8  9  1  0
  9 10  2  0
 10 11  1  0
  8 12  1  0
  7 13  1  0
  6 14  1  0
  4 15  1  0
 15 16  1  0
 16 17  1  0
 17 18  1  0
 18 19  1  0
 19 20  2  0
 20 21  1  0
 21 22  2  0
 22 23  1  0
 23 24  2  0
 23 25  1  0
 22 26  1  0
 21 27  1  0
 20 28  1  0
 18 29  1  1
 17 30  1  0
 17 31  1  0
 16 32  1  6
 15 33  2  0
  1 34  1  0
  1 35  1  0
  1 36  1  0
 33  2  1  0
 10  5  1  0
 18 16  1  0
 24 19  1  0
M  END
>  <cnnaffinity>  (1) 
5.20612

>  <plip>  (1) 
-0.06896551724137931

>  <filename>  (1) 
[H][c]1[n][c]([C@]2([H])[C]([H])([H])[C@@]2([H])[c]2[n][c]([C]([H])([H])[H])[n][n]2-[c]2[c]([H])[n][c]([H])[c]([H])[c]2[H])[c]([H])[c]([H])[c]1[H]

>  <combo1>  (1) 
-0.43154540797902136

$$$$
