
     RDKit          3D

 26 27  0  0  0  0  0  0  0  0999 V2000
   12.5582    0.2263   23.0410 H   0  0  0  0  0  0  0  0  0  0  0  0
   11.5814    0.3858   22.5934 C   0  0  0  0  0  0  0  0  0  0  0  0
   10.9274    1.5024   22.2784 C   0  0  0  0  0  0  0  0  0  0  0  0
   11.2065    2.5466   22.3830 H   0  0  0  0  0  0  0  0  0  0  0  0
    9.6147    1.1484   21.6567 C   0  0  0  0  0  0  0  0  0  0  0  0
    8.7982    1.8973   21.1862 O   0  0  0  0  0  0  0  0  0  0  0  0
    9.5539   -0.2637   21.7101 N   0  0  0  0  0  0  0  0  0  0  0  0
    8.7398   -0.9702   20.7748 N   0  0  0  0  0  0  0  0  0  0  0  0
    8.8622   -1.9903   20.8936 H   0  0  0  0  0  0  0  0  0  0  0  0
    7.3815   -0.6740   20.9456 N   0  0  0  0  0  0  0  0  0  0  0  0
    6.6921   -0.0037   19.9237 C   0  0  0  0  0  0  0  0  0  0  0  0
    7.1937    0.0643   18.6015 C   0  0  0  0  0  0  0  0  0  0  0  0
    8.1372   -0.4194   18.3694 H   0  0  0  0  0  0  0  0  0  0  0  0
    6.5681    0.6696   17.5826 N   0  0  0  0  0  0  0  0  0  0  0  0
    5.4042    1.2881   17.8374 C   0  0  0  0  0  0  0  0  0  0  0  0
    4.9225    1.7838   16.9950 H   0  0  0  0  0  0  0  0  0  0  0  0
    4.8211    1.3003   19.1062 C   0  0  0  0  0  0  0  0  0  0  0  0
    3.8898    1.8301   19.2631 H   0  0  0  0  0  0  0  0  0  0  0  0
    5.4555    0.6395   20.1630 C   0  0  0  0  0  0  0  0  0  0  0  0
    5.0135    0.6293   21.1605 H   0  0  0  0  0  0  0  0  0  0  0  0
    6.7182   -1.0672   22.1841 C   0  0  0  0  0  0  0  0  0  0  0  0
    5.8060   -1.6311   21.9451 H   0  0  0  0  0  0  0  0  0  0  0  0
    7.3750   -1.7232   22.7681 H   0  0  0  0  0  0  0  0  0  0  0  0
    6.4422   -0.1937   22.7933 H   0  0  0  0  0  0  0  0  0  0  0  0
   10.7461   -0.7848   22.1993 C   0  0  0  0  0  0  0  0  0  0  0  0
   11.0207   -1.9592   22.2819 O   0  0  0  0  0  0  0  0  0  0  0  0
  1  2  1  0
  2  3  2  0
  3  4  1  0
  3  5  1  0
  5  6  2  0
  5  7  1  0
  7  8  1  0
  8  9  1  0
  8 10  1  0
 10 11  1  0
 11 12  2  0
 12 13  1  0
 12 14  1  0
 14 15  2  0
 15 16  1  0
 15 17  1  0
 17 18  1  0
 17 19  2  0
 19 20  1  0
 10 21  1  0
 21 22  1  0
 21 23  1  0
 21 24  1  0
  7 25  1  0
 25 26  2  0
 25  2  1  0
 19 11  1  0
M  END
>  <cnnaffinity>  (1) 
5.00546

>  <plip>  (1) 
-0.07142857142857142

>  <filename>  (1) 
[H][C]1=[C]([H])[C](=[O])[N]([N]([H])[N]([c]2[c]([H])[n][c]([H])[c]([H])[c]2[H])[C]([H])([H])[H])[C]1=[O]

>  <combo1>  (1) 
-0.5461451912216292

$$$$
