
     RDKit          3D

 32 34  0  0  0  0  0  0  0  0999 V2000
    6.7732   -3.5418   23.2334 N   0  0  0  0  0  0  0  0  0  0  0  0
    7.3789   -2.4300   22.6607 C   0  0  0  0  0  0  0  0  0  0  0  0
    6.7253   -1.6766   21.6822 C   0  0  0  0  0  0  0  0  0  0  0  0
    7.3909   -0.6570   20.9887 C   0  0  0  0  0  0  0  0  0  0  0  0
    6.6582    0.0425   19.8894 C   0  0  0  0  0  0  0  0  0  0  0  0
    5.4235    0.6683   20.1141 C   0  0  0  0  0  0  0  0  0  0  0  0
    4.7983    1.3277   19.0568 C   0  0  0  0  0  0  0  0  0  0  0  0
    5.3989    1.3122   17.7948 C   0  0  0  0  0  0  0  0  0  0  0  0
    6.5594    0.6898   17.5438 N   0  0  0  0  0  0  0  0  0  0  0  0
    7.1666    0.0877   18.5772 C   0  0  0  0  0  0  0  0  0  0  0  0
    8.1156   -0.3942   18.3443 H   0  0  0  0  0  0  0  0  0  0  0  0
    4.9263    1.8134   16.9503 H   0  0  0  0  0  0  0  0  0  0  0  0
    3.8618    1.8462   19.1950 H   0  0  0  0  0  0  0  0  0  0  0  0
    4.9849    0.6605   21.1135 H   0  0  0  0  0  0  0  0  0  0  0  0
    8.7306   -0.3310   21.3308 C   0  0  0  0  0  0  0  0  0  0  0  0
    9.3435    0.6606   20.6013 O   0  0  0  0  0  0  0  0  0  0  0  0
   10.0746    1.6702   21.3019 C   0  0  0  0  0  0  0  0  0  0  0  0
   11.4040    1.1346   21.8097 C   0  0  0  0  0  0  0  0  0  0  0  0
   11.2660    0.2661   23.0480 C   0  0  0  0  0  0  0  0  0  0  0  0
   10.6980   -1.0021   22.7344 O   0  0  0  0  0  0  0  0  0  0  0  0
    9.3803   -1.0897   22.3508 C   0  0  0  0  0  0  0  0  0  0  0  0
    8.6881   -2.1084   23.0001 C   0  0  0  0  0  0  0  0  0  0  0  0
    9.2184   -2.6684   23.7608 H   0  0  0  0  0  0  0  0  0  0  0  0
   10.6763    0.7680   23.8344 H   0  0  0  0  0  0  0  0  0  0  0  0
   12.2500    0.0330   23.4679 H   0  0  0  0  0  0  0  0  0  0  0  0
   11.8142    0.4977   21.0277 H   0  0  0  0  0  0  0  0  0  0  0  0
   12.1048    1.9544   21.9989 H   0  0  0  0  0  0  0  0  0  0  0  0
   10.2370    2.4750   20.5848 H   0  0  0  0  0  0  0  0  0  0  0  0
    9.4587    2.0826   22.1176 H   0  0  0  0  0  0  0  0  0  0  0  0
    5.6942   -1.9128   21.4502 H   0  0  0  0  0  0  0  0  0  0  0  0
    7.1468   -3.7837   24.1392 H   0  0  0  0  0  0  0  0  0  0  0  0
    5.7661   -3.4745   23.2690 H   0  0  0  0  0  0  0  0  0  0  0  0
  1  2  1  0
  2  3  2  0
  3  4  1  0
  4  5  1  0
  5  6  2  0
  6  7  1  0
  7  8  2  0
  8  9  1  0
  9 10  2  0
 10 11  1  0
  8 12  1  0
  7 13  1  0
  6 14  1  0
  4 15  2  0
 15 16  1  0
 16 17  1  0
 17 18  1  0
 18 19  1  0
 19 20  1  0
 20 21  1  0
 21 22  2  0
 22 23  1  0
 19 24  1  0
 19 25  1  0
 18 26  1  0
 18 27  1  0
 17 28  1  0
 17 29  1  0
  3 30  1  0
  1 31  1  0
  1 32  1  0
 22  2  1  0
 10  5  1  0
 21 15  1  0
M  END
>  <cnnaffinity>  (1) 
5.11672

>  <plip>  (1) 
-0.14285714285714285

>  <filename>  (1) 
[H][c]1[n][c]([H])[c](-[c]2[c]([H])[c]([N]([H])[H])[c]([H])[c]3[c]2[O][C]([H])([H])[C]([H])([H])[C]([H])([H])[O]3)[c]([H])[c]1[H]

>  <combo1>  (1) 
-1.0056766744538643

$$$$
