
     RDKit          3D

 32 34  0  0  0  0  0  0  0  0999 V2000
    4.9673    1.7654   17.0036 H   0  0  0  0  0  0  0  0  0  0  0  0
    5.4397    1.2741   17.8553 C   0  0  0  0  0  0  0  0  0  0  0  0
    6.6035    0.6525   17.6164 N   0  0  0  0  0  0  0  0  0  0  0  0
    7.2226    0.0562   18.6429 C   0  0  0  0  0  0  0  0  0  0  0  0
    8.1465   -0.4447   18.3557 H   0  0  0  0  0  0  0  0  0  0  0  0
    6.7074    0.0278   19.9446 C   0  0  0  0  0  0  0  0  0  0  0  0
    7.3572   -0.7087   21.0632 C   0  0  0  0  0  0  0  0  0  0  0  0
    6.7268   -1.3261   21.8972 O   0  0  0  0  0  0  0  0  0  0  0  0
    8.7323   -0.6330   21.1228 N   0  0  0  0  0  0  0  0  0  0  0  0
    9.2591   -0.3866   20.3025 H   0  0  0  0  0  0  0  0  0  0  0  0
    9.4971   -1.1583   22.1334 C   0  0  0  0  0  0  0  0  0  0  0  0
   10.9941   -1.7247   21.7630 S   0  0  0  0  0  0  0  0  0  0  0  0
    8.9381   -1.1790   23.5118 C   0  0  0  0  0  0  0  0  0  0  0  0
    9.0317   -2.3003   24.3165 C   0  0  0  0  0  0  0  0  0  0  0  0
    9.5095   -3.1983   23.9289 H   0  0  0  0  0  0  0  0  0  0  0  0
    8.5399   -2.2966   25.6434 C   0  0  0  0  0  0  0  0  0  0  0  0
    8.6334   -3.1990   26.2399 H   0  0  0  0  0  0  0  0  0  0  0  0
    7.9711   -1.1631   26.1824 C   0  0  0  0  0  0  0  0  0  0  0  0
    7.5924   -1.1442   27.2031 H   0  0  0  0  0  0  0  0  0  0  0  0
    7.8746    0.0202   25.4054 C   0  0  0  0  0  0  0  0  0  0  0  0
    7.3146    1.2346   25.9035 C   0  0  0  0  0  0  0  0  0  0  0  0
    6.9226    1.2513   26.9216 H   0  0  0  0  0  0  0  0  0  0  0  0
    7.2940    2.3382   25.0835 C   0  0  0  0  0  0  0  0  0  0  0  0
    6.8732    3.2828   25.4004 H   0  0  0  0  0  0  0  0  0  0  0  0
    7.8421    2.2390   23.7755 C   0  0  0  0  0  0  0  0  0  0  0  0
    7.8400    3.1110   23.1224 H   0  0  0  0  0  0  0  0  0  0  0  0
    8.3662    1.1445   23.2811 N   0  0  0  0  0  0  0  0  0  0  0  0
    8.3697    0.0155   24.0535 C   0  0  0  0  0  0  0  0  0  0  0  0
    5.4724    0.6597   20.1748 C   0  0  0  0  0  0  0  0  0  0  0  0
    5.0200    0.6202   21.1692 H   0  0  0  0  0  0  0  0  0  0  0  0
    4.8378    1.3039   19.1177 C   0  0  0  0  0  0  0  0  0  0  0  0
    3.8955    1.8218   19.2496 H   0  0  0  0  0  0  0  0  0  0  0  0
  1  2  1  0
  2  3  2  0
  3  4  1  0
  4  5  1  0
  4  6  2  0
  6  7  1  0
  7  8  2  0
  7  9  1  0
  9 10  1  0
  9 11  1  0
 11 12  2  0
 11 13  1  0
 13 14  2  0
 14 15  1  0
 14 16  1  0
 16 17  1  0
 16 18  2  0
 18 19  1  0
 18 20  1  0
 20 21  2  0
 21 22  1  0
 21 23  1  0
 23 24  1  0
 23 25  2  0
 25 26  1  0
 25 27  1  0
 27 28  2  0
  6 29  1  0
 29 30  1  0
 29 31  2  0
 31 32  1  0
 31  2  1  0
 28 13  1  0
 28 20  1  0
M  END
>  <cnnaffinity>  (1) 
5.38866

>  <plip>  (1) 
-0.034482758620689655

>  <filename>  (1) 
[H][c]1[n][c]([H])[c]([C](=[O])[N]([H])[C](=[S])[c]2[c]([H])[c]([H])[c]([H])[c]3[c]([H])[c]([H])[c]([H])[n][c]23)[c]([H])[c]1[H]

>  <combo1>  (1) 
-0.21114167222765615

$$$$
