
     RDKit          3D

 43 47  0  0  0  0  0  0  0  0999 V2000
    5.0435    1.8364   17.0377 H   0  0  0  0  0  0  0  0  0  0  0  0
    5.5425    1.3006   17.8441 C   0  0  0  0  0  0  0  0  0  0  0  0
    6.6965    0.6912   17.5270 N   0  0  0  0  0  0  0  0  0  0  0  0
    7.3374    0.0189   18.4912 C   0  0  0  0  0  0  0  0  0  0  0  0
    8.2781   -0.4517   18.2035 H   0  0  0  0  0  0  0  0  0  0  0  0
    6.8501   -0.1110   19.8046 C   0  0  0  0  0  0  0  0  0  0  0  0
    7.5379   -0.9100   20.7565 N   0  0  0  0  0  0  0  0  0  0  0  0
    8.8807   -0.8234   21.1180 C   0  0  0  0  0  0  0  0  0  0  0  0
    9.4951   -0.0583   20.6696 H   0  0  0  0  0  0  0  0  0  0  0  0
    9.1530   -1.7587   22.0710 C   0  0  0  0  0  0  0  0  0  0  0  0
   10.0360   -1.9764   22.6473 H   0  0  0  0  0  0  0  0  0  0  0  0
    7.9701   -2.4467   22.2851 N   0  0  0  0  0  0  0  0  0  0  0  0
    7.5621   -3.4827   23.0845 N   0  0  0  0  0  0  0  0  0  0  0  0
    6.2594   -3.5589   22.7795 C   0  0  0  0  0  0  0  0  0  0  0  0
    5.3862   -4.4712   23.3224 N   0  0  0  0  0  0  0  0  0  0  0  0
    3.9630   -4.1721   23.2698 C   0  0  0  0  0  0  0  0  0  0  0  0
    3.6382   -4.0954   22.2289 H   0  0  0  0  0  0  0  0  0  0  0  0
    3.7540   -3.2030   23.7599 H   0  0  0  0  0  0  0  0  0  0  0  0
    3.2611   -5.3220   24.0087 C   0  0  0  0  0  0  0  0  0  0  0  0
    2.6328   -4.8917   24.7934 H   0  0  0  0  0  0  0  0  0  0  0  0
    2.5923   -5.8846   23.3477 H   0  0  0  0  0  0  0  0  0  0  0  0
    4.3939   -6.2025   24.5851 C   0  0  2  0  0  0  0  0  0  0  0  0
    4.4831   -7.1037   23.9803 H   0  0  0  0  0  0  0  0  0  0  0  0
    4.2852   -6.5379   26.0798 C   0  0  0  0  0  0  0  0  0  0  0  0
    4.4122   -7.6127   26.2734 H   0  0  0  0  0  0  0  0  0  0  0  0
    3.2789   -6.2808   26.4574 H   0  0  0  0  0  0  0  0  0  0  0  0
    5.3408   -5.7639   26.7545 N   0  0  0  0  0  0  0  0  0  0  0  0
    4.9783   -5.3085   28.0852 C   0  0  0  0  0  0  0  0  0  0  0  0
    4.6713   -6.1623   28.7031 H   0  0  0  0  0  0  0  0  0  0  0  0
    4.1443   -4.5754   28.0894 H   0  0  0  0  0  0  0  0  0  0  0  0
    5.8398   -4.8386   28.5726 H   0  0  0  0  0  0  0  0  0  0  0  0
    5.7743   -4.6969   25.8426 C   0  0  0  0  0  0  0  0  0  0  0  0
    6.7932   -4.3451   26.0579 H   0  0  0  0  0  0  0  0  0  0  0  0
    5.0995   -3.8173   25.8732 H   0  0  0  0  0  0  0  0  0  0  0  0
    5.6713   -5.3422   24.4513 C   0  0  2  0  0  0  0  0  0  0  0  0
    6.5624   -5.9466   24.2684 H   0  0  0  0  0  0  0  0  0  0  0  0
    5.8350   -2.6115   21.8195 C   0  0  0  0  0  0  0  0  0  0  0  0
    4.8201   -2.4586   21.5386 H   0  0  0  0  0  0  0  0  0  0  0  0
    6.9862   -1.9282   21.5153 C   0  0  0  0  0  0  0  0  0  0  0  0
    5.6556    0.5520   20.1342 C   0  0  0  0  0  0  0  0  0  0  0  0
    5.2784    0.5278   21.1568 H   0  0  0  0  0  0  0  0  0  0  0  0
    4.9941    1.2658   19.1309 C   0  0  0  0  0  0  0  0  0  0  0  0
    4.0725    1.7997   19.3370 H   0  0  0  0  0  0  0  0  0  0  0  0
  1  2  1  0
  2  3  2  0
  3  4  1  0
  4  5  1  0
  4  6  2  0
  6  7  1  0
  7  8  1  0
  8  9  1  0
  8 10  2  0
 10 11  1  0
 10 12  1  0
 12 13  1  0
 13 14  2  0
 14 15  1  0
 15 16  1  0
 16 17  1  0
 16 18  1  0
 16 19  1  0
 19 20  1  0
 19 21  1  0
 19 22  1  0
 22 23  1  6
 22 24  1  0
 24 25  1  0
 24 26  1  0
 24 27  1  0
 27 28  1  0
 28 29  1  0
 28 30  1  0
 28 31  1  0
 27 32  1  0
 32 33  1  0
 32 34  1  0
 32 35  1  0
 35 36  1  6
 14 37  1  0
 37 38  1  0
 37 39  2  0
  6 40  1  0
 40 41  1  0
 40 42  2  0
 42 43  1  0
 42  2  1  0
 39  7  1  0
 39 12  1  0
 35 15  1  0
 35 22  1  0
M  END
>  <cnnaffinity>  (1) 
5.41684

>  <plip>  (1) 
-0.03333333333333333

>  <filename>  (1) 
[H][c]1[n][c]([H])[c](-[n]2[c]([H])[c]([H])[n]3[n][c]([N]4[C]([H])([H])[C]([H])([H])[C@]5([H])[C]([H])([H])[N]([C]([H])([H])[H])[C]([H])([H])[C@]45[H])[c]([H])[c]23)[c]([H])[c]1[H]

>  <combo1>  (1) 
-0.1951662060291096

$$$$
