
     RDKit          3D

 25 25  0  0  0  0  0  0  0  0999 V2000
   10.6561   -2.2516   20.6931 H   0  0  0  0  0  0  0  0  0  0  0  0
    9.7147   -2.1449   20.8764 O   0  0  0  0  0  0  0  0  0  0  0  0
    9.8647   -1.4449   22.2522 P   0  0  0  0  0  0  0  0  0  0  0  0
   10.7690   -2.2581   23.0540 O   0  0  0  0  0  0  0  0  0  0  0  0
   10.6542   -0.1465   21.9711 O   0  0  0  0  0  0  0  0  0  0  0  0
   11.5081   -0.5851   21.8637 H   0  0  0  0  0  0  0  0  0  0  0  0
    8.3779   -1.1581   23.0153 C   0  0  0  0  0  0  0  0  0  0  0  0
    8.5365   -0.6804   23.9779 H   0  0  0  0  0  0  0  0  0  0  0  0
    7.8079   -2.0802   23.1080 H   0  0  0  0  0  0  0  0  0  0  0  0
    7.8244   -0.2633   22.0117 C   0  0  0  0  0  0  0  0  0  0  0  0
    7.5581   -0.7889   20.8441 N   0  0  0  0  0  0  0  0  0  0  0  0
    6.8804   -0.0535   19.8698 C   0  0  0  0  0  0  0  0  0  0  0  0
    7.2956   -0.0135   18.5186 C   0  0  0  0  0  0  0  0  0  0  0  0
    8.2062   -0.5399   18.2465 H   0  0  0  0  0  0  0  0  0  0  0  0
    6.6232    0.6439   17.5452 N   0  0  0  0  0  0  0  0  0  0  0  0
    5.4812    1.2748   17.8810 C   0  0  0  0  0  0  0  0  0  0  0  0
    4.9263    1.8063   17.1124 H   0  0  0  0  0  0  0  0  0  0  0  0
    4.9860    1.2553   19.1901 C   0  0  0  0  0  0  0  0  0  0  0  0
    4.0493    1.7513   19.4100 H   0  0  0  0  0  0  0  0  0  0  0  0
    5.6915    0.5990   20.2014 C   0  0  0  0  0  0  0  0  0  0  0  0
    5.3258    0.5575   21.2242 H   0  0  0  0  0  0  0  0  0  0  0  0
    7.6806    1.1879   22.3470 C   0  0  0  0  0  0  0  0  0  0  0  0
    6.6386    1.4221   22.5715 H   0  0  0  0  0  0  0  0  0  0  0  0
    8.2933    1.4333   23.2197 H   0  0  0  0  0  0  0  0  0  0  0  0
    8.0008    1.8062   21.5048 H   0  0  0  0  0  0  0  0  0  0  0  0
  1  2  1  0
  2  3  1  0
  3  4  2  0
  3  5  1  0
  5  6  1  0
  3  7  1  0
  7  8  1  0
  7  9  1  0
  7 10  1  0
 10 11  2  3
 11 12  1  0
 12 13  2  0
 13 14  1  0
 13 15  1  0
 15 16  2  0
 16 17  1  0
 16 18  1  0
 18 19  1  0
 18 20  2  0
 20 21  1  0
 10 22  1  0
 22 23  1  0
 22 24  1  0
 22 25  1  0
 20 12  1  0
M  END
>  <cnnaffinity>  (1) 
4.1189

>  <plip>  (1) 
-0.03333333333333333

>  <filename>  (1) 
[H][O][P](=[O])([O][H])[C]([H])([H])[C](=[N][c]1[c]([H])[n][c]([H])[c]([H])[c]1[H])[C]([H])([H])[H]

>  <combo1>  (1) 
-0.213696964225772

$$$$
