
     RDKit          3D

 29 31  0  0  0  0  0  0  0  0999 V2000
    4.9156    1.7950   16.9889 H   0  0  0  0  0  0  0  0  0  0  0  0
    5.3919    1.2993   17.8294 C   0  0  0  0  0  0  0  0  0  0  0  0
    6.5511    0.6785   17.5671 N   0  0  0  0  0  0  0  0  0  0  0  0
    7.1491    0.0365   18.5725 C   0  0  0  0  0  0  0  0  0  0  0  0
    8.1168   -0.4180   18.3670 H   0  0  0  0  0  0  0  0  0  0  0  0
    6.6198   -0.0397   19.8753 C   0  0  0  0  0  0  0  0  0  0  0  0
    7.5511   -0.8509   21.1859 S   0  0  0  0  0  0  0  0  0  0  0  0
    8.6088    0.5163   21.5938 C   0  0  0  0  0  0  0  0  0  0  0  0
    9.7477    0.8321   21.0105 N   0  0  0  0  0  0  0  0  0  0  0  0
   10.1236    2.0058   21.5629 N   0  0  0  0  0  0  0  0  0  0  0  0
    9.2689    2.4087   22.4293 N   0  0  0  0  0  0  0  0  0  0  0  0
    8.2912    1.4885   22.4714 N   0  0  0  0  0  0  0  0  0  0  0  0
    7.0835    1.6851   23.2864 C   0  0  1  0  0  0  0  0  0  0  0  0
    6.5396    0.7442   23.2373 H   0  0  0  0  0  0  0  0  0  0  0  0
    7.4315    2.0626   24.7332 C   0  0  0  0  0  0  0  0  0  0  0  0
    8.3918    1.6325   25.0411 H   0  0  0  0  0  0  0  0  0  0  0  0
    6.6701    1.6524   25.4098 H   0  0  0  0  0  0  0  0  0  0  0  0
    7.4453    3.5312   24.8111 N   0  0  0  0  0  0  0  0  0  0  0  0
    8.4073    3.8389   24.7525 H   0  0  0  0  0  0  0  0  0  0  0  0
    6.7038    4.0814   23.6606 C   0  0  0  0  0  0  0  0  0  0  0  0
    5.8569    4.6984   23.9975 H   0  0  0  0  0  0  0  0  0  0  0  0
    7.3616    4.7400   23.0725 H   0  0  0  0  0  0  0  0  0  0  0  0
    6.2345    2.8801   22.8110 C   0  0  0  0  0  0  0  0  0  0  0  0
    5.1716    2.6731   22.9865 H   0  0  0  0  0  0  0  0  0  0  0  0
    6.3501    3.0640   21.7388 H   0  0  0  0  0  0  0  0  0  0  0  0
    5.4227    0.6292   20.1468 C   0  0  0  0  0  0  0  0  0  0  0  0
    5.0155    0.6396   21.1649 H   0  0  0  0  0  0  0  0  0  0  0  0
    4.7995    1.3109   19.0992 C   0  0  0  0  0  0  0  0  0  0  0  0
    3.8707    1.8489   19.2518 H   0  0  0  0  0  0  0  0  0  0  0  0
  1  2  1  0
  2  3  2  0
  3  4  1  0
  4  5  1  0
  4  6  2  0
  6  7  1  0
  7  8  1  0
  8  9  2  0
  9 10  1  0
 10 11  2  0
 11 12  1  0
 12 13  1  0
 13 14  1  1
 13 15  1  0
 15 16  1  0
 15 17  1  0
 15 18  1  0
 18 19  1  0
 18 20  1  0
 20 21  1  0
 20 22  1  0
 20 23  1  0
 23 24  1  0
 23 25  1  0
  6 26  1  0
 26 27  1  0
 26 28  2  0
 28 29  1  0
 28  2  1  0
 12  8  1  0
 23 13  1  0
M  END
>  <cnnaffinity>  (1) 
4.7352

>  <plip>  (1) 
-0.03571428571428571

>  <filename>  (1) 
[H][c]1[n][c]([H])[c]([S][c]2[n][n][n][n]2[C@@]2([H])[C]([H])([H])[N]([H])[C]([H])([H])[C]2([H])[H])[c]([H])[c]1[H]

>  <combo1>  (1) 
-0.22701580078299155

$$$$
