
     RDKit          3D

 36 37  0  0  0  0  0  0  0  0999 V2000
    7.8618   -2.4162   25.7173 C   0  0  0  0  0  0  0  0  0  0  0  0
    8.3905   -1.1191   26.3274 C   0  0  0  0  0  0  0  0  0  0  0  0
    8.6768   -0.1245   25.3012 N   0  0  0  0  0  0  0  0  0  0  0  0
    9.9226    0.0225   24.7622 C   0  0  0  0  0  0  0  0  0  0  0  0
   10.9391   -0.3520   25.3152 O   0  0  0  0  0  0  0  0  0  0  0  0
    9.9804    0.7542   23.3801 C   0  0  0  0  0  0  0  0  0  0  0  0
    9.2362    0.1941   22.2273 N   0  0  0  0  0  0  0  0  0  0  0  0
    9.8242   -0.6244   21.2608 C   0  0  0  0  0  0  0  0  0  0  0  0
   10.9822   -0.9610   21.2488 O   0  0  0  0  0  0  0  0  0  0  0  0
    8.8731   -1.0074   20.3668 N   0  0  0  0  0  0  0  0  0  0  0  0
    7.5318   -0.6878   20.8339 C   0  0  0  0  0  0  0  0  0  0  0  0
    6.7949   -1.9798   21.2231 C   0  0  0  0  0  0  0  0  0  0  0  0
    6.7339   -2.6218   20.3377 H   0  0  0  0  0  0  0  0  0  0  0  0
    7.3336   -2.5147   22.0145 H   0  0  0  0  0  0  0  0  0  0  0  0
    5.7733   -1.7784   21.5652 H   0  0  0  0  0  0  0  0  0  0  0  0
    6.7624    0.0756   19.7612 C   0  0  0  0  0  0  0  0  0  0  0  0
    5.5933    0.7796   20.0787 C   0  0  0  0  0  0  0  0  0  0  0  0
    4.8862    1.3984   19.0437 C   0  0  0  0  0  0  0  0  0  0  0  0
    5.3703    1.2791   17.7333 C   0  0  0  0  0  0  0  0  0  0  0  0
    6.4808    0.6011   17.4069 N   0  0  0  0  0  0  0  0  0  0  0  0
    7.1550    0.0331   18.4118 C   0  0  0  0  0  0  0  0  0  0  0  0
    8.0741   -0.4769   18.1439 H   0  0  0  0  0  0  0  0  0  0  0  0
    4.8529    1.7566   16.9053 H   0  0  0  0  0  0  0  0  0  0  0  0
    3.9852    1.9800   19.2306 H   0  0  0  0  0  0  0  0  0  0  0  0
    5.2575    0.8475   21.1169 H   0  0  0  0  0  0  0  0  0  0  0  0
    7.8678    0.1751   22.0985 C   0  0  0  0  0  0  0  0  0  0  0  0
    7.1024    0.6470   22.9163 O   0  0  0  0  0  0  0  0  0  0  0  0
    9.0914   -1.8954   19.9423 H   0  0  0  0  0  0  0  0  0  0  0  0
    9.6545    1.7887   23.5468 H   0  0  0  0  0  0  0  0  0  0  0  0
   11.0368    0.7631   23.1044 H   0  0  0  0  0  0  0  0  0  0  0  0
    7.8981    0.2017   24.7443 H   0  0  0  0  0  0  0  0  0  0  0  0
    9.3105   -1.2882   26.8945 H   0  0  0  0  0  0  0  0  0  0  0  0
    7.6568   -0.7002   27.0270 H   0  0  0  0  0  0  0  0  0  0  0  0
    8.5836   -2.8305   25.0052 H   0  0  0  0  0  0  0  0  0  0  0  0
    6.9317   -2.2321   25.1658 H   0  0  0  0  0  0  0  0  0  0  0  0
    7.6585   -3.1697   26.4881 H   0  0  0  0  0  0  0  0  0  0  0  0
  1  2  1  0
  2  3  1  0
  3  4  1  0
  4  5  2  0
  4  6  1  0
  6  7  1  0
  7  8  1  0
  8  9  2  0
  8 10  1  0
 10 11  1  0
 11 12  1  0
 12 13  1  0
 12 14  1  0
 12 15  1  0
 11 16  1  0
 16 17  2  0
 17 18  1  0
 18 19  2  0
 19 20  1  0
 20 21  2  0
 21 22  1  0
 19 23  1  0
 18 24  1  0
 17 25  1  0
 11 26  1  0
 26 27  2  0
 10 28  1  0
  6 29  1  0
  6 30  1  0
  3 31  1  0
  2 32  1  0
  2 33  1  0
  1 34  1  0
  1 35  1  0
  1 36  1  0
 26  7  1  0
 21 16  1  0
M  END
>  <cnnaffinity>  (1) 
4.66441

>  <plip>  (1) 
-0.06896551724137931

>  <filename>  (1) 
[H][c]1[n][c]([H])[c]([C]2([C]([H])([H])[H])[C](=[O])[N]([C]([H])([H])[C](=[O])[N]([H])[C]([H])([H])[C]([H])([H])[H])[C](=[O])[N]2[H])[c]([H])[c]1[H]

>  <combo1>  (1) 
-0.3880903671857503

$$$$
