
     RDKit          3D

 36 38  0  0  0  0  0  0  0  0999 V2000
    9.3585    0.4848   20.5367 O   0  0  0  0  0  0  0  0  0  0  0  0
    8.7525   -0.3884   21.1329 C   0  0  0  0  0  0  0  0  0  0  0  0
    9.5077   -1.3146   22.1122 C   0  0  0  0  0  0  0  0  0  0  0  0
    8.6836   -2.1471   22.9835 N   0  0  0  0  0  0  0  0  0  0  0  0
    9.2956   -2.8155   24.0455 C   0  0  0  0  0  0  0  0  0  0  0  0
   10.2413   -3.6978   23.7423 N   0  0  0  0  0  0  0  0  0  0  0  0
   10.7492   -4.4197   24.7527 C   0  0  0  0  0  0  0  0  0  0  0  0
   10.3420   -4.2863   26.0787 C   0  0  0  0  0  0  0  0  0  0  0  0
    9.3956   -3.3038   26.3962 C   0  0  0  0  0  0  0  0  0  0  0  0
    8.8757   -2.5285   25.3616 C   0  0  0  0  0  0  0  0  0  0  0  0
    7.8744   -1.4276   25.5572 C   0  0  0  0  0  0  0  0  0  0  0  0
    8.2213   -0.3179   24.8472 F   0  0  0  0  0  0  0  0  0  0  0  0
    6.6487   -1.8287   25.0798 F   0  0  0  0  0  0  0  0  0  0  0  0
    7.7266   -1.1212   26.6001 H   0  0  0  0  0  0  0  0  0  0  0  0
    9.0779   -3.1572   27.4302 H   0  0  0  0  0  0  0  0  0  0  0  0
   10.7596   -4.9337   26.8416 H   0  0  0  0  0  0  0  0  0  0  0  0
   11.5120   -5.1482   24.4780 H   0  0  0  0  0  0  0  0  0  0  0  0
    7.5030   -2.7128   22.3431 C   0  0  0  0  0  0  0  0  0  0  0  0
    6.6565   -1.5341   21.8545 C   0  0  0  0  0  0  0  0  0  0  0  0
    7.4078   -0.6840   20.9046 N   0  0  0  0  0  0  0  0  0  0  0  0
    6.7002   -0.0077   19.8607 C   0  0  0  0  0  0  0  0  0  0  0  0
    5.4803    0.6222   20.1321 C   0  0  0  0  0  0  0  0  0  0  0  0
    4.8266    1.2907   19.0938 C   0  0  0  0  0  0  0  0  0  0  0  0
    5.3989    1.2921   17.8187 C   0  0  0  0  0  0  0  0  0  0  0  0
    6.5536    0.6672   17.5334 N   0  0  0  0  0  0  0  0  0  0  0  0
    7.1908    0.0489   18.5352 C   0  0  0  0  0  0  0  0  0  0  0  0
    8.1390   -0.4246   18.2888 H   0  0  0  0  0  0  0  0  0  0  0  0
    4.9168    1.8139   16.9956 H   0  0  0  0  0  0  0  0  0  0  0  0
    3.8941    1.8133   19.2674 H   0  0  0  0  0  0  0  0  0  0  0  0
    5.0791    0.6025   21.1441 H   0  0  0  0  0  0  0  0  0  0  0  0
    5.7440   -1.8905   21.3720 H   0  0  0  0  0  0  0  0  0  0  0  0
    6.3461   -0.9616   22.7331 H   0  0  0  0  0  0  0  0  0  0  0  0
    6.9167   -3.2940   23.0622 H   0  0  0  0  0  0  0  0  0  0  0  0
    7.7814   -3.3790   21.5078 H   0  0  0  0  0  0  0  0  0  0  0  0
   10.1692   -0.6618   22.6929 H   0  0  0  0  0  0  0  0  0  0  0  0
   10.1630   -1.9232   21.4706 H   0  0  0  0  0  0  0  0  0  0  0  0
  1  2  2  0
  2  3  1  0
  3  4  1  0
  4  5  1  0
  5  6  2  0
  6  7  1  0
  7  8  2  0
  8  9  1  0
  9 10  2  0
 10 11  1  0
 11 12  1  0
 11 13  1  0
 11 14  1  0
  9 15  1  0
  8 16  1  0
  7 17  1  0
  4 18  1  0
 18 19  1  0
 19 20  1  0
 20 21  1  0
 21 22  2  0
 22 23  1  0
 23 24  2  0
 24 25  1  0
 25 26  2  0
 26 27  1  0
 24 28  1  0
 23 29  1  0
 22 30  1  0
 19 31  1  0
 19 32  1  0
 18 33  1  0
 18 34  1  0
  3 35  1  0
  3 36  1  0
 20  2  1  0
 26 21  1  0
 10  5  1  0
M  END
>  <cnnaffinity>  (1) 
5.24106

>  <plip>  (1) 
-0.06896551724137931

>  <filename>  (1) 
[H][c]1[n][c]([H])[c]([N]2[C](=[O])[C]([H])([H])[N]([c]3[n][c]([H])[c]([H])[c]([H])[c]3[C]([H])([F])[F])[C]([H])([H])[C]2([H])[H])[c]([H])[c]1[H]

>  <combo1>  (1) 
-0.3959386721361634

$$$$
