
     RDKit          3D

 32 34  0  0  0  0  0  0  0  0999 V2000
    6.4147    0.8761   22.9230 O   0  0  0  0  0  0  0  0  0  0  0  0
    7.1011    0.0109   22.4328 C   0  0  0  0  0  0  0  0  0  0  0  0
    8.0286   -0.9356   23.1683 C   0  0  0  0  0  0  0  0  0  0  0  0
    8.5434   -1.7649   22.0343 C   0  0  0  0  0  0  0  0  0  0  0  0
    8.0841   -1.3836   20.8807 N   0  0  0  0  0  0  0  0  0  0  0  0
    7.2171   -0.3439   21.0852 N   0  0  0  0  0  0  0  0  0  0  0  0
    6.5311    0.2037   19.9693 C   0  0  0  0  0  0  0  0  0  0  0  0
    5.3032    0.8569   20.1227 C   0  0  0  0  0  0  0  0  0  0  0  0
    4.7244    1.4176   18.9797 C   0  0  0  0  0  0  0  0  0  0  0  0
    5.3901    1.3236   17.7546 C   0  0  0  0  0  0  0  0  0  0  0  0
    6.5468    0.6580   17.5945 N   0  0  0  0  0  0  0  0  0  0  0  0
    7.0891    0.0914   18.6761 C   0  0  0  0  0  0  0  0  0  0  0  0
    8.0010   -0.4854   18.5387 H   0  0  0  0  0  0  0  0  0  0  0  0
    4.9776    1.7879   16.8614 H   0  0  0  0  0  0  0  0  0  0  0  0
    3.7693    1.9244   19.0331 H   0  0  0  0  0  0  0  0  0  0  0  0
    4.8308    0.9238   21.1008 H   0  0  0  0  0  0  0  0  0  0  0  0
    9.3406   -3.0325   22.0823 C   0  0  0  0  0  0  0  0  0  0  0  0
    8.7216   -4.0996   23.0075 C   0  0  0  0  0  0  0  0  0  0  0  0
    9.5956   -4.1637   24.2700 C   0  0  0  0  0  0  0  0  0  0  0  0
   10.8281   -3.2805   24.0253 C   0  0  0  0  0  0  0  0  0  0  0  0
   10.7954   -2.9011   22.5644 N   0  0  0  0  0  4  0  0  0  0  0  0
   11.1493   -1.9426   22.3782 H   0  0  0  0  0  0  0  0  0  0  0  0
   11.3983   -3.5999   22.0539 H   0  0  0  0  0  0  0  0  0  0  0  0
   11.7635   -3.7989   24.2642 H   0  0  0  0  0  0  0  0  0  0  0  0
   10.8102   -2.3777   24.6379 H   0  0  0  0  0  0  0  0  0  0  0  0
    9.0535   -3.8184   25.1564 H   0  0  0  0  0  0  0  0  0  0  0  0
    9.8922   -5.1978   24.4779 H   0  0  0  0  0  0  0  0  0  0  0  0
    8.7273   -5.0691   22.4966 H   0  0  0  0  0  0  0  0  0  0  0  0
    7.6715   -3.8579   23.2299 H   0  0  0  0  0  0  0  0  0  0  0  0
    9.3558   -3.3493   21.0419 H   0  0  0  0  0  0  0  0  0  0  0  0
    8.8020   -0.3722   23.7045 H   0  0  0  0  0  0  0  0  0  0  0  0
    7.4435   -1.4884   23.9129 H   0  0  0  0  0  0  0  0  0  0  0  0
  1  2  2  0
  2  3  1  0
  3  4  1  0
  4  5  2  0
  5  6  1  0
  6  7  1  0
  7  8  2  0
  8  9  1  0
  9 10  2  0
 10 11  1  0
 11 12  2  0
 12 13  1  0
 10 14  1  0
  9 15  1  0
  8 16  1  0
  4 17  1  0
 17 18  1  0
 18 19  1  0
 19 20  1  0
 20 21  1  0
 21 22  1  0
 21 23  1  0
 20 24  1  0
 20 25  1  0
 19 26  1  0
 19 27  1  0
 18 28  1  0
 18 29  1  0
 17 30  1  0
  3 31  1  0
  3 32  1  0
  6  2  1  0
 12  7  1  0
 21 17  1  0
M  CHG  1  21   1
M  END
>  <cnnaffinity>  (1) 
4.98687

>  <plip>  (1) 
-0.06896551724137931

>  <filename>  (1) 
[H][c]1[n][c]([H])[c]([N]2[N]=[C]([C]3([H])[C]([H])([H])[C]([H])([H])[C]([H])([H])[N+]3([H])[H])[C]([H])([H])[C]2=[O])[c]([H])[c]1[H]

>  <combo1>  (1) 
-0.4956813617110604

$$$$
