
     RDKit          3D

 32 34  0  0  0  0  0  0  0  0999 V2000
    5.0396    1.7761   16.9062 H   0  0  0  0  0  0  0  0  0  0  0  0
    5.4609    1.2543   17.7583 C   0  0  0  0  0  0  0  0  0  0  0  0
    6.6155    0.6055   17.5401 N   0  0  0  0  0  0  0  0  0  0  0  0
    7.1707   -0.0518   18.5678 C   0  0  0  0  0  0  0  0  0  0  0  0
    8.1233   -0.5544   18.3774 H   0  0  0  0  0  0  0  0  0  0  0  0
    6.6029   -0.0817   19.8617 C   0  0  0  0  0  0  0  0  0  0  0  0
    7.2015   -0.7519   20.9597 N   0  0  0  0  0  0  0  0  0  0  0  0
    8.0767   -1.2419   20.8502 H   0  0  0  0  0  0  0  0  0  0  0  0
    7.3287   -0.2211   22.2200 C   0  0  0  0  0  0  0  0  0  0  0  0
    6.8055    0.8461   22.6319 N   0  0  0  0  0  0  0  0  0  0  0  0
    7.1384    1.4516   23.8502 C   0  0  0  0  0  0  0  0  0  0  0  0
    6.0898    2.0831   24.5298 C   0  0  0  0  0  0  0  0  0  0  0  0
    5.1128    2.0478   24.0691 H   0  0  0  0  0  0  0  0  0  0  0  0
    6.2748    2.7355   25.7652 C   0  0  0  0  0  0  0  0  0  0  0  0
    5.4295    3.2069   26.2637 H   0  0  0  0  0  0  0  0  0  0  0  0
    7.5312    2.7855   26.3518 C   0  0  0  0  0  0  0  0  0  0  0  0
    7.7006    3.2542   27.3169 H   0  0  0  0  0  0  0  0  0  0  0  0
    8.5875    2.1943   25.6470 C   0  0  0  0  0  0  0  0  0  0  0  0
    8.4481    1.5510   24.3928 C   0  0  0  0  0  0  0  0  0  0  0  0
    9.7846    1.1566   24.0003 C   0  0  0  0  0  0  0  0  0  0  0  0
   10.0751    0.6487   23.0932 H   0  0  0  0  0  0  0  0  0  0  0  0
   10.6315    1.5414   24.9913 C   0  0  0  0  0  0  0  0  0  0  0  0
   11.7041    1.4293   25.0721 H   0  0  0  0  0  0  0  0  0  0  0  0
    9.9018    2.1341   25.9834 N   0  0  0  0  0  0  0  0  0  0  0  0
   10.2667    2.5268   26.8271 H   0  0  0  0  0  0  0  0  0  0  0  0
    8.1439   -1.0986   22.9096 N   0  0  0  0  0  0  0  0  0  0  0  0
    8.0791   -0.8717   23.8947 H   0  0  0  0  0  0  0  0  0  0  0  0
    7.7102   -1.9891   22.7189 H   0  0  0  0  0  0  0  0  0  0  0  0
    5.3895    0.5903   20.0658 C   0  0  0  0  0  0  0  0  0  0  0  0
    4.9665    0.5999   21.0695 H   0  0  0  0  0  0  0  0  0  0  0  0
    4.8109    1.2686   18.9955 C   0  0  0  0  0  0  0  0  0  0  0  0
    3.8894    1.8243   19.1219 H   0  0  0  0  0  0  0  0  0  0  0  0
  1  2  1  0
  2  3  2  0
  3  4  1  0
  4  5  1  0
  4  6  2  0
  6  7  1  0
  7  8  1  0
  7  9  1  0
  9 10  2  3
 10 11  1  0
 11 12  2  0
 12 13  1  0
 12 14  1  0
 14 15  1  0
 14 16  2  0
 16 17  1  0
 16 18  1  0
 18 19  2  0
 19 20  1  0
 20 21  1  0
 20 22  2  0
 22 23  1  0
 22 24  1  0
 24 25  1  0
  9 26  1  0
 26 27  1  0
 26 28  1  0
  6 29  1  0
 29 30  1  0
 29 31  2  0
 31 32  1  0
 31  2  1  0
 19 11  1  0
 24 18  1  0
M  END
>  <cnnaffinity>  (1) 
4.83064

>  <plip>  (1) 
-0.07142857142857142

>  <filename>  (1) 
[H][c]1[n][c]([H])[c]([N]([H])[C](=[N][c]2[c]([H])[c]([H])[c]([H])[c]3[c]2[c]([H])[c]([H])[n]3[H])[N]([H])[H])[c]([H])[c]1[H]

>  <combo1>  (1) 
-0.4576937602529241

$$$$
