
     RDKit          3D

 36 37  0  0  0  0  0  0  0  0999 V2000
    8.7486   -1.9074   21.4652 H   0  0  0  0  0  0  0  0  0  0  0  0
    8.3727   -1.5271   20.5971 N   0  0  0  0  0  0  0  0  0  0  0  0
    7.4245   -0.7530   20.9252 C   0  0  0  0  0  0  0  0  0  0  0  0
    7.0049   -0.4301   22.6469 S   0  0  0  0  0  0  0  0  0  0  0  0
    8.0727    1.0419   22.8465 C   0  0  0  0  0  0  0  0  0  0  0  0
    7.7616    1.7571   22.0752 H   0  0  0  0  0  0  0  0  0  0  0  0
    7.8322    1.4869   23.8247 H   0  0  0  0  0  0  0  0  0  0  0  0
    9.4820    0.7455   22.7240 N   0  0  0  0  0  0  0  0  0  0  0  0
   10.2087    1.7251   21.9286 C   0  0  0  0  0  0  0  0  0  0  0  0
   10.2375    2.7320   22.3929 H   0  0  0  0  0  0  0  0  0  0  0  0
   11.2429    1.3868   21.8011 H   0  0  0  0  0  0  0  0  0  0  0  0
    9.7568    1.8043   20.9327 H   0  0  0  0  0  0  0  0  0  0  0  0
   10.1300    0.4627   24.0115 C   0  0  0  0  0  0  0  0  0  0  0  0
   10.0173    1.3206   24.7034 H   0  0  0  0  0  0  0  0  0  0  0  0
   11.2064    0.3631   23.8203 H   0  0  0  0  0  0  0  0  0  0  0  0
    9.6305   -0.8011   24.6822 C   0  0  0  0  0  0  0  0  0  0  0  0
   10.0024   -2.0569   24.1742 C   0  0  0  0  0  0  0  0  0  0  0  0
   10.6766   -2.1118   23.3175 H   0  0  0  0  0  0  0  0  0  0  0  0
    9.5152   -3.2296   24.7576 C   0  0  0  0  0  0  0  0  0  0  0  0
    9.8157   -4.1945   24.3542 H   0  0  0  0  0  0  0  0  0  0  0  0
    8.6500   -3.1575   25.8563 C   0  0  0  0  0  0  0  0  0  0  0  0
    8.2693   -4.0720   26.3081 H   0  0  0  0  0  0  0  0  0  0  0  0
    8.2756   -1.9122   26.3708 C   0  0  0  0  0  0  0  0  0  0  0  0
    7.5941   -1.8483   27.2188 H   0  0  0  0  0  0  0  0  0  0  0  0
    8.7674   -0.7414   25.7868 C   0  0  0  0  0  0  0  0  0  0  0  0
    8.4646    0.2310   26.1824 H   0  0  0  0  0  0  0  0  0  0  0  0
    6.6569    0.0051   19.9266 C   0  0  0  0  0  0  0  0  0  0  0  0
    7.1806    0.0501   18.6274 C   0  0  0  0  0  0  0  0  0  0  0  0
    8.1180   -0.4342   18.3916 H   0  0  0  0  0  0  0  0  0  0  0  0
    6.5776    0.6667   17.6101 N   0  0  0  0  0  0  0  0  0  0  0  0
    5.4150    1.2834   17.8538 C   0  0  0  0  0  0  0  0  0  0  0  0
    4.9429    1.7728   17.0038 H   0  0  0  0  0  0  0  0  0  0  0  0
    4.8168    1.3038   19.1161 C   0  0  0  0  0  0  0  0  0  0  0  0
    3.8853    1.8328   19.2575 H   0  0  0  0  0  0  0  0  0  0  0  0
    5.4393    0.6543   20.1770 C   0  0  0  0  0  0  0  0  0  0  0  0
    4.9805    0.6435   21.1665 H   0  0  0  0  0  0  0  0  0  0  0  0
  1  2  1  0
  2  3  2  3
  3  4  1  0
  4  5  1  0
  5  6  1  0
  5  7  1  0
  5  8  1  0
  8  9  1  0
  9 10  1  0
  9 11  1  0
  9 12  1  0
  8 13  1  0
 13 14  1  0
 13 15  1  0
 13 16  1  0
 16 17  2  0
 17 18  1  0
 17 19  1  0
 19 20  1  0
 19 21  2  0
 21 22  1  0
 21 23  1  0
 23 24  1  0
 23 25  2  0
 25 26  1  0
  3 27  1  0
 27 28  2  0
 28 29  1  0
 28 30  1  0
 30 31  2  0
 31 32  1  0
 31 33  1  0
 33 34  1  0
 33 35  2  0
 35 36  1  0
 25 16  1  0
 35 27  1  0
M  END
>  <cnnaffinity>  (1) 
4.89301

>  <plip>  (1) 
-0.03333333333333333

>  <filename>  (1) 
[H][N]=[C]([S][C]([H])([H])[N]([C]([H])([H])[H])[C]([H])([H])[c]1[c]([H])[c]([H])[c]([H])[c]([H])[c]1[H])[c]1[c]([H])[n][c]([H])[c]([H])[c]1[H]

>  <combo1>  (1) 
-0.20032786066413072

$$$$
