
     RDKit          3D

 37 38  0  0  0  0  0  0  0  0999 V2000
    8.7040    2.0935   25.3682 C   0  0  0  0  0  0  0  0  0  0  0  0
    8.8681    1.8010   23.8942 C   0  0  0  0  0  0  0  0  0  0  0  0
    7.9251    1.0379   23.1884 C   0  0  0  0  0  0  0  0  0  0  0  0
    8.0552    0.7549   21.8188 C   0  0  0  0  0  0  0  0  0  0  0  0
    6.9645   -0.1202   21.1879 C   0  0  0  0  0  0  0  0  0  0  0  0
    7.4826   -1.5046   20.9043 N   0  0  0  0  0  4  0  0  0  0  0  0
    7.6567   -2.4296   22.0470 C   0  0  0  0  0  0  0  0  0  0  0  0
    8.1515   -3.7942   21.5767 C   0  0  0  0  0  0  0  0  0  0  0  0
    8.5399   -4.6298   22.6541 O   0  0  0  0  0  0  0  0  0  0  0  0
    9.3155   -4.2366   23.0815 H   0  0  0  0  0  0  0  0  0  0  0  0
    8.9695   -3.6312   20.8579 H   0  0  0  0  0  0  0  0  0  0  0  0
    7.3505   -4.3173   21.0406 H   0  0  0  0  0  0  0  0  0  0  0  0
    8.3844   -2.0270   22.7632 H   0  0  0  0  0  0  0  0  0  0  0  0
    6.7376   -2.5608   22.6327 H   0  0  0  0  0  0  0  0  0  0  0  0
    6.8487   -1.8754   20.1608 H   0  0  0  0  0  0  0  0  0  0  0  0
    8.4383   -1.2879   20.5127 H   0  0  0  0  0  0  0  0  0  0  0  0
    6.3702    0.3534   19.8867 C   0  0  0  0  0  0  0  0  0  0  0  0
    5.1609    1.0666   19.8855 C   0  0  0  0  0  0  0  0  0  0  0  0
    4.6749    1.5734   18.6802 C   0  0  0  0  0  0  0  0  0  0  0  0
    5.4153    1.3607   17.5111 C   0  0  0  0  0  0  0  0  0  0  0  0
    6.5570    0.6583   17.4877 N   0  0  0  0  0  0  0  0  0  0  0  0
    7.0067    0.1661   18.6515 C   0  0  0  0  0  0  0  0  0  0  0  0
    7.9542   -0.3690   18.5678 H   0  0  0  0  0  0  0  0  0  0  0  0
    5.0829    1.7818   16.5620 H   0  0  0  0  0  0  0  0  0  0  0  0
    3.7579    2.1497   18.6374 H   0  0  0  0  0  0  0  0  0  0  0  0
    4.6223    1.2475   20.8215 H   0  0  0  0  0  0  0  0  0  0  0  0
    6.1561   -0.1818   21.9284 H   0  0  0  0  0  0  0  0  0  0  0  0
    9.1746    1.2498   21.1271 C   0  0  0  0  0  0  0  0  0  0  0  0
   10.1225    2.0391   21.7914 C   0  0  0  0  0  0  0  0  0  0  0  0
    9.9557    2.2890   23.1502 C   0  0  0  0  0  0  0  0  0  0  0  0
   10.8924    3.0369   23.7752 F   0  0  0  0  0  0  0  0  0  0  0  0
   10.9870    2.4791   21.2966 H   0  0  0  0  0  0  0  0  0  0  0  0
    9.3096    1.0259   20.0701 H   0  0  0  0  0  0  0  0  0  0  0  0
    7.0512    0.6534   23.7185 H   0  0  0  0  0  0  0  0  0  0  0  0
    8.3084    3.1021   25.5387 H   0  0  0  0  0  0  0  0  0  0  0  0
    9.6632    2.0355   25.8932 H   0  0  0  0  0  0  0  0  0  0  0  0
    8.0122    1.3852   25.8399 H   0  0  0  0  0  0  0  0  0  0  0  0
  1  2  1  0
  2  3  2  0
  3  4  1  0
  4  5  1  0
  5  6  1  0
  6  7  1  0
  7  8  1  0
  8  9  1  0
  9 10  1  0
  8 11  1  0
  8 12  1  0
  7 13  1  0
  7 14  1  0
  6 15  1  0
  6 16  1  0
  5 17  1  0
 17 18  2  0
 18 19  1  0
 19 20  2  0
 20 21  1  0
 21 22  2  0
 22 23  1  0
 20 24  1  0
 19 25  1  0
 18 26  1  0
  5 27  1  0
  4 28  2  0
 28 29  1  0
 29 30  2  0
 30 31  1  0
 29 32  1  0
 28 33  1  0
  3 34  1  0
  1 35  1  0
  1 36  1  0
  1 37  1  0
 30  2  1  0
 22 17  1  0
M  CHG  1   6   1
M  END
>  <cnnaffinity>  (1) 
4.75224

>  <plip>  (1) 
-0.06896551724137931

>  <filename>  (1) 
[H][O][C]([H])([H])[C]([H])([H])[N+]([H])([H])[C]([H])([c]1[c]([H])[n][c]([H])[c]([H])[c]1[H])[c]1[c]([H])[c]([H])[c]([F])[c]([C]([H])([H])[H])[c]1[H]

>  <combo1>  (1) 
-0.4180579234338136

$$$$
