
     RDKit          3D

 33 34  0  0  0  0  0  0  0  0999 V2000
    4.3845   -6.0028   22.3055 H   0  0  0  0  0  0  0  0  0  0  0  0
    5.2701   -5.6275   22.3318 O   0  0  0  0  0  0  0  0  0  0  0  0
    5.9912   -6.3136   23.3619 C   0  0  0  0  0  0  0  0  0  0  0  0
    5.4433   -7.2167   23.6707 H   0  0  0  0  0  0  0  0  0  0  0  0
    6.9458   -6.6451   22.9272 H   0  0  0  0  0  0  0  0  0  0  0  0
    6.2374   -5.3968   24.5618 C   0  0  0  0  0  0  0  0  0  0  0  0
    5.2875   -4.9296   24.8491 H   0  0  0  0  0  0  0  0  0  0  0  0
    6.5886   -5.9900   25.4152 H   0  0  0  0  0  0  0  0  0  0  0  0
    7.2279   -4.2723   24.2673 C   0  0  0  0  0  0  0  0  0  0  0  0
    7.4437   -3.7043   25.1831 H   0  0  0  0  0  0  0  0  0  0  0  0
    8.1897   -4.6940   23.9164 H   0  0  0  0  0  0  0  0  0  0  0  0
    6.6346   -3.4009   23.2776 N   0  0  0  0  0  0  0  0  0  0  0  0
    5.9048   -3.8577   22.7410 H   0  0  0  0  0  0  0  0  0  0  0  0
    7.3316   -2.4106   22.6139 C   0  0  0  0  0  0  0  0  0  0  0  0
    8.6704   -2.0430   22.9770 C   0  0  0  0  0  0  0  0  0  0  0  0
    9.1604   -2.6028   23.7722 H   0  0  0  0  0  0  0  0  0  0  0  0
    9.3103   -1.0249   22.3397 C   0  0  0  0  0  0  0  0  0  0  0  0
   10.3075   -0.7066   22.6010 H   0  0  0  0  0  0  0  0  0  0  0  0
    8.7112   -0.2587   21.2562 C   0  0  0  0  0  0  0  0  0  0  0  0
    9.2764    0.6529   20.6771 O   0  0  0  0  0  0  0  0  0  0  0  0
    7.3732   -0.6862   20.9130 N   0  0  0  0  0  0  0  0  0  0  0  0
    6.6543   -0.0125   19.8596 C   0  0  0  0  0  0  0  0  0  0  0  0
    7.1503    0.0325   18.5413 C   0  0  0  0  0  0  0  0  0  0  0  0
    8.0936   -0.4541   18.3057 H   0  0  0  0  0  0  0  0  0  0  0  0
    6.5326    0.6607   17.5330 N   0  0  0  0  0  0  0  0  0  0  0  0
    5.3864    1.3038   17.8064 C   0  0  0  0  0  0  0  0  0  0  0  0
    4.9155    1.8276   16.9755 H   0  0  0  0  0  0  0  0  0  0  0  0
    4.8058    1.3152   19.0782 C   0  0  0  0  0  0  0  0  0  0  0  0
    3.8786    1.8507   19.2385 H   0  0  0  0  0  0  0  0  0  0  0  0
    5.4424    0.6363   20.1232 C   0  0  0  0  0  0  0  0  0  0  0  0
    5.0312    0.6205   21.1337 H   0  0  0  0  0  0  0  0  0  0  0  0
    6.7389   -1.7220   21.5857 C   0  0  0  0  0  0  0  0  0  0  0  0
    5.7343   -1.9670   21.2577 H   0  0  0  0  0  0  0  0  0  0  0  0
  1  2  1  0
  2  3  1  0
  3  4  1  0
  3  5  1  0
  3  6  1  0
  6  7  1  0
  6  8  1  0
  6  9  1  0
  9 10  1  0
  9 11  1  0
  9 12  1  0
 12 13  1  0
 12 14  1  0
 14 15  1  0
 15 16  1  0
 15 17  2  0
 17 18  1  0
 17 19  1  0
 19 20  2  0
 19 21  1  0
 21 22  1  0
 22 23  2  0
 23 24  1  0
 23 25  1  0
 25 26  2  0
 26 27  1  0
 26 28  1  0
 28 29  1  0
 28 30  2  0
 30 31  1  0
 21 32  1  0
 32 33  1  0
 32 14  2  0
 30 22  1  0
M  END
>  <cnnaffinity>  (1) 
4.91744

>  <plip>  (1) 
-0.1724137931034483

>  <filename>  (1) 
[H][O][C]([H])([H])[C]([H])([H])[C]([H])([H])[N]([H])[c]1[c]([H])[c]([H])[c](=[O])[n](-[c]2[c]([H])[n][c]([H])[c]([H])[c]2[H])[c]1[H]

>  <combo1>  (1) 
-1.1521901087437056

$$$$
