
     RDKit          3D

 24 25  0  0  0  0  0  0  0  0999 V2000
    4.9142    1.7851   16.9918 H   0  0  0  0  0  0  0  0  0  0  0  0
    5.3985    1.2978   17.8357 C   0  0  0  0  0  0  0  0  0  0  0  0
    6.5667    0.6780   17.5753 N   0  0  0  0  0  0  0  0  0  0  0  0
    7.1707    0.0620   18.5959 C   0  0  0  0  0  0  0  0  0  0  0  0
    8.1137   -0.4344   18.3880 H   0  0  0  0  0  0  0  0  0  0  0  0
    6.6745    0.0136   19.9230 C   0  0  0  0  0  0  0  0  0  0  0  0
    7.3793   -0.7505   20.8794 N   0  0  0  0  0  0  0  0  0  0  0  0
    7.6382   -0.3270   22.0627 C   0  0  0  0  0  0  0  0  0  0  0  0
    8.2475   -1.2689   22.9979 C   0  0  0  0  0  0  0  0  0  0  0  0
    8.6400   -2.5322   22.6780 C   0  0  0  0  0  0  0  0  0  0  0  0
    8.6156   -3.1065   21.7570 H   0  0  0  0  0  0  0  0  0  0  0  0
    9.1501   -3.1484   23.7635 O   0  0  0  0  0  0  0  0  0  0  0  0
    9.0906   -2.2770   24.8056 C   0  0  0  0  0  0  0  0  0  0  0  0
    9.4611   -2.6284   25.7604 H   0  0  0  0  0  0  0  0  0  0  0  0
    8.5529   -1.1052   24.4022 C   0  0  0  0  0  0  0  0  0  0  0  0
    8.3657   -0.2344   25.0120 H   0  0  0  0  0  0  0  0  0  0  0  0
    7.4078    1.0846   22.5520 C   0  0  0  0  0  0  0  0  0  0  0  0
    8.1880    1.3926   23.2482 H   0  0  0  0  0  0  0  0  0  0  0  0
    6.4515    1.1473   23.0735 H   0  0  0  0  0  0  0  0  0  0  0  0
    7.3853    1.7897   21.7232 H   0  0  0  0  0  0  0  0  0  0  0  0
    5.4448    0.6502   20.1645 C   0  0  0  0  0  0  0  0  0  0  0  0
    5.0147    0.6193   21.1661 H   0  0  0  0  0  0  0  0  0  0  0  0
    4.8050    1.3066   19.1028 C   0  0  0  0  0  0  0  0  0  0  0  0
    3.8728    1.8412   19.2608 H   0  0  0  0  0  0  0  0  0  0  0  0
  1  2  1  0
  2  3  2  0
  3  4  1  0
  4  5  1  0
  4  6  2  0
  6  7  1  0
  7  8  2  3
  8  9  1  0
  9 10  2  0
 10 11  1  0
 10 12  1  0
 12 13  1  0
 13 14  1  0
 13 15  2  0
 15 16  1  0
  8 17  1  0
 17 18  1  0
 17 19  1  0
 17 20  1  0
  6 21  1  0
 21 22  1  0
 21 23  2  0
 23 24  1  0
 23  2  1  0
 15  9  1  0
M  END
>  <cnnaffinity>  (1) 
4.18904

>  <plip>  (1) 
-0.0

>  <filename>  (1) 
[H][c]1[n][c]([H])[c]([N]=[C]([c]2[c]([H])[o][c]([H])[c]2[H])[C]([H])([H])[H])[c]([H])[c]1[H]

>  <combo1>  (1) 
-7.498612707243637e-06

$$$$
