
     RDKit          3D

 35 37  0  0  0  0  0  0  0  0999 V2000
    7.7512   -1.9595   20.5908 O   0  0  0  0  0  0  0  0  0  0  0  0
    7.1400   -0.7288   20.9339 C   0  0  0  0  0  0  0  0  0  0  0  0
    8.2762    0.2430   21.3003 C   0  0  0  0  0  0  0  0  0  0  0  0
    9.1192   -0.1627   22.4720 N   0  0  0  0  0  4  0  0  0  0  0  0
    8.4450    0.2032   23.8141 C   0  0  0  0  0  0  0  0  0  0  0  0
    9.2250   -0.4776   24.9343 C   0  0  0  0  0  0  0  0  0  0  0  0
   10.6508   -0.0426   24.8063 C   0  0  0  0  0  0  0  0  0  0  0  0
   11.2762    0.2508   23.6254 C   0  0  0  0  0  0  0  0  0  0  0  0
   12.6062    0.5404   23.9765 C   0  0  0  0  0  0  0  0  0  0  0  0
   12.7867    0.4703   25.2863 N   0  0  0  0  0  0  0  0  0  0  0  0
   11.5766    0.1284   25.7716 N   0  0  0  0  0  0  0  0  0  0  0  0
   11.4147    0.1327   26.7710 H   0  0  0  0  0  0  0  0  0  0  0  0
   13.4354    0.8136   23.3317 H   0  0  0  0  0  0  0  0  0  0  0  0
   10.5521    0.3961   22.3285 C   0  0  0  0  0  0  0  0  0  0  0  0
   10.4735    1.4551   22.0293 H   0  0  0  0  0  0  0  0  0  0  0  0
   11.0836   -0.1261   21.5215 H   0  0  0  0  0  0  0  0  0  0  0  0
    8.8130   -0.2369   25.9147 H   0  0  0  0  0  0  0  0  0  0  0  0
    9.1545   -1.5661   24.8042 H   0  0  0  0  0  0  0  0  0  0  0  0
    7.3921   -0.1042   23.8082 H   0  0  0  0  0  0  0  0  0  0  0  0
    8.4697    1.2954   23.9292 H   0  0  0  0  0  0  0  0  0  0  0  0
    9.2199   -1.2112   22.4430 H   0  0  0  0  0  0  0  0  0  0  0  0
    8.9026    0.3098   20.4033 H   0  0  0  0  0  0  0  0  0  0  0  0
    7.8448    1.2399   21.4662 H   0  0  0  0  0  0  0  0  0  0  0  0
    6.3737   -0.1452   19.7743 C   0  0  0  0  0  0  0  0  0  0  0  0
    5.2151    0.6169   19.9756 C   0  0  0  0  0  0  0  0  0  0  0  0
    4.7069    1.3624   18.9101 C   0  0  0  0  0  0  0  0  0  0  0  0
    5.3647    1.3088   17.6779 C   0  0  0  0  0  0  0  0  0  0  0  0
    6.4510    0.5529   17.4559 N   0  0  0  0  0  0  0  0  0  0  0  0
    6.9323   -0.1545   18.4829 C   0  0  0  0  0  0  0  0  0  0  0  0
    7.8321   -0.7363   18.2752 H   0  0  0  0  0  0  0  0  0  0  0  0
    5.0103    1.8961   16.8311 H   0  0  0  0  0  0  0  0  0  0  0  0
    3.8405    2.0036   19.0240 H   0  0  0  0  0  0  0  0  0  0  0  0
    4.7219    0.6300   20.9507 H   0  0  0  0  0  0  0  0  0  0  0  0
    6.4759   -0.8647   21.8079 H   0  0  0  0  0  0  0  0  0  0  0  0
    7.1868   -2.3562   19.9079 H   0  0  0  0  0  0  0  0  0  0  0  0
  1  2  1  0
  2  3  1  0
  3  4  1  0
  4  5  1  0
  5  6  1  0
  6  7  1  0
  7  8  2  0
  8  9  1  0
  9 10  2  0
 10 11  1  0
 11 12  1  0
  9 13  1  0
  8 14  1  0
 14 15  1  0
 14 16  1  0
  6 17  1  0
  6 18  1  0
  5 19  1  0
  5 20  1  0
  4 21  1  0
  3 22  1  0
  3 23  1  0
  2 24  1  0
 24 25  2  0
 25 26  1  0
 26 27  2  0
 27 28  1  0
 28 29  2  0
 29 30  1  0
 27 31  1  0
 26 32  1  0
 25 33  1  0
  2 34  1  0
  1 35  1  0
 14  4  1  0
 29 24  1  0
 11  7  1  0
M  CHG  1   4   1
M  END
>  <cnnaffinity>  (1) 
4.5372

>  <plip>  (1) 
-0.07142857142857142

>  <filename>  (1) 
[H][O][C]([H])([c]1[c]([H])[n][c]([H])[c]([H])[c]1[H])[C]([H])([H])[N+]1([H])[C]([H])([H])[c]2[c]([H])[n][n]([H])[c]2[C]([H])([H])[C]1([H])[H]

>  <combo1>  (1) 
-0.44038291533256985

$$$$
