
     RDKit          3D

 28 30  0  0  0  0  0  0  0  0999 V2000
    4.7972    1.3122   19.0986 C   0  0  0  0  0  0  0  0  0  0  0  0
    5.4007    1.2943   17.8365 C   0  0  0  0  0  0  0  0  0  0  0  0
    6.5643    0.6785   17.5789 N   0  0  0  0  0  0  0  0  0  0  0  0
    7.1662    0.0701   18.6056 C   0  0  0  0  0  0  0  0  0  0  0  0
    6.6404    0.0025   19.9029 C   0  0  0  0  0  0  0  0  0  0  0  0
    7.4163   -0.7048   20.9835 C   0  0  0  0  0  0  0  0  0  0  0  0
    8.7458   -0.1669   21.1728 N   0  0  0  0  0  0  0  0  0  0  0  0
    9.0490    1.0978   21.6330 C   0  0  0  0  0  0  0  0  0  0  0  0
    8.0513    1.9171   22.2361 C   0  0  0  0  0  0  0  0  0  0  0  0
    8.3586    3.1739   22.7171 C   0  0  0  0  0  0  0  0  0  0  0  0
    9.6804    3.6453   22.6235 C   0  0  0  0  0  0  0  0  0  0  0  0
   10.2419    4.9159   23.0320 C   0  0  0  0  0  0  0  0  0  0  0  0
   11.5057    5.1009   22.8201 N   0  0  0  0  0  0  0  0  0  0  0  0
   12.1827    3.7395   22.0590 S   0  0  0  0  0  0  0  0  0  0  0  0
   10.6794    2.8410   22.0311 C   0  0  0  0  0  0  0  0  0  0  0  0
   10.3703    1.5683   21.5324 C   0  0  0  0  0  0  0  0  0  0  0  0
   11.1411    0.9502   21.0846 H   0  0  0  0  0  0  0  0  0  0  0  0
    9.6731    5.7147   23.5120 H   0  0  0  0  0  0  0  0  0  0  0  0
    7.5922    3.8058   23.1705 H   0  0  0  0  0  0  0  0  0  0  0  0
    7.0336    1.5521   22.3183 H   0  0  0  0  0  0  0  0  0  0  0  0
    9.5268   -0.7013   20.8424 H   0  0  0  0  0  0  0  0  0  0  0  0
    6.8546   -0.6688   21.9276 H   0  0  0  0  0  0  0  0  0  0  0  0
    7.5069   -1.7701   20.7336 H   0  0  0  0  0  0  0  0  0  0  0  0
    5.4269    0.6493   20.1536 C   0  0  0  0  0  0  0  0  0  0  0  0
    4.9917    0.6386   21.1592 H   0  0  0  0  0  0  0  0  0  0  0  0
    8.1101   -0.4170   18.3716 H   0  0  0  0  0  0  0  0  0  0  0  0
    4.9202    1.7831   16.9920 H   0  0  0  0  0  0  0  0  0  0  0  0
    3.8676    1.8491   19.2513 H   0  0  0  0  0  0  0  0  0  0  0  0
  1  2  2  0
  2  3  1  0
  3  4  2  0
  4  5  1  0
  5  6  1  0
  6  7  1  0
  7  8  1  0
  8  9  2  0
  9 10  1  0
 10 11  2  0
 11 12  1  0
 12 13  2  0
 13 14  1  0
 14 15  1  0
 15 16  2  0
 16 17  1  0
 12 18  1  0
 10 19  1  0
  9 20  1  0
  7 21  1  0
  6 22  1  0
  6 23  1  0
  5 24  2  0
 24 25  1  0
  4 26  1  0
  2 27  1  0
  1 28  1  0
 24  1  1  0
 16  8  1  0
 15 11  1  0
M  END
>  <cnnaffinity>  (1) 
4.89905

>  <plip>  (1) 
-0.034482758620689655

>  <filename>  (1) 
[H][c]1[n][c]([H])[c]([C]([H])([H])[N]([H])[c]2[c]([H])[c]([H])[c]3[c]([H])[n][s][c]3[c]2[H])[c]([H])[c]1[H]

>  <combo1>  (1) 
-0.23334639850252098

$$$$
