
     RDKit          3D

 34 36  0  0  0  0  0  0  0  0999 V2000
   11.0907    0.8581   25.1806 Br  0  0  0  0  0  0  0  0  0  0  0  0
   11.9289    0.0203   23.6720 C   0  0  0  0  0  0  0  0  0  0  0  0
   13.2081    0.4132   23.3099 C   0  0  0  0  0  0  0  0  0  0  0  0
   13.7960   -0.2499   22.2307 C   0  0  0  0  0  0  0  0  0  0  0  0
   13.0929   -1.2594   21.5512 C   0  0  0  0  0  0  0  0  0  0  0  0
   11.8482   -1.6000   21.8832 N   0  0  0  0  0  0  0  0  0  0  0  0
   11.2939   -0.9766   22.9159 C   0  0  0  0  0  0  0  0  0  0  0  0
   10.0079   -1.3171   23.2332 N   0  0  0  0  0  0  0  0  0  0  0  0
    9.0499   -1.7194   22.1880 C   0  0  0  0  0  0  0  0  0  0  0  0
    7.6899   -1.8388   22.8565 C   0  0  0  0  0  0  0  0  0  0  0  0
    6.6522   -1.5220   21.7861 C   0  0  0  0  0  0  0  0  0  0  0  0
    7.4103   -0.8958   20.6957 N   0  0  0  0  0  0  0  0  0  0  0  0
    6.7613   -0.1161   19.7166 C   0  0  0  0  0  0  0  0  0  0  0  0
    5.5167    0.4544   20.0033 C   0  0  0  0  0  0  0  0  0  0  0  0
    4.8725    1.2074   19.0159 C   0  0  0  0  0  0  0  0  0  0  0  0
    5.4724    1.3635   17.7596 C   0  0  0  0  0  0  0  0  0  0  0  0
    6.6703    0.8169   17.4562 N   0  0  0  0  0  0  0  0  0  0  0  0
    7.2966    0.1067   18.4240 C   0  0  0  0  0  0  0  0  0  0  0  0
    8.2614   -0.3413   18.2010 H   0  0  0  0  0  0  0  0  0  0  0  0
    4.9517    1.9471   17.0076 H   0  0  0  0  0  0  0  0  0  0  0  0
    3.9138    1.6823   19.2110 H   0  0  0  0  0  0  0  0  0  0  0  0
    5.0831    0.3170   20.9901 H   0  0  0  0  0  0  0  0  0  0  0  0
    8.8124   -0.6726   21.0921 C   0  0  0  0  0  0  0  0  0  0  0  0
    9.5097   -0.7985   20.2594 H   0  0  0  0  0  0  0  0  0  0  0  0
    8.9392    0.3317   21.5181 H   0  0  0  0  0  0  0  0  0  0  0  0
    5.9077   -0.8258   22.1726 H   0  0  0  0  0  0  0  0  0  0  0  0
    6.1479   -2.4294   21.4323 H   0  0  0  0  0  0  0  0  0  0  0  0
    7.5414   -2.8347   23.2763 H   0  0  0  0  0  0  0  0  0  0  0  0
    7.6100   -1.1047   23.6670 H   0  0  0  0  0  0  0  0  0  0  0  0
    9.3282   -2.6758   21.7218 H   0  0  0  0  0  0  0  0  0  0  0  0
    9.6424   -0.7363   23.9787 H   0  0  0  0  0  0  0  0  0  0  0  0
   13.5369   -1.7680   20.6951 H   0  0  0  0  0  0  0  0  0  0  0  0
   14.7796    0.0466   21.9010 H   0  0  0  0  0  0  0  0  0  0  0  0
   13.7255    1.2170   23.8387 H   0  0  0  0  0  0  0  0  0  0  0  0
  1  2  1  0
  2  3  2  0
  3  4  1  0
  4  5  2  0
  5  6  1  0
  6  7  2  0
  7  8  1  0
  8  9  1  0
  9 10  1  0
 10 11  1  0
 11 12  1  0
 12 13  1  0
 13 14  2  0
 14 15  1  0
 15 16  2  0
 16 17  1  0
 17 18  2  0
 18 19  1  0
 16 20  1  0
 15 21  1  0
 14 22  1  0
 12 23  1  0
 23 24  1  0
 23 25  1  0
 11 26  1  0
 11 27  1  0
 10 28  1  0
 10 29  1  0
  9 30  1  0
  8 31  1  0
  5 32  1  0
  4 33  1  0
  3 34  1  0
  7  2  1  0
 23  9  1  0
 18 13  1  0
M  END
>  <cnnaffinity>  (1) 
5.59172

>  <plip>  (1) 
-0.034482758620689655

>  <filename>  (1) 
[H][c]1[n][c]([N]([H])[C]2([H])[C]([H])([H])[N]([c]3[c]([H])[n][c]([H])[c]([H])[c]3[H])[C]([H])([H])[C]2([H])[H])[c]([Br])[c]([H])[c]1[H]

>  <combo1>  (1) 
-0.2013516151894418

$$$$
