
     RDKit          3D

 42 44  0  0  0  0  0  0  0  0999 V2000
    9.0931   -2.2317   22.8383 O   0  0  0  0  0  0  0  0  0  0  0  0
    7.8921   -2.0325   22.9382 C   0  0  0  0  0  0  0  0  0  0  0  0
    7.0772   -1.3193   21.9285 C   0  0  0  0  0  0  0  0  0  0  0  0
    7.5716   -0.7568   20.8257 C   0  0  0  0  0  0  0  0  0  0  0  0
    6.7593   -0.0314   19.8281 C   0  0  0  0  0  0  0  0  0  0  0  0
    5.5225    0.5838   20.0965 C   0  0  0  0  0  0  0  0  0  0  0  0
    4.8778    1.2600   19.0594 C   0  0  0  0  0  0  0  0  0  0  0  0
    5.4748    1.2887   17.7957 C   0  0  0  0  0  0  0  0  0  0  0  0
    6.6416    0.6887   17.5078 N   0  0  0  0  0  0  0  0  0  0  0  0
    7.2531    0.0581   18.5123 C   0  0  0  0  0  0  0  0  0  0  0  0
    8.1989   -0.4245   18.2670 H   0  0  0  0  0  0  0  0  0  0  0  0
    4.9979    1.8147   16.9747 H   0  0  0  0  0  0  0  0  0  0  0  0
    3.9388    1.7751   19.2249 H   0  0  0  0  0  0  0  0  0  0  0  0
    5.0837    0.5521   21.0960 H   0  0  0  0  0  0  0  0  0  0  0  0
    8.6400   -0.8571   20.6104 H   0  0  0  0  0  0  0  0  0  0  0  0
    6.0100   -1.2980   22.1089 H   0  0  0  0  0  0  0  0  0  0  0  0
    7.1508   -2.4314   24.0067 N   0  0  0  0  0  0  0  0  0  0  0  0
    7.6469   -3.3167   25.0390 C   0  0  0  0  0  0  0  0  0  0  0  0
    7.8868   -4.7393   24.5127 C   0  0  0  0  0  0  0  0  0  0  0  0
    8.4121   -5.7199   25.5561 C   0  0  0  0  0  0  0  0  0  0  0  0
    7.5343   -5.8270   26.7154 N   0  0  0  0  0  0  0  0  0  0  0  0
    6.3528   -6.5532   26.7756 C   0  0  0  0  0  0  0  0  0  0  0  0
    5.8105   -7.0855   25.8365 O   0  0  0  0  0  0  0  0  0  0  0  0
    5.8973   -6.4822   28.1991 C   0  0  0  0  0  0  0  0  0  0  0  0
    4.9305   -7.2217   28.8849 C   0  0  0  0  0  0  0  0  0  0  0  0
    4.7395   -6.9295   30.2396 C   0  0  0  0  0  0  0  0  0  0  0  0
    5.4590   -5.8905   30.8665 C   0  0  0  0  0  0  0  0  0  0  0  0
    6.4078   -5.1399   30.1622 C   0  0  0  0  0  0  0  0  0  0  0  0
    6.6417   -5.4864   28.8273 C   0  0  0  0  0  0  0  0  0  0  0  0
    7.6282   -4.9919   27.8210 C   0  0  0  0  0  0  0  0  0  0  0  0
    8.3695   -4.0409   27.8833 O   0  0  0  0  0  0  0  0  0  0  0  0
    6.9178   -4.3145   30.6510 H   0  0  0  0  0  0  0  0  0  0  0  0
    5.2890   -5.6799   31.9199 H   0  0  0  0  0  0  0  0  0  0  0  0
    4.0045   -7.4937   30.8096 H   0  0  0  0  0  0  0  0  0  0  0  0
    4.3517   -8.0041   28.3959 H   0  0  0  0  0  0  0  0  0  0  0  0
    8.5127   -6.7118   25.1119 H   0  0  0  0  0  0  0  0  0  0  0  0
    9.4096   -5.4292   25.9110 H   0  0  0  0  0  0  0  0  0  0  0  0
    8.6025   -4.6843   23.6831 H   0  0  0  0  0  0  0  0  0  0  0  0
    6.9531   -5.1393   24.1004 H   0  0  0  0  0  0  0  0  0  0  0  0
    8.5718   -2.8981   25.4561 H   0  0  0  0  0  0  0  0  0  0  0  0
    6.9000   -3.3219   25.8365 H   0  0  0  0  0  0  0  0  0  0  0  0
    6.1593   -2.3502   23.8760 H   0  0  0  0  0  0  0  0  0  0  0  0
  1  2  2  0
  2  3  1  0
  3  4  2  3
  4  5  1  0
  5  6  2  0
  6  7  1  0
  7  8  2  0
  8  9  1  0
  9 10  2  0
 10 11  1  0
  8 12  1  0
  7 13  1  0
  6 14  1  0
  4 15  1  0
  3 16  1  0
  2 17  1  0
 17 18  1  0
 18 19  1  0
 19 20  1  0
 20 21  1  0
 21 22  1  0
 22 23  2  0
 22 24  1  0
 24 25  2  0
 25 26  1  0
 26 27  2  0
 27 28  1  0
 28 29  2  0
 29 30  1  0
 30 31  2  0
 28 32  1  0
 27 33  1  0
 26 34  1  0
 25 35  1  0
 20 36  1  0
 20 37  1  0
 19 38  1  0
 19 39  1  0
 18 40  1  0
 18 41  1  0
 17 42  1  0
 10  5  1  0
 30 21  1  0
 29 24  1  0
M  END
>  <cnnaffinity>  (1) 
5.07809

>  <plip>  (1) 
-0.07142857142857142

>  <filename>  (1) 
[H][C]([C](=[O])[N]([H])[C]([H])([H])[C]([H])([H])[C]([H])([H])[N]1[C](=[O])[c]2[c]([H])[c]([H])[c]([H])[c]([H])[c]2[C]1=[O])=[C]([H])[c]1[c]([H])[n][c]([H])[c]([H])[c]1[H]

>  <combo1>  (1) 
-0.360525474670446

$$$$
