
     RDKit          3D

 28 29  0  0  0  0  0  0  0  0999 V2000
    6.9991   -2.0485   21.1185 C   0  0  0  0  0  0  0  0  0  0  0  0
    7.0442   -0.5371   21.2553 C   0  0  0  0  0  0  0  0  0  0  0  0
    8.4777   -0.2272   21.2705 N   0  0  0  0  0  0  0  0  0  0  0  0
    8.9935    0.9472   21.7252 C   0  0  0  0  0  0  0  0  0  0  0  0
   10.3754    1.1120   21.9329 C   0  0  0  0  0  0  0  0  0  0  0  0
   11.8287   -0.6289   21.8360 I   0  0  0  0  0  0  0  0  0  0  0  0
   10.8162    2.3965   22.2525 C   0  0  0  0  0  0  0  0  0  0  0  0
   12.5146    2.7980   22.4330 Cl  0  0  0  0  0  0  0  0  0  0  0  0
    9.8502    3.3880   22.3951 C   0  0  0  0  0  0  0  0  0  0  0  0
    8.5027    3.0999   22.2140 C   0  0  0  0  0  0  0  0  0  0  0  0
    8.0800    1.8900   21.8856 N   0  0  0  0  0  0  0  0  0  0  0  0
    7.7675    3.8921   22.3046 H   0  0  0  0  0  0  0  0  0  0  0  0
   10.1291    4.4083   22.6143 H   0  0  0  0  0  0  0  0  0  0  0  0
    9.1359   -0.8868   20.8887 H   0  0  0  0  0  0  0  0  0  0  0  0
    6.4180    0.1438   20.0689 C   0  0  0  0  0  0  0  0  0  0  0  0
    5.1947    0.8207   20.1458 C   0  0  0  0  0  0  0  0  0  0  0  0
    4.6995    1.4084   18.9804 C   0  0  0  0  0  0  0  0  0  0  0  0
    5.4234    1.3226   17.7884 C   0  0  0  0  0  0  0  0  0  0  0  0
    6.5965    0.6718   17.7172 N   0  0  0  0  0  0  0  0  0  0  0  0
    7.0771    0.0997   18.8366 C   0  0  0  0  0  0  0  0  0  0  0  0
    8.0198   -0.4315   18.7713 H   0  0  0  0  0  0  0  0  0  0  0  0
    5.0172    1.7811   16.8896 H   0  0  0  0  0  0  0  0  0  0  0  0
    3.7634    1.9517   18.9830 H   0  0  0  0  0  0  0  0  0  0  0  0
    4.6470    0.9038   21.0825 H   0  0  0  0  0  0  0  0  0  0  0  0
    6.5456   -0.2354   22.1874 H   0  0  0  0  0  0  0  0  0  0  0  0
    7.6223   -2.5182   21.8861 H   0  0  0  0  0  0  0  0  0  0  0  0
    7.3890   -2.3108   20.1388 H   0  0  0  0  0  0  0  0  0  0  0  0
    5.9854   -2.4448   21.2107 H   0  0  0  0  0  0  0  0  0  0  0  0
  1  2  1  0
  2  3  1  0
  3  4  1  0
  4  5  2  0
  5  6  1  0
  5  7  1  0
  7  8  1  0
  7  9  2  0
  9 10  1  0
 10 11  2  0
 10 12  1  0
  9 13  1  0
  3 14  1  0
  2 15  1  0
 15 16  2  0
 16 17  1  0
 17 18  2  0
 18 19  1  0
 19 20  2  0
 20 21  1  0
 18 22  1  0
 17 23  1  0
 16 24  1  0
  2 25  1  0
  1 26  1  0
  1 27  1  0
  1 28  1  0
 11  4  1  0
 20 15  1  0
M  END
>  <cnnaffinity>  (1) 
5.67479

>  <plip>  (1) 
-0.03333333333333333

>  <filename>  (1) 
[H][c]1[n][c]([H])[c]([C]([H])([N]([H])[c]2[n][c]([H])[c]([H])[c]([Cl])[c]2[I])[C]([H])([H])[H])[c]([H])[c]1[H]

>  <combo1>  (1) 
-0.17534363990406576

$$$$
