
     RDKit          3D

 36 38  0  0  0  0  0  0  0  0999 V2000
   10.1028    2.6321   21.8825 C   0  0  0  0  0  0  0  0  0  0  0  0
    9.2487    1.9964   22.7054 C   0  0  0  0  0  0  0  0  0  0  0  0
    7.9885    1.3161   22.2759 C   0  0  0  0  0  0  0  0  0  0  0  0
    8.4379    0.0850   21.5149 N   0  0  0  0  0  4  0  0  0  0  0  0
    7.3722   -0.7970   21.0067 C   0  0  0  0  0  0  0  0  0  0  0  0
    6.6595   -0.0490   19.9045 C   0  0  0  0  0  0  0  0  0  0  0  0
    5.4607    0.6317   20.1446 C   0  0  0  0  0  0  0  0  0  0  0  0
    4.8448    1.3072   19.0902 C   0  0  0  0  0  0  0  0  0  0  0  0
    5.4669    1.3106   17.8401 C   0  0  0  0  0  0  0  0  0  0  0  0
    6.6349    0.6967   17.5957 N   0  0  0  0  0  0  0  0  0  0  0  0
    7.2149    0.0524   18.6178 C   0  0  0  0  0  0  0  0  0  0  0  0
    8.1633   -0.4296   18.3747 H   0  0  0  0  0  0  0  0  0  0  0  0
    5.0010    1.8299   17.0026 H   0  0  0  0  0  0  0  0  0  0  0  0
    3.9070    1.8304   19.2328 H   0  0  0  0  0  0  0  0  0  0  0  0
    5.0457    0.6591   21.1563 H   0  0  0  0  0  0  0  0  0  0  0  0
    7.8120   -1.7293   20.6474 H   0  0  0  0  0  0  0  0  0  0  0  0
    6.6583   -1.0512   21.8017 H   0  0  0  0  0  0  0  0  0  0  0  0
    9.1465   -0.3667   22.1261 H   0  0  0  0  0  0  0  0  0  0  0  0
    8.9150    0.4866   20.6764 H   0  0  0  0  0  0  0  0  0  0  0  0
    7.3856    1.9565   21.6248 H   0  0  0  0  0  0  0  0  0  0  0  0
    7.3618    1.0398   23.1316 H   0  0  0  0  0  0  0  0  0  0  0  0
    9.5959    1.9185   24.1777 C   0  0  0  0  0  0  0  0  0  0  0  0
   10.3523    3.0271   24.6616 O   0  0  0  0  0  0  0  0  0  0  0  0
   11.2547    3.6049   23.8226 C   0  0  0  0  0  0  0  0  0  0  0  0
   12.1972    4.4617   24.3983 C   0  0  0  0  0  0  0  0  0  0  0  0
   13.2111    4.9963   23.6137 C   0  0  0  0  0  0  0  0  0  0  0  0
   13.2538    4.7479   22.2331 C   0  0  0  0  0  0  0  0  0  0  0  0
   12.2383    4.0080   21.6443 C   0  0  0  0  0  0  0  0  0  0  0  0
   11.2153    3.4173   22.4254 C   0  0  0  0  0  0  0  0  0  0  0  0
   12.2400    3.8613   20.5671 H   0  0  0  0  0  0  0  0  0  0  0  0
   14.0813    5.1262   21.6345 H   0  0  0  0  0  0  0  0  0  0  0  0
   13.9704    5.5998   24.0908 H   0  0  0  0  0  0  0  0  0  0  0  0
   12.1449    4.6725   25.4588 H   0  0  0  0  0  0  0  0  0  0  0  0
   10.1222    0.9765   24.4158 H   0  0  0  0  0  0  0  0  0  0  0  0
    8.6834    1.9230   24.7800 H   0  0  0  0  0  0  0  0  0  0  0  0
   10.0019    2.5843   20.7994 H   0  0  0  0  0  0  0  0  0  0  0  0
  1  2  2  0
  2  3  1  0
  3  4  1  0
  4  5  1  0
  5  6  1  0
  6  7  2  0
  7  8  1  0
  8  9  2  0
  9 10  1  0
 10 11  2  0
 11 12  1  0
  9 13  1  0
  8 14  1  0
  7 15  1  0
  5 16  1  0
  5 17  1  0
  4 18  1  0
  4 19  1  0
  3 20  1  0
  3 21  1  0
  2 22  1  0
 22 23  1  0
 23 24  1  0
 24 25  2  0
 25 26  1  0
 26 27  2  0
 27 28  1  0
 28 29  2  0
 28 30  1  0
 27 31  1  0
 26 32  1  0
 25 33  1  0
 22 34  1  0
 22 35  1  0
  1 36  1  0
 29  1  1  0
 11  6  1  0
 29 24  1  0
M  CHG  1   4   1
M  END
>  <cnnaffinity>  (1) 
4.42378

>  <plip>  (1) 
-0.10714285714285714

>  <filename>  (1) 
[H][C]1=[C]([C]([H])([H])[N+]([H])([H])[C]([H])([H])[c]2[c]([H])[n][c]([H])[c]([H])[c]2[H])[C]([H])([H])[O][c]2[c]([H])[c]([H])[c]([H])[c]([H])[c]21

>  <combo1>  (1) 
-0.6236737110713226

$$$$
