
     RDKit          3D

 37 39  0  0  0  0  0  0  0  0999 V2000
    5.0222    1.7967   16.9207 H   0  0  0  0  0  0  0  0  0  0  0  0
    5.4804    1.2913   17.7688 C   0  0  0  0  0  0  0  0  0  0  0  0
    6.6523    0.6819   17.5307 N   0  0  0  0  0  0  0  0  0  0  0  0
    7.2594    0.0851   18.5598 C   0  0  0  0  0  0  0  0  0  0  0  0
    8.2215   -0.3804   18.3458 H   0  0  0  0  0  0  0  0  0  0  0  0
    6.7147    0.0265   19.8517 C   0  0  0  0  0  0  0  0  0  0  0  0
    7.4898   -0.6163   20.9329 C   0  0  0  0  0  0  0  0  0  0  0  0
    8.7285   -0.2689   21.0400 N   0  0  0  0  0  0  0  0  0  0  0  0
    9.4852   -0.7653   22.0940 N   0  0  0  0  0  0  0  0  0  0  0  0
   10.9332   -0.5044   21.9634 C   0  0  0  0  0  0  0  0  0  0  0  0
   11.0326    0.1625   21.0899 H   0  0  0  0  0  0  0  0  0  0  0  0
   11.5516    0.1788   23.1904 C   0  0  0  0  0  0  0  0  0  0  0  0
   11.4270   -0.4788   24.0562 H   0  0  0  0  0  0  0  0  0  0  0  0
   11.0311    1.1212   23.3992 H   0  0  0  0  0  0  0  0  0  0  0  0
   13.0395    0.4085   22.9272 C   0  0  0  0  0  0  0  0  0  0  0  0
   13.5007    0.8493   23.8183 H   0  0  0  0  0  0  0  0  0  0  0  0
   13.1401    1.1446   22.1088 H   0  0  0  0  0  0  0  0  0  0  0  0
   13.6941   -0.8623   22.6398 N   0  0  0  0  0  0  0  0  0  0  0  0
   14.6955   -0.7267   22.5500 H   0  0  0  0  0  0  0  0  0  0  0  0
   13.1655   -1.6137   21.5074 C   0  0  0  0  0  0  0  0  0  0  0  0
   13.6688   -2.5833   21.4754 H   0  0  0  0  0  0  0  0  0  0  0  0
   13.3712   -1.1702   20.5228 H   0  0  0  0  0  0  0  0  0  0  0  0
   11.6663   -1.8237   21.6890 C   0  0  0  0  0  0  0  0  0  0  0  0
   11.2123   -2.2693   20.8079 H   0  0  0  0  0  0  0  0  0  0  0  0
   11.4963   -2.4976   22.5347 H   0  0  0  0  0  0  0  0  0  0  0  0
    9.0178   -1.5300   23.1546 C   0  0  0  0  0  0  0  0  0  0  0  0
    9.7362   -2.0273   24.0119 O   0  0  0  0  0  0  0  0  0  0  0  0
    7.5054   -1.6929   23.2116 C   0  0  0  0  0  0  0  0  0  0  0  0
    7.1349   -0.8849   23.8572 H   0  0  0  0  0  0  0  0  0  0  0  0
    7.3263   -2.6259   23.7507 H   0  0  0  0  0  0  0  0  0  0  0  0
    6.8550   -1.6667   21.8210 C   0  0  0  0  0  0  0  0  0  0  0  0
    6.9707   -2.6451   21.3318 H   0  0  0  0  0  0  0  0  0  0  0  0
    5.7776   -1.4974   21.8841 H   0  0  0  0  0  0  0  0  0  0  0  0
    5.4727    0.6306   20.0797 C   0  0  0  0  0  0  0  0  0  0  0  0
    5.0193    0.6057   21.0727 H   0  0  0  0  0  0  0  0  0  0  0  0
    4.8547    1.2927   19.0203 C   0  0  0  0  0  0  0  0  0  0  0  0
    3.9218    1.8225   19.1506 H   0  0  0  0  0  0  0  0  0  0  0  0
  1  2  1  0
  2  3  2  0
  3  4  1  0
  4  5  1  0
  4  6  2  0
  6  7  1  0
  7  8  2  0
  8  9  1  0
  9 10  1  0
 10 11  1  0
 10 12  1  0
 12 13  1  0
 12 14  1  0
 12 15  1  0
 15 16  1  0
 15 17  1  0
 15 18  1  0
 18 19  1  0
 18 20  1  0
 20 21  1  0
 20 22  1  0
 20 23  1  0
 23 24  1  0
 23 25  1  0
  9 26  1  0
 26 27  2  0
 26 28  1  0
 28 29  1  0
 28 30  1  0
 28 31  1  0
 31 32  1  0
 31 33  1  0
  6 34  1  0
 34 35  1  0
 34 36  2  0
 36 37  1  0
 36  2  1  0
 31  7  1  0
 23 10  1  0
M  END
>  <cnnaffinity>  (1) 
4.82827

>  <plip>  (1) 
-0.06896551724137931

>  <filename>  (1) 
[H][c]1[n][c]([H])[c]([C]2=[N][N]([C]3([H])[C]([H])([H])[C]([H])([H])[N]([H])[C]([H])([H])[C]3([H])[H])[C](=[O])[C]([H])([H])[C]2([H])[H])[c]([H])[c]1[H]

>  <combo1>  (1) 
-0.42967081251786754

$$$$
