
     RDKit          3D

 26 27  0  0  0  0  0  0  0  0999 V2000
    8.4705   -0.4293   21.0360 H   0  0  0  0  0  0  0  0  0  0  0  0
    7.4188   -0.6807   20.9434 C   0  0  0  0  0  0  0  0  0  0  0  0
    6.9193   -1.6691   21.6943 C   0  0  0  0  0  0  0  0  0  0  0  0
    7.6301   -2.4478   22.7111 C   0  0  0  0  0  0  0  0  0  0  0  0
    9.0039   -2.1778   23.1517 C   0  0  0  0  0  0  0  0  0  0  0  0
    9.1826   -1.0987   23.2606 H   0  0  0  0  0  0  0  0  0  0  0  0
    9.1787   -2.6781   24.1059 H   0  0  0  0  0  0  0  0  0  0  0  0
   10.0827   -2.4855   22.0270 C   0  0  0  0  0  0  0  0  0  0  0  0
   10.0828   -2.4856   22.0273 N   0  0  0  0  0  0  0  0  0  0  0  0
    6.9299   -3.4206   23.1659 N   0  0  0  0  0  0  0  0  0  0  0  0
    5.5903   -3.4606   22.5312 C   0  0  0  0  0  0  0  0  0  0  0  0
    5.4585   -4.4033   21.9986 H   0  0  0  0  0  0  0  0  0  0  0  0
    4.8100   -3.3741   23.3021 H   0  0  0  0  0  0  0  0  0  0  0  0
    5.5579   -2.2995   21.5032 C   0  0  0  0  0  0  0  0  0  0  0  0
    4.8082   -1.5806   21.5424 H   0  0  0  0  0  0  0  0  0  0  0  0
    5.3686   -2.6233   20.4933 H   0  0  0  0  0  0  0  0  0  0  0  0
    6.6626    0.0189   19.9026 C   0  0  0  0  0  0  0  0  0  0  0  0
    7.1819    0.0694   18.5979 C   0  0  0  0  0  0  0  0  0  0  0  0
    8.1302   -0.4345   18.3834 H   0  0  0  0  0  0  0  0  0  0  0  0
    6.5680    0.6816   17.5832 N   0  0  0  0  0  0  0  0  0  0  0  0
    5.3992    1.2901   17.8457 C   0  0  0  0  0  0  0  0  0  0  0  0
    4.9050    1.7712   17.0071 H   0  0  0  0  0  0  0  0  0  0  0  0
    4.8029    1.3158   19.1084 C   0  0  0  0  0  0  0  0  0  0  0  0
    3.8710    1.8460   19.2678 H   0  0  0  0  0  0  0  0  0  0  0  0
    5.4389    0.6539   20.1526 C   0  0  0  0  0  0  0  0  0  0  0  0
    5.0152    0.6291   21.1550 H   0  0  0  0  0  0  0  0  0  0  0  0
  1  2  1  0
  2  3  2  3
  3  4  1  0
  4  5  1  0
  5  6  1  0
  5  7  1  0
  5  8  1  0
  8  9  3  0
  4 10  2  0
 10 11  1  0
 11 12  1  0
 11 13  1  0
 11 14  1  0
 14 15  1  0
 14 16  1  0
  2 17  1  0
 17 18  2  0
 18 19  1  0
 18 20  1  0
 20 21  2  0
 21 22  1  0
 21 23  1  0
 23 24  1  0
 23 25  2  0
 25 26  1  0
 14  3  1  0
 25 17  1  0
M  END
>  <cnnaffinity>  (1) 
4.58473

>  <plip>  (1) 
-0.03333333333333333

>  <filename>  (1) 
[H][C](=[C]1[C]([C]([H])([H])[C]#[N])=[N][C]([H])([H])[C]1([H])[H])[c]1[c]([H])[n][c]([H])[c]([H])[c]1[H]

>  <combo1>  (1) 
-0.2582700576677488

$$$$
