
     RDKit          3D

 16 16  0  0  0  0  0  0  0  0999 V2000
    9.3292    1.0708   24.0144 H   0  0  0  0  0  0  0  0  0  0  0  0
    9.9774    0.9085   23.2316 N   0  0  0  0  0  0  0  0  0  0  0  0
    9.4721    0.4089   22.2573 N   0  0  0  0  0  4  0  0  0  0  0  0
    9.1407   -0.0663   21.2004 N   0  0  0  0  0  0  0  0  0  0  0  0
    7.4736   -0.8969   21.2114 S   0  0  0  0  0  4  0  0  0  0  0  0
    7.7337   -2.2342   20.6664 O   0  0  0  0  0  0  0  0  0  0  0  0
    6.6652    0.0495   19.9066 C   0  0  0  0  0  0  0  0  0  0  0  0
    7.1930    0.0568   18.6078 C   0  0  0  0  0  0  0  0  0  0  0  0
    8.1328   -0.4425   18.3773 H   0  0  0  0  0  0  0  0  0  0  0  0
    6.5737    0.6733   17.5929 N   0  0  0  0  0  0  0  0  0  0  0  0
    5.4078    1.2886   17.8473 C   0  0  0  0  0  0  0  0  0  0  0  0
    4.9146    1.7726   17.0041 H   0  0  0  0  0  0  0  0  0  0  0  0
    4.8036    1.3124   19.1103 C   0  0  0  0  0  0  0  0  0  0  0  0
    3.8700    1.8463   19.2633 H   0  0  0  0  0  0  0  0  0  0  0  0
    5.4379    0.6646   20.1670 C   0  0  0  0  0  0  0  0  0  0  0  0
    5.0012    0.6314   21.1680 H   0  0  0  0  0  0  0  0  0  0  0  0
  1  2  1  0
  2  3  2  0
  3  4  2  0
  5  4  1  6
  5  6  2  0
  5  7  1  0
  7  8  2  0
  8  9  1  0
  8 10  1  0
 10 11  2  0
 11 12  1  0
 11 13  1  0
 13 14  1  0
 13 15  2  0
 15 16  1  0
 15  7  1  0
M  CHG  1   3   1
M  END
>  <cnnaffinity>  (1) 
3.63495

>  <plip>  (1) 
-0.06896551724137931

>  <filename>  (1) 
[H][N]=[N+]=[N][S@](=[O])[c]1[c]([H])[n][c]([H])[c]([H])[c]1[H]

>  <combo1>  (1) 
-0.4938977650173312

$$$$
