
     RDKit          3D

 29 30  0  0  0  0  0  0  0  0999 V2000
    4.9242    1.7954   17.0249 H   0  0  0  0  0  0  0  0  0  0  0  0
    5.4021    1.2790   17.8534 C   0  0  0  0  0  0  0  0  0  0  0  0
    6.5566    0.6565   17.5683 N   0  0  0  0  0  0  0  0  0  0  0  0
    7.2040    0.0544   18.5700 C   0  0  0  0  0  0  0  0  0  0  0  0
    8.1492   -0.4261   18.3324 H   0  0  0  0  0  0  0  0  0  0  0  0
    6.7164    0.0120   19.8966 C   0  0  0  0  0  0  0  0  0  0  0  0
    7.4170   -0.6667   20.9604 N   0  0  0  0  0  0  0  0  0  0  0  0
    8.7919   -0.6481   21.1576 C   0  0  0  0  0  0  0  0  0  0  0  0
    9.5943   -0.0410   20.5009 O   0  0  0  0  0  0  0  0  0  0  0  0
    9.0657   -1.5800   22.3349 C   0  0  0  0  0  0  0  0  0  0  0  0
   10.1266   -1.8711   22.8338 O   0  0  0  0  0  0  0  0  0  0  0  0
    7.8315   -2.0957   22.6797 N   0  0  0  0  0  0  0  0  0  0  0  0
    7.6300   -3.1243   23.6218 N   0  0  0  0  0  0  0  0  0  0  0  0
    8.2270   -3.9244   23.3973 H   0  0  0  0  0  0  0  0  0  0  0  0
    7.8473   -2.7412   25.0302 C   0  0  0  0  0  0  0  0  0  0  0  0
    8.7921   -2.1982   25.1787 H   0  0  0  0  0  0  0  0  0  0  0  0
    7.9282   -3.6915   25.5714 H   0  0  0  0  0  0  0  0  0  0  0  0
    6.6754   -1.9497   25.6251 C   0  0  0  0  0  0  0  0  0  0  0  0
    6.5795   -0.9991   25.0853 H   0  0  0  0  0  0  0  0  0  0  0  0
    5.7545   -2.5268   25.4262 H   0  0  0  0  0  0  0  0  0  0  0  0
    6.9224   -1.6592   27.0441 N   0  0  0  0  0  0  0  0  0  0  0  0
    6.2387   -1.0020   27.4109 H   0  0  0  0  0  0  0  0  0  0  0  0
    6.8737   -2.4971   27.6199 H   0  0  0  0  0  0  0  0  0  0  0  0
    6.8456   -1.6695   21.7619 C   0  0  0  0  0  0  0  0  0  0  0  0
    5.7540   -2.1344   21.6164 O   0  0  0  0  0  0  0  0  0  0  0  0
    5.4907    0.6282   20.1698 C   0  0  0  0  0  0  0  0  0  0  0  0
    5.0729    0.5693   21.1734 H   0  0  0  0  0  0  0  0  0  0  0  0
    4.8269    1.2905   19.1280 C   0  0  0  0  0  0  0  0  0  0  0  0
    3.8909    1.8204   19.2881 H   0  0  0  0  0  0  0  0  0  0  0  0
  1  2  1  0
  2  3  2  0
  3  4  1  0
  4  5  1  0
  4  6  2  0
  6  7  1  0
  7  8  1  0
  8  9  2  0
  8 10  1  0
 10 11  2  0
 10 12  1  0
 12 13  1  0
 13 14  1  0
 13 15  1  0
 15 16  1  0
 15 17  1  0
 15 18  1  0
 18 19  1  0
 18 20  1  0
 18 21  1  0
 21 22  1  0
 21 23  1  0
 12 24  1  0
 24 25  2  0
  6 26  1  0
 26 27  1  0
 26 28  2  0
 28 29  1  0
 28  2  1  0
 24  7  1  0
M  END
>  <cnnaffinity>  (1) 
4.28751

>  <plip>  (1) 
-0.10714285714285714

>  <filename>  (1) 
[H][c]1[n][c]([H])[c]([N]2[C](=[O])[C](=[O])[N]([N]([H])[C]([H])([H])[C]([H])([H])[N]([H])[H])[C]2=[O])[c]([H])[c]1[H]

>  <combo1>  (1) 
-0.6143937613564062

$$$$
