
     RDKit          3D

 31 33  0  0  0  0  0  0  0  0999 V2000
    5.2061    1.7986   16.9639 H   0  0  0  0  0  0  0  0  0  0  0  0
    5.6437    1.2978   17.8244 C   0  0  0  0  0  0  0  0  0  0  0  0
    6.8383    0.7120   17.6290 N   0  0  0  0  0  0  0  0  0  0  0  0
    7.4081    0.0877   18.6693 C   0  0  0  0  0  0  0  0  0  0  0  0
    8.3827   -0.3731   18.4979 H   0  0  0  0  0  0  0  0  0  0  0  0
    6.8071   -0.0059   19.9470 C   0  0  0  0  0  0  0  0  0  0  0  0
    7.3591   -0.7652   21.0229 N   0  0  0  0  0  0  0  0  0  0  0  0
    8.1828   -0.4964   21.5325 H   0  0  0  0  0  0  0  0  0  0  0  0
    6.7011   -1.7779   21.6606 C   0  0  0  0  0  0  0  0  0  0  0  0
    5.5871   -2.1822   21.4494 O   0  0  0  0  0  0  0  0  0  0  0  0
    7.5701   -2.2883   22.5702 O   0  0  0  0  0  0  0  0  0  0  0  0
    7.0811   -3.2209   23.4461 C   0  0  0  0  0  0  0  0  0  0  0  0
    7.4073   -3.0014   24.6741 N   0  0  0  0  0  0  0  0  0  0  0  0
    7.0534   -3.9508   25.5941 C   0  0  0  0  0  0  0  0  0  0  0  0
    7.4660   -3.7345   26.9360 C   0  0  0  0  0  0  0  0  0  0  0  0
    8.0230   -2.8211   27.1191 H   0  0  0  0  0  0  0  0  0  0  0  0
    7.1997   -4.6704   27.9096 C   0  0  0  0  0  0  0  0  0  0  0  0
    7.5555   -4.5269   28.9245 H   0  0  0  0  0  0  0  0  0  0  0  0
    6.4706   -5.8523   27.5940 C   0  0  0  0  0  0  0  0  0  0  0  0
    6.2980   -6.5941   28.3754 H   0  0  0  0  0  0  0  0  0  0  0  0
    6.0342   -6.0796   26.3059 C   0  0  0  0  0  0  0  0  0  0  0  0
    5.4686   -6.9827   26.0762 H   0  0  0  0  0  0  0  0  0  0  0  0
    6.3341   -5.1465   25.2624 C   0  0  0  0  0  0  0  0  0  0  0  0
    6.0062   -5.3251   23.8797 C   0  0  0  0  0  0  0  0  0  0  0  0
    5.4673   -6.2234   23.5668 H   0  0  0  0  0  0  0  0  0  0  0  0
    6.3759   -4.3705   22.9699 C   0  0  0  0  0  0  0  0  0  0  0  0
    6.1329   -4.4411   21.9214 H   0  0  0  0  0  0  0  0  0  0  0  0
    5.5616    0.6051   20.1253 C   0  0  0  0  0  0  0  0  0  0  0  0
    5.0812    0.5391   21.0981 H   0  0  0  0  0  0  0  0  0  0  0  0
    4.9738    1.2732   19.0489 C   0  0  0  0  0  0  0  0  0  0  0  0
    4.0203    1.7795   19.1543 H   0  0  0  0  0  0  0  0  0  0  0  0
  1  2  1  0
  2  3  2  0
  3  4  1  0
  4  5  1  0
  4  6  2  0
  6  7  1  0
  7  8  1  0
  7  9  1  0
  9 10  2  0
  9 11  1  0
 11 12  1  0
 12 13  2  0
 13 14  1  0
 14 15  2  0
 15 16  1  0
 15 17  1  0
 17 18  1  0
 17 19  2  0
 19 20  1  0
 19 21  1  0
 21 22  1  0
 21 23  2  0
 23 24  1  0
 24 25  1  0
 24 26  2  0
 26 27  1  0
  6 28  1  0
 28 29  1  0
 28 30  2  0
 30 31  1  0
 30  2  1  0
 26 12  1  0
 23 14  1  0
M  END
>  <cnnaffinity>  (1) 
4.88334

>  <plip>  (1) 
-0.10714285714285714

>  <filename>  (1) 
[H][c]1[n][c]([H])[c]([N]([H])[C](=[O])[O][c]2[n][c]3[c]([H])[c]([H])[c]([H])[c]([H])[c]3[c]([H])[c]2[H])[c]([H])[c]1[H]

>  <combo1>  (1) 
-0.6574572514249525

$$$$
