
     RDKit          3D

 36 38  0  0  0  0  0  0  0  0999 V2000
    3.0772   -6.2106   23.5997 C   0  0  0  0  0  0  0  0  0  0  0  0
    3.8907   -5.0367   23.4007 N   0  0  0  0  0  0  0  0  0  0  0  0
    4.2508   -4.1606   24.3626 C   0  0  0  0  0  0  0  0  0  0  0  0
    3.8071   -4.2713   25.6869 C   0  0  0  0  0  0  0  0  0  0  0  0
    4.2129   -3.2995   26.5811 C   0  0  0  0  0  0  0  0  0  0  0  0
    5.0334   -2.2573   26.1375 C   0  0  0  0  0  0  0  0  0  0  0  0
    5.4478   -2.2213   24.7863 C   0  0  0  0  0  0  0  0  0  0  0  0
    6.3562   -1.0013   24.3313 C   0  0  0  0  0  0  0  0  0  0  0  0
    6.7030   -0.1349   25.1258 O   0  0  0  0  0  0  0  0  0  0  0  0
    6.7425   -0.9253   23.0260 N   0  0  0  0  0  0  0  0  0  0  0  0
    6.5340   -1.7465   21.8349 C   0  0  0  0  0  0  0  0  0  0  0  0
    7.3727   -0.7118   21.0306 C   0  0  0  0  0  0  0  0  0  0  0  0
    8.5533   -1.2680   20.5704 F   0  0  0  0  0  0  0  0  0  0  0  0
    6.6635    0.0056   19.9173 C   0  0  0  0  0  0  0  0  0  0  0  0
    5.4442    0.6505   20.1592 C   0  0  0  0  0  0  0  0  0  0  0  0
    4.8096    1.3068   19.1060 C   0  0  0  0  0  0  0  0  0  0  0  0
    5.4098    1.2848   17.8427 C   0  0  0  0  0  0  0  0  0  0  0  0
    6.5717    0.6660   17.5904 N   0  0  0  0  0  0  0  0  0  0  0  0
    7.1830    0.0501   18.6089 C   0  0  0  0  0  0  0  0  0  0  0  0
    8.1280   -0.4302   18.3712 H   0  0  0  0  0  0  0  0  0  0  0  0
    4.9356    1.7822   16.9991 H   0  0  0  0  0  0  0  0  0  0  0  0
    3.8795    1.8376   19.2544 H   0  0  0  0  0  0  0  0  0  0  0  0
    5.0031    0.6371   21.1580 H   0  0  0  0  0  0  0  0  0  0  0  0
    7.5793    0.0721   22.3665 C   0  0  0  0  0  0  0  0  0  0  0  0
    7.1865    1.0938   22.3917 H   0  0  0  0  0  0  0  0  0  0  0  0
    8.6121    0.0947   22.7223 H   0  0  0  0  0  0  0  0  0  0  0  0
    6.9771   -2.7410   21.9144 H   0  0  0  0  0  0  0  0  0  0  0  0
    5.4836   -1.8469   21.5449 H   0  0  0  0  0  0  0  0  0  0  0  0
    5.0591   -3.1901   23.9198 N   0  0  0  0  0  0  0  0  0  0  0  0
    5.3527   -1.4831   26.8215 H   0  0  0  0  0  0  0  0  0  0  0  0
    3.8920   -3.3591   27.6218 H   0  0  0  0  0  0  0  0  0  0  0  0
    3.1778   -5.1091   25.9506 H   0  0  0  0  0  0  0  0  0  0  0  0
    4.3413   -4.7663   22.5450 H   0  0  0  0  0  0  0  0  0  0  0  0
    2.0670   -5.9458   23.9520 H   0  0  0  0  0  0  0  0  0  0  0  0
    3.5185   -6.9004   24.3384 H   0  0  0  0  0  0  0  0  0  0  0  0
    2.9780   -6.7458   22.6515 H   0  0  0  0  0  0  0  0  0  0  0  0
  1  2  1  0
  2  3  1  0
  3  4  2  0
  4  5  1  0
  5  6  2  0
  6  7  1  0
  7  8  1  0
  8  9  2  0
  8 10  1  0
 10 11  1  0
 11 12  1  0
 12 13  1  0
 12 14  1  0
 14 15  2  0
 15 16  1  0
 16 17  2  0
 17 18  1  0
 18 19  2  0
 19 20  1  0
 17 21  1  0
 16 22  1  0
 15 23  1  0
 12 24  1  0
 24 25  1  0
 24 26  1  0
 11 27  1  0
 11 28  1  0
  7 29  2  0
  6 30  1  0
  5 31  1  0
  4 32  1  0
  2 33  1  0
  1 34  1  0
  1 35  1  0
  1 36  1  0
 29  3  1  0
 24 10  1  0
 19 14  1  0
M  END
>  <cnnaffinity>  (1) 
4.7612

>  <plip>  (1) 
-0.06896551724137931

>  <filename>  (1) 
[H][c]1[n][c]([H])[c]([C]2([F])[C]([H])([H])[N]([C](=[O])[c]3[n][c]([N]([H])[C]([H])([H])[H])[c]([H])[c]([H])[c]3[H])[C]2([H])[H])[c]([H])[c]1[H]

>  <combo1>  (1) 
-0.38228798701833144

$$$$
