
     RDKit          3D

 29 31  0  0  0  0  0  0  0  0999 V2000
    4.9241    1.7907   17.0159 H   0  0  0  0  0  0  0  0  0  0  0  0
    5.4018    1.2807   17.8506 C   0  0  0  0  0  0  0  0  0  0  0  0
    6.5575    0.6556   17.5738 N   0  0  0  0  0  0  0  0  0  0  0  0
    7.1916    0.0474   18.5818 C   0  0  0  0  0  0  0  0  0  0  0  0
    8.1394   -0.4278   18.3485 H   0  0  0  0  0  0  0  0  0  0  0  0
    6.6997   -0.0002   19.9097 C   0  0  0  0  0  0  0  0  0  0  0  0
    7.4230   -0.6593   20.9785 N   0  0  0  0  0  0  0  0  0  0  0  0
    8.7971   -0.5892   21.1801 C   0  0  0  0  0  0  0  0  0  0  0  0
    9.5806   -0.0103   20.4727 O   0  0  0  0  0  0  0  0  0  0  0  0
    9.0662   -1.4078   22.4480 C   0  0  0  0  0  0  0  0  0  0  0  0
   10.1039   -1.6327   23.0189 O   0  0  0  0  0  0  0  0  0  0  0  0
    7.8290   -1.8888   22.8391 N   0  0  0  0  0  0  0  0  0  0  0  0
    7.5329   -2.5146   24.0788 C   0  0  0  0  0  0  0  0  0  0  0  0
    6.5362   -2.1925   24.9693 C   0  0  0  0  0  0  0  0  0  0  0  0
    5.7765   -1.4354   24.8344 H   0  0  0  0  0  0  0  0  0  0  0  0
    6.7469   -3.0622   26.0573 C   0  0  0  0  0  0  0  0  0  0  0  0
    6.2070   -3.1397   26.9959 H   0  0  0  0  0  0  0  0  0  0  0  0
    7.7793   -3.8704   25.8487 N   0  0  0  0  0  0  0  0  0  0  0  0
    8.2508   -3.5353   24.6357 N   0  0  0  0  0  0  0  0  0  0  0  0
    9.4000   -4.2677   24.1246 C   0  0  0  0  0  0  0  0  0  0  0  0
   10.3374   -3.7861   24.4179 H   0  0  0  0  0  0  0  0  0  0  0  0
    9.3482   -5.2727   24.5493 H   0  0  0  0  0  0  0  0  0  0  0  0
    9.3332   -4.3133   23.0357 H   0  0  0  0  0  0  0  0  0  0  0  0
    6.8680   -1.5722   21.8809 C   0  0  0  0  0  0  0  0  0  0  0  0
    5.7845   -2.0813   21.7897 O   0  0  0  0  0  0  0  0  0  0  0  0
    5.4752    0.6252   20.1714 C   0  0  0  0  0  0  0  0  0  0  0  0
    5.0490    0.5851   21.1713 H   0  0  0  0  0  0  0  0  0  0  0  0
    4.8230    1.2923   19.1232 C   0  0  0  0  0  0  0  0  0  0  0  0
    3.8898    1.8273   19.2783 H   0  0  0  0  0  0  0  0  0  0  0  0
  1  2  1  0
  2  3  2  0
  3  4  1  0
  4  5  1  0
  4  6  2  0
  6  7  1  0
  7  8  1  0
  8  9  2  0
  8 10  1  0
 10 11  2  0
 10 12  1  0
 12 13  1  0
 13 14  2  0
 14 15  1  0
 14 16  1  0
 16 17  1  0
 16 18  2  0
 18 19  1  0
 19 20  1  0
 20 21  1  0
 20 22  1  0
 20 23  1  0
 12 24  1  0
 24 25  2  0
  6 26  1  0
 26 27  1  0
 26 28  2  0
 28 29  1  0
 28  2  1  0
 24  7  1  0
 19 13  1  0
M  END
>  <cnnaffinity>  (1) 
4.75853

>  <plip>  (1) 
-0.10714285714285714

>  <filename>  (1) 
[H][c]1[n][c]([H])[c]([N]2[C](=[O])[C](=[O])[N]([c]3[c]([H])[c]([H])[n][n]3[C]([H])([H])[H])[C]2=[O])[c]([H])[c]1[H]

>  <combo1>  (1) 
-0.6265669011488151

$$$$
