
     RDKit          3D

 33 36  0  0  0  0  0  0  0  0999 V2000
    9.4233    0.2566   20.4767 O   0  0  0  0  0  0  0  0  0  0  0  0
    8.7851   -0.5489   21.1240 C   0  0  0  0  0  0  0  0  0  0  0  0
    9.4085   -1.5046   22.1260 C   0  0  0  0  0  0  0  0  0  0  0  0
    8.4764   -1.7262   23.3148 C   0  0  0  0  0  0  0  0  0  0  0  0
    8.8306   -2.9043   24.2472 C   0  0  0  0  0  0  0  0  0  0  0  0
    7.5281   -3.6440   24.4260 C   0  0  0  0  0  0  0  0  0  0  0  0
    7.2685   -4.7383   25.2472 C   0  0  0  0  0  0  0  0  0  0  0  0
    5.9908   -5.3113   25.2247 C   0  0  0  0  0  0  0  0  0  0  0  0
    4.9858   -4.7949   24.3823 C   0  0  0  0  0  0  0  0  0  0  0  0
    5.2371   -3.7025   23.5509 C   0  0  0  0  0  0  0  0  0  0  0  0
    6.5192   -3.1347   23.5881 C   0  0  0  0  0  0  0  0  0  0  0  0
    7.0841   -2.0555   22.7881 C   0  0  0  0  0  0  0  0  0  0  0  0
    6.5507   -1.5235   21.7451 N   0  0  0  0  0  0  0  0  0  0  0  0
    7.3719   -0.6975   20.9679 N   0  0  0  0  0  0  0  0  0  0  0  0
    6.6737   -0.0054   19.9162 C   0  0  0  0  0  0  0  0  0  0  0  0
    5.4533    0.6390   20.1724 C   0  0  0  0  0  0  0  0  0  0  0  0
    4.8177    1.3079   19.1180 C   0  0  0  0  0  0  0  0  0  0  0  0
    5.4056    1.2906   17.8452 C   0  0  0  0  0  0  0  0  0  0  0  0
    6.5642    0.6662   17.5849 N   0  0  0  0  0  0  0  0  0  0  0  0
    7.1769    0.0499   18.6030 C   0  0  0  0  0  0  0  0  0  0  0  0
    8.1239   -0.4230   18.3754 H   0  0  0  0  0  0  0  0  0  0  0  0
    4.9172    1.7779   16.9996 H   0  0  0  0  0  0  0  0  0  0  0  0
    3.8797    1.8401   19.2667 H   0  0  0  0  0  0  0  0  0  0  0  0
    5.0195    0.6086   21.1737 H   0  0  0  0  0  0  0  0  0  0  0  0
    4.4865   -3.2912   22.8806 H   0  0  0  0  0  0  0  0  0  0  0  0
    4.0032   -5.2570   24.3746 H   0  0  0  0  0  0  0  0  0  0  0  0
    5.7767   -6.1649   25.8630 H   0  0  0  0  0  0  0  0  0  0  0  0
    8.0514   -5.1453   25.8882 H   0  0  0  0  0  0  0  0  0  0  0  0
    9.5814   -3.5659   23.7969 H   0  0  0  0  0  0  0  0  0  0  0  0
    9.2450   -2.5695   25.2045 H   0  0  0  0  0  0  0  0  0  0  0  0
    8.4288   -0.7978   23.9054 H   0  0  0  0  0  0  0  0  0  0  0  0
    9.5989   -2.4542   21.6121 H   0  0  0  0  0  0  0  0  0  0  0  0
   10.3746   -1.0973   22.4148 H   0  0  0  0  0  0  0  0  0  0  0  0
  1  2  2  0
  2  3  1  0
  3  4  1  0
  4  5  1  0
  5  6  1  0
  6  7  2  0
  7  8  1  0
  8  9  2  0
  9 10  1  0
 10 11  2  0
 11 12  1  0
 12 13  2  0
 13 14  1  0
 14 15  1  0
 15 16  2  0
 16 17  1  0
 17 18  2  0
 18 19  1  0
 19 20  2  0
 20 21  1  0
 18 22  1  0
 17 23  1  0
 16 24  1  0
 10 25  1  0
  9 26  1  0
  8 27  1  0
  7 28  1  0
  5 29  1  0
  5 30  1  0
  4 31  1  0
  3 32  1  0
  3 33  1  0
 14  2  1  0
 20 15  1  0
 12  4  1  0
 11  6  1  0
M  END
>  <cnnaffinity>  (1) 
5.25593

>  <plip>  (1) 
-0.10344827586206896

>  <filename>  (1) 
[H][c]1[n][c]([H])[c]([N]2[N]=[C]3[c]4[c]([H])[c]([H])[c]([H])[c]([H])[c]4[C]([H])([H])[C]3([H])[C]([H])([H])[C]2=[O])[c]([H])[c]1[H]

>  <combo1>  (1) 
-0.688336367327161

$$$$
