
     RDKit          3D

 34 35  0  0  0  0  0  0  0  0999 V2000
    4.9480    1.7858   16.9952 H   0  0  0  0  0  0  0  0  0  0  0  0
    5.4101    1.2888   17.8477 C   0  0  0  0  0  0  0  0  0  0  0  0
    6.5714    0.6672   17.6019 N   0  0  0  0  0  0  0  0  0  0  0  0
    7.1630    0.0386   18.6188 C   0  0  0  0  0  0  0  0  0  0  0  0
    8.1094   -0.4470   18.3905 H   0  0  0  0  0  0  0  0  0  0  0  0
    6.6392   -0.0063   19.9198 C   0  0  0  0  0  0  0  0  0  0  0  0
    7.4292   -0.7530   20.9387 C   0  0  0  0  0  0  0  0  0  0  0  0
    8.2543   -1.5876   20.6179 O   0  0  0  0  0  0  0  0  0  0  0  0
    7.1666   -0.4300   22.3911 C   0  0  0  0  0  0  0  0  0  0  0  0
    6.2144   -0.8560   22.7085 H   0  0  0  0  0  0  0  0  0  0  0  0
    8.2699   -0.8000   23.3869 C   0  0  0  0  0  0  0  0  0  0  0  0
    9.2059   -1.1347   22.9294 H   0  0  0  0  0  0  0  0  0  0  0  0
    7.9896   -1.5158   24.1723 H   0  0  0  0  0  0  0  0  0  0  0  0
    8.3191    0.6183   23.8495 N   0  0  0  0  0  0  0  0  0  0  0  0
    8.0035    0.8436   25.2054 N   0  0  0  0  0  0  0  0  0  0  0  0
    8.6952    1.3640   25.7228 H   0  0  0  0  0  0  0  0  0  0  0  0
    6.8474    0.4362   25.8452 C   0  0  0  0  0  0  0  0  0  0  0  0
    5.9435   -0.1858   25.2970 O   0  0  0  0  0  0  0  0  0  0  0  0
    6.7789    0.7803   27.1651 N   0  0  0  0  0  0  0  0  0  0  0  0
    7.5506    1.2772   27.5725 H   0  0  0  0  0  0  0  0  0  0  0  0
    5.5794    0.4611   27.9354 C   0  0  0  0  0  0  0  0  0  0  0  0
    5.3224   -0.5944   27.7566 H   0  0  0  0  0  0  0  0  0  0  0  0
    5.8374    0.5627   28.9965 H   0  0  0  0  0  0  0  0  0  0  0  0
    4.3786    1.3406   27.5675 C   0  0  0  0  0  0  0  0  0  0  0  0
    3.5087    1.0782   28.1819 H   0  0  0  0  0  0  0  0  0  0  0  0
    4.1080    1.1964   26.5144 H   0  0  0  0  0  0  0  0  0  0  0  0
    4.6064    2.4001   27.7285 H   0  0  0  0  0  0  0  0  0  0  0  0
    7.2948    1.0347   22.8515 C   0  0  0  0  0  0  0  0  0  0  0  0
    7.6900    1.7289   22.1011 H   0  0  0  0  0  0  0  0  0  0  0  0
    6.3969    1.4901   23.2944 H   0  0  0  0  0  0  0  0  0  0  0  0
    5.4248    0.6550   20.1689 C   0  0  0  0  0  0  0  0  0  0  0  0
    4.9570    0.6713   21.1572 H   0  0  0  0  0  0  0  0  0  0  0  0
    4.8057    1.3114   19.1071 C   0  0  0  0  0  0  0  0  0  0  0  0
    3.8719    1.8432   19.2393 H   0  0  0  0  0  0  0  0  0  0  0  0
  1  2  1  0
  2  3  2  0
  3  4  1  0
  4  5  1  0
  4  6  2  0
  6  7  1  0
  7  8  2  0
  7  9  1  0
  9 10  1  0
  9 11  1  0
 11 12  1  0
 11 13  1  0
 11 14  1  0
 14 15  1  0
 15 16  1  0
 15 17  1  0
 17 18  2  0
 17 19  1  0
 19 20  1  0
 19 21  1  0
 21 22  1  0
 21 23  1  0
 21 24  1  0
 24 25  1  0
 24 26  1  0
 24 27  1  0
 14 28  1  0
 28 29  1  0
 28 30  1  0
  6 31  1  0
 31 32  1  0
 31 33  2  0
 33 34  1  0
 33  2  1  0
 28  9  1  0
M  END
>  <cnnaffinity>  (1) 
4.29905

>  <plip>  (1) 
-0.06666666666666667

>  <filename>  (1) 
[H][c]1[n][c]([H])[c]([C](=[O])[C]2([H])[C]([H])([H])[N]([N]([H])[C](=[O])[N]([H])[C]([H])([H])[C]([H])([H])[H])[C]2([H])[H])[c]([H])[c]1[H]

>  <combo1>  (1) 
-0.3847758006671518

$$$$
