
     RDKit          3D

 27 28  0  0  0  0  0  0  0  0999 V2000
    9.2044   -0.8231   20.3354 H   0  0  0  0  0  0  0  0  0  0  0  0
    8.4496   -1.0127   21.1063 C   0  0  0  0  0  0  0  0  0  0  0  0
    7.2330   -0.6450   21.0388 N   0  0  0  0  0  0  0  0  0  0  0  0
    6.6801    0.0075   19.9078 C   0  0  0  0  0  0  0  0  0  0  0  0
    7.1841    0.0599   18.5866 C   0  0  0  0  0  0  0  0  0  0  0  0
    8.1253   -0.4282   18.3311 H   0  0  0  0  0  0  0  0  0  0  0  0
    6.5647    0.6780   17.5713 N   0  0  0  0  0  0  0  0  0  0  0  0
    5.3991    1.2972   17.8283 C   0  0  0  0  0  0  0  0  0  0  0  0
    4.9223    1.7942   16.9869 H   0  0  0  0  0  0  0  0  0  0  0  0
    4.8101    1.3105   19.0994 C   0  0  0  0  0  0  0  0  0  0  0  0
    3.8747    1.8394   19.2518 H   0  0  0  0  0  0  0  0  0  0  0  0
    5.4515    0.6533   20.1465 C   0  0  0  0  0  0  0  0  0  0  0  0
    5.0603    0.6055   21.1601 H   0  0  0  0  0  0  0  0  0  0  0  0
    9.0690   -1.7840   22.2632 C   0  0  0  0  0  0  0  0  0  0  0  0
   10.2369   -2.1263   22.1898 O   0  0  0  0  0  0  0  0  0  0  0  0
    8.2492   -2.0549   23.3279 N   0  0  0  0  0  0  0  0  0  0  0  0
    7.3660   -1.5723   23.3601 H   0  0  0  0  0  0  0  0  0  0  0  0
    8.5285   -2.9463   24.3586 C   0  0  0  0  0  0  0  0  0  0  0  0
    9.2847   -4.0938   24.1240 C   0  0  0  0  0  0  0  0  0  0  0  0
    9.6606   -4.3032   23.1352 H   0  0  0  0  0  0  0  0  0  0  0  0
    9.5360   -4.9374   25.1999 C   0  0  0  0  0  0  0  0  0  0  0  0
   10.1317   -5.8415   25.0611 H   0  0  0  0  0  0  0  0  0  0  0  0
    9.0903   -4.7128   26.4437 N   0  0  0  0  0  0  0  0  0  0  0  0
    8.3506   -3.6153   26.6393 C   0  0  0  0  0  0  0  0  0  0  0  0
    7.9977   -3.4613   27.6595 H   0  0  0  0  0  0  0  0  0  0  0  0
    8.0266   -2.7075   25.6360 C   0  0  0  0  0  0  0  0  0  0  0  0
    7.4277   -1.8323   25.8544 H   0  0  0  0  0  0  0  0  0  0  0  0
  1  2  1  0
  2  3  2  3
  3  4  1  0
  4  5  2  0
  5  6  1  0
  5  7  1  0
  7  8  2  0
  8  9  1  0
  8 10  1  0
 10 11  1  0
 10 12  2  0
 12 13  1  0
  2 14  1  0
 14 15  2  0
 14 16  1  0
 16 17  1  0
 16 18  1  0
 18 19  2  0
 19 20  1  0
 19 21  1  0
 21 22  1  0
 21 23  2  0
 23 24  1  0
 24 25  1  0
 24 26  2  0
 26 27  1  0
 12  4  1  0
 26 18  1  0
M  END
>  <cnnaffinity>  (1) 
4.79148

>  <plip>  (1) 
-0.03571428571428571

>  <filename>  (1) 
[H][C](=[N][c]1[c]([H])[n][c]([H])[c]([H])[c]1[H])[C](=[O])[N]([H])[c]1[c]([H])[c]([H])[n][c]([H])[c]1[H]

>  <combo1>  (1) 
-0.2521290695743376

$$$$
