
     RDKit          3D

 39 42  0  0  0  0  0  0  0  0999 V2000
    2.2466    1.5538   26.7745 C   0  0  0  0  0  0  0  0  0  0  0  0
    3.4462    0.8730   26.1844 C   0  0  0  0  0  0  0  0  0  0  0  0
    4.3176    1.5828   25.3466 C   0  0  0  0  0  0  0  0  0  0  0  0
    5.3830    0.9236   24.7382 C   0  0  0  0  0  0  0  0  0  0  0  0
    5.5656   -0.4393   24.9953 C   0  0  0  0  0  0  0  0  0  0  0  0
    6.5933   -1.1749   24.4492 O   0  0  0  0  0  0  0  0  0  0  0  0
    7.1599   -0.9452   23.2301 C   0  0  0  0  0  0  0  0  0  0  0  0
    6.4904   -0.3540   22.2549 N   0  0  0  0  0  0  0  0  0  0  0  0
    7.0841   -0.3212   21.0561 C   0  0  0  0  0  0  0  0  0  0  0  0
    6.3558    0.2680   19.9079 C   0  0  0  0  0  0  0  0  0  0  0  0
    5.0997    0.9021   19.9684 C   0  0  0  0  0  0  0  0  0  0  0  0
    4.5910    1.4598   18.7932 C   0  0  0  0  0  0  0  0  0  0  0  0
    5.3294    1.3545   17.6088 C   0  0  0  0  0  0  0  0  0  0  0  0
    6.4940    0.7024   17.5253 N   0  0  0  0  0  0  0  0  0  0  0  0
    6.9854    0.1804   18.6508 C   0  0  0  0  0  0  0  0  0  0  0  0
    7.9339   -0.3414   18.5513 H   0  0  0  0  0  0  0  0  0  0  0  0
    4.9702    1.8164   16.6902 H   0  0  0  0  0  0  0  0  0  0  0  0
    3.6503    1.9998   18.7770 H   0  0  0  0  0  0  0  0  0  0  0  0
    4.5275    0.9706   20.8996 H   0  0  0  0  0  0  0  0  0  0  0  0
    8.3027   -0.7945   20.7890 N   0  0  0  0  0  0  0  0  0  0  0  0
    8.9517   -1.3564   21.8028 C   0  0  0  0  0  0  0  0  0  0  0  0
    8.4531   -1.4401   23.0842 C   0  0  0  0  0  0  0  0  0  0  0  0
    9.4425   -2.0996   24.0174 C   0  0  0  0  0  0  0  0  0  0  0  0
   10.3608   -2.8446   23.0126 C   0  0  0  0  0  0  0  0  0  0  0  0
   10.2877   -2.0293   21.6968 C   0  0  0  0  0  0  0  0  0  0  0  0
   10.3170   -2.6298   20.7883 H   0  0  0  0  0  0  0  0  0  0  0  0
   11.0938   -1.2851   21.6190 H   0  0  0  0  0  0  0  0  0  0  0  0
    9.9239   -3.8397   22.8659 H   0  0  0  0  0  0  0  0  0  0  0  0
   11.3953   -2.9844   23.3405 H   0  0  0  0  0  0  0  0  0  0  0  0
   10.0023   -1.3641   24.6151 H   0  0  0  0  0  0  0  0  0  0  0  0
    8.9740   -2.7860   24.7295 H   0  0  0  0  0  0  0  0  0  0  0  0
    4.6746   -1.0501   25.9171 C   0  0  0  0  0  0  0  0  0  0  0  0
    4.8940   -2.7139   26.3789 Cl  0  0  0  0  0  0  0  0  0  0  0  0
    3.6463   -0.4219   26.4713 N   0  0  0  0  0  0  0  0  0  0  0  0
    6.0574    1.4427   24.0554 H   0  0  0  0  0  0  0  0  0  0  0  0
    4.1366    2.6360   25.1645 H   0  0  0  0  0  0  0  0  0  0  0  0
    1.6325    0.8341   27.3154 H   0  0  0  0  0  0  0  0  0  0  0  0
    1.6439    2.0187   25.9865 H   0  0  0  0  0  0  0  0  0  0  0  0
    2.5438    2.3566   27.4576 H   0  0  0  0  0  0  0  0  0  0  0  0
  1  2  1  0
  2  3  2  0
  3  4  1  0
  4  5  2  0
  5  6  1  0
  6  7  1  0
  7  8  2  0
  8  9  1  0
  9 10  1  0
 10 11  2  0
 11 12  1  0
 12 13  2  0
 13 14  1  0
 14 15  2  0
 15 16  1  0
 13 17  1  0
 12 18  1  0
 11 19  1  0
  9 20  2  0
 20 21  1  0
 21 22  2  0
 22 23  1  0
 23 24  1  0
 24 25  1  0
 25 26  1  0
 25 27  1  0
 24 28  1  0
 24 29  1  0
 23 30  1  0
 23 31  1  0
  5 32  1  0
 32 33  1  0
 32 34  2  0
  4 35  1  0
  3 36  1  0
  1 37  1  0
  1 38  1  0
  1 39  1  0
 34  2  1  0
 22  7  1  0
 15 10  1  0
 25 21  1  0
M  END
>  <cnnaffinity>  (1) 
5.61613

>  <plip>  (1) 
-0.0

>  <filename>  (1) 
[H][c]1[n][c]([H])[c](-[c]2[n][c]([O][c]3[c]([Cl])[n][c]([C]([H])([H])[H])[c]([H])[c]3[H])[c]3[c]([n]2)[C]([H])([H])[C]([H])([H])[C]3([H])[H])[c]([H])[c]1[H]

>  <combo1>  (1) 
-5.525544227927362e-06

$$$$
