
     RDKit          3D

 33 34  0  0  0  0  0  0  0  0999 V2000
   12.0975    2.8143   24.2917 H   0  0  0  0  0  0  0  0  0  0  0  0
   11.7928    2.6025   23.4004 O   0  0  0  0  0  0  0  0  0  0  0  0
   10.4629    2.1442   23.5262 C   0  0  0  0  0  0  0  0  0  0  0  0
   10.0877    2.0134   22.5036 H   0  0  0  0  0  0  0  0  0  0  0  0
    9.8169    2.9000   24.0023 H   0  0  0  0  0  0  0  0  0  0  0  0
   10.3804    0.8585   24.3306 C   0  0  0  0  0  0  0  0  0  0  0  0
   10.7843    1.0604   25.3304 H   0  0  0  0  0  0  0  0  0  0  0  0
    9.3292    0.5688   24.4374 H   0  0  0  0  0  0  0  0  0  0  0  0
   11.1540   -0.3318   23.7768 C   0  0  0  0  0  0  0  0  0  0  0  0
   12.2341   -0.1495   23.7563 H   0  0  0  0  0  0  0  0  0  0  0  0
   10.9793   -1.1880   24.4359 H   0  0  0  0  0  0  0  0  0  0  0  0
   10.7968   -0.7268   22.4114 N   0  0  0  0  0  0  0  0  0  0  0  0
   11.0168    0.0526   21.7843 H   0  0  0  0  0  0  0  0  0  0  0  0
    9.4056   -1.0719   22.2671 N   0  0  0  0  0  0  0  0  0  0  0  0
    8.7089   -0.4372   21.2463 C   0  0  0  0  0  0  0  0  0  0  0  0
    9.2766    0.3311   20.7173 H   0  0  0  0  0  0  0  0  0  0  0  0
    7.4169   -0.7233   20.9214 C   0  0  0  0  0  0  0  0  0  0  0  0
    6.7033    0.0102   19.8326 C   0  0  0  0  0  0  0  0  0  0  0  0
    7.2249    0.1207   18.5194 C   0  0  0  0  0  0  0  0  0  0  0  0
    8.1745   -0.3558   18.2685 H   0  0  0  0  0  0  0  0  0  0  0  0
    6.6112    0.7535   17.5112 N   0  0  0  0  0  0  0  0  0  0  0  0
    5.4352    1.3434   17.7802 C   0  0  0  0  0  0  0  0  0  0  0  0
    4.9583    1.8573   16.9491 H   0  0  0  0  0  0  0  0  0  0  0  0
    4.8287    1.3146   19.0382 C   0  0  0  0  0  0  0  0  0  0  0  0
    3.8860    1.8274   19.1911 H   0  0  0  0  0  0  0  0  0  0  0  0
    5.4655    0.6309   20.0746 C   0  0  0  0  0  0  0  0  0  0  0  0
    5.0274    0.5756   21.0707 H   0  0  0  0  0  0  0  0  0  0  0  0
    6.7323   -1.8029   21.6866 C   0  0  0  0  0  0  0  0  0  0  0  0
    5.6604   -2.3327   21.4841 O   0  0  0  0  0  0  0  0  0  0  0  0
    7.4697   -2.2654   22.7494 N   0  0  0  0  0  0  0  0  0  0  0  0
    7.0629   -3.0280   23.2538 H   0  0  0  0  0  0  0  0  0  0  0  0
    8.7878   -2.0914   23.0372 C   0  0  0  0  0  0  0  0  0  0  0  0
    9.2811   -2.7720   23.9106 O   0  0  0  0  0  0  0  0  0  0  0  0
  1  2  1  0
  2  3  1  0
  3  4  1  0
  3  5  1  0
  3  6  1  0
  6  7  1  0
  6  8  1  0
  6  9  1  0
  9 10  1  0
  9 11  1  0
  9 12  1  0
 12 13  1  0
 12 14  1  0
 14 15  1  0
 15 16  1  0
 15 17  2  0
 17 18  1  0
 18 19  2  0
 19 20  1  0
 19 21  1  0
 21 22  2  0
 22 23  1  0
 22 24  1  0
 24 25  1  0
 24 26  2  0
 26 27  1  0
 17 28  1  0
 28 29  2  0
 28 30  1  0
 30 31  1  0
 30 32  1  0
 32 33  2  0
 32 14  1  0
 26 18  1  0
M  END
>  <cnnaffinity>  (1) 
4.79301

>  <plip>  (1) 
-0.07142857142857142

>  <filename>  (1) 
[H][O][C]([H])([H])[C]([H])([H])[C]([H])([H])[N]([H])[n]1[c]([H])[c](-[c]2[c]([H])[n][c]([H])[c]([H])[c]2[H])[c](=[O])[n]([H])[c]1=[O]

>  <combo1>  (1) 
-0.435123044333435

$$$$
