
     RDKit          3D

 32 34  0  0  0  0  0  0  0  0999 V2000
    4.9131    1.7898   16.9867 H   0  0  0  0  0  0  0  0  0  0  0  0
    5.3950    1.2994   17.8259 C   0  0  0  0  0  0  0  0  0  0  0  0
    6.5536    0.6825   17.5565 N   0  0  0  0  0  0  0  0  0  0  0  0
    7.1710    0.0798   18.5772 C   0  0  0  0  0  0  0  0  0  0  0  0
    8.1067   -0.4225   18.3477 H   0  0  0  0  0  0  0  0  0  0  0  0
    6.6648    0.0292   19.8888 C   0  0  0  0  0  0  0  0  0  0  0  0
    7.3910   -0.6899   20.9645 C   0  0  0  0  0  0  0  0  0  0  0  0
    6.6997   -1.5439   21.8674 C   0  0  0  0  0  0  0  0  0  0  0  0
    5.6238   -1.6614   21.7267 H   0  0  0  0  0  0  0  0  0  0  0  0
    7.3376   -2.2146   22.8906 C   0  0  0  0  0  0  0  0  0  0  0  0
    6.5933   -3.0805   23.8168 C   0  0  0  0  0  0  0  0  0  0  0  0
    6.7681   -2.9595   25.2051 C   0  0  0  0  0  0  0  0  0  0  0  0
    7.4763   -2.2254   25.5768 H   0  0  0  0  0  0  0  0  0  0  0  0
    6.0561   -3.7722   26.0810 C   0  0  0  0  0  0  0  0  0  0  0  0
    6.2042   -3.6698   27.1518 H   0  0  0  0  0  0  0  0  0  0  0  0
    5.1585   -4.7299   25.5728 C   0  0  0  0  0  0  0  0  0  0  0  0
    4.4204   -5.5778   26.4765 C   0  0  0  0  0  0  0  0  0  0  0  0
    3.8198   -6.2569   27.1979 N   0  0  0  0  0  0  0  0  0  0  0  0
    4.9768   -4.8613   24.1808 C   0  0  0  0  0  0  0  0  0  0  0  0
    4.2790   -5.5923   23.7818 H   0  0  0  0  0  0  0  0  0  0  0  0
    5.6855   -4.0322   23.3158 C   0  0  0  0  0  0  0  0  0  0  0  0
    5.5642   -4.1285   22.2393 H   0  0  0  0  0  0  0  0  0  0  0  0
    8.7944   -2.0632   23.0507 C   0  0  0  0  0  0  0  0  0  0  0  0
    9.5566   -2.5746   23.8514 O   0  0  0  0  0  0  0  0  0  0  0  0
    9.3791   -1.2047   22.1134 N   0  0  0  0  0  0  0  0  0  0  0  0
   10.3714   -1.1657   22.2848 H   0  0  0  0  0  0  0  0  0  0  0  0
    8.7450   -0.5425   21.1094 C   0  0  0  0  0  0  0  0  0  0  0  0
    9.3285    0.1100   20.4577 H   0  0  0  0  0  0  0  0  0  0  0  0
    5.4384    0.6550   20.1457 C   0  0  0  0  0  0  0  0  0  0  0  0
    5.0185    0.6347   21.1562 H   0  0  0  0  0  0  0  0  0  0  0  0
    4.8039    1.3172   19.0958 C   0  0  0  0  0  0  0  0  0  0  0  0
    3.8718    1.8444   19.2526 H   0  0  0  0  0  0  0  0  0  0  0  0
  1  2  1  0
  2  3  2  0
  3  4  1  0
  4  5  1  0
  4  6  2  0
  6  7  1  0
  7  8  1  0
  8  9  1  0
  8 10  2  0
 10 11  1  0
 11 12  2  0
 12 13  1  0
 12 14  1  0
 14 15  1  0
 14 16  2  0
 16 17  1  0
 17 18  3  0
 16 19  1  0
 19 20  1  0
 19 21  2  0
 21 22  1  0
 10 23  1  0
 23 24  2  0
 23 25  1  0
 25 26  1  0
 25 27  1  0
 27 28  1  0
  6 29  1  0
 29 30  1  0
 29 31  2  0
 31 32  1  0
 31  2  1  0
 27  7  2  0
 21 11  1  0
M  END
>  <cnnaffinity>  (1) 
5.02859

>  <plip>  (1) 
-0.03571428571428571

>  <filename>  (1) 
[H][c]1[n][c]([H])[c](-[c]2[c]([H])[c](-[c]3[c]([H])[c]([H])[c]([C]#[N])[c]([H])[c]3[H])[c](=[O])[n]([H])[c]2[H])[c]([H])[c]1[H]

>  <combo1>  (1) 
-0.21904596376321073

$$$$
