
     RDKit          3D

 33 34  0  0  0  0  0  0  0  0999 V2000
    9.0275   -1.4035   20.9299 H   0  0  0  0  0  0  0  0  0  0  0  0
    8.7336   -0.5028   20.7516 O   0  0  0  0  0  0  0  0  0  0  0  0
    7.3490   -0.6834   20.9407 C   0  0  1  0  0  0  0  0  0  0  0  0
    7.0311   -0.3923   21.9513 H   0  0  0  0  0  0  0  0  0  0  0  0
    6.5845    0.0832   19.8933 C   0  0  0  0  0  0  0  0  0  0  0  0
    7.1368    0.1146   18.6086 C   0  0  0  0  0  0  0  0  0  0  0  0
    8.1080   -0.3440   18.4263 H   0  0  0  0  0  0  0  0  0  0  0  0
    6.5690    0.7183   17.5603 N   0  0  0  0  0  0  0  0  0  0  0  0
    5.4003    1.3452   17.7677 C   0  0  0  0  0  0  0  0  0  0  0  0
    4.9684    1.8367   16.8989 H   0  0  0  0  0  0  0  0  0  0  0  0
    4.7568    1.3868   19.0094 C   0  0  0  0  0  0  0  0  0  0  0  0
    3.8139    1.9202   19.1030 H   0  0  0  0  0  0  0  0  0  0  0  0
    5.3648    0.7520   20.0956 C   0  0  0  0  0  0  0  0  0  0  0  0
    4.8983    0.7721   21.0823 H   0  0  0  0  0  0  0  0  0  0  0  0
    7.2979   -2.1505   20.7768 N   0  0  0  0  0  0  0  0  0  0  0  0
    7.4263   -2.2868   19.7715 H   0  0  0  0  0  0  0  0  0  0  0  0
    6.0365   -2.7070   21.0816 O   0  0  0  0  0  0  0  0  0  0  0  0
    6.0829   -3.7635   22.0703 C   0  0  0  0  0  0  0  0  0  0  0  0
    6.7736   -3.4668   22.8771 H   0  0  0  0  0  0  0  0  0  0  0  0
    4.6506   -3.8620   22.5760 C   0  0  0  0  0  0  0  0  0  0  0  0
    4.0049   -3.9416   21.7033 H   0  0  0  0  0  0  0  0  0  0  0  0
    4.3828   -2.9564   23.1115 H   0  0  0  0  0  0  0  0  0  0  0  0
    4.3914   -5.0456   23.4911 C   0  0  0  0  0  0  0  0  0  0  0  0
    4.8803   -4.8559   24.4691 H   0  0  0  0  0  0  0  0  0  0  0  0
    3.3101   -5.1133   23.6705 H   0  0  0  0  0  0  0  0  0  0  0  0
    4.8380   -6.2588   22.8163 N   0  0  0  0  0  0  0  0  0  0  0  0
    4.6065   -7.0777   23.3654 H   0  0  0  0  0  0  0  0  0  0  0  0
    6.2667   -6.2309   22.5001 C   0  0  0  0  0  0  0  0  0  0  0  0
    6.9143   -6.0700   23.3885 H   0  0  0  0  0  0  0  0  0  0  0  0
    6.5454   -7.2010   22.0770 H   0  0  0  0  0  0  0  0  0  0  0  0
    6.5065   -5.1180   21.4737 C   0  0  0  0  0  0  0  0  0  0  0  0
    5.8907   -5.3259   20.5908 H   0  0  0  0  0  0  0  0  0  0  0  0
    7.5489   -5.0869   21.1393 H   0  0  0  0  0  0  0  0  0  0  0  0
  1  2  1  0
  2  3  1  0
  3  4  1  1
  3  5  1  0
  5  6  2  0
  6  7  1  0
  6  8  1  0
  8  9  2  0
  9 10  1  0
  9 11  1  0
 11 12  1  0
 11 13  2  0
 13 14  1  0
  3 15  1  0
 15 16  1  0
 15 17  1  0
 17 18  1  0
 18 19  1  0
 18 20  1  0
 20 21  1  0
 20 22  1  0
 20 23  1  0
 23 24  1  0
 23 25  1  0
 23 26  1  0
 26 27  1  0
 26 28  1  0
 28 29  1  0
 28 30  1  0
 28 31  1  0
 31 32  1  0
 31 33  1  0
 13  5  1  0
 31 18  1  0
M  END
>  <cnnaffinity>  (1) 
3.63592

>  <plip>  (1) 
-0.0967741935483871

>  <filename>  (1) 
[H][O][C@@]([H])([c]1[c]([H])[n][c]([H])[c]([H])[c]1[H])[N]([H])[O][C]1([H])[C]([H])([H])[C]([H])([H])[N]([H])[C]([H])([H])[C]1([H])[H]

>  <combo1>  (1) 
-0.5253038478631105

$$$$
