
     RDKit          3D

 41 43  0  0  0  0  0  0  0  0999 V2000
    2.2061   -5.0609   26.9013 H   0  0  0  0  0  0  0  0  0  0  0  0
    1.9039   -4.1464   26.8927 O   0  0  0  0  0  0  0  0  0  0  0  0
    3.0366   -3.3270   27.1320 C   0  0  0  0  0  0  0  0  0  0  0  0
    2.6634   -2.2974   27.1624 H   0  0  0  0  0  0  0  0  0  0  0  0
    3.4710   -3.5342   28.1252 H   0  0  0  0  0  0  0  0  0  0  0  0
    4.1251   -3.4653   26.0601 C   0  0  0  0  0  0  0  0  0  0  0  0
    4.4218   -4.5260   26.0529 H   0  0  0  0  0  0  0  0  0  0  0  0
    3.6690   -3.0960   24.6422 C   0  0  0  0  0  0  0  0  0  0  0  0
    3.3578   -2.0441   24.6523 H   0  0  0  0  0  0  0  0  0  0  0  0
    2.7886   -3.6612   24.3284 H   0  0  0  0  0  0  0  0  0  0  0  0
    4.8174   -3.3210   23.6401 C   0  0  0  0  0  0  0  0  0  0  0  0
    4.4725   -3.1278   22.6228 H   0  0  0  0  0  0  0  0  0  0  0  0
    5.1074   -4.3835   23.6819 H   0  0  0  0  0  0  0  0  0  0  0  0
    5.9794   -2.4950   23.9622 N   0  0  0  0  0  0  0  0  0  0  0  0
    6.6122   -1.7020   23.0187 C   0  0  0  0  0  0  0  0  0  0  0  0
    6.5290   -1.7736   21.6798 C   0  0  0  0  0  0  0  0  0  0  0  0
    5.9394   -2.4819   21.1120 H   0  0  0  0  0  0  0  0  0  0  0  0
    7.3838   -0.7426   20.9782 C   0  0  1  0  0  0  0  0  0  0  0  0
    8.2589   -1.2428   20.5254 H   0  0  0  0  0  0  0  0  0  0  0  0
    6.6569   -0.0087   19.8506 C   0  0  0  0  0  0  0  0  0  0  0  0
    7.1594    0.0499   18.5367 C   0  0  0  0  0  0  0  0  0  0  0  0
    8.0999   -0.4454   18.2926 H   0  0  0  0  0  0  0  0  0  0  0  0
    6.5681    0.6857   17.5155 N   0  0  0  0  0  0  0  0  0  0  0  0
    5.4106    1.3153   17.7781 C   0  0  0  0  0  0  0  0  0  0  0  0
    4.9417    1.8365   16.9473 H   0  0  0  0  0  0  0  0  0  0  0  0
    4.8095    1.3170   19.0419 C   0  0  0  0  0  0  0  0  0  0  0  0
    3.8792    1.8523   19.1945 H   0  0  0  0  0  0  0  0  0  0  0  0
    5.4397    0.6498   20.0897 C   0  0  0  0  0  0  0  0  0  0  0  0
    4.9944    0.6243   21.0877 H   0  0  0  0  0  0  0  0  0  0  0  0
    7.8749    0.1769   22.1416 C   0  0  0  0  0  0  0  0  0  0  0  0
    7.4030    1.1649   22.0889 H   0  0  0  0  0  0  0  0  0  0  0  0
    8.9561    0.3441   22.0842 H   0  0  0  0  0  0  0  0  0  0  0  0
    7.4802   -0.5421   23.4547 C   0  0  0  0  0  0  0  0  0  0  0  0
    6.9175    0.1133   24.1318 H   0  0  0  0  0  0  0  0  0  0  0  0
    8.3687   -0.9046   23.9847 H   0  0  0  0  0  0  0  0  0  0  0  0
    6.4705   -2.7089   25.3216 C   0  0  0  0  0  0  0  0  0  0  0  0
    6.9361   -3.7041   25.3913 H   0  0  0  0  0  0  0  0  0  0  0  0
    7.2612   -1.9933   25.5597 H   0  0  0  0  0  0  0  0  0  0  0  0
    5.3588   -2.6043   26.3820 C   0  0  0  0  0  0  0  0  0  0  0  0
    5.0465   -1.5542   26.4543 H   0  0  0  0  0  0  0  0  0  0  0  0
    5.7731   -2.8766   27.3585 H   0  0  0  0  0  0  0  0  0  0  0  0
  1  2  1  0
  2  3  1  0
  3  4  1  0
  3  5  1  0
  3  6  1  0
  6  7  1  0
  6  8  1  0
  8  9  1  0
  8 10  1  0
  8 11  1  0
 11 12  1  0
 11 13  1  0
 11 14  1  0
 14 15  1  0
 15 16  2  0
 16 17  1  0
 16 18  1  0
 18 19  1  6
 18 20  1  0
 20 21  2  0
 21 22  1  0
 21 23  1  0
 23 24  2  0
 24 25  1  0
 24 26  1  0
 26 27  1  0
 26 28  2  0
 28 29  1  0
 18 30  1  0
 30 31  1  0
 30 32  1  0
 30 33  1  0
 33 34  1  0
 33 35  1  0
 14 36  1  0
 36 37  1  0
 36 38  1  0
 36 39  1  0
 39 40  1  0
 39 41  1  0
 39  6  1  0
 33 15  1  0
 28 20  1  0
M  END
>  <cnnaffinity>  (1) 
4.72262

>  <plip>  (1) 
-0.034482758620689655

>  <filename>  (1) 
[H][O][C]([H])([H])[C]1([H])[C]([H])([H])[C]([H])([H])[N]([C]2=[C]([H])[C@@]([H])([c]3[c]([H])[n][c]([H])[c]([H])[c]3[H])[C]([H])([H])[C]2([H])[H])[C]([H])([H])[C]1([H])[H]

>  <combo1>  (1) 
-0.210101943009878

$$$$
