
     RDKit          3D

 48 51  0  0  0  0  0  0  0  0999 V2000
    4.4324   -4.2008   26.5348 F   0  0  0  0  0  0  0  0  0  0  0  0
    3.9921   -5.4441   26.3432 C   0  0  0  0  0  0  0  0  0  0  0  0
    3.3389   -6.0708   27.4050 C   0  0  0  0  0  0  0  0  0  0  0  0
    2.8609   -7.3710   27.2342 C   0  0  0  0  0  0  0  0  0  0  0  0
    3.0412   -8.0247   26.0106 C   0  0  0  0  0  0  0  0  0  0  0  0
    3.7014   -7.3781   24.9647 C   0  0  0  0  0  0  0  0  0  0  0  0
    4.2008   -6.0654   25.0918 C   0  0  0  0  0  0  0  0  0  0  0  0
    4.8848   -5.4104   23.9602 C   0  0  0  0  0  0  0  0  0  0  0  0
    4.7237   -5.6987   22.6278 C   0  0  0  0  0  0  0  0  0  0  0  0
    5.5279   -4.9009   21.7675 C   0  0  0  0  0  0  0  0  0  0  0  0
    6.2930   -3.9936   22.4447 C   0  0  0  0  0  0  0  0  0  0  0  0
    7.2836   -3.0355   21.8820 C   0  0  0  0  0  0  0  0  0  0  0  0
    6.5814   -1.7710   21.5990 N   0  0  0  0  0  4  0  0  0  0  0  0
    7.3957   -0.6850   21.0031 C   0  0  0  0  0  0  0  0  0  0  0  0
    6.6112   -0.0211   19.9047 C   0  0  0  0  0  0  0  0  0  0  0  0
    5.4052    0.6486   20.1477 C   0  0  0  0  0  0  0  0  0  0  0  0
    4.7945    1.3184   19.0909 C   0  0  0  0  0  0  0  0  0  0  0  0
    5.3990    1.2972   17.8298 C   0  0  0  0  0  0  0  0  0  0  0  0
    6.5582    0.6737   17.5787 N   0  0  0  0  0  0  0  0  0  0  0  0
    7.1446    0.0475   18.6091 C   0  0  0  0  0  0  0  0  0  0  0  0
    8.1008   -0.4248   18.3773 H   0  0  0  0  0  0  0  0  0  0  0  0
    4.9273    1.7930   16.9843 H   0  0  0  0  0  0  0  0  0  0  0  0
    3.8690    1.8530   19.2420 H   0  0  0  0  0  0  0  0  0  0  0  0
    4.9733    0.6613   21.1544 H   0  0  0  0  0  0  0  0  0  0  0  0
    7.8812    0.3203   22.0534 C   0  0  0  0  0  0  0  0  0  0  0  0
    8.7195    1.4743   21.4795 C   0  0  0  0  0  0  0  0  0  0  0  0
    9.6151    1.8842   22.6598 C   0  0  0  0  0  0  0  0  0  0  0  0
    9.5658    0.8191   23.6044 O   0  0  0  0  0  0  0  0  0  0  0  0
    8.8219   -0.2751   23.1000 C   0  0  0  0  0  0  0  0  0  0  0  0
    8.3151   -0.7511   23.9486 H   0  0  0  0  0  0  0  0  0  0  0  0
    9.4895   -1.0308   22.6474 H   0  0  0  0  0  0  0  0  0  0  0  0
    9.2577    2.7962   23.1556 H   0  0  0  0  0  0  0  0  0  0  0  0
   10.6554    2.0685   22.3520 H   0  0  0  0  0  0  0  0  0  0  0  0
    8.1085    2.3041   21.1098 H   0  0  0  0  0  0  0  0  0  0  0  0
    9.3203    1.1277   20.6291 H   0  0  0  0  0  0  0  0  0  0  0  0
    7.0083    0.7243   22.5782 H   0  0  0  0  0  0  0  0  0  0  0  0
    8.2917   -1.1363   20.5631 H   0  0  0  0  0  0  0  0  0  0  0  0
    6.1282   -1.4460   22.4939 H   0  0  0  0  0  0  0  0  0  0  0  0
    5.8027   -1.9464   20.9233 H   0  0  0  0  0  0  0  0  0  0  0  0
    7.7121   -3.4512   20.9591 H   0  0  0  0  0  0  0  0  0  0  0  0
    8.1281   -2.8715   22.5628 H   0  0  0  0  0  0  0  0  0  0  0  0
    6.0414   -4.1200   24.1512 S   0  0  0  0  0  0  0  0  0  0  0  0
    5.5431   -4.9973   20.6855 H   0  0  0  0  0  0  0  0  0  0  0  0
    4.0159   -6.4400   22.2721 H   0  0  0  0  0  0  0  0  0  0  0  0
    3.8471   -7.8979   24.0221 H   0  0  0  0  0  0  0  0  0  0  0  0
    2.6691   -9.0348   25.8737 H   0  0  0  0  0  0  0  0  0  0  0  0
    2.3535   -7.8736   28.0556 H   0  0  0  0  0  0  0  0  0  0  0  0
    3.2311   -5.5220   28.3360 H   0  0  0  0  0  0  0  0  0  0  0  0
  1  2  1  0
  2  3  2  0
  3  4  1  0
  4  5  2  0
  5  6  1  0
  6  7  2  0
  7  8  1  0
  8  9  2  0
  9 10  1  0
 10 11  2  0
 11 12  1  0
 12 13  1  0
 13 14  1  0
 14 15  1  0
 15 16  2  0
 16 17  1  0
 17 18  2  0
 18 19  1  0
 19 20  2  0
 20 21  1  0
 18 22  1  0
 17 23  1  0
 16 24  1  0
 14 25  1  0
 25 26  1  0
 26 27  1  0
 27 28  1  0
 28 29  1  0
 29 30  1  0
 29 31  1  0
 27 32  1  0
 27 33  1  0
 26 34  1  0
 26 35  1  0
 25 36  1  0
 14 37  1  0
 13 38  1  0
 13 39  1  0
 12 40  1  0
 12 41  1  0
 11 42  1  0
 10 43  1  0
  9 44  1  0
  6 45  1  0
  5 46  1  0
  4 47  1  0
  3 48  1  0
  7  2  1  0
 42  8  1  0
 20 15  1  0
 29 25  1  0
M  CHG  1  13   1
M  END
>  <cnnaffinity>  (1) 
5.63636

>  <plip>  (1) 
-0.03571428571428571

>  <filename>  (1) 
[H][c]1[n][c]([H])[c]([C]([H])([C]2([H])[C]([H])([H])[O][C]([H])([H])[C]2([H])[H])[N+]([H])([H])[C]([H])([H])[c]2[s][c](-[c]3[c]([H])[c]([H])[c]([H])[c]([H])[c]3[F])[c]([H])[c]2[H])[c]([H])[c]1[H]

>  <combo1>  (1) 
-0.1816028358648493

$$$$
