
     RDKit          3D

 29 31  0  0  0  0  0  0  0  0999 V2000
    8.5996   -0.6321   20.9305 O   0  0  0  0  0  0  0  0  0  0  0  0
    7.3837   -0.7431   20.9043 C   0  0  0  0  0  0  0  0  0  0  0  0
    6.6209   -0.0088   19.8564 C   0  0  0  0  0  0  0  0  0  0  0  0
    5.3928    0.6175   20.1017 C   0  0  0  0  0  0  0  0  0  0  0  0
    4.7959    1.3031   19.0441 C   0  0  0  0  0  0  0  0  0  0  0  0
    5.4342    1.3130   17.7989 C   0  0  0  0  0  0  0  0  0  0  0  0
    6.6152    0.7183   17.5586 N   0  0  0  0  0  0  0  0  0  0  0  0
    7.2031    0.0968   18.5819 C   0  0  0  0  0  0  0  0  0  0  0  0
    8.1747   -0.3555   18.3880 H   0  0  0  0  0  0  0  0  0  0  0  0
    4.9831    1.8281   16.9545 H   0  0  0  0  0  0  0  0  0  0  0  0
    3.8601    1.8354   19.1745 H   0  0  0  0  0  0  0  0  0  0  0  0
    4.9380    0.5934   21.0955 H   0  0  0  0  0  0  0  0  0  0  0  0
    6.6564   -1.6547   21.8815 C   0  0  0  0  0  0  0  0  0  0  0  0
    5.6794   -2.5116   21.6302 N   0  0  0  0  0  0  0  0  0  0  0  0
    5.4143   -3.1209   22.8310 C   0  0  0  0  0  0  0  0  0  0  0  0
    6.2256   -2.6242   23.8104 C   0  0  0  0  0  0  0  0  0  0  0  0
    7.0346   -1.7011   23.2011 N   0  0  0  0  0  0  0  0  0  0  0  0
    8.2407   -1.1526   23.8182 C   0  0  0  0  0  0  0  0  0  0  0  0
    9.4336   -2.0702   23.6870 C   0  0  0  0  0  0  0  0  0  0  0  0
    9.4143   -3.2528   24.2500 N   0  0  0  0  0  0  0  0  0  0  0  0
   10.6103   -3.8466   23.9390 O   0  0  0  0  0  0  0  0  0  0  0  0
   11.3297   -3.0066   23.1867 C   0  0  0  0  0  0  0  0  0  0  0  0
   10.6726   -1.8390   23.0161 C   0  0  0  0  0  0  0  0  0  0  0  0
   10.9950   -0.9538   22.4909 H   0  0  0  0  0  0  0  0  0  0  0  0
   12.3132   -3.3308   22.8794 H   0  0  0  0  0  0  0  0  0  0  0  0
    8.4625   -0.1803   23.3823 H   0  0  0  0  0  0  0  0  0  0  0  0
    8.0138   -0.9970   24.8769 H   0  0  0  0  0  0  0  0  0  0  0  0
    6.3193   -2.8164   24.8740 H   0  0  0  0  0  0  0  0  0  0  0  0
    4.6632   -3.8934   22.9214 H   0  0  0  0  0  0  0  0  0  0  0  0
  1  2  2  0
  2  3  1  0
  3  4  2  0
  4  5  1  0
  5  6  2  0
  6  7  1  0
  7  8  2  0
  8  9  1  0
  6 10  1  0
  5 11  1  0
  4 12  1  0
  2 13  1  0
 13 14  2  0
 14 15  1  0
 15 16  2  0
 16 17  1  0
 17 18  1  0
 18 19  1  0
 19 20  2  0
 20 21  1  0
 21 22  1  0
 22 23  2  0
 23 24  1  0
 22 25  1  0
 18 26  1  0
 18 27  1  0
 16 28  1  0
 15 29  1  0
  8  3  1  0
 17 13  1  0
 23 19  1  0
M  END
>  <cnnaffinity>  (1) 
5.06791

>  <plip>  (1) 
-0.03571428571428571

>  <filename>  (1) 
[H][c]1[n][c]([H])[c]([C](=[O])[c]2[n][c]([H])[c]([H])[n]2[C]([H])([H])[c]2[n][o][c]([H])[c]2[H])[c]([H])[c]1[H]

>  <combo1>  (1) 
-0.23729596539125777

$$$$
