
     RDKit          3D

 34 35  0  0  0  0  0  0  0  0999 V2000
    4.9435    1.7765   16.9999 H   0  0  0  0  0  0  0  0  0  0  0  0
    5.4175    1.2957   17.8526 C   0  0  0  0  0  0  0  0  0  0  0  0
    6.5917    0.6842   17.6128 N   0  0  0  0  0  0  0  0  0  0  0  0
    7.1894    0.0579   18.6359 C   0  0  0  0  0  0  0  0  0  0  0  0
    8.1452   -0.4293   18.4330 H   0  0  0  0  0  0  0  0  0  0  0  0
    6.6387    0.0158   19.9377 C   0  0  0  0  0  0  0  0  0  0  0  0
    7.2418   -0.6926   21.0284 N   0  0  0  0  0  0  0  0  0  0  0  0
    7.8081   -0.1822   22.2039 C   0  0  0  0  0  0  0  0  0  0  0  0
    7.6102    1.2498   22.7345 C   0  0  0  0  0  0  0  0  0  0  0  0
    7.3783    2.1914   21.9883 O   0  0  0  0  0  0  0  0  0  0  0  0
    7.6728    1.3961   24.0881 N   0  0  0  0  0  0  0  0  0  0  0  0
    7.9070    0.5809   24.6381 H   0  0  0  0  0  0  0  0  0  0  0  0
    7.5673    2.7002   24.7684 C   0  0  0  0  0  0  0  0  0  0  0  0
    6.1829    3.3029   24.4933 C   0  0  0  0  0  0  0  0  0  0  0  0
    5.3985    2.6044   24.8055 H   0  0  0  0  0  0  0  0  0  0  0  0
    6.0460    4.2449   25.0364 H   0  0  0  0  0  0  0  0  0  0  0  0
    6.0645    3.4971   23.4263 H   0  0  0  0  0  0  0  0  0  0  0  0
    8.6785    3.6221   24.2487 C   0  0  0  0  0  0  0  0  0  0  0  0
    9.6530    3.1394   24.3842 H   0  0  0  0  0  0  0  0  0  0  0  0
    8.6814    4.5800   24.7787 H   0  0  0  0  0  0  0  0  0  0  0  0
    8.5373    3.8105   23.1832 H   0  0  0  0  0  0  0  0  0  0  0  0
    7.7469    2.4585   26.2664 C   0  0  0  0  0  0  0  0  0  0  0  0
    8.7264    2.0167   26.4777 H   0  0  0  0  0  0  0  0  0  0  0  0
    6.9696    1.7927   26.6556 H   0  0  0  0  0  0  0  0  0  0  0  0
    7.6843    3.4013   26.8229 H   0  0  0  0  0  0  0  0  0  0  0  0
    8.4223   -1.1245   22.8683 N   0  0  0  0  0  0  0  0  0  0  0  0
    8.1670   -2.2576   22.1594 N   0  0  0  0  0  0  0  0  0  0  0  0
    8.4248   -3.1755   22.4736 H   0  0  0  0  0  0  0  0  0  0  0  0
    7.3049   -2.0997   21.1140 C   0  0  0  0  0  0  0  0  0  0  0  0
    6.7355   -2.9483   20.4661 O   0  0  0  0  0  0  0  0  0  0  0  0
    5.4353    0.6724   20.1748 C   0  0  0  0  0  0  0  0  0  0  0  0
    5.0343    0.6725   21.1878 H   0  0  0  0  0  0  0  0  0  0  0  0
    4.8031    1.3187   19.1086 C   0  0  0  0  0  0  0  0  0  0  0  0
    3.8519    1.8234   19.2462 H   0  0  0  0  0  0  0  0  0  0  0  0
  1  2  1  0
  2  3  2  0
  3  4  1  0
  4  5  1  0
  4  6  2  0
  6  7  1  0
  7  8  1  0
  8  9  1  0
  9 10  2  0
  9 11  1  0
 11 12  1  0
 11 13  1  0
 13 14  1  0
 14 15  1  0
 14 16  1  0
 14 17  1  0
 13 18  1  0
 18 19  1  0
 18 20  1  0
 18 21  1  0
 13 22  1  0
 22 23  1  0
 22 24  1  0
 22 25  1  0
  8 26  2  0
 26 27  1  0
 27 28  1  0
 27 29  1  0
 29 30  2  0
  6 31  1  0
 31 32  1  0
 31 33  2  0
 33 34  1  0
 33  2  1  0
 29  7  1  0
M  END
>  <cnnaffinity>  (1) 
4.66918

>  <plip>  (1) 
-0.06896551724137931

>  <filename>  (1) 
[H][c]1[n][c]([H])[c](-[n]2[c]([C](=[O])[N]([H])[C]([C]([H])([H])[H])([C]([H])([H])[H])[C]([H])([H])[H])[n][n]([H])[c]2=[O])[c]([H])[c]1[H]

>  <combo1>  (1) 
-0.41080609780265903

$$$$
