
     RDKit          3D

 38 40  0  0  0  0  0  0  0  0999 V2000
   11.6413    0.6891   24.8742 C   0  0  0  0  0  0  0  0  0  0  0  0
   11.5639    2.0790   24.2319 C   0  0  0  0  0  0  0  0  0  0  0  0
   10.1863    2.5240   23.7887 C   0  0  0  0  0  0  0  0  0  0  0  0
    9.4512    3.4347   24.5597 C   0  0  0  0  0  0  0  0  0  0  0  0
    8.1408    3.7679   24.2063 C   0  0  0  0  0  0  0  0  0  0  0  0
    7.5447    3.2936   23.1074 N   0  0  0  0  0  0  0  0  0  0  0  0
    8.2550    2.4651   22.3214 C   0  0  0  0  0  0  0  0  0  0  0  0
    9.5800    2.0264   22.6044 C   0  0  0  0  0  0  0  0  0  0  0  0
   10.3179    1.1830   21.7470 N   0  0  0  0  0  0  0  0  0  0  0  0
    9.6555    0.2812   20.8140 C   0  0  0  0  0  0  0  0  0  0  0  0
    8.6255   -0.6447   21.4063 C   0  0  0  0  0  0  0  0  0  0  0  0
    8.7504   -1.5695   22.4211 C   0  0  0  0  0  0  0  0  0  0  0  0
    7.4705   -2.1287   22.5554 C   0  0  0  0  0  0  0  0  0  0  0  0
    6.6075   -1.6019   21.7071 N   0  0  0  0  0  0  0  0  0  0  0  0
    7.3162   -0.7028   20.9981 N   0  0  0  0  0  0  0  0  0  0  0  0
    6.6510   -0.0159   19.9482 C   0  0  0  0  0  0  0  0  0  0  0  0
    5.4338    0.6350   20.1812 C   0  0  0  0  0  0  0  0  0  0  0  0
    4.8401    1.3092   19.1118 C   0  0  0  0  0  0  0  0  0  0  0  0
    5.4562    1.2795   17.8529 C   0  0  0  0  0  0  0  0  0  0  0  0
    6.5903    0.6045   17.6092 N   0  0  0  0  0  0  0  0  0  0  0  0
    7.1598   -0.0314   18.6410 C   0  0  0  0  0  0  0  0  0  0  0  0
    8.0617   -0.5958   18.4155 H   0  0  0  0  0  0  0  0  0  0  0  0
    5.0102    1.7967   17.0055 H   0  0  0  0  0  0  0  0  0  0  0  0
    3.9075    1.8482   19.2412 H   0  0  0  0  0  0  0  0  0  0  0  0
    4.9644    0.5924   21.1685 H   0  0  0  0  0  0  0  0  0  0  0  0
    7.1458   -2.9151   23.2170 H   0  0  0  0  0  0  0  0  0  0  0  0
    9.6194   -1.8133   23.0139 H   0  0  0  0  0  0  0  0  0  0  0  0
    9.2357    0.8691   19.9911 H   0  0  0  0  0  0  0  0  0  0  0  0
   10.4366   -0.3569   20.3940 H   0  0  0  0  0  0  0  0  0  0  0  0
   11.0734    0.7235   22.2375 H   0  0  0  0  0  0  0  0  0  0  0  0
    7.7492    2.1072   21.4207 H   0  0  0  0  0  0  0  0  0  0  0  0
    7.5493    4.4313   24.8347 H   0  0  0  0  0  0  0  0  0  0  0  0
    9.8785    3.9134   25.4349 H   0  0  0  0  0  0  0  0  0  0  0  0
   12.2425    2.1126   23.3703 H   0  0  0  0  0  0  0  0  0  0  0  0
   11.9505    2.8030   24.9483 H   0  0  0  0  0  0  0  0  0  0  0  0
   11.2550   -0.0944   24.2157 H   0  0  0  0  0  0  0  0  0  0  0  0
   11.0648    0.6319   25.8022 H   0  0  0  0  0  0  0  0  0  0  0  0
   12.6851    0.4612   25.1132 H   0  0  0  0  0  0  0  0  0  0  0  0
  1  2  1  0
  2  3  1  0
  3  4  2  0
  4  5  1  0
  5  6  2  0
  6  7  1  0
  7  8  2  0
  8  9  1  0
  9 10  1  0
 10 11  1  0
 11 12  2  0
 12 13  1  0
 13 14  2  0
 14 15  1  0
 15 16  1  0
 16 17  2  0
 17 18  1  0
 18 19  2  0
 19 20  1  0
 20 21  2  0
 21 22  1  0
 19 23  1  0
 18 24  1  0
 17 25  1  0
 13 26  1  0
 12 27  1  0
 10 28  1  0
 10 29  1  0
  9 30  1  0
  7 31  1  0
  5 32  1  0
  4 33  1  0
  2 34  1  0
  2 35  1  0
  1 36  1  0
  1 37  1  0
  1 38  1  0
  8  3  1  0
 15 11  1  0
 21 16  1  0
M  END
>  <cnnaffinity>  (1) 
5.57749

>  <plip>  (1) 
-0.1

>  <filename>  (1) 
[H][c]1[n][c]([H])[c](-[n]2[n][c]([H])[c]([H])[c]2[C]([H])([H])[N]([H])[c]2[c]([H])[n][c]([H])[c]([H])[c]2[C]([H])([H])[C]([H])([H])[H])[c]([H])[c]1[H]

>  <combo1>  (1) 
-0.6655390368728984

$$$$
