
     RDKit          3D

 29 31  0  0  0  0  0  0  0  0999 V2000
    6.3788    0.2205   27.2308 H   0  0  0  0  0  0  0  0  0  0  0  0
    6.4406    0.4528   26.1699 C   0  0  0  0  0  0  0  0  0  0  0  0
    7.4780   -0.0620   25.4259 N   0  0  0  0  0  0  0  0  0  0  0  0
    7.3772    0.3415   24.1948 C   0  0  0  0  0  0  0  0  0  0  0  0
    8.3182   -0.0104   23.2913 N   0  0  0  0  0  0  0  0  0  0  0  0
    8.9572   -0.6680   23.7083 H   0  0  0  0  0  0  0  0  0  0  0  0
    8.2792    0.2776   21.8947 C   0  0  0  0  0  0  0  0  0  0  0  0
    7.4023   -0.6632   21.0438 C   0  0  0  0  0  0  0  0  0  0  0  0
    8.0609   -1.4522   20.6532 H   0  0  0  0  0  0  0  0  0  0  0  0
    6.6945   -1.1743   21.7076 H   0  0  0  0  0  0  0  0  0  0  0  0
    6.6488   -0.0066   19.9003 C   0  0  0  0  0  0  0  0  0  0  0  0
    7.1586    0.0533   18.5900 C   0  0  0  0  0  0  0  0  0  0  0  0
    8.1102   -0.4267   18.3472 H   0  0  0  0  0  0  0  0  0  0  0  0
    6.5529    0.6750   17.5676 N   0  0  0  0  0  0  0  0  0  0  0  0
    5.3926    1.2968   17.8251 C   0  0  0  0  0  0  0  0  0  0  0  0
    4.9228    1.8027   16.9837 H   0  0  0  0  0  0  0  0  0  0  0  0
    4.7968    1.3131   19.0889 C   0  0  0  0  0  0  0  0  0  0  0  0
    3.8668    1.8488   19.2358 H   0  0  0  0  0  0  0  0  0  0  0  0
    5.4329    0.6512   20.1418 C   0  0  0  0  0  0  0  0  0  0  0  0
    5.0159    0.6482   21.1510 H   0  0  0  0  0  0  0  0  0  0  0  0
    8.5119    1.7254   21.5391 C   0  0  0  0  0  0  0  0  0  0  0  0
    8.6368    2.4054   22.3819 H   0  0  0  0  0  0  0  0  0  0  0  0
    7.9730    2.1267   20.6791 H   0  0  0  0  0  0  0  0  0  0  0  0
    9.5886    0.6988   21.3047 C   0  0  0  0  0  0  0  0  0  0  0  0
   10.4737    0.6867   21.9373 H   0  0  0  0  0  0  0  0  0  0  0  0
    9.7575    0.3919   20.2764 H   0  0  0  0  0  0  0  0  0  0  0  0
    5.9889    1.3454   23.8415 S   0  0  0  0  0  0  0  0  0  0  0  0
    5.5488    1.2304   25.5170 C   0  0  0  0  0  0  0  0  0  0  0  0
    4.6773    1.7313   25.9000 H   0  0  0  0  0  0  0  0  0  0  0  0
  1  2  1  0
  2  3  1  0
  3  4  2  0
  4  5  1  0
  5  6  1  0
  5  7  1  0
  7  8  1  0
  8  9  1  0
  8 10  1  0
  8 11  1  0
 11 12  2  0
 12 13  1  0
 12 14  1  0
 14 15  2  0
 15 16  1  0
 15 17  1  0
 17 18  1  0
 17 19  2  0
 19 20  1  0
  7 21  1  0
 21 22  1  0
 21 23  1  0
 21 24  1  0
 24 25  1  0
 24 26  1  0
  4 27  1  0
 27 28  1  0
 28 29  1  0
 28  2  2  0
 24  7  1  0
 19 11  1  0
M  END
>  <cnnaffinity>  (1) 
4.66076

>  <plip>  (1) 
-0.03571428571428571

>  <filename>  (1) 
[H][c]1[n][c]([N]([H])[C]2([C]([H])([H])[c]3[c]([H])[n][c]([H])[c]([H])[c]3[H])[C]([H])([H])[C]2([H])[H])[s][c]1[H]

>  <combo1>  (1) 
-0.23985940972505265

$$$$
