
     RDKit          3D

 47 50  0  0  0  0  0  0  0  0999 V2000
    9.0210   -4.8855   26.1647 Cl  0  0  0  0  0  0  0  0  0  0  0  0
    7.4790   -5.6207   25.8449 C   0  0  0  0  0  0  0  0  0  0  0  0
    6.9470   -6.4276   26.8561 C   0  0  0  0  0  0  0  0  0  0  0  0
    5.7355   -7.0968   26.6622 C   0  0  0  0  0  0  0  0  0  0  0  0
    5.0624   -6.9799   25.4444 C   0  0  0  0  0  0  0  0  0  0  0  0
    5.5818   -6.1621   24.4415 C   0  0  0  0  0  0  0  0  0  0  0  0
    6.7717   -5.4320   24.6379 C   0  0  0  0  0  0  0  0  0  0  0  0
    7.1290   -4.4526   23.6608 N   0  0  0  0  0  0  0  0  0  0  0  0
    6.2902   -3.5012   23.1332 C   0  0  0  0  0  0  0  0  0  0  0  0
    7.0393   -2.7164   22.3013 C   0  0  0  0  0  0  0  0  0  0  0  0
    6.5587   -1.6565   21.5445 N   0  0  0  0  0  0  0  0  0  0  0  0
    7.4330   -0.6754   20.9396 C   0  0  0  0  0  0  0  0  0  0  0  0
    6.6383    0.0411   19.8667 C   0  0  0  0  0  0  0  0  0  0  0  0
    5.4080    0.6792   20.1003 C   0  0  0  0  0  0  0  0  0  0  0  0
    4.7772    1.3340   19.0385 C   0  0  0  0  0  0  0  0  0  0  0  0
    5.3830    1.3125   17.7777 C   0  0  0  0  0  0  0  0  0  0  0  0
    6.5233    0.6573   17.5174 N   0  0  0  0  0  0  0  0  0  0  0  0
    7.1115    0.0336   18.5458 C   0  0  0  0  0  0  0  0  0  0  0  0
    8.0243   -0.5144   18.3039 H   0  0  0  0  0  0  0  0  0  0  0  0
    4.9284    1.8277   16.9344 H   0  0  0  0  0  0  0  0  0  0  0  0
    3.8335    1.8527   19.1682 H   0  0  0  0  0  0  0  0  0  0  0  0
    4.9447    0.6680   21.0930 H   0  0  0  0  0  0  0  0  0  0  0  0
    8.1815    0.2408   21.9732 C   0  0  0  0  0  0  0  0  0  0  0  0
    9.3005    1.0440   21.2702 C   0  0  0  0  0  0  0  0  0  0  0  0
    9.8199    2.2306   22.1151 C   0  0  0  0  0  0  0  0  0  0  0  0
    9.5465    2.0628   23.4915 O   0  0  0  0  0  0  0  0  0  0  0  0
    8.1618    2.0076   23.8088 C   0  0  0  0  0  0  0  0  0  0  0  0
    7.3087    1.2128   22.7887 C   0  0  0  0  0  0  0  0  0  0  0  0
    6.8226    1.9258   22.1076 H   0  0  0  0  0  0  0  0  0  0  0  0
    6.5133    0.6865   23.3311 H   0  0  0  0  0  0  0  0  0  0  0  0
    7.7566    3.0303   23.9121 H   0  0  0  0  0  0  0  0  0  0  0  0
    8.1297    1.5376   24.7978 H   0  0  0  0  0  0  0  0  0  0  0  0
    9.3754    3.1736   21.7499 H   0  0  0  0  0  0  0  0  0  0  0  0
   10.9075    2.3217   22.0284 H   0  0  0  0  0  0  0  0  0  0  0  0
    8.8995    1.4529   20.3381 H   0  0  0  0  0  0  0  0  0  0  0  0
   10.1223    0.3650   21.0099 H   0  0  0  0  0  0  0  0  0  0  0  0
    8.6446   -0.4560   22.6869 H   0  0  0  0  0  0  0  0  0  0  0  0
    8.2321   -1.2423   20.4353 H   0  0  0  0  0  0  0  0  0  0  0  0
    5.6325   -1.3294   21.7853 H   0  0  0  0  0  0  0  0  0  0  0  0
    8.3486   -3.2774   22.3858 C   0  0  0  0  0  0  0  0  0  0  0  0
    8.3864   -4.3270   23.1894 N   0  0  0  0  0  0  0  0  0  0  0  0
    9.2607   -2.9097   21.9315 H   0  0  0  0  0  0  0  0  0  0  0  0
    5.2460   -3.3928   23.4030 H   0  0  0  0  0  0  0  0  0  0  0  0
    5.0724   -6.0658   23.4865 H   0  0  0  0  0  0  0  0  0  0  0  0
    4.1293   -7.5132   25.2839 H   0  0  0  0  0  0  0  0  0  0  0  0
    5.3367   -7.7190   27.4585 H   0  0  0  0  0  0  0  0  0  0  0  0
    7.5137   -6.5209   27.7786 H   0  0  0  0  0  0  0  0  0  0  0  0
  1  2  1  0
  2  3  2  0
  3  4  1  0
  4  5  2  0
  5  6  1  0
  6  7  2  0
  7  8  1  0
  8  9  1  0
  9 10  2  0
 10 11  1  0
 11 12  1  0
 12 13  1  0
 13 14  2  0
 14 15  1  0
 15 16  2  0
 16 17  1  0
 17 18  2  0
 18 19  1  0
 16 20  1  0
 15 21  1  0
 14 22  1  0
 12 23  1  0
 23 24  1  0
 24 25  1  0
 25 26  1  0
 26 27  1  0
 27 28  1  0
 28 29  1  0
 28 30  1  0
 27 31  1  0
 27 32  1  0
 25 33  1  0
 25 34  1  0
 24 35  1  0
 24 36  1  0
 23 37  1  0
 12 38  1  0
 11 39  1  0
 10 40  1  0
 40 41  2  0
 40 42  1  0
  9 43  1  0
  6 44  1  0
  5 45  1  0
  4 46  1  0
  3 47  1  0
  7  2  1  0
 41  8  1  0
 18 13  1  0
 28 23  1  0
M  END
>  <cnnaffinity>  (1) 
6.34381

>  <plip>  (1) 
-0.13793103448275862

>  <filename>  (1) 
[H][c]1[n][c]([H])[c]([C]([H])([N]([H])[c]2[c]([H])[n][n](-[c]3[c]([H])[c]([H])[c]([H])[c]([H])[c]3[Cl])[c]2[H])[C]2([H])[C]([H])([H])[C]([H])([H])[O][C]([H])([H])[C]2([H])[H])[c]([H])[c]1[H]

>  <combo1>  (1) 
-0.7907149042133135

$$$$
