
     RDKit          3D

 20 21  0  0  0  0  0  0  0  0999 V2000
    5.9321   -0.9554   22.3389 H   0  0  0  0  0  0  0  0  0  0  0  0
    6.9708   -1.0712   22.0168 C   0  0  0  0  0  0  0  0  0  0  0  0
    7.4204   -0.6825   20.8887 N   0  0  0  0  0  0  0  0  0  0  0  0
    6.6597   -0.0004   19.9186 C   0  0  0  0  0  0  0  0  0  0  0  0
    7.1824    0.0610   18.5996 C   0  0  0  0  0  0  0  0  0  0  0  0
    8.1318   -0.4386   18.3888 H   0  0  0  0  0  0  0  0  0  0  0  0
    6.5704    0.6811   17.5884 N   0  0  0  0  0  0  0  0  0  0  0  0
    5.3960    1.2925   17.8471 C   0  0  0  0  0  0  0  0  0  0  0  0
    4.9040    1.7714   17.0065 H   0  0  0  0  0  0  0  0  0  0  0  0
    4.8052    1.3132   19.1105 C   0  0  0  0  0  0  0  0  0  0  0  0
    3.8721    1.8450   19.2692 H   0  0  0  0  0  0  0  0  0  0  0  0
    5.4418    0.6490   20.1622 C   0  0  0  0  0  0  0  0  0  0  0  0
    5.0090    0.6308   21.1572 H   0  0  0  0  0  0  0  0  0  0  0  0
    7.8778   -1.7536   22.9320 C   0  0  0  0  0  0  0  0  0  0  0  0
    7.4883   -2.2309   24.1581 O   0  0  0  0  0  0  0  0  0  0  0  0
    8.6179   -2.7789   24.6658 C   0  0  0  0  0  0  0  0  0  0  0  0
    8.5751   -3.2357   25.6505 H   0  0  0  0  0  0  0  0  0  0  0  0
    9.6483   -2.6965   23.8992 N   0  0  0  0  0  0  0  0  0  0  0  0
    9.1933   -2.0391   22.7786 C   0  0  0  0  0  0  0  0  0  0  0  0
    9.8094   -1.8002   21.9231 H   0  0  0  0  0  0  0  0  0  0  0  0
  1  2  1  0
  2  3  2  3
  3  4  1  0
  4  5  2  0
  5  6  1  0
  5  7  1  0
  7  8  2  0
  8  9  1  0
  8 10  1  0
 10 11  1  0
 10 12  2  0
 12 13  1  0
  2 14  1  0
 14 15  1  0
 15 16  1  0
 16 17  1  0
 16 18  2  0
 18 19  1  0
 19 20  1  0
 12  4  1  0
 19 14  2  0
M  END
>  <cnnaffinity>  (1) 
4.04207

>  <plip>  (1) 
-0.03571428571428571

>  <filename>  (1) 
[H][C](=[N][c]1[c]([H])[n][c]([H])[c]([H])[c]1[H])[c]1[o][c]([H])[n][c]1[H]

>  <combo1>  (1) 
-0.2778685200079743

$$$$
