
     RDKit          3D

 32 34  0  0  0  0  0  0  0  0999 V2000
    4.9873    1.6489   16.6302 H   0  0  0  0  0  0  0  0  0  0  0  0
    5.4998    1.3064   17.5236 C   0  0  0  0  0  0  0  0  0  0  0  0
    6.6861    0.7091   17.3386 N   0  0  0  0  0  0  0  0  0  0  0  0
    7.3558    0.2705   18.4193 C   0  0  0  0  0  0  0  0  0  0  0  0
    8.3076   -0.2235   18.2241 H   0  0  0  0  0  0  0  0  0  0  0  0
    6.8657    0.4177   19.7306 C   0  0  0  0  0  0  0  0  0  0  0  0
    7.4532   -0.0618   20.8857 O   0  0  0  0  0  0  0  0  0  0  0  0
    8.8053   -0.3119   21.0622 C   0  0  0  0  0  0  0  0  0  0  0  0
    9.9348    0.5338   20.9032 C   0  0  0  0  0  0  0  0  0  0  0  0
   10.0236    1.5414   20.5115 H   0  0  0  0  0  0  0  0  0  0  0  0
   11.0414   -0.0574   21.3393 N   0  0  0  0  0  0  0  0  0  0  0  0
   10.6361   -1.2546   21.8027 N   0  0  0  0  0  0  0  0  0  0  0  0
   11.2845   -1.9016   22.2240 H   0  0  0  0  0  0  0  0  0  0  0  0
    9.3040   -1.4368   21.7104 C   0  0  0  0  0  0  0  0  0  0  0  0
    8.7818   -2.5613   22.2660 O   0  0  0  0  0  0  0  0  0  0  0  0
    7.4630   -2.3771   22.8130 C   0  0  0  0  0  0  0  0  0  0  0  0
    6.7585   -2.1599   22.0060 H   0  0  0  0  0  0  0  0  0  0  0  0
    7.4811   -1.5199   23.4905 H   0  0  0  0  0  0  0  0  0  0  0  0
    7.0249   -3.5950   23.5866 C   0  0  0  0  0  0  0  0  0  0  0  0
    6.7595   -4.8025   22.9314 C   0  0  0  0  0  0  0  0  0  0  0  0
    6.8669   -4.8979   21.8599 H   0  0  0  0  0  0  0  0  0  0  0  0
    6.3280   -5.8977   23.6814 C   0  0  0  0  0  0  0  0  0  0  0  0
    6.1290   -6.8447   23.1887 H   0  0  0  0  0  0  0  0  0  0  0  0
    6.1355   -5.8694   25.0050 N   0  0  0  0  0  0  0  0  0  0  0  0
    6.3739   -4.7095   25.6273 C   0  0  0  0  0  0  0  0  0  0  0  0
    6.2172   -4.6969   26.7039 H   0  0  0  0  0  0  0  0  0  0  0  0
    6.8028   -3.5562   24.9682 C   0  0  0  0  0  0  0  0  0  0  0  0
    6.9488   -2.6489   25.5436 H   0  0  0  0  0  0  0  0  0  0  0  0
    5.6123    1.0318   19.9081 C   0  0  0  0  0  0  0  0  0  0  0  0
    5.2079    1.1535   20.9127 H   0  0  0  0  0  0  0  0  0  0  0  0
    4.9183    1.4782   18.7862 C   0  0  0  0  0  0  0  0  0  0  0  0
    3.9426    1.9515   18.8723 H   0  0  0  0  0  0  0  0  0  0  0  0
  1  2  1  0
  2  3  2  0
  3  4  1  0
  4  5  1  0
  4  6  2  0
  6  7  1  0
  7  8  1  0
  8  9  1  0
  9 10  1  0
  9 11  2  0
 11 12  1  0
 12 13  1  0
 12 14  1  0
 14 15  1  0
 15 16  1  0
 16 17  1  0
 16 18  1  0
 16 19  1  0
 19 20  2  0
 20 21  1  0
 20 22  1  0
 22 23  1  0
 22 24  2  0
 24 25  1  0
 25 26  1  0
 25 27  2  0
 27 28  1  0
  6 29  1  0
 29 30  1  0
 29 31  2  0
 31 32  1  0
 31  2  1  0
 14  8  2  0
 27 19  1  0
M  END
>  <cnnaffinity>  (1) 
5.04564

>  <plip>  (1) 
-0.06896551724137931

>  <filename>  (1) 
[H][c]1[n][c]([H])[c]([O][c]2[c]([H])[n][n]([H])[c]2[O][C]([H])([H])[c]2[c]([H])[c]([H])[n][c]([H])[c]2[H])[c]([H])[c]1[H]

>  <combo1>  (1) 
-0.43235967487934457

$$$$
