
     RDKit          3D

 34 36  0  0  0  0  0  0  0  0999 V2000
    5.9653    1.7428   23.6086 N   0  0  0  0  0  0  0  0  0  0  0  0
    6.9947    1.2628   23.3946 C   0  0  0  0  0  0  0  0  0  0  0  0
    8.2769    0.6138   23.1361 C   0  0  0  0  0  0  0  0  0  0  0  0
    8.3981    0.2459   21.6442 C   0  0  0  0  0  0  0  0  0  0  0  0
    9.3342    0.6944   21.0260 O   0  0  0  0  0  0  0  0  0  0  0  0
    7.3978   -0.7034   20.9971 C   0  0  0  0  0  0  0  0  0  0  0  0
    6.6262   -0.0264   19.8809 C   0  0  0  0  0  0  0  0  0  0  0  0
    5.4289    0.6449   20.1392 C   0  0  0  0  0  0  0  0  0  0  0  0
    4.7942    1.3188   19.0897 C   0  0  0  0  0  0  0  0  0  0  0  0
    5.3846    1.3027   17.8210 C   0  0  0  0  0  0  0  0  0  0  0  0
    6.5414    0.6795   17.5523 N   0  0  0  0  0  0  0  0  0  0  0  0
    7.1393    0.0495   18.5728 C   0  0  0  0  0  0  0  0  0  0  0  0
    8.1084   -0.4041   18.3621 H   0  0  0  0  0  0  0  0  0  0  0  0
    4.9148    1.8085   16.9772 H   0  0  0  0  0  0  0  0  0  0  0  0
    3.8655    1.8569   19.2374 H   0  0  0  0  0  0  0  0  0  0  0  0
    5.0287    0.6498   21.1542 H   0  0  0  0  0  0  0  0  0  0  0  0
    7.9773   -1.5573   20.6270 H   0  0  0  0  0  0  0  0  0  0  0  0
    6.7328   -1.0864   21.7757 H   0  0  0  0  0  0  0  0  0  0  0  0
    8.4902   -0.6272   23.9673 C   0  0  0  0  0  0  0  0  0  0  0  0
    9.8311   -0.9956   24.3588 C   0  0  0  0  0  0  0  0  0  0  0  0
   10.1116   -2.1083   24.9906 N   0  0  0  0  0  0  0  0  0  0  0  0
    9.0407   -2.8849   25.3780 C   0  0  0  0  0  0  0  0  0  0  0  0
    9.2656   -4.0369   26.1771 C   0  0  0  0  0  0  0  0  0  0  0  0
    8.2019   -4.8474   26.5137 C   0  0  0  0  0  0  0  0  0  0  0  0
    6.8850   -4.5271   26.0810 C   0  0  0  0  0  0  0  0  0  0  0  0
    6.6349   -3.3938   25.3312 C   0  0  0  0  0  0  0  0  0  0  0  0
    7.7082   -2.5366   24.9745 C   0  0  0  0  0  0  0  0  0  0  0  0
    7.4563   -1.3988   24.2300 N   0  0  0  0  0  0  0  0  0  0  0  0
    5.6506   -3.0970   24.9786 H   0  0  0  0  0  0  0  0  0  0  0  0
    6.0707   -5.1924   26.3494 H   0  0  0  0  0  0  0  0  0  0  0  0
    8.3664   -5.7483   27.1002 H   0  0  0  0  0  0  0  0  0  0  0  0
   10.2898   -4.2341   26.4835 H   0  0  0  0  0  0  0  0  0  0  0  0
   10.6612   -0.3346   24.1218 H   0  0  0  0  0  0  0  0  0  0  0  0
    9.0766    1.3422   23.3012 H   0  0  0  0  0  0  0  0  0  0  0  0
  1  2  3  0
  2  3  1  0
  3  4  1  0
  4  5  2  0
  4  6  1  0
  6  7  1  0
  7  8  2  0
  8  9  1  0
  9 10  2  0
 10 11  1  0
 11 12  2  0
 12 13  1  0
 10 14  1  0
  9 15  1  0
  8 16  1  0
  6 17  1  0
  6 18  1  0
  3 19  1  0
 19 20  2  0
 20 21  1  0
 21 22  2  0
 22 23  1  0
 23 24  2  0
 24 25  1  0
 25 26  2  0
 26 27  1  0
 27 28  2  0
 26 29  1  0
 25 30  1  0
 24 31  1  0
 23 32  1  0
 20 33  1  0
  3 34  1  0
 12  7  1  0
 28 19  1  0
 27 22  1  0
M  END
>  <cnnaffinity>  (1) 
5.27574

>  <plip>  (1) 
-0.10714285714285714

>  <filename>  (1) 
[H][c]1[n][c]2[c]([H])[c]([H])[c]([H])[c]([H])[c]2[n][c]1[C]([H])([C]#[N])[C](=[O])[C]([H])([H])[c]1[c]([H])[n][c]([H])[c]([H])[c]1[H]

>  <combo1>  (1) 
-0.6535301783298731

$$$$
