
     RDKit          3D

 50 54  0  0  0  0  0  0  0  0999 V2000
   14.8718   -1.0334   23.0263 F   0  0  0  0  0  0  0  0  0  0  0  0
   13.6732   -0.4977   22.7976 C   0  0  0  0  0  0  0  0  0  0  0  0
   12.8156   -1.2341   21.9551 C   0  0  0  0  0  0  0  0  0  0  0  0
   11.5554   -0.7350   21.6947 C   0  0  0  0  0  0  0  0  0  0  0  0
   11.1652    0.4927   22.2815 C   0  0  0  0  0  0  0  0  0  0  0  0
   12.0601    1.1969   23.1149 C   0  0  0  0  0  0  0  0  0  0  0  0
   13.3385    0.7055   23.3979 C   0  0  0  0  0  0  0  0  0  0  0  0
   14.0219    1.2236   24.0590 H   0  0  0  0  0  0  0  0  0  0  0  0
   11.4308    2.3300   23.5923 N   0  0  0  0  0  0  0  0  0  0  0  0
   10.1374    2.3418   23.1665 C   0  0  0  0  0  0  0  0  0  0  0  0
    9.2098    3.2155   23.5519 N   0  0  0  0  0  0  0  0  0  0  0  0
    7.9978    2.9219   23.0910 C   0  0  0  0  0  0  0  0  0  0  0  0
    7.6233    1.8717   22.3469 N   0  0  0  0  0  0  0  0  0  0  0  0
    8.6196    1.0898   21.9630 C   0  0  0  0  0  0  0  0  0  0  0  0
    8.3908    0.0169   21.2171 N   0  0  0  0  0  0  0  0  0  0  0  0
    7.1396   -0.6482   21.0017 C   0  0  0  0  0  0  0  0  0  0  0  0
    7.4395   -2.1538   20.7592 C   0  0  0  0  0  0  0  0  0  0  0  0
    7.3151   -3.1094   21.9525 N   0  0  0  0  0  4  0  0  0  0  0  0
    5.9606   -3.1052   22.6484 C   0  0  0  0  0  0  0  0  0  0  0  0
    6.2499   -2.6304   24.0728 C   0  0  0  0  0  0  0  0  0  0  0  0
    7.6524   -3.1807   24.3500 C   0  0  0  0  0  0  0  0  0  0  0  0
    8.3871   -2.9255   23.0325 C   0  0  0  0  0  0  0  0  0  0  0  0
    9.2311   -3.5999   22.8528 H   0  0  0  0  0  0  0  0  0  0  0  0
    8.7593   -1.8982   22.9724 H   0  0  0  0  0  0  0  0  0  0  0  0
    7.6158   -4.2573   24.5659 H   0  0  0  0  0  0  0  0  0  0  0  0
    8.1488   -2.7015   25.2006 H   0  0  0  0  0  0  0  0  0  0  0  0
    6.2622   -1.5311   24.1032 H   0  0  0  0  0  0  0  0  0  0  0  0
    5.4844   -2.9651   24.7785 H   0  0  0  0  0  0  0  0  0  0  0  0
    5.2620   -2.4719   22.0969 H   0  0  0  0  0  0  0  0  0  0  0  0
    5.5620   -4.1250   22.6409 H   0  0  0  0  0  0  0  0  0  0  0  0
    7.4565   -4.0631   21.5665 H   0  0  0  0  0  0  0  0  0  0  0  0
    6.8211   -2.5234   19.9392 H   0  0  0  0  0  0  0  0  0  0  0  0
    8.4859   -2.1851   20.4312 H   0  0  0  0  0  0  0  0  0  0  0  0
    6.4694    0.0731   19.8558 C   0  0  0  0  0  0  0  0  0  0  0  0
    5.3031    0.8253   20.0421 C   0  0  0  0  0  0  0  0  0  0  0  0
    4.7353    1.4653   18.9365 C   0  0  0  0  0  0  0  0  0  0  0  0
    5.4005    1.3878   17.7091 C   0  0  0  0  0  0  0  0  0  0  0  0
    6.5629    0.7400   17.5339 N   0  0  0  0  0  0  0  0  0  0  0  0
    7.0902    0.1311   18.6007 C   0  0  0  0  0  0  0  0  0  0  0  0
    8.0689   -0.3289   18.4389 H   0  0  0  0  0  0  0  0  0  0  0  0
    4.9925    1.8658   16.8213 H   0  0  0  0  0  0  0  0  0  0  0  0
    3.8110    2.0296   19.0089 H   0  0  0  0  0  0  0  0  0  0  0  0
    4.8954    0.9657   21.0471 H   0  0  0  0  0  0  0  0  0  0  0  0
    6.5221   -0.5491   21.9043 H   0  0  0  0  0  0  0  0  0  0  0  0
    9.2226   -0.2746   20.7426 H   0  0  0  0  0  0  0  0  0  0  0  0
    9.9492    1.2620   22.3271 C   0  0  0  0  0  0  0  0  0  0  0  0
    7.1988    3.6007   23.3766 H   0  0  0  0  0  0  0  0  0  0  0  0
   11.7469    2.9470   24.3162 H   0  0  0  0  0  0  0  0  0  0  0  0
   10.8713   -1.2933   21.0617 H   0  0  0  0  0  0  0  0  0  0  0  0
   13.1687   -2.1788   21.5530 H   0  0  0  0  0  0  0  0  0  0  0  0
  1  2  1  0
  2  3  2  0
  3  4  1  0
  4  5  2  0
  5  6  1  0
  6  7  2  0
  7  8  1  0
  6  9  1  0
  9 10  1  0
 10 11  2  0
 11 12  1  0
 12 13  2  0
 13 14  1  0
 14 15  1  0
 15 16  1  0
 16 17  1  0
 17 18  1  0
 18 19  1  0
 19 20  1  0
 20 21  1  0
 21 22  1  0
 22 23  1  0
 22 24  1  0
 21 25  1  0
 21 26  1  0
 20 27  1  0
 20 28  1  0
 19 29  1  0
 19 30  1  0
 18 31  1  0
 17 32  1  0
 17 33  1  0
 16 34  1  0
 34 35  2  0
 35 36  1  0
 36 37  2  0
 37 38  1  0
 38 39  2  0
 39 40  1  0
 37 41  1  0
 36 42  1  0
 35 43  1  0
 16 44  1  0
 15 45  1  0
 14 46  2  0
 12 47  1  0
  9 48  1  0
  4 49  1  0
  3 50  1  0
  7  2  1  0
 46 10  1  0
 46  5  1  0
 22 18  1  0
 39 34  1  0
M  CHG  1  18   1
M  END
>  <cnnaffinity>  (1) 
6.03014

>  <plip>  (1) 
-0.06896551724137931

>  <filename>  (1) 
[H][c]1[n][c]([N]([H])[C]([H])([c]2[c]([H])[n][c]([H])[c]([H])[c]2[H])[C]([H])([H])[N+]2([H])[C]([H])([H])[C]([H])([H])[C]([H])([H])[C]2([H])[H])[c]2[c]3[c]([H])[c]([H])[c]([F])[c]([H])[c]3[n]([H])[c]2[n]1

>  <combo1>  (1) 
-0.36726721379684324

$$$$
