
     RDKit          3D

 33 35  0  0  0  0  0  0  0  0999 V2000
    4.9077    1.8285   16.9803 H   0  0  0  0  0  0  0  0  0  0  0  0
    5.3838    1.3016   17.8062 C   0  0  0  0  0  0  0  0  0  0  0  0
    6.5318    0.6625   17.5298 N   0  0  0  0  0  0  0  0  0  0  0  0
    7.1616    0.0427   18.5364 C   0  0  0  0  0  0  0  0  0  0  0  0
    8.0973   -0.4537   18.2919 H   0  0  0  0  0  0  0  0  0  0  0  0
    6.6759    0.0075   19.8602 C   0  0  0  0  0  0  0  0  0  0  0  0
    7.3944   -0.6604   20.9190 N   0  0  0  0  0  0  0  0  0  0  0  0
    6.7532   -1.6946   21.5797 C   0  0  0  0  0  0  0  0  0  0  0  0
    5.7494   -1.9515   21.2485 H   0  0  0  0  0  0  0  0  0  0  0  0
    7.3456   -2.3887   22.5983 C   0  0  0  0  0  0  0  0  0  0  0  0
    6.7302   -3.4288   23.2838 N   0  0  0  0  0  0  0  0  0  0  0  0
    6.9792   -3.5174   24.2560 H   0  0  0  0  0  0  0  0  0  0  0  0
    5.8156   -4.3613   22.7949 C   0  0  0  0  0  0  0  0  0  0  0  0
    5.8632   -4.8358   21.4745 C   0  0  0  0  0  0  0  0  0  0  0  0
    6.5642   -4.3945   20.7694 H   0  0  0  0  0  0  0  0  0  0  0  0
    5.0308   -5.8872   21.0935 C   0  0  0  0  0  0  0  0  0  0  0  0
    5.1216   -6.3291   20.1052 H   0  0  0  0  0  0  0  0  0  0  0  0
    4.0762   -6.3896   21.9835 C   0  0  0  0  0  0  0  0  0  0  0  0
    3.4325   -7.2084   21.6742 H   0  0  0  0  0  0  0  0  0  0  0  0
    3.9620   -5.8463   23.2649 C   0  0  0  0  0  0  0  0  0  0  0  0
    3.2109   -6.1906   23.9654 H   0  0  0  0  0  0  0  0  0  0  0  0
    4.8539   -4.8605   23.6803 C   0  0  0  0  0  0  0  0  0  0  0  0
    4.8209   -4.4389   24.6805 H   0  0  0  0  0  0  0  0  0  0  0  0
    8.6675   -2.0186   23.0100 C   0  0  0  0  0  0  0  0  0  0  0  0
    9.1404   -2.5911   23.8127 H   0  0  0  0  0  0  0  0  0  0  0  0
    9.3194   -1.0084   22.3808 C   0  0  0  0  0  0  0  0  0  0  0  0
   10.3127   -0.6901   22.6560 H   0  0  0  0  0  0  0  0  0  0  0  0
    8.7327   -0.2468   21.2789 C   0  0  0  0  0  0  0  0  0  0  0  0
    9.3111    0.6548   20.6979 O   0  0  0  0  0  0  0  0  0  0  0  0
    5.4538    0.6405   20.1219 C   0  0  0  0  0  0  0  0  0  0  0  0
    5.0341    0.6151   21.1286 H   0  0  0  0  0  0  0  0  0  0  0  0
    4.8064    1.3134   19.0792 C   0  0  0  0  0  0  0  0  0  0  0  0
    3.8738    1.8420   19.2407 H   0  0  0  0  0  0  0  0  0  0  0  0
  1  2  1  0
  2  3  2  0
  3  4  1  0
  4  5  1  0
  4  6  2  0
  6  7  1  0
  7  8  1  0
  8  9  1  0
  8 10  2  0
 10 11  1  0
 11 12  1  0
 11 13  1  0
 13 14  2  0
 14 15  1  0
 14 16  1  0
 16 17  1  0
 16 18  2  0
 18 19  1  0
 18 20  1  0
 20 21  1  0
 20 22  2  0
 22 23  1  0
 10 24  1  0
 24 25  1  0
 24 26  2  0
 26 27  1  0
 26 28  1  0
 28 29  2  0
  6 30  1  0
 30 31  1  0
 30 32  2  0
 32 33  1  0
 32  2  1  0
 28  7  1  0
 22 13  1  0
M  END
>  <cnnaffinity>  (1) 
4.8208

>  <plip>  (1) 
-0.10344827586206896

>  <filename>  (1) 
[H][c]1[n][c]([H])[c](-[n]2[c]([H])[c]([N]([H])[c]3[c]([H])[c]([H])[c]([H])[c]([H])[c]3[H])[c]([H])[c]([H])[c]2=[O])[c]([H])[c]1[H]

>  <combo1>  (1) 
-0.6313501054258286

$$$$
