
     RDKit          3D

 39 40  0  0  0  0  0  0  0  0999 V2000
    9.1886    1.7474   21.4682 C   0  0  0  0  0  0  0  0  0  0  0  0
    8.6583    0.8055   22.5500 C   0  0  0  0  0  0  0  0  0  0  0  0
    7.1798    0.4189   22.3329 C   0  0  0  0  0  0  0  0  0  0  0  0
    6.9488   -0.3327   21.0258 C   0  0  0  0  0  0  0  0  0  0  0  0
    7.2793   -1.5575   20.8151 N   0  0  0  0  0  0  0  0  0  0  0  0
    7.7123   -2.1912   21.9536 O   0  0  0  0  0  0  0  0  0  0  0  0
    8.0119   -3.5602   21.6865 C   0  0  0  0  0  0  0  0  0  0  0  0
    8.7223   -4.0629   22.9157 C   0  0  0  0  0  0  0  0  0  0  0  0
    9.7940   -3.3398   23.4695 C   0  0  0  0  0  0  0  0  0  0  0  0
   10.3645   -3.7476   24.6910 C   0  0  0  0  0  0  0  0  0  0  0  0
    9.9082   -4.8373   25.6500 C   0  0  0  0  0  0  0  0  0  0  0  0
    9.9432   -4.9725   25.6186 C   0  0  0  0  0  0  0  0  0  0  0  0
    8.4742   -3.5587   27.3172 F   0  0  0  0  0  0  0  0  0  0  0  0
   11.9440   -5.4133   25.1878 F   0  0  0  0  0  0  0  0  0  0  0  0
    9.0395   -4.5831   28.0476 F   0  0  0  0  0  0  0  0  0  0  0  0
    9.0128   -5.6458   24.5981 C   0  0  0  0  0  0  0  0  0  0  0  0
    8.4006   -5.2770   23.4112 N   0  0  0  0  0  0  0  0  0  0  0  0
    8.7816   -6.7385   24.6709 H   0  0  0  0  0  0  0  0  0  0  0  0
   11.2064   -3.0446   24.9039 H   0  0  0  0  0  0  0  0  0  0  0  0
   10.2034   -2.4633   22.9920 H   0  0  0  0  0  0  0  0  0  0  0  0
    7.1052   -4.1388   21.5114 H   0  0  0  0  0  0  0  0  0  0  0  0
    8.6777   -3.6362   20.8205 H   0  0  0  0  0  0  0  0  0  0  0  0
    6.3674    0.3610   19.8411 C   0  0  0  0  0  0  0  0  0  0  0  0
    5.1926    1.1274   19.8957 C   0  0  0  0  0  0  0  0  0  0  0  0
    4.7267    1.7062   18.7130 C   0  0  0  0  0  0  0  0  0  0  0  0
    5.4583    1.5171   17.5356 C   0  0  0  0  0  0  0  0  0  0  0  0
    6.5829    0.7869   17.4662 N   0  0  0  0  0  0  0  0  0  0  0  0
    7.0090    0.2210   18.5998 C   0  0  0  0  0  0  0  0  0  0  0  0
    7.9167   -0.3746   18.5195 H   0  0  0  0  0  0  0  0  0  0  0  0
    5.1214    1.9629   16.6030 H   0  0  0  0  0  0  0  0  0  0  0  0
    3.8243    2.3103   18.6943 H   0  0  0  0  0  0  0  0  0  0  0  0
    4.6490    1.2642   20.8347 H   0  0  0  0  0  0  0  0  0  0  0  0
    6.8470   -0.2292   23.1513 H   0  0  0  0  0  0  0  0  0  0  0  0
    6.5603    1.3222   22.3509 H   0  0  0  0  0  0  0  0  0  0  0  0
    8.7547    1.2807   23.5363 H   0  0  0  0  0  0  0  0  0  0  0  0
    9.2752   -0.1037   22.5955 H   0  0  0  0  0  0  0  0  0  0  0  0
   10.2499    1.9725   21.6175 H   0  0  0  0  0  0  0  0  0  0  0  0
    9.0754    1.3026   20.4729 H   0  0  0  0  0  0  0  0  0  0  0  0
    8.6418    2.6986   21.4654 H   0  0  0  0  0  0  0  0  0  0  0  0
  1  2  1  0
  2  3  1  0
  3  4  1  0
  4  5  2  3
  5  6  1  0
  6  7  1  0
  7  8  1  0
  8  9  2  0
  9 10  1  0
 10 11  2  0
 11 12  1  0
 12 13  1  0
 12 14  1  0
 12 15  1  0
 11 16  1  0
 16 17  2  0
 16 18  1  0
 10 19  1  0
  9 20  1  0
  7 21  1  0
  7 22  1  0
  4 23  1  0
 23 24  2  0
 24 25  1  0
 25 26  2  0
 26 27  1  0
 27 28  2  0
 28 29  1  0
 26 30  1  0
 25 31  1  0
 24 32  1  0
  3 33  1  0
  3 34  1  0
  2 35  1  0
  2 36  1  0
  1 37  1  0
  1 38  1  0
  1 39  1  0
 17  8  1  0
 28 23  1  0
M  END
>  <cnnaffinity>  (1) 
5.9812

>  <plip>  (1) 
-0.0

>  <filename>  (1) 
[H][c]1[n][c]([H])[c]([C](=[N][O][C]([H])([H])[c]2[n][c]([H])[c]([C]([F])([F])[F])[c]([H])[c]2[H])[C]([H])([H])[C]([H])([H])[C]([H])([H])[H])[c]([H])[c]1[H]

>  <combo1>  (1) 
-6.166477997925677e-06

$$$$
