
     RDKit          3D

 33 35  0  0  0  0  0  0  0  0999 V2000
    7.8999    0.8741   22.8413 O   0  0  0  0  0  0  0  0  0  0  0  0
    8.3580    0.3947   21.8152 C   0  0  0  0  0  0  0  0  0  0  0  0
    7.5209   -0.5916   20.9908 C   0  0  0  0  0  0  0  0  0  0  0  0
    6.7766    0.0826   19.8503 C   0  0  0  0  0  0  0  0  0  0  0  0
    5.5780    0.7411   20.1173 C   0  0  0  0  0  0  0  0  0  0  0  0
    4.9004    1.3239   19.0473 C   0  0  0  0  0  0  0  0  0  0  0  0
    5.4425    1.2509   17.7571 C   0  0  0  0  0  0  0  0  0  0  0  0
    6.6067    0.6281   17.4917 N   0  0  0  0  0  0  0  0  0  0  0  0
    7.2520    0.0521   18.5231 C   0  0  0  0  0  0  0  0  0  0  0  0
    8.1811   -0.4753   18.3293 H   0  0  0  0  0  0  0  0  0  0  0  0
    4.8961    1.7032   16.9357 H   0  0  0  0  0  0  0  0  0  0  0  0
    3.9546    1.8308   19.2083 H   0  0  0  0  0  0  0  0  0  0  0  0
    5.1836    0.7801   21.1325 H   0  0  0  0  0  0  0  0  0  0  0  0
    6.7995   -1.0771   21.6557 H   0  0  0  0  0  0  0  0  0  0  0  0
    8.1734   -1.3720   20.5925 H   0  0  0  0  0  0  0  0  0  0  0  0
    9.6123    0.7444   21.3747 N   0  0  0  0  0  0  0  0  0  0  0  0
   10.3254    1.7795   21.9360 C   0  0  0  0  0  0  0  0  0  0  0  0
    9.8001    2.4328   22.9703 N   0  0  0  0  0  0  0  0  0  0  0  0
   10.4794    3.4693   23.4889 C   0  0  0  0  0  0  0  0  0  0  0  0
    9.8877    4.2093   24.5175 C   0  0  0  0  0  0  0  0  0  0  0  0
   10.5657    5.2821   25.1242 C   0  0  0  0  0  0  0  0  0  0  0  0
   11.8569    5.6208   24.6937 C   0  0  0  0  0  0  0  0  0  0  0  0
   12.8138    7.0552   25.5253 Br  0  0  0  0  0  0  0  0  0  0  0  0
   12.4446    4.9232   23.6319 C   0  0  0  0  0  0  0  0  0  0  0  0
   11.7572    3.8600   23.0151 C   0  0  0  0  0  0  0  0  0  0  0  0
   12.2930    3.1966   21.9156 C   0  0  0  0  0  0  0  0  0  0  0  0
   11.5469    2.1458   21.3662 C   0  0  0  0  0  0  0  0  0  0  0  0
   11.9047    1.6253   20.4918 H   0  0  0  0  0  0  0  0  0  0  0  0
   13.2525    3.5238   21.5113 H   0  0  0  0  0  0  0  0  0  0  0  0
   13.4299    5.2358   23.2870 H   0  0  0  0  0  0  0  0  0  0  0  0
   10.0975    5.8537   25.9242 H   0  0  0  0  0  0  0  0  0  0  0  0
    8.8806    3.9312   24.8128 H   0  0  0  0  0  0  0  0  0  0  0  0
    9.9779    0.3024   20.5429 H   0  0  0  0  0  0  0  0  0  0  0  0
  1  2  2  0
  2  3  1  0
  3  4  1  0
  4  5  2  0
  5  6  1  0
  6  7  2  0
  7  8  1  0
  8  9  2  0
  9 10  1  0
  7 11  1  0
  6 12  1  0
  5 13  1  0
  3 14  1  0
  3 15  1  0
  2 16  1  0
 16 17  1  0
 17 18  2  0
 18 19  1  0
 19 20  2  0
 20 21  1  0
 21 22  2  0
 22 23  1  0
 22 24  1  0
 24 25  2  0
 25 26  1  0
 26 27  2  0
 27 28  1  0
 26 29  1  0
 24 30  1  0
 21 31  1  0
 20 32  1  0
 16 33  1  0
  9  4  1  0
 27 17  1  0
 25 19  1  0
M  END
>  <cnnaffinity>  (1) 
4.74296

>  <plip>  (1) 
-0.1724137931034483

>  <filename>  (1) 
[H][c]1[n][c]([H])[c]([C]([H])([H])[C](=[O])[N]([H])[c]2[n][c]3[c]([H])[c]([H])[c]([Br])[c]([H])[c]3[c]([H])[c]2[H])[c]([H])[c]1[H]

>  <combo1>  (1) 
-0.7965724556861481

$$$$
