
     RDKit          3D

 35 38  0  0  0  0  0  0  0  0999 V2000
    4.9195    1.7772   17.0017 H   0  0  0  0  0  0  0  0  0  0  0  0
    5.4048    1.2898   17.8479 C   0  0  0  0  0  0  0  0  0  0  0  0
    6.5635    0.6653   17.5867 N   0  0  0  0  0  0  0  0  0  0  0  0
    7.1784    0.0491   18.6033 C   0  0  0  0  0  0  0  0  0  0  0  0
    8.1262   -0.4257   18.3769 H   0  0  0  0  0  0  0  0  0  0  0  0
    6.6730   -0.0003   19.9137 C   0  0  0  0  0  0  0  0  0  0  0  0
    7.3781   -0.7035   20.9531 N   0  0  0  0  0  0  0  0  0  0  0  0
    6.5635   -1.5044   21.7441 N   0  0  0  0  0  0  0  0  0  0  0  0
    7.1149   -2.3284   22.5771 C   0  0  0  0  0  0  0  0  0  0  0  0
    6.2360   -3.1617   23.4222 C   0  0  0  0  0  0  0  0  0  0  0  0
    5.2451   -3.9372   22.9246 C   0  0  0  0  0  0  0  0  0  0  0  0
    4.9604   -4.0112   21.8845 H   0  0  0  0  0  0  0  0  0  0  0  0
    4.4267   -4.8821   24.1145 S   0  0  0  0  0  0  0  0  0  0  0  0
    5.4251   -4.2168   25.3793 C   0  0  0  0  0  0  0  0  0  0  0  0
    5.3556   -4.4878   26.7575 C   0  0  0  0  0  0  0  0  0  0  0  0
    4.6290   -5.1940   27.1524 H   0  0  0  0  0  0  0  0  0  0  0  0
    6.2271   -3.8237   27.6115 C   0  0  0  0  0  0  0  0  0  0  0  0
    6.1707   -4.0351   28.6774 H   0  0  0  0  0  0  0  0  0  0  0  0
    7.1643   -2.8846   27.1098 C   0  0  0  0  0  0  0  0  0  0  0  0
    7.8402   -2.3551   27.7766 H   0  0  0  0  0  0  0  0  0  0  0  0
    7.2316   -2.6207   25.7525 C   0  0  0  0  0  0  0  0  0  0  0  0
    7.9306   -1.8823   25.3624 H   0  0  0  0  0  0  0  0  0  0  0  0
    6.3641   -3.2957   24.8647 C   0  0  0  0  0  0  0  0  0  0  0  0
    8.6185   -2.5408   22.6082 C   0  0  0  0  0  0  0  0  0  0  0  0
    8.9487   -2.9998   23.5444 H   0  0  0  0  0  0  0  0  0  0  0  0
    8.8518   -3.2740   21.8228 H   0  0  0  0  0  0  0  0  0  0  0  0
    9.3516   -1.2281   22.3441 C   0  0  0  0  0  0  0  0  0  0  0  0
    9.3188   -0.5606   23.2148 H   0  0  0  0  0  0  0  0  0  0  0  0
   10.4059   -1.3928   22.1178 H   0  0  0  0  0  0  0  0  0  0  0  0
    8.7554   -0.4507   21.1829 C   0  0  0  0  0  0  0  0  0  0  0  0
    9.4005    0.3268   20.5066 O   0  0  0  0  0  0  0  0  0  0  0  0
    5.4524    0.6393   20.1746 C   0  0  0  0  0  0  0  0  0  0  0  0
    5.0208    0.6029   21.1761 H   0  0  0  0  0  0  0  0  0  0  0  0
    4.8181    1.3078   19.1199 C   0  0  0  0  0  0  0  0  0  0  0  0
    3.8828    1.8383   19.2663 H   0  0  0  0  0  0  0  0  0  0  0  0
  1  2  1  0
  2  3  2  0
  3  4  1  0
  4  5  1  0
  4  6  2  0
  6  7  1  0
  7  8  1  0
  8  9  2  0
  9 10  1  0
 10 11  2  0
 11 12  1  0
 11 13  1  0
 13 14  1  0
 14 15  2  0
 15 16  1  0
 15 17  1  0
 17 18  1  0
 17 19  2  0
 19 20  1  0
 19 21  1  0
 21 22  1  0
 21 23  2  0
  9 24  1  0
 24 25  1  0
 24 26  1  0
 24 27  1  0
 27 28  1  0
 27 29  1  0
 27 30  1  0
 30 31  2  0
  6 32  1  0
 32 33  1  0
 32 34  2  0
 34 35  1  0
 34  2  1  0
 30  7  1  0
 23 10  1  0
 23 14  1  0
M  END
>  <cnnaffinity>  (1) 
5.50915

>  <plip>  (1) 
-0.07142857142857142

>  <filename>  (1) 
[H][c]1[n][c]([H])[c]([N]2[N]=[C]([c]3[c]([H])[s][c]4[c]([H])[c]([H])[c]([H])[c]([H])[c]34)[C]([H])([H])[C]([H])([H])[C]2=[O])[c]([H])[c]1[H]

>  <combo1>  (1) 
-0.4267391878899532

$$$$
