
     RDKit          3D

 38 39  0  0  0  0  0  0  0  0999 V2000
    9.4802   -0.4450   19.9929 O   0  0  0  0  0  0  0  0  0  0  0  0
    8.6671   -0.6965   20.8609 C   0  0  0  0  0  0  0  0  0  0  0  0
    7.3133   -0.4469   20.7705 N   0  0  0  0  0  0  0  0  0  0  0  0
    6.5948    0.1376   19.6976 C   0  0  0  0  0  0  0  0  0  0  0  0
    5.3407    0.7078   19.9621 C   0  0  0  0  0  0  0  0  0  0  0  0
    4.6661    1.3641   18.9257 C   0  0  0  0  0  0  0  0  0  0  0  0
    5.2507    1.4098   17.6570 C   0  0  0  0  0  0  0  0  0  0  0  0
    6.4211    0.8167   17.3697 N   0  0  0  0  0  0  0  0  0  0  0  0
    7.0742    0.2044   18.3650 C   0  0  0  0  0  0  0  0  0  0  0  0
    8.0304   -0.2575   18.1331 H   0  0  0  0  0  0  0  0  0  0  0  0
    4.7748    1.9378   16.8343 H   0  0  0  0  0  0  0  0  0  0  0  0
    3.7124    1.8544   19.0923 H   0  0  0  0  0  0  0  0  0  0  0  0
    4.9244    0.6667   20.9667 H   0  0  0  0  0  0  0  0  0  0  0  0
    6.7819   -0.8775   21.5093 H   0  0  0  0  0  0  0  0  0  0  0  0
    8.9366   -1.3356   22.0647 N   0  0  0  0  0  0  0  0  0  0  0  0
   10.3435   -1.5743   22.4371 C   0  0  0  0  0  0  0  0  0  0  0  0
   10.4858   -2.8543   23.2727 C   0  0  0  0  0  0  0  0  0  0  0  0
   11.8307   -3.2703   23.1420 O   0  0  0  0  0  0  0  0  0  0  0  0
   12.0488   -3.8798   23.8565 H   0  0  0  0  0  0  0  0  0  0  0  0
    9.7954   -3.6020   22.8593 H   0  0  0  0  0  0  0  0  0  0  0  0
   10.2037   -2.6638   24.3176 H   0  0  0  0  0  0  0  0  0  0  0  0
   10.9592   -0.3471   23.1209 C   0  0  0  0  0  0  0  0  0  0  0  0
   12.0901    0.2957   22.5964 C   0  0  0  0  0  0  0  0  0  0  0  0
   12.5239    1.5302   23.0970 C   0  0  0  0  0  0  0  0  0  0  0  0
   11.8087    2.1351   24.1368 C   0  0  0  0  0  0  0  0  0  0  0  0
   10.7105    1.4905   24.7235 C   0  0  0  0  0  0  0  0  0  0  0  0
   10.3318    0.2373   24.2401 C   0  0  0  0  0  0  0  0  0  0  0  0
    9.3180   -0.5280   24.8022 O   0  0  0  0  0  0  0  0  0  0  0  0
    8.4708   -0.0955   25.7570 C   0  0  0  0  0  0  0  0  0  0  0  0
    7.8144    1.0231   25.4098 F   0  0  0  0  0  0  0  0  0  0  0  0
    9.0865    0.1463   26.9193 F   0  0  0  0  0  0  0  0  0  0  0  0
    7.5666   -1.0559   25.9534 F   0  0  0  0  0  0  0  0  0  0  0  0
   10.1617    1.9456   25.5420 H   0  0  0  0  0  0  0  0  0  0  0  0
   12.1006    3.1197   24.4914 H   0  0  0  0  0  0  0  0  0  0  0  0
   13.4019    2.0169   22.6738 H   0  0  0  0  0  0  0  0  0  0  0  0
   12.6125   -0.1682   21.7619 H   0  0  0  0  0  0  0  0  0  0  0  0
   10.9051   -1.7691   21.5153 H   0  0  0  0  0  0  0  0  0  0  0  0
    8.4086   -0.9109   22.8144 H   0  0  0  0  0  0  0  0  0  0  0  0
  1  2  2  0
  2  3  1  0
  3  4  1  0
  4  5  2  0
  5  6  1  0
  6  7  2  0
  7  8  1  0
  8  9  2  0
  9 10  1  0
  7 11  1  0
  6 12  1  0
  5 13  1  0
  3 14  1  0
  2 15  1  0
 15 16  1  0
 16 17  1  0
 17 18  1  0
 18 19  1  0
 17 20  1  0
 17 21  1  0
 16 22  1  0
 22 23  2  0
 23 24  1  0
 24 25  2  0
 25 26  1  0
 26 27  2  0
 27 28  1  0
 28 29  1  0
 29 30  1  0
 29 31  1  0
 29 32  1  0
 26 33  1  0
 25 34  1  0
 24 35  1  0
 23 36  1  0
 16 37  1  0
 15 38  1  0
  9  4  1  0
 27 22  1  0
M  END
>  <cnnaffinity>  (1) 
5.47616

>  <plip>  (1) 
-0.13333333333333333

>  <filename>  (1) 
[H][O][C]([H])([H])[C]([H])([c]1[c]([H])[c]([H])[c]([H])[c]([H])[c]1[O][C]([F])([F])[F])[N]([H])[C](=[O])[N]([H])[c]1[c]([H])[n][c]([H])[c]([H])[c]1[H]

>  <combo1>  (1) 
-0.7131342905540146

$$$$
