
     RDKit          3D

 34 35  0  0  0  0  0  0  0  0999 V2000
    5.0204   -3.8545   26.3988 H   0  0  0  0  0  0  0  0  0  0  0  0
    5.8235   -3.6037   26.9187 O   0  0  0  0  0  0  0  0  0  0  0  0
    6.6666   -4.0168   25.7176 P   0  0  0  0  0  0  0  0  0  0  0  0
    7.9107   -4.7168   26.0392 O   0  0  0  0  0  0  0  0  0  0  0  0
    5.2888   -4.5845   25.8624 O   0  0  0  0  0  0  0  0  0  0  0  0
    5.4390   -4.4635   26.8349 H   0  0  0  0  0  0  0  0  0  0  0  0
    6.8868   -3.1054   24.3049 C   0  0  0  0  0  0  0  0  0  0  0  0
    5.9266   -2.6947   24.0089 H   0  0  0  0  0  0  0  0  0  0  0  0
    7.7330   -3.5302   23.1415 N   0  0  0  0  0  0  0  0  0  0  0  0
    7.3189   -4.2749   22.5402 H   0  0  0  0  0  0  0  0  0  0  0  0
    7.8750   -2.2851   22.4680 N   0  0  0  0  0  0  0  0  0  0  0  0
    9.0553   -1.6163   22.2366 C   0  0  0  0  0  0  0  0  0  0  0  0
   10.1316   -1.8942   22.7608 O   0  0  0  0  0  0  0  0  0  0  0  0
    8.8012   -0.6179   21.1941 C   0  0  0  0  0  0  0  0  0  0  0  0
    9.5964    0.1262   20.6252 O   0  0  0  0  0  0  0  0  0  0  0  0
    7.4626   -0.6558   20.8706 N   0  0  0  0  0  0  0  0  0  0  0  0
    6.8059    0.0188   19.8112 C   0  0  0  0  0  0  0  0  0  0  0  0
    7.3890    0.2352   18.5341 C   0  0  0  0  0  0  0  0  0  0  0  0
    8.3894   -0.1533   18.3660 H   0  0  0  0  0  0  0  0  0  0  0  0
    6.7609    0.8684   17.5208 N   0  0  0  0  0  0  0  0  0  0  0  0
    5.5281    1.3520   17.7569 C   0  0  0  0  0  0  0  0  0  0  0  0
    5.0220    1.8930   16.9635 H   0  0  0  0  0  0  0  0  0  0  0  0
    4.8824    1.1937   18.9896 C   0  0  0  0  0  0  0  0  0  0  0  0
    3.8969    1.6254   19.1214 H   0  0  0  0  0  0  0  0  0  0  0  0
    5.5141    0.5008   20.0278 C   0  0  0  0  0  0  0  0  0  0  0  0
    5.0292    0.3590   20.9942 H   0  0  0  0  0  0  0  0  0  0  0  0
    6.9378   -1.6785   21.6429 C   0  0  0  0  0  0  0  0  0  0  0  0
    5.8215   -2.1317   21.4629 O   0  0  0  0  0  0  0  0  0  0  0  0
    7.5363   -2.1343   25.5786 P   0  0  0  0  0  0  0  0  0  0  0  0
    8.8864   -2.6042   25.8807 O   0  0  0  0  0  0  0  0  0  0  0  0
    7.2602   -0.6558   25.6682 O   0  0  0  0  0  0  0  0  0  0  0  0
    6.4648   -0.8547   26.2214 H   0  0  0  0  0  0  0  0  0  0  0  0
    6.6805   -1.6197   26.7219 O   0  0  0  0  0  0  0  0  0  0  0  0
    7.2322   -0.8026   26.6047 H   0  0  0  0  0  0  0  0  0  0  0  0
  1  2  1  0
  2  3  1  0
  3  4  2  0
  3  5  1  0
  5  6  1  0
  3  7  1  0
  7  8  1  0
  7  9  1  0
  9 10  1  0
  9 11  1  0
 11 12  1  0
 12 13  2  0
 12 14  1  0
 14 15  2  0
 14 16  1  0
 16 17  1  0
 17 18  2  0
 18 19  1  0
 18 20  1  0
 20 21  2  0
 21 22  1  0
 21 23  1  0
 23 24  1  0
 23 25  2  0
 25 26  1  0
 16 27  1  0
 27 28  2  0
  7 29  1  0
 29 30  2  0
 29 31  1  0
 31 32  1  0
 29 33  1  0
 33 34  1  0
 27 11  1  0
 25 17  1  0
M  END
>  <cnnaffinity>  (1) 
4.80548

>  <plip>  (1) 
-0.06896551724137931

>  <filename>  (1) 
[H][O][P](=[O])([O][H])[C]([H])([N]([H])[N]1[C](=[O])[C](=[O])[N]([c]2[c]([H])[n][c]([H])[c]([H])[c]2[H])[C]1=[O])[P](=[O])([O][H])[O][H]

>  <combo1>  (1) 
-0.29060099171818493

$$$$
