
     RDKit          3D

 32 34  0  0  0  0  0  0  0  0999 V2000
    8.1381   -1.6787   20.5909 O   0  0  0  0  0  0  0  0  0  0  0  0
    7.4293   -0.7435   20.9274 C   0  0  0  0  0  0  0  0  0  0  0  0
    7.3167   -0.3053   22.3334 C   0  0  0  0  0  0  0  0  0  0  0  0
    7.8447   -0.9955   23.3610 C   0  0  0  0  0  0  0  0  0  0  0  0
    7.7639   -0.6178   24.7803 C   0  0  0  0  0  0  0  0  0  0  0  0
    8.7445   -1.1526   25.6852 C   0  0  0  0  0  0  0  0  0  0  0  0
    8.7600   -0.8027   27.0102 C   0  0  0  0  0  0  0  0  0  0  0  0
    7.7731    0.1099   27.5176 C   0  0  0  0  0  0  0  0  0  0  0  0
    7.7243    0.5643   28.8718 C   0  0  0  0  0  0  0  0  0  0  0  0
    6.7901    1.3508   29.3639 N   0  0  0  0  0  0  0  0  0  0  0  0
    5.8238    1.8035   28.5173 C   0  0  0  0  0  0  0  0  0  0  0  0
    5.7805    1.4924   27.1844 C   0  0  0  0  0  0  0  0  0  0  0  0
    6.7673    0.6174   26.6378 C   0  0  0  0  0  0  0  0  0  0  0  0
    6.7937    0.2414   25.2697 C   0  0  0  0  0  0  0  0  0  0  0  0
    6.0326    0.6309   24.5993 H   0  0  0  0  0  0  0  0  0  0  0  0
    5.0110    1.9159   26.5537 H   0  0  0  0  0  0  0  0  0  0  0  0
    5.0858    2.4555   28.9841 H   0  0  0  0  0  0  0  0  0  0  0  0
    8.4940    0.2532   29.5817 H   0  0  0  0  0  0  0  0  0  0  0  0
    9.5169   -1.2075   27.6809 H   0  0  0  0  0  0  0  0  0  0  0  0
    9.5036   -1.8221   25.2845 H   0  0  0  0  0  0  0  0  0  0  0  0
    8.3972   -1.9115   23.1451 H   0  0  0  0  0  0  0  0  0  0  0  0
    6.8050    0.6419   22.4790 H   0  0  0  0  0  0  0  0  0  0  0  0
    6.6454    0.0225   19.9142 C   0  0  0  0  0  0  0  0  0  0  0  0
    5.4287    0.6735   20.1662 C   0  0  0  0  0  0  0  0  0  0  0  0
    4.7999    1.3168   19.1033 C   0  0  0  0  0  0  0  0  0  0  0  0
    5.4042    1.2915   17.8423 C   0  0  0  0  0  0  0  0  0  0  0  0
    6.5649    0.6685   17.5929 N   0  0  0  0  0  0  0  0  0  0  0  0
    7.1628    0.0504   18.6135 C   0  0  0  0  0  0  0  0  0  0  0  0
    8.1052   -0.4482   18.3911 H   0  0  0  0  0  0  0  0  0  0  0  0
    4.9462    1.7890   16.9891 H   0  0  0  0  0  0  0  0  0  0  0  0
    3.8659    1.8465   19.2350 H   0  0  0  0  0  0  0  0  0  0  0  0
    4.9671    0.6602   21.1563 H   0  0  0  0  0  0  0  0  0  0  0  0
  1  2  2  0
  2  3  1  0
  3  4  2  3
  4  5  1  0
  5  6  2  0
  6  7  1  0
  7  8  2  0
  8  9  1  0
  9 10  2  0
 10 11  1  0
 11 12  2  0
 12 13  1  0
 13 14  2  0
 14 15  1  0
 12 16  1  0
 11 17  1  0
  9 18  1  0
  7 19  1  0
  6 20  1  0
  4 21  1  0
  3 22  1  0
  2 23  1  0
 23 24  2  0
 24 25  1  0
 25 26  2  0
 26 27  1  0
 27 28  2  0
 28 29  1  0
 26 30  1  0
 25 31  1  0
 24 32  1  0
 14  5  1  0
 28 23  1  0
 13  8  1  0
M  END
>  <cnnaffinity>  (1) 
4.6471

>  <plip>  (1) 
-0.06666666666666667

>  <filename>  (1) 
[H][C]([C](=[O])[c]1[c]([H])[n][c]([H])[c]([H])[c]1[H])=[C]([H])[c]1[c]([H])[c]([H])[c]2[c]([H])[n][c]([H])[c]([H])[c]2[c]1[H]

>  <combo1>  (1) 
-0.396736365095464

$$$$
