
     RDKit          3D

 46 47  0  0  0  0  0  0  0  0999 V2000
    6.7643    2.4409   21.6029 N   0  0  0  0  0  4  0  0  0  0  0  0
    6.9720    1.1520   22.3552 C   0  0  0  0  0  0  0  0  0  0  0  0
    7.5488   -0.0096   21.5047 C   0  0  0  0  0  0  0  0  0  0  0  0
    6.4843   -0.8510   20.7499 C   0  0  0  0  0  0  0  0  0  0  0  0
    5.8563   -0.1231   19.5894 C   0  0  0  0  0  0  0  0  0  0  0  0
    4.7960    0.7748   19.7813 C   0  0  0  0  0  0  0  0  0  0  0  0
    4.4606    1.6506   18.7440 C   0  0  0  0  0  0  0  0  0  0  0  0
    5.1427    1.5424   17.5294 C   0  0  0  0  0  0  0  0  0  0  0  0
    6.0800    0.6155   17.2849 N   0  0  0  0  0  0  0  0  0  0  0  0
    6.3985   -0.2057   18.2922 C   0  0  0  0  0  0  0  0  0  0  0  0
    7.1465   -0.9672   18.0632 H   0  0  0  0  0  0  0  0  0  0  0  0
    4.9180    2.2210   16.7111 H   0  0  0  0  0  0  0  0  0  0  0  0
    3.7055    2.4203   18.8647 H   0  0  0  0  0  0  0  0  0  0  0  0
    4.2516    0.7970   20.7267 H   0  0  0  0  0  0  0  0  0  0  0  0
    6.9640   -1.7742   20.3930 H   0  0  0  0  0  0  0  0  0  0  0  0
    5.7094   -1.1706   21.4606 H   0  0  0  0  0  0  0  0  0  0  0  0
    8.7318    0.3834   20.5901 C   0  0  0  0  0  0  0  0  0  0  0  0
    9.9319    0.6934   21.4234 N   0  0  0  0  0  4  0  0  0  0  0  0
   10.9586   -0.4169   21.4682 C   0  0  0  0  0  0  0  0  0  0  0  0
   11.7469   -0.2798   22.7713 C   0  0  0  0  0  0  0  0  0  0  0  0
   12.0584    1.1939   23.1674 C   0  0  0  0  0  0  0  0  0  0  0  0
   13.4321    1.2665   23.8272 C   0  0  0  0  0  0  0  0  0  0  0  0
   13.3038    0.5859   25.0634 O   0  0  0  0  0  0  0  0  0  0  0  0
   14.1372    0.6053   25.5470 H   0  0  0  0  0  0  0  0  0  0  0  0
   14.1734    0.7799   23.1609 H   0  0  0  0  0  0  0  0  0  0  0  0
   13.7387    2.3195   23.9555 H   0  0  0  0  0  0  0  0  0  0  0  0
   11.9345    2.1429   21.9648 C   0  0  0  0  0  0  0  0  0  0  0  0
   10.6233    2.0137   21.1686 C   0  0  0  0  0  0  0  0  0  0  0  0
    9.9360    2.8292   21.4117 H   0  0  0  0  0  0  0  0  0  0  0  0
   10.8445    2.1081   20.1024 H   0  0  0  0  0  0  0  0  0  0  0  0
   12.0661    3.1861   22.2731 H   0  0  0  0  0  0  0  0  0  0  0  0
   12.7539    1.9158   21.2826 H   0  0  0  0  0  0  0  0  0  0  0  0
   11.3370    1.5126   23.9344 H   0  0  0  0  0  0  0  0  0  0  0  0
   12.6727   -0.8600   22.6682 H   0  0  0  0  0  0  0  0  0  0  0  0
   11.1822   -0.7312   23.5940 H   0  0  0  0  0  0  0  0  0  0  0  0
   10.4606   -1.3911   21.4128 H   0  0  0  0  0  0  0  0  0  0  0  0
   11.6282   -0.3287   20.6020 H   0  0  0  0  0  0  0  0  0  0  0  0
    9.5905    0.7544   22.3999 H   0  0  0  0  0  0  0  0  0  0  0  0
    8.4930    1.2112   19.9089 H   0  0  0  0  0  0  0  0  0  0  0  0
    8.9711   -0.4649   19.9290 H   0  0  0  0  0  0  0  0  0  0  0  0
    7.9872   -0.6861   22.2548 H   0  0  0  0  0  0  0  0  0  0  0  0
    7.6443    1.3569   23.1974 H   0  0  0  0  0  0  0  0  0  0  0  0
    6.0204    0.8315   22.7991 H   0  0  0  0  0  0  0  0  0  0  0  0
    6.2454    3.1513   22.1561 H   0  0  0  0  0  0  0  0  0  0  0  0
    6.2303    2.2649   20.7247 H   0  0  0  0  0  0  0  0  0  0  0  0
    7.6813    2.8497   21.3413 H   0  0  0  0  0  0  0  0  0  0  0  0
  1  2  1  0
  2  3  1  0
  3  4  1  0
  4  5  1  0
  5  6  2  0
  6  7  1  0
  7  8  2  0
  8  9  1  0
  9 10  2  0
 10 11  1  0
  8 12  1  0
  7 13  1  0
  6 14  1  0
  4 15  1  0
  4 16  1  0
  3 17  1  0
 17 18  1  0
 18 19  1  0
 19 20  1  0
 20 21  1  0
 21 22  1  0
 22 23  1  0
 23 24  1  0
 22 25  1  0
 22 26  1  0
 21 27  1  0
 27 28  1  0
 28 29  1  0
 28 30  1  0
 27 31  1  0
 27 32  1  0
 21 33  1  0
 20 34  1  0
 20 35  1  0
 19 36  1  0
 19 37  1  0
 18 38  1  0
 17 39  1  0
 17 40  1  0
  3 41  1  0
  2 42  1  0
  2 43  1  0
  1 44  1  0
  1 45  1  0
  1 46  1  0
 10  5  1  0
 28 18  1  0
M  CHG  2   1   1  18   1
M  END
>  <cnnaffinity>  (1) 
4.70884

>  <plip>  (1) 
-0.1724137931034483

>  <filename>  (1) 
[H][O][C]([H])([H])[C]1([H])[C]([H])([H])[C]([H])([H])[N+]([H])([C]([H])([H])[C]([H])([C]([H])([H])[c]2[c]([H])[n][c]([H])[c]([H])[c]2[H])[C]([H])([H])[N+]([H])([H])[H])[C]([H])([H])[C]1([H])[H]

>  <combo1>  (1) 
-1.0196758433681385

$$$$
