
     RDKit          3D

 41 44  0  0  0  0  0  0  0  0999 V2000
    7.7622    6.6949   24.8922 O   0  0  0  0  0  0  0  0  0  0  0  0
    7.5667    6.6898   23.7016 C   0  0  0  0  0  0  0  0  0  0  0  0
    7.1906    7.7902   22.9950 O   0  0  0  0  0  0  0  0  0  0  0  0
    7.0906    7.4882   21.6013 C   0  0  0  0  0  0  0  0  0  0  0  0
    7.3426    5.9742   21.4724 C   0  0  0  0  0  0  0  0  0  0  0  0
    7.6793    5.6273   22.8389 N   0  0  0  0  0  0  0  0  0  0  0  0
    7.8258    4.2665   23.3127 C   0  0  0  0  0  0  0  0  0  0  0  0
    9.2324    3.9800   23.8567 C   0  0  0  0  0  0  0  0  0  0  0  0
    9.3922    2.5173   24.3369 C   0  0  0  0  0  0  0  0  0  0  0  0
    9.1290    1.5127   23.2617 C   0  0  0  0  0  0  0  0  0  0  0  0
    8.0099    0.9021   23.0030 N   0  0  0  0  0  0  0  0  0  0  0  0
    8.3178    0.2112   21.8486 C   0  0  0  0  0  0  0  0  0  0  0  0
    7.3036   -0.6218   21.1117 C   0  0  0  0  0  0  0  0  0  0  0  0
    6.5941    0.0613   19.9589 C   0  0  0  0  0  0  0  0  0  0  0  0
    5.3870    0.7496   20.1373 C   0  0  0  0  0  0  0  0  0  0  0  0
    4.7942    1.3812   19.0407 C   0  0  0  0  0  0  0  0  0  0  0  0
    5.4345    1.3099   17.7984 C   0  0  0  0  0  0  0  0  0  0  0  0
    6.5906    0.6565   17.6005 N   0  0  0  0  0  0  0  0  0  0  0  0
    7.1436    0.0554   18.6635 C   0  0  0  0  0  0  0  0  0  0  0  0
    8.0840   -0.4671   18.4845 H   0  0  0  0  0  0  0  0  0  0  0  0
    5.0017    1.7926   16.9233 H   0  0  0  0  0  0  0  0  0  0  0  0
    3.8573    1.9227   19.1317 H   0  0  0  0  0  0  0  0  0  0  0  0
    4.9325    0.7766   21.1285 H   0  0  0  0  0  0  0  0  0  0  0  0
    7.4991   -2.1243   20.9724 C   0  0  0  0  0  0  0  0  0  0  0  0
    6.5407   -1.5895   21.9873 C   0  0  0  0  0  0  0  0  0  0  0  0
    6.8391   -1.6312   23.0348 H   0  0  0  0  0  0  0  0  0  0  0  0
    5.4813   -1.7300   21.7920 H   0  0  0  0  0  0  0  0  0  0  0  0
    8.4429   -2.5721   21.2774 H   0  0  0  0  0  0  0  0  0  0  0  0
    7.0245   -2.5721   20.1003 H   0  0  0  0  0  0  0  0  0  0  0  0
    9.5472    0.3685   21.4362 N   0  0  0  0  0  0  0  0  0  0  0  0
   10.0920    1.2280   22.3815 O   0  0  0  0  0  0  0  0  0  0  0  0
    8.6800    2.3151   25.1454 H   0  0  0  0  0  0  0  0  0  0  0  0
   10.3962    2.3493   24.7360 H   0  0  0  0  0  0  0  0  0  0  0  0
    9.4174    4.6659   24.6927 H   0  0  0  0  0  0  0  0  0  0  0  0
    9.9681    4.2137   23.0775 H   0  0  0  0  0  0  0  0  0  0  0  0
    7.0859    4.0628   24.1013 H   0  0  0  0  0  0  0  0  0  0  0  0
    7.5933    3.5846   22.4800 H   0  0  0  0  0  0  0  0  0  0  0  0
    8.1657    5.7360   20.7820 H   0  0  0  0  0  0  0  0  0  0  0  0
    6.4404    5.4458   21.1221 H   0  0  0  0  0  0  0  0  0  0  0  0
    6.0947    7.7748   21.2526 H   0  0  0  0  0  0  0  0  0  0  0  0
    7.8386    8.0893   21.0813 H   0  0  0  0  0  0  0  0  0  0  0  0
  1  2  2  0
  2  3  1  0
  3  4  1  0
  4  5  1  0
  5  6  1  0
  6  7  1  0
  7  8  1  0
  8  9  1  0
  9 10  1  0
 10 11  2  0
 11 12  1  0
 12 13  1  0
 13 14  1  0
 14 15  2  0
 15 16  1  0
 16 17  2  0
 17 18  1  0
 18 19  2  0
 19 20  1  0
 17 21  1  0
 16 22  1  0
 15 23  1  0
 13 24  1  0
 24 25  1  0
 25 26  1  0
 25 27  1  0
 24 28  1  0
 24 29  1  0
 12 30  2  0
 30 31  1  0
  9 32  1  0
  9 33  1  0
  8 34  1  0
  8 35  1  0
  7 36  1  0
  7 37  1  0
  5 38  1  0
  5 39  1  0
  4 40  1  0
  4 41  1  0
  6  2  1  0
 31 10  1  0
 25 13  1  0
 19 14  1  0
M  END
>  <cnnaffinity>  (1) 
5.05404

>  <plip>  (1) 
-0.10714285714285714

>  <filename>  (1) 
[H][c]1[n][c]([H])[c]([C]2([c]3[n][o][c]([C]([H])([H])[C]([H])([H])[C]([H])([H])[N]4[C](=[O])[O][C]([H])([H])[C]4([H])[H])[n]3)[C]([H])([H])[C]2([H])[H])[c]([H])[c]1[H]

>  <combo1>  (1) 
-0.5742144095545616

$$$$
