
     RDKit          3D

 34 36  0  0  0  0  0  0  0  0999 V2000
    4.9067    1.8572   16.9596 H   0  0  0  0  0  0  0  0  0  0  0  0
    5.3895    1.3347   17.7826 C   0  0  0  0  0  0  0  0  0  0  0  0
    6.5531    0.7275   17.5012 N   0  0  0  0  0  0  0  0  0  0  0  0
    7.1736    0.0891   18.5031 C   0  0  0  0  0  0  0  0  0  0  0  0
    8.1295   -0.3736   18.2564 H   0  0  0  0  0  0  0  0  0  0  0  0
    6.6753   -0.0244   19.8306 C   0  0  0  0  0  0  0  0  0  0  0  0
    7.3725   -0.7257   20.8416 N   0  0  0  0  0  0  0  0  0  0  0  0
    6.6920   -1.7406   21.6313 C   0  0  0  0  0  0  0  0  0  0  0  0
    5.8920   -1.3069   22.2341 H   0  0  0  0  0  0  0  0  0  0  0  0
    7.3935   -2.1993   22.3397 H   0  0  0  0  0  0  0  0  0  0  0  0
    6.2529   -2.5372   21.0132 H   0  0  0  0  0  0  0  0  0  0  0  0
    8.7828   -0.4093   21.1383 C   0  0  1  0  0  0  0  0  0  0  0  0
    9.0566    0.4222   20.4787 H   0  0  0  0  0  0  0  0  0  0  0  0
    8.9729    0.0931   22.5811 C   0  0  0  0  0  0  0  0  0  0  0  0
    9.3036   -0.6474   23.5878 N   0  0  0  0  0  0  0  0  0  0  0  0
    9.1411    0.0245   24.7868 C   0  0  0  0  0  0  0  0  0  0  0  0
    9.2908   -0.5665   26.0566 C   0  0  0  0  0  0  0  0  0  0  0  0
    9.6773   -1.5852   26.1072 H   0  0  0  0  0  0  0  0  0  0  0  0
    8.9094    0.1599   27.1741 C   0  0  0  0  0  0  0  0  0  0  0  0
    8.9903   -0.2703   28.1736 H   0  0  0  0  0  0  0  0  0  0  0  0
    8.4368    1.4896   27.0409 C   0  0  0  0  0  0  0  0  0  0  0  0
    8.1387    2.0182   27.9430 H   0  0  0  0  0  0  0  0  0  0  0  0
    8.3594    2.1121   25.7977 C   0  0  0  0  0  0  0  0  0  0  0  0
    8.0470    3.1489   25.6904 H   0  0  0  0  0  0  0  0  0  0  0  0
    8.7020    1.3596   24.6624 C   0  0  0  0  0  0  0  0  0  0  0  0
    8.5899    1.7637   22.9714 S   0  0  0  0  0  0  0  0  0  0  0  0
    9.6913   -1.6005   20.8351 C   0  0  0  0  0  0  0  0  0  0  0  0
    9.4695   -1.9462   19.8266 H   0  0  0  0  0  0  0  0  0  0  0  0
    9.5093   -2.4295   21.5237 H   0  0  0  0  0  0  0  0  0  0  0  0
   10.7443   -1.3052   20.9022 H   0  0  0  0  0  0  0  0  0  0  0  0
    5.4477    0.6127   20.0897 C   0  0  0  0  0  0  0  0  0  0  0  0
    5.0482    0.6032   21.1042 H   0  0  0  0  0  0  0  0  0  0  0  0
    4.8094    1.3025   19.0538 C   0  0  0  0  0  0  0  0  0  0  0  0
    3.8776    1.8251   19.2263 H   0  0  0  0  0  0  0  0  0  0  0  0
  1  2  1  0
  2  3  2  0
  3  4  1  0
  4  5  1  0
  4  6  2  0
  6  7  1  0
  7  8  1  0
  8  9  1  0
  8 10  1  0
  8 11  1  0
  7 12  1  0
 12 13  1  6
 12 14  1  0
 14 15  2  0
 15 16  1  0
 16 17  2  0
 17 18  1  0
 17 19  1  0
 19 20  1  0
 19 21  2  0
 21 22  1  0
 21 23  1  0
 23 24  1  0
 23 25  2  0
 25 26  1  0
 12 27  1  0
 27 28  1  0
 27 29  1  0
 27 30  1  0
  6 31  1  0
 31 32  1  0
 31 33  2  0
 33 34  1  0
 33  2  1  0
 26 14  1  0
 25 16  1  0
M  END
>  <cnnaffinity>  (1) 
4.91217

>  <plip>  (1) 
-0.06896551724137931

>  <filename>  (1) 
[H][c]1[n][c]([H])[c]([N]([C]([H])([H])[H])[C@@]([H])([c]2[n][c]3[c]([H])[c]([H])[c]([H])[c]([H])[c]3[s]2)[C]([H])([H])[H])[c]([H])[c]1[H]

>  <combo1>  (1) 
-0.41920848888293194

$$$$
