
     RDKit          3D

 46 49  0  0  0  0  0  0  0  0999 V2000
    6.1661   -6.8997   29.1606 F   0  0  0  0  0  0  0  0  0  0  0  0
    6.1171   -6.1826   28.0258 C   0  0  0  0  0  0  0  0  0  0  0  0
    7.2661   -6.0839   27.2401 C   0  0  0  0  0  0  0  0  0  0  0  0
    7.2216   -5.3398   26.0531 C   0  0  0  0  0  0  0  0  0  0  0  0
    6.0272   -4.7093   25.6890 C   0  0  0  0  0  0  0  0  0  0  0  0
    5.8774   -3.8918   24.5897 O   0  0  0  0  0  0  0  0  0  0  0  0
    6.5234   -4.0866   23.4358 C   0  0  0  0  0  0  0  0  0  0  0  0
    6.8491   -5.3628   22.9775 C   0  0  0  0  0  0  0  0  0  0  0  0
    7.4742   -5.3936   21.7498 C   0  0  0  0  0  0  0  0  0  0  0  0
    7.7315   -4.3059   21.0402 N   0  0  0  0  0  0  0  0  0  0  0  0
    7.3384   -3.1645   21.6100 C   0  0  0  0  0  0  0  0  0  0  0  0
    7.6029   -2.0952   20.8745 N   0  0  0  0  0  0  0  0  0  0  0  0
    7.2772   -0.7293   21.1951 C   0  0  0  0  0  0  0  0  0  0  0  0
    6.5833   -0.0995   20.0136 C   0  0  0  0  0  0  0  0  0  0  0  0
    5.3792    0.5970   20.1752 C   0  0  0  0  0  0  0  0  0  0  0  0
    4.8277    1.2687   19.0830 C   0  0  0  0  0  0  0  0  0  0  0  0
    5.4949    1.2071   17.8552 C   0  0  0  0  0  0  0  0  0  0  0  0
    6.6186    0.4996   17.6635 N   0  0  0  0  0  0  0  0  0  0  0  0
    7.1353   -0.1397   18.7238 C   0  0  0  0  0  0  0  0  0  0  0  0
    8.0603   -0.6815   18.5205 H   0  0  0  0  0  0  0  0  0  0  0  0
    5.1002    1.7433   16.9936 H   0  0  0  0  0  0  0  0  0  0  0  0
    3.9133    1.8466   19.1809 H   0  0  0  0  0  0  0  0  0  0  0  0
    4.8847    0.6035   21.1495 H   0  0  0  0  0  0  0  0  0  0  0  0
    8.5296    0.0535   21.6446 C   0  0  0  0  0  0  0  0  0  0  0  0
    9.7125    0.0731   20.6692 C   0  0  0  0  0  0  0  0  0  0  0  0
   10.9004    0.4267   21.5675 C   0  0  0  0  0  0  0  0  0  0  0  0
   10.4983    0.1407   22.9008 O   0  0  0  0  0  0  0  0  0  0  0  0
    9.2172   -0.4664   22.9109 C   0  0  0  0  0  0  0  0  0  0  0  0
    9.3212   -1.5631   22.9242 H   0  0  0  0  0  0  0  0  0  0  0  0
    8.7084   -0.1635   23.8327 H   0  0  0  0  0  0  0  0  0  0  0  0
   11.7950   -0.1579   21.3143 H   0  0  0  0  0  0  0  0  0  0  0  0
   11.1623    1.4904   21.5057 H   0  0  0  0  0  0  0  0  0  0  0  0
    9.8630   -0.9258   20.2378 H   0  0  0  0  0  0  0  0  0  0  0  0
    9.5724    0.7805   19.8507 H   0  0  0  0  0  0  0  0  0  0  0  0
    8.2262    1.0898   21.8489 H   0  0  0  0  0  0  0  0  0  0  0  0
    6.5776   -0.7257   22.0410 H   0  0  0  0  0  0  0  0  0  0  0  0
    7.8682   -2.4005   19.9632 H   0  0  0  0  0  0  0  0  0  0  0  0
    6.7426   -2.9818   22.7737 N   0  0  0  0  0  0  0  0  0  0  0  0
    7.7890   -6.3371   21.3064 H   0  0  0  0  0  0  0  0  0  0  0  0
    6.6261   -6.2434   23.5487 H   0  0  0  0  0  0  0  0  0  0  0  0
    4.8861   -4.8107   26.4868 C   0  0  0  0  0  0  0  0  0  0  0  0
    4.9220   -5.5575   27.6643 C   0  0  0  0  0  0  0  0  0  0  0  0
    4.0473   -5.6542   28.3017 H   0  0  0  0  0  0  0  0  0  0  0  0
    3.9971   -4.2865   26.1476 H   0  0  0  0  0  0  0  0  0  0  0  0
    8.1018   -5.2583   25.4221 H   0  0  0  0  0  0  0  0  0  0  0  0
    8.1707   -6.5941   27.5532 H   0  0  0  0  0  0  0  0  0  0  0  0
  1  2  1  0
  2  3  2  0
  3  4  1  0
  4  5  2  0
  5  6  1  0
  6  7  1  0
  7  8  2  0
  8  9  1  0
  9 10  2  0
 10 11  1  0
 11 12  1  0
 12 13  1  0
 13 14  1  0
 14 15  2  0
 15 16  1  0
 16 17  2  0
 17 18  1  0
 18 19  2  0
 19 20  1  0
 17 21  1  0
 16 22  1  0
 15 23  1  0
 13 24  1  0
 24 25  1  0
 25 26  1  0
 26 27  1  0
 27 28  1  0
 28 29  1  0
 28 30  1  0
 26 31  1  0
 26 32  1  0
 25 33  1  0
 25 34  1  0
 24 35  1  0
 13 36  1  0
 12 37  1  0
 11 38  2  0
  9 39  1  0
  8 40  1  0
  5 41  1  0
 41 42  2  0
 42 43  1  0
 41 44  1  0
  4 45  1  0
  3 46  1  0
 42  2  1  0
 38  7  1  0
 19 14  1  0
 28 24  1  0
M  END
>  <cnnaffinity>  (1) 
5.80615

>  <plip>  (1) 
-0.06451612903225806

>  <filename>  (1) 
[H][c]1[n][c]([N]([H])[C]([H])([c]2[c]([H])[n][c]([H])[c]([H])[c]2[H])[C]2([H])[C]([H])([H])[O][C]([H])([H])[C]2([H])[H])[n][c]([O][c]2[c]([H])[c]([H])[c]([F])[c]([H])[c]2[H])[c]1[H]

>  <combo1>  (1) 
-0.3407882205597635

$$$$
