
     RDKit          3D

 40 41  0  0  0  0  0  0  0  0999 V2000
   13.9658   -0.2762   22.5658 C   0  0  0  0  0  0  0  0  0  0  0  0
   12.4255   -0.7727   21.7560 S   0  0  0  0  0  0  0  0  0  0  0  0
   11.4707    0.7756   21.8570 C   0  0  0  0  0  0  0  0  0  0  0  0
   10.3681    0.7382   22.9229 C   0  0  0  0  0  0  0  0  0  0  0  0
    9.2811   -0.3068   22.6697 C   0  0  0  0  0  0  0  0  0  0  0  0
    8.4911    0.0806   21.4789 N   0  0  0  0  0  4  0  0  0  0  0  0
    7.1975   -0.6233   21.1872 C   0  0  0  0  0  0  0  0  0  0  0  0
    6.5941    0.1397   20.0254 C   0  0  0  0  0  0  0  0  0  0  0  0
    5.3735    0.8210   20.1424 C   0  0  0  0  0  0  0  0  0  0  0  0
    4.8155    1.4341   19.0178 C   0  0  0  0  0  0  0  0  0  0  0  0
    5.5116    1.3716   17.8080 C   0  0  0  0  0  0  0  0  0  0  0  0
    6.6892    0.7474   17.6746 N   0  0  0  0  0  0  0  0  0  0  0  0
    7.2135    0.1577   18.7605 C   0  0  0  0  0  0  0  0  0  0  0  0
    8.1653   -0.3409   18.5776 H   0  0  0  0  0  0  0  0  0  0  0  0
    5.1036    1.8465   16.9136 H   0  0  0  0  0  0  0  0  0  0  0  0
    3.8688    1.9656   19.0667 H   0  0  0  0  0  0  0  0  0  0  0  0
    4.8781    0.8803   21.1147 H   0  0  0  0  0  0  0  0  0  0  0  0
    7.4460   -2.1030   20.8740 C   0  0  0  0  0  0  0  0  0  0  0  0
    6.2232   -2.9201   20.3753 C   0  0  0  0  0  0  0  0  0  0  0  0
    6.4282   -3.9601   21.4996 C   0  0  0  0  0  0  0  0  0  0  0  0
    7.6180   -3.1253   22.0357 C   0  0  0  0  0  0  0  0  0  0  0  0
    7.5174   -2.7210   23.0522 H   0  0  0  0  0  0  0  0  0  0  0  0
    8.5722   -3.6610   21.9884 H   0  0  0  0  0  0  0  0  0  0  0  0
    5.5828   -4.0655   22.1901 H   0  0  0  0  0  0  0  0  0  0  0  0
    6.6933   -4.9637   21.1460 H   0  0  0  0  0  0  0  0  0  0  0  0
    6.2599   -3.2834   19.3454 H   0  0  0  0  0  0  0  0  0  0  0  0
    5.2903   -2.3653   20.4710 H   0  0  0  0  0  0  0  0  0  0  0  0
    8.3357   -2.1128   20.2247 H   0  0  0  0  0  0  0  0  0  0  0  0
    6.5202   -0.5442   22.0547 H   0  0  0  0  0  0  0  0  0  0  0  0
    8.2660    1.1015   21.5133 H   0  0  0  0  0  0  0  0  0  0  0  0
    9.0783   -0.0738   20.6282 H   0  0  0  0  0  0  0  0  0  0  0  0
    9.7559   -1.2897   22.5425 H   0  0  0  0  0  0  0  0  0  0  0  0
    8.6347   -0.3916   23.5536 H   0  0  0  0  0  0  0  0  0  0  0  0
    9.8979    1.7283   23.0012 H   0  0  0  0  0  0  0  0  0  0  0  0
   10.8329    0.5384   23.8958 H   0  0  0  0  0  0  0  0  0  0  0  0
   12.1788    1.5862   22.0567 H   0  0  0  0  0  0  0  0  0  0  0  0
   11.0529    0.9881   20.8661 H   0  0  0  0  0  0  0  0  0  0  0  0
   13.8352   -0.1185   23.6404 H   0  0  0  0  0  0  0  0  0  0  0  0
   14.3788    0.6372   22.1274 H   0  0  0  0  0  0  0  0  0  0  0  0
   14.6720   -1.0909   22.3884 H   0  0  0  0  0  0  0  0  0  0  0  0
  1  2  1  0
  2  3  1  0
  3  4  1  0
  4  5  1  0
  5  6  1  0
  6  7  1  0
  7  8  1  0
  8  9  2  0
  9 10  1  0
 10 11  2  0
 11 12  1  0
 12 13  2  0
 13 14  1  0
 11 15  1  0
 10 16  1  0
  9 17  1  0
  7 18  1  0
 18 19  1  0
 19 20  1  0
 20 21  1  0
 21 22  1  0
 21 23  1  0
 20 24  1  0
 20 25  1  0
 19 26  1  0
 19 27  1  0
 18 28  1  0
  7 29  1  0
  6 30  1  0
  6 31  1  0
  5 32  1  0
  5 33  1  0
  4 34  1  0
  4 35  1  0
  3 36  1  0
  3 37  1  0
  1 38  1  0
  1 39  1  0
  1 40  1  0
 13  8  1  0
 21 18  1  0
M  CHG  1   6   1
M  END
>  <cnnaffinity>  (1) 
4.24559

>  <plip>  (1) 
-0.07142857142857142

>  <filename>  (1) 
[H][c]1[n][c]([H])[c]([C]([H])([C]2([H])[C]([H])([H])[C]([H])([H])[C]2([H])[H])[N+]([H])([H])[C]([H])([H])[C]([H])([H])[C]([H])([H])[S][C]([H])([H])[H])[c]([H])[c]1[H]

>  <combo1>  (1) 
-0.40205981326183027

$$$$
