
     RDKit          3D

 40 44  0  0  0  0  0  0  0  0999 V2000
    4.9630    1.7968   16.9921 H   0  0  0  0  0  0  0  0  0  0  0  0
    5.4228    1.2863   17.8375 C   0  0  0  0  0  0  0  0  0  0  0  0
    6.5814    0.6587   17.5880 N   0  0  0  0  0  0  0  0  0  0  0  0
    7.1766    0.0441   18.6107 C   0  0  0  0  0  0  0  0  0  0  0  0
    8.1198   -0.4615   18.4052 H   0  0  0  0  0  0  0  0  0  0  0  0
    6.6550    0.0157   19.9102 C   0  0  0  0  0  0  0  0  0  0  0  0
    7.4325   -0.6937   20.9154 C   0  0  0  0  0  0  0  0  0  0  0  0
    8.5922   -1.2562   20.7838 N   0  0  0  0  0  0  0  0  0  0  0  0
    8.8976   -1.8069   22.0204 N   0  0  0  0  0  0  0  0  0  0  0  0
    7.9052   -1.5388   22.7999 C   0  0  0  0  0  0  0  0  0  0  0  0
    7.7550   -1.8763   24.2389 C   0  0  0  0  0  0  0  0  0  0  0  0
    8.3319   -0.8932   25.2216 C   0  0  1  0  0  0  0  0  0  0  0  0
    7.9061   -0.9931   26.2207 H   0  0  0  0  0  0  0  0  0  0  0  0
    9.7737   -0.4816   25.1596 C   0  0  0  0  0  0  0  0  0  0  0  0
   10.3502   -0.8574   24.3155 H   0  0  0  0  0  0  0  0  0  0  0  0
   10.3081   -0.3466   26.1000 H   0  0  0  0  0  0  0  0  0  0  0  0
    8.6894    0.5132   24.8382 C   0  0  2  0  0  0  0  0  0  0  0  0
    8.6178    0.7625   23.7809 H   0  0  0  0  0  0  0  0  0  0  0  0
    8.3414    1.6257   25.7779 C   0  0  0  0  0  0  0  0  0  0  0  0
    8.1528    2.9289   25.2983 C   0  0  0  0  0  0  0  0  0  0  0  0
    8.1746    3.1148   24.2251 H   0  0  0  0  0  0  0  0  0  0  0  0
    7.8502    3.9818   26.1657 C   0  0  0  0  0  0  0  0  0  0  0  0
    7.7202    4.9913   25.7743 H   0  0  0  0  0  0  0  0  0  0  0  0
    7.6978    3.7352   27.5315 C   0  0  0  0  0  0  0  0  0  0  0  0
    7.4616    4.5393   28.2219 H   0  0  0  0  0  0  0  0  0  0  0  0
    7.8677    2.4371   28.0243 C   0  0  0  0  0  0  0  0  0  0  0  0
    7.7592    2.2436   29.0874 H   0  0  0  0  0  0  0  0  0  0  0  0
    8.2145    1.3992   27.1616 C   0  0  0  0  0  0  0  0  0  0  0  0
    8.4147    0.4183   27.5902 H   0  0  0  0  0  0  0  0  0  0  0  0
    6.5472   -2.6609   24.6837 C   0  0  0  0  0  0  0  0  0  0  0  0
    6.1534   -2.4160   25.6670 H   0  0  0  0  0  0  0  0  0  0  0  0
    5.7981   -2.9320   23.9432 H   0  0  0  0  0  0  0  0  0  0  0  0
    7.8813   -3.3358   24.6264 C   0  0  0  0  0  0  0  0  0  0  0  0
    8.0620   -4.0485   23.8240 H   0  0  0  0  0  0  0  0  0  0  0  0
    8.3917   -3.5508   25.5636 H   0  0  0  0  0  0  0  0  0  0  0  0
    6.9329   -0.8333   22.1627 O   0  0  0  0  0  0  0  0  0  0  0  0
    5.4326    0.6589   20.1638 C   0  0  0  0  0  0  0  0  0  0  0  0
    4.9845    0.6614   21.1586 H   0  0  0  0  0  0  0  0  0  0  0  0
    4.8119    1.3058   19.0971 C   0  0  0  0  0  0  0  0  0  0  0  0
    3.8777    1.8373   19.2276 H   0  0  0  0  0  0  0  0  0  0  0  0
  1  2  1  0
  2  3  2  0
  3  4  1  0
  4  5  1  0
  4  6  2  0
  6  7  1  0
  7  8  2  0
  8  9  1  0
  9 10  2  0
 10 11  1  0
 11 12  1  0
 12 13  1  1
 12 14  1  0
 14 15  1  0
 14 16  1  0
 14 17  1  0
 17 18  1  6
 17 19  1  0
 19 20  2  0
 20 21  1  0
 20 22  1  0
 22 23  1  0
 22 24  2  0
 24 25  1  0
 24 26  1  0
 26 27  1  0
 26 28  2  0
 28 29  1  0
 11 30  1  0
 30 31  1  0
 30 32  1  0
 30 33  1  0
 33 34  1  0
 33 35  1  0
 10 36  1  0
  6 37  1  0
 37 38  1  0
 37 39  2  0
 39 40  1  0
 39  2  1  0
 36  7  1  0
 33 11  1  0
 17 12  1  0
 28 19  1  0
M  END
>  <cnnaffinity>  (1) 
5.67083

>  <plip>  (1) 
-0.07142857142857142

>  <filename>  (1) 
[H][c]1[n][c]([H])[c](-[c]2[n][n][c]([C]3([C@@]4([H])[C]([H])([H])[C@]4([H])[c]4[c]([H])[c]([H])[c]([H])[c]([H])[c]4[H])[C]([H])([H])[C]3([H])[H])[o]2)[c]([H])[c]1[H]

>  <combo1>  (1) 
-0.4450736304608701

$$$$
