
     RDKit          3D

 44 47  0  0  0  0  0  0  0  0999 V2000
    4.9266    1.8520   16.9515 H   0  0  0  0  0  0  0  0  0  0  0  0
    5.3972    1.3287   17.7830 C   0  0  0  0  0  0  0  0  0  0  0  0
    6.5575    0.7102   17.5122 N   0  0  0  0  0  0  0  0  0  0  0  0
    7.1461    0.0622   18.5245 C   0  0  0  0  0  0  0  0  0  0  0  0
    8.0965   -0.4148   18.2863 H   0  0  0  0  0  0  0  0  0  0  0  0
    6.6309   -0.0296   19.8330 C   0  0  0  0  0  0  0  0  0  0  0  0
    7.3834   -0.7695   20.9197 C   0  0  2  0  0  0  0  0  0  0  0  0
    8.2353   -1.2579   20.4283 H   0  0  0  0  0  0  0  0  0  0  0  0
    6.5828   -1.8607   21.6811 C   0  0  0  0  0  0  0  0  0  0  0  0
    5.5636   -1.9981   21.3022 H   0  0  0  0  0  0  0  0  0  0  0  0
    7.0898   -2.8279   21.5879 H   0  0  0  0  0  0  0  0  0  0  0  0
    6.5580   -1.4161   23.0614 N   0  0  0  0  0  0  0  0  0  0  0  0
    5.7989   -1.6359   23.6857 H   0  0  0  0  0  0  0  0  0  0  0  0
    7.1559   -0.2195   23.2827 C   0  0  0  0  0  0  0  0  0  0  0  0
    7.1192    0.3785   24.3431 O   0  0  0  0  0  0  0  0  0  0  0  0
    7.8962    0.1654   22.0305 C   0  0  1  0  0  0  0  0  0  0  0  0
    7.6945    1.2287   21.8603 H   0  0  0  0  0  0  0  0  0  0  0  0
    9.3845   -0.0046   22.2956 C   0  0  0  0  0  0  0  0  0  0  0  0
    9.9498    0.2513   21.3860 H   0  0  0  0  0  0  0  0  0  0  0  0
    9.6306   -1.0623   22.5353 H   0  0  0  0  0  0  0  0  0  0  0  0
    9.7174    0.9315   23.3248 N   0  0  0  0  0  0  0  0  0  0  0  0
    9.1432    0.8517   24.1563 H   0  0  0  0  0  0  0  0  0  0  0  0
   11.0766    1.2564   23.5000 C   0  0  1  0  0  0  0  0  0  0  0  0
   11.7722    0.4838   23.8464 H   0  0  0  0  0  0  0  0  0  0  0  0
   11.6111    2.2239   22.4770 C   0  0  0  0  0  0  0  0  0  0  0  0
   10.8542    2.5675   21.7738 H   0  0  0  0  0  0  0  0  0  0  0  0
   12.6153    2.0957   22.0851 H   0  0  0  0  0  0  0  0  0  0  0  0
   11.4170    2.6609   23.9018 C   0  0  1  0  0  0  0  0  0  0  0  0
   12.3235    2.7134   24.4928 H   0  0  0  0  0  0  0  0  0  0  0  0
   10.3964    3.6855   24.3004 C   0  0  0  0  0  0  0  0  0  0  0  0
   10.3960    4.9607   23.7153 C   0  0  0  0  0  0  0  0  0  0  0  0
   11.0568    5.1551   22.8704 H   0  0  0  0  0  0  0  0  0  0  0  0
    9.5544    5.9657   24.2029 C   0  0  0  0  0  0  0  0  0  0  0  0
    9.5354    6.9436   23.7272 H   0  0  0  0  0  0  0  0  0  0  0  0
    8.7029    5.7043   25.2871 C   0  0  0  0  0  0  0  0  0  0  0  0
    8.0658    6.4892   25.6870 H   0  0  0  0  0  0  0  0  0  0  0  0
    8.6775    4.4266   25.8592 C   0  0  0  0  0  0  0  0  0  0  0  0
    8.0289    4.2079   26.7081 H   0  0  0  0  0  0  0  0  0  0  0  0
    9.4899    3.4188   25.3406 C   0  0  0  0  0  0  0  0  0  0  0  0
    9.4695    2.4159   25.7626 H   0  0  0  0  0  0  0  0  0  0  0  0
    5.4257    0.6359   20.0918 C   0  0  0  0  0  0  0  0  0  0  0  0
    5.0000    0.6393   21.0979 H   0  0  0  0  0  0  0  0  0  0  0  0
    4.7957    1.3168   19.0466 C   0  0  0  0  0  0  0  0  0  0  0  0
    3.8650    1.8516   19.2019 H   0  0  0  0  0  0  0  0  0  0  0  0
  1  2  1  0
  2  3  2  0
  3  4  1  0
  4  5  1  0
  4  6  2  0
  6  7  1  0
  7  8  1  6
  7  9  1  0
  9 10  1  0
  9 11  1  0
  9 12  1  0
 12 13  1  0
 12 14  1  0
 14 15  2  0
 14 16  1  0
 16 17  1  6
 16 18  1  0
 18 19  1  0
 18 20  1  0
 18 21  1  0
 21 22  1  0
 21 23  1  0
 23 24  1  1
 23 25  1  0
 25 26  1  0
 25 27  1  0
 25 28  1  0
 28 29  1  1
 28 30  1  0
 30 31  2  0
 31 32  1  0
 31 33  1  0
 33 34  1  0
 33 35  2  0
 35 36  1  0
 35 37  1  0
 37 38  1  0
 37 39  2  0
 39 40  1  0
  6 41  1  0
 41 42  1  0
 41 43  2  0
 43 44  1  0
 43  2  1  0
 16  7  1  0
 28 23  1  0
 39 30  1  0
M  END
>  <cnnaffinity>  (1) 
5.18947

>  <plip>  (1) 
-0.10714285714285714

>  <filename>  (1) 
[H][c]1[n][c]([H])[c]([C@]2([H])[C]([H])([H])[N]([H])[C](=[O])[C@@]2([H])[C]([H])([H])[N]([H])[C@@]2([H])[C]([H])([H])[C@@]2([H])[c]2[c]([H])[c]([H])[c]([H])[c]([H])[c]2[H])[c]([H])[c]1[H]

>  <combo1>  (1) 
-0.6029278564387884

$$$$
