
     RDKit          3D

 48 50  0  0  0  0  0  0  0  0999 V2000
    4.9920    1.7452   16.9131 H   0  0  0  0  0  0  0  0  0  0  0  0
    5.4151    1.3255   17.8200 C   0  0  0  0  0  0  0  0  0  0  0  0
    6.5859    0.6904   17.6721 N   0  0  0  0  0  0  0  0  0  0  0  0
    7.1283    0.1561   18.7720 C   0  0  0  0  0  0  0  0  0  0  0  0
    8.0820   -0.3561   18.6217 H   0  0  0  0  0  0  0  0  0  0  0  0
    6.5578    0.2050   20.0590 C   0  0  0  0  0  0  0  0  0  0  0  0
    7.2642   -0.4681   21.2231 C   0  0  1  0  0  0  0  0  0  0  0  0
    6.6419   -0.4055   22.1256 H   0  0  0  0  0  0  0  0  0  0  0  0
    7.4484   -1.9598   20.9127 C   0  0  0  0  0  0  0  0  0  0  0  0
    8.0357   -1.9891   19.9996 H   0  0  0  0  0  0  0  0  0  0  0  0
    6.4858   -2.4251   20.6782 H   0  0  0  0  0  0  0  0  0  0  0  0
    8.1966   -2.7155   22.0063 C   0  0  0  0  0  0  0  0  0  0  0  0
    8.3127   -3.7721   21.7339 H   0  0  0  0  0  0  0  0  0  0  0  0
    7.5866   -2.6952   22.9186 H   0  0  0  0  0  0  0  0  0  0  0  0
    9.5640   -2.0709   22.2662 C   0  0  0  0  0  0  0  0  0  0  0  0
   10.0845   -2.5944   23.0769 H   0  0  0  0  0  0  0  0  0  0  0  0
   10.1893   -2.1943   21.3688 H   0  0  0  0  0  0  0  0  0  0  0  0
    9.4428   -0.5709   22.5899 C   0  0  0  0  0  0  0  0  0  0  0  0
    8.9789   -0.4489   23.5796 H   0  0  0  0  0  0  0  0  0  0  0  0
   10.4487   -0.1347   22.6680 H   0  0  0  0  0  0  0  0  0  0  0  0
    8.6364    0.2043   21.5230 C   0  0  2  0  0  0  0  0  0  0  0  0
    9.2176    0.1283   20.5883 H   0  0  0  0  0  0  0  0  0  0  0  0
    8.4916    1.7102   21.8412 C   0  0  0  0  0  0  0  0  0  0  0  0
    9.4711    2.1369   22.0826 H   0  0  0  0  0  0  0  0  0  0  0  0
    8.1462    2.2289   20.9372 H   0  0  0  0  0  0  0  0  0  0  0  0
    7.5470    2.0610   22.9918 C   0  0  0  0  0  0  0  0  0  0  0  0
    6.5401    1.6393   22.8220 H   0  0  0  0  0  0  0  0  0  0  0  0
    7.9266    1.5714   23.8996 H   0  0  0  0  0  0  0  0  0  0  0  0
    7.5215    3.5058   23.2171 N   0  0  0  0  0  0  0  0  0  0  0  0
    7.1578    3.9155   24.5717 C   0  0  0  0  0  0  0  0  0  0  0  0
    7.5147    3.1954   25.3183 H   0  0  0  0  0  0  0  0  0  0  0  0
    7.6678    4.8636   24.7971 H   0  0  0  0  0  0  0  0  0  0  0  0
    5.6384    4.1180   24.5599 C   0  0  0  0  0  0  0  0  0  0  0  0
    5.1212    3.1580   24.6607 H   0  0  0  0  0  0  0  0  0  0  0  0
    5.2959    4.7596   25.3781 H   0  0  0  0  0  0  0  0  0  0  0  0
    5.4046    4.7236   23.1652 C   0  0  0  0  0  0  0  0  0  0  0  0
    4.4785    4.3903   22.6863 H   0  0  0  0  0  0  0  0  0  0  0  0
    5.3441    5.8149   23.2336 H   0  0  0  0  0  0  0  0  0  0  0  0
    6.6486    4.3062   22.3233 C   0  0  1  0  0  0  0  0  0  0  0  0
    6.3423    3.7221   21.4434 H   0  0  0  0  0  0  0  0  0  0  0  0
    7.4259    5.5225   21.8249 C   0  0  0  0  0  0  0  0  0  0  0  0
    8.2679    5.2212   21.2066 H   0  0  0  0  0  0  0  0  0  0  0  0
    6.7919    6.1865   21.2244 H   0  0  0  0  0  0  0  0  0  0  0  0
    7.8266    6.0730   22.6832 H   0  0  0  0  0  0  0  0  0  0  0  0
    5.3454    0.8953   20.1893 C   0  0  0  0  0  0  0  0  0  0  0  0
    4.8699    0.9918   21.1673 H   0  0  0  0  0  0  0  0  0  0  0  0
    4.7587    1.4531   19.0492 C   0  0  0  0  0  0  0  0  0  0  0  0
    3.8172    1.9853   19.0967 H   0  0  0  0  0  0  0  0  0  0  0  0
  1  2  1  0
  2  3  2  0
  3  4  1  0
  4  5  1  0
  4  6  2  0
  6  7  1  0
  7  8  1  1
  7  9  1  0
  9 10  1  0
  9 11  1  0
  9 12  1  0
 12 13  1  0
 12 14  1  0
 12 15  1  0
 15 16  1  0
 15 17  1  0
 15 18  1  0
 18 19  1  0
 18 20  1  0
 18 21  1  0
 21 22  1  6
 21 23  1  0
 23 24  1  0
 23 25  1  0
 23 26  1  0
 26 27  1  0
 26 28  1  0
 26 29  1  0
 29 30  1  0
 30 31  1  0
 30 32  1  0
 30 33  1  0
 33 34  1  0
 33 35  1  0
 33 36  1  0
 36 37  1  0
 36 38  1  0
 36 39  1  0
 39 40  1  6
 39 41  1  0
 41 42  1  0
 41 43  1  0
 41 44  1  0
  6 45  1  0
 45 46  1  0
 45 47  2  0
 47 48  1  0
 47  2  1  0
 21  7  1  0
 39 29  1  0
M  END
>  <cnnaffinity>  (1) 
5.17055

>  <plip>  (1) 
-0.0

>  <filename>  (1) 
[H][c]1[n][c]([H])[c]([C@@]2([H])[C]([H])([H])[C]([H])([H])[C]([H])([H])[C]([H])([H])[C@]2([H])[C]([H])([H])[C]([H])([H])[N]2[C]([H])([H])[C]([H])([H])[C]([H])([H])[C@@]2([H])[C]([H])([H])[H])[c]([H])[c]1[H]

>  <combo1>  (1) 
-6.326317618327484e-06

$$$$
