
     RDKit          3D

 26 28  0  0  0  0  0  0  0  0999 V2000
   10.8777    0.2522   23.9760 H   0  0  0  0  0  0  0  0  0  0  0  0
   10.4542    0.2600   24.9158 N   0  0  0  0  0  0  0  0  0  0  0  0
    9.3997   -0.3350   24.9341 N   0  0  0  0  0  4  0  0  0  0  0  0
    8.3416   -0.8589   25.2222 N   0  0  0  0  0  0  0  0  0  0  0  0
    7.7731   -1.8320   24.2688 C   0  0  0  0  0  0  0  0  0  0  0  0
    7.8839   -1.5292   22.8108 C   0  0  0  0  0  0  0  0  0  0  0  0
    8.8440   -1.8699   22.0246 N   0  0  0  0  0  0  0  0  0  0  0  0
    8.5465   -1.3309   20.7813 N   0  0  0  0  0  0  0  0  0  0  0  0
    7.4209   -0.7006   20.9190 C   0  0  0  0  0  0  0  0  0  0  0  0
    6.6492    0.0173   19.9102 C   0  0  0  0  0  0  0  0  0  0  0  0
    7.1687    0.0572   18.6096 C   0  0  0  0  0  0  0  0  0  0  0  0
    8.1171   -0.4289   18.3868 H   0  0  0  0  0  0  0  0  0  0  0  0
    6.5638    0.6697   17.5929 N   0  0  0  0  0  0  0  0  0  0  0  0
    5.4024    1.2898   17.8459 C   0  0  0  0  0  0  0  0  0  0  0  0
    4.9348    1.7864   16.9964 H   0  0  0  0  0  0  0  0  0  0  0  0
    4.8010    1.3108   19.1105 C   0  0  0  0  0  0  0  0  0  0  0  0
    3.8690    1.8478   19.2437 H   0  0  0  0  0  0  0  0  0  0  0  0
    5.4272    0.6587   20.1711 C   0  0  0  0  0  0  0  0  0  0  0  0
    4.9813    0.6527   21.1681 H   0  0  0  0  0  0  0  0  0  0  0  0
    6.9480   -0.7734   22.1889 O   0  0  0  0  0  0  0  0  0  0  0  0
    7.8475   -3.2755   24.7024 C   0  0  0  0  0  0  0  0  0  0  0  0
    8.0245   -4.0128   23.9198 H   0  0  0  0  0  0  0  0  0  0  0  0
    8.3927   -3.4621   25.6246 H   0  0  0  0  0  0  0  0  0  0  0  0
    6.5421   -2.5437   24.7651 C   0  0  0  0  0  0  0  0  0  0  0  0
    5.7700   -2.7823   24.0340 H   0  0  0  0  0  0  0  0  0  0  0  0
    6.1421   -2.2468   25.7346 H   0  0  0  0  0  0  0  0  0  0  0  0
  1  2  1  0
  2  3  2  0
  3  4  2  0
  4  5  1  0
  5  6  1  0
  6  7  2  0
  7  8  1  0
  8  9  2  0
  9 10  1  0
 10 11  2  0
 11 12  1  0
 11 13  1  0
 13 14  2  0
 14 15  1  0
 14 16  1  0
 16 17  1  0
 16 18  2  0
 18 19  1  0
  9 20  1  0
  5 21  1  0
 21 22  1  0
 21 23  1  0
 21 24  1  0
 24 25  1  0
 24 26  1  0
 24  5  1  0
 20  6  1  0
 18 10  1  0
M  CHG  1   3   1
M  END
>  <cnnaffinity>  (1) 
4.6299

>  <plip>  (1) 
-0.03571428571428571

>  <filename>  (1) 
[H][N]=[N+]=[N][C]1([c]2[n][n][c](-[c]3[c]([H])[n][c]([H])[c]([H])[c]3[H])[o]2)[C]([H])([H])[C]1([H])[H]

>  <combo1>  (1) 
-0.24045517745975376

$$$$
