
     RDKit          3D

 35 36  0  0  0  0  0  0  0  0999 V2000
   11.4278    0.4953   21.9353 H   0  0  0  0  0  0  0  0  0  0  0  0
   11.9892    0.9686   22.5766 O   0  0  0  0  0  0  0  0  0  0  0  0
   11.1865    1.9968   23.1136 C   0  0  0  0  0  0  0  0  0  0  0  0
   11.8522    2.8362   23.3482 H   0  0  0  0  0  0  0  0  0  0  0  0
   10.7184    1.6711   24.0649 H   0  0  0  0  0  0  0  0  0  0  0  0
   10.1077    2.4371   22.1288 C   0  0  0  0  0  0  0  0  0  0  0  0
   10.6057    2.6988   21.1863 H   0  0  0  0  0  0  0  0  0  0  0  0
    9.6249    3.3491   22.5081 H   0  0  0  0  0  0  0  0  0  0  0  0
    9.0279    1.3929   21.8417 C   0  0  0  0  0  0  0  0  0  0  0  0
    8.1671    1.8745   21.3540 H   0  0  0  0  0  0  0  0  0  0  0  0
    8.6665    0.9624   22.7882 H   0  0  0  0  0  0  0  0  0  0  0  0
    9.5707    0.3157   20.9903 N   0  0  0  0  0  0  0  0  0  0  0  0
    9.5235    0.6271   20.0293 H   0  0  0  0  0  0  0  0  0  0  0  0
    8.8151   -0.9484   20.9879 C   0  0  2  0  0  0  0  0  0  0  0  0
    9.1715   -1.5278   20.1226 H   0  0  0  0  0  0  0  0  0  0  0  0
    7.3731   -0.8047   20.8815 N   0  0  0  0  0  0  0  0  0  0  0  0
    6.7219   -0.0859   19.8752 C   0  0  0  0  0  0  0  0  0  0  0  0
    7.2252    0.0250   18.5451 C   0  0  0  0  0  0  0  0  0  0  0  0
    8.1632   -0.4561   18.2882 H   0  0  0  0  0  0  0  0  0  0  0  0
    6.6261    0.6908   17.5437 N   0  0  0  0  0  0  0  0  0  0  0  0
    5.4683    1.3130   17.8231 C   0  0  0  0  0  0  0  0  0  0  0  0
    5.0021    1.8547   17.0052 H   0  0  0  0  0  0  0  0  0  0  0  0
    4.8762    1.2734   19.0899 C   0  0  0  0  0  0  0  0  0  0  0  0
    3.9440    1.8010   19.2604 H   0  0  0  0  0  0  0  0  0  0  0  0
    5.4974    0.5686   20.1292 C   0  0  0  0  0  0  0  0  0  0  0  0
    5.0586    0.5200   21.1235 H   0  0  0  0  0  0  0  0  0  0  0  0
    6.6778   -1.2697   22.0767 C   0  0  0  0  0  0  0  0  0  0  0  0
    5.7223   -1.7396   21.8059 H   0  0  0  0  0  0  0  0  0  0  0  0
    6.4467   -0.4406   22.7690 H   0  0  0  0  0  0  0  0  0  0  0  0
    7.6591   -2.2614   22.7050 C   0  0  0  0  0  0  0  0  0  0  0  0
    7.5309   -2.3196   23.7898 H   0  0  0  0  0  0  0  0  0  0  0  0
    7.4923   -3.2619   22.2925 H   0  0  0  0  0  0  0  0  0  0  0  0
    9.0343   -1.7150   22.2999 C   0  0  0  0  0  0  0  0  0  0  0  0
    9.7973   -2.4883   22.1730 H   0  0  0  0  0  0  0  0  0  0  0  0
    9.4100   -1.0062   23.0454 H   0  0  0  0  0  0  0  0  0  0  0  0
  1  2  1  0
  2  3  1  0
  3  4  1  0
  3  5  1  0
  3  6  1  0
  6  7  1  0
  6  8  1  0
  6  9  1  0
  9 10  1  0
  9 11  1  0
  9 12  1  0
 12 13  1  0
 12 14  1  0
 14 15  1  6
 14 16  1  0
 16 17  1  0
 17 18  2  0
 18 19  1  0
 18 20  1  0
 20 21  2  0
 21 22  1  0
 21 23  1  0
 23 24  1  0
 23 25  2  0
 25 26  1  0
 16 27  1  0
 27 28  1  0
 27 29  1  0
 27 30  1  0
 30 31  1  0
 30 32  1  0
 30 33  1  0
 33 34  1  0
 33 35  1  0
 33 14  1  0
 25 17  1  0
M  END
>  <cnnaffinity>  (1) 
4.47531

>  <plip>  (1) 
-0.07142857142857142

>  <filename>  (1) 
[H][O][C]([H])([H])[C]([H])([H])[C]([H])([H])[N]([H])[C@]1([H])[N]([c]2[c]([H])[n][c]([H])[c]([H])[c]2[H])[C]([H])([H])[C]([H])([H])[C]1([H])[H]

>  <combo1>  (1) 
-0.4814870043017748

$$$$
