
     RDKit          3D

 38 39  0  0  0  0  0  0  0  0999 V2000
    6.1885   -2.6332   21.6454 C   0  0  0  0  0  0  0  0  0  0  0  0
    7.3709   -1.8930   21.0369 C   0  0  0  0  0  0  0  0  0  0  0  0
    7.2351   -0.4343   21.1241 N   0  0  0  0  0  0  0  0  0  0  0  0
    7.3479    0.1524   22.3875 C   0  0  0  0  0  0  0  0  0  0  0  0
    7.4407   -0.4914   23.4208 O   0  0  0  0  0  0  0  0  0  0  0  0
    7.4058    1.5290   22.3577 N   0  0  0  0  0  0  0  0  0  0  0  0
    7.9464    2.2811   23.5049 C   0  0  0  0  0  0  0  0  0  0  0  0
    9.3635    1.9548   23.9710 C   0  0  0  0  0  0  0  0  0  0  0  0
    9.5606    1.0980   25.0693 C   0  0  0  0  0  0  0  0  0  0  0  0
   10.8509    0.9209   25.5601 C   0  0  0  0  0  0  0  0  0  0  0  0
   11.9100    1.5278   24.8816 C   0  0  0  0  0  0  0  0  0  0  0  0
   11.6289    2.2937   23.7455 C   0  0  0  0  0  0  0  0  0  0  0  0
   12.7094    2.9229   22.8867 C   0  0  0  0  0  0  0  0  0  0  0  0
   13.8010    2.1074   22.7797 F   0  0  0  0  0  0  0  0  0  0  0  0
   13.1594    4.0856   23.4374 F   0  0  0  0  0  0  0  0  0  0  0  0
   12.3017    3.1319   21.8942 H   0  0  0  0  0  0  0  0  0  0  0  0
   10.3764    2.5425   23.3243 N   0  0  0  0  0  0  0  0  0  0  0  0
   12.9341    1.4071   25.2068 H   0  0  0  0  0  0  0  0  0  0  0  0
   11.0217    0.3214   26.4556 H   0  0  0  0  0  0  0  0  0  0  0  0
    8.7037    0.5595   25.4603 H   0  0  0  0  0  0  0  0  0  0  0  0
    7.2708    2.1152   24.3507 H   0  0  0  0  0  0  0  0  0  0  0  0
    7.9242    3.3482   23.2630 H   0  0  0  0  0  0  0  0  0  0  0  0
    7.6395    1.8648   21.4347 H   0  0  0  0  0  0  0  0  0  0  0  0
    6.5897    0.1980   20.0126 C   0  0  0  0  0  0  0  0  0  0  0  0
    5.3532    0.8401   20.1522 C   0  0  0  0  0  0  0  0  0  0  0  0
    4.7679    1.3995   19.0132 C   0  0  0  0  0  0  0  0  0  0  0  0
    5.4358    1.3133   17.7877 C   0  0  0  0  0  0  0  0  0  0  0  0
    6.6273    0.7129   17.6405 N   0  0  0  0  0  0  0  0  0  0  0  0
    7.1802    0.1703   18.7298 C   0  0  0  0  0  0  0  0  0  0  0  0
    8.1556   -0.2999   18.6040 H   0  0  0  0  0  0  0  0  0  0  0  0
    5.0024    1.7385   16.8871 H   0  0  0  0  0  0  0  0  0  0  0  0
    3.8120    1.9048   19.0685 H   0  0  0  0  0  0  0  0  0  0  0  0
    4.8875    0.9098   21.1363 H   0  0  0  0  0  0  0  0  0  0  0  0
    8.3167   -2.2027   21.4985 H   0  0  0  0  0  0  0  0  0  0  0  0
    7.4297   -2.1286   19.9710 H   0  0  0  0  0  0  0  0  0  0  0  0
    6.2839   -3.7057   21.4527 H   0  0  0  0  0  0  0  0  0  0  0  0
    5.2597   -2.2909   21.1846 H   0  0  0  0  0  0  0  0  0  0  0  0
    6.1251   -2.4479   22.7204 H   0  0  0  0  0  0  0  0  0  0  0  0
  1  2  1  0
  2  3  1  0
  3  4  1  0
  4  5  2  0
  4  6  1  0
  6  7  1  0
  7  8  1  0
  8  9  2  0
  9 10  1  0
 10 11  2  0
 11 12  1  0
 12 13  1  0
 13 14  1  0
 13 15  1  0
 13 16  1  0
 12 17  2  0
 11 18  1  0
 10 19  1  0
  9 20  1  0
  7 21  1  0
  7 22  1  0
  6 23  1  0
  3 24  1  0
 24 25  2  0
 25 26  1  0
 26 27  2  0
 27 28  1  0
 28 29  2  0
 29 30  1  0
 27 31  1  0
 26 32  1  0
 25 33  1  0
  2 34  1  0
  2 35  1  0
  1 36  1  0
  1 37  1  0
  1 38  1  0
 17  8  1  0
 29 24  1  0
M  END
>  <cnnaffinity>  (1) 
5.11258

>  <plip>  (1) 
-0.06451612903225806

>  <filename>  (1) 
[H][c]1[n][c]([H])[c]([N]([C](=[O])[N]([H])[C]([H])([H])[c]2[n][c]([C]([H])([F])[F])[c]([H])[c]([H])[c]2[H])[C]([H])([H])[C]([H])([H])[H])[c]([H])[c]1[H]

>  <combo1>  (1) 
-0.3589363826546682

$$$$
