
     RDKit          3D

 43 45  0  0  0  0  0  0  0  0999 V2000
    7.8304   -3.9545   21.4638 C   0  0  0  0  0  0  0  0  0  0  0  0
    7.4064   -2.8316   22.4204 C   0  0  0  0  0  0  0  0  0  0  0  0
    6.5961   -1.8074   21.6915 N   0  0  0  0  0  4  0  0  0  0  0  0
    7.3430   -0.7492   20.9961 C   0  0  2  0  0  0  0  0  0  0  0  0
    7.8755    0.2628   22.0205 C   0  0  0  0  0  0  0  0  0  0  0  0
    8.5174    1.0069   21.5444 H   0  0  0  0  0  0  0  0  0  0  0  0
    8.4671   -0.2460   22.7889 H   0  0  0  0  0  0  0  0  0  0  0  0
    7.0519    0.7923   22.5124 H   0  0  0  0  0  0  0  0  0  0  0  0
    6.5232   -0.0828   19.9075 C   0  0  0  0  0  0  0  0  0  0  0  0
    5.3307    0.6331   20.1166 C   0  0  0  0  0  0  0  0  0  0  0  0
    4.7593    1.3216   19.0435 C   0  0  0  0  0  0  0  0  0  0  0  0
    5.3983    1.2883   17.8009 C   0  0  0  0  0  0  0  0  0  0  0  0
    6.5285    0.6047   17.5723 N   0  0  0  0  0  0  0  0  0  0  0  0
    7.0587   -0.0533   18.6094 C   0  0  0  0  0  0  0  0  0  0  0  0
    7.9812   -0.5948   18.3928 H   0  0  0  0  0  0  0  0  0  0  0  0
    4.9827    1.8277   16.9510 H   0  0  0  0  0  0  0  0  0  0  0  0
    3.8452    1.8956   19.1601 H   0  0  0  0  0  0  0  0  0  0  0  0
    4.8586    0.6643   21.1020 H   0  0  0  0  0  0  0  0  0  0  0  0
    8.2182   -1.1938   20.4981 H   0  0  0  0  0  0  0  0  0  0  0  0
    5.9528   -1.3696   22.3900 H   0  0  0  0  0  0  0  0  0  0  0  0
    5.9237   -2.3104   21.0744 H   0  0  0  0  0  0  0  0  0  0  0  0
    6.5950   -3.3304   23.5986 C   0  0  0  0  0  0  0  0  0  0  0  0
    7.2086   -3.4442   24.8750 C   0  0  0  0  0  0  0  0  0  0  0  0
    6.5452   -4.0011   25.9382 C   0  0  0  0  0  0  0  0  0  0  0  0
    5.2172   -4.4899   25.7915 C   0  0  0  0  0  0  0  0  0  0  0  0
    4.5501   -5.0854   26.9073 C   0  0  0  0  0  0  0  0  0  0  0  0
    3.2790   -5.5901   26.7813 C   0  0  0  0  0  0  0  0  0  0  0  0
    2.6257   -5.5346   25.5177 C   0  0  0  0  0  0  0  0  0  0  0  0
    3.2350   -4.9571   24.4243 C   0  0  0  0  0  0  0  0  0  0  0  0
    4.5523   -4.3885   24.5158 C   0  0  0  0  0  0  0  0  0  0  0  0
    5.2810   -3.7441   23.4400 C   0  0  0  0  0  0  0  0  0  0  0  0
    4.7416   -3.4457   22.1969 O   0  0  0  0  0  0  0  0  0  0  0  0
    4.0284   -4.0786   22.0516 H   0  0  0  0  0  0  0  0  0  0  0  0
    2.7099   -4.9413   23.4695 H   0  0  0  0  0  0  0  0  0  0  0  0
    1.6294   -5.9610   25.4196 H   0  0  0  0  0  0  0  0  0  0  0  0
    2.7740   -6.0414   27.6360 H   0  0  0  0  0  0  0  0  0  0  0  0
    5.0761   -5.1340   27.8608 H   0  0  0  0  0  0  0  0  0  0  0  0
    7.0290   -4.0989   26.9052 H   0  0  0  0  0  0  0  0  0  0  0  0
    8.2211   -3.0753   25.0173 H   0  0  0  0  0  0  0  0  0  0  0  0
    8.3149   -2.3647   22.8258 H   0  0  0  0  0  0  0  0  0  0  0  0
    8.7133   -3.6657   20.8901 H   0  0  0  0  0  0  0  0  0  0  0  0
    7.0299   -4.1791   20.7561 H   0  0  0  0  0  0  0  0  0  0  0  0
    8.0422   -4.8748   22.0086 H   0  0  0  0  0  0  0  0  0  0  0  0
  1  2  1  0
  2  3  1  0
  3  4  1  0
  4  5  1  0
  5  6  1  0
  5  7  1  0
  5  8  1  0
  4  9  1  0
  9 10  2  0
 10 11  1  0
 11 12  2  0
 12 13  1  0
 13 14  2  0
 14 15  1  0
 12 16  1  0
 11 17  1  0
 10 18  1  0
  4 19  1  6
  3 20  1  0
  3 21  1  0
  2 22  1  0
 22 23  2  0
 23 24  1  0
 24 25  2  0
 25 26  1  0
 26 27  2  0
 27 28  1  0
 28 29  2  0
 29 30  1  0
 30 31  2  0
 31 32  1  0
 32 33  1  0
 29 34  1  0
 28 35  1  0
 27 36  1  0
 26 37  1  0
 24 38  1  0
 23 39  1  0
  2 40  1  0
  1 41  1  0
  1 42  1  0
  1 43  1  0
 14  9  1  0
 31 22  1  0
 30 25  1  0
M  CHG  1   3   1
M  END
>  <cnnaffinity>  (1) 
4.98838

>  <plip>  (1) 
-0.10714285714285714

>  <filename>  (1) 
[H][O][c]1[c]([C]([H])([C]([H])([H])[H])[N+]([H])([H])[C@@]([H])([c]2[c]([H])[n][c]([H])[c]([H])[c]2[H])[C]([H])([H])[H])[c]([H])[c]([H])[c]2[c]([H])[c]([H])[c]([H])[c]([H])[c]12

>  <combo1>  (1) 
-0.6072341544409445

$$$$
