
     RDKit          3D

 40 42  0  0  0  0  0  0  0  0999 V2000
    5.3845   -6.2109   23.6523 C   0  0  0  0  0  0  0  0  0  0  0  0
    5.5695   -5.5692   22.2989 C   0  0  0  0  0  0  0  0  0  0  0  0
    5.5792   -6.3802   21.1583 C   0  0  0  0  0  0  0  0  0  0  0  0
    5.6707   -5.8282   19.8768 C   0  0  0  0  0  0  0  0  0  0  0  0
    5.6790   -6.9497   18.3446 Br  0  0  0  0  0  0  0  0  0  0  0  0
    5.7432   -4.4456   19.7183 C   0  0  0  0  0  0  0  0  0  0  0  0
    5.7471   -3.6314   20.8457 C   0  0  0  0  0  0  0  0  0  0  0  0
    5.7060   -4.1783   22.1372 C   0  0  0  0  0  0  0  0  0  0  0  0
    5.8541   -3.3201   23.2289 N   0  0  0  0  0  0  0  0  0  0  0  0
    6.5108   -2.0419   23.0261 N   0  0  0  0  0  0  0  0  0  0  0  0
    7.5495   -1.8200   22.1118 C   0  0  0  0  0  0  0  0  0  0  0  0
    8.1478   -2.7760   21.6207 O   0  0  0  0  0  0  0  0  0  0  0  0
    7.8548   -0.3898   21.5810 C   0  0  0  0  0  0  0  0  0  0  0  0
    7.0188   -0.0620   20.3400 C   0  0  0  0  0  0  0  0  0  0  0  0
    5.7034    0.3797   20.4966 C   0  0  0  0  0  0  0  0  0  0  0  0
    4.9479    0.6326   19.3531 C   0  0  0  0  0  0  0  0  0  0  0  0
    5.5124    0.4420   18.0882 C   0  0  0  0  0  0  0  0  0  0  0  0
    6.7767    0.0186   17.9193 N   0  0  0  0  0  0  0  0  0  0  0  0
    7.5107   -0.2307   19.0225 C   0  0  0  0  0  0  0  0  0  0  0  0
    8.5243   -0.5960   18.8837 H   0  0  0  0  0  0  0  0  0  0  0  0
    4.9005    0.6348   17.2128 H   0  0  0  0  0  0  0  0  0  0  0  0
    3.9273    0.9864   19.4314 H   0  0  0  0  0  0  0  0  0  0  0  0
    5.2830    0.5234   21.4916 H   0  0  0  0  0  0  0  0  0  0  0  0
    9.3593   -0.0459   21.4477 C   0  0  0  0  0  0  0  0  0  0  0  0
    9.3029    0.8138   22.7013 C   0  0  0  0  0  0  0  0  0  0  0  0
    7.7871    0.6758   22.6917 C   0  0  0  0  0  0  0  0  0  0  0  0
    7.3551    0.3319   23.6369 H   0  0  0  0  0  0  0  0  0  0  0  0
    7.2744    1.5943   22.3886 H   0  0  0  0  0  0  0  0  0  0  0  0
    9.7848    0.3533   23.5689 H   0  0  0  0  0  0  0  0  0  0  0  0
    9.6762    1.8367   22.5901 H   0  0  0  0  0  0  0  0  0  0  0  0
   10.0463   -0.8976   21.5178 H   0  0  0  0  0  0  0  0  0  0  0  0
    9.6116    0.5433   20.5575 H   0  0  0  0  0  0  0  0  0  0  0  0
    5.9927   -1.2035   23.2883 H   0  0  0  0  0  0  0  0  0  0  0  0
    5.8368   -3.7528   24.1617 H   0  0  0  0  0  0  0  0  0  0  0  0
    5.7981   -2.5531   20.7359 H   0  0  0  0  0  0  0  0  0  0  0  0
    5.8041   -3.9953   18.7334 H   0  0  0  0  0  0  0  0  0  0  0  0
    5.5136   -7.4537   21.2772 H   0  0  0  0  0  0  0  0  0  0  0  0
    4.3988   -5.9515   24.0479 H   0  0  0  0  0  0  0  0  0  0  0  0
    5.4355   -7.3006   23.5670 H   0  0  0  0  0  0  0  0  0  0  0  0
    6.1482   -5.8739   24.3606 H   0  0  0  0  0  0  0  0  0  0  0  0
  1  2  1  0
  2  3  2  0
  3  4  1  0
  4  5  1  0
  4  6  2  0
  6  7  1  0
  7  8  2  0
  8  9  1  0
  9 10  1  0
 10 11  1  0
 11 12  2  0
 11 13  1  0
 13 14  1  0
 14 15  2  0
 15 16  1  0
 16 17  2  0
 17 18  1  0
 18 19  2  0
 19 20  1  0
 17 21  1  0
 16 22  1  0
 15 23  1  0
 13 24  1  0
 24 25  1  0
 25 26  1  0
 26 27  1  0
 26 28  1  0
 25 29  1  0
 25 30  1  0
 24 31  1  0
 24 32  1  0
 10 33  1  0
  9 34  1  0
  7 35  1  0
  6 36  1  0
  3 37  1  0
  1 38  1  0
  1 39  1  0
  1 40  1  0
  8  2  1  0
 26 13  1  0
 19 14  1  0
M  END
>  <cnnaffinity>  (1) 
5.77593

>  <plip>  (1) 
-0.0625

>  <filename>  (1) 
[H][c]1[n][c]([H])[c]([C]2([C](=[O])[N]([H])[N]([H])[c]3[c]([H])[c]([H])[c]([Br])[c]([H])[c]3[C]([H])([H])[H])[C]([H])([H])[C]([H])([H])[C]2([H])[H])[c]([H])[c]1[H]

>  <combo1>  (1) 
-0.33401861181663006

$$$$
