
     RDKit          3D

 24 25  0  0  0  0  0  0  0  0999 V2000
    4.9438    1.7913   16.9975 H   0  0  0  0  0  0  0  0  0  0  0  0
    5.4080    1.2847   17.8450 C   0  0  0  0  0  0  0  0  0  0  0  0
    6.5673    0.6612   17.5936 N   0  0  0  0  0  0  0  0  0  0  0  0
    7.1669    0.0238   18.5996 C   0  0  0  0  0  0  0  0  0  0  0  0
    8.1144   -0.4543   18.3552 H   0  0  0  0  0  0  0  0  0  0  0  0
    6.6464   -0.0148   19.9039 C   0  0  0  0  0  0  0  0  0  0  0  0
    7.4024   -0.7553   20.9580 C   0  0  0  0  0  0  0  0  0  0  0  0
    8.0097   -1.7749   20.6921 O   0  0  0  0  0  0  0  0  0  0  0  0
    7.4217   -0.1814   22.4464 C   0  0  0  0  0  0  0  0  0  0  0  0
    7.1039    0.9616   22.7180 O   0  0  0  0  0  0  0  0  0  0  0  0
    7.8478   -1.0657   23.4156 N   0  0  0  0  0  0  0  0  0  0  0  0
    8.0961   -2.0101   23.1492 H   0  0  0  0  0  0  0  0  0  0  0  0
    8.0422   -0.7279   24.7556 C   0  0  0  0  0  0  0  0  0  0  0  0
    7.7992    0.8890   25.3660 S   0  0  0  0  0  0  0  0  0  0  0  0
    8.1660    0.3432   26.9610 C   0  0  0  0  0  0  0  0  0  0  0  0
    7.9408    1.4097   28.2885 Cl  0  0  0  0  0  0  0  0  0  0  0  0
    8.5163   -0.9684   27.0133 C   0  0  0  0  0  0  0  0  0  0  0  0
    8.8064   -1.4485   27.9407 H   0  0  0  0  0  0  0  0  0  0  0  0
    8.4273   -1.5936   25.7377 C   0  0  0  0  0  0  0  0  0  0  0  0
    8.6001   -2.6462   25.5438 H   0  0  0  0  0  0  0  0  0  0  0  0
    5.4416    0.6513   20.1655 C   0  0  0  0  0  0  0  0  0  0  0  0
    5.0135    0.6775   21.1656 H   0  0  0  0  0  0  0  0  0  0  0  0
    4.8131    1.3024   19.1057 C   0  0  0  0  0  0  0  0  0  0  0  0
    3.8828    1.8373   19.2428 H   0  0  0  0  0  0  0  0  0  0  0  0
  1  2  1  0
  2  3  2  0
  3  4  1  0
  4  5  1  0
  4  6  2  0
  6  7  1  0
  7  8  2  0
  7  9  1  0
  9 10  2  0
  9 11  1  0
 11 12  1  0
 11 13  1  0
 13 14  1  0
 14 15  1  0
 15 16  1  0
 15 17  2  0
 17 18  1  0
 17 19  1  0
 19 20  1  0
  6 21  1  0
 21 22  1  0
 21 23  2  0
 23 24  1  0
 23  2  1  0
 19 13  2  0
M  END
>  <cnnaffinity>  (1) 
4.25012

>  <plip>  (1) 
-0.034482758620689655

>  <filename>  (1) 
[H][c]1[n][c]([H])[c]([C](=[O])[C](=[O])[N]([H])[c]2[s][c]([Cl])[c]([H])[c]2[H])[c]([H])[c]1[H]

>  <combo1>  (1) 
-0.1831657500233907

$$$$
