
     RDKit          3D

 34 36  0  0  0  0  0  0  0  0999 V2000
    4.9807    1.8350   16.9789 H   0  0  0  0  0  0  0  0  0  0  0  0
    5.4625    1.3126   17.8015 C   0  0  0  0  0  0  0  0  0  0  0  0
    6.6324    0.7176   17.5137 N   0  0  0  0  0  0  0  0  0  0  0  0
    7.2559    0.0628   18.5028 C   0  0  0  0  0  0  0  0  0  0  0  0
    8.2291   -0.3741   18.2828 H   0  0  0  0  0  0  0  0  0  0  0  0
    6.7168   -0.0726   19.8019 C   0  0  0  0  0  0  0  0  0  0  0  0
    7.3764   -0.8395   20.8325 N   0  0  0  0  0  0  0  0  0  0  0  0
    6.7971   -1.8338   21.6213 C   0  0  0  0  0  0  0  0  0  0  0  0
    5.7695   -2.4131   21.3800 O   0  0  0  0  0  0  0  0  0  0  0  0
    7.7578   -2.0208   22.8071 C   0  0  0  0  0  0  0  0  0  0  0  0
    7.5930   -2.5927   23.8512 O   0  0  0  0  0  0  0  0  0  0  0  0
    8.9047   -1.3295   22.4253 N   0  0  0  0  0  0  0  0  0  0  0  0
   10.1337   -1.4945   23.0894 N   0  0  0  0  0  0  0  0  0  0  0  0
   11.2239   -1.9984   22.2635 C   0  0  0  0  0  0  0  0  0  0  0  0
   10.7630   -2.6110   21.4860 H   0  0  0  0  0  0  0  0  0  0  0  0
   11.8374   -2.6763   22.8676 H   0  0  0  0  0  0  0  0  0  0  0  0
   12.0800   -0.9195   21.5908 C   0  0  0  0  0  0  0  0  0  0  0  0
   13.0650   -1.2930   21.3180 H   0  0  0  0  0  0  0  0  0  0  0  0
   11.5751   -0.5004   20.7262 H   0  0  0  0  0  0  0  0  0  0  0  0
   12.4272    0.4668   22.6445 S   0  0  0  0  0  0  0  0  0  0  0  0
   13.3766    0.0190   23.6579 O   0  0  0  0  0  0  0  0  0  0  0  0
   12.6839    1.6150   21.7962 O   0  0  0  0  0  0  0  0  0  0  0  0
   10.9030    0.7928   23.4625 C   0  0  0  0  0  0  0  0  0  0  0  0
   10.2446    1.1242   22.6583 H   0  0  0  0  0  0  0  0  0  0  0  0
   11.1248    1.6061   24.1443 H   0  0  0  0  0  0  0  0  0  0  0  0
   10.4100   -0.4888   24.1124 C   0  0  0  0  0  0  0  0  0  0  0  0
   11.1361   -0.9045   24.8185 H   0  0  0  0  0  0  0  0  0  0  0  0
    9.4755   -0.3363   24.6562 H   0  0  0  0  0  0  0  0  0  0  0  0
    8.6705   -0.5998   21.2574 C   0  0  0  0  0  0  0  0  0  0  0  0
    9.4667    0.0973   20.6781 O   0  0  0  0  0  0  0  0  0  0  0  0
    5.5157    0.5821   20.0950 C   0  0  0  0  0  0  0  0  0  0  0  0
    5.1141    0.5390   21.1066 H   0  0  0  0  0  0  0  0  0  0  0  0
    4.8764    1.2896   19.0711 C   0  0  0  0  0  0  0  0  0  0  0  0
    3.9496    1.8252   19.2466 H   0  0  0  0  0  0  0  0  0  0  0  0
  1  2  1  0
  2  3  2  0
  3  4  1  0
  4  5  1  0
  4  6  2  0
  6  7  1  0
  7  8  1  0
  8  9  2  0
  8 10  1  0
 10 11  2  0
 10 12  1  0
 12 13  1  0
 13 14  1  0
 14 15  1  0
 14 16  1  0
 14 17  1  0
 17 18  1  0
 17 19  1  0
 17 20  1  0
 20 21  2  0
 20 22  2  0
 20 23  1  0
 23 24  1  0
 23 25  1  0
 23 26  1  0
 26 27  1  0
 26 28  1  0
 12 29  1  0
 29 30  2  0
  6 31  1  0
 31 32  1  0
 31 33  2  0
 33 34  1  0
 33  2  1  0
 29  7  1  0
 26 13  1  0
M  END
>  <cnnaffinity>  (1) 
4.88424

>  <plip>  (1) 
-0.10714285714285714

>  <filename>  (1) 
[H][c]1[n][c]([H])[c]([N]2[C](=[O])[C](=[O])[N]([N]3[C]([H])([H])[C]([H])([H])[S](=[O])(=[O])[C]([H])([H])[C]3([H])[H])[C]2=[O])[c]([H])[c]1[H]

>  <combo1>  (1) 
-0.537858345380592

$$$$
