
     RDKit          3D

 45 47  0  0  0  0  0  0  0  0999 V2000
    4.9545    1.8089   16.9610 H   0  0  0  0  0  0  0  0  0  0  0  0
    5.3981    1.2990   17.8109 C   0  0  0  0  0  0  0  0  0  0  0  0
    6.5560    0.6635   17.5782 N   0  0  0  0  0  0  0  0  0  0  0  0
    7.1431    0.0495   18.6166 C   0  0  0  0  0  0  0  0  0  0  0  0
    8.0941   -0.4366   18.3946 H   0  0  0  0  0  0  0  0  0  0  0  0
    6.6195    0.0325   19.9281 C   0  0  0  0  0  0  0  0  0  0  0  0
    7.2953   -0.5860   21.1555 C   0  0  1  0  0  0  0  0  0  0  0  0
    6.4702   -0.9304   21.7796 H   0  0  0  0  0  0  0  0  0  0  0  0
    8.1771   -1.8159   20.9118 C   0  0  0  0  0  0  0  0  0  0  0  0
    7.6175   -2.4788   20.2585 H   0  0  0  0  0  0  0  0  0  0  0  0
    8.3052   -2.3689   21.8611 H   0  0  0  0  0  0  0  0  0  0  0  0
    9.4389   -1.4143   20.3020 N   0  0  0  0  0  0  0  0  0  0  0  0
    9.9819   -2.1739   19.9096 H   0  0  0  0  0  0  0  0  0  0  0  0
   10.2445   -0.5542   21.1605 C   0  0  0  0  0  0  0  0  0  0  0  0
   10.4714   -1.0077   22.1457 H   0  0  0  0  0  0  0  0  0  0  0  0
   11.2060   -0.3647   20.6783 H   0  0  0  0  0  0  0  0  0  0  0  0
    9.4453    0.7346   21.3307 C   0  0  0  0  0  0  0  0  0  0  0  0
    9.2411    1.1448   20.3379 H   0  0  0  0  0  0  0  0  0  0  0  0
    9.9964    1.5079   21.8729 H   0  0  0  0  0  0  0  0  0  0  0  0
    8.0994    0.4355   22.0084 C   0  0  2  0  0  0  0  0  0  0  0  0
    7.5290    1.3785   22.0518 H   0  0  0  0  0  0  0  0  0  0  0  0
    8.2824   -0.1295   23.3734 N   0  0  0  0  0  0  0  0  0  0  0  0
    7.0360   -0.1447   24.1681 C   0  0  0  0  0  0  0  0  0  0  0  0
    6.2374   -0.6637   23.6359 H   0  0  0  0  0  0  0  0  0  0  0  0
    7.2231   -0.7410   25.0676 H   0  0  0  0  0  0  0  0  0  0  0  0
    6.5321    1.2436   24.5705 C   0  0  0  0  0  0  0  0  0  0  0  0
    5.7123    1.1505   25.2830 H   0  0  0  0  0  0  0  0  0  0  0  0
    6.1237    1.7665   23.6916 H   0  0  0  0  0  0  0  0  0  0  0  0
    7.5860    2.0589   25.2034 N   0  0  0  0  0  0  0  0  0  0  0  0
    7.1774    3.1017   26.0008 C   0  0  0  0  0  0  0  0  0  0  0  0
    6.0360    3.1904   26.4247 O   0  0  0  0  0  0  0  0  0  0  0  0
    8.2244    4.1366   26.3444 C   0  0  0  0  0  0  0  0  0  0  0  0
    9.0150    3.6737   26.9389 H   0  0  0  0  0  0  0  0  0  0  0  0
    8.6738    4.5623   25.4410 H   0  0  0  0  0  0  0  0  0  0  0  0
    7.7398    4.9184   26.9232 H   0  0  0  0  0  0  0  0  0  0  0  0
    8.9129    1.9983   24.5593 C   0  0  0  0  0  0  0  0  0  0  0  0
    9.6710    2.4041   25.2326 H   0  0  0  0  0  0  0  0  0  0  0  0
    8.9349    2.6098   23.6422 H   0  0  0  0  0  0  0  0  0  0  0  0
    9.2947    0.5526   24.2094 C   0  0  0  0  0  0  0  0  0  0  0  0
   10.2777    0.5288   23.7330 H   0  0  0  0  0  0  0  0  0  0  0  0
    9.4064   -0.0274   25.1329 H   0  0  0  0  0  0  0  0  0  0  0  0
    5.3913    0.6855   20.1262 C   0  0  0  0  0  0  0  0  0  0  0  0
    4.9482    0.7028   21.1249 H   0  0  0  0  0  0  0  0  0  0  0  0
    4.7741    1.3296   19.0599 C   0  0  0  0  0  0  0  0  0  0  0  0
    3.8402    1.8630   19.1863 H   0  0  0  0  0  0  0  0  0  0  0  0
  1  2  1  0
  2  3  2  0
  3  4  1  0
  4  5  1  0
  4  6  2  0
  6  7  1  0
  7  8  1  1
  7  9  1  0
  9 10  1  0
  9 11  1  0
  9 12  1  0
 12 13  1  0
 12 14  1  0
 14 15  1  0
 14 16  1  0
 14 17  1  0
 17 18  1  0
 17 19  1  0
 17 20  1  0
 20 21  1  1
 20 22  1  0
 22 23  1  0
 23 24  1  0
 23 25  1  0
 23 26  1  0
 26 27  1  0
 26 28  1  0
 26 29  1  0
 29 30  1  0
 30 31  2  0
 30 32  1  0
 32 33  1  0
 32 34  1  0
 32 35  1  0
 29 36  1  0
 36 37  1  0
 36 38  1  0
 36 39  1  0
 39 40  1  0
 39 41  1  0
  6 42  1  0
 42 43  1  0
 42 44  2  0
 44 45  1  0
 44  2  1  0
 20  7  1  0
 39 22  1  0
M  END
>  <cnnaffinity>  (1) 
4.55538

>  <plip>  (1) 
-0.034482758620689655

>  <filename>  (1) 
[H][c]1[n][c]([H])[c]([C@@]2([H])[C]([H])([H])[N]([H])[C]([H])([H])[C]([H])([H])[C@]2([H])[N]2[C]([H])([H])[C]([H])([H])[N]([C](=[O])[C]([H])([H])[H])[C]([H])([H])[C]2([H])[H])[c]([H])[c]1[H]

>  <combo1>  (1) 
-0.18155893706608095

$$$$
