
     RDKit          3D

 35 37  0  0  0  0  0  0  0  0999 V2000
    5.7434    2.5395   28.6557 C   0  0  0  0  0  0  0  0  0  0  0  0
    6.2789    1.6508   27.5645 C   0  0  0  0  0  0  0  0  0  0  0  0
    6.4072    0.2650   27.7469 C   0  0  0  0  0  0  0  0  0  0  0  0
    6.8572   -0.5212   26.6925 C   0  0  0  0  0  0  0  0  0  0  0  0
    7.1699   -0.0490   25.4762 N   0  0  0  0  0  0  0  0  0  0  0  0
    7.1268    1.2807   25.3275 C   0  0  0  0  0  0  0  0  0  0  0  0
    7.5987    1.8429   24.1144 N   0  0  0  0  0  0  0  0  0  0  0  0
    8.0991    3.1277   24.0595 N   0  0  0  0  0  0  0  0  0  0  0  0
    8.4920    3.2668   22.8078 C   0  0  0  0  0  0  0  0  0  0  0  0
    8.2627    2.1176   22.0224 C   0  0  0  0  0  0  0  0  0  0  0  0
    7.6758    1.2427   22.8907 C   0  0  0  0  0  0  0  0  0  0  0  0
    7.0758    0.0300   22.5905 N   0  0  0  0  0  0  0  0  0  0  0  0
    7.4935   -0.7876   21.2279 S   0  0  0  0  0  0  0  0  0  0  0  0
    6.9560   -2.0983   21.5239 O   0  0  0  0  0  0  0  0  0  0  0  0
    8.8922   -0.6100   20.8969 O   0  0  0  0  0  0  0  0  0  0  0  0
    6.5652    0.0556   20.0363 C   0  0  0  0  0  0  0  0  0  0  0  0
    5.3579    0.7274   20.2454 C   0  0  0  0  0  0  0  0  0  0  0  0
    4.7995    1.3287   19.1198 C   0  0  0  0  0  0  0  0  0  0  0  0
    5.4696    1.2552   17.8938 C   0  0  0  0  0  0  0  0  0  0  0  0
    6.6423    0.6253   17.7290 N   0  0  0  0  0  0  0  0  0  0  0  0
    7.1784    0.0384   18.7935 C   0  0  0  0  0  0  0  0  0  0  0  0
    8.1335   -0.4587   18.6429 H   0  0  0  0  0  0  0  0  0  0  0  0
    5.0529    1.7229   17.0043 H   0  0  0  0  0  0  0  0  0  0  0  0
    3.8571    1.8597   19.1732 H   0  0  0  0  0  0  0  0  0  0  0  0
    4.8781    0.8051   21.2259 H   0  0  0  0  0  0  0  0  0  0  0  0
    7.0189   -0.7219   23.2598 H   0  0  0  0  0  0  0  0  0  0  0  0
    8.4796    1.9180   20.9883 H   0  0  0  0  0  0  0  0  0  0  0  0
    8.9328    4.2079   22.4972 H   0  0  0  0  0  0  0  0  0  0  0  0
    6.6780    2.1570   26.3338 C   0  0  0  0  0  0  0  0  0  0  0  0
    6.7049    3.2195   26.1264 H   0  0  0  0  0  0  0  0  0  0  0  0
    6.9721   -1.5916   26.8213 H   0  0  0  0  0  0  0  0  0  0  0  0
    6.1750   -0.1917   28.7005 H   0  0  0  0  0  0  0  0  0  0  0  0
    4.6592    2.6653   28.5668 H   0  0  0  0  0  0  0  0  0  0  0  0
    6.1960    3.5332   28.6147 H   0  0  0  0  0  0  0  0  0  0  0  0
    5.9493    2.1108   29.6390 H   0  0  0  0  0  0  0  0  0  0  0  0
  1  2  1  0
  2  3  2  0
  3  4  1  0
  4  5  2  0
  5  6  1  0
  6  7  1  0
  7  8  1  0
  8  9  2  0
  9 10  1  0
 10 11  2  0
 11 12  1  0
 12 13  1  0
 13 14  2  0
 13 15  2  0
 13 16  1  0
 16 17  2  0
 17 18  1  0
 18 19  2  0
 19 20  1  0
 20 21  2  0
 21 22  1  0
 19 23  1  0
 18 24  1  0
 17 25  1  0
 12 26  1  0
 10 27  1  0
  9 28  1  0
  6 29  2  0
 29 30  1  0
  4 31  1  0
  3 32  1  0
  1 33  1  0
  1 34  1  0
  1 35  1  0
 29  2  1  0
 11  7  1  0
 21 16  1  0
M  END
>  <cnnaffinity>  (1) 
5.09165

>  <plip>  (1) 
-0.03571428571428571

>  <filename>  (1) 
[H][c]1[n][c]([H])[c]([S](=[O])(=[O])[N]([H])[c]2[c]([H])[c]([H])[n][n]2-[c]2[n][c]([H])[c]([H])[c]([C]([H])([H])[H])[c]2[H])[c]([H])[c]1[H]

>  <combo1>  (1) 
-0.19220974559827556

$$$$
