
     RDKit          3D

 35 37  0  0  0  0  0  0  0  0999 V2000
    4.7994    1.3164   19.0980 C   0  0  0  0  0  0  0  0  0  0  0  0
    5.3985    1.2979   17.8330 C   0  0  0  0  0  0  0  0  0  0  0  0
    6.5625    0.6853   17.5734 N   0  0  0  0  0  0  0  0  0  0  0  0
    7.1642    0.0690   18.5977 C   0  0  0  0  0  0  0  0  0  0  0  0
    6.6403    0.0077   19.8971 C   0  0  0  0  0  0  0  0  0  0  0  0
    7.3585   -0.7223   20.9878 C   0  0  0  0  0  0  0  0  0  0  0  0
    8.0285    0.2487   21.9081 N   0  0  0  0  0  4  0  0  0  0  0  0
    8.5413   -0.4548   23.1537 C   0  0  0  0  0  0  0  0  0  0  0  0
    9.2863    0.5198   24.0546 C   0  0  0  0  0  0  0  0  0  0  0  0
   10.3662    1.1562   23.3665 O   0  0  0  0  0  0  0  0  0  0  0  0
    9.9365    1.9010   22.2133 C   0  0  0  0  0  0  0  0  0  0  0  0
    9.1526    3.1463   22.5874 C   0  0  0  0  0  0  0  0  0  0  0  0
    8.1077    3.5994   21.9085 N   0  0  0  0  0  0  0  0  0  0  0  0
    7.7672    4.7427   22.5282 N   0  0  0  0  0  0  0  0  0  0  0  0
    8.5548    5.0295   23.5912 C   0  0  0  0  0  0  0  0  0  0  0  0
    9.4607    4.0049   23.6640 C   0  0  0  0  0  0  0  0  0  0  0  0
   10.2488    3.8563   24.3787 H   0  0  0  0  0  0  0  0  0  0  0  0
    8.4126    5.9192   24.1965 H   0  0  0  0  0  0  0  0  0  0  0  0
    7.0209    5.2920   22.1267 H   0  0  0  0  0  0  0  0  0  0  0  0
    9.2128    0.9946   21.2168 C   0  0  0  0  0  0  0  0  0  0  0  0
    9.9241    0.2450   20.8550 H   0  0  0  0  0  0  0  0  0  0  0  0
    8.8155    1.5731   20.3867 H   0  0  0  0  0  0  0  0  0  0  0  0
   10.8714    2.2356   21.7534 H   0  0  0  0  0  0  0  0  0  0  0  0
    8.5698    1.2662   24.4252 H   0  0  0  0  0  0  0  0  0  0  0  0
    9.7205   -0.0127   24.9044 H   0  0  0  0  0  0  0  0  0  0  0  0
    7.7105   -0.9290   23.6915 H   0  0  0  0  0  0  0  0  0  0  0  0
    9.2448   -1.2380   22.8433 H   0  0  0  0  0  0  0  0  0  0  0  0
    7.3183    1.0020   22.1313 H   0  0  0  0  0  0  0  0  0  0  0  0
    8.1199   -1.3965   20.5696 H   0  0  0  0  0  0  0  0  0  0  0  0
    6.6530   -1.3361   21.5655 H   0  0  0  0  0  0  0  0  0  0  0  0
    5.4280    0.6576   20.1533 C   0  0  0  0  0  0  0  0  0  0  0  0
    5.0095    0.6365   21.1650 H   0  0  0  0  0  0  0  0  0  0  0  0
    8.1158   -0.4184   18.3792 H   0  0  0  0  0  0  0  0  0  0  0  0
    4.9185    1.7886   16.9890 H   0  0  0  0  0  0  0  0  0  0  0  0
    3.8709    1.8489   19.2499 H   0  0  0  0  0  0  0  0  0  0  0  0
  1  2  2  0
  2  3  1  0
  3  4  2  0
  4  5  1  0
  5  6  1  0
  6  7  1  0
  7  8  1  0
  8  9  1  0
  9 10  1  0
 10 11  1  0
 11 12  1  0
 12 13  2  0
 13 14  1  0
 14 15  1  0
 15 16  2  0
 16 17  1  0
 15 18  1  0
 14 19  1  0
 11 20  1  0
 20 21  1  0
 20 22  1  0
 11 23  1  0
  9 24  1  0
  9 25  1  0
  8 26  1  0
  8 27  1  0
  7 28  1  0
  6 29  1  0
  6 30  1  0
  5 31  2  0
 31 32  1  0
  4 33  1  0
  2 34  1  0
  1 35  1  0
 31  1  1  0
 20  7  1  0
 16 12  1  0
M  CHG  1   7   1
M  END
>  <cnnaffinity>  (1) 
4.408

>  <plip>  (1) 
-0.07142857142857142

>  <filename>  (1) 
[H][c]1[n][c]([H])[c]([C]([H])([H])[N+]2([H])[C]([H])([H])[C]([H])([H])[O][C]([H])([c]3[n][n]([H])[c]([H])[c]3[H])[C]2([H])[H])[c]([H])[c]1[H]

>  <combo1>  (1) 
-0.42784269831304944

$$$$
