
     RDKit          3D

 38 39  0  0  0  0  0  0  0  0999 V2000
    9.8110    5.9219   23.9826 C   0  0  0  0  0  0  0  0  0  0  0  0
    9.4401    5.0455   25.1575 C   0  0  0  0  0  0  0  0  0  0  0  0
    9.8255    5.3331   26.2744 O   0  0  0  0  0  0  0  0  0  0  0  0
    8.5913    3.8331   24.9109 C   0  0  0  0  0  0  0  0  0  0  0  0
    8.7228    3.0948   23.7218 C   0  0  0  0  0  0  0  0  0  0  0  0
    8.0075    1.9015   23.5438 C   0  0  0  0  0  0  0  0  0  0  0  0
    8.1685    1.1706   22.2475 C   0  0  0  0  0  0  0  0  0  0  0  0
    8.8649    1.5450   21.3306 O   0  0  0  0  0  0  0  0  0  0  0  0
    7.4446    0.0295   22.2152 O   0  0  0  0  0  0  0  0  0  0  0  0
    7.4204   -0.7020   20.9810 C   0  0  0  0  0  0  0  0  0  0  0  0
    6.7539   -2.0229   21.3025 C   0  0  0  0  0  0  0  0  0  0  0  0
    7.2941   -2.5350   22.1018 H   0  0  0  0  0  0  0  0  0  0  0  0
    6.7307   -2.6685   20.4222 H   0  0  0  0  0  0  0  0  0  0  0  0
    5.7236   -1.8482   21.6248 H   0  0  0  0  0  0  0  0  0  0  0  0
    6.6764    0.0734   19.9176 C   0  0  0  0  0  0  0  0  0  0  0  0
    5.4491    0.7128   20.1478 C   0  0  0  0  0  0  0  0  0  0  0  0
    4.8113    1.3307   19.0717 C   0  0  0  0  0  0  0  0  0  0  0  0
    5.4220    1.2957   17.8106 C   0  0  0  0  0  0  0  0  0  0  0  0
    6.5908    0.6871   17.5726 N   0  0  0  0  0  0  0  0  0  0  0  0
    7.1917    0.1048   18.6213 C   0  0  0  0  0  0  0  0  0  0  0  0
    8.1477   -0.3772   18.4159 H   0  0  0  0  0  0  0  0  0  0  0  0
    4.9442    1.7716   16.9554 H   0  0  0  0  0  0  0  0  0  0  0  0
    3.8652    1.8432   19.1938 H   0  0  0  0  0  0  0  0  0  0  0  0
    5.0131    0.7426   21.1505 H   0  0  0  0  0  0  0  0  0  0  0  0
    8.4536   -0.8666   20.6509 H   0  0  0  0  0  0  0  0  0  0  0  0
    7.1734    1.4291   24.5720 C   0  0  0  0  0  0  0  0  0  0  0  0
    7.0131    2.1899   25.7281 C   0  0  0  0  0  0  0  0  0  0  0  0
    7.6674    3.4145   25.9060 C   0  0  0  0  0  0  0  0  0  0  0  0
    7.3564    4.2430   27.1254 C   0  0  0  0  0  0  0  0  0  0  0  0
    8.1938    4.2449   27.8194 H   0  0  0  0  0  0  0  0  0  0  0  0
    6.4768    3.8481   27.6427 H   0  0  0  0  0  0  0  0  0  0  0  0
    7.1995    5.2917   26.8509 H   0  0  0  0  0  0  0  0  0  0  0  0
    6.3459    1.8381   26.5111 H   0  0  0  0  0  0  0  0  0  0  0  0
    6.6394    0.4869   24.4620 H   0  0  0  0  0  0  0  0  0  0  0  0
    9.3889    3.4132   22.9129 H   0  0  0  0  0  0  0  0  0  0  0  0
    9.0005    5.9772   23.2499 H   0  0  0  0  0  0  0  0  0  0  0  0
   10.6980    5.5102   23.4884 H   0  0  0  0  0  0  0  0  0  0  0  0
   10.0517    6.9169   24.3607 H   0  0  0  0  0  0  0  0  0  0  0  0
  1  2  1  0
  2  3  2  0
  2  4  1  0
  4  5  2  0
  5  6  1  0
  6  7  1  0
  7  8  2  0
  7  9  1  0
  9 10  1  0
 10 11  1  0
 11 12  1  0
 11 13  1  0
 11 14  1  0
 10 15  1  0
 15 16  2  0
 16 17  1  0
 17 18  2  0
 18 19  1  0
 19 20  2  0
 20 21  1  0
 18 22  1  0
 17 23  1  0
 16 24  1  0
 10 25  1  0
  6 26  2  0
 26 27  1  0
 27 28  2  0
 28 29  1  0
 29 30  1  0
 29 31  1  0
 29 32  1  0
 27 33  1  0
 26 34  1  0
  5 35  1  0
  1 36  1  0
  1 37  1  0
  1 38  1  0
 28  4  1  0
 20 15  1  0
M  END
>  <cnnaffinity>  (1) 
4.6312

>  <plip>  (1) 
-0.14285714285714285

>  <filename>  (1) 
[H][c]1[n][c]([H])[c]([C]([H])([O][C](=[O])[c]2[c]([H])[c]([H])[c]([C]([H])([H])[H])[c]([C](=[O])[C]([H])([H])[H])[c]2[H])[C]([H])([H])[H])[c]([H])[c]1[H]

>  <combo1>  (1) 
-0.7783703400428953

$$$$
