
     RDKit          3D

 30 32  0  0  0  0  0  0  0  0999 V2000
    6.9755   -0.8237   22.3100 C   0  0  0  0  0  0  0  0  0  0  0  0
    7.5423   -0.7384   20.8983 C   0  0  2  0  0  0  0  0  0  0  0  0
    8.8860   -0.2015   20.8562 N   0  0  0  0  0  0  0  0  0  0  0  0
    9.2977    1.0164   21.3390 C   0  0  0  0  0  0  0  0  0  0  0  0
   10.5956    1.0545   21.5119 N   0  0  0  0  0  0  0  0  0  0  0  0
   11.0746    2.2436   21.9722 N   0  0  0  0  0  0  0  0  0  0  0  0
   12.3672    2.5994   22.1835 C   0  0  0  0  0  0  0  0  0  0  0  0
   12.4262    3.8284   22.6464 N   0  0  0  0  0  0  0  0  0  0  0  0
   11.1570    4.3145   22.7361 N   0  0  0  0  0  0  0  0  0  0  0  0
   10.3396    3.3630   22.3223 C   0  0  0  0  0  0  0  0  0  0  0  0
    8.9278    3.2936   22.1033 C   0  0  0  0  0  0  0  0  0  0  0  0
    8.4156    2.1295   21.6056 C   0  0  0  0  0  0  0  0  0  0  0  0
    7.3593    1.9963   21.4473 H   0  0  0  0  0  0  0  0  0  0  0  0
    8.3118    4.1547   22.3437 H   0  0  0  0  0  0  0  0  0  0  0  0
   13.1609    1.9012   21.9562 H   0  0  0  0  0  0  0  0  0  0  0  0
    9.6553   -0.8271   21.0310 H   0  0  0  0  0  0  0  0  0  0  0  0
    6.6776   -0.0020   19.8859 C   0  0  0  0  0  0  0  0  0  0  0  0
    5.4422    0.6129   20.1234 C   0  0  0  0  0  0  0  0  0  0  0  0
    4.8142    1.2801   19.0624 C   0  0  0  0  0  0  0  0  0  0  0  0
    5.4210    1.2978   17.8043 C   0  0  0  0  0  0  0  0  0  0  0  0
    6.5895    0.6903   17.5471 N   0  0  0  0  0  0  0  0  0  0  0  0
    7.1867    0.0787   18.5758 C   0  0  0  0  0  0  0  0  0  0  0  0
    8.1344   -0.3987   18.3480 H   0  0  0  0  0  0  0  0  0  0  0  0
    4.9524    1.8161   16.9690 H   0  0  0  0  0  0  0  0  0  0  0  0
    3.8752    1.8003   19.2051 H   0  0  0  0  0  0  0  0  0  0  0  0
    4.9801    0.6166   21.1163 H   0  0  0  0  0  0  0  0  0  0  0  0
    7.6348   -1.7709   20.5256 H   0  0  0  0  0  0  0  0  0  0  0  0
    7.6555   -1.3757   22.9681 H   0  0  0  0  0  0  0  0  0  0  0  0
    6.0269   -1.3609   22.2755 H   0  0  0  0  0  0  0  0  0  0  0  0
    6.8051    0.1703   22.7349 H   0  0  0  0  0  0  0  0  0  0  0  0
  1  2  1  0
  2  3  1  0
  3  4  1  0
  4  5  2  0
  5  6  1  0
  6  7  1  0
  7  8  2  0
  8  9  1  0
  9 10  2  0
 10 11  1  0
 11 12  2  0
 12 13  1  0
 11 14  1  0
  7 15  1  0
  3 16  1  0
  2 17  1  0
 17 18  2  0
 18 19  1  0
 19 20  2  0
 20 21  1  0
 21 22  2  0
 22 23  1  0
 20 24  1  0
 19 25  1  0
 18 26  1  0
  2 27  1  6
  1 28  1  0
  1 29  1  0
  1 30  1  0
 12  4  1  0
 22 17  1  0
 10  6  1  0
M  END
>  <cnnaffinity>  (1) 
5.02892

>  <plip>  (1) 
-0.06896551724137931

>  <filename>  (1) 
[H][c]1[n][c]([H])[c]([C@@]([H])([N]([H])[c]2[n][n]3[c]([H])[n][n][c]3[c]([H])[c]2[H])[C]([H])([H])[H])[c]([H])[c]1[H]

>  <combo1>  (1) 
-0.4811560174879887

$$$$
