
     RDKit          3D

 31 33  0  0  0  0  0  0  0  0999 V2000
    4.8070    1.3078   19.1070 C   0  0  0  0  0  0  0  0  0  0  0  0
    5.4034    1.2877   17.8424 C   0  0  0  0  0  0  0  0  0  0  0  0
    6.5649    0.6666   17.5888 N   0  0  0  0  0  0  0  0  0  0  0  0
    7.1593    0.0343   18.6110 C   0  0  0  0  0  0  0  0  0  0  0  0
    6.6432   -0.0277   19.9103 C   0  0  0  0  0  0  0  0  0  0  0  0
    7.3748   -0.7761   20.9913 C   0  0  0  0  0  0  0  0  0  0  0  0
    6.9679   -2.1618   21.0246 N   0  0  0  0  0  0  0  0  0  0  0  0
    7.4220   -3.0888   21.9145 C   0  0  0  0  0  0  0  0  0  0  0  0
    8.3932   -2.7428   22.8858 C   0  0  0  0  0  0  0  0  0  0  0  0
    8.8128   -3.7365   23.7338 C   0  0  0  0  0  0  0  0  0  0  0  0
    8.2519   -5.0306   23.5910 C   0  0  0  0  0  0  0  0  0  0  0  0
    8.8447   -5.9732   24.6166 C   0  0  0  0  0  0  0  0  0  0  0  0
    9.8571   -5.1090   25.4328 C   0  0  0  0  0  0  0  0  0  0  0  0
    9.8166   -3.6737   24.8448 C   0  0  0  0  0  0  0  0  0  0  0  0
    9.5234   -2.9323   25.5962 H   0  0  0  0  0  0  0  0  0  0  0  0
   10.7965   -3.3559   24.4720 H   0  0  0  0  0  0  0  0  0  0  0  0
    9.5996   -5.1003   26.4979 H   0  0  0  0  0  0  0  0  0  0  0  0
   10.8697   -5.5238   25.3733 H   0  0  0  0  0  0  0  0  0  0  0  0
    8.0777   -6.4048   25.2671 H   0  0  0  0  0  0  0  0  0  0  0  0
    9.3509   -6.8156   24.1395 H   0  0  0  0  0  0  0  0  0  0  0  0
    7.3413   -5.3120   22.6585 N   0  0  0  0  0  0  0  0  0  0  0  0
    6.9206   -4.3392   21.8151 N   0  0  0  0  0  0  0  0  0  0  0  0
    8.7788   -1.7293   22.9422 H   0  0  0  0  0  0  0  0  0  0  0  0
    6.2691   -2.5001   20.3903 H   0  0  0  0  0  0  0  0  0  0  0  0
    8.4599   -0.7107   20.8167 H   0  0  0  0  0  0  0  0  0  0  0  0
    7.1709   -0.2898   21.9588 H   0  0  0  0  0  0  0  0  0  0  0  0
    5.4379    0.6399   20.1589 C   0  0  0  0  0  0  0  0  0  0  0  0
    5.0043    0.6334   21.1620 H   0  0  0  0  0  0  0  0  0  0  0  0
    8.1155   -0.4317   18.3764 H   0  0  0  0  0  0  0  0  0  0  0  0
    4.9240    1.7805   16.9966 H   0  0  0  0  0  0  0  0  0  0  0  0
    3.8765    1.8434   19.2558 H   0  0  0  0  0  0  0  0  0  0  0  0
  1  2  2  0
  2  3  1  0
  3  4  2  0
  4  5  1  0
  5  6  1  0
  6  7  1  0
  7  8  1  0
  8  9  2  0
  9 10  1  0
 10 11  2  0
 11 12  1  0
 12 13  1  0
 13 14  1  0
 14 15  1  0
 14 16  1  0
 13 17  1  0
 13 18  1  0
 12 19  1  0
 12 20  1  0
 11 21  1  0
 21 22  2  0
  9 23  1  0
  7 24  1  0
  6 25  1  0
  6 26  1  0
  5 27  2  0
 27 28  1  0
  4 29  1  0
  2 30  1  0
  1 31  1  0
 27  1  1  0
 22  8  1  0
 14 10  1  0
M  END
>  <cnnaffinity>  (1) 
4.87906

>  <plip>  (1) 
-0.06896551724137931

>  <filename>  (1) 
[H][c]1[n][c]([H])[c]([C]([H])([H])[N]([H])[c]2[n][n][c]3[c]([c]2[H])[C]([H])([H])[C]([H])([H])[C]3([H])[H])[c]([H])[c]1[H]

>  <combo1>  (1) 
-0.4956726702870947

$$$$
