
     RDKit          3D

 41 44  0  0  0  0  0  0  0  0999 V2000
    2.0265   -0.4815   25.9817 F   0  0  0  0  0  0  0  0  0  0  0  0
    3.3274   -0.7805   26.1039 C   0  0  0  0  0  0  0  0  0  0  0  0
    3.7058   -1.6691   27.1371 C   0  0  0  0  0  0  0  0  0  0  0  0
    5.0338   -2.0033   27.2772 C   0  0  0  0  0  0  0  0  0  0  0  0
    6.0004   -1.5399   26.3394 C   0  0  0  0  0  0  0  0  0  0  0  0
    7.3771   -1.9156   26.3722 C   0  0  0  0  0  0  0  0  0  0  0  0
    8.1920   -1.4878   25.3652 C   0  0  0  0  0  0  0  0  0  0  0  0
    7.6490   -0.6862   24.2910 C   0  0  0  0  0  0  0  0  0  0  0  0
    8.4688   -0.3685   23.2435 N   0  0  0  0  0  0  0  0  0  0  0  0
    9.9184   -0.5161   23.3045 C   0  0  0  0  0  0  0  0  0  0  0  0
   10.4171    0.0543   21.9773 C   0  0  0  0  0  0  0  0  0  0  0  0
    9.2608    0.9144   21.4589 C   0  0  0  0  0  0  0  0  0  0  0  0
    7.9885    0.2639   22.0214 C   0  0  0  0  0  0  0  0  0  0  0  0
    7.3391   -0.7299   21.0166 C   0  0  0  0  0  0  0  0  0  0  0  0
    6.6339   -0.0340   19.8565 C   0  0  0  0  0  0  0  0  0  0  0  0
    5.4258    0.6397   20.0990 C   0  0  0  0  0  0  0  0  0  0  0  0
    4.7917    1.3129   19.0550 C   0  0  0  0  0  0  0  0  0  0  0  0
    5.3917    1.3092   17.7927 C   0  0  0  0  0  0  0  0  0  0  0  0
    6.5418    0.6757   17.5252 N   0  0  0  0  0  0  0  0  0  0  0  0
    7.1401    0.0297   18.5404 C   0  0  0  0  0  0  0  0  0  0  0  0
    8.0861   -0.4520   18.2828 H   0  0  0  0  0  0  0  0  0  0  0  0
    4.9293    1.8450   16.9657 H   0  0  0  0  0  0  0  0  0  0  0  0
    3.8678    1.8545   19.2138 H   0  0  0  0  0  0  0  0  0  0  0  0
    5.0073    0.6502   21.1091 H   0  0  0  0  0  0  0  0  0  0  0  0
    8.1172   -1.4199   20.6605 H   0  0  0  0  0  0  0  0  0  0  0  0
    6.6166   -1.3310   21.5830 H   0  0  0  0  0  0  0  0  0  0  0  0
    7.2379    1.0144   22.2943 H   0  0  0  0  0  0  0  0  0  0  0  0
    9.3388    1.9435   21.8167 H   0  0  0  0  0  0  0  0  0  0  0  0
    9.2336    0.9477   20.3681 H   0  0  0  0  0  0  0  0  0  0  0  0
   11.3350    0.6294   22.1123 H   0  0  0  0  0  0  0  0  0  0  0  0
   10.6444   -0.7580   21.2819 H   0  0  0  0  0  0  0  0  0  0  0  0
   10.3328    0.0362   24.1610 H   0  0  0  0  0  0  0  0  0  0  0  0
   10.2124   -1.5685   23.4252 H   0  0  0  0  0  0  0  0  0  0  0  0
    6.4037   -0.2529   24.2707 N   0  0  0  0  0  0  0  0  0  0  0  0
    5.5863   -0.6709   25.2806 C   0  0  0  0  0  0  0  0  0  0  0  0
    4.2407   -0.2278   25.2451 C   0  0  0  0  0  0  0  0  0  0  0  0
    3.9895    0.4866   24.4790 H   0  0  0  0  0  0  0  0  0  0  0  0
    9.2427   -1.7313   25.3371 H   0  0  0  0  0  0  0  0  0  0  0  0
    7.7542   -2.5385   27.1891 H   0  0  0  0  0  0  0  0  0  0  0  0
    5.3496   -2.6596   28.0843 H   0  0  0  0  0  0  0  0  0  0  0  0
    2.9315   -2.0693   27.7832 H   0  0  0  0  0  0  0  0  0  0  0  0
  1  2  1  0
  2  3  2  0
  3  4  1  0
  4  5  2  0
  5  6  1  0
  6  7  2  0
  7  8  1  0
  8  9  1  0
  9 10  1  0
 10 11  1  0
 11 12  1  0
 12 13  1  0
 13 14  1  0
 14 15  1  0
 15 16  2  0
 16 17  1  0
 17 18  2  0
 18 19  1  0
 19 20  2  0
 20 21  1  0
 18 22  1  0
 17 23  1  0
 16 24  1  0
 14 25  1  0
 14 26  1  0
 13 27  1  0
 12 28  1  0
 12 29  1  0
 11 30  1  0
 11 31  1  0
 10 32  1  0
 10 33  1  0
  8 34  2  0
 34 35  1  0
 35 36  2  0
 36 37  1  0
  7 38  1  0
  6 39  1  0
  4 40  1  0
  3 41  1  0
 36  2  1  0
 35  5  1  0
 13  9  1  0
 20 15  1  0
M  END
>  <cnnaffinity>  (1) 
5.59248

>  <plip>  (1) 
-0.0

>  <filename>  (1) 
[H][c]1[n][c]([H])[c]([C]([H])([H])[C]2([H])[N]([c]3[n][c]4[c]([H])[c]([F])[c]([H])[c]([H])[c]4[c]([H])[c]3[H])[C]([H])([H])[C]([H])([H])[C]2([H])[H])[c]([H])[c]1[H]

>  <combo1>  (1) 
-6.064833491664828e-06

$$$$
