
     RDKit          3D

 32 34  0  0  0  0  0  0  0  0999 V2000
    7.4993   -2.2348   19.6674 H   0  0  0  0  0  0  0  0  0  0  0  0
    7.4673   -2.1615   20.6335 O   0  0  0  0  0  0  0  0  0  0  0  0
    7.3466   -0.7924   20.9812 C   0  0  1  0  0  0  0  0  0  0  0  0
    6.6930   -0.7362   21.8625 H   0  0  0  0  0  0  0  0  0  0  0  0
    8.6798   -0.1003   21.4766 C   0  0  0  0  0  0  0  0  0  0  0  0
    8.7680    1.1085   21.4492 O   0  0  0  0  0  0  0  0  0  0  0  0
    9.8118   -0.9468   21.9393 C   0  0  0  0  0  0  0  0  0  0  0  0
   11.0993   -0.8146   21.4387 C   0  0  0  0  0  0  0  0  0  0  0  0
   11.3740    0.0305   20.8153 H   0  0  0  0  0  0  0  0  0  0  0  0
   12.0946   -1.7504   21.7790 C   0  0  0  0  0  0  0  0  0  0  0  0
   13.0838   -1.6861   21.3331 H   0  0  0  0  0  0  0  0  0  0  0  0
   11.8089   -2.7581   22.6737 C   0  0  0  0  0  0  0  0  0  0  0  0
   12.5593   -3.4789   22.9593 H   0  0  0  0  0  0  0  0  0  0  0  0
   10.5474   -2.8431   23.3071 C   0  0  0  0  0  0  0  0  0  0  0  0
   10.2671   -3.7631   24.3604 C   0  0  0  0  0  0  0  0  0  0  0  0
   11.0334   -4.4742   24.6756 H   0  0  0  0  0  0  0  0  0  0  0  0
    9.0359   -3.7073   24.9698 C   0  0  0  0  0  0  0  0  0  0  0  0
    8.7657   -4.3833   25.7735 H   0  0  0  0  0  0  0  0  0  0  0  0
    8.0895   -2.7354   24.5353 C   0  0  0  0  0  0  0  0  0  0  0  0
    7.1215   -2.6711   25.0270 H   0  0  0  0  0  0  0  0  0  0  0  0
    8.2962   -1.8848   23.5536 N   0  0  0  0  0  0  0  0  0  0  0  0
    9.5188   -1.9172   22.9374 C   0  0  0  0  0  0  0  0  0  0  0  0
    6.6648   -0.0621   19.8477 C   0  0  0  0  0  0  0  0  0  0  0  0
    7.1391   -0.1017   18.5243 C   0  0  0  0  0  0  0  0  0  0  0  0
    8.0294   -0.6823   18.2691 H   0  0  0  0  0  0  0  0  0  0  0  0
    6.5684    0.5554   17.5062 N   0  0  0  0  0  0  0  0  0  0  0  0
    5.4517    1.2507   17.7725 C   0  0  0  0  0  0  0  0  0  0  0  0
    5.0003    1.7557   16.9213 H   0  0  0  0  0  0  0  0  0  0  0  0
    4.8730    1.3302   19.0436 C   0  0  0  0  0  0  0  0  0  0  0  0
    3.9672    1.9050   19.1920 H   0  0  0  0  0  0  0  0  0  0  0  0
    5.4961    0.6616   20.0971 C   0  0  0  0  0  0  0  0  0  0  0  0
    5.0745    0.6671   21.1059 H   0  0  0  0  0  0  0  0  0  0  0  0
  1  2  1  0
  2  3  1  0
  3  4  1  1
  3  5  1  0
  5  6  2  0
  5  7  1  0
  7  8  2  0
  8  9  1  0
  8 10  1  0
 10 11  1  0
 10 12  2  0
 12 13  1  0
 12 14  1  0
 14 15  2  0
 15 16  1  0
 15 17  1  0
 17 18  1  0
 17 19  2  0
 19 20  1  0
 19 21  1  0
 21 22  2  0
  3 23  1  0
 23 24  2  0
 24 25  1  0
 24 26  1  0
 26 27  2  0
 27 28  1  0
 27 29  1  0
 29 30  1  0
 29 31  2  0
 31 32  1  0
 22  7  1  0
 31 23  1  0
 22 14  1  0
M  END
>  <cnnaffinity>  (1) 
5.06168

>  <plip>  (1) 
-0.13793103448275862

>  <filename>  (1) 
[H][O][C@@]([H])([C](=[O])[c]1[c]([H])[c]([H])[c]([H])[c]2[c]([H])[c]([H])[c]([H])[n][c]12)[c]1[c]([H])[n][c]([H])[c]([H])[c]1[H]

>  <combo1>  (1) 
-0.8805713533177563

$$$$
