
     RDKit          3D

 34 36  0  0  0  0  0  0  0  0999 V2000
    5.9045   -5.6594   27.9687 Cl  0  0  0  0  0  0  0  0  0  0  0  0
    6.6505   -4.5209   26.8955 C   0  0  0  0  0  0  0  0  0  0  0  0
    8.0330   -4.3266   26.9945 C   0  0  0  0  0  0  0  0  0  0  0  0
    8.6129   -3.4050   26.1309 C   0  0  0  0  0  0  0  0  0  0  0  0
    7.8053   -2.7047   25.2241 C   0  0  0  0  0  0  0  0  0  0  0  0
    8.4080   -1.7398   24.2418 C   0  0  0  0  0  0  0  0  0  0  0  0
    8.8237   -2.4429   22.9476 C   0  0  0  0  0  0  0  0  0  0  0  0
    9.3706   -1.5085   21.9796 N   0  0  0  0  0  0  0  0  0  0  0  0
   10.6762   -1.1162   21.8557 C   0  0  0  0  0  0  0  0  0  0  0  0
   10.8073   -0.1757   20.9781 N   0  0  0  0  0  0  0  0  0  0  0  0
    9.5515    0.0963   20.4743 N   0  0  0  0  0  0  0  0  0  0  0  0
    8.7117   -0.6785   21.1109 C   0  0  0  0  0  0  0  0  0  0  0  0
    7.3488   -0.7034   20.9328 N   0  0  0  0  0  0  0  0  0  0  0  0
    6.6719   -0.0027   19.9040 C   0  0  0  0  0  0  0  0  0  0  0  0
    5.4498    0.6318   20.1636 C   0  0  0  0  0  0  0  0  0  0  0  0
    4.8122    1.3053   19.1135 C   0  0  0  0  0  0  0  0  0  0  0  0
    5.3943    1.2965   17.8403 C   0  0  0  0  0  0  0  0  0  0  0  0
    6.5562    0.6795   17.5689 N   0  0  0  0  0  0  0  0  0  0  0  0
    7.1767    0.0644   18.5803 C   0  0  0  0  0  0  0  0  0  0  0  0
    8.1286   -0.4204   18.3793 H   0  0  0  0  0  0  0  0  0  0  0  0
    4.9084    1.7834   16.9976 H   0  0  0  0  0  0  0  0  0  0  0  0
    3.8802    1.8386   19.2673 H   0  0  0  0  0  0  0  0  0  0  0  0
    5.0208    0.6208   21.1690 H   0  0  0  0  0  0  0  0  0  0  0  0
    6.8020   -1.0881   21.6846 H   0  0  0  0  0  0  0  0  0  0  0  0
   11.4918   -1.5374   22.4319 H   0  0  0  0  0  0  0  0  0  0  0  0
    7.9802   -2.9738   22.4989 H   0  0  0  0  0  0  0  0  0  0  0  0
    9.5828   -3.2014   23.1557 H   0  0  0  0  0  0  0  0  0  0  0  0
    9.2902   -1.2553   24.6790 H   0  0  0  0  0  0  0  0  0  0  0  0
    7.7062   -0.9343   23.9929 H   0  0  0  0  0  0  0  0  0  0  0  0
    6.4377   -3.0116   25.2188 C   0  0  0  0  0  0  0  0  0  0  0  0
    5.8577   -3.9023   26.0374 N   0  0  0  0  0  0  0  0  0  0  0  0
    5.7764   -2.5134   24.5139 H   0  0  0  0  0  0  0  0  0  0  0  0
    9.6879   -3.2271   26.1565 H   0  0  0  0  0  0  0  0  0  0  0  0
    8.6198   -4.8789   27.7177 H   0  0  0  0  0  0  0  0  0  0  0  0
  1  2  1  0
  2  3  2  0
  3  4  1  0
  4  5  2  0
  5  6  1  0
  6  7  1  0
  7  8  1  0
  8  9  1  0
  9 10  2  0
 10 11  1  0
 11 12  2  0
 12 13  1  0
 13 14  1  0
 14 15  2  0
 15 16  1  0
 16 17  2  0
 17 18  1  0
 18 19  2  0
 19 20  1  0
 17 21  1  0
 16 22  1  0
 15 23  1  0
 13 24  1  0
  9 25  1  0
  7 26  1  0
  7 27  1  0
  6 28  1  0
  6 29  1  0
  5 30  1  0
 30 31  2  0
 30 32  1  0
  4 33  1  0
  3 34  1  0
 31  2  1  0
 12  8  1  0
 19 14  1  0
M  END
>  <cnnaffinity>  (1) 
5.57354

>  <plip>  (1) 
-0.10714285714285714

>  <filename>  (1) 
[H][c]1[n][c]([H])[c]([N]([H])[c]2[n][n][c]([H])[n]2[C]([H])([H])[C]([H])([H])[c]2[c]([H])[n][c]([Cl])[c]([H])[c]2[H])[c]([H])[c]1[H]

>  <combo1>  (1) 
-0.6618554095885999

$$$$
