
     RDKit          3D

 34 36  0  0  0  0  0  0  0  0999 V2000
    9.4566   -1.0807   26.1132 C   0  0  0  0  0  0  0  0  0  0  0  0
   10.3643   -0.2821   25.3437 C   0  0  0  0  0  0  0  0  0  0  0  0
   10.7724   -0.2613   25.4816 C   0  0  0  0  0  0  0  0  0  0  0  0
    9.1088    1.0408   24.7679 C   0  0  0  0  0  0  0  0  0  0  0  0
    9.3895    2.1397   23.9975 N   0  0  0  0  0  0  0  0  0  0  0  0
   10.2414    3.0858   24.5000 N   0  0  0  0  0  0  0  0  0  0  0  0
   10.1892    4.1256   23.7484 N   0  0  0  0  0  0  0  0  0  0  0  0
    9.2977    3.8986   22.7442 C   0  0  0  0  0  0  0  0  0  0  0  0
    8.7844    2.6323   22.8576 C   0  0  0  0  0  0  0  0  0  0  0  0
    7.8880    1.8724   21.9176 C   0  0  0  0  0  0  0  0  0  0  0  0
    8.6961    0.3021   21.4229 S   0  0  0  0  0  0  0  0  0  0  0  0
    7.2693   -0.6929   20.8614 C   0  0  0  0  0  0  0  0  0  0  0  0
    6.5193   -0.0439   19.7306 C   0  0  0  0  0  0  0  0  0  0  0  0
    5.2997    0.6116   19.9325 C   0  0  0  0  0  0  0  0  0  0  0  0
    4.7308    1.3192   18.8697 C   0  0  0  0  0  0  0  0  0  0  0  0
    5.3959    1.3352   17.6417 C   0  0  0  0  0  0  0  0  0  0  0  0
    6.5490    0.6843   17.4175 N   0  0  0  0  0  0  0  0  0  0  0  0
    7.0866    0.0197   18.4456 C   0  0  0  0  0  0  0  0  0  0  0  0
    8.0302   -0.4900   18.2446 H   0  0  0  0  0  0  0  0  0  0  0  0
    4.9887    1.8909   16.7985 H   0  0  0  0  0  0  0  0  0  0  0  0
    3.8027    1.8681   18.9872 H   0  0  0  0  0  0  0  0  0  0  0  0
    4.8025    0.5701   20.9051 H   0  0  0  0  0  0  0  0  0  0  0  0
    6.6152   -0.9058   21.7159 H   0  0  0  0  0  0  0  0  0  0  0  0
    7.7163   -1.6472   20.5557 H   0  0  0  0  0  0  0  0  0  0  0  0
    6.9033    1.6733   22.3596 H   0  0  0  0  0  0  0  0  0  0  0  0
    7.7119    2.4760   21.0251 H   0  0  0  0  0  0  0  0  0  0  0  0
    9.0601    4.6654   22.0236 H   0  0  0  0  0  0  0  0  0  0  0  0
    7.9223    0.5960   25.2866 C   0  0  0  0  0  0  0  0  0  0  0  0
    8.1430   -0.6619   26.0208 C   0  0  0  0  0  0  0  0  0  0  0  0
    7.3265   -1.2069   26.4706 H   0  0  0  0  0  0  0  0  0  0  0  0
    6.9492    1.0843   25.1726 H   0  0  0  0  0  0  0  0  0  0  0  0
   10.9745    0.8575   25.7560 H   0  0  0  0  0  0  0  0  0  0  0  0
   11.7867   -0.6728   25.6705 H   0  0  0  0  0  0  0  0  0  0  0  0
    9.7044   -2.1027   26.2093 H   0  0  0  0  0  0  0  0  0  0  0  0
  1  2  2  0
  2  3  1  0
  3  4  2  0
  4  5  1  0
  5  6  1  0
  6  7  2  0
  7  8  1  0
  8  9  2  0
  9 10  1  0
 10 11  1  0
 11 12  1  0
 12 13  1  0
 13 14  2  0
 14 15  1  0
 15 16  2  0
 16 17  1  0
 17 18  2  0
 18 19  1  0
 16 20  1  0
 15 21  1  0
 14 22  1  0
 12 23  1  0
 12 24  1  0
 10 25  1  0
 10 26  1  0
  8 27  1  0
  4 28  1  0
 28 29  2  0
 29 30  1  0
 28 31  1  0
  3 32  1  0
  2 33  1  0
  1 34  1  0
 29  1  1  0
  9  5  1  0
 18 13  1  0
M  END
>  <cnnaffinity>  (1) 
4.73162

>  <plip>  (1) 
-0.06896551724137931

>  <filename>  (1) 
[H][c]1[n][c]([H])[c]([C]([H])([H])[S][C]([H])([H])[c]2[c]([H])[n][n][n]2-[c]2[c]([H])[c]([H])[c]([H])[c]([H])[c]2[H])[c]([H])[c]1[H]

>  <combo1>  (1) 
-0.3852112587764311

$$$$
