
     RDKit          3D

 35 37  0  0  0  0  0  0  0  0999 V2000
    5.5965   -2.2508   21.1677 O   0  0  0  0  0  0  0  0  0  0  0  0
    6.6905   -1.8252   21.4925 C   0  0  0  0  0  0  0  0  0  0  0  0
    7.4854   -2.5758   22.5977 C   0  0  0  0  0  0  0  0  0  0  0  0
    8.7512   -1.9917   23.1041 N   0  0  0  0  0  0  0  0  0  0  0  0
    8.8034   -1.6023   24.4427 C   0  0  0  0  0  0  0  0  0  0  0  0
    8.8685   -0.2998   24.6578 N   0  0  0  0  0  0  0  0  0  0  0  0
    8.7476    0.1459   25.9099 C   0  0  0  0  0  0  0  0  0  0  0  0
    8.7856    1.6950   26.0314 C   0  0  0  0  0  0  0  0  0  0  0  0
    8.1283    2.2907   25.0144 F   0  0  0  0  0  0  0  0  0  0  0  0
   10.0570    2.1199   25.9656 F   0  0  0  0  0  0  0  0  0  0  0  0
    8.2691    2.1722   27.1685 F   0  0  0  0  0  0  0  0  0  0  0  0
    8.6970   -0.6399   26.9881 N   0  0  0  0  0  0  0  0  0  0  0  0
    8.7272   -1.9624   26.7773 C   0  0  0  0  0  0  0  0  0  0  0  0
    8.7538   -2.5213   25.5075 C   0  0  0  0  0  0  0  0  0  0  0  0
    8.7638   -4.2330   25.2666 Cl  0  0  0  0  0  0  0  0  0  0  0  0
    8.7151   -2.6082   27.6531 H   0  0  0  0  0  0  0  0  0  0  0  0
    9.4537   -1.1594   22.1149 C   0  0  0  0  0  0  0  0  0  0  0  0
    8.5346   -0.1231   21.4502 C   0  0  0  0  0  0  0  0  0  0  0  0
    7.3244   -0.7467   20.8799 N   0  0  0  0  0  0  0  0  0  0  0  0
    6.6436   -0.0263   19.8376 C   0  0  0  0  0  0  0  0  0  0  0  0
    5.4255    0.6143   20.0941 C   0  0  0  0  0  0  0  0  0  0  0  0
    4.8174    1.3171   19.0478 C   0  0  0  0  0  0  0  0  0  0  0  0
    5.4301    1.3389   17.7907 C   0  0  0  0  0  0  0  0  0  0  0  0
    6.5929    0.7196   17.5262 N   0  0  0  0  0  0  0  0  0  0  0  0
    7.1821    0.0683   18.5387 C   0  0  0  0  0  0  0  0  0  0  0  0
    8.1254   -0.4329   18.3210 H   0  0  0  0  0  0  0  0  0  0  0  0
    4.9744    1.8733   16.9593 H   0  0  0  0  0  0  0  0  0  0  0  0
    3.8854    1.8502   19.1986 H   0  0  0  0  0  0  0  0  0  0  0  0
    4.9800    0.5563   21.0868 H   0  0  0  0  0  0  0  0  0  0  0  0
    9.0841    0.3611   20.6372 H   0  0  0  0  0  0  0  0  0  0  0  0
    8.2884    0.6656   22.1776 H   0  0  0  0  0  0  0  0  0  0  0  0
    9.8897   -1.8070   21.3372 H   0  0  0  0  0  0  0  0  0  0  0  0
   10.2648   -0.6287   22.6255 H   0  0  0  0  0  0  0  0  0  0  0  0
    7.6321   -3.5807   22.1796 H   0  0  0  0  0  0  0  0  0  0  0  0
    6.7646   -2.7137   23.4100 H   0  0  0  0  0  0  0  0  0  0  0  0
  1  2  2  0
  2  3  1  0
  3  4  1  0
  4  5  1  0
  5  6  2  0
  6  7  1  0
  7  8  1  0
  8  9  1  0
  8 10  1  0
  8 11  1  0
  7 12  2  0
 12 13  1  0
 13 14  2  0
 14 15  1  0
 13 16  1  0
  4 17  1  0
 17 18  1  0
 18 19  1  0
 19 20  1  0
 20 21  2  0
 21 22  1  0
 22 23  2  0
 23 24  1  0
 24 25  2  0
 25 26  1  0
 23 27  1  0
 22 28  1  0
 21 29  1  0
 18 30  1  0
 18 31  1  0
 17 32  1  0
 17 33  1  0
  3 34  1  0
  3 35  1  0
 19  2  1  0
 25 20  1  0
 14  5  1  0
M  END
>  <cnnaffinity>  (1) 
5.5597

>  <plip>  (1) 
-0.07142857142857142

>  <filename>  (1) 
[H][c]1[n][c]([H])[c]([N]2[C](=[O])[C]([H])([H])[N]([c]3[n][c]([C]([F])([F])[F])[n][c]([H])[c]3[Cl])[C]([H])([H])[C]2([H])[H])[c]([H])[c]1[H]

>  <combo1>  (1) 
-0.37004556465144695

$$$$
