
     RDKit          3D

 28 30  0  0  0  0  0  0  0  0999 V2000
    8.8275   -4.8074   26.3021 H   0  0  0  0  0  0  0  0  0  0  0  0
    8.2660   -4.5073   25.4273 C   0  0  0  0  0  0  0  0  0  0  0  0
    7.2638   -5.0693   24.7617 C   0  0  0  0  0  0  0  0  0  0  0  0
    6.6974   -5.9794   24.8891 H   0  0  0  0  0  0  0  0  0  0  0  0
    6.8694   -4.2061   23.6187 C   0  0  0  0  0  0  0  0  0  0  0  0
    5.9977   -4.4494   22.8349 O   0  0  0  0  0  0  0  0  0  0  0  0
    7.7348   -3.0809   23.6684 N   0  0  0  0  0  0  0  0  0  0  0  0
    7.7550   -2.0223   22.7555 N   0  0  0  0  0  0  0  0  0  0  0  0
    6.8013   -1.6341   21.7846 C   0  0  0  0  0  0  0  0  0  0  0  0
    5.6885   -2.0368   21.6014 O   0  0  0  0  0  0  0  0  0  0  0  0
    7.4287   -0.6709   20.9711 N   0  0  0  0  0  0  0  0  0  0  0  0
    6.7461    0.0174   19.9006 C   0  0  0  0  0  0  0  0  0  0  0  0
    7.2388    0.0593   18.5764 C   0  0  0  0  0  0  0  0  0  0  0  0
    8.1830   -0.4337   18.3488 H   0  0  0  0  0  0  0  0  0  0  0  0
    6.5874    0.6624   17.5737 N   0  0  0  0  0  0  0  0  0  0  0  0
    5.4262    1.2744   17.8612 C   0  0  0  0  0  0  0  0  0  0  0  0
    4.9382    1.7785   17.0318 H   0  0  0  0  0  0  0  0  0  0  0  0
    4.8488    1.2842   19.1362 C   0  0  0  0  0  0  0  0  0  0  0  0
    3.9057    1.8008   19.3028 H   0  0  0  0  0  0  0  0  0  0  0  0
    5.5141    0.6232   20.1745 C   0  0  0  0  0  0  0  0  0  0  0  0
    5.0868    0.5508   21.1744 H   0  0  0  0  0  0  0  0  0  0  0  0
    8.7877   -0.6287   21.2322 C   0  0  0  0  0  0  0  0  0  0  0  0
    9.6153   -0.0383   20.5849 O   0  0  0  0  0  0  0  0  0  0  0  0
    9.0570   -1.4925   22.4219 C   0  0  0  0  0  0  0  0  0  0  0  0
    9.7317   -2.2963   22.1373 H   0  0  0  0  0  0  0  0  0  0  0  0
    9.5064   -0.9422   23.2478 H   0  0  0  0  0  0  0  0  0  0  0  0
    8.5869   -3.2035   24.7969 C   0  0  0  0  0  0  0  0  0  0  0  0
    9.4118   -2.4099   25.1743 O   0  0  0  0  0  0  0  0  0  0  0  0
  1  2  1  0
  2  3  2  0
  3  4  1  0
  3  5  1  0
  5  6  2  0
  5  7  1  0
  7  8  1  0
  8  9  1  0
  9 10  2  0
  9 11  1  0
 11 12  1  0
 12 13  2  0
 13 14  1  0
 13 15  1  0
 15 16  2  0
 16 17  1  0
 16 18  1  0
 18 19  1  0
 18 20  2  0
 20 21  1  0
 11 22  1  0
 22 23  2  0
 22 24  1  0
 24 25  1  0
 24 26  1  0
  7 27  1  0
 27 28  2  0
 27  2  1  0
 24  8  1  0
 20 12  1  0
M  END
>  <cnnaffinity>  (1) 
5.07862

>  <plip>  (1) 
-0.14285714285714285

>  <filename>  (1) 
[H][C]1=[C]([H])[C](=[O])[N]([N]2[C](=[O])[N]([c]3[c]([H])[n][c]([H])[c]([H])[c]3[H])[C](=[O])[C]2([H])[H])[C]1=[O]

>  <combo1>  (1) 
-0.8883955904013207

$$$$
