
     RDKit          3D

 27 29  0  0  0  0  0  0  0  0999 V2000
    4.9807    1.8649   17.0292 H   0  0  0  0  0  0  0  0  0  0  0  0
    5.4510    1.3053   17.8339 C   0  0  0  0  0  0  0  0  0  0  0  0
    6.6182    0.7073   17.5458 N   0  0  0  0  0  0  0  0  0  0  0  0
    7.2387    0.0369   18.5236 C   0  0  0  0  0  0  0  0  0  0  0  0
    8.1916   -0.4274   18.2585 H   0  0  0  0  0  0  0  0  0  0  0  0
    6.7111   -0.1015   19.8329 C   0  0  0  0  0  0  0  0  0  0  0  0
    7.4055   -0.7849   20.8648 N   0  0  0  0  0  0  0  0  0  0  0  0
    6.8323   -1.6596   21.7914 C   0  0  0  0  0  0  0  0  0  0  0  0
    5.7837   -2.2458   21.7631 O   0  0  0  0  0  0  0  0  0  0  0  0
    7.7653   -1.8243   22.7881 N   0  0  0  0  0  0  0  0  0  0  0  0
    7.6464   -2.5796   23.4368 H   0  0  0  0  0  0  0  0  0  0  0  0
    9.0139   -1.4234   22.4268 C   0  0  0  0  0  0  0  0  0  0  0  0
   10.0184   -1.7190   23.0093 O   0  0  0  0  0  0  0  0  0  0  0  0
    8.8340   -0.6006   21.1568 C   0  0  2  0  0  0  0  0  0  0  0  0
    9.4907   -1.0391   20.3945 H   0  0  0  0  0  0  0  0  0  0  0  0
    9.3132    0.7989   21.3830 C   0  0  0  0  0  0  0  0  0  0  0  0
   10.4668    1.2168   20.9426 N   0  0  0  0  0  0  0  0  0  0  0  0
   10.6040    2.5015   21.4054 C   0  0  0  0  0  0  0  0  0  0  0  0
   11.4931    3.0884   21.2008 H   0  0  0  0  0  0  0  0  0  0  0  0
    9.5090    2.8611   22.1357 C   0  0  0  0  0  0  0  0  0  0  0  0
    9.2606    3.8036   22.6084 H   0  0  0  0  0  0  0  0  0  0  0  0
    8.6821    1.7535   22.1203 N   0  0  0  0  0  0  0  0  0  0  0  0
    7.8196    1.6148   22.6241 H   0  0  0  0  0  0  0  0  0  0  0  0
    5.4753    0.5046   20.1083 C   0  0  0  0  0  0  0  0  0  0  0  0
    5.0375    0.4075   21.1024 H   0  0  0  0  0  0  0  0  0  0  0  0
    4.8502    1.2333   19.0949 C   0  0  0  0  0  0  0  0  0  0  0  0
    3.9261    1.7665   19.2832 H   0  0  0  0  0  0  0  0  0  0  0  0
  1  2  1  0
  2  3  2  0
  3  4  1  0
  4  5  1  0
  4  6  2  0
  6  7  1  0
  7  8  1  0
  8  9  2  0
  8 10  1  0
 10 11  1  0
 10 12  1  0
 12 13  2  0
 12 14  1  0
 14 15  1  6
 14 16  1  0
 16 17  2  0
 17 18  1  0
 18 19  1  0
 18 20  2  0
 20 21  1  0
 20 22  1  0
 22 23  1  0
  6 24  1  0
 24 25  1  0
 24 26  2  0
 26 27  1  0
 26  2  1  0
 14  7  1  0
 22 16  1  0
M  END
>  <cnnaffinity>  (1) 
4.65361

>  <plip>  (1) 
-0.07142857142857142

>  <filename>  (1) 
[H][c]1[n][c]([H])[c]([N]2[C](=[O])[N]([H])[C](=[O])[C@]2([H])[c]2[n][c]([H])[c]([H])[n]2[H])[c]([H])[c]1[H]

>  <combo1>  (1) 
-0.455544382982239

$$$$
