
     RDKit          3D

 46 49  0  0  0  0  0  0  0  0999 V2000
    5.8017   -2.5827   21.5498 C   0  0  0  0  0  0  0  0  0  0  0  0
    6.6053   -1.4397   21.9444 N   0  0  0  0  0  0  0  0  0  0  0  0
    6.6937   -0.9538   23.2214 C   0  0  0  0  0  0  0  0  0  0  0  0
    6.1652   -1.3680   24.2281 O   0  0  0  0  0  0  0  0  0  0  0  0
    7.5495    0.1391   23.2066 N   0  0  0  0  0  0  0  0  0  0  0  0
    7.6668    1.0717   24.3217 C   0  0  0  0  0  0  0  0  0  0  0  0
    6.5075    2.0891   24.3962 C   0  0  0  0  0  0  0  0  0  0  0  0
    6.5643    2.9431   25.6818 C   0  0  0  0  0  0  0  0  0  0  0  0
    5.3099    3.8239   25.8048 C   0  0  0  0  0  0  0  0  0  0  0  0
    4.9468    4.5667   24.5237 C   0  0  0  0  0  0  0  0  0  0  0  0
    4.0459    5.6452   24.5653 C   0  0  0  0  0  0  0  0  0  0  0  0
    3.6579    6.3164   23.4015 C   0  0  0  0  0  0  0  0  0  0  0  0
    4.1755    5.9088   22.1659 C   0  0  0  0  0  0  0  0  0  0  0  0
    5.0731    4.8402   22.1182 C   0  0  0  0  0  0  0  0  0  0  0  0
    5.4691    4.1599   23.2788 C   0  0  0  0  0  0  0  0  0  0  0  0
    6.4809    3.0299   23.1701 C   0  0  0  0  0  0  0  0  0  0  0  0
    7.4860    3.4602   23.0210 H   0  0  0  0  0  0  0  0  0  0  0  0
    6.2888    2.4612   22.2502 H   0  0  0  0  0  0  0  0  0  0  0  0
    5.4828    4.5076   21.1663 H   0  0  0  0  0  0  0  0  0  0  0  0
    3.8868    6.4112   21.2445 H   0  0  0  0  0  0  0  0  0  0  0  0
    2.9593    7.1488   23.4567 H   0  0  0  0  0  0  0  0  0  0  0  0
    3.6516    5.9556   25.5322 H   0  0  0  0  0  0  0  0  0  0  0  0
    5.4285    4.5435   26.6228 H   0  0  0  0  0  0  0  0  0  0  0  0
    4.4510    3.1983   26.0917 H   0  0  0  0  0  0  0  0  0  0  0  0
    6.6548    2.3026   26.5699 H   0  0  0  0  0  0  0  0  0  0  0  0
    7.4639    3.5794   25.6637 H   0  0  0  0  0  0  0  0  0  0  0  0
    5.5689    1.5102   24.4169 H   0  0  0  0  0  0  0  0  0  0  0  0
    7.6960    0.4649   25.2315 H   0  0  0  0  0  0  0  0  0  0  0  0
    8.6287    1.5844   24.2004 H   0  0  0  0  0  0  0  0  0  0  0  0
    8.0737    0.3566   21.9676 C   0  0  0  0  0  0  0  0  0  0  0  0
    8.8940    1.2008   21.6915 O   0  0  0  0  0  0  0  0  0  0  0  0
    7.4265   -0.6731   21.0182 C   0  0  0  0  0  0  0  0  0  0  0  0
    6.6390   -0.0132   19.8899 C   0  0  0  0  0  0  0  0  0  0  0  0
    5.4312    0.6514   20.1397 C   0  0  0  0  0  0  0  0  0  0  0  0
    4.8024    1.3178   19.0879 C   0  0  0  0  0  0  0  0  0  0  0  0
    5.3951    1.2989   17.8229 C   0  0  0  0  0  0  0  0  0  0  0  0
    6.5519    0.6699   17.5592 N   0  0  0  0  0  0  0  0  0  0  0  0
    7.1489    0.0424   18.5829 C   0  0  0  0  0  0  0  0  0  0  0  0
    8.1106   -0.4225   18.3499 H   0  0  0  0  0  0  0  0  0  0  0  0
    4.9246    1.8019   16.9800 H   0  0  0  0  0  0  0  0  0  0  0  0
    3.8742    1.8505   19.2437 H   0  0  0  0  0  0  0  0  0  0  0  0
    4.9928    0.6469   21.1382 H   0  0  0  0  0  0  0  0  0  0  0  0
    8.2276   -1.2973   20.5851 H   0  0  0  0  0  0  0  0  0  0  0  0
    5.9501   -2.7472   20.4753 H   0  0  0  0  0  0  0  0  0  0  0  0
    6.0941   -3.4896   22.0918 H   0  0  0  0  0  0  0  0  0  0  0  0
    4.7331   -2.4225   21.7279 H   0  0  0  0  0  0  0  0  0  0  0  0
  1  2  1  0
  2  3  1  0
  3  4  2  0
  3  5  1  0
  5  6  1  0
  6  7  1  0
  7  8  1  0
  8  9  1  0
  9 10  1  0
 10 11  2  0
 11 12  1  0
 12 13  2  0
 13 14  1  0
 14 15  2  0
 15 16  1  0
 16 17  1  0
 16 18  1  0
 14 19  1  0
 13 20  1  0
 12 21  1  0
 11 22  1  0
  9 23  1  0
  9 24  1  0
  8 25  1  0
  8 26  1  0
  7 27  1  0
  6 28  1  0
  6 29  1  0
  5 30  1  0
 30 31  2  0
 30 32  1  0
 32 33  1  0
 33 34  2  0
 34 35  1  0
 35 36  2  0
 36 37  1  0
 37 38  2  0
 38 39  1  0
 36 40  1  0
 35 41  1  0
 34 42  1  0
 32 43  1  0
  1 44  1  0
  1 45  1  0
  1 46  1  0
 32  2  1  0
 38 33  1  0
 16  7  1  0
 15 10  1  0
M  END
>  <cnnaffinity>  (1) 
5.14008

>  <plip>  (1) 
-0.07142857142857142

>  <filename>  (1) 
[H][c]1[n][c]([H])[c]([C]2([H])[C](=[O])[N]([C]([H])([H])[C]3([H])[C]([H])([H])[c]4[c]([H])[c]([H])[c]([H])[c]([H])[c]4[C]([H])([H])[C]3([H])[H])[C](=[O])[N]2[C]([H])([H])[H])[c]([H])[c]1[H]

>  <combo1>  (1) 
-0.3648786612767686

$$$$
