
     RDKit          3D

 56 59  0  0  0  0  0  0  0  0999 V2000
    4.8113    1.3873   18.9182 C   0  0  0  0  0  0  0  0  0  0  0  0
    5.4468    1.2635   17.6782 C   0  0  0  0  0  0  0  0  0  0  0  0
    6.5701    0.5497   17.4986 N   0  0  0  0  0  0  0  0  0  0  0  0
    7.1074   -0.0381   18.5735 C   0  0  0  0  0  0  0  0  0  0  0  0
    6.5949    0.0817   19.8739 C   0  0  0  0  0  0  0  0  0  0  0  0
    7.3062   -0.5451   21.0473 C   0  0  0  0  0  0  0  0  0  0  0  0
    8.6976    0.0371   21.4112 C   0  0  0  0  0  0  0  0  0  0  0  0
    8.6879    1.3543   22.1270 N   0  0  0  0  0  4  0  0  0  0  0  0
    7.6430    1.6076   23.1993 C   0  0  0  0  0  0  0  0  0  0  0  0
    7.8730    3.0733   23.5077 C   0  0  0  0  0  0  0  0  0  0  0  0
    8.0416    3.6950   22.1113 C   0  0  0  0  0  0  0  0  0  0  0  0
    8.5967    2.5701   21.2231 C   0  0  0  0  0  0  0  0  0  0  0  0
    9.5776    2.8041   20.8000 H   0  0  0  0  0  0  0  0  0  0  0  0
    7.9137    2.3355   20.4059 H   0  0  0  0  0  0  0  0  0  0  0  0
    8.7083    4.5622   22.1196 H   0  0  0  0  0  0  0  0  0  0  0  0
    7.0764    4.0300   21.7128 H   0  0  0  0  0  0  0  0  0  0  0  0
    7.0626    3.5235   24.0894 H   0  0  0  0  0  0  0  0  0  0  0  0
    8.7952    3.1662   24.0959 H   0  0  0  0  0  0  0  0  0  0  0  0
    7.7760    0.9299   24.0482 H   0  0  0  0  0  0  0  0  0  0  0  0
    6.6419    1.4747   22.7731 H   0  0  0  0  0  0  0  0  0  0  0  0
    9.5981    1.4578   22.6315 H   0  0  0  0  0  0  0  0  0  0  0  0
    9.2672    0.1178   20.4753 H   0  0  0  0  0  0  0  0  0  0  0  0
    9.1999   -0.7220   22.0242 H   0  0  0  0  0  0  0  0  0  0  0  0
    7.3913   -2.0168   20.7124 N   0  0  0  0  0  4  0  0  0  0  0  0
    7.3323   -2.9194   21.8911 C   0  0  0  0  0  0  0  0  0  0  0  0
    8.3099   -4.1017   21.7994 C   0  0  0  0  0  0  0  0  0  0  0  0
    7.7226   -5.3965   22.3770 C   0  0  0  0  0  0  0  0  0  0  0  0
    6.9261   -5.1088   23.5779 N   0  0  0  0  0  0  0  0  0  0  0  0
    7.3504   -5.4676   24.8381 C   0  0  0  0  0  0  0  0  0  0  0  0
    6.5560   -5.2726   26.0354 C   0  0  0  0  0  0  0  0  0  0  0  0
    6.9849   -5.6045   27.2569 N   0  0  0  0  0  0  0  0  0  0  0  0
    8.2239   -6.1400   27.3255 C   0  0  0  0  0  0  0  0  0  0  0  0
    8.9909   -6.3435   26.1730 C   0  0  0  0  0  0  0  0  0  0  0  0
    8.5647   -6.0428   24.9346 N   0  0  0  0  0  0  0  0  0  0  0  0
    9.9906   -6.7568   26.2272 H   0  0  0  0  0  0  0  0  0  0  0  0
    8.5869   -6.4138   28.3151 H   0  0  0  0  0  0  0  0  0  0  0  0
    5.5503   -4.8716   25.9537 H   0  0  0  0  0  0  0  0  0  0  0  0
    5.8016   -4.1773   23.4179 C   0  0  0  0  0  0  0  0  0  0  0  0
    5.8986   -3.4212   22.0926 C   0  0  0  0  0  0  0  0  0  0  0  0
    5.2006   -2.5826   22.0999 H   0  0  0  0  0  0  0  0  0  0  0  0
    5.6289   -4.0649   21.2422 H   0  0  0  0  0  0  0  0  0  0  0  0
    4.8384   -4.7067   23.5054 H   0  0  0  0  0  0  0  0  0  0  0  0
    5.8397   -3.4407   24.2372 H   0  0  0  0  0  0  0  0  0  0  0  0
    8.4939   -6.1309   22.6071 H   0  0  0  0  0  0  0  0  0  0  0  0
    7.0602   -5.8478   21.6255 H   0  0  0  0  0  0  0  0  0  0  0  0
    9.2380   -3.8375   22.3156 H   0  0  0  0  0  0  0  0  0  0  0  0
    8.5386   -4.2774   20.7488 H   0  0  0  0  0  0  0  0  0  0  0  0
    7.6036   -2.3178   22.7705 H   0  0  0  0  0  0  0  0  0  0  0  0
    8.2560   -2.2012   20.1426 H   0  0  0  0  0  0  0  0  0  0  0  0
    6.5645   -2.1928   20.0769 H   0  0  0  0  0  0  0  0  0  0  0  0
    6.6760   -0.4497   21.9407 H   0  0  0  0  0  0  0  0  0  0  0  0
    5.3892    0.7842   20.0355 C   0  0  0  0  0  0  0  0  0  0  0  0
    4.9093    0.8404   21.0160 H   0  0  0  0  0  0  0  0  0  0  0  0
    8.0027   -0.6327   18.3847 H   0  0  0  0  0  0  0  0  0  0  0  0
    5.0387    1.7559   16.7969 H   0  0  0  0  0  0  0  0  0  0  0  0
    3.8957    1.9626   18.9949 H   0  0  0  0  0  0  0  0  0  0  0  0
  1  2  2  0
  2  3  1  0
  3  4  2  0
  4  5  1  0
  5  6  1  0
  6  7  1  0
  7  8  1  0
  8  9  1  0
  9 10  1  0
 10 11  1  0
 11 12  1  0
 12 13  1  0
 12 14  1  0
 11 15  1  0
 11 16  1  0
 10 17  1  0
 10 18  1  0
  9 19  1  0
  9 20  1  0
  8 21  1  0
  7 22  1  0
  7 23  1  0
  6 24  1  0
 24 25  1  0
 25 26  1  0
 26 27  1  0
 27 28  1  0
 28 29  1  0
 29 30  2  0
 30 31  1  0
 31 32  2  0
 32 33  1  0
 33 34  2  0
 33 35  1  0
 32 36  1  0
 30 37  1  0
 28 38  1  0
 38 39  1  0
 39 40  1  0
 39 41  1  0
 38 42  1  0
 38 43  1  0
 27 44  1  0
 27 45  1  0
 26 46  1  0
 26 47  1  0
 25 48  1  0
 24 49  1  0
 24 50  1  0
  6 51  1  0
  5 52  2  0
 52 53  1  0
  4 54  1  0
  2 55  1  0
  1 56  1  0
 52  1  1  0
 12  8  1  0
 39 25  1  0
 34 29  1  0
M  CHG  2   8   1  24   1
M  END
>  <cnnaffinity>  (1) 
4.51919

>  <plip>  (1) 
-0.1

>  <filename>  (1) 
[H][c]1[n][c]([H])[c]([N]2[C]([H])([H])[C]([H])([H])[C]([H])([N+]([H])([H])[C]([H])([c]3[c]([H])[n][c]([H])[c]([H])[c]3[H])[C]([H])([H])[N+]3([H])[C]([H])([H])[C]([H])([H])[C]([H])([H])[C]3([H])[H])[C]([H])([H])[C]2([H])[H])[n][c]1[H]

>  <combo1>  (1) 
-0.42493319266652024

$$$$
