
     RDKit          3D

 33 35  0  0  0  0  0  0  0  0999 V2000
    8.6842   -6.5818   26.7255 F   0  0  0  0  0  0  0  0  0  0  0  0
    8.4622   -5.6025   27.6299 C   0  0  0  0  0  0  0  0  0  0  0  0
    8.0155   -6.1814   28.7568 F   0  0  0  0  0  0  0  0  0  0  0  0
    9.6575   -5.0419   27.9147 F   0  0  0  0  0  0  0  0  0  0  0  0
    7.4900   -4.5999   27.0573 C   0  0  0  0  0  0  0  0  0  0  0  0
    6.1572   -4.5266   27.4913 C   0  0  0  0  0  0  0  0  0  0  0  0
    5.2555   -3.7080   26.8024 C   0  0  0  0  0  0  0  0  0  0  0  0
    5.6432   -3.0214   25.6499 C   0  0  0  0  0  0  0  0  0  0  0  0
    6.9810   -3.0929   25.2205 C   0  0  0  0  0  0  0  0  0  0  0  0
    7.4561   -2.4648   23.9746 C   0  0  0  0  0  0  0  0  0  0  0  0
    8.6654   -2.4436   23.5060 N   0  0  0  0  0  0  0  0  0  0  0  0
    8.6241   -1.7680   22.3034 N   0  0  0  0  0  0  0  0  0  0  0  0
    7.3873   -1.4329   22.1236 C   0  0  0  0  0  0  0  0  0  0  0  0
    6.7276   -0.7151   21.0584 C   0  0  0  0  0  0  0  0  0  0  0  0
    7.3118   -0.2042   19.9687 C   0  0  0  0  0  0  0  0  0  0  0  0
    6.5942    0.6140   18.9771 C   0  0  0  0  0  0  0  0  0  0  0  0
    5.3553    1.2593   19.1855 C   0  0  0  0  0  0  0  0  0  0  0  0
    4.7826    1.9573   18.1209 C   0  0  0  0  0  0  0  0  0  0  0  0
    5.4375    1.9834   16.8869 C   0  0  0  0  0  0  0  0  0  0  0  0
    6.6163    1.3755   16.6663 N   0  0  0  0  0  0  0  0  0  0  0  0
    7.1658    0.7364   17.6991 C   0  0  0  0  0  0  0  0  0  0  0  0
    8.1217    0.2520   17.4985 H   0  0  0  0  0  0  0  0  0  0  0  0
    4.9987    2.5041   16.0387 H   0  0  0  0  0  0  0  0  0  0  0  0
    3.8419    2.4866   18.2251 H   0  0  0  0  0  0  0  0  0  0  0  0
    4.8507    1.2340   20.1542 H   0  0  0  0  0  0  0  0  0  0  0  0
    8.3688   -0.4124   19.7561 H   0  0  0  0  0  0  0  0  0  0  0  0
    5.6600   -0.6125   21.2050 H   0  0  0  0  0  0  0  0  0  0  0  0
    6.5873   -1.8434   23.1418 O   0  0  0  0  0  0  0  0  0  0  0  0
    7.9112   -3.8308   25.9689 C   0  0  0  0  0  0  0  0  0  0  0  0
    8.9617   -3.8059   25.6772 H   0  0  0  0  0  0  0  0  0  0  0  0
    4.9238   -2.4503   25.0638 H   0  0  0  0  0  0  0  0  0  0  0  0
    4.2341   -3.6081   27.1610 H   0  0  0  0  0  0  0  0  0  0  0  0
    5.8089   -5.1137   28.3426 H   0  0  0  0  0  0  0  0  0  0  0  0
  1  2  1  0
  2  3  1  0
  2  4  1  0
  2  5  1  0
  5  6  2  0
  6  7  1  0
  7  8  2  0
  8  9  1  0
  9 10  1  0
 10 11  2  0
 11 12  1  0
 12 13  2  0
 13 14  1  0
 14 15  2  3
 15 16  1  0
 16 17  2  0
 17 18  1  0
 18 19  2  0
 19 20  1  0
 20 21  2  0
 21 22  1  0
 19 23  1  0
 18 24  1  0
 17 25  1  0
 15 26  1  0
 14 27  1  0
 13 28  1  0
  9 29  2  0
 29 30  1  0
  8 31  1  0
  7 32  1  0
  6 33  1  0
 29  5  1  0
 28 10  1  0
 21 16  1  0
M  END
>  <cnnaffinity>  (1) 
5.15005

>  <plip>  (1) 
-0.03571428571428571

>  <filename>  (1) 
[H][C](=[C]([H])[c]1[c]([H])[n][c]([H])[c]([H])[c]1[H])[c]1[n][n][c](-[c]2[c]([H])[c]([H])[c]([H])[c]([C]([F])([F])[F])[c]2[H])[o]1

>  <combo1>  (1) 
-0.1932427240130459

$$$$
