
     RDKit          3D

 29 30  0  0  0  0  0  0  0  0999 V2000
    4.9241    1.8320   16.9549 H   0  0  0  0  0  0  0  0  0  0  0  0
    5.3804    1.3103   17.7933 C   0  0  0  0  0  0  0  0  0  0  0  0
    6.5328    0.6695   17.5374 N   0  0  0  0  0  0  0  0  0  0  0  0
    7.1468    0.0767   18.5680 C   0  0  0  0  0  0  0  0  0  0  0  0
    8.0783   -0.4369   18.3219 H   0  0  0  0  0  0  0  0  0  0  0  0
    6.6704    0.0960   19.8968 C   0  0  0  0  0  0  0  0  0  0  0  0
    7.4486   -0.4906   21.0485 C   0  0  0  0  0  0  0  0  0  0  0  0
    8.0190   -1.3851   20.7757 H   0  0  0  0  0  0  0  0  0  0  0  0
    6.8079   -0.7814   21.8854 H   0  0  0  0  0  0  0  0  0  0  0  0
    8.7937    0.5069   21.8324 S   0  0  0  0  0  4  0  0  0  0  0  0
    9.0319   -0.2075   23.1343 O   0  0  0  0  0  0  0  0  0  0  0  0
    7.9701    2.0895   22.2095 C   0  0  0  0  0  0  0  0  0  0  0  0
    8.4844    3.1946   21.5314 C   0  0  0  0  0  0  0  0  0  0  0  0
    9.3052    3.0452   20.8353 H   0  0  0  0  0  0  0  0  0  0  0  0
    7.9457    4.4707   21.7214 C   0  0  0  0  0  0  0  0  0  0  0  0
    8.4074    5.3243   21.2319 H   0  0  0  0  0  0  0  0  0  0  0  0
    6.8465    4.6439   22.5525 C   0  0  0  0  0  0  0  0  0  0  0  0
    6.3750    5.6179   22.6575 H   0  0  0  0  0  0  0  0  0  0  0  0
    6.3811    3.5464   23.2851 C   0  0  0  0  0  0  0  0  0  0  0  0
    5.5558    3.6921   23.9710 H   0  0  0  0  0  0  0  0  0  0  0  0
    6.9754    2.2728   23.2003 C   0  0  0  0  0  0  0  0  0  0  0  0
    6.6142    1.2060   24.2024 C   0  0  0  0  0  0  0  0  0  0  0  0
    5.7710    1.5003   24.8311 H   0  0  0  0  0  0  0  0  0  0  0  0
    6.3362    0.2770   23.7029 H   0  0  0  0  0  0  0  0  0  0  0  0
    7.4688    0.9782   24.8522 H   0  0  0  0  0  0  0  0  0  0  0  0
    5.4231    0.6999   20.1139 C   0  0  0  0  0  0  0  0  0  0  0  0
    4.9557    0.6729   21.0995 H   0  0  0  0  0  0  0  0  0  0  0  0
    4.7757    1.3325   19.0517 C   0  0  0  0  0  0  0  0  0  0  0  0
    3.8348    1.8546   19.1903 H   0  0  0  0  0  0  0  0  0  0  0  0
  1  2  1  0
  2  3  2  0
  3  4  1  0
  4  5  1  0
  4  6  2  0
  6  7  1  0
  7  8  1  0
  7  9  1  0
 10  7  1  1
 10 11  2  0
 10 12  1  0
 12 13  2  0
 13 14  1  0
 13 15  1  0
 15 16  1  0
 15 17  2  0
 17 18  1  0
 17 19  1  0
 19 20  1  0
 19 21  2  0
 21 22  1  0
 22 23  1  0
 22 24  1  0
 22 25  1  0
  6 26  1  0
 26 27  1  0
 26 28  2  0
 28 29  1  0
 28  2  1  0
 21 12  1  0
M  END
>  <cnnaffinity>  (1) 
4.29553

>  <plip>  (1) 
-0.03571428571428571

>  <filename>  (1) 
[H][c]1[n][c]([H])[c]([C]([H])([H])[S@@](=[O])[c]2[c]([H])[c]([H])[c]([H])[c]([H])[c]2[C]([H])([H])[H])[c]([H])[c]1[H]

>  <combo1>  (1) 
-0.2210671878988496

$$$$
