
     RDKit          3D

 37 39  0  0  0  0  0  0  0  0999 V2000
    4.8945   -6.2351   23.1883 C   0  0  0  0  0  0  0  0  0  0  0  0
    3.8489   -5.1138   23.2935 C   0  0  0  0  0  0  0  0  0  0  0  0
    4.2391   -4.1102   24.3498 C   0  0  0  0  0  0  0  0  0  0  0  0
    3.8239   -4.2446   25.6806 C   0  0  0  0  0  0  0  0  0  0  0  0
    4.2465   -3.3006   26.6137 C   0  0  0  0  0  0  0  0  0  0  0  0
    5.0634   -2.2508   26.1860 C   0  0  0  0  0  0  0  0  0  0  0  0
    5.4601   -2.1852   24.8300 C   0  0  0  0  0  0  0  0  0  0  0  0
    6.3649   -0.9875   24.3481 C   0  0  0  0  0  0  0  0  0  0  0  0
    6.7278   -0.1162   25.1304 O   0  0  0  0  0  0  0  0  0  0  0  0
    6.7403   -0.9241   23.0346 N   0  0  0  0  0  0  0  0  0  0  0  0
    7.5775    0.0704   22.3697 C   0  0  0  0  0  0  0  0  0  0  0  0
    7.3708   -0.7124   21.0336 C   0  0  0  0  0  0  0  0  0  0  0  0
    8.5520   -1.2680   20.5722 F   0  0  0  0  0  0  0  0  0  0  0  0
    6.6636    0.0058   19.9181 C   0  0  0  0  0  0  0  0  0  0  0  0
    5.4434    0.6511   20.1599 C   0  0  0  0  0  0  0  0  0  0  0  0
    4.8097    1.3069   19.1055 C   0  0  0  0  0  0  0  0  0  0  0  0
    5.4102    1.2846   17.8427 C   0  0  0  0  0  0  0  0  0  0  0  0
    6.5721    0.6656   17.5910 N   0  0  0  0  0  0  0  0  0  0  0  0
    7.1831    0.0500   18.6097 C   0  0  0  0  0  0  0  0  0  0  0  0
    8.1278   -0.4303   18.3719 H   0  0  0  0  0  0  0  0  0  0  0  0
    4.9367    1.7825   16.9988 H   0  0  0  0  0  0  0  0  0  0  0  0
    3.8793    1.8376   19.2536 H   0  0  0  0  0  0  0  0  0  0  0  0
    5.0025    0.6379   21.1580 H   0  0  0  0  0  0  0  0  0  0  0  0
    6.5325   -1.7449   21.8392 C   0  0  0  0  0  0  0  0  0  0  0  0
    5.4818   -1.8521   21.5497 H   0  0  0  0  0  0  0  0  0  0  0  0
    6.9735   -2.7406   21.9180 H   0  0  0  0  0  0  0  0  0  0  0  0
    8.6110    0.0944   22.7240 H   0  0  0  0  0  0  0  0  0  0  0  0
    7.1884    1.0942   22.3949 H   0  0  0  0  0  0  0  0  0  0  0  0
    5.0608   -3.1369   23.9517 N   0  0  0  0  0  0  0  0  0  0  0  0
    5.4007   -1.4876   26.8785 H   0  0  0  0  0  0  0  0  0  0  0  0
    3.9480   -3.3878   27.6598 H   0  0  0  0  0  0  0  0  0  0  0  0
    3.2013   -5.0892   25.9577 H   0  0  0  0  0  0  0  0  0  0  0  0
    3.7605   -4.5793   22.3411 H   0  0  0  0  0  0  0  0  0  0  0  0
    2.8611   -5.5328   23.5290 H   0  0  0  0  0  0  0  0  0  0  0  0
    4.9960   -6.7677   24.1426 H   0  0  0  0  0  0  0  0  0  0  0  0
    4.6134   -6.9653   22.4226 H   0  0  0  0  0  0  0  0  0  0  0  0
    5.8790   -5.8256   22.9285 H   0  0  0  0  0  0  0  0  0  0  0  0
  1  2  1  0
  2  3  1  0
  3  4  2  0
  4  5  1  0
  5  6  2  0
  6  7  1  0
  7  8  1  0
  8  9  2  0
  8 10  1  0
 10 11  1  0
 11 12  1  0
 12 13  1  0
 12 14  1  0
 14 15  2  0
 15 16  1  0
 16 17  2  0
 17 18  1  0
 18 19  2  0
 19 20  1  0
 17 21  1  0
 16 22  1  0
 15 23  1  0
 12 24  1  0
 24 25  1  0
 24 26  1  0
 11 27  1  0
 11 28  1  0
  7 29  2  0
  6 30  1  0
  5 31  1  0
  4 32  1  0
  2 33  1  0
  2 34  1  0
  1 35  1  0
  1 36  1  0
  1 37  1  0
 29  3  1  0
 24 10  1  0
 19 14  1  0
M  END
>  <cnnaffinity>  (1) 
4.92069

>  <plip>  (1) 
-0.06666666666666667

>  <filename>  (1) 
[H][c]1[n][c]([H])[c]([C]2([F])[C]([H])([H])[N]([C](=[O])[c]3[n][c]([C]([H])([H])[C]([H])([H])[H])[c]([H])[c]([H])[c]3[H])[C]2([H])[H])[c]([H])[c]1[H]

>  <combo1>  (1) 
-0.3832465308201497

$$$$
