
     RDKit          3D

 57 60  0  0  0  0  0  0  0  0999 V2000
    7.3526    7.8124   26.1465 O   0  0  0  0  0  0  0  0  0  0  0  0
    7.9142    7.1453   25.2974 C   0  0  0  0  0  0  0  0  0  0  0  0
    7.7500    5.7620   24.9867 C   0  0  0  0  0  0  0  0  0  0  0  0
    8.3960    5.2573   23.8795 C   0  0  0  0  0  0  0  0  0  0  0  0
    8.2680    3.9745   23.4443 N   0  0  0  0  0  0  0  0  0  0  0  0
    8.4960    3.6820   22.0194 C   0  0  0  0  0  0  0  0  0  0  0  0
    7.5882    2.5505   21.5550 C   0  0  0  0  0  0  0  0  0  0  0  0
    7.6982    1.2852   22.4221 C   0  0  0  0  0  0  0  0  0  0  0  0
    8.3352    0.1416   21.6465 N   0  0  0  0  0  4  0  0  0  0  0  0
    7.4183   -0.8546   20.9660 C   0  0  0  0  0  0  0  0  0  0  0  0
    6.5866   -1.6076   22.0241 C   0  0  0  0  0  0  0  0  0  0  0  0
    5.7628   -2.7574   21.5300 N   0  0  0  0  0  4  0  0  0  0  0  0
    6.5521   -3.8515   20.8515 C   0  0  0  0  0  0  0  0  0  0  0  0
    5.7004   -5.1083   20.9762 C   0  0  0  0  0  0  0  0  0  0  0  0
    4.8173   -4.8921   22.2217 C   0  0  0  0  0  0  0  0  0  0  0  0
    5.0039   -3.4296   22.6473 C   0  0  0  0  0  0  0  0  0  0  0  0
    4.0623   -2.9105   22.8403 H   0  0  0  0  0  0  0  0  0  0  0  0
    5.6092   -3.3556   23.5564 H   0  0  0  0  0  0  0  0  0  0  0  0
    3.7670   -5.1122   22.0204 H   0  0  0  0  0  0  0  0  0  0  0  0
    5.1138   -5.5576   23.0362 H   0  0  0  0  0  0  0  0  0  0  0  0
    5.1107   -5.2349   20.0645 H   0  0  0  0  0  0  0  0  0  0  0  0
    6.3423   -5.9909   21.0644 H   0  0  0  0  0  0  0  0  0  0  0  0
    6.7464   -3.5712   19.8169 H   0  0  0  0  0  0  0  0  0  0  0  0
    7.5110   -3.9572   21.3680 H   0  0  0  0  0  0  0  0  0  0  0  0
    5.0811   -2.3604   20.8409 H   0  0  0  0  0  0  0  0  0  0  0  0
    5.9709   -0.8928   22.5774 H   0  0  0  0  0  0  0  0  0  0  0  0
    7.3102   -1.9967   22.7527 H   0  0  0  0  0  0  0  0  0  0  0  0
    6.6445   -0.1058   19.8975 C   0  0  0  0  0  0  0  0  0  0  0  0
    5.4188    0.5434   20.1098 C   0  0  0  0  0  0  0  0  0  0  0  0
    4.8472    1.2622   19.0558 C   0  0  0  0  0  0  0  0  0  0  0  0
    5.5116    1.3073   17.8266 C   0  0  0  0  0  0  0  0  0  0  0  0
    6.6863    0.6987   17.6060 N   0  0  0  0  0  0  0  0  0  0  0  0
    7.2336    0.0320   18.6279 C   0  0  0  0  0  0  0  0  0  0  0  0
    8.1945   -0.4368   18.4100 H   0  0  0  0  0  0  0  0  0  0  0  0
    5.0850    1.8548   16.9861 H   0  0  0  0  0  0  0  0  0  0  0  0
    3.9157    1.8026   19.1787 H   0  0  0  0  0  0  0  0  0  0  0  0
    4.9318    0.5212   21.0886 H   0  0  0  0  0  0  0  0  0  0  0  0
    8.0312   -1.6091   20.4601 H   0  0  0  0  0  0  0  0  0  0  0  0
    9.0173   -0.3118   22.2810 H   0  0  0  0  0  0  0  0  0  0  0  0
    8.8849    0.6123   20.8933 H   0  0  0  0  0  0  0  0  0  0  0  0
    8.5226    1.5369   23.6838 C   0  0  0  0  0  0  0  0  0  0  0  0
    8.0861    2.8403   24.3658 C   0  0  0  0  0  0  0  0  0  0  0  0
    7.0306    2.7668   24.6792 H   0  0  0  0  0  0  0  0  0  0  0  0
    8.6809    3.0055   25.2747 H   0  0  0  0  0  0  0  0  0  0  0  0
    8.4347    0.6847   24.3650 H   0  0  0  0  0  0  0  0  0  0  0  0
    9.5794    1.6150   23.3932 H   0  0  0  0  0  0  0  0  0  0  0  0
    6.6880    0.9849   22.7113 H   0  0  0  0  0  0  0  0  0  0  0  0
    6.5486    2.8933   21.5682 H   0  0  0  0  0  0  0  0  0  0  0  0
    7.8255    2.3094   20.5174 H   0  0  0  0  0  0  0  0  0  0  0  0
    9.5539    3.4185   21.8707 H   0  0  0  0  0  0  0  0  0  0  0  0
    8.3270    4.5940   21.4410 H   0  0  0  0  0  0  0  0  0  0  0  0
    9.1874    6.0526   23.0823 N   0  0  0  0  0  0  0  0  0  0  0  0
    9.3848    7.2783   23.4093 C   0  0  0  0  0  0  0  0  0  0  0  0
    8.8545    7.8318   24.5082 N   0  0  0  0  0  0  0  0  0  0  0  0
    8.8725    8.8059   24.7518 H   0  0  0  0  0  0  0  0  0  0  0  0
    9.9987    7.8907   22.7540 H   0  0  0  0  0  0  0  0  0  0  0  0
    7.0383    5.1970   25.5586 H   0  0  0  0  0  0  0  0  0  0  0  0
  1  2  2  0
  2  3  1  0
  3  4  2  0
  4  5  1  0
  5  6  1  0
  6  7  1  0
  7  8  1  0
  8  9  1  0
  9 10  1  0
 10 11  1  0
 11 12  1  0
 12 13  1  0
 13 14  1  0
 14 15  1  0
 15 16  1  0
 16 17  1  0
 16 18  1  0
 15 19  1  0
 15 20  1  0
 14 21  1  0
 14 22  1  0
 13 23  1  0
 13 24  1  0
 12 25  1  0
 11 26  1  0
 11 27  1  0
 10 28  1  0
 28 29  2  0
 29 30  1  0
 30 31  2  0
 31 32  1  0
 32 33  2  0
 33 34  1  0
 31 35  1  0
 30 36  1  0
 29 37  1  0
 10 38  1  0
  9 39  1  0
  9 40  1  0
  8 41  1  0
 41 42  1  0
 42 43  1  0
 42 44  1  0
 41 45  1  0
 41 46  1  0
  8 47  1  0
  7 48  1  0
  7 49  1  0
  6 50  1  0
  6 51  1  0
  4 52  1  0
 52 53  2  0
 53 54  1  0
 54 55  1  0
 53 56  1  0
  3 57  1  0
 54  2  1  0
 42  5  1  0
 16 12  1  0
 33 28  1  0
M  CHG  2   9   1  12   1
M  END
>  <cnnaffinity>  (1) 
4.89466

>  <plip>  (1) 
-0.034482758620689655

>  <filename>  (1) 
[H][c]1[n][c]([H])[c]([C]([H])([C]([H])([H])[N+]2([H])[C]([H])([H])[C]([H])([H])[C]([H])([H])[C]2([H])[H])[N+]([H])([H])[C]2([H])[C]([H])([H])[C]([H])([H])[N]([c]3[n][c]([H])[n]([H])[c](=[O])[c]3[H])[C]([H])([H])[C]2([H])[H])[c]([H])[c]1[H]

>  <combo1>  (1) 
-0.1518496839957651

$$$$
