
     RDKit          3D

 34 36  0  0  0  0  0  0  0  0999 V2000
    4.9336    1.8493   16.9007 H   0  0  0  0  0  0  0  0  0  0  0  0
    5.4081    1.2837   17.6998 C   0  0  0  0  0  0  0  0  0  0  0  0
    6.5604    0.6668   17.3857 N   0  0  0  0  0  0  0  0  0  0  0  0
    7.1884   -0.0021   18.3592 C   0  0  0  0  0  0  0  0  0  0  0  0
    8.1286   -0.4892   18.1089 H   0  0  0  0  0  0  0  0  0  0  0  0
    6.6959   -0.0929   19.6783 C   0  0  0  0  0  0  0  0  0  0  0  0
    7.4506   -0.7223   20.7228 N   0  0  0  0  0  0  0  0  0  0  0  0
    8.6642   -0.2039   21.1901 C   0  0  0  0  0  0  0  0  0  0  0  0
    9.2253    0.7846   20.7967 O   0  0  0  0  0  0  0  0  0  0  0  0
    9.0953   -1.1075   22.1736 N   0  0  0  0  0  0  0  0  0  0  0  0
    9.8912   -0.5403   23.1761 O   0  0  0  0  0  0  0  0  0  0  0  0
   11.2493   -0.5266   22.8981 C   0  0  0  0  0  0  0  0  0  0  0  0
   12.0270    0.1805   23.8202 C   0  0  0  0  0  0  0  0  0  0  0  0
   11.5334    0.6716   24.6573 H   0  0  0  0  0  0  0  0  0  0  0  0
   13.4047    0.2295   23.6161 C   0  0  0  0  0  0  0  0  0  0  0  0
   14.0396    0.7708   24.3124 H   0  0  0  0  0  0  0  0  0  0  0  0
   13.9929   -0.4479   22.5385 C   0  0  0  0  0  0  0  0  0  0  0  0
   15.0613   -0.3883   22.4136 H   0  0  0  0  0  0  0  0  0  0  0  0
   13.2167   -1.1828   21.6280 C   0  0  0  0  0  0  0  0  0  0  0  0
   13.7882   -1.9110   20.4291 C   0  0  0  0  0  0  0  0  0  0  0  0
   14.7082   -2.4485   20.6692 H   0  0  0  0  0  0  0  0  0  0  0  0
   13.0556   -2.6135   20.0239 H   0  0  0  0  0  0  0  0  0  0  0  0
   14.0128   -1.2475   19.5929 H   0  0  0  0  0  0  0  0  0  0  0  0
   11.8310   -1.2009   21.8170 C   0  0  0  0  0  0  0  0  0  0  0  0
   11.1898   -1.7296   21.1178 H   0  0  0  0  0  0  0  0  0  0  0  0
    7.9509   -1.8166   22.7249 C   0  0  0  0  0  0  0  0  0  0  0  0
    7.5824   -1.3379   23.6367 H   0  0  0  0  0  0  0  0  0  0  0  0
    8.1505   -2.8687   22.9320 H   0  0  0  0  0  0  0  0  0  0  0  0
    6.9326   -1.6432   21.6300 C   0  0  0  0  0  0  0  0  0  0  0  0
    5.8695   -2.1991   21.5420 O   0  0  0  0  0  0  0  0  0  0  0  0
    5.4674    0.4979   19.9765 C   0  0  0  0  0  0  0  0  0  0  0  0
    5.0483    0.3912   20.9771 H   0  0  0  0  0  0  0  0  0  0  0  0
    4.8172    1.2132   18.9665 C   0  0  0  0  0  0  0  0  0  0  0  0
    3.8761    1.7177   19.1538 H   0  0  0  0  0  0  0  0  0  0  0  0
  1  2  1  0
  2  3  2  0
  3  4  1  0
  4  5  1  0
  4  6  2  0
  6  7  1  0
  7  8  1  0
  8  9  2  0
  8 10  1  0
 10 11  1  0
 11 12  1  0
 12 13  2  0
 13 14  1  0
 13 15  1  0
 15 16  1  0
 15 17  2  0
 17 18  1  0
 17 19  1  0
 19 20  1  0
 20 21  1  0
 20 22  1  0
 20 23  1  0
 19 24  2  0
 24 25  1  0
 10 26  1  0
 26 27  1  0
 26 28  1  0
 26 29  1  0
 29 30  2  0
  6 31  1  0
 31 32  1  0
 31 33  2  0
 33 34  1  0
 33  2  1  0
 29  7  1  0
 24 12  1  0
M  END
>  <cnnaffinity>  (1) 
5.35829

>  <plip>  (1) 
-0.13793103448275862

>  <filename>  (1) 
[H][c]1[n][c]([H])[c]([N]2[C](=[O])[N]([O][c]3[c]([H])[c]([H])[c]([H])[c]([C]([H])([H])[H])[c]3[H])[C]([H])([H])[C]2=[O])[c]([H])[c]1[H]

>  <combo1>  (1) 
-0.86964160346059

$$$$
