
     RDKit          3D

 32 34  0  0  0  0  0  0  0  0999 V2000
    5.0156    1.8527   17.0434 H   0  0  0  0  0  0  0  0  0  0  0  0
    5.5037    1.2837   17.8316 C   0  0  0  0  0  0  0  0  0  0  0  0
    6.6782    0.7134   17.5141 N   0  0  0  0  0  0  0  0  0  0  0  0
    7.3041    0.0233   18.4726 C   0  0  0  0  0  0  0  0  0  0  0  0
    8.2621   -0.4311   18.2288 H   0  0  0  0  0  0  0  0  0  0  0  0
    6.7922   -0.1686   19.7704 C   0  0  0  0  0  0  0  0  0  0  0  0
    7.5355   -0.9066   20.7216 N   0  0  0  0  0  0  0  0  0  0  0  0
    6.9398   -1.7127   21.6867 C   0  0  0  0  0  0  0  0  0  0  0  0
    5.8735   -2.2636   21.6004 O   0  0  0  0  0  0  0  0  0  0  0  0
    7.8344   -1.7585   22.7772 N   0  0  0  0  0  0  0  0  0  0  0  0
    7.4561   -2.2507   24.0362 N   0  0  0  0  0  0  0  0  0  0  0  0
    7.0386   -1.5560   24.6555 H   0  0  0  0  0  0  0  0  0  0  0  0
    8.2872   -3.1138   24.7692 C   0  0  0  0  0  0  0  0  0  0  0  0
    8.0303   -3.1715   26.1509 C   0  0  0  0  0  0  0  0  0  0  0  0
    7.2139   -2.5704   26.5567 H   0  0  0  0  0  0  0  0  0  0  0  0
    8.7913   -3.9944   26.9824 C   0  0  0  0  0  0  0  0  0  0  0  0
    8.6224   -4.0499   28.0525 H   0  0  0  0  0  0  0  0  0  0  0  0
    9.8021   -4.7663   26.4106 C   0  0  0  0  0  0  0  0  0  0  0  0
   10.5629   -5.5357   27.2028 F   0  0  0  0  0  0  0  0  0  0  0  0
   10.0475   -4.7624   25.0410 C   0  0  0  0  0  0  0  0  0  0  0  0
   10.8129   -5.4236   24.6465 H   0  0  0  0  0  0  0  0  0  0  0  0
    9.2829   -3.9303   24.2149 C   0  0  0  0  0  0  0  0  0  0  0  0
    9.4532   -3.8920   23.1429 H   0  0  0  0  0  0  0  0  0  0  0  0
    9.0455   -1.1508   22.4556 C   0  0  0  0  0  0  0  0  0  0  0  0
   10.0370   -1.0875   23.1342 O   0  0  0  0  0  0  0  0  0  0  0  0
    8.8972   -0.5732   21.0758 C   0  0  0  0  0  0  0  0  0  0  0  0
    9.0902    0.5029   21.1150 H   0  0  0  0  0  0  0  0  0  0  0  0
    9.6510   -1.0172   20.4165 H   0  0  0  0  0  0  0  0  0  0  0  0
    5.5579    0.4210   20.0880 C   0  0  0  0  0  0  0  0  0  0  0  0
    5.1239    0.2861   21.0792 H   0  0  0  0  0  0  0  0  0  0  0  0
    4.9149    1.1698   19.0977 C   0  0  0  0  0  0  0  0  0  0  0  0
    3.9700    1.6641   19.2967 H   0  0  0  0  0  0  0  0  0  0  0  0
  1  2  1  0
  2  3  2  0
  3  4  1  0
  4  5  1  0
  4  6  2  0
  6  7  1  0
  7  8  1  0
  8  9  2  0
  8 10  1  0
 10 11  1  0
 11 12  1  0
 11 13  1  0
 13 14  2  0
 14 15  1  0
 14 16  1  0
 16 17  1  0
 16 18  2  0
 18 19  1  0
 18 20  1  0
 20 21  1  0
 20 22  2  0
 22 23  1  0
 10 24  1  0
 24 25  2  0
 24 26  1  0
 26 27  1  0
 26 28  1  0
  6 29  1  0
 29 30  1  0
 29 31  2  0
 31 32  1  0
 31  2  1  0
 26  7  1  0
 22 13  1  0
M  END
>  <cnnaffinity>  (1) 
4.83646

>  <plip>  (1) 
-0.03571428571428571

>  <filename>  (1) 
[H][c]1[n][c]([H])[c]([N]2[C](=[O])[N]([N]([H])[c]3[c]([H])[c]([H])[c]([F])[c]([H])[c]3[H])[C](=[O])[C]2([H])[H])[c]([H])[c]1[H]

>  <combo1>  (1) 
-0.20113078312445337

$$$$
