
     RDKit          3D

 38 41  0  0  0  0  0  0  0  0999 V2000
    9.4911    1.0081   20.4052 O   0  0  0  0  0  0  0  0  0  0  0  0
    9.0605    1.2943   21.5161 C   0  0  0  0  0  0  0  0  0  0  0  0
    9.6490    2.4314   22.2994 C   0  0  0  0  0  0  0  0  0  0  0  0
    8.9534    3.2155   23.1651 N   0  0  0  0  0  0  0  0  0  0  0  0
    9.6180    4.2271   23.7431 C   0  0  0  0  0  0  0  0  0  0  0  0
   10.9902    4.4245   23.5110 C   0  0  0  0  0  0  0  0  0  0  0  0
   11.7111    3.6274   22.7002 N   0  0  0  0  0  0  0  0  0  0  0  0
   11.0406    2.6503   22.0884 C   0  0  0  0  0  0  0  0  0  0  0  0
   11.8478    1.9172   21.3294 O   0  0  0  0  0  0  0  0  0  0  0  0
   12.6714    2.4129   21.5172 H   0  0  0  0  0  0  0  0  0  0  0  0
   11.5246    5.2266   23.9930 H   0  0  0  0  0  0  0  0  0  0  0  0
    9.0588    4.8652   24.4213 H   0  0  0  0  0  0  0  0  0  0  0  0
    8.0319    0.5535   22.0688 N   0  0  0  0  0  0  0  0  0  0  0  0
    7.8222    0.3168   23.4986 C   0  0  0  0  0  0  0  0  0  0  0  0
    6.7778   -0.8113   23.5805 C   0  0  0  0  0  0  0  0  0  0  0  0
    6.6330   -1.3777   22.1646 C   0  0  2  0  0  0  0  0  0  0  0  0
    7.5652   -2.5523   21.7536 C   0  0  0  0  0  0  0  0  0  0  0  0
    8.3117   -1.5995   20.8038 C   0  0  0  0  0  0  0  0  0  0  0  0
    7.3821   -0.4313   21.2019 C   0  0  2  0  0  0  0  0  0  0  0  0
    6.6328    0.2077   20.0484 C   0  0  0  0  0  0  0  0  0  0  0  0
    5.3788    0.8145   20.1880 C   0  0  0  0  0  0  0  0  0  0  0  0
    4.7653    1.3646   19.0597 C   0  0  0  0  0  0  0  0  0  0  0  0
    5.4328    1.3062   17.8316 C   0  0  0  0  0  0  0  0  0  0  0  0
    6.6488    0.7653   17.6809 N   0  0  0  0  0  0  0  0  0  0  0  0
    7.2288    0.2559   18.7706 C   0  0  0  0  0  0  0  0  0  0  0  0
    8.2381   -0.1273   18.6272 H   0  0  0  0  0  0  0  0  0  0  0  0
    4.9827    1.7170   16.9317 H   0  0  0  0  0  0  0  0  0  0  0  0
    3.7965    1.8471   19.1167 H   0  0  0  0  0  0  0  0  0  0  0  0
    4.9056    0.8651   21.1711 H   0  0  0  0  0  0  0  0  0  0  0  0
    9.3548   -1.4062   21.0367 H   0  0  0  0  0  0  0  0  0  0  0  0
    8.2309   -1.8057   19.7483 H   0  0  0  0  0  0  0  0  0  0  0  0
    7.0366   -3.3682   21.2512 H   0  0  0  0  0  0  0  0  0  0  0  0
    8.1843   -2.9691   22.5577 H   0  0  0  0  0  0  0  0  0  0  0  0
    5.6084   -1.5865   21.8666 H   0  0  0  0  0  0  0  0  0  0  0  0
    7.0784   -1.5872   24.2961 H   0  0  0  0  0  0  0  0  0  0  0  0
    5.8385   -0.3923   23.9535 H   0  0  0  0  0  0  0  0  0  0  0  0
    8.7659    0.0271   23.9761 H   0  0  0  0  0  0  0  0  0  0  0  0
    7.4897    1.2338   23.9901 H   0  0  0  0  0  0  0  0  0  0  0  0
  1  2  2  0
  2  3  1  0
  3  4  2  0
  4  5  1  0
  5  6  2  0
  6  7  1  0
  7  8  2  0
  8  9  1  0
  9 10  1  0
  6 11  1  0
  5 12  1  0
  2 13  1  0
 13 14  1  0
 14 15  1  0
 15 16  1  0
 16 17  1  0
 17 18  1  0
 18 19  1  0
 19 20  1  6
 20 21  2  0
 21 22  1  0
 22 23  2  0
 23 24  1  0
 24 25  2  0
 25 26  1  0
 23 27  1  0
 22 28  1  0
 21 29  1  0
 18 30  1  0
 18 31  1  0
 17 32  1  0
 17 33  1  0
 16 34  1  6
 15 35  1  0
 15 36  1  0
 14 37  1  0
 14 38  1  0
  8  3  1  0
 19 13  1  0
 25 20  1  0
 19 16  1  0
M  END
>  <cnnaffinity>  (1) 
5.39703

>  <plip>  (1) 
-0.07142857142857142

>  <filename>  (1) 
[H][O][c]1[n][c]([H])[c]([H])[n][c]1[C](=[O])[N]1[C]([H])([H])[C]([H])([H])[C@]2([H])[C]([H])([H])[C]([H])([H])[C@]12[c]1[c]([H])[n][c]([H])[c]([H])[c]1[H]

>  <combo1>  (1) 
-0.4336405840978449

$$$$
