
     RDKit          3D

 30 32  0  0  0  0  0  0  0  0999 V2000
    5.9551   -4.6971   22.7965 H   0  0  0  0  0  0  0  0  0  0  0  0
    5.9680   -4.3643   21.7594 C   0  0  0  0  0  0  0  0  0  0  0  0
    6.1452   -3.0804   21.4326 C   0  0  0  0  0  0  0  0  0  0  0  0
    6.5539   -1.8343   22.6558 S   0  0  0  0  0  0  0  0  0  0  0  0
    8.0405   -1.1295   21.9989 C   0  0  0  0  0  0  0  0  0  0  0  0
    9.2382   -1.3304   22.5048 N   0  0  0  0  0  0  0  0  0  0  0  0
   10.1040   -0.6749   21.7052 N   0  0  0  0  0  0  0  0  0  0  0  0
    9.5037   -0.0804   20.7483 N   0  0  0  0  0  0  0  0  0  0  0  0
    8.1820   -0.3260   20.9049 N   0  0  0  0  0  0  0  0  0  0  0  0
    7.2345    0.2215   19.9880 C   0  0  0  0  0  0  0  0  0  0  0  0
    7.5516    0.2325   18.6178 C   0  0  0  0  0  0  0  0  0  0  0  0
    8.5034   -0.1803   18.2926 H   0  0  0  0  0  0  0  0  0  0  0  0
    6.7213    0.6763   17.6722 N   0  0  0  0  0  0  0  0  0  0  0  0
    5.5114    1.1162   18.0617 C   0  0  0  0  0  0  0  0  0  0  0  0
    4.8482    1.4756   17.2786 H   0  0  0  0  0  0  0  0  0  0  0  0
    5.1006    1.1235   19.3996 C   0  0  0  0  0  0  0  0  0  0  0  0
    4.0952    1.4493   19.6436 H   0  0  0  0  0  0  0  0  0  0  0  0
    5.9855    0.6902   20.3941 C   0  0  0  0  0  0  0  0  0  0  0  0
    5.6954    0.6869   21.4469 H   0  0  0  0  0  0  0  0  0  0  0  0
    6.0455   -2.5835   20.0137 C   0  0  0  0  0  0  0  0  0  0  0  0
    5.3809   -1.7191   19.9616 H   0  0  0  0  0  0  0  0  0  0  0  0
    7.0315   -2.1903   19.7805 H   0  0  0  0  0  0  0  0  0  0  0  0
    5.6641   -3.6498   18.9723 C   0  0  0  0  0  0  0  0  0  0  0  0
    6.1462   -3.3695   18.0271 H   0  0  0  0  0  0  0  0  0  0  0  0
    4.5899   -3.6168   18.7765 H   0  0  0  0  0  0  0  0  0  0  0  0
    6.0755   -5.0153   19.3201 N   0  0  0  0  0  0  0  0  0  0  0  0
    7.0842   -5.0686   19.1982 H   0  0  0  0  0  0  0  0  0  0  0  0
    5.7664   -5.4294   20.6963 C   0  0  0  0  0  0  0  0  0  0  0  0
    6.3679   -6.3218   20.9294 H   0  0  0  0  0  0  0  0  0  0  0  0
    4.7308   -5.7861   20.7539 H   0  0  0  0  0  0  0  0  0  0  0  0
  1  2  1  0
  2  3  2  0
  3  4  1  0
  4  5  1  0
  5  6  2  0
  6  7  1  0
  7  8  2  0
  8  9  1  0
  9 10  1  0
 10 11  2  0
 11 12  1  0
 11 13  1  0
 13 14  2  0
 14 15  1  0
 14 16  1  0
 16 17  1  0
 16 18  2  0
 18 19  1  0
  3 20  1  0
 20 21  1  0
 20 22  1  0
 20 23  1  0
 23 24  1  0
 23 25  1  0
 23 26  1  0
 26 27  1  0
 26 28  1  0
 28 29  1  0
 28 30  1  0
 28  2  1  0
  9  5  1  0
 18 10  1  0
M  END
>  <cnnaffinity>  (1) 
4.01083

>  <plip>  (1) 
-0.14285714285714285

>  <filename>  (1) 
[H][C]1=[C]([S][c]2[n][n][n][n]2-[c]2[c]([H])[n][c]([H])[c]([H])[c]2[H])[C]([H])([H])[C]([H])([H])[N]([H])[C]1([H])[H]

>  <combo1>  (1) 
-0.7336643468647185

$$$$
