
     RDKit          3D

 39 41  0  0  0  0  0  0  0  0999 V2000
    7.8779   -2.8289   28.1698 H   0  0  0  0  0  0  0  0  0  0  0  0
    8.2015   -3.6260   27.7311 O   0  0  0  0  0  0  0  0  0  0  0  0
    8.9923   -3.2658   26.6036 C   0  0  2  0  0  0  0  0  0  0  0  0
    9.5923   -2.3601   26.7997 H   0  0  0  0  0  0  0  0  0  0  0  0
    8.1236   -2.9902   25.3627 C   0  0  0  0  0  0  0  0  0  0  0  0
    7.5121   -2.0980   25.5321 H   0  0  0  0  0  0  0  0  0  0  0  0
    7.4295   -3.8432   25.2365 H   0  0  0  0  0  0  0  0  0  0  0  0
    8.9693   -2.7773   24.1700 N   0  0  0  0  0  0  0  0  0  0  0  0
    8.3697   -2.0750   23.1167 C   0  0  0  0  0  0  0  0  0  0  0  0
    8.2065   -0.7473   23.2237 C   0  0  0  0  0  0  0  0  0  0  0  0
    8.5081   -0.2154   24.1136 H   0  0  0  0  0  0  0  0  0  0  0  0
    7.5689    0.0617   22.1952 C   0  0  0  0  0  0  0  0  0  0  0  0
    7.3076    1.2404   22.3787 O   0  0  0  0  0  0  0  0  0  0  0  0
    7.2790   -0.5972   20.9826 N   0  0  0  0  0  0  0  0  0  0  0  0
    6.6358    0.0897   19.9079 C   0  0  0  0  0  0  0  0  0  0  0  0
    7.1446    0.0809   18.5880 C   0  0  0  0  0  0  0  0  0  0  0  0
    8.0836   -0.4291   18.3834 H   0  0  0  0  0  0  0  0  0  0  0  0
    6.5532    0.6741   17.5425 N   0  0  0  0  0  0  0  0  0  0  0  0
    5.3962    1.3138   17.7761 C   0  0  0  0  0  0  0  0  0  0  0  0
    4.9295    1.7940   16.9181 H   0  0  0  0  0  0  0  0  0  0  0  0
    4.8026    1.3792   19.0420 C   0  0  0  0  0  0  0  0  0  0  0  0
    3.8698    1.9164   19.1709 H   0  0  0  0  0  0  0  0  0  0  0  0
    5.4351    0.7732   20.1328 C   0  0  0  0  0  0  0  0  0  0  0  0
    5.0235    0.8235   21.1394 H   0  0  0  0  0  0  0  0  0  0  0  0
    7.8105   -1.9306   20.7097 C   0  0  0  0  0  0  0  0  0  0  0  0
    8.8305   -1.8687   20.2980 H   0  0  0  0  0  0  0  0  0  0  0  0
    7.1548   -2.3661   19.9558 H   0  0  0  0  0  0  0  0  0  0  0  0
    7.7843   -2.8159   21.9477 C   0  0  0  0  0  0  0  0  0  0  0  0
    6.7471   -3.0814   22.1904 H   0  0  0  0  0  0  0  0  0  0  0  0
    8.3287   -3.7447   21.7608 H   0  0  0  0  0  0  0  0  0  0  0  0
    9.7805   -3.9502   23.8368 C   0  0  0  0  0  0  0  0  0  0  0  0
    9.1594   -4.8303   23.5785 H   0  0  0  0  0  0  0  0  0  0  0  0
   10.3782   -3.6989   22.9566 H   0  0  0  0  0  0  0  0  0  0  0  0
   10.6988   -4.2826   25.0114 C   0  0  0  0  0  0  0  0  0  0  0  0
   11.2902   -5.1769   24.7781 H   0  0  0  0  0  0  0  0  0  0  0  0
   11.3971   -3.4483   25.1137 H   0  0  0  0  0  0  0  0  0  0  0  0
    9.9003   -4.4682   26.3121 C   0  0  0  0  0  0  0  0  0  0  0  0
   10.5652   -4.6538   27.1651 H   0  0  0  0  0  0  0  0  0  0  0  0
    9.2502   -5.3540   26.2263 H   0  0  0  0  0  0  0  0  0  0  0  0
  1  2  1  0
  2  3  1  0
  3  4  1  1
  3  5  1  0
  5  6  1  0
  5  7  1  0
  5  8  1  0
  8  9  1  0
  9 10  2  0
 10 11  1  0
 10 12  1  0
 12 13  2  0
 12 14  1  0
 14 15  1  0
 15 16  2  0
 16 17  1  0
 16 18  1  0
 18 19  2  0
 19 20  1  0
 19 21  1  0
 21 22  1  0
 21 23  2  0
 23 24  1  0
 14 25  1  0
 25 26  1  0
 25 27  1  0
 25 28  1  0
 28 29  1  0
 28 30  1  0
  8 31  1  0
 31 32  1  0
 31 33  1  0
 31 34  1  0
 34 35  1  0
 34 36  1  0
 34 37  1  0
 37 38  1  0
 37 39  1  0
 37  3  1  0
 28  9  1  0
 23 15  1  0
M  END
>  <cnnaffinity>  (1) 
4.67381

>  <plip>  (1) 
-0.06896551724137931

>  <filename>  (1) 
[H][O][C@]1([H])[C]([H])([H])[N]([C]2=[C]([H])[C](=[O])[N]([c]3[c]([H])[n][c]([H])[c]([H])[c]3[H])[C]([H])([H])[C]2([H])[H])[C]([H])([H])[C]([H])([H])[C]1([H])[H]

>  <combo1>  (1) 
-0.3930836334986134

$$$$
