
     RDKit          3D

 28 29  0  0  0  0  0  0  0  0999 V2000
    4.9702    1.8010   16.9587 H   0  0  0  0  0  0  0  0  0  0  0  0
    5.4138    1.2962   17.8126 C   0  0  0  0  0  0  0  0  0  0  0  0
    6.5771    0.6574   17.5866 N   0  0  0  0  0  0  0  0  0  0  0  0
    7.1675    0.0419   18.6187 C   0  0  0  0  0  0  0  0  0  0  0  0
    8.1152   -0.4531   18.4112 H   0  0  0  0  0  0  0  0  0  0  0  0
    6.6189    0.0267   19.9253 C   0  0  0  0  0  0  0  0  0  0  0  0
    7.2792   -0.5788   20.9871 N   0  0  0  0  0  0  0  0  0  0  0  0
    8.4596   -1.1803   20.7679 N   0  0  0  0  0  0  0  0  0  0  0  0
    8.9005   -1.6776   21.8711 C   0  0  0  0  0  0  0  0  0  0  0  0
   10.2132   -2.4101   21.8090 C   0  0  0  0  0  0  0  0  0  0  0  0
   10.0824   -3.0204   20.9166 H   0  0  0  0  0  0  0  0  0  0  0  0
   10.2985   -3.0853   22.6737 H   0  0  0  0  0  0  0  0  0  0  0  0
   11.4566   -1.6379   21.6311 N   0  0  0  0  0  0  0  0  0  0  0  0
   11.5434   -1.3376   20.6594 H   0  0  0  0  0  0  0  0  0  0  0  0
   11.6027   -0.4883   22.5141 C   0  0  0  0  0  0  0  0  0  0  0  0
   12.6401   -0.1362   22.4704 H   0  0  0  0  0  0  0  0  0  0  0  0
   10.9112    0.3478   22.2962 H   0  0  0  0  0  0  0  0  0  0  0  0
   11.3898   -0.8086   23.5393 H   0  0  0  0  0  0  0  0  0  0  0  0
    7.9380   -1.5129   23.0211 C   0  0  0  0  0  0  0  0  0  0  0  0
    8.3799   -0.9829   23.8697 H   0  0  0  0  0  0  0  0  0  0  0  0
    7.5807   -2.4862   23.3754 H   0  0  0  0  0  0  0  0  0  0  0  0
    6.8103   -0.7069   22.3550 C   0  0  0  0  0  0  0  0  0  0  0  0
    5.8874   -1.2824   22.3846 H   0  0  0  0  0  0  0  0  0  0  0  0
    6.6205    0.2731   22.8206 H   0  0  0  0  0  0  0  0  0  0  0  0
    5.3956    0.6730   20.1384 C   0  0  0  0  0  0  0  0  0  0  0  0
    4.9720    0.6711   21.1412 H   0  0  0  0  0  0  0  0  0  0  0  0
    4.7877    1.3217   19.0638 C   0  0  0  0  0  0  0  0  0  0  0  0
    3.8554    1.8571   19.2008 H   0  0  0  0  0  0  0  0  0  0  0  0
  1  2  1  0
  2  3  2  0
  3  4  1  0
  4  5  1  0
  4  6  2  0
  6  7  1  0
  7  8  1  0
  8  9  2  0
  9 10  1  0
 10 11  1  0
 10 12  1  0
 10 13  1  0
 13 14  1  0
 13 15  1  0
 15 16  1  0
 15 17  1  0
 15 18  1  0
  9 19  1  0
 19 20  1  0
 19 21  1  0
 19 22  1  0
 22 23  1  0
 22 24  1  0
  6 25  1  0
 25 26  1  0
 25 27  2  0
 27 28  1  0
 27  2  1  0
 22  7  1  0
M  END
>  <cnnaffinity>  (1) 
4.2612

>  <plip>  (1) 
-0.034482758620689655

>  <filename>  (1) 
[H][c]1[n][c]([H])[c]([N]2[N]=[C]([C]([H])([H])[N]([H])[C]([H])([H])[H])[C]([H])([H])[C]2([H])[H])[c]([H])[c]1[H]

>  <combo1>  (1) 
-0.25744709773890967

$$$$
