
     RDKit          3D

 35 37  0  0  0  0  0  0  0  0999 V2000
    6.4813    1.3873   28.1060 H   0  0  0  0  0  0  0  0  0  0  0  0
    6.7456    0.4910   27.8662 O   0  0  0  0  0  0  0  0  0  0  0  0
    8.1648    0.4470   27.7832 C   0  0  0  0  0  0  0  0  0  0  0  0
    8.4225   -0.6142   27.7977 H   0  0  0  0  0  0  0  0  0  0  0  0
    8.6268    0.8993   28.6685 H   0  0  0  0  0  0  0  0  0  0  0  0
    8.6854    1.0789   26.4932 C   0  0  0  0  0  0  0  0  0  0  0  0
    8.4217    2.1466   26.4766 H   0  0  0  0  0  0  0  0  0  0  0  0
    9.7858    1.0341   26.4569 H   0  0  0  0  0  0  0  0  0  0  0  0
    8.0785    0.3852   25.2790 C   0  0  0  0  0  0  0  0  0  0  0  0
    8.2952    0.9438   24.3568 H   0  0  0  0  0  0  0  0  0  0  0  0
    6.9906    0.3866   25.4111 H   0  0  0  0  0  0  0  0  0  0  0  0
    8.5074   -1.0145   25.2296 N   0  0  0  0  0  0  0  0  0  0  0  0
    9.5137   -1.0763   25.0962 H   0  0  0  0  0  0  0  0  0  0  0  0
    7.8125   -1.8379   24.2574 C   0  0  0  0  0  0  0  0  0  0  0  0
    7.9114   -1.5454   22.7825 C   0  0  0  0  0  0  0  0  0  0  0  0
    8.8806   -1.8499   21.9769 N   0  0  0  0  0  0  0  0  0  0  0  0
    8.5566   -1.3129   20.7428 N   0  0  0  0  0  0  0  0  0  0  0  0
    7.4063   -0.7309   20.8825 C   0  0  0  0  0  0  0  0  0  0  0  0
    6.6342    0.0061   19.8822 C   0  0  0  0  0  0  0  0  0  0  0  0
    7.1610    0.0530   18.5830 C   0  0  0  0  0  0  0  0  0  0  0  0
    8.1117   -0.4371   18.3726 H   0  0  0  0  0  0  0  0  0  0  0  0
    6.5662    0.6763   17.5647 N   0  0  0  0  0  0  0  0  0  0  0  0
    5.4071    1.3023   17.8208 C   0  0  0  0  0  0  0  0  0  0  0  0
    4.9446    1.8157   16.9823 H   0  0  0  0  0  0  0  0  0  0  0  0
    4.7963    1.3194   19.0801 C   0  0  0  0  0  0  0  0  0  0  0  0
    3.8597    1.8510   19.2161 H   0  0  0  0  0  0  0  0  0  0  0  0
    5.4181    0.6651   20.1412 C   0  0  0  0  0  0  0  0  0  0  0  0
    4.9773    0.6782   21.1392 H   0  0  0  0  0  0  0  0  0  0  0  0
    6.9220   -0.8585   22.1382 O   0  0  0  0  0  0  0  0  0  0  0  0
    6.5380   -2.4003   24.8265 C   0  0  0  0  0  0  0  0  0  0  0  0
    5.6714   -2.5285   24.1893 H   0  0  0  0  0  0  0  0  0  0  0  0
    6.3338   -2.0490   25.8348 H   0  0  0  0  0  0  0  0  0  0  0  0
    7.7350   -3.2851   24.6626 C   0  0  0  0  0  0  0  0  0  0  0  0
    7.7490   -4.0243   23.8668 H   0  0  0  0  0  0  0  0  0  0  0  0
    8.2948   -3.5496   25.5532 H   0  0  0  0  0  0  0  0  0  0  0  0
  1  2  1  0
  2  3  1  0
  3  4  1  0
  3  5  1  0
  3  6  1  0
  6  7  1  0
  6  8  1  0
  6  9  1  0
  9 10  1  0
  9 11  1  0
  9 12  1  0
 12 13  1  0
 12 14  1  0
 14 15  1  0
 15 16  2  0
 16 17  1  0
 17 18  2  0
 18 19  1  0
 19 20  2  0
 20 21  1  0
 20 22  1  0
 22 23  2  0
 23 24  1  0
 23 25  1  0
 25 26  1  0
 25 27  2  0
 27 28  1  0
 18 29  1  0
 14 30  1  0
 30 31  1  0
 30 32  1  0
 30 33  1  0
 33 34  1  0
 33 35  1  0
 33 14  1  0
 29 15  1  0
 27 19  1  0
M  END
>  <cnnaffinity>  (1) 
4.61652

>  <plip>  (1) 
-0.07142857142857142

>  <filename>  (1) 
[H][O][C]([H])([H])[C]([H])([H])[C]([H])([H])[N]([H])[C]1([c]2[n][n][c](-[c]3[c]([H])[n][c]([H])[c]([H])[c]3[H])[o]2)[C]([H])([H])[C]1([H])[H]

>  <combo1>  (1) 
-0.4222758727804886

$$$$
