
     RDKit          3D

 41 43  0  0  0  0  0  0  0  0999 V2000
    7.9240    0.3340   22.0601 C   0  0  0  0  0  0  0  0  0  0  0  0
    7.4614   -0.6359   20.9738 C   0  0  0  0  0  0  0  0  0  0  0  0
    6.6687   -1.7563   21.5441 N   0  0  0  0  0  4  0  0  0  0  0  0
    7.4159   -2.8123   22.2362 C   0  0  0  0  0  0  0  0  0  0  0  0
    6.4787   -3.7375   22.9897 C   0  0  0  0  0  0  0  0  0  0  0  0
    5.6150   -4.6225   22.0775 C   0  0  0  0  0  0  0  0  0  0  0  0
    4.7888   -5.5399   22.7996 O   0  0  0  0  0  0  0  0  0  0  0  0
    5.1788   -5.9993   24.0310 C   0  0  0  0  0  0  0  0  0  0  0  0
    4.2779   -6.8446   24.6881 C   0  0  0  0  0  0  0  0  0  0  0  0
    4.5754   -7.3213   25.9641 C   0  0  0  0  0  0  0  0  0  0  0  0
    5.7754   -6.9670   26.5930 C   0  0  0  0  0  0  0  0  0  0  0  0
    6.6736   -6.1233   25.9344 C   0  0  0  0  0  0  0  0  0  0  0  0
    6.3801   -5.6080   24.6594 C   0  0  0  0  0  0  0  0  0  0  0  0
    7.2934   -4.6678   23.9071 C   0  0  0  0  0  0  0  0  0  0  0  0
    7.9893   -5.2670   23.2946 H   0  0  0  0  0  0  0  0  0  0  0  0
    7.9146   -4.0815   24.5964 H   0  0  0  0  0  0  0  0  0  0  0  0
    7.6167   -5.8606   26.4200 H   0  0  0  0  0  0  0  0  0  0  0  0
    6.0085   -7.3448   27.5872 H   0  0  0  0  0  0  0  0  0  0  0  0
    3.8815   -8.0026   26.4543 H   0  0  0  0  0  0  0  0  0  0  0  0
    3.3428   -7.0742   24.1914 H   0  0  0  0  0  0  0  0  0  0  0  0
    6.2580   -5.1818   21.3772 H   0  0  0  0  0  0  0  0  0  0  0  0
    4.9039   -4.0377   21.4868 H   0  0  0  0  0  0  0  0  0  0  0  0
    5.8002   -3.1288   23.6061 H   0  0  0  0  0  0  0  0  0  0  0  0
    8.1370   -2.3759   22.9445 H   0  0  0  0  0  0  0  0  0  0  0  0
    8.0232   -3.4041   21.5319 H   0  0  0  0  0  0  0  0  0  0  0  0
    6.0992   -2.1502   20.7584 H   0  0  0  0  0  0  0  0  0  0  0  0
    5.9987   -1.3100   22.2303 H   0  0  0  0  0  0  0  0  0  0  0  0
    6.5999    0.0041   19.9130 C   0  0  0  0  0  0  0  0  0  0  0  0
    5.3751    0.6535   20.1383 C   0  0  0  0  0  0  0  0  0  0  0  0
    4.7645    1.3159   19.0686 C   0  0  0  0  0  0  0  0  0  0  0  0
    5.3807    1.2972   17.8131 C   0  0  0  0  0  0  0  0  0  0  0  0
    6.5190    0.6347   17.5673 N   0  0  0  0  0  0  0  0  0  0  0  0
    7.0919    0.0118   18.6019 C   0  0  0  0  0  0  0  0  0  0  0  0
    8.0189   -0.5182   18.3837 H   0  0  0  0  0  0  0  0  0  0  0  0
    4.9439    1.8341   16.9704 H   0  0  0  0  0  0  0  0  0  0  0  0
    3.8341    1.8589   19.1926 H   0  0  0  0  0  0  0  0  0  0  0  0
    4.8977    0.6623   21.1234 H   0  0  0  0  0  0  0  0  0  0  0  0
    8.3507   -1.0514   20.4826 H   0  0  0  0  0  0  0  0  0  0  0  0
    8.5204    1.1375   21.6234 H   0  0  0  0  0  0  0  0  0  0  0  0
    7.0625    0.7816   22.5666 H   0  0  0  0  0  0  0  0  0  0  0  0
    8.5381   -0.1822   22.8060 H   0  0  0  0  0  0  0  0  0  0  0  0
  1  2  1  0
  2  3  1  0
  3  4  1  0
  4  5  1  0
  5  6  1  0
  6  7  1  0
  7  8  1  0
  8  9  2  0
  9 10  1  0
 10 11  2  0
 11 12  1  0
 12 13  2  0
 13 14  1  0
 14 15  1  0
 14 16  1  0
 12 17  1  0
 11 18  1  0
 10 19  1  0
  9 20  1  0
  6 21  1  0
  6 22  1  0
  5 23  1  0
  4 24  1  0
  4 25  1  0
  3 26  1  0
  3 27  1  0
  2 28  1  0
 28 29  2  0
 29 30  1  0
 30 31  2  0
 31 32  1  0
 32 33  2  0
 33 34  1  0
 31 35  1  0
 30 36  1  0
 29 37  1  0
  2 38  1  0
  1 39  1  0
  1 40  1  0
  1 41  1  0
 14  5  1  0
 33 28  1  0
 13  8  1  0
M  CHG  1   3   1
M  END
>  <cnnaffinity>  (1) 
4.85043

>  <plip>  (1) 
-0.14285714285714285

>  <filename>  (1) 
[H][c]1[n][c]([H])[c]([C]([H])([C]([H])([H])[H])[N+]([H])([H])[C]([H])([H])[C]2([H])[C]([H])([H])[O][c]3[c]([H])[c]([H])[c]([H])[c]([H])[c]3[C]2([H])[H])[c]([H])[c]1[H]

>  <combo1>  (1) 
-0.8574621229799277

$$$$
