
     RDKit          3D

 48 51  0  0  0  0  0  0  0  0999 V2000
    5.1690    1.7141   16.8376 H   0  0  0  0  0  0  0  0  0  0  0  0
    5.5660    1.3048   17.7661 C   0  0  0  0  0  0  0  0  0  0  0  0
    6.7479    0.6850   17.6822 N   0  0  0  0  0  0  0  0  0  0  0  0
    7.2576    0.1642   18.8087 C   0  0  0  0  0  0  0  0  0  0  0  0
    8.1999   -0.3599   18.6698 H   0  0  0  0  0  0  0  0  0  0  0  0
    6.6568    0.2331   20.0830 C   0  0  0  0  0  0  0  0  0  0  0  0
    7.2490   -0.3928   21.3595 C   0  0  1  0  0  0  0  0  0  0  0  0
    6.3937   -0.9164   21.8043 H   0  0  0  0  0  0  0  0  0  0  0  0
    8.3583   -1.4507   21.1448 C   0  0  0  0  0  0  0  0  0  0  0  0
    8.4169   -2.0593   22.0541 H   0  0  0  0  0  0  0  0  0  0  0  0
    8.0314   -2.1292   20.3501 H   0  0  0  0  0  0  0  0  0  0  0  0
    9.7750   -0.8988   20.8732 C   0  0  0  0  0  0  0  0  0  0  0  0
   10.4914   -1.7259   20.9605 H   0  0  0  0  0  0  0  0  0  0  0  0
    9.8541   -0.5412   19.8426 H   0  0  0  0  0  0  0  0  0  0  0  0
   10.1780    0.2463   21.8223 C   0  0  0  0  0  0  0  0  0  0  0  0
   10.4066   -0.1779   22.8100 H   0  0  0  0  0  0  0  0  0  0  0  0
   11.0962    0.7324   21.4601 H   0  0  0  0  0  0  0  0  0  0  0  0
    9.0417    1.2789   21.9694 C   0  0  0  0  0  0  0  0  0  0  0  0
    9.3150    2.0943   22.6499 H   0  0  0  0  0  0  0  0  0  0  0  0
    8.8323    1.7446   20.9948 H   0  0  0  0  0  0  0  0  0  0  0  0
    7.7278    0.6280   22.4493 C   0  0  2  0  0  0  0  0  0  0  0  0
    6.9557    1.4169   22.5628 H   0  0  0  0  0  0  0  0  0  0  0  0
    7.9247   -0.0601   23.7453 N   0  0  0  0  0  0  0  0  0  0  0  0
    8.4564    0.7288   24.8658 C   0  0  0  0  0  0  0  0  0  0  0  0
    8.0145    1.7441   24.9177 H   0  0  0  0  0  0  0  0  0  0  0  0
    9.5420    0.8532   24.7603 H   0  0  0  0  0  0  0  0  0  0  0  0
    8.0730   -0.0713   26.1209 C   0  0  0  0  0  0  0  0  0  0  0  0
    8.7872   -0.8913   26.2858 H   0  0  0  0  0  0  0  0  0  0  0  0
    8.0549    0.5500   27.0252 H   0  0  0  0  0  0  0  0  0  0  0  0
    6.6925   -0.6318   25.7494 C   0  0  2  0  0  0  0  0  0  0  0  0
    5.9300    0.1338   25.9216 H   0  0  0  0  0  0  0  0  0  0  0  0
    6.2473   -1.9796   26.3497 C   0  0  0  0  0  0  0  0  0  0  0  0
    5.2700   -1.9185   26.8558 H   0  0  0  0  0  0  0  0  0  0  0  0
    6.9784   -2.3179   27.1065 H   0  0  0  0  0  0  0  0  0  0  0  0
    6.1451   -2.9151   25.2221 N   0  0  0  0  0  0  0  0  0  0  0  0
    6.3390   -4.3078   25.5745 C   0  0  0  0  0  0  0  0  0  0  0  0
    5.6333   -4.5806   26.3704 H   0  0  0  0  0  0  0  0  0  0  0  0
    7.3650   -4.5358   25.9310 H   0  0  0  0  0  0  0  0  0  0  0  0
    6.1251   -4.9542   24.7142 H   0  0  0  0  0  0  0  0  0  0  0  0
    6.9958   -2.4009   24.1510 C   0  0  0  0  0  0  0  0  0  0  0  0
    6.6866   -2.8049   23.1750 H   0  0  0  0  0  0  0  0  0  0  0  0
    8.0701   -2.6442   24.2923 H   0  0  0  0  0  0  0  0  0  0  0  0
    6.8206   -0.8780   24.2410 C   0  0  2  0  0  0  0  0  0  0  0  0
    5.8857   -0.5932   23.7585 H   0  0  0  0  0  0  0  0  0  0  0  0
    5.4028    0.8749   20.1325 C   0  0  0  0  0  0  0  0  0  0  0  0
    4.8607    0.9592   21.0773 H   0  0  0  0  0  0  0  0  0  0  0  0
    4.8481    1.4117   18.9639 C   0  0  0  0  0  0  0  0  0  0  0  0
    3.8853    1.9080   18.9639 H   0  0  0  0  0  0  0  0  0  0  0  0
  1  2  1  0
  2  3  2  0
  3  4  1  0
  4  5  1  0
  4  6  2  0
  6  7  1  0
  7  8  1  1
  7  9  1  0
  9 10  1  0
  9 11  1  0
  9 12  1  0
 12 13  1  0
 12 14  1  0
 12 15  1  0
 15 16  1  0
 15 17  1  0
 15 18  1  0
 18 19  1  0
 18 20  1  0
 18 21  1  0
 21 22  1  1
 21 23  1  0
 23 24  1  0
 24 25  1  0
 24 26  1  0
 24 27  1  0
 27 28  1  0
 27 29  1  0
 27 30  1  0
 30 31  1  6
 30 32  1  0
 32 33  1  0
 32 34  1  0
 32 35  1  0
 35 36  1  0
 36 37  1  0
 36 38  1  0
 36 39  1  0
 35 40  1  0
 40 41  1  0
 40 42  1  0
 40 43  1  0
 43 44  1  6
  6 45  1  0
 45 46  1  0
 45 47  2  0
 47 48  1  0
 47  2  1  0
 21  7  1  0
 43 23  1  0
 43 30  1  0
M  END
>  <cnnaffinity>  (1) 
5.2868

>  <plip>  (1) 
-0.03571428571428571

>  <filename>  (1) 
[H][c]1[n][c]([H])[c]([C@@]2([H])[C]([H])([H])[C]([H])([H])[C]([H])([H])[C]([H])([H])[C@]2([H])[N]2[C]([H])([H])[C]([H])([H])[C@]3([H])[C]([H])([H])[N]([C]([H])([H])[H])[C]([H])([H])[C@]23[H])[c]([H])[c]1[H]

>  <combo1>  (1) 
-0.220498870979716

$$$$
