
     RDKit          3D

 22 22  0  0  0  0  0  0  0  0999 V2000
    5.2244   -2.6054   17.2298 H   0  0  0  0  0  0  0  0  0  0  0  0
    5.2320   -2.4918   18.3238 N   0  0  0  0  0  0  0  0  0  0  0  0
    5.7569   -3.1851   19.0826 N   0  0  0  0  0  4  0  0  0  0  0  0
    5.8503   -2.3012   21.8369 N   0  0  0  0  0  0  0  0  0  0  0  0
    6.8996   -2.0640   21.1795 C   0  0  0  0  0  0  0  0  0  0  0  0
    7.6013   -2.7995   20.7670 H   0  0  0  0  0  0  0  0  0  0  0  0
    5.5113   -3.2343   21.6038 H   0  0  0  0  0  0  0  0  0  0  0  0
    7.3947   -0.6390   21.0517 C   0  0  2  0  0  0  0  0  0  0  0  0
    7.0918   -0.1293   21.9865 H   0  0  0  0  0  0  0  0  0  0  0  0
    6.7250    0.0843   19.9164 C   0  0  0  0  0  0  0  0  0  0  0  0
    7.2884    0.0988   18.6351 C   0  0  0  0  0  0  0  0  0  0  0  0
    8.2694   -0.3455   18.4799 H   0  0  0  0  0  0  0  0  0  0  0  0
    6.6983    0.6494   17.5662 N   0  0  0  0  0  0  0  0  0  0  0  0
    5.5112    1.2447   17.7499 C   0  0  0  0  0  0  0  0  0  0  0  0
    5.0639    1.7004   16.8645 H   0  0  0  0  0  0  0  0  0  0  0  0
    4.8709    1.3152   18.9923 C   0  0  0  0  0  0  0  0  0  0  0  0
    3.9174    1.8279   19.0755 H   0  0  0  0  0  0  0  0  0  0  0  0
    5.4916    0.7242   20.0953 C   0  0  0  0  0  0  0  0  0  0  0  0
    5.0389    0.7886   21.0892 H   0  0  0  0  0  0  0  0  0  0  0  0
    8.8336   -0.6866   20.8222 N   0  0  0  0  0  0  0  0  0  0  0  0
    9.3048   -0.9228   21.6921 H   0  0  0  0  0  0  0  0  0  0  0  0
    9.1433    0.2527   20.5834 H   0  0  0  0  0  0  0  0  0  0  0  0
  1  2  1  0
  2  3  2  0
  3  4  2  0
  4  5  1  0
  5  6  1  0
  5  7  1  0
  5  8  1  0
  8  9  1  1
  8 10  1  0
 10 11  2  0
 11 12  1  0
 11 13  1  0
 13 14  2  0
 14 15  1  0
 14 16  1  0
 16 17  1  0
 16 18  2  0
 18 19  1  0
  8 20  1  0
 20 21  1  0
 20 22  1  0
 18 10  1  0
M  CHG  1   3   1
M  END
>  <cnnaffinity>  (1) 
4.03454

>  <plip>  (1) 
-0.25

>  <filename>  (1) 
[H][N]=[N+]=[N][C]([H])([H])[C@]([H])([c]1[c]([H])[n][c]([H])[c]([H])[c]1[H])[N]([H])[H]

>  <combo1>  (1) 
-2.047673861495485

$$$$
