
     RDKit          3D

 37 39  0  0  0  0  0  0  0  0999 V2000
    5.5217   -4.9840   27.9918 C   0  0  0  0  0  0  0  0  0  0  0  0
    6.0977   -4.0355   27.1156 O   0  0  0  0  0  0  0  0  0  0  0  0
    5.5523   -3.8774   25.8779 C   0  0  0  0  0  0  0  0  0  0  0  0
    4.3513   -4.4696   25.4553 C   0  0  0  0  0  0  0  0  0  0  0  0
    3.9153   -4.2723   24.1390 C   0  0  0  0  0  0  0  0  0  0  0  0
    4.6699   -3.5042   23.2607 C   0  0  0  0  0  0  0  0  0  0  0  0
    4.2508   -3.3717   21.9961 F   0  0  0  0  0  0  0  0  0  0  0  0
    5.8193   -2.8138   23.7126 C   0  0  0  0  0  0  0  0  0  0  0  0
    6.5212   -1.8964   22.8684 N   0  0  0  0  0  0  0  0  0  0  0  0
    6.7632   -2.0664   21.5081 C   0  0  0  0  0  0  0  0  0  0  0  0
    6.5980   -3.0688   20.8659 O   0  0  0  0  0  0  0  0  0  0  0  0
    7.4031   -0.7612   20.9976 C   0  0  0  0  0  0  0  0  0  0  0  0
    6.6373    0.0059   19.9076 C   0  0  0  0  0  0  0  0  0  0  0  0
    5.4140    0.6555   20.1394 C   0  0  0  0  0  0  0  0  0  0  0  0
    4.8038    1.3120   19.0670 C   0  0  0  0  0  0  0  0  0  0  0  0
    5.4252    1.3097   17.8159 C   0  0  0  0  0  0  0  0  0  0  0  0
    6.5945    0.6988   17.5765 N   0  0  0  0  0  0  0  0  0  0  0  0
    7.1732    0.0777   18.6112 C   0  0  0  0  0  0  0  0  0  0  0  0
    8.1219   -0.4144   18.3914 H   0  0  0  0  0  0  0  0  0  0  0  0
    4.9679    1.8162   16.9668 H   0  0  0  0  0  0  0  0  0  0  0  0
    3.8655    1.8394   19.1882 H   0  0  0  0  0  0  0  0  0  0  0  0
    4.9592    0.6760   21.1313 H   0  0  0  0  0  0  0  0  0  0  0  0
    7.5592   -0.0117   22.2230 N   0  0  0  0  0  0  0  0  0  0  0  0
    8.2880    1.2424   22.3009 C   0  0  0  0  0  0  0  0  0  0  0  0
    7.6360    2.0679   22.6054 H   0  0  0  0  0  0  0  0  0  0  0  0
    9.1261    1.1852   23.0046 H   0  0  0  0  0  0  0  0  0  0  0  0
    8.6980    1.4747   21.3115 H   0  0  0  0  0  0  0  0  0  0  0  0
    6.9822   -0.6372   23.2896 C   0  0  0  0  0  0  0  0  0  0  0  0
    6.8839   -0.1914   24.4107 O   0  0  0  0  0  0  0  0  0  0  0  0
    8.3907   -1.0415   20.5917 H   0  0  0  0  0  0  0  0  0  0  0  0
    6.2379   -2.9954   25.0282 C   0  0  0  0  0  0  0  0  0  0  0  0
    7.0614   -2.4119   25.4268 H   0  0  0  0  0  0  0  0  0  0  0  0
    2.9923   -4.7038   23.7719 H   0  0  0  0  0  0  0  0  0  0  0  0
    3.7539   -5.0497   26.1515 H   0  0  0  0  0  0  0  0  0  0  0  0
    5.4719   -5.9746   27.5239 H   0  0  0  0  0  0  0  0  0  0  0  0
    4.5127   -4.6794   28.2952 H   0  0  0  0  0  0  0  0  0  0  0  0
    6.1550   -5.0453   28.8775 H   0  0  0  0  0  0  0  0  0  0  0  0
  1  2  1  0
  2  3  1  0
  3  4  2  0
  4  5  1  0
  5  6  2  0
  6  7  1  0
  6  8  1  0
  8  9  1  0
  9 10  1  0
 10 11  2  0
 10 12  1  0
 12 13  1  0
 13 14  2  0
 14 15  1  0
 15 16  2  0
 16 17  1  0
 17 18  2  0
 18 19  1  0
 16 20  1  0
 15 21  1  0
 14 22  1  0
 12 23  1  0
 23 24  1  0
 24 25  1  0
 24 26  1  0
 24 27  1  0
 23 28  1  0
 28 29  2  0
 12 30  1  0
  8 31  2  0
 31 32  1  0
  5 33  1  0
  4 34  1  0
  1 35  1  0
  1 36  1  0
  1 37  1  0
 31  3  1  0
 28  9  1  0
 18 13  1  0
M  END
>  <cnnaffinity>  (1) 
5.02342

>  <plip>  (1) 
-0.06896551724137931

>  <filename>  (1) 
[H][c]1[n][c]([H])[c]([C]2([H])[C](=[O])[N]([c]3[c]([H])[c]([O][C]([H])([H])[H])[c]([H])[c]([H])[c]3[F])[C](=[O])[N]2[C]([H])([H])[H])[c]([H])[c]1[H]

>  <combo1>  (1) 
-0.3662526309219988

$$$$
