
     RDKit          3D

 35 37  0  0  0  0  0  0  0  0999 V2000
    7.5556    7.6822   21.4207 F   0  0  0  0  0  0  0  0  0  0  0  0
    7.7968    6.3892   21.6940 C   0  0  0  0  0  0  0  0  0  0  0  0
    9.0182    6.0340   22.2669 C   0  0  0  0  0  0  0  0  0  0  0  0
    9.2411    4.6861   22.5830 C   0  0  0  0  0  0  0  0  0  0  0  0
    8.2842    3.6937   22.2915 C   0  0  0  0  0  0  0  0  0  0  0  0
    8.6391    2.2221   22.4124 C   0  0  0  0  0  0  0  0  0  0  0  0
    9.2380    1.6759   21.0989 C   0  0  0  0  0  0  0  0  0  0  0  0
    9.5565    0.2433   21.1221 N   0  0  0  0  0  0  0  0  0  0  0  0
   10.7556   -0.4100   21.3083 C   0  0  0  0  0  0  0  0  0  0  0  0
   10.5798   -1.6851   21.4824 N   0  0  0  0  0  0  0  0  0  0  0  0
    9.2201   -1.9240   21.4258 N   0  0  0  0  0  0  0  0  0  0  0  0
    8.6524   -0.7796   21.1864 C   0  0  0  0  0  0  0  0  0  0  0  0
    7.2947   -0.5868   21.0525 N   0  0  0  0  0  0  0  0  0  0  0  0
    6.6714    0.0008   19.9161 C   0  0  0  0  0  0  0  0  0  0  0  0
    5.4566    0.6491   20.1484 C   0  0  0  0  0  0  0  0  0  0  0  0
    4.8229    1.3046   19.0895 C   0  0  0  0  0  0  0  0  0  0  0  0
    5.4222    1.2864   17.8246 C   0  0  0  0  0  0  0  0  0  0  0  0
    6.5742    0.6454   17.5686 N   0  0  0  0  0  0  0  0  0  0  0  0
    7.1801    0.0211   18.5942 C   0  0  0  0  0  0  0  0  0  0  0  0
    8.1159   -0.4897   18.3706 H   0  0  0  0  0  0  0  0  0  0  0  0
    4.9575    1.8032   16.9870 H   0  0  0  0  0  0  0  0  0  0  0  0
    3.8877    1.8313   19.2413 H   0  0  0  0  0  0  0  0  0  0  0  0
    5.0593    0.6338   21.1637 H   0  0  0  0  0  0  0  0  0  0  0  0
    6.8106   -1.3773   21.4480 H   0  0  0  0  0  0  0  0  0  0  0  0
   11.7192    0.0854   21.2913 H   0  0  0  0  0  0  0  0  0  0  0  0
   10.1532    2.2283   20.8649 H   0  0  0  0  0  0  0  0  0  0  0  0
    8.5228    1.8606   20.2912 H   0  0  0  0  0  0  0  0  0  0  0  0
    9.3704    2.0901   23.2227 H   0  0  0  0  0  0  0  0  0  0  0  0
    7.7332    1.6439   22.6391 H   0  0  0  0  0  0  0  0  0  0  0  0
    7.0405    4.1067   21.7778 C   0  0  0  0  0  0  0  0  0  0  0  0
    6.7953    5.4479   21.4560 C   0  0  0  0  0  0  0  0  0  0  0  0
    5.8358    5.7751   21.0658 H   0  0  0  0  0  0  0  0  0  0  0  0
    6.2558    3.3684   21.5988 H   0  0  0  0  0  0  0  0  0  0  0  0
   10.1809    4.3985   23.0492 H   0  0  0  0  0  0  0  0  0  0  0  0
    9.7677    6.7979   22.4465 H   0  0  0  0  0  0  0  0  0  0  0  0
  1  2  1  0
  2  3  2  0
  3  4  1  0
  4  5  2  0
  5  6  1  0
  6  7  1  0
  7  8  1  0
  8  9  1  0
  9 10  2  0
 10 11  1  0
 11 12  2  0
 12 13  1  0
 13 14  1  0
 14 15  2  0
 15 16  1  0
 16 17  2  0
 17 18  1  0
 18 19  2  0
 19 20  1  0
 17 21  1  0
 16 22  1  0
 15 23  1  0
 13 24  1  0
  9 25  1  0
  7 26  1  0
  7 27  1  0
  6 28  1  0
  6 29  1  0
  5 30  1  0
 30 31  2  0
 31 32  1  0
 30 33  1  0
  4 34  1  0
  3 35  1  0
 31  2  1  0
 12  8  1  0
 19 14  1  0
M  END
>  <cnnaffinity>  (1) 
5.32735

>  <plip>  (1) 
-0.07142857142857142

>  <filename>  (1) 
[H][c]1[n][c]([H])[c]([N]([H])[c]2[n][n][c]([H])[n]2[C]([H])([H])[C]([H])([H])[c]2[c]([H])[c]([H])[c]([F])[c]([H])[c]2[H])[c]([H])[c]1[H]

>  <combo1>  (1) 
-0.44771334109867866

$$$$
