
     RDKit          3D

 32 35  0  0  0  0  0  0  0  0999 V2000
    6.6700   -3.7699   20.4403 H   0  0  0  0  0  0  0  0  0  0  0  0
    6.5309   -2.7835   20.2692 N   0  0  0  0  0  0  0  0  0  0  0  0
    7.2398   -2.0941   21.0630 C   0  0  0  0  0  0  0  0  0  0  0  0
    8.2804   -2.6125   22.4147 S   0  0  0  0  0  0  0  0  0  0  0  0
    8.3551   -0.9892   23.0099 C   0  0  0  0  0  0  0  0  0  0  0  0
    8.8124   -0.8123   23.9737 H   0  0  0  0  0  0  0  0  0  0  0  0
    7.7783   -0.0854   22.1813 C   0  0  0  0  0  0  0  0  0  0  0  0
    7.7908    1.3781   22.3643 C   0  0  0  0  0  0  0  0  0  0  0  0
    7.7253    1.8483   23.6537 O   0  0  0  0  0  0  0  0  0  0  0  0
    7.7129    3.2100   23.5761 C   0  0  0  0  0  0  0  0  0  0  0  0
    7.5917    4.0849   24.6579 C   0  0  0  0  0  0  0  0  0  0  0  0
    7.4887    3.6972   25.6650 H   0  0  0  0  0  0  0  0  0  0  0  0
    7.6048    5.4493   24.3625 C   0  0  0  0  0  0  0  0  0  0  0  0
    7.5256    6.1679   25.1732 H   0  0  0  0  0  0  0  0  0  0  0  0
    7.7210    5.9181   23.0339 C   0  0  0  0  0  0  0  0  0  0  0  0
    7.7202    6.9898   22.8435 H   0  0  0  0  0  0  0  0  0  0  0  0
    7.8303    5.0300   21.9681 C   0  0  0  0  0  0  0  0  0  0  0  0
    7.9089    5.4039   20.9498 H   0  0  0  0  0  0  0  0  0  0  0  0
    7.8323    3.6405   22.2426 C   0  0  0  0  0  0  0  0  0  0  0  0
    7.9078    2.4166   21.4898 C   0  0  0  0  0  0  0  0  0  0  0  0
    7.9898    2.2529   20.4277 H   0  0  0  0  0  0  0  0  0  0  0  0
    7.2532   -0.6982   21.0151 N   0  0  0  0  0  0  0  0  0  0  0  0
    6.6014   -0.0077   19.9267 C   0  0  0  0  0  0  0  0  0  0  0  0
    7.1529    0.0347   18.6237 C   0  0  0  0  0  0  0  0  0  0  0  0
    8.0934   -0.4782   18.4195 H   0  0  0  0  0  0  0  0  0  0  0  0
    6.5727    0.6662   17.5926 N   0  0  0  0  0  0  0  0  0  0  0  0
    5.4059    1.2936   17.8214 C   0  0  0  0  0  0  0  0  0  0  0  0
    4.9692    1.8116   16.9703 H   0  0  0  0  0  0  0  0  0  0  0  0
    4.7640    1.2955   19.0651 C   0  0  0  0  0  0  0  0  0  0  0  0
    3.8170    1.8151   19.1865 H   0  0  0  0  0  0  0  0  0  0  0  0
    5.3696    0.6276   20.1370 C   0  0  0  0  0  0  0  0  0  0  0  0
    4.9237    0.5944   21.1318 H   0  0  0  0  0  0  0  0  0  0  0  0
  1  2  1  0
  2  3  2  3
  3  4  1  0
  4  5  1  0
  5  6  1  0
  5  7  2  0
  7  8  1  0
  8  9  1  0
  9 10  1  0
 10 11  2  0
 11 12  1  0
 11 13  1  0
 13 14  1  0
 13 15  2  0
 15 16  1  0
 15 17  1  0
 17 18  1  0
 17 19  2  0
 19 20  1  0
 20 21  1  0
  7 22  1  0
 22 23  1  0
 23 24  2  0
 24 25  1  0
 24 26  1  0
 26 27  2  0
 27 28  1  0
 27 29  1  0
 29 30  1  0
 29 31  2  0
 31 32  1  0
 22  3  1  0
 31 23  1  0
 20  8  2  0
 19 10  1  0
M  END
>  <cnnaffinity>  (1) 
4.66921

>  <plip>  (1) 
-0.07142857142857142

>  <filename>  (1) 
[H][N]=[c]1[s][c]([H])[c](-[c]2[o][c]3[c]([H])[c]([H])[c]([H])[c]([H])[c]3[c]2[H])[n]1-[c]1[c]([H])[n][c]([H])[c]([H])[c]1[H]

>  <combo1>  (1) 
-0.37897149376230743

$$$$
