
     RDKit          3D

 43 45  0  0  0  0  0  0  0  0999 V2000
    7.7438   -0.1341   22.1527 C   0  0  0  0  0  0  0  0  0  0  0  0
    7.2890   -1.0985   21.0325 C   0  0  0  0  0  0  0  0  0  0  0  0
    6.4720   -2.3593   21.4256 C   0  0  0  0  0  0  0  0  0  0  0  0
    6.2422   -3.2333   20.6031 O   0  0  0  0  0  0  0  0  0  0  0  0
    6.0917   -2.4636   22.7214 N   0  0  0  0  0  0  0  0  0  0  0  0
    5.4589   -3.6489   23.2779 C   0  0  0  0  0  0  0  0  0  0  0  0
    4.5794   -3.2885   24.4759 C   0  0  0  0  0  0  0  0  0  0  0  0
    5.3090   -2.4442   25.5563 C   0  0  0  0  0  0  0  0  0  0  0  0
    4.4044   -2.1369   26.7699 C   0  0  0  0  0  0  0  0  0  0  0  0
    4.6662   -3.2329   27.7185 N   0  0  0  0  0  0  0  0  0  0  0  0
    5.9393   -3.7390   27.4243 C   0  0  0  0  0  0  0  0  0  0  0  0
    6.6365   -4.7252   28.1210 C   0  0  0  0  0  0  0  0  0  0  0  0
    7.8918   -5.1192   27.6407 C   0  0  0  0  0  0  0  0  0  0  0  0
    8.4546   -4.5089   26.5063 C   0  0  0  0  0  0  0  0  0  0  0  0
    7.7243   -3.5374   25.8027 C   0  0  0  0  0  0  0  0  0  0  0  0
    6.4342   -3.2106   26.2243 C   0  0  0  0  0  0  0  0  0  0  0  0
    8.1623   -3.0628   24.9244 H   0  0  0  0  0  0  0  0  0  0  0  0
    9.4475   -4.8001   26.1676 H   0  0  0  0  0  0  0  0  0  0  0  0
    8.4271   -5.9177   28.1462 H   0  0  0  0  0  0  0  0  0  0  0  0
    6.1872   -5.1767   29.0004 H   0  0  0  0  0  0  0  0  0  0  0  0
    4.5383   -2.9867   28.6915 H   0  0  0  0  0  0  0  0  0  0  0  0
    3.3396   -2.0941   26.5065 H   0  0  0  0  0  0  0  0  0  0  0  0
    4.6834   -1.1551   27.1800 H   0  0  0  0  0  0  0  0  0  0  0  0
    5.6627   -1.5013   25.1189 H   0  0  0  0  0  0  0  0  0  0  0  0
    3.6776   -2.7606   24.1367 H   0  0  0  0  0  0  0  0  0  0  0  0
    4.2243   -4.2159   24.9427 H   0  0  0  0  0  0  0  0  0  0  0  0
    6.2321   -4.3720   23.5768 H   0  0  0  0  0  0  0  0  0  0  0  0
    4.8785   -4.1408   22.4902 H   0  0  0  0  0  0  0  0  0  0  0  0
    6.0291   -1.6021   23.2383 H   0  0  0  0  0  0  0  0  0  0  0  0
    6.5927   -0.3258   19.9146 C   0  0  0  0  0  0  0  0  0  0  0  0
    5.3639    0.3171   20.1172 C   0  0  0  0  0  0  0  0  0  0  0  0
    4.8456    1.1087   19.0923 C   0  0  0  0  0  0  0  0  0  0  0  0
    5.5540    1.2129   17.8900 C   0  0  0  0  0  0  0  0  0  0  0  0
    6.7024    0.5590   17.6522 N   0  0  0  0  0  0  0  0  0  0  0  0
    7.1920   -0.1831   18.6517 C   0  0  0  0  0  0  0  0  0  0  0  0
    8.1203   -0.7176   18.4463 H   0  0  0  0  0  0  0  0  0  0  0  0
    5.1829    1.8387   17.0811 H   0  0  0  0  0  0  0  0  0  0  0  0
    3.9251    1.6674   19.2179 H   0  0  0  0  0  0  0  0  0  0  0  0
    4.8228    0.1938   21.0592 H   0  0  0  0  0  0  0  0  0  0  0  0
    8.1923   -1.5600   20.6146 H   0  0  0  0  0  0  0  0  0  0  0  0
    8.3026   -0.6460   22.9443 H   0  0  0  0  0  0  0  0  0  0  0  0
    8.4054    0.6261   21.7218 H   0  0  0  0  0  0  0  0  0  0  0  0
    6.9013    0.4008   22.6094 H   0  0  0  0  0  0  0  0  0  0  0  0
  1  2  1  0
  2  3  1  0
  3  4  2  0
  3  5  1  0
  5  6  1  0
  6  7  1  0
  7  8  1  0
  8  9  1  0
  9 10  1  0
 10 11  1  0
 11 12  2  0
 12 13  1  0
 13 14  2  0
 14 15  1  0
 15 16  2  0
 15 17  1  0
 14 18  1  0
 13 19  1  0
 12 20  1  0
 10 21  1  0
  9 22  1  0
  9 23  1  0
  8 24  1  0
  7 25  1  0
  7 26  1  0
  6 27  1  0
  6 28  1  0
  5 29  1  0
  2 30  1  0
 30 31  2  0
 31 32  1  0
 32 33  2  0
 33 34  1  0
 34 35  2  0
 35 36  1  0
 33 37  1  0
 32 38  1  0
 31 39  1  0
  2 40  1  0
  1 41  1  0
  1 42  1  0
  1 43  1  0
 16  8  1  0
 35 30  1  0
 16 11  1  0
M  END
>  <cnnaffinity>  (1) 
4.59458

>  <plip>  (1) 
-0.06896551724137931

>  <filename>  (1) 
[H][c]1[n][c]([H])[c]([C]([H])([C](=[O])[N]([H])[C]([H])([H])[C]([H])([H])[C]2([H])[c]3[c]([H])[c]([H])[c]([H])[c]([H])[c]3[N]([H])[C]2([H])[H])[C]([H])([H])[H])[c]([H])[c]1[H]

>  <combo1>  (1) 
-0.3575745930261833

$$$$
