
     RDKit          3D

 32 34  0  0  0  0  0  0  0  0999 V2000
    4.9227    1.8265   16.9472 H   0  0  0  0  0  0  0  0  0  0  0  0
    5.3777    1.3356   17.8032 C   0  0  0  0  0  0  0  0  0  0  0  0
    6.5428    0.7124   17.5718 N   0  0  0  0  0  0  0  0  0  0  0  0
    7.1326    0.1120   18.6063 C   0  0  0  0  0  0  0  0  0  0  0  0
    8.0586   -0.4290   18.4133 H   0  0  0  0  0  0  0  0  0  0  0  0
    6.6197    0.1361   19.9099 C   0  0  0  0  0  0  0  0  0  0  0  0
    7.3709   -0.5954   20.9494 C   0  0  0  0  0  0  0  0  0  0  0  0
    8.0256   -1.6413   20.5436 N   0  0  0  0  0  0  0  0  0  0  0  0
    8.4966   -2.4999   21.4930 C   0  0  0  0  0  0  0  0  0  0  0  0
    8.7497   -3.6680   21.3211 O   0  0  0  0  0  0  0  0  0  0  0  0
    8.6848   -1.9890   22.7883 N   0  0  0  0  0  0  0  0  0  0  0  0
    9.0797   -2.7160   23.3617 H   0  0  0  0  0  0  0  0  0  0  0  0
    8.0430   -0.8688   23.2616 C   0  0  0  0  0  0  0  0  0  0  0  0
    8.1040   -0.5287   24.7696 C   0  0  0  0  0  0  0  0  0  0  0  0
    8.2103   -1.4254   25.5850 O   0  0  0  0  0  0  0  0  0  0  0  0
    8.0406    0.9223   25.1617 C   0  0  0  0  0  0  0  0  0  0  0  0
    8.6417    1.9132   24.3591 C   0  0  0  0  0  0  0  0  0  0  0  0
    9.1451    1.6388   23.4328 H   0  0  0  0  0  0  0  0  0  0  0  0
    8.5968    3.2545   24.7340 C   0  0  0  0  0  0  0  0  0  0  0  0
    9.0356    4.0323   24.1190 H   0  0  0  0  0  0  0  0  0  0  0  0
    7.9379    3.5934   25.9133 C   0  0  0  0  0  0  0  0  0  0  0  0
    7.8722    4.8837   26.2714 F   0  0  0  0  0  0  0  0  0  0  0  0
    7.3368    2.6400   26.7331 C   0  0  0  0  0  0  0  0  0  0  0  0
    6.8141    2.9545   27.6300 H   0  0  0  0  0  0  0  0  0  0  0  0
    7.4045    1.2990   26.3589 C   0  0  0  0  0  0  0  0  0  0  0  0
    6.9652    0.5308   26.9912 H   0  0  0  0  0  0  0  0  0  0  0  0
    7.3452   -0.1604   22.3120 C   0  0  0  0  0  0  0  0  0  0  0  0
    6.8107    0.7365   22.5604 H   0  0  0  0  0  0  0  0  0  0  0  0
    5.3834    0.7510   20.1343 C   0  0  0  0  0  0  0  0  0  0  0  0
    4.9152    0.7060   21.1188 H   0  0  0  0  0  0  0  0  0  0  0  0
    4.7545    1.3658   19.0545 C   0  0  0  0  0  0  0  0  0  0  0  0
    3.8052    1.8738   19.1702 H   0  0  0  0  0  0  0  0  0  0  0  0
  1  2  1  0
  2  3  2  0
  3  4  1  0
  4  5  1  0
  4  6  2  0
  6  7  1  0
  7  8  2  0
  8  9  1  0
  9 10  2  0
  9 11  1  0
 11 12  1  0
 11 13  1  0
 13 14  1  0
 14 15  2  0
 14 16  1  0
 16 17  2  0
 17 18  1  0
 17 19  1  0
 19 20  1  0
 19 21  2  0
 21 22  1  0
 21 23  1  0
 23 24  1  0
 23 25  2  0
 25 26  1  0
 13 27  2  0
 27 28  1  0
  6 29  1  0
 29 30  1  0
 29 31  2  0
 31 32  1  0
 31  2  1  0
 27  7  1  0
 25 16  1  0
M  END
>  <cnnaffinity>  (1) 
5.17593

>  <plip>  (1) 
-0.034482758620689655

>  <filename>  (1) 
[H][c]1[n][c]([H])[c](-[c]2[n][c](=[O])[n]([H])[c]([C](=[O])[c]3[c]([H])[c]([H])[c]([F])[c]([H])[c]3[H])[c]2[H])[c]([H])[c]1[H]

>  <combo1>  (1) 
-0.2014862458669166

$$$$
