
     RDKit          3D

 23 24  0  0  0  0  0  0  0  0999 V2000
    7.2279   -4.8647   22.2272 H   0  0  0  0  0  0  0  0  0  0  0  0
    7.9971   -4.4598   21.6947 N   0  0  0  0  0  0  0  0  0  0  0  0
    7.8456   -3.2064   21.6425 N   0  0  0  0  0  4  0  0  0  0  0  0
    8.7295   -2.5131   21.0331 N   0  0  0  0  0  0  0  0  0  0  0  0
    8.6121   -1.1216   21.3139 C   0  0  0  0  0  0  0  0  0  0  0  0
    7.3396   -0.5059   21.2689 N   0  0  0  0  0  0  0  0  0  0  0  0
    6.6680   -1.0139   21.8337 H   0  0  0  0  0  0  0  0  0  0  0  0
    6.7643    0.0025   20.0908 C   0  0  0  0  0  0  0  0  0  0  0  0
    7.3140    0.0091   18.7764 C   0  0  0  0  0  0  0  0  0  0  0  0
    8.2638   -0.4935   18.5863 H   0  0  0  0  0  0  0  0  0  0  0  0
    6.7183    0.5774   17.7133 N   0  0  0  0  0  0  0  0  0  0  0  0
    5.5423    1.1934   17.9147 C   0  0  0  0  0  0  0  0  0  0  0  0
    5.1063    1.6744   17.0399 H   0  0  0  0  0  0  0  0  0  0  0  0
    4.9002    1.2278   19.1582 C   0  0  0  0  0  0  0  0  0  0  0  0
    3.9517    1.7414   19.2565 H   0  0  0  0  0  0  0  0  0  0  0  0
    5.5098    0.6109   20.2545 C   0  0  0  0  0  0  0  0  0  0  0  0
    5.0516    0.6172   21.2435 H   0  0  0  0  0  0  0  0  0  0  0  0
    9.5512   -0.5915   22.3796 C   0  0  0  0  0  0  0  0  0  0  0  0
    9.1582    0.1872   23.0276 H   0  0  0  0  0  0  0  0  0  0  0  0
   10.1602   -1.3458   22.8652 H   0  0  0  0  0  0  0  0  0  0  0  0
    9.7863   -0.2837   20.9343 C   0  0  0  0  0  0  0  0  0  0  0  0
   10.5934   -0.7889   20.4255 H   0  0  0  0  0  0  0  0  0  0  0  0
    9.5705    0.7240   20.5956 H   0  0  0  0  0  0  0  0  0  0  0  0
  1  2  1  0
  2  3  2  0
  3  4  2  0
  4  5  1  0
  5  6  1  0
  6  7  1  0
  6  8  1  0
  8  9  2  0
  9 10  1  0
  9 11  1  0
 11 12  2  0
 12 13  1  0
 12 14  1  0
 14 15  1  0
 14 16  2  0
 16 17  1  0
  5 18  1  0
 18 19  1  0
 18 20  1  0
 18 21  1  0
 21 22  1  0
 21 23  1  0
 21  5  1  0
 16  8  1  0
M  CHG  1   3   1
M  END
>  <cnnaffinity>  (1) 
4.4692

>  <plip>  (1) 
-0.06896551724137931

>  <filename>  (1) 
[H][N]=[N+]=[N][C]1([N]([H])[c]2[c]([H])[n][c]([H])[c]([H])[c]2[H])[C]([H])([H])[C]1([H])[H]

>  <combo1>  (1) 
-0.5830787778020661

$$$$
