
     RDKit          3D

 28 30  0  0  0  0  0  0  0  0999 V2000
    7.5389   -6.1639   25.2544 F   0  0  0  0  0  0  0  0  0  0  0  0
    7.8674   -5.1936   24.3910 C   0  0  0  0  0  0  0  0  0  0  0  0
    7.1608   -5.0970   23.1771 C   0  0  0  0  0  0  0  0  0  0  0  0
    7.4482   -4.0615   22.2983 C   0  0  0  0  0  0  0  0  0  0  0  0
    8.4600   -3.1444   22.6642 C   0  0  0  0  0  0  0  0  0  0  0  0
    9.0454   -1.9457   22.1258 C   0  0  0  0  0  0  0  0  0  0  0  0
    8.5982   -1.2756   20.8579 C   0  0  0  0  0  0  0  0  0  0  0  0
    7.2949   -0.6243   20.9733 N   0  0  0  0  0  0  0  0  0  0  0  0
    6.6712   -0.0002   19.9088 C   0  0  0  0  0  0  0  0  0  0  0  0
    5.4433    0.6484   20.1495 C   0  0  0  0  0  0  0  0  0  0  0  0
    4.8087    1.3037   19.0977 C   0  0  0  0  0  0  0  0  0  0  0  0
    5.3948    1.2960   17.8255 C   0  0  0  0  0  0  0  0  0  0  0  0
    6.5548    0.6756   17.5597 N   0  0  0  0  0  0  0  0  0  0  0  0
    7.1750    0.0539   18.5745 C   0  0  0  0  0  0  0  0  0  0  0  0
    8.1266   -0.4133   18.3250 H   0  0  0  0  0  0  0  0  0  0  0  0
    4.9276    1.8091   16.9915 H   0  0  0  0  0  0  0  0  0  0  0  0
    3.8751    1.8347   19.2530 H   0  0  0  0  0  0  0  0  0  0  0  0
    5.0304    0.6315   21.1578 H   0  0  0  0  0  0  0  0  0  0  0  0
    6.8085   -0.5403   21.8588 H   0  0  0  0  0  0  0  0  0  0  0  0
    9.3642   -0.5660   20.5112 H   0  0  0  0  0  0  0  0  0  0  0  0
    8.5350   -2.0613   20.1036 H   0  0  0  0  0  0  0  0  0  0  0  0
   10.0062   -1.4968   22.8809 N   0  0  0  0  0  0  0  0  0  0  0  0
   10.0904   -2.3437   23.9845 O   0  0  0  0  0  0  0  0  0  0  0  0
    9.1615   -3.3097   23.8566 C   0  0  0  0  0  0  0  0  0  0  0  0
    8.8799   -4.3358   24.7665 C   0  0  0  0  0  0  0  0  0  0  0  0
    9.3770   -4.4869   25.7113 H   0  0  0  0  0  0  0  0  0  0  0  0
    6.8835   -3.9637   21.3708 H   0  0  0  0  0  0  0  0  0  0  0  0
    6.3973   -5.8405   22.9888 H   0  0  0  0  0  0  0  0  0  0  0  0
  1  2  1  0
  2  3  2  0
  3  4  1  0
  4  5  2  0
  5  6  1  0
  6  7  1  0
  7  8  1  0
  8  9  1  0
  9 10  2  0
 10 11  1  0
 11 12  2  0
 12 13  1  0
 13 14  2  0
 14 15  1  0
 12 16  1  0
 11 17  1  0
 10 18  1  0
  8 19  1  0
  7 20  1  0
  7 21  1  0
  6 22  2  0
 22 23  1  0
 23 24  1  0
 24 25  2  0
 25 26  1  0
  4 27  1  0
  3 28  1  0
 25  2  1  0
 24  5  1  0
 14  9  1  0
M  END
>  <cnnaffinity>  (1) 
4.80355

>  <plip>  (1) 
-0.10714285714285714

>  <filename>  (1) 
[H][c]1[n][c]([H])[c]([N]([H])[C]([H])([H])[c]2[n][o][c]3[c]([H])[c]([F])[c]([H])[c]([H])[c]23)[c]([H])[c]1[H]

>  <combo1>  (1) 
-0.7052896392584191

$$$$
