
     RDKit          3D

 27 28  0  0  0  0  0  0  0  0999 V2000
    4.9250    1.8031   16.9954 H   0  0  0  0  0  0  0  0  0  0  0  0
    5.3963    1.2919   17.8316 C   0  0  0  0  0  0  0  0  0  0  0  0
    6.5557    0.6644   17.5606 N   0  0  0  0  0  0  0  0  0  0  0  0
    7.1614    0.0336   18.5726 C   0  0  0  0  0  0  0  0  0  0  0  0
    8.1115   -0.4568   18.3687 H   0  0  0  0  0  0  0  0  0  0  0  0
    6.6783    0.0009   19.9067 C   0  0  0  0  0  0  0  0  0  0  0  0
    7.4309   -0.7021   20.8739 N   0  0  0  0  0  0  0  0  0  0  0  0
    7.5394   -0.3888   22.1129 C   0  0  0  0  0  0  0  0  0  0  0  0
    7.1690    0.9501   22.7200 C   0  0  0  0  0  0  0  0  0  0  0  0
    6.4057    1.1524   23.7773 N   0  0  0  0  0  0  0  0  0  0  0  0
    6.3302    2.5097   23.9289 C   0  0  0  0  0  0  0  0  0  0  0  0
    5.7330    2.9373   24.7281 H   0  0  0  0  0  0  0  0  0  0  0  0
    7.0895    3.1320   22.9740 C   0  0  0  0  0  0  0  0  0  0  0  0
    7.2694    4.1720   22.7410 H   0  0  0  0  0  0  0  0  0  0  0  0
    7.6503    2.1292   22.2228 N   0  0  0  0  0  0  0  0  0  0  0  0
    8.5296    2.2854   21.0802 C   0  0  0  0  0  0  0  0  0  0  0  0
    9.1174    3.1896   21.2258 H   0  0  0  0  0  0  0  0  0  0  0  0
    9.2040    1.4277   21.0093 H   0  0  0  0  0  0  0  0  0  0  0  0
    7.9466    2.3559   20.1580 H   0  0  0  0  0  0  0  0  0  0  0  0
    8.2223   -1.3619   23.0321 C   0  0  0  0  0  0  0  0  0  0  0  0
    9.2789   -1.0812   23.1133 H   0  0  0  0  0  0  0  0  0  0  0  0
    7.7842   -1.2921   24.0301 H   0  0  0  0  0  0  0  0  0  0  0  0
    8.1586   -2.3885   22.6613 H   0  0  0  0  0  0  0  0  0  0  0  0
    5.4536    0.6344   20.1599 C   0  0  0  0  0  0  0  0  0  0  0  0
    5.0364    0.5983   21.1647 H   0  0  0  0  0  0  0  0  0  0  0  0
    4.8143    1.2964   19.1031 C   0  0  0  0  0  0  0  0  0  0  0  0
    3.8773    1.8242   19.2467 H   0  0  0  0  0  0  0  0  0  0  0  0
  1  2  1  0
  2  3  2  0
  3  4  1  0
  4  5  1  0
  4  6  2  0
  6  7  1  0
  7  8  2  3
  8  9  1  0
  9 10  2  0
 10 11  1  0
 11 12  1  0
 11 13  2  0
 13 14  1  0
 13 15  1  0
 15 16  1  0
 16 17  1  0
 16 18  1  0
 16 19  1  0
  8 20  1  0
 20 21  1  0
 20 22  1  0
 20 23  1  0
  6 24  1  0
 24 25  1  0
 24 26  2  0
 26 27  1  0
 26  2  1  0
 15  9  1  0
M  END
>  <cnnaffinity>  (1) 
4.42719

>  <plip>  (1) 
-0.03571428571428571

>  <filename>  (1) 
[H][c]1[n][c]([H])[c]([N]=[C]([c]2[n][c]([H])[c]([H])[n]2[C]([H])([H])[H])[C]([H])([H])[H])[c]([H])[c]1[H]

>  <combo1>  (1) 
-0.26320079331390467

$$$$
