
     RDKit          3D

 43 45  0  0  0  0  0  0  0  0999 V2000
    6.3549   -2.1943   21.2449 C   0  0  0  0  0  0  0  0  0  0  0  0
    6.2619   -0.6834   21.4481 C   0  0  0  0  0  0  0  0  0  0  0  0
    7.5216   -0.1477   22.0006 N   0  0  0  0  0  4  0  0  0  0  0  0
    7.7476    0.0623   23.4685 C   0  0  0  0  0  0  0  0  0  0  0  0
    7.8020   -1.2726   24.1999 C   0  0  0  0  0  0  0  0  0  0  0  0
    6.8074   -1.7213   24.2611 H   0  0  0  0  0  0  0  0  0  0  0  0
    8.4606   -1.9455   23.6486 H   0  0  0  0  0  0  0  0  0  0  0  0
    8.1937   -1.1609   25.2120 H   0  0  0  0  0  0  0  0  0  0  0  0
    9.0492    0.8363   23.4762 C   0  0  0  0  0  0  0  0  0  0  0  0
    9.0759    2.1900   23.9109 C   0  0  0  0  0  0  0  0  0  0  0  0
   10.2202    2.9390   23.7878 C   0  0  0  0  0  0  0  0  0  0  0  0
   11.4278    2.3478   23.3052 C   0  0  0  0  0  0  0  0  0  0  0  0
   12.6150    3.1245   23.1867 C   0  0  0  0  0  0  0  0  0  0  0  0
   13.7940    2.5306   22.8050 C   0  0  0  0  0  0  0  0  0  0  0  0
   13.8554    1.1255   22.5818 C   0  0  0  0  0  0  0  0  0  0  0  0
   12.7170    0.3570   22.6366 C   0  0  0  0  0  0  0  0  0  0  0  0
   11.4484    0.9626   22.9312 C   0  0  0  0  0  0  0  0  0  0  0  0
   10.1800    0.2948   22.8740 C   0  0  0  0  0  0  0  0  0  0  0  0
   10.0223   -0.8638   22.1204 O   0  0  0  0  0  0  0  0  0  0  0  0
   10.7114   -0.8430   21.4393 H   0  0  0  0  0  0  0  0  0  0  0  0
   12.7650   -0.7199   22.4811 H   0  0  0  0  0  0  0  0  0  0  0  0
   14.8135    0.6790   22.3190 H   0  0  0  0  0  0  0  0  0  0  0  0
   14.6830    3.1316   22.6351 H   0  0  0  0  0  0  0  0  0  0  0  0
   12.5557    4.1935   23.3873 H   0  0  0  0  0  0  0  0  0  0  0  0
   10.2473    3.9836   24.0796 H   0  0  0  0  0  0  0  0  0  0  0  0
    8.1561    2.6386   24.2960 H   0  0  0  0  0  0  0  0  0  0  0  0
    6.9662    0.6977   23.9041 H   0  0  0  0  0  0  0  0  0  0  0  0
    8.3339   -0.7523   21.7375 H   0  0  0  0  0  0  0  0  0  0  0  0
    7.6857    0.7756   21.5467 H   0  0  0  0  0  0  0  0  0  0  0  0
    6.0324    0.0505   20.1425 C   0  0  0  0  0  0  0  0  0  0  0  0
    4.8680    0.7893   19.8999 C   0  0  0  0  0  0  0  0  0  0  0  0
    4.7596    1.5004   18.7012 C   0  0  0  0  0  0  0  0  0  0  0  0
    5.8111    1.4279   17.7810 C   0  0  0  0  0  0  0  0  0  0  0  0
    6.9062    0.6778   17.9700 N   0  0  0  0  0  0  0  0  0  0  0  0
    7.0028    0.0096   19.1281 C   0  0  0  0  0  0  0  0  0  0  0  0
    7.9103   -0.5904   19.2470 H   0  0  0  0  0  0  0  0  0  0  0  0
    5.7716    1.9928   16.8497 H   0  0  0  0  0  0  0  0  0  0  0  0
    3.8942    2.1165   18.4795 H   0  0  0  0  0  0  0  0  0  0  0  0
    4.0743    0.8183   20.6524 H   0  0  0  0  0  0  0  0  0  0  0  0
    5.4298   -0.4345   22.1176 H   0  0  0  0  0  0  0  0  0  0  0  0
    6.4886   -2.7084   22.2019 H   0  0  0  0  0  0  0  0  0  0  0  0
    7.2177   -2.4209   20.6097 H   0  0  0  0  0  0  0  0  0  0  0  0
    5.4627   -2.5788   20.7463 H   0  0  0  0  0  0  0  0  0  0  0  0
  1  2  1  0
  2  3  1  0
  3  4  1  0
  4  5  1  0
  5  6  1  0
  5  7  1  0
  5  8  1  0
  4  9  1  0
  9 10  2  0
 10 11  1  0
 11 12  2  0
 12 13  1  0
 13 14  2  0
 14 15  1  0
 15 16  2  0
 16 17  1  0
 17 18  2  0
 18 19  1  0
 19 20  1  0
 16 21  1  0
 15 22  1  0
 14 23  1  0
 13 24  1  0
 11 25  1  0
 10 26  1  0
  4 27  1  0
  3 28  1  0
  3 29  1  0
  2 30  1  0
 30 31  2  0
 31 32  1  0
 32 33  2  0
 33 34  1  0
 34 35  2  0
 35 36  1  0
 33 37  1  0
 32 38  1  0
 31 39  1  0
  2 40  1  0
  1 41  1  0
  1 42  1  0
  1 43  1  0
 18  9  1  0
 35 30  1  0
 17 12  1  0
M  CHG  1   3   1
M  END
>  <cnnaffinity>  (1) 
5.48672

>  <plip>  (1) 
-0.06896551724137931

>  <filename>  (1) 
[H][O][c]1[c]([C]([H])([C]([H])([H])[H])[N+]([H])([H])[C]([H])([c]2[c]([H])[n][c]([H])[c]([H])[c]2[H])[C]([H])([H])[H])[c]([H])[c]([H])[c]2[c]([H])[c]([H])[c]([H])[c]([H])[c]12

>  <combo1>  (1) 
-0.42991067948080575

$$$$
