
     RDKit          3D

 49 52  0  0  0  0  0  0  0  0999 V2000
    8.1136    1.9122   22.1934 O   0  0  0  0  0  0  0  0  0  0  0  0
    8.9561    1.1029   21.8392 C   0  0  0  0  0  0  0  0  0  0  0  0
    8.6217   -0.1188   21.3670 N   0  0  0  0  0  0  0  0  0  0  0  0
    7.2389   -0.5429   21.2424 C   0  0  0  0  0  0  0  0  0  0  0  0
    6.5615    0.1657   20.0716 C   0  0  0  0  0  0  0  0  0  0  0  0
    5.3225    0.8153   20.1782 C   0  0  0  0  0  0  0  0  0  0  0  0
    4.7566    1.3850   19.0314 C   0  0  0  0  0  0  0  0  0  0  0  0
    5.4462    1.2813   17.8206 C   0  0  0  0  0  0  0  0  0  0  0  0
    6.6335    0.6715   17.6947 N   0  0  0  0  0  0  0  0  0  0  0  0
    7.1690    0.1484   18.8059 C   0  0  0  0  0  0  0  0  0  0  0  0
    8.1484   -0.3140   18.6719 H   0  0  0  0  0  0  0  0  0  0  0  0
    5.0387    1.7127   16.9090 H   0  0  0  0  0  0  0  0  0  0  0  0
    3.8123    1.9172   19.0630 H   0  0  0  0  0  0  0  0  0  0  0  0
    4.8146    0.8888   21.1423 H   0  0  0  0  0  0  0  0  0  0  0  0
    7.2179   -2.0685   21.0623 C   0  0  0  0  0  0  0  0  0  0  0  0
    5.8138   -2.6623   20.9586 C   0  0  0  0  0  0  0  0  0  0  0  0
    5.9945   -4.1797   21.1195 C   0  0  0  0  0  0  0  0  0  0  0  0
    7.3211   -4.3581   21.9069 C   0  0  0  0  0  0  0  0  0  0  0  0
    7.8779   -2.9350   22.1472 C   0  0  0  0  0  0  0  0  0  0  0  0
    8.9738   -2.9174   22.1008 H   0  0  0  0  0  0  0  0  0  0  0  0
    7.5866   -2.5553   23.1369 H   0  0  0  0  0  0  0  0  0  0  0  0
    8.0261   -4.9526   21.3137 H   0  0  0  0  0  0  0  0  0  0  0  0
    7.1834   -4.8933   22.8528 H   0  0  0  0  0  0  0  0  0  0  0  0
    5.1388   -4.6321   21.6331 H   0  0  0  0  0  0  0  0  0  0  0  0
    6.0690   -4.6696   20.1415 H   0  0  0  0  0  0  0  0  0  0  0  0
    5.2191   -2.2696   21.7934 H   0  0  0  0  0  0  0  0  0  0  0  0
    5.3271   -2.3709   20.0216 H   0  0  0  0  0  0  0  0  0  0  0  0
    7.7513   -2.2371   20.1268 H   0  0  0  0  0  0  0  0  0  0  0  0
    6.7055   -0.2832   22.1706 H   0  0  0  0  0  0  0  0  0  0  0  0
    9.3322   -0.6887   20.9528 H   0  0  0  0  0  0  0  0  0  0  0  0
   10.4176    1.3701   21.9393 C   0  0  0  0  0  0  0  0  0  0  0  0
   11.3572    0.3396   22.0482 C   0  0  0  0  0  0  0  0  0  0  0  0
   12.6472    0.5500   22.3277 N   0  0  0  0  0  0  0  0  0  0  0  0
   13.0507    1.8168   22.4896 C   0  0  0  0  0  0  0  0  0  0  0  0
   12.2051    2.9312   22.3867 C   0  0  0  0  0  0  0  0  0  0  0  0
   12.7009    4.3028   22.6527 C   0  0  0  0  0  0  0  0  0  0  0  0
   12.0443    5.1115   23.5897 C   0  0  0  0  0  0  0  0  0  0  0  0
   12.4897    6.4190   23.7692 C   0  0  0  0  0  0  0  0  0  0  0  0
   13.5388    6.9423   23.1227 N   0  0  0  0  0  0  0  0  0  0  0  0
   14.1944    6.1420   22.2682 C   0  0  0  0  0  0  0  0  0  0  0  0
   13.8042    4.8358   21.9786 C   0  0  0  0  0  0  0  0  0  0  0  0
   14.3133    4.2745   21.2030 H   0  0  0  0  0  0  0  0  0  0  0  0
   15.0821    6.5610   21.8010 H   0  0  0  0  0  0  0  0  0  0  0  0
   11.9699    7.0851   24.4547 H   0  0  0  0  0  0  0  0  0  0  0  0
   11.1951    4.7184   24.1406 H   0  0  0  0  0  0  0  0  0  0  0  0
   10.8598    2.6874   22.1028 C   0  0  0  0  0  0  0  0  0  0  0  0
   10.1578    3.5187   22.0272 H   0  0  0  0  0  0  0  0  0  0  0  0
   14.1009    1.9544   22.7342 H   0  0  0  0  0  0  0  0  0  0  0  0
   11.0792   -0.7094   21.9458 H   0  0  0  0  0  0  0  0  0  0  0  0
  1  2  2  0
  2  3  1  0
  3  4  1  0
  4  5  1  0
  5  6  2  0
  6  7  1  0
  7  8  2  0
  8  9  1  0
  9 10  2  0
 10 11  1  0
  8 12  1  0
  7 13  1  0
  6 14  1  0
  4 15  1  0
 15 16  1  0
 16 17  1  0
 17 18  1  0
 18 19  1  0
 19 20  1  0
 19 21  1  0
 18 22  1  0
 18 23  1  0
 17 24  1  0
 17 25  1  0
 16 26  1  0
 16 27  1  0
 15 28  1  0
  4 29  1  0
  3 30  1  0
  2 31  1  0
 31 32  2  0
 32 33  1  0
 33 34  2  0
 34 35  1  0
 35 36  1  0
 36 37  2  0
 37 38  1  0
 38 39  2  0
 39 40  1  0
 40 41  2  0
 41 42  1  0
 40 43  1  0
 38 44  1  0
 37 45  1  0
 35 46  2  0
 46 47  1  0
 34 48  1  0
 32 49  1  0
 10  5  1  0
 19 15  1  0
 46 31  1  0
 41 36  1  0
M  END
>  <cnnaffinity>  (1) 
5.64609

>  <plip>  (1) 
-0.0625

>  <filename>  (1) 
[H][c]1[n][c]([H])[c]([C]([H])([N]([H])[C](=[O])[c]2[c]([H])[n][c]([H])[c](-[c]3[c]([H])[c]([H])[n][c]([H])[c]3[H])[c]2[H])[C]2([H])[C]([H])([H])[C]([H])([H])[C]([H])([H])[C]2([H])[H])[c]([H])[c]1[H]

>  <combo1>  (1) 
-0.32815878307690155

$$$$
