
     RDKit          3D

 27 29  0  0  0  0  0  0  0  0999 V2000
    4.9126    1.7810   16.9966 H   0  0  0  0  0  0  0  0  0  0  0  0
    5.3984    1.2938   17.8387 C   0  0  0  0  0  0  0  0  0  0  0  0
    6.5616    0.6780   17.5760 N   0  0  0  0  0  0  0  0  0  0  0  0
    7.1708    0.0503   18.5888 C   0  0  0  0  0  0  0  0  0  0  0  0
    8.1282   -0.4254   18.3761 H   0  0  0  0  0  0  0  0  0  0  0  0
    6.6371   -0.0133   19.8902 C   0  0  0  0  0  0  0  0  0  0  0  0
    7.5264   -0.8129   21.2231 S   0  0  0  0  0  0  0  0  0  0  0  0
    8.5302    0.6018   21.6960 C   0  0  0  0  0  0  0  0  0  0  0  0
    9.9340    0.8740   20.9325 S   0  0  0  0  0  0  0  0  0  0  0  0
    7.9461    1.5035   22.6968 C   0  0  0  0  0  0  0  0  0  0  0  0
    8.7477    3.0226   23.0662 S   0  0  0  0  0  0  0  0  0  0  0  0
    7.5502    3.3985   24.2735 C   0  0  0  0  0  0  0  0  0  0  0  0
    7.4819    4.5367   25.0954 C   0  0  0  0  0  0  0  0  0  0  0  0
    8.2319    5.3178   25.0227 H   0  0  0  0  0  0  0  0  0  0  0  0
    6.4269    4.6418   26.0037 C   0  0  0  0  0  0  0  0  0  0  0  0
    6.3529    5.5152   26.6478 H   0  0  0  0  0  0  0  0  0  0  0  0
    5.4445    3.6270   26.1011 C   0  0  0  0  0  0  0  0  0  0  0  0
    4.6295    3.7249   26.8140 H   0  0  0  0  0  0  0  0  0  0  0  0
    5.5133    2.5025   25.2901 C   0  0  0  0  0  0  0  0  0  0  0  0
    4.7737    1.7072   25.3465 H   0  0  0  0  0  0  0  0  0  0  0  0
    6.5733    2.3818   24.3647 C   0  0  0  0  0  0  0  0  0  0  0  0
    6.8245    1.3135   23.4494 C   0  0  0  0  0  0  0  0  0  0  0  0
    6.1798    0.4362   23.3965 H   0  0  0  0  0  0  0  0  0  0  0  0
    5.4320    0.6449   20.1509 C   0  0  0  0  0  0  0  0  0  0  0  0
    5.0014    0.6300   21.1556 H   0  0  0  0  0  0  0  0  0  0  0  0
    4.8009    1.3146   19.1031 C   0  0  0  0  0  0  0  0  0  0  0  0
    3.8703    1.8475   19.2613 H   0  0  0  0  0  0  0  0  0  0  0  0
  1  2  1  0
  2  3  2  0
  3  4  1  0
  4  5  1  0
  4  6  2  0
  6  7  1  0
  7  8  1  0
  8  9  2  0
  8 10  1  0
 10 11  1  0
 11 12  1  0
 12 13  2  0
 13 14  1  0
 13 15  1  0
 15 16  1  0
 15 17  2  0
 17 18  1  0
 17 19  1  0
 19 20  1  0
 19 21  2  0
 21 22  1  0
 22 23  1  0
  6 24  1  0
 24 25  1  0
 24 26  2  0
 26 27  1  0
 26  2  1  0
 22 10  2  0
 21 12  1  0
M  END
>  <cnnaffinity>  (1) 
4.97584

>  <plip>  (1) 
-0.03571428571428571

>  <filename>  (1) 
[H][c]1[n][c]([H])[c]([S][C](=[S])[c]2[s][c]3[c]([H])[c]([H])[c]([H])[c]([H])[c]3[c]2[H])[c]([H])[c]1[H]

>  <combo1>  (1) 
-0.20608623362646888

$$$$
