
     RDKit          3D

 53 56  0  0  0  0  0  0  0  0999 V2000
    6.0529   -2.9915   19.8209 O   0  0  0  0  0  0  0  0  0  0  0  0
    5.8113   -2.7849   20.9890 C   0  0  0  0  0  0  0  0  0  0  0  0
    6.3232   -1.7452   21.7543 N   0  0  0  0  0  0  0  0  0  0  0  0
    7.2058   -0.7776   21.0982 C   0  0  0  0  0  0  0  0  0  0  0  0
    7.7863    0.2505   22.1003 C   0  0  0  0  0  0  0  0  0  0  0  0
    8.8325   -0.2663   23.0388 N   0  0  0  0  0  4  0  0  0  0  0  0
    9.5141    0.7943   23.8682 C   0  0  0  0  0  0  0  0  0  0  0  0
   10.2472    0.0085   24.9585 C   0  0  0  0  0  0  0  0  0  0  0  0
    9.4751   -1.3238   25.1000 C   0  0  0  0  0  0  0  0  0  0  0  0
    8.3497   -1.2704   24.0642 C   0  0  0  0  0  0  0  0  0  0  0  0
    8.1369   -2.2263   23.5808 H   0  0  0  0  0  0  0  0  0  0  0  0
    7.4175   -0.8968   24.5040 H   0  0  0  0  0  0  0  0  0  0  0  0
   10.1339   -2.1736   24.8962 H   0  0  0  0  0  0  0  0  0  0  0  0
    9.0718   -1.4667   26.1067 H   0  0  0  0  0  0  0  0  0  0  0  0
   11.2857   -0.1768   24.6651 H   0  0  0  0  0  0  0  0  0  0  0  0
   10.2829    0.5758   25.8938 H   0  0  0  0  0  0  0  0  0  0  0  0
   10.1697    1.4145   23.2497 H   0  0  0  0  0  0  0  0  0  0  0  0
    8.7448    1.4492   24.2974 H   0  0  0  0  0  0  0  0  0  0  0  0
    9.5826   -0.7353   22.4761 H   0  0  0  0  0  0  0  0  0  0  0  0
    8.1960    1.0960   21.5338 H   0  0  0  0  0  0  0  0  0  0  0  0
    6.9436    0.6469   22.6891 H   0  0  0  0  0  0  0  0  0  0  0  0
    6.5080   -0.0699   19.9491 C   0  0  0  0  0  0  0  0  0  0  0  0
    5.3278    0.6693   20.1145 C   0  0  0  0  0  0  0  0  0  0  0  0
    4.7985    1.3481   19.0135 C   0  0  0  0  0  0  0  0  0  0  0  0
    5.4623    1.2649   17.7845 C   0  0  0  0  0  0  0  0  0  0  0  0
    6.5732    0.5372   17.5957 N   0  0  0  0  0  0  0  0  0  0  0  0
    7.0595   -0.1158   18.6614 C   0  0  0  0  0  0  0  0  0  0  0  0
    7.9566   -0.7108   18.4825 H   0  0  0  0  0  0  0  0  0  0  0  0
    5.0857    1.8026   16.9142 H   0  0  0  0  0  0  0  0  0  0  0  0
    3.8927    1.9389   19.0956 H   0  0  0  0  0  0  0  0  0  0  0  0
    4.8253    0.7193   21.0845 H   0  0  0  0  0  0  0  0  0  0  0  0
    8.0562   -1.3403   20.6883 H   0  0  0  0  0  0  0  0  0  0  0  0
    5.5734   -1.3343   22.2976 H   0  0  0  0  0  0  0  0  0  0  0  0
    5.0163   -3.6043   21.7611 N   0  0  0  0  0  0  0  0  0  0  0  0
    5.0310   -5.0364   21.4683 C   0  0  1  0  0  0  0  0  0  0  0  0
    6.3274   -5.7991   21.8863 C   0  0  0  0  0  0  0  0  0  0  0  0
    5.9337   -6.7802   23.0035 C   0  0  0  0  0  0  0  0  0  0  0  0
    4.4325   -6.8018   22.9829 C   0  0  0  0  0  0  0  0  0  0  0  0
    3.5993   -7.6548   23.7046 C   0  0  0  0  0  0  0  0  0  0  0  0
    2.2197   -7.4418   23.6777 C   0  0  0  0  0  0  0  0  0  0  0  0
    1.6920   -6.3742   22.9400 C   0  0  0  0  0  0  0  0  0  0  0  0
    2.5340   -5.5226   22.2095 C   0  0  0  0  0  0  0  0  0  0  0  0
    3.9153   -5.7629   22.2083 C   0  0  0  0  0  0  0  0  0  0  0  0
    2.1172   -4.6594   21.7030 H   0  0  0  0  0  0  0  0  0  0  0  0
    0.6228   -6.1943   22.9498 H   0  0  0  0  0  0  0  0  0  0  0  0
    1.5528   -8.0933   24.2377 H   0  0  0  0  0  0  0  0  0  0  0  0
    4.0355   -8.4319   24.3212 H   0  0  0  0  0  0  0  0  0  0  0  0
    6.3465   -7.7841   22.8723 H   0  0  0  0  0  0  0  0  0  0  0  0
    6.2678   -6.3983   23.9742 H   0  0  0  0  0  0  0  0  0  0  0  0
    7.1313   -5.1213   22.1928 H   0  0  0  0  0  0  0  0  0  0  0  0
    6.7142   -6.3514   21.0260 H   0  0  0  0  0  0  0  0  0  0  0  0
    4.9420   -5.1472   20.3816 H   0  0  0  0  0  0  0  0  0  0  0  0
    5.1707   -3.3875   22.7325 H   0  0  0  0  0  0  0  0  0  0  0  0
  1  2  2  0
  2  3  1  0
  3  4  1  0
  4  5  1  0
  5  6  1  0
  6  7  1  0
  7  8  1  0
  8  9  1  0
  9 10  1  0
 10 11  1  0
 10 12  1  0
  9 13  1  0
  9 14  1  0
  8 15  1  0
  8 16  1  0
  7 17  1  0
  7 18  1  0
  6 19  1  0
  5 20  1  0
  5 21  1  0
  4 22  1  0
 22 23  2  0
 23 24  1  0
 24 25  2  0
 25 26  1  0
 26 27  2  0
 27 28  1  0
 25 29  1  0
 24 30  1  0
 23 31  1  0
  4 32  1  0
  3 33  1  0
  2 34  1  0
 34 35  1  0
 35 36  1  0
 36 37  1  0
 37 38  1  0
 38 39  2  0
 39 40  1  0
 40 41  2  0
 41 42  1  0
 42 43  2  0
 42 44  1  0
 41 45  1  0
 40 46  1  0
 39 47  1  0
 37 48  1  0
 37 49  1  0
 36 50  1  0
 36 51  1  0
 35 52  1  6
 34 53  1  0
 10  6  1  0
 27 22  1  0
 43 35  1  0
 43 38  1  0
M  CHG  1   6   1
M  END
>  <cnnaffinity>  (1) 
5.83833

>  <plip>  (1) 
-0.23333333333333334

>  <filename>  (1) 
[H][c]1[n][c]([H])[c]([C]([H])([N]([H])[C](=[O])[N]([H])[C@]2([H])[c]3[c]([H])[c]([H])[c]([H])[c]([H])[c]3[C]([H])([H])[C]2([H])[H])[C]([H])([H])[N+]2([H])[C]([H])([H])[C]([H])([H])[C]([H])([H])[C]2([H])[H])[c]([H])[c]1[H]

>  <combo1>  (1) 
-1.2919656456333422

$$$$
