
     RDKit          3D

 28 30  0  0  0  0  0  0  0  0999 V2000
    4.7131   -5.4956   21.8581 H   0  0  0  0  0  0  0  0  0  0  0  0
    5.1826   -4.6029   21.4626 C   0  0  0  0  0  0  0  0  0  0  0  0
    5.5851   -4.4803   20.1632 N   0  0  0  0  0  0  0  0  0  0  0  0
    6.0943   -3.2713   20.1575 C   0  0  0  0  0  0  0  0  0  0  0  0
    6.4933   -2.7060   19.3291 H   0  0  0  0  0  0  0  0  0  0  0  0
    6.0143   -2.7188   21.3881 N   0  0  0  0  0  0  0  0  0  0  0  0
    6.5448   -1.5180   21.8556 N   0  0  0  0  0  0  0  0  0  0  0  0
    6.7094   -1.2919   23.2329 C   0  0  0  0  0  0  0  0  0  0  0  0
    6.3969   -1.9931   24.1619 O   0  0  0  0  0  0  0  0  0  0  0  0
    7.3572    0.0653   23.3656 C   0  0  0  0  0  0  0  0  0  0  0  0
    6.5391    0.7677   23.5635 H   0  0  0  0  0  0  0  0  0  0  0  0
    8.0111    0.0798   24.2430 H   0  0  0  0  0  0  0  0  0  0  0  0
    8.0511    0.3119   22.0217 C   0  0  0  0  0  0  0  0  0  0  0  0
    7.9438    1.3504   21.6908 H   0  0  0  0  0  0  0  0  0  0  0  0
    9.1214    0.0895   22.0929 H   0  0  0  0  0  0  0  0  0  0  0  0
    7.3967   -0.6672   21.0118 C   0  0  2  0  0  0  0  0  0  0  0  0
    8.1755   -1.2962   20.5478 H   0  0  0  0  0  0  0  0  0  0  0  0
    6.6292    0.0156   19.8881 C   0  0  0  0  0  0  0  0  0  0  0  0
    7.1544    0.0598   18.5856 C   0  0  0  0  0  0  0  0  0  0  0  0
    8.1098   -0.4199   18.3557 H   0  0  0  0  0  0  0  0  0  0  0  0
    6.5691    0.6788   17.5518 N   0  0  0  0  0  0  0  0  0  0  0  0
    5.4061    1.3055   17.7927 C   0  0  0  0  0  0  0  0  0  0  0  0
    4.9531    1.8198   16.9475 H   0  0  0  0  0  0  0  0  0  0  0  0
    4.7874    1.3196   19.0461 C   0  0  0  0  0  0  0  0  0  0  0  0
    3.8571    1.8625   19.1795 H   0  0  0  0  0  0  0  0  0  0  0  0
    5.4051    0.6637   20.1104 C   0  0  0  0  0  0  0  0  0  0  0  0
    4.9513    0.6544   21.1015 H   0  0  0  0  0  0  0  0  0  0  0  0
    5.4047   -3.5658   22.2304 N   0  0  0  0  0  0  0  0  0  0  0  0
  1  2  1  0
  2  3  1  0
  3  4  2  0
  4  5  1  0
  4  6  1  0
  6  7  1  0
  7  8  1  0
  8  9  2  0
  8 10  1  0
 10 11  1  0
 10 12  1  0
 10 13  1  0
 13 14  1  0
 13 15  1  0
 13 16  1  0
 16 17  1  6
 16 18  1  0
 18 19  2  0
 19 20  1  0
 19 21  1  0
 21 22  2  0
 22 23  1  0
 22 24  1  0
 24 25  1  0
 24 26  2  0
 26 27  1  0
  6 28  1  0
 28  2  2  0
 16  7  1  0
 26 18  1  0
M  END
>  <cnnaffinity>  (1) 
4.41377

>  <plip>  (1) 
-0.17857142857142858

>  <filename>  (1) 
[H][c]1[n][c]([H])[n]([N]2[C](=[O])[C]([H])([H])[C]([H])([H])[C@]2([H])[c]2[c]([H])[n][c]([H])[c]([H])[c]2[H])[n]1

>  <combo1>  (1) 
-1.14605202672232

$$$$
