
     RDKit          3D

 46 49  0  0  0  0  0  0  0  0999 V2000
    7.5422    3.5278   26.8794 C   0  0  0  0  0  0  0  0  0  0  0  0
    8.5407    3.7283   25.7623 C   0  0  0  0  0  0  0  0  0  0  0  0
    9.5038    4.7846   25.8060 C   0  0  0  0  0  0  0  0  0  0  0  0
   10.4917    4.8788   24.8485 C   0  0  0  0  0  0  0  0  0  0  0  0
   10.5845    3.9199   23.8018 C   0  0  0  0  0  0  0  0  0  0  0  0
   11.6805    3.9202   22.9896 N   0  0  0  0  0  0  0  0  0  0  0  0
   11.7081    3.0030   22.0532 C   0  0  0  0  0  0  0  0  0  0  0  0
   10.7224    2.1160   21.7526 N   0  0  0  0  0  0  0  0  0  0  0  0
    9.6044    2.1658   22.4712 C   0  0  0  0  0  0  0  0  0  0  0  0
    8.3519    1.3222   22.0569 C   0  0  0  0  0  0  0  0  0  0  0  0
    7.2177    1.6521   22.3899 O   0  0  0  0  0  0  0  0  0  0  0  0
    8.5770    0.1705   21.3656 N   0  0  0  0  0  0  0  0  0  0  0  0
    7.4848   -0.7051   20.9280 C   0  0  0  0  0  0  0  0  0  0  0  0
    6.6458    0.0024   19.8674 C   0  0  0  0  0  0  0  0  0  0  0  0
    5.4295    0.6543   20.1074 C   0  0  0  0  0  0  0  0  0  0  0  0
    4.7973    1.3074   19.0440 C   0  0  0  0  0  0  0  0  0  0  0  0
    5.4089    1.3042   17.7875 C   0  0  0  0  0  0  0  0  0  0  0  0
    6.5788    0.6957   17.5390 N   0  0  0  0  0  0  0  0  0  0  0  0
    7.1717    0.0776   18.5666 C   0  0  0  0  0  0  0  0  0  0  0  0
    8.1270   -0.3947   18.3355 H   0  0  0  0  0  0  0  0  0  0  0  0
    4.9420    1.8150   16.9465 H   0  0  0  0  0  0  0  0  0  0  0  0
    3.8594    1.8336   19.1810 H   0  0  0  0  0  0  0  0  0  0  0  0
    5.0013    0.6886   21.1121 H   0  0  0  0  0  0  0  0  0  0  0  0
    6.6933   -1.3129   22.1140 C   0  0  0  0  0  0  0  0  0  0  0  0
    7.5265   -2.0968   23.1411 C   0  0  0  0  0  0  0  0  0  0  0  0
    6.4995   -3.0709   23.7261 C   0  0  0  0  0  0  0  0  0  0  0  0
    5.5229   -3.2839   22.5575 C   0  0  0  0  0  0  0  0  0  0  0  0
    5.7902   -2.2809   21.5854 O   0  0  0  0  0  0  0  0  0  0  0  0
    4.4786   -3.2134   22.8906 H   0  0  0  0  0  0  0  0  0  0  0  0
    5.6759   -4.2540   22.0736 H   0  0  0  0  0  0  0  0  0  0  0  0
    5.9776   -2.6414   24.5902 H   0  0  0  0  0  0  0  0  0  0  0  0
    6.9575   -4.0111   24.0500 H   0  0  0  0  0  0  0  0  0  0  0  0
    8.3236   -2.6545   22.6344 H   0  0  0  0  0  0  0  0  0  0  0  0
    7.9827   -1.4539   23.9006 H   0  0  0  0  0  0  0  0  0  0  0  0
    6.1559   -0.5053   22.6288 H   0  0  0  0  0  0  0  0  0  0  0  0
    7.9642   -1.5623   20.4449 H   0  0  0  0  0  0  0  0  0  0  0  0
    9.5135    0.0339   21.0173 H   0  0  0  0  0  0  0  0  0  0  0  0
    9.5307    2.9765   23.6564 C   0  0  0  0  0  0  0  0  0  0  0  0
    8.5239    2.8880   24.6686 C   0  0  0  0  0  0  0  0  0  0  0  0
    7.7459    2.1337   24.5756 H   0  0  0  0  0  0  0  0  0  0  0  0
   12.6106    2.9079   21.4509 H   0  0  0  0  0  0  0  0  0  0  0  0
   11.2782    5.6229   24.8953 H   0  0  0  0  0  0  0  0  0  0  0  0
    9.4560    5.4986   26.6271 H   0  0  0  0  0  0  0  0  0  0  0  0
    6.6944    4.2220   26.8292 H   0  0  0  0  0  0  0  0  0  0  0  0
    8.0117    3.6632   27.8551 H   0  0  0  0  0  0  0  0  0  0  0  0
    7.1297    2.5122   26.8618 H   0  0  0  0  0  0  0  0  0  0  0  0
  1  2  1  0
  2  3  2  0
  3  4  1  0
  4  5  2  0
  5  6  1  0
  6  7  2  0
  7  8  1  0
  8  9  2  0
  9 10  1  0
 10 11  2  0
 10 12  1  0
 12 13  1  0
 13 14  1  0
 14 15  2  0
 15 16  1  0
 16 17  2  0
 17 18  1  0
 18 19  2  0
 19 20  1  0
 17 21  1  0
 16 22  1  0
 15 23  1  0
 13 24  1  0
 24 25  1  0
 25 26  1  0
 26 27  1  0
 27 28  1  0
 27 29  1  0
 27 30  1  0
 26 31  1  0
 26 32  1  0
 25 33  1  0
 25 34  1  0
 24 35  1  0
 13 36  1  0
 12 37  1  0
  9 38  1  0
 38 39  2  0
 39 40  1  0
  7 41  1  0
  4 42  1  0
  3 43  1  0
  1 44  1  0
  1 45  1  0
  1 46  1  0
 39  2  1  0
 38  5  1  0
 19 14  1  0
 28 24  1  0
M  END
>  <cnnaffinity>  (1) 
5.37881

>  <plip>  (1) 
-0.10714285714285714

>  <filename>  (1) 
[H][c]1[n][c]([C](=[O])[N]([H])[C]([H])([c]2[c]([H])[n][c]([H])[c]([H])[c]2[H])[C]2([H])[O][C]([H])([H])[C]([H])([H])[C]2([H])[H])[c]2[c]([H])[c]([C]([H])([H])[H])[c]([H])[c]([H])[c]2[n]1

>  <combo1>  (1) 
-0.5513692563929932

$$$$
