
     RDKit          3D

 35 36  0  0  0  0  0  0  0  0999 V2000
    6.5364   -0.8048   22.3134 C   0  0  0  0  0  0  0  0  0  0  0  0
    7.3759   -0.5974   21.0735 C   0  0  0  0  0  0  0  0  0  0  0  0
    7.9343   -1.9309   20.6504 C   0  0  0  0  0  0  0  0  0  0  0  0
    7.1261   -2.5363   20.2355 H   0  0  0  0  0  0  0  0  0  0  0  0
    8.7241   -1.7781   19.9095 H   0  0  0  0  0  0  0  0  0  0  0  0
    8.3707   -2.4509   21.5054 H   0  0  0  0  0  0  0  0  0  0  0  0
    8.4805    0.2705   21.3538 N   0  0  0  0  0  4  0  0  0  0  0  0
    9.2425   -0.2143   22.5122 C   0  0  0  0  0  0  0  0  0  0  0  0
   10.4488    0.6318   22.7299 C   0  0  0  0  0  0  0  0  0  0  0  0
   10.3856    1.8818   23.3580 C   0  0  0  0  0  0  0  0  0  0  0  0
   11.5682    2.5316   23.7385 C   0  0  0  0  0  0  0  0  0  0  0  0
   12.7749    1.9992   23.5006 N   0  0  0  0  0  0  0  0  0  0  0  0
   12.8431    0.8340   22.8306 C   0  0  0  0  0  0  0  0  0  0  0  0
   14.5517    0.1134   22.4540 Br  0  0  0  0  0  0  0  0  0  0  0  0
   11.7058    0.1259   22.4187 C   0  0  0  0  0  0  0  0  0  0  0  0
   11.8222   -1.0424   21.7399 F   0  0  0  0  0  0  0  0  0  0  0  0
   11.5297    3.4988   24.2320 H   0  0  0  0  0  0  0  0  0  0  0  0
    9.4329    2.3391   23.5996 H   0  0  0  0  0  0  0  0  0  0  0  0
    8.6200   -0.1950   23.4207 H   0  0  0  0  0  0  0  0  0  0  0  0
    9.5596   -1.2578   22.3450 H   0  0  0  0  0  0  0  0  0  0  0  0
    8.1168    1.2041   21.5297 H   0  0  0  0  0  0  0  0  0  0  0  0
    9.0716    0.3061   20.5266 H   0  0  0  0  0  0  0  0  0  0  0  0
    6.6588    0.0934   19.9704 C   0  0  0  0  0  0  0  0  0  0  0  0
    5.4279    0.7369   20.1567 C   0  0  0  0  0  0  0  0  0  0  0  0
    4.8523    1.3648   19.0565 C   0  0  0  0  0  0  0  0  0  0  0  0
    5.5031    1.3263   17.8194 C   0  0  0  0  0  0  0  0  0  0  0  0
    6.6911    0.7196   17.6441 N   0  0  0  0  0  0  0  0  0  0  0  0
    7.2602    0.1280   18.7049 C   0  0  0  0  0  0  0  0  0  0  0  0
    8.2262   -0.3474   18.5656 H   0  0  0  0  0  0  0  0  0  0  0  0
    5.0265    1.8140   16.9741 H   0  0  0  0  0  0  0  0  0  0  0  0
    3.9055    1.8887   19.1400 H   0  0  0  0  0  0  0  0  0  0  0  0
    4.9296    0.7558   21.1284 H   0  0  0  0  0  0  0  0  0  0  0  0
    7.1591   -1.1947   23.1234 H   0  0  0  0  0  0  0  0  0  0  0  0
    6.0920    0.1435   22.6307 H   0  0  0  0  0  0  0  0  0  0  0  0
    5.7643   -1.5395   22.0853 H   0  0  0  0  0  0  0  0  0  0  0  0
  1  2  1  0
  2  3  1  0
  3  4  1  0
  3  5  1  0
  3  6  1  0
  2  7  1  0
  7  8  1  0
  8  9  1  0
  9 10  2  0
 10 11  1  0
 11 12  2  0
 12 13  1  0
 13 14  1  0
 13 15  2  0
 15 16  1  0
 11 17  1  0
 10 18  1  0
  8 19  1  0
  8 20  1  0
  7 21  1  0
  7 22  1  0
  2 23  1  0
 23 24  2  0
 24 25  1  0
 25 26  2  0
 26 27  1  0
 27 28  2  0
 28 29  1  0
 26 30  1  0
 25 31  1  0
 24 32  1  0
  1 33  1  0
  1 34  1  0
  1 35  1  0
 15  9  1  0
 28 23  1  0
M  CHG  1   7   1
M  END
>  <cnnaffinity>  (1) 
5.02443

>  <plip>  (1) 
-0.07142857142857142

>  <filename>  (1) 
[H][c]1[n][c]([H])[c]([C]([C]([H])([H])[H])([C]([H])([H])[H])[N+]([H])([H])[C]([H])([H])[c]2[c]([H])[c]([H])[n][c]([Br])[c]2[F])[c]([H])[c]1[H]

>  <combo1>  (1) 
-0.36785807633426826

$$$$
