
     RDKit          3D

 32 34  0  0  0  0  0  0  0  0999 V2000
    6.7413   -3.6368   22.7544 H   0  0  0  0  0  0  0  0  0  0  0  0
    7.1350   -2.6369   22.5828 C   0  0  0  0  0  0  0  0  0  0  0  0
    7.9704   -2.0659   23.4591 C   0  0  0  0  0  0  0  0  0  0  0  0
    8.3295   -2.7381   24.7145 C   0  0  0  0  0  0  0  0  0  0  0  0
    9.2448   -2.2920   25.7032 C   0  0  0  0  0  0  0  0  0  0  0  0
    9.8425   -1.3861   25.6955 H   0  0  0  0  0  0  0  0  0  0  0  0
    9.3596   -3.1490   26.7047 N   0  0  0  0  0  0  0  0  0  0  0  0
    8.5163   -4.1381   26.3948 N   0  0  0  0  0  0  0  0  0  0  0  0
    8.4773   -4.9466   26.9981 H   0  0  0  0  0  0  0  0  0  0  0  0
    7.8743   -3.9499   25.2208 C   0  0  0  0  0  0  0  0  0  0  0  0
    7.1664   -4.6820   24.8515 H   0  0  0  0  0  0  0  0  0  0  0  0
    8.5665   -0.6805   23.1799 C   0  0  0  0  0  0  0  0  0  0  0  0
    9.5952   -0.8100   22.8098 H   0  0  0  0  0  0  0  0  0  0  0  0
    8.6353   -0.1254   24.1209 H   0  0  0  0  0  0  0  0  0  0  0  0
    7.7440    0.1357   22.1660 C   0  0  0  0  0  0  0  0  0  0  0  0
    6.8208    0.4768   22.6555 H   0  0  0  0  0  0  0  0  0  0  0  0
    8.2934    1.0371   21.8786 H   0  0  0  0  0  0  0  0  0  0  0  0
    7.4075   -0.7028   20.9179 C   0  0  2  0  0  0  0  0  0  0  0  0
    8.3629   -1.0557   20.5027 H   0  0  0  0  0  0  0  0  0  0  0  0
    6.6720    0.0551   19.8161 C   0  0  0  0  0  0  0  0  0  0  0  0
    7.1532    0.0959   18.4911 C   0  0  0  0  0  0  0  0  0  0  0  0
    8.0816   -0.4139   18.2398 H   0  0  0  0  0  0  0  0  0  0  0  0
    6.5514    0.7165   17.4655 N   0  0  0  0  0  0  0  0  0  0  0  0
    5.3963    1.3458   17.7293 C   0  0  0  0  0  0  0  0  0  0  0  0
    4.9206    1.8653   16.8963 H   0  0  0  0  0  0  0  0  0  0  0  0
    4.8080    1.3529   18.9970 C   0  0  0  0  0  0  0  0  0  0  0  0
    3.8649    1.8602   19.1477 H   0  0  0  0  0  0  0  0  0  0  0  0
    5.4514    0.7031   20.0544 C   0  0  0  0  0  0  0  0  0  0  0  0
    5.0107    0.6996   21.0557 H   0  0  0  0  0  0  0  0  0  0  0  0
    6.6064   -1.9491   21.3524 C   0  0  0  0  0  0  0  0  0  0  0  0
    5.5618   -1.6719   21.5351 H   0  0  0  0  0  0  0  0  0  0  0  0
    6.5489   -2.6543   20.5229 H   0  0  0  0  0  0  0  0  0  0  0  0
  1  2  1  0
  2  3  2  0
  3  4  1  0
  4  5  1  0
  5  6  1  0
  5  7  2  0
  7  8  1  0
  8  9  1  0
  8 10  1  0
 10 11  1  0
  3 12  1  0
 12 13  1  0
 12 14  1  0
 12 15  1  0
 15 16  1  0
 15 17  1  0
 15 18  1  0
 18 19  1  6
 18 20  1  0
 20 21  2  0
 21 22  1  0
 21 23  1  0
 23 24  2  0
 24 25  1  0
 24 26  1  0
 26 27  1  0
 26 28  2  0
 28 29  1  0
 18 30  1  0
 30 31  1  0
 30 32  1  0
 30  2  1  0
 10  4  2  0
 28 20  1  0
M  END
>  <cnnaffinity>  (1) 
4.93847

>  <plip>  (1) 
-0.03571428571428571

>  <filename>  (1) 
[H][C]1=[C]([c]2[c]([H])[n][n]([H])[c]2[H])[C]([H])([H])[C]([H])([H])[C@]([H])([c]2[c]([H])[n][c]([H])[c]([H])[c]2[H])[C]1([H])[H]

>  <combo1>  (1) 
-0.26095257117916293

$$$$
