
     RDKit          3D

 38 41  0  0  0  0  0  0  0  0999 V2000
    8.2300    1.1812   22.3135 C   0  0  0  0  0  0  0  0  0  0  0  0
    7.5552   -0.0986   22.2083 N   0  0  0  0  0  0  0  0  0  0  0  0
    6.9616   -0.7119   23.2707 C   0  0  0  0  0  0  0  0  0  0  0  0
    6.9076   -0.2599   24.3919 O   0  0  0  0  0  0  0  0  0  0  0  0
    6.4611   -1.9557   22.8486 N   0  0  0  0  0  0  0  0  0  0  0  0
    5.6939   -2.8387   23.6829 C   0  0  0  0  0  0  0  0  0  0  0  0
    5.9480   -2.9043   25.0694 C   0  0  0  0  0  0  0  0  0  0  0  0
    5.1188   -3.6646   25.8907 C   0  0  0  0  0  0  0  0  0  0  0  0
    4.0277   -4.3450   25.3325 C   0  0  0  0  0  0  0  0  0  0  0  0
    3.2322   -5.0567   26.1957 O   0  0  0  0  0  0  0  0  0  0  0  0
    2.0847   -5.6212   25.7426 C   0  0  0  0  0  0  0  0  0  0  0  0
    1.6939   -5.6055   24.4603 C   0  0  0  0  0  0  0  0  0  0  0  0
    2.5270   -4.9638   23.4351 C   0  0  0  0  0  0  0  0  0  0  0  0
    2.1979   -4.9727   22.2614 O   0  0  0  0  0  0  0  0  0  0  0  0
    3.7569   -4.2906   23.9547 C   0  0  0  0  0  0  0  0  0  0  0  0
    4.6298   -3.5519   23.1329 C   0  0  0  0  0  0  0  0  0  0  0  0
    4.4720   -3.5210   22.0609 H   0  0  0  0  0  0  0  0  0  0  0  0
    0.7678   -6.0562   24.1234 H   0  0  0  0  0  0  0  0  0  0  0  0
    1.5351   -6.0738   26.5644 H   0  0  0  0  0  0  0  0  0  0  0  0
    5.2691   -3.7393   26.9624 H   0  0  0  0  0  0  0  0  0  0  0  0
    6.7608   -2.3218   25.4888 H   0  0  0  0  0  0  0  0  0  0  0  0
    6.6348   -2.0925   21.4808 C   0  0  0  0  0  0  0  0  0  0  0  0
    6.3273   -3.0453   20.8062 O   0  0  0  0  0  0  0  0  0  0  0  0
    7.3519   -0.8265   20.9783 C   0  0  0  0  0  0  0  0  0  0  0  0
    6.6285   -0.0155   19.9050 C   0  0  0  0  0  0  0  0  0  0  0  0
    5.4134    0.6458   20.1318 C   0  0  0  0  0  0  0  0  0  0  0  0
    4.8157    1.3126   19.0607 C   0  0  0  0  0  0  0  0  0  0  0  0
    5.4553    1.3158   17.8171 C   0  0  0  0  0  0  0  0  0  0  0  0
    6.6272    0.7048   17.5887 N   0  0  0  0  0  0  0  0  0  0  0  0
    7.1885    0.0679   18.6220 C   0  0  0  0  0  0  0  0  0  0  0  0
    8.1397   -0.4276   18.4214 H   0  0  0  0  0  0  0  0  0  0  0  0
    5.0127    1.8335   16.9677 H   0  0  0  0  0  0  0  0  0  0  0  0
    3.8782    1.8428   19.1776 H   0  0  0  0  0  0  0  0  0  0  0  0
    4.9482    0.6547   21.1192 H   0  0  0  0  0  0  0  0  0  0  0  0
    8.3112   -1.1687   20.5638 H   0  0  0  0  0  0  0  0  0  0  0  0
    9.0583    1.1204   23.0266 H   0  0  0  0  0  0  0  0  0  0  0  0
    7.5482    1.9720   22.6487 H   0  0  0  0  0  0  0  0  0  0  0  0
    8.6278    1.4504   21.3303 H   0  0  0  0  0  0  0  0  0  0  0  0
  1  2  1  0
  2  3  1  0
  3  4  2  0
  3  5  1  0
  5  6  1  0
  6  7  2  0
  7  8  1  0
  8  9  2  0
  9 10  1  0
 10 11  1  0
 11 12  2  0
 12 13  1  0
 13 14  2  0
 13 15  1  0
 15 16  2  0
 16 17  1  0
 12 18  1  0
 11 19  1  0
  8 20  1  0
  7 21  1  0
  5 22  1  0
 22 23  2  0
 22 24  1  0
 24 25  1  0
 25 26  2  0
 26 27  1  0
 27 28  2  0
 28 29  1  0
 29 30  2  0
 30 31  1  0
 28 32  1  0
 27 33  1  0
 26 34  1  0
 24 35  1  0
  1 36  1  0
  1 37  1  0
  1 38  1  0
 24  2  1  0
 30 25  1  0
 16  6  1  0
 15  9  1  0
M  END
>  <cnnaffinity>  (1) 
5.53576

>  <plip>  (1) 
-0.06896551724137931

>  <filename>  (1) 
[H][c]1[n][c]([H])[c]([C]2([H])[C](=[O])[N]([c]3[c]([H])[c]([H])[c]4[o][c]([H])[c]([H])[c](=[O])[c]4[c]3[H])[C](=[O])[N]2[C]([H])([H])[H])[c]([H])[c]1[H]

>  <combo1>  (1) 
-0.37951577624504623

$$$$
