
     RDKit          3D

 34 36  0  0  0  0  0  0  0  0999 V2000
    8.8862   -0.0175   23.9843 H   0  0  0  0  0  0  0  0  0  0  0  0
    8.6222   -0.4800   23.0372 C   0  0  0  0  0  0  0  0  0  0  0  0
    9.3848   -1.4584   22.5322 C   0  0  0  0  0  0  0  0  0  0  0  0
   10.7054   -1.8331   23.1643 C   0  0  0  0  0  0  0  0  0  0  0  0
   10.5881   -1.8497   24.2585 H   0  0  0  0  0  0  0  0  0  0  0  0
   11.0108   -2.8460   22.8651 H   0  0  0  0  0  0  0  0  0  0  0  0
   11.8108   -0.8425   22.8818 C   0  0  0  0  0  0  0  0  0  0  0  0
   12.0128    0.1958   23.7604 N   0  0  0  0  0  0  0  0  0  0  0  0
   13.0472    0.8530   23.3163 C   0  0  0  0  0  0  0  0  0  0  0  0
   13.4959    1.7069   23.8073 H   0  0  0  0  0  0  0  0  0  0  0  0
   13.5521    0.2914   22.1881 N   0  0  0  0  0  0  0  0  0  0  0  0
   14.3039    0.6702   21.6339 H   0  0  0  0  0  0  0  0  0  0  0  0
   12.7588   -0.8012   21.8977 C   0  0  0  0  0  0  0  0  0  0  0  0
   12.9251   -1.4452   21.0481 H   0  0  0  0  0  0  0  0  0  0  0  0
    9.0091   -2.1466   21.2375 C   0  0  0  0  0  0  0  0  0  0  0  0
    9.5923   -1.6836   20.4304 H   0  0  0  0  0  0  0  0  0  0  0  0
    9.2581   -3.2102   21.2484 H   0  0  0  0  0  0  0  0  0  0  0  0
    7.5262   -1.9429   20.9487 C   0  0  0  0  0  0  0  0  0  0  0  0
    7.2277   -2.3224   19.9695 H   0  0  0  0  0  0  0  0  0  0  0  0
    6.9151   -2.4643   21.7118 H   0  0  0  0  0  0  0  0  0  0  0  0
    7.2777   -0.5108   20.9982 N   0  0  0  0  0  0  0  0  0  0  0  0
    6.6161    0.1452   19.9425 C   0  0  0  0  0  0  0  0  0  0  0  0
    7.1227    0.1381   18.6100 C   0  0  0  0  0  0  0  0  0  0  0  0
    8.0513   -0.3826   18.3976 H   0  0  0  0  0  0  0  0  0  0  0  0
    6.5349    0.7303   17.5586 N   0  0  0  0  0  0  0  0  0  0  0  0
    5.3701    1.3631   17.7833 C   0  0  0  0  0  0  0  0  0  0  0  0
    4.8933    1.8257   16.9200 H   0  0  0  0  0  0  0  0  0  0  0  0
    4.7654    1.4094   19.0457 C   0  0  0  0  0  0  0  0  0  0  0  0
    3.8088    1.9108   19.1633 H   0  0  0  0  0  0  0  0  0  0  0  0
    5.3985    0.8121   20.1395 C   0  0  0  0  0  0  0  0  0  0  0  0
    4.9676    0.8314   21.1420 H   0  0  0  0  0  0  0  0  0  0  0  0
    7.3730    0.0352   22.3488 C   0  0  0  0  0  0  0  0  0  0  0  0
    6.4861   -0.2352   22.9560 H   0  0  0  0  0  0  0  0  0  0  0  0
    7.4117    1.1331   22.3229 H   0  0  0  0  0  0  0  0  0  0  0  0
  1  2  1  0
  2  3  2  0
  3  4  1  0
  4  5  1  0
  4  6  1  0
  4  7  1  0
  7  8  1  0
  8  9  2  0
  9 10  1  0
  9 11  1  0
 11 12  1  0
 11 13  1  0
 13 14  1  0
  3 15  1  0
 15 16  1  0
 15 17  1  0
 15 18  1  0
 18 19  1  0
 18 20  1  0
 18 21  1  0
 21 22  1  0
 22 23  2  0
 23 24  1  0
 23 25  1  0
 25 26  2  0
 26 27  1  0
 26 28  1  0
 28 29  1  0
 28 30  2  0
 30 31  1  0
 21 32  1  0
 32 33  1  0
 32 34  1  0
 32  2  1  0
 13  7  2  0
 30 22  1  0
M  END
>  <cnnaffinity>  (1) 
4.8915

>  <plip>  (1) 
-0.03571428571428571

>  <filename>  (1) 
[H][C]1=[C]([C]([H])([H])[c]2[n][c]([H])[n]([H])[c]2[H])[C]([H])([H])[C]([H])([H])[N]([c]2[c]([H])[n][c]([H])[c]([H])[c]2[H])[C]1([H])[H]

>  <combo1>  (1) 
-0.24232093070260435

$$$$
