
     RDKit          3D

 31 33  0  0  0  0  0  0  0  0999 V2000
    6.6916   -1.0755   22.2119 C   0  0  0  0  0  0  0  0  0  0  0  0
    7.4689   -0.6960   20.9596 C   0  0  2  0  0  0  0  0  0  0  0  0
    8.6501    0.1154   21.2790 N   0  0  0  0  0  0  0  0  0  0  0  0
    8.6502    1.3848   21.8283 C   0  0  0  0  0  0  0  0  0  0  0  0
    7.4628    1.9842   21.9899 N   0  0  0  0  0  0  0  0  0  0  0  0
    7.4609    3.2416   22.4790 C   0  0  0  0  0  0  0  0  0  0  0  0
    8.6121    3.9176   22.8312 C   0  0  0  0  0  0  0  0  0  0  0  0
    9.8541    3.3192   22.6842 C   0  0  0  0  0  0  0  0  0  0  0  0
    9.8772    2.0181   22.1678 C   0  0  0  0  0  0  0  0  0  0  0  0
   11.5937    1.1792   21.9496 Br  0  0  0  0  0  0  0  0  0  0  0  0
   10.7629    3.8601   22.9536 H   0  0  0  0  0  0  0  0  0  0  0  0
    8.2195    5.1699   23.2954 N   0  0  0  0  0  0  0  0  0  0  0  0
    6.8675    5.3513   23.2780 N   0  0  0  0  0  0  0  0  0  0  0  0
    6.4122    4.2164   22.7850 C   0  0  0  0  0  0  0  0  0  0  0  0
    5.3645    4.0102   22.6284 H   0  0  0  0  0  0  0  0  0  0  0  0
    8.8730    5.8860   23.6135 H   0  0  0  0  0  0  0  0  0  0  0  0
    9.5607   -0.3006   21.1673 H   0  0  0  0  0  0  0  0  0  0  0  0
    6.6736    0.0317   19.9173 C   0  0  0  0  0  0  0  0  0  0  0  0
    5.4492    0.6542   20.1765 C   0  0  0  0  0  0  0  0  0  0  0  0
    4.8266    1.2976   19.1088 C   0  0  0  0  0  0  0  0  0  0  0  0
    5.4075    1.2876   17.8349 C   0  0  0  0  0  0  0  0  0  0  0  0
    6.5753    0.6697   17.5885 N   0  0  0  0  0  0  0  0  0  0  0  0
    7.1961    0.0730   18.6190 C   0  0  0  0  0  0  0  0  0  0  0  0
    8.1354   -0.4306   18.4127 H   0  0  0  0  0  0  0  0  0  0  0  0
    4.8939    1.7960   17.0220 H   0  0  0  0  0  0  0  0  0  0  0  0
    3.8915    1.8213   19.2580 H   0  0  0  0  0  0  0  0  0  0  0  0
    5.0055    0.6436   21.1730 H   0  0  0  0  0  0  0  0  0  0  0  0
    7.8015   -1.6437   20.5176 H   0  0  0  0  0  0  0  0  0  0  0  0
    7.3072   -1.7076   22.8618 H   0  0  0  0  0  0  0  0  0  0  0  0
    5.8012   -1.6462   21.9318 H   0  0  0  0  0  0  0  0  0  0  0  0
    6.3857   -0.1848   22.7677 H   0  0  0  0  0  0  0  0  0  0  0  0
  1  2  1  0
  2  3  1  0
  3  4  1  0
  4  5  2  0
  5  6  1  0
  6  7  2  0
  7  8  1  0
  8  9  2  0
  9 10  1  0
  8 11  1  0
  7 12  1  0
 12 13  1  0
 13 14  2  0
 14 15  1  0
 12 16  1  0
  3 17  1  0
  2 18  1  0
 18 19  2  0
 19 20  1  0
 20 21  2  0
 21 22  1  0
 22 23  2  0
 23 24  1  0
 21 25  1  0
 20 26  1  0
 19 27  1  0
  2 28  1  6
  1 29  1  0
  1 30  1  0
  1 31  1  0
  9  4  1  0
 23 18  1  0
 14  6  1  0
M  END
>  <cnnaffinity>  (1) 
5.08261

>  <plip>  (1) 
-0.06896551724137931

>  <filename>  (1) 
[H][c]1[n][c]([H])[c]([C@@]([H])([N]([H])[c]2[n][c]3[c]([H])[n][n]([H])[c]3[c]([H])[c]2[Br])[C]([H])([H])[H])[c]([H])[c]1[H]

>  <combo1>  (1) 
-0.3672208926934053

$$$$
