
     RDKit          3D

 46 48  0  0  0  0  0  0  0  0999 V2000
    3.7914   -6.7587   24.3184 F   0  0  0  0  0  0  0  0  0  0  0  0
    4.6094   -5.8232   23.8092 C   0  0  0  0  0  0  0  0  0  0  0  0
    5.0412   -4.7863   24.6285 C   0  0  0  0  0  0  0  0  0  0  0  0
    5.9114   -3.8363   24.0896 C   0  0  0  0  0  0  0  0  0  0  0  0
    6.3405   -3.8974   22.7494 C   0  0  0  0  0  0  0  0  0  0  0  0
    7.3438   -2.9012   22.2340 C   0  0  0  0  0  0  0  0  0  0  0  0
    6.6193   -1.8235   21.5212 N   0  0  0  0  0  4  0  0  0  0  0  0
    7.4078   -0.6815   20.9838 C   0  0  0  0  0  0  0  0  0  0  0  0
    7.8537    0.2915   22.1001 C   0  0  0  0  0  0  0  0  0  0  0  0
    8.8305    1.3385   21.6586 N   0  0  0  0  0  4  0  0  0  0  0  0
   10.1467    0.7954   21.1467 C   0  0  0  0  0  0  0  0  0  0  0  0
   11.1542    1.9226   21.3343 C   0  0  0  0  0  0  0  0  0  0  0  0
   10.5881    2.8115   22.4663 C   0  0  0  0  0  0  0  0  0  0  0  0
    9.1653    2.3109   22.7588 C   0  0  0  0  0  0  0  0  0  0  0  0
    8.4118    3.1025   22.8084 H   0  0  0  0  0  0  0  0  0  0  0  0
    9.1234    1.7632   23.7074 H   0  0  0  0  0  0  0  0  0  0  0  0
   11.1943    2.7259   23.3715 H   0  0  0  0  0  0  0  0  0  0  0  0
   10.6105    3.8716   22.1884 H   0  0  0  0  0  0  0  0  0  0  0  0
   12.1198    1.4875   21.6071 H   0  0  0  0  0  0  0  0  0  0  0  0
   11.3161    2.4955   20.4149 H   0  0  0  0  0  0  0  0  0  0  0  0
   10.4235   -0.0912   21.7266 H   0  0  0  0  0  0  0  0  0  0  0  0
   10.0280    0.4862   20.1109 H   0  0  0  0  0  0  0  0  0  0  0  0
    8.3828    1.8928   20.8844 H   0  0  0  0  0  0  0  0  0  0  0  0
    6.9573    0.7625   22.5204 H   0  0  0  0  0  0  0  0  0  0  0  0
    8.3094   -0.3134   22.8997 H   0  0  0  0  0  0  0  0  0  0  0  0
    6.5697   -0.0165   19.9107 C   0  0  0  0  0  0  0  0  0  0  0  0
    5.3568    0.6594   20.1270 C   0  0  0  0  0  0  0  0  0  0  0  0
    4.7488    1.3246   19.0574 C   0  0  0  0  0  0  0  0  0  0  0  0
    5.3772    1.3018   17.8087 C   0  0  0  0  0  0  0  0  0  0  0  0
    6.5223    0.6479   17.5732 N   0  0  0  0  0  0  0  0  0  0  0  0
    7.0905    0.0184   18.6081 C   0  0  0  0  0  0  0  0  0  0  0  0
    8.0358   -0.4857   18.3938 H   0  0  0  0  0  0  0  0  0  0  0  0
    4.9554    1.8514   16.9649 H   0  0  0  0  0  0  0  0  0  0  0  0
    3.8312    1.8947   19.1827 H   0  0  0  0  0  0  0  0  0  0  0  0
    4.8873    0.6975   21.1148 H   0  0  0  0  0  0  0  0  0  0  0  0
    8.3185   -1.0733   20.5147 H   0  0  0  0  0  0  0  0  0  0  0  0
    6.0863   -2.2486   20.7186 H   0  0  0  0  0  0  0  0  0  0  0  0
    5.8885   -1.4337   22.1859 H   0  0  0  0  0  0  0  0  0  0  0  0
    8.0638   -3.4080   21.5817 H   0  0  0  0  0  0  0  0  0  0  0  0
    7.9113   -2.5190   23.0938 H   0  0  0  0  0  0  0  0  0  0  0  0
    5.8543   -4.9559   21.9596 C   0  0  0  0  0  0  0  0  0  0  0  0
    6.3162   -5.0929   20.2804 Cl  0  0  0  0  0  0  0  0  0  0  0  0
    5.0022   -5.9303   22.4794 C   0  0  0  0  0  0  0  0  0  0  0  0
    4.6732   -6.7731   21.8839 H   0  0  0  0  0  0  0  0  0  0  0  0
    6.2826   -3.0286   24.7197 H   0  0  0  0  0  0  0  0  0  0  0  0
    4.7138   -4.7611   25.6627 H   0  0  0  0  0  0  0  0  0  0  0  0
  1  2  1  0
  2  3  2  0
  3  4  1  0
  4  5  2  0
  5  6  1  0
  6  7  1  0
  7  8  1  0
  8  9  1  0
  9 10  1  0
 10 11  1  0
 11 12  1  0
 12 13  1  0
 13 14  1  0
 14 15  1  0
 14 16  1  0
 13 17  1  0
 13 18  1  0
 12 19  1  0
 12 20  1  0
 11 21  1  0
 11 22  1  0
 10 23  1  0
  9 24  1  0
  9 25  1  0
  8 26  1  0
 26 27  2  0
 27 28  1  0
 28 29  2  0
 29 30  1  0
 30 31  2  0
 31 32  1  0
 29 33  1  0
 28 34  1  0
 27 35  1  0
  8 36  1  0
  7 37  1  0
  7 38  1  0
  6 39  1  0
  6 40  1  0
  5 41  1  0
 41 42  1  0
 41 43  2  0
 43 44  1  0
  4 45  1  0
  3 46  1  0
 43  2  1  0
 14 10  1  0
 31 26  1  0
M  CHG  2   7   1  10   1
M  END
>  <cnnaffinity>  (1) 
4.81145

>  <plip>  (1) 
-0.14285714285714285

>  <filename>  (1) 
[H][c]1[n][c]([H])[c]([C]([H])([C]([H])([H])[N+]2([H])[C]([H])([H])[C]([H])([H])[C]([H])([H])[C]2([H])[H])[N+]([H])([H])[C]([H])([H])[c]2[c]([H])[c]([H])[c]([F])[c]([H])[c]2[Cl])[c]([H])[c]1[H]

>  <combo1>  (1) 
-0.6821912696191401

$$$$
