
     RDKit          3D

 50 53  0  0  0  0  0  0  0  0999 V2000
    1.6210   -6.6462   23.8246 C   0  0  0  0  0  0  0  0  0  0  0  0
    2.0403   -5.3789   24.2525 C   0  0  0  0  0  0  0  0  0  0  0  0
    3.1510   -4.7570   23.6624 C   0  0  0  0  0  0  0  0  0  0  0  0
    3.8419   -5.3975   22.6104 C   0  0  0  0  0  0  0  0  0  0  0  0
    4.8906   -4.7204   21.7787 C   0  0  0  0  0  0  0  0  0  0  0  0
    5.2224   -3.4563   22.1009 N   0  0  0  0  0  0  0  0  0  0  0  0
    5.9463   -2.7712   21.1980 C   0  0  0  0  0  0  0  0  0  0  0  0
    6.3867   -1.5972   21.7159 N   0  0  0  0  0  0  0  0  0  0  0  0
    7.2585   -0.6517   21.0575 C   0  0  0  0  0  0  0  0  0  0  0  0
    7.8654    0.3098   22.0991 C   0  0  0  0  0  0  0  0  0  0  0  0
    9.0196    1.1585   21.6122 N   0  0  0  0  0  4  0  0  0  0  0  0
   10.2745    0.3755   21.2789 C   0  0  0  0  0  0  0  0  0  0  0  0
   11.4039    1.3990   21.3374 C   0  0  0  0  0  0  0  0  0  0  0  0
   10.9496    2.4740   22.3431 C   0  0  0  0  0  0  0  0  0  0  0  0
    9.4555    2.2188   22.6069 C   0  0  0  0  0  0  0  0  0  0  0  0
    9.2844    1.8284   23.6155 H   0  0  0  0  0  0  0  0  0  0  0  0
    8.8391    3.1132   22.4894 H   0  0  0  0  0  0  0  0  0  0  0  0
   11.5061    2.4148   23.2838 H   0  0  0  0  0  0  0  0  0  0  0  0
   11.1152    3.4775   21.9351 H   0  0  0  0  0  0  0  0  0  0  0  0
   12.3430    0.9167   21.6243 H   0  0  0  0  0  0  0  0  0  0  0  0
   11.5647    1.8530   20.3562 H   0  0  0  0  0  0  0  0  0  0  0  0
   10.4105   -0.4013   22.0398 H   0  0  0  0  0  0  0  0  0  0  0  0
   10.1858   -0.1126   20.3039 H   0  0  0  0  0  0  0  0  0  0  0  0
    8.6836    1.6620   20.7534 H   0  0  0  0  0  0  0  0  0  0  0  0
    8.2086   -0.3191   22.9298 H   0  0  0  0  0  0  0  0  0  0  0  0
    7.0549    0.9375   22.4890 H   0  0  0  0  0  0  0  0  0  0  0  0
    6.5332    0.0553   19.9293 C   0  0  0  0  0  0  0  0  0  0  0  0
    5.3066    0.7132   20.0982 C   0  0  0  0  0  0  0  0  0  0  0  0
    4.7601    1.3824   19.0022 C   0  0  0  0  0  0  0  0  0  0  0  0
    5.4461    1.3696   17.7825 C   0  0  0  0  0  0  0  0  0  0  0  0
    6.6079    0.7252   17.5984 N   0  0  0  0  0  0  0  0  0  0  0  0
    7.1153    0.0803   18.6555 C   0  0  0  0  0  0  0  0  0  0  0  0
    8.0508   -0.4573   18.4825 H   0  0  0  0  0  0  0  0  0  0  0  0
    5.0473    1.8925   16.9142 H   0  0  0  0  0  0  0  0  0  0  0  0
    3.8247    1.9233   19.0818 H   0  0  0  0  0  0  0  0  0  0  0  0
    4.7798    0.6894   21.0570 H   0  0  0  0  0  0  0  0  0  0  0  0
    8.0961   -1.2089   20.6077 H   0  0  0  0  0  0  0  0  0  0  0  0
    5.8937   -1.4659   22.5929 H   0  0  0  0  0  0  0  0  0  0  0  0
    6.1705   -3.2977   19.8806 C   0  0  0  0  0  0  0  0  0  0  0  0
    5.9799   -4.6011   19.6117 N   0  0  0  0  0  0  0  0  0  0  0  0
    5.4150   -5.3282   20.5917 C   0  0  0  0  0  0  0  0  0  0  0  0
    5.3430   -6.3915   20.3909 H   0  0  0  0  0  0  0  0  0  0  0  0
    6.4829   -2.6648   19.0520 H   0  0  0  0  0  0  0  0  0  0  0  0
    3.4579   -6.7026   22.2716 C   0  0  0  0  0  0  0  0  0  0  0  0
    2.3469   -7.3189   22.8403 C   0  0  0  0  0  0  0  0  0  0  0  0
    2.0566   -8.3141   22.5092 H   0  0  0  0  0  0  0  0  0  0  0  0
    4.0216   -7.2256   21.5168 H   0  0  0  0  0  0  0  0  0  0  0  0
    3.4748   -3.7678   23.9857 H   0  0  0  0  0  0  0  0  0  0  0  0
    1.4545   -4.8632   25.0106 H   0  0  0  0  0  0  0  0  0  0  0  0
    0.7531   -7.1249   24.2742 H   0  0  0  0  0  0  0  0  0  0  0  0
  1  2  2  0
  2  3  1  0
  3  4  2  0
  4  5  1  0
  5  6  2  0
  6  7  1  0
  7  8  1  0
  8  9  1  0
  9 10  1  0
 10 11  1  0
 11 12  1  0
 12 13  1  0
 13 14  1  0
 14 15  1  0
 15 16  1  0
 15 17  1  0
 14 18  1  0
 14 19  1  0
 13 20  1  0
 13 21  1  0
 12 22  1  0
 12 23  1  0
 11 24  1  0
 10 25  1  0
 10 26  1  0
  9 27  1  0
 27 28  2  0
 28 29  1  0
 29 30  2  0
 30 31  1  0
 31 32  2  0
 32 33  1  0
 30 34  1  0
 29 35  1  0
 28 36  1  0
  9 37  1  0
  8 38  1  0
  7 39  2  0
 39 40  1  0
 40 41  2  0
 41 42  1  0
 39 43  1  0
  4 44  1  0
 44 45  2  0
 45 46  1  0
 44 47  1  0
  3 48  1  0
  2 49  1  0
  1 50  1  0
 45  1  1  0
 41  5  1  0
 15 11  1  0
 32 27  1  0
M  CHG  1  11   1
M  END
>  <cnnaffinity>  (1) 
5.67918

>  <plip>  (1) 
-0.2413793103448276

>  <filename>  (1) 
[H][c]1[n][c]([H])[c]([N]([H])[C]([H])([c]2[c]([H])[n][c]([H])[c]([H])[c]2[H])[C]([H])([H])[N+]2([H])[C]([H])([H])[C]([H])([H])[C]([H])([H])[C]2([H])[H])[n][c]1-[c]1[c]([H])[c]([H])[c]([H])[c]([H])[c]1[H]

>  <combo1>  (1) 
-1.318905948892447

$$$$
