
     RDKit          3D

 38 39  0  0  0  0  0  0  0  0999 V2000
    8.6705   -0.8521   20.8199 O   0  0  0  0  0  0  0  0  0  0  0  0
    7.4671   -0.7207   20.9585 C   0  0  0  0  0  0  0  0  0  0  0  0
    6.7448   -1.2101   22.0124 N   0  0  0  0  0  0  0  0  0  0  0  0
    7.2909   -1.8866   23.0735 O   0  0  0  0  0  0  0  0  0  0  0  0
    7.5122   -3.2834   22.7866 C   0  0  0  0  0  0  0  0  0  0  0  0
    8.1873   -3.9179   23.9951 C   0  0  0  0  0  0  0  0  0  0  0  0
    7.4087   -3.7817   25.3187 C   0  0  0  0  0  0  0  0  0  0  0  0
    6.0408   -4.4276   25.2598 C   0  0  0  0  0  0  0  0  0  0  0  0
    4.8850   -3.6686   25.0034 C   0  0  0  0  0  0  0  0  0  0  0  0
    3.6319   -4.2787   24.9146 C   0  0  0  0  0  0  0  0  0  0  0  0
    3.5094   -5.6720   25.0693 C   0  0  0  0  0  0  0  0  0  0  0  0
    2.1582   -6.3448   24.9337 C   0  0  0  0  0  0  0  0  0  0  0  0
    1.9022   -6.6897   23.6547 F   0  0  0  0  0  0  0  0  0  0  0  0
    1.1484   -5.5428   25.3279 F   0  0  0  0  0  0  0  0  0  0  0  0
    2.0730   -7.4761   25.6623 F   0  0  0  0  0  0  0  0  0  0  0  0
    4.6653   -6.4411   25.2977 C   0  0  0  0  0  0  0  0  0  0  0  0
    5.9106   -5.8206   25.3929 C   0  0  0  0  0  0  0  0  0  0  0  0
    6.8099   -6.4070   25.5789 H   0  0  0  0  0  0  0  0  0  0  0  0
    4.5947   -7.5201   25.4154 H   0  0  0  0  0  0  0  0  0  0  0  0
    2.7498   -3.6682   24.7354 H   0  0  0  0  0  0  0  0  0  0  0  0
    4.9940   -2.5926   24.8538 H   0  0  0  0  0  0  0  0  0  0  0  0
    7.3063   -2.7196   25.5714 H   0  0  0  0  0  0  0  0  0  0  0  0
    7.9965   -4.2379   26.1276 H   0  0  0  0  0  0  0  0  0  0  0  0
    8.3210   -4.9834   23.7664 H   0  0  0  0  0  0  0  0  0  0  0  0
    9.1968   -3.5054   24.1152 H   0  0  0  0  0  0  0  0  0  0  0  0
    8.1454   -3.3740   21.8911 H   0  0  0  0  0  0  0  0  0  0  0  0
    6.5453   -3.7730   22.5831 H   0  0  0  0  0  0  0  0  0  0  0  0
    5.7394   -1.2090   21.9697 H   0  0  0  0  0  0  0  0  0  0  0  0
    6.6141   -0.0195   19.9426 C   0  0  0  0  0  0  0  0  0  0  0  0
    5.3916    0.6414   20.1784 C   0  0  0  0  0  0  0  0  0  0  0  0
    4.7893    1.3043   19.1103 C   0  0  0  0  0  0  0  0  0  0  0  0
    5.4031    1.2796   17.8544 C   0  0  0  0  0  0  0  0  0  0  0  0
    6.5642    0.6503   17.6189 N   0  0  0  0  0  0  0  0  0  0  0  0
    7.1496    0.0377   18.6503 C   0  0  0  0  0  0  0  0  0  0  0  0
    8.1140   -0.4211   18.4396 H   0  0  0  0  0  0  0  0  0  0  0  0
    4.9607    1.7813   16.9943 H   0  0  0  0  0  0  0  0  0  0  0  0
    3.8636    1.8559   19.2349 H   0  0  0  0  0  0  0  0  0  0  0  0
    4.9407    0.6981   21.1745 H   0  0  0  0  0  0  0  0  0  0  0  0
  1  2  2  0
  2  3  1  0
  3  4  1  0
  4  5  1  0
  5  6  1  0
  6  7  1  0
  7  8  1  0
  8  9  2  0
  9 10  1  0
 10 11  2  0
 11 12  1  0
 12 13  1  0
 12 14  1  0
 12 15  1  0
 11 16  1  0
 16 17  2  0
 17 18  1  0
 16 19  1  0
 10 20  1  0
  9 21  1  0
  7 22  1  0
  7 23  1  0
  6 24  1  0
  6 25  1  0
  5 26  1  0
  5 27  1  0
  3 28  1  0
  2 29  1  0
 29 30  2  0
 30 31  1  0
 31 32  2  0
 32 33  1  0
 33 34  2  0
 34 35  1  0
 32 36  1  0
 31 37  1  0
 30 38  1  0
 17  8  1  0
 34 29  1  0
M  END
>  <cnnaffinity>  (1) 
4.97977

>  <plip>  (1) 
-0.06896551724137931

>  <filename>  (1) 
[H][c]1[n][c]([H])[c]([C](=[O])[N]([H])[O][C]([H])([H])[C]([H])([H])[C]([H])([H])[c]2[c]([H])[c]([H])[c]([C]([F])([F])[F])[c]([H])[c]2[H])[c]([H])[c]1[H]

>  <combo1>  (1) 
-0.35299650099095226

$$$$
