
     RDKit          3D

 40 41  0  0  0  0  0  0  0  0999 V2000
    7.4142    4.8992   25.8537 C   0  0  0  0  0  0  0  0  0  0  0  0
    8.6917    4.1278   26.1812 C   0  0  0  0  0  0  0  0  0  0  0  0
    9.6470    3.9816   25.0053 C   0  0  0  0  0  0  0  0  0  0  0  0
   10.4635    5.0770   24.6588 C   0  0  0  0  0  0  0  0  0  0  0  0
   11.5309    4.9534   23.7642 C   0  0  0  0  0  0  0  0  0  0  0  0
   11.8257    3.6983   23.2192 C   0  0  0  0  0  0  0  0  0  0  0  0
   11.0016    2.6086   23.5194 C   0  0  0  0  0  0  0  0  0  0  0  0
    9.8740    2.7631   24.3359 C   0  0  0  0  0  0  0  0  0  0  0  0
    8.9678    1.6668   24.4613 N   0  0  0  0  0  0  0  0  0  0  0  0
    9.4052    0.4181   24.8089 C   0  0  0  0  0  0  0  0  0  0  0  0
   10.4938    0.1927   25.2982 O   0  0  0  0  0  0  0  0  0  0  0  0
    8.3524   -0.6935   24.5562 C   0  0  0  0  0  0  0  0  0  0  0  0
    8.0004   -0.9905   23.1488 N   0  0  0  0  0  0  0  0  0  0  0  0
    7.2297   -0.1678   22.3702 C   0  0  0  0  0  0  0  0  0  0  0  0
    6.7348    0.8697   22.7835 O   0  0  0  0  0  0  0  0  0  0  0  0
    7.1552   -0.6514   21.0741 N   0  0  0  0  0  0  0  0  0  0  0  0
    6.5801    0.0292   19.9669 C   0  0  0  0  0  0  0  0  0  0  0  0
    5.4179    0.7966   20.1127 C   0  0  0  0  0  0  0  0  0  0  0  0
    4.8678    1.3884   18.9689 C   0  0  0  0  0  0  0  0  0  0  0  0
    5.5000    1.2180   17.7342 C   0  0  0  0  0  0  0  0  0  0  0  0
    6.6249    0.5007   17.5825 N   0  0  0  0  0  0  0  0  0  0  0  0
    7.1428   -0.0781   18.6717 C   0  0  0  0  0  0  0  0  0  0  0  0
    8.0605   -0.6480   18.5206 H   0  0  0  0  0  0  0  0  0  0  0  0
    5.0994    1.6719   16.8308 H   0  0  0  0  0  0  0  0  0  0  0  0
    3.9672    1.9887   19.0268 H   0  0  0  0  0  0  0  0  0  0  0  0
    4.9914    0.9284   21.1045 H   0  0  0  0  0  0  0  0  0  0  0  0
    7.9540   -1.2308   20.8759 H   0  0  0  0  0  0  0  0  0  0  0  0
    8.1308   -1.9201   22.7863 H   0  0  0  0  0  0  0  0  0  0  0  0
    8.7536   -1.5950   25.0195 H   0  0  0  0  0  0  0  0  0  0  0  0
    7.4534   -0.3990   25.1137 H   0  0  0  0  0  0  0  0  0  0  0  0
    8.0978    1.7008   23.9311 H   0  0  0  0  0  0  0  0  0  0  0  0
   11.2310    1.6140   23.1502 H   0  0  0  0  0  0  0  0  0  0  0  0
   12.6857    3.5680   22.5627 H   0  0  0  0  0  0  0  0  0  0  0  0
   12.1517    5.8154   23.5258 H   0  0  0  0  0  0  0  0  0  0  0  0
   10.2555    6.0367   25.1302 H   0  0  0  0  0  0  0  0  0  0  0  0
    8.4360    3.1405   26.5849 H   0  0  0  0  0  0  0  0  0  0  0  0
    9.2251    4.6615   26.9826 H   0  0  0  0  0  0  0  0  0  0  0  0
    7.6482    5.8910   25.4521 H   0  0  0  0  0  0  0  0  0  0  0  0
    6.8129    4.3566   25.1172 H   0  0  0  0  0  0  0  0  0  0  0  0
    6.8073    5.0323   26.7545 H   0  0  0  0  0  0  0  0  0  0  0  0
  1  2  1  0
  2  3  1  0
  3  4  2  0
  4  5  1  0
  5  6  2  0
  6  7  1  0
  7  8  2  0
  8  9  1  0
  9 10  1  0
 10 11  2  0
 10 12  1  0
 12 13  1  0
 13 14  1  0
 14 15  2  0
 14 16  1  0
 16 17  1  0
 17 18  2  0
 18 19  1  0
 19 20  2  0
 20 21  1  0
 21 22  2  0
 22 23  1  0
 20 24  1  0
 19 25  1  0
 18 26  1  0
 16 27  1  0
 13 28  1  0
 12 29  1  0
 12 30  1  0
  9 31  1  0
  7 32  1  0
  6 33  1  0
  5 34  1  0
  4 35  1  0
  2 36  1  0
  2 37  1  0
  1 38  1  0
  1 39  1  0
  1 40  1  0
  8  3  1  0
 22 17  1  0
M  END
>  <cnnaffinity>  (1) 
4.85168

>  <plip>  (1) 
-0.10714285714285714

>  <filename>  (1) 
[H][c]1[n][c]([H])[c]([N]([H])[C](=[O])[N]([H])[C]([H])([H])[C](=[O])[N]([H])[c]2[c]([H])[c]([H])[c]([H])[c]([H])[c]2[C]([H])([H])[C]([H])([H])[H])[c]([H])[c]1[H]

>  <combo1>  (1) 
-0.5807830026690015

$$$$
