
     RDKit          3D

 20 21  0  0  0  0  0  0  0  0999 V2000
    6.5514    0.0907   22.6150 H   0  0  0  0  0  0  0  0  0  0  0  0
    7.2571   -0.6169   22.1453 C   0  0  0  0  0  0  0  0  0  0  0  0
    7.4216   -0.7340   20.8831 N   0  0  0  0  0  0  0  0  0  0  0  0
    6.6726    0.0055   19.9278 C   0  0  0  0  0  0  0  0  0  0  0  0
    7.1766    0.0624   18.5995 C   0  0  0  0  0  0  0  0  0  0  0  0
    8.1212   -0.4338   18.3930 H   0  0  0  0  0  0  0  0  0  0  0  0
    6.5705    0.6779   17.5793 N   0  0  0  0  0  0  0  0  0  0  0  0
    5.3990    1.2935   17.8428 C   0  0  0  0  0  0  0  0  0  0  0  0
    4.9089    1.7772   16.9998 H   0  0  0  0  0  0  0  0  0  0  0  0
    4.8076    1.3091   19.1098 C   0  0  0  0  0  0  0  0  0  0  0  0
    3.8731    1.8433   19.2665 H   0  0  0  0  0  0  0  0  0  0  0  0
    5.4474    0.6517   20.1730 C   0  0  0  0  0  0  0  0  0  0  0  0
    5.0010    0.6282   21.1668 H   0  0  0  0  0  0  0  0  0  0  0  0
    8.0639   -1.4247   23.0551 C   0  0  0  0  0  0  0  0  0  0  0  0
    7.9555   -1.3412   24.7749 S   0  0  0  0  0  0  0  0  0  0  0  0
    9.1898   -2.5597   24.8765 C   0  0  0  0  0  0  0  0  0  0  0  0
    9.5349   -2.9147   25.8407 H   0  0  0  0  0  0  0  0  0  0  0  0
    9.6401   -2.9898   23.7349 N   0  0  0  0  0  0  0  0  0  0  0  0
    9.0094   -2.3501   22.7057 C   0  0  0  0  0  0  0  0  0  0  0  0
    9.2683   -2.5924   21.6833 H   0  0  0  0  0  0  0  0  0  0  0  0
  1  2  1  0
  2  3  2  3
  3  4  1  0
  4  5  2  0
  5  6  1  0
  5  7  1  0
  7  8  2  0
  8  9  1  0
  8 10  1  0
 10 11  1  0
 10 12  2  0
 12 13  1  0
  2 14  1  0
 14 15  1  0
 15 16  1  0
 16 17  1  0
 16 18  2  0
 18 19  1  0
 19 20  1  0
 12  4  1  0
 19 14  2  0
M  END
>  <cnnaffinity>  (1) 
4.25276

>  <plip>  (1) 
-0.03571428571428571

>  <filename>  (1) 
[H][C](=[N][c]1[c]([H])[n][c]([H])[c]([H])[c]1[H])[c]1[s][c]([H])[n][c]1[H]

>  <combo1>  (1) 
-0.26752955320986904

$$$$
