
     RDKit          3D

 54 56  0  0  0  0  0  0  0  0999 V2000
    5.4848   -5.8028   20.6662 C   0  0  0  0  0  0  0  0  0  0  0  0
    4.7794   -4.9919   21.7440 C   0  0  0  0  0  0  0  0  0  0  0  0
    5.0594   -3.6986   21.9904 C   0  0  0  0  0  0  0  0  0  0  0  0
    5.7746   -2.7768   21.0676 C   0  0  0  0  0  0  0  0  0  0  0  0
    5.9013   -2.9530   19.8660 O   0  0  0  0  0  0  0  0  0  0  0  0
    6.3115   -1.6989   21.7033 N   0  0  0  0  0  0  0  0  0  0  0  0
    7.2020   -0.7512   21.0592 C   0  0  0  0  0  0  0  0  0  0  0  0
    7.7893    0.1845   22.1441 C   0  0  0  0  0  0  0  0  0  0  0  0
    8.9168    1.0789   21.7108 N   0  0  0  0  0  4  0  0  0  0  0  0
    9.3262    2.1122   22.7608 C   0  0  0  0  0  0  0  0  0  0  0  0
   10.8409    2.3212   22.5847 C   0  0  0  0  0  0  0  0  0  0  0  0
   11.2309    1.4875   21.3601 C   0  0  0  0  0  0  0  0  0  0  0  0
   10.2030    0.3691   21.3422 C   0  0  0  0  0  0  0  0  0  0  0  0
   10.4209   -0.3876   22.1079 H   0  0  0  0  0  0  0  0  0  0  0  0
   10.1140   -0.1310   20.3759 H   0  0  0  0  0  0  0  0  0  0  0  0
   11.1376    2.0889   20.4474 H   0  0  0  0  0  0  0  0  0  0  0  0
   12.2555    1.1122   21.4132 H   0  0  0  0  0  0  0  0  0  0  0  0
   11.0961    3.3759   22.4584 H   0  0  0  0  0  0  0  0  0  0  0  0
   11.3740    1.9853   23.4808 H   0  0  0  0  0  0  0  0  0  0  0  0
    9.0985    1.7088   23.7519 H   0  0  0  0  0  0  0  0  0  0  0  0
    8.7467    3.0307   22.6303 H   0  0  0  0  0  0  0  0  0  0  0  0
    8.5830    1.6148   20.8727 H   0  0  0  0  0  0  0  0  0  0  0  0
    8.1605   -0.4572   22.9546 H   0  0  0  0  0  0  0  0  0  0  0  0
    6.9724    0.7942   22.5496 H   0  0  0  0  0  0  0  0  0  0  0  0
    6.5204   -0.0104   19.9145 C   0  0  0  0  0  0  0  0  0  0  0  0
    5.3458    0.7271   20.0929 C   0  0  0  0  0  0  0  0  0  0  0  0
    4.8089    1.4221   19.0048 C   0  0  0  0  0  0  0  0  0  0  0  0
    5.4707    1.3587   17.7728 C   0  0  0  0  0  0  0  0  0  0  0  0
    6.5919    0.6535   17.5738 N   0  0  0  0  0  0  0  0  0  0  0  0
    7.0824   -0.0176   18.6274 C   0  0  0  0  0  0  0  0  0  0  0  0
    7.9898   -0.5883   18.4264 H   0  0  0  0  0  0  0  0  0  0  0  0
    5.0745    1.8944   16.9087 H   0  0  0  0  0  0  0  0  0  0  0  0
    3.9005    2.0059   19.0986 H   0  0  0  0  0  0  0  0  0  0  0  0
    4.8453    0.7462   21.0639 H   0  0  0  0  0  0  0  0  0  0  0  0
    8.0304   -1.3148   20.6171 H   0  0  0  0  0  0  0  0  0  0  0  0
    6.0197   -1.5761   22.6554 H   0  0  0  0  0  0  0  0  0  0  0  0
    4.8072   -3.2720   22.9609 H   0  0  0  0  0  0  0  0  0  0  0  0
    3.7737   -5.6823   22.6220 C   0  0  0  0  0  0  0  0  0  0  0  0
    2.4099   -5.7243   22.2803 C   0  0  0  0  0  0  0  0  0  0  0  0
    1.5224   -6.5650   22.9546 C   0  0  0  0  0  0  0  0  0  0  0  0
    1.9972   -7.3639   23.9977 C   0  0  0  0  0  0  0  0  0  0  0  0
    3.3360   -7.2757   24.3970 C   0  0  0  0  0  0  0  0  0  0  0  0
    4.2183   -6.3934   23.7615 C   0  0  0  0  0  0  0  0  0  0  0  0
    5.6289   -6.2217   24.2528 C   0  0  0  0  0  0  0  0  0  0  0  0
    5.9081   -5.1666   24.3285 H   0  0  0  0  0  0  0  0  0  0  0  0
    5.7965   -6.6903   25.2231 H   0  0  0  0  0  0  0  0  0  0  0  0
    6.3047   -6.6560   23.5116 H   0  0  0  0  0  0  0  0  0  0  0  0
    3.6969   -7.8970   25.2190 H   0  0  0  0  0  0  0  0  0  0  0  0
    1.3214   -8.0482   24.5012 H   0  0  0  0  0  0  0  0  0  0  0  0
    0.4748   -6.6067   22.6520 H   0  0  0  0  0  0  0  0  0  0  0  0
    2.0328   -5.0896   21.4869 H   0  0  0  0  0  0  0  0  0  0  0  0
    5.3782   -5.3267   19.6816 H   0  0  0  0  0  0  0  0  0  0  0  0
    6.5706   -5.8638   20.8471 H   0  0  0  0  0  0  0  0  0  0  0  0
    5.0924   -6.8279   20.6263 H   0  0  0  0  0  0  0  0  0  0  0  0
  1  2  1  0
  2  3  2  3
  3  4  1  0
  4  5  2  0
  4  6  1  0
  6  7  1  0
  7  8  1  0
  8  9  1  0
  9 10  1  0
 10 11  1  0
 11 12  1  0
 12 13  1  0
 13 14  1  0
 13 15  1  0
 12 16  1  0
 12 17  1  0
 11 18  1  0
 11 19  1  0
 10 20  1  0
 10 21  1  0
  9 22  1  0
  8 23  1  0
  8 24  1  0
  7 25  1  0
 25 26  2  0
 26 27  1  0
 27 28  2  0
 28 29  1  0
 29 30  2  0
 30 31  1  0
 28 32  1  0
 27 33  1  0
 26 34  1  0
  7 35  1  0
  6 36  1  0
  3 37  1  0
  2 38  1  0
 38 39  2  0
 39 40  1  0
 40 41  2  0
 41 42  1  0
 42 43  2  0
 43 44  1  0
 44 45  1  0
 44 46  1  0
 44 47  1  0
 42 48  1  0
 41 49  1  0
 40 50  1  0
 39 51  1  0
  1 52  1  0
  1 53  1  0
  1 54  1  0
 13  9  1  0
 30 25  1  0
 43 38  1  0
M  CHG  1   9   1
M  END
>  <cnnaffinity>  (1) 
5.8468

>  <plip>  (1) 
-0.3

>  <filename>  (1) 
[H][C]([C](=[O])[N]([H])[C]([H])([c]1[c]([H])[n][c]([H])[c]([H])[c]1[H])[C]([H])([H])[N+]1([H])[C]([H])([H])[C]([H])([H])[C]([H])([H])[C]1([H])[H])=[C]([c]1[c]([H])[c]([H])[c]([H])[c]([H])[c]1[C]([H])([H])[H])[C]([H])([H])[H]

>  <combo1>  (1) 
-1.6681978738095098

$$$$
