
     RDKit          3D

 43 45  0  0  0  0  0  0  0  0999 V2000
    4.5348   -2.0023   26.5827 C   0  0  0  0  0  0  0  0  0  0  0  0
    5.8507   -1.2409   26.4596 C   0  0  1  0  0  0  0  0  0  0  0  0
    6.2330   -1.1604   25.0549 N   0  0  0  0  0  0  0  0  0  0  0  0
    7.3837   -1.6817   24.5427 C   0  0  0  0  0  0  0  0  0  0  0  0
    8.1680   -2.3026   25.2494 O   0  0  0  0  0  0  0  0  0  0  0  0
    7.6981   -1.4588   23.0543 C   0  0  0  0  0  0  0  0  0  0  0  0
    8.8301   -1.9502   22.4557 C   0  0  0  0  0  0  0  0  0  0  0  0
    8.8855   -1.5252   20.8035 S   0  0  0  0  0  0  0  0  0  0  0  0
    7.3581   -0.6931   20.9915 C   0  0  0  0  0  0  0  0  0  0  0  0
    6.6579    0.0082   19.9107 C   0  0  0  0  0  0  0  0  0  0  0  0
    5.4341    0.6554   20.1620 C   0  0  0  0  0  0  0  0  0  0  0  0
    4.8041    1.3110   19.1094 C   0  0  0  0  0  0  0  0  0  0  0  0
    5.4051    1.2884   17.8461 C   0  0  0  0  0  0  0  0  0  0  0  0
    6.5700    0.6718   17.5945 N   0  0  0  0  0  0  0  0  0  0  0  0
    7.1781    0.0559   18.6105 C   0  0  0  0  0  0  0  0  0  0  0  0
    8.1235   -0.4276   18.3710 H   0  0  0  0  0  0  0  0  0  0  0  0
    4.9221    1.7745   17.0010 H   0  0  0  0  0  0  0  0  0  0  0  0
    3.8722    1.8446   19.2594 H   0  0  0  0  0  0  0  0  0  0  0  0
    5.0064    0.6309   21.1677 H   0  0  0  0  0  0  0  0  0  0  0  0
    6.8790   -0.7461   22.1975 N   0  0  0  0  0  0  0  0  0  0  0  0
    9.6225   -2.5321   22.9074 H   0  0  0  0  0  0  0  0  0  0  0  0
    5.6185   -0.6825   24.4141 H   0  0  0  0  0  0  0  0  0  0  0  0
    5.7926    0.1631   27.1078 C   0  0  0  0  0  0  0  0  0  0  0  0
    7.1115    0.9415   26.9424 C   0  0  0  0  0  0  0  0  0  0  0  0
    7.0478    2.3798   27.4964 C   0  0  0  0  0  0  0  0  0  0  0  0
    5.9858    2.5471   28.5720 N   0  0  0  0  0  4  0  0  0  0  0  0
    5.8793    1.3171   29.4376 C   0  0  0  0  0  0  0  0  0  0  0  0
    5.4062    0.1025   28.6108 C   0  0  0  0  0  0  0  0  0  0  0  0
    4.3185    0.0003   28.7054 H   0  0  0  0  0  0  0  0  0  0  0  0
    5.8384   -0.7944   29.0747 H   0  0  0  0  0  0  0  0  0  0  0  0
    6.8645    1.1063   29.8637 H   0  0  0  0  0  0  0  0  0  0  0  0
    5.1971    1.5095   30.2663 H   0  0  0  0  0  0  0  0  0  0  0  0
    5.0598    2.6776   28.0892 H   0  0  0  0  0  0  0  0  0  0  0  0
    6.2034    3.3782   29.1488 H   0  0  0  0  0  0  0  0  0  0  0  0
    8.0256    2.6489   27.9052 H   0  0  0  0  0  0  0  0  0  0  0  0
    6.8247    3.0791   26.6882 H   0  0  0  0  0  0  0  0  0  0  0  0
    7.3957    0.9937   25.8877 H   0  0  0  0  0  0  0  0  0  0  0  0
    7.9136    0.3799   27.4434 H   0  0  0  0  0  0  0  0  0  0  0  0
    5.0030    0.7167   26.5738 H   0  0  0  0  0  0  0  0  0  0  0  0
    6.6365   -1.8173   26.9605 H   0  0  0  0  0  0  0  0  0  0  0  0
    4.5956   -2.9540   26.0472 H   0  0  0  0  0  0  0  0  0  0  0  0
    4.2982   -2.2223   27.6282 H   0  0  0  0  0  0  0  0  0  0  0  0
    3.7024   -1.4238   26.1640 H   0  0  0  0  0  0  0  0  0  0  0  0
  1  2  1  0
  2  3  1  0
  3  4  1  0
  4  5  2  0
  4  6  1  0
  6  7  2  0
  7  8  1  0
  8  9  1  0
  9 10  1  0
 10 11  2  0
 11 12  1  0
 12 13  2  0
 13 14  1  0
 14 15  2  0
 15 16  1  0
 13 17  1  0
 12 18  1  0
 11 19  1  0
  9 20  2  0
  7 21  1  0
  3 22  1  0
  2 23  1  0
 23 24  1  0
 24 25  1  0
 25 26  1  0
 26 27  1  0
 27 28  1  0
 28 29  1  0
 28 30  1  0
 27 31  1  0
 27 32  1  0
 26 33  1  0
 26 34  1  0
 25 35  1  0
 25 36  1  0
 24 37  1  0
 24 38  1  0
 23 39  1  0
  2 40  1  1
  1 41  1  0
  1 42  1  0
  1 43  1  0
 20  6  1  0
 28 23  1  0
 15 10  1  0
M  CHG  1  26   1
M  END
>  <cnnaffinity>  (1) 
5.03859

>  <plip>  (1) 
-0.10714285714285714

>  <filename>  (1) 
[H][c]1[n][c]([H])[c](-[c]2[n][c]([C](=[O])[N]([H])[C@]([H])([C]([H])([H])[H])[C]3([H])[C]([H])([H])[C]([H])([H])[N+]([H])([H])[C]([H])([H])[C]3([H])[H])[c]([H])[s]2)[c]([H])[c]1[H]

>  <combo1>  (1) 
-0.5668812267502409

$$$$
