
     RDKit          3D

 43 45  0  0  0  0  0  0  0  0999 V2000
   12.2272    4.8271   24.4584 C   0  0  0  0  0  0  0  0  0  0  0  0
   11.8132    3.4006   24.1475 C   0  0  0  0  0  0  0  0  0  0  0  0
   10.6211    3.3018   23.2168 C   0  0  0  0  0  0  0  0  0  0  0  0
   10.6823    1.8788   22.6626 C   0  0  0  0  0  0  0  0  0  0  0  0
    9.8915    1.6960   21.3687 C   0  0  0  0  0  0  0  0  0  0  0  0
    8.4121    2.0514   21.5191 N   0  0  0  0  0  4  0  0  0  0  0  0
    7.6842    1.2392   22.6019 C   0  0  0  0  0  0  0  0  0  0  0  0
    7.7437   -0.2168   22.2480 C   0  0  0  0  0  0  0  0  0  0  0  0
    8.2677   -1.3316   22.8783 C   0  0  0  0  0  0  0  0  0  0  0  0
    8.3604   -2.3053   21.8635 C   0  0  0  0  0  0  0  0  0  0  0  0
    7.8760   -1.8605   20.7106 N   0  0  0  0  0  0  0  0  0  0  0  0
    7.4566   -0.6055   20.9668 N   0  0  0  0  0  0  0  0  0  0  0  0
    6.7304    0.0815   19.9541 C   0  0  0  0  0  0  0  0  0  0  0  0
    5.5043    0.7276   20.1782 C   0  0  0  0  0  0  0  0  0  0  0  0
    4.8955    1.3574   19.0881 C   0  0  0  0  0  0  0  0  0  0  0  0
    5.5230    1.3285   17.8419 C   0  0  0  0  0  0  0  0  0  0  0  0
    6.6904    0.6979   17.6281 N   0  0  0  0  0  0  0  0  0  0  0  0
    7.2565    0.0614   18.6537 C   0  0  0  0  0  0  0  0  0  0  0  0
    8.1865   -0.4641   18.4432 H   0  0  0  0  0  0  0  0  0  0  0  0
    5.0738    1.8170   16.9782 H   0  0  0  0  0  0  0  0  0  0  0  0
    3.9437    1.8658   19.1941 H   0  0  0  0  0  0  0  0  0  0  0  0
    5.0438    0.7401   21.1679 H   0  0  0  0  0  0  0  0  0  0  0  0
    8.7849   -3.3032   21.8993 H   0  0  0  0  0  0  0  0  0  0  0  0
    8.5562   -1.4401   23.9185 H   0  0  0  0  0  0  0  0  0  0  0  0
    6.6555    1.5912   22.6827 H   0  0  0  0  0  0  0  0  0  0  0  0
    8.1520    1.3893   23.5794 H   0  0  0  0  0  0  0  0  0  0  0  0
    7.8911    1.8942   20.6276 H   0  0  0  0  0  0  0  0  0  0  0  0
    8.3396    3.0763   21.7002 H   0  0  0  0  0  0  0  0  0  0  0  0
    9.9736    0.6612   21.0238 H   0  0  0  0  0  0  0  0  0  0  0  0
   10.3464    2.3392   20.6072 H   0  0  0  0  0  0  0  0  0  0  0  0
   12.1923    1.6169   22.4938 C   0  0  0  0  0  0  0  0  0  0  0  0
   12.8628    2.6716   23.3407 N   0  0  0  0  0  4  0  0  0  0  0  0
   13.2523    3.4140   22.6864 H   0  0  0  0  0  0  0  0  0  0  0  0
   13.6515    2.3030   23.9015 H   0  0  0  0  0  0  0  0  0  0  0  0
   12.4799    0.6064   22.8110 H   0  0  0  0  0  0  0  0  0  0  0  0
   12.5017    1.7155   21.4457 H   0  0  0  0  0  0  0  0  0  0  0  0
   10.2965    1.1779   23.4141 H   0  0  0  0  0  0  0  0  0  0  0  0
   10.7297    4.0362   22.4027 H   0  0  0  0  0  0  0  0  0  0  0  0
    9.6888    3.5414   23.7366 H   0  0  0  0  0  0  0  0  0  0  0  0
   11.5933    2.8377   25.0631 H   0  0  0  0  0  0  0  0  0  0  0  0
   13.0003    4.9255   25.2267 H   0  0  0  0  0  0  0  0  0  0  0  0
   11.3710    5.4055   24.8116 H   0  0  0  0  0  0  0  0  0  0  0  0
   12.6006    5.3139   23.5502 H   0  0  0  0  0  0  0  0  0  0  0  0
  1  2  1  0
  2  3  1  0
  3  4  1  0
  4  5  1  0
  5  6  1  0
  6  7  1  0
  7  8  1  0
  8  9  2  0
  9 10  1  0
 10 11  2  0
 11 12  1  0
 12 13  1  0
 13 14  2  0
 14 15  1  0
 15 16  2  0
 16 17  1  0
 17 18  2  0
 18 19  1  0
 16 20  1  0
 15 21  1  0
 14 22  1  0
 10 23  1  0
  9 24  1  0
  7 25  1  0
  7 26  1  0
  6 27  1  0
  6 28  1  0
  5 29  1  0
  5 30  1  0
  4 31  1  0
 31 32  1  0
 32 33  1  0
 32 34  1  0
 31 35  1  0
 31 36  1  0
  4 37  1  0
  3 38  1  0
  3 39  1  0
  2 40  1  0
  1 41  1  0
  1 42  1  0
  1 43  1  0
 32  2  1  0
 12  8  1  0
 18 13  1  0
M  CHG  2   6   1  32   1
M  END
>  <cnnaffinity>  (1) 
5.04034

>  <plip>  (1) 
-0.13793103448275862

>  <filename>  (1) 
[H][c]1[n][c]([H])[c](-[n]2[n][c]([H])[c]([H])[c]2[C]([H])([H])[N+]([H])([H])[C]([H])([H])[C]2([H])[C]([H])([H])[C]([H])([C]([H])([H])[H])[N+]([H])([H])[C]2([H])[H])[c]([H])[c]1[H]

>  <combo1>  (1) 
-0.8476712979360264

$$$$
