
     RDKit          3D

 42 44  0  0  0  0  0  0  0  0999 V2000
   13.4409    2.0313   23.0690 C   0  0  0  0  0  0  0  0  0  0  0  0
   12.9330    0.6240   22.8985 C   0  0  0  0  0  0  0  0  0  0  0  0
   13.7813   -0.3703   22.3811 C   0  0  0  0  0  0  0  0  0  0  0  0
   13.3145   -1.6420   22.0389 C   0  0  0  0  0  0  0  0  0  0  0  0
   11.9804   -1.9561   22.2878 C   0  0  0  0  0  0  0  0  0  0  0  0
   11.1422   -1.0176   22.8916 C   0  0  0  0  0  0  0  0  0  0  0  0
   11.5918    0.2728   23.1850 C   0  0  0  0  0  0  0  0  0  0  0  0
   10.4041    1.4722   23.8047 S   0  0  0  0  0  0  0  0  0  0  0  0
    9.8663    2.1370   22.1882 C   0  0  0  0  0  0  0  0  0  0  0  0
    9.0938    1.1567   21.3306 C   0  0  0  0  0  0  0  0  0  0  0  0
    9.4567    0.8763   20.2024 O   0  0  0  0  0  0  0  0  0  0  0  0
    8.0050    0.5708   21.8920 N   0  0  0  0  0  0  0  0  0  0  0  0
    7.3091   -0.4845   21.1784 C   0  0  0  0  0  0  0  0  0  0  0  0
    6.5541    0.1164   20.0091 C   0  0  0  0  0  0  0  0  0  0  0  0
    5.3191    0.7540   20.1709 C   0  0  0  0  0  0  0  0  0  0  0  0
    4.7286    1.3572   19.0591 C   0  0  0  0  0  0  0  0  0  0  0  0
    5.3943    1.3068   17.8279 C   0  0  0  0  0  0  0  0  0  0  0  0
    6.5890    0.7232   17.6565 N   0  0  0  0  0  0  0  0  0  0  0  0
    7.1493    0.1651   18.7345 C   0  0  0  0  0  0  0  0  0  0  0  0
    8.1471   -0.2411   18.5857 H   0  0  0  0  0  0  0  0  0  0  0  0
    4.9626    1.7612   16.9415 H   0  0  0  0  0  0  0  0  0  0  0  0
    3.7803    1.8779   19.1336 H   0  0  0  0  0  0  0  0  0  0  0  0
    4.8466    0.7937   21.1568 H   0  0  0  0  0  0  0  0  0  0  0  0
    6.5025   -1.4464   22.0792 C   0  0  0  0  0  0  0  0  0  0  0  0
    7.4415   -2.6281   21.7238 C   0  0  0  0  0  0  0  0  0  0  0  0
    8.2266   -1.6796   20.7986 C   0  0  0  0  0  0  0  0  0  0  0  0
    9.2712   -1.5432   21.0700 H   0  0  0  0  0  0  0  0  0  0  0  0
    8.1659   -1.8677   19.7412 H   0  0  0  0  0  0  0  0  0  0  0  0
    6.9560   -3.4686   21.2162 H   0  0  0  0  0  0  0  0  0  0  0  0
    8.0247   -3.0212   22.5669 H   0  0  0  0  0  0  0  0  0  0  0  0
    5.4971   -1.6169   21.6943 H   0  0  0  0  0  0  0  0  0  0  0  0
    6.4636   -1.1543   23.1327 H   0  0  0  0  0  0  0  0  0  0  0  0
    7.7848    0.7412   22.8594 H   0  0  0  0  0  0  0  0  0  0  0  0
    9.2683    3.0318   22.3662 H   0  0  0  0  0  0  0  0  0  0  0  0
   10.7362    2.4382   21.6005 H   0  0  0  0  0  0  0  0  0  0  0  0
   10.1208   -1.2880   23.1353 H   0  0  0  0  0  0  0  0  0  0  0  0
   11.5806   -2.9320   22.0488 H   0  0  0  0  0  0  0  0  0  0  0  0
   13.9879   -2.3742   21.5961 H   0  0  0  0  0  0  0  0  0  0  0  0
   14.8297   -0.1227   22.2452 H   0  0  0  0  0  0  0  0  0  0  0  0
   14.4959    2.1106   22.7939 H   0  0  0  0  0  0  0  0  0  0  0  0
   13.2990    2.3863   24.0926 H   0  0  0  0  0  0  0  0  0  0  0  0
   12.8755    2.7231   22.4316 H   0  0  0  0  0  0  0  0  0  0  0  0
  1  2  1  0
  2  3  2  0
  3  4  1  0
  4  5  2  0
  5  6  1  0
  6  7  2  0
  7  8  1  0
  8  9  1  0
  9 10  1  0
 10 11  2  0
 10 12  1  0
 12 13  1  0
 13 14  1  0
 14 15  2  0
 15 16  1  0
 16 17  2  0
 17 18  1  0
 18 19  2  0
 19 20  1  0
 17 21  1  0
 16 22  1  0
 15 23  1  0
 13 24  1  0
 24 25  1  0
 25 26  1  0
 26 27  1  0
 26 28  1  0
 25 29  1  0
 25 30  1  0
 24 31  1  0
 24 32  1  0
 12 33  1  0
  9 34  1  0
  9 35  1  0
  6 36  1  0
  5 37  1  0
  4 38  1  0
  3 39  1  0
  1 40  1  0
  1 41  1  0
  1 42  1  0
  7  2  1  0
 26 13  1  0
 19 14  1  0
M  END
>  <cnnaffinity>  (1) 
5.88732

>  <plip>  (1) 
-0.07142857142857142

>  <filename>  (1) 
[H][c]1[n][c]([H])[c]([C]2([N]([H])[C](=[O])[C]([H])([H])[S][c]3[c]([H])[c]([H])[c]([H])[c]([H])[c]3[C]([H])([H])[H])[C]([H])([H])[C]([H])([H])[C]2([H])[H])[c]([H])[c]1[H]

>  <combo1>  (1) 
-0.44864672579611276

$$$$
