
     RDKit          3D

 35 37  0  0  0  0  0  0  0  0999 V2000
   13.0697    1.2733   22.6510 C   0  0  0  0  0  0  0  0  0  0  0  0
   12.1319    0.8300   23.6724 N   0  0  0  0  0  0  0  0  0  0  0  0
   12.4050    0.7076   25.0253 C   0  0  0  0  0  0  0  0  0  0  0  0
   11.3028    0.2862   25.7017 C   0  0  0  0  0  0  0  0  0  0  0  0
   10.2818    0.0722   24.7142 C   0  0  0  0  0  0  0  0  0  0  0  0
    8.9930   -0.4557   24.6335 C   0  0  0  0  0  0  0  0  0  0  0  0
    8.3318   -0.5472   23.4867 N   0  0  0  0  0  0  0  0  0  0  0  0
    8.9735   -0.0959   22.3995 C   0  0  0  0  0  0  0  0  0  0  0  0
    8.3404   -0.1752   21.2205 N   0  0  0  0  0  0  0  0  0  0  0  0
    6.9116   -0.4717   21.0574 C   0  0  0  0  0  0  0  0  0  0  0  0
    6.6977   -2.0252   21.1045 C   0  0  0  0  0  0  0  0  0  0  0  0
    5.3626   -2.4881   21.0371 O   0  0  0  0  0  0  0  0  0  0  0  0
    4.8925   -2.1855   21.8261 H   0  0  0  0  0  0  0  0  0  0  0  0
    7.1926   -2.3959   22.0117 H   0  0  0  0  0  0  0  0  0  0  0  0
    7.2183   -2.4534   20.2477 H   0  0  0  0  0  0  0  0  0  0  0  0
    6.4234    0.2366   19.8103 C   0  0  0  0  0  0  0  0  0  0  0  0
    5.2076    0.9427   19.7771 C   0  0  0  0  0  0  0  0  0  0  0  0
    4.8168    1.5665   18.5899 C   0  0  0  0  0  0  0  0  0  0  0  0
    5.6656    1.4884   17.4829 C   0  0  0  0  0  0  0  0  0  0  0  0
    6.8247    0.8152   17.4852 N   0  0  0  0  0  0  0  0  0  0  0  0
    7.1838    0.2190   18.6292 C   0  0  0  0  0  0  0  0  0  0  0  0
    8.1340   -0.3143   18.6028 H   0  0  0  0  0  0  0  0  0  0  0  0
    5.3995    1.9791   16.5488 H   0  0  0  0  0  0  0  0  0  0  0  0
    3.8950    2.1347   18.5178 H   0  0  0  0  0  0  0  0  0  0  0  0
    4.5776    1.0112   20.6664 H   0  0  0  0  0  0  0  0  0  0  0  0
    6.3416   -0.0785   21.9166 H   0  0  0  0  0  0  0  0  0  0  0  0
    8.8593    0.4030   20.5883 H   0  0  0  0  0  0  0  0  0  0  0  0
   10.1959    0.4366   22.2997 N   0  0  0  0  0  0  0  0  0  0  0  0
   10.8300    0.4476   23.4620 C   0  0  0  0  0  0  0  0  0  0  0  0
    8.4982   -0.8579   25.5204 H   0  0  0  0  0  0  0  0  0  0  0  0
   11.1881    0.1792   26.7728 H   0  0  0  0  0  0  0  0  0  0  0  0
   13.3979    0.9118   25.4026 H   0  0  0  0  0  0  0  0  0  0  0  0
   12.6037    1.1399   21.6710 H   0  0  0  0  0  0  0  0  0  0  0  0
   13.9922    0.6834   22.7038 H   0  0  0  0  0  0  0  0  0  0  0  0
   13.3195    2.3326   22.7808 H   0  0  0  0  0  0  0  0  0  0  0  0
  1  2  1  0
  2  3  1  0
  3  4  2  0
  4  5  1  0
  5  6  2  0
  6  7  1  0
  7  8  2  0
  8  9  1  0
  9 10  1  0
 10 11  1  0
 11 12  1  0
 12 13  1  0
 11 14  1  0
 11 15  1  0
 10 16  1  0
 16 17  2  0
 17 18  1  0
 18 19  2  0
 19 20  1  0
 20 21  2  0
 21 22  1  0
 19 23  1  0
 18 24  1  0
 17 25  1  0
 10 26  1  0
  9 27  1  0
  8 28  1  0
 28 29  2  0
  6 30  1  0
  4 31  1  0
  3 32  1  0
  1 33  1  0
  1 34  1  0
  1 35  1  0
 29  2  1  0
 29  5  1  0
 21 16  1  0
M  END
>  <cnnaffinity>  (1) 
4.56017

>  <plip>  (1) 
-0.16666666666666666

>  <filename>  (1) 
[H][O][C]([H])([H])[C]([H])([c]1[c]([H])[n][c]([H])[c]([H])[c]1[H])[N]([H])[c]1[n][c]([H])[c]2[c]([H])[c]([H])[n]([C]([H])([H])[H])[c]2[n]1

>  <combo1>  (1) 
-0.9407176087519786

$$$$
