
     RDKit          3D

 41 43  0  0  0  0  0  0  0  0999 V2000
    9.2021    1.3404   21.0612 O   0  0  0  0  0  0  0  0  0  0  0  0
    8.4657    1.2389   22.0311 C   0  0  0  0  0  0  0  0  0  0  0  0
    7.6067    0.1962   22.1937 N   0  0  0  0  0  0  0  0  0  0  0  0
    7.3180   -0.6840   21.0782 C   0  0  0  0  0  0  0  0  0  0  0  0
    6.5950    0.0595   19.9629 C   0  0  0  0  0  0  0  0  0  0  0  0
    5.3664    0.7098   20.1479 C   0  0  0  0  0  0  0  0  0  0  0  0
    4.7714    1.3368   19.0494 C   0  0  0  0  0  0  0  0  0  0  0  0
    5.4195    1.2964   17.8095 C   0  0  0  0  0  0  0  0  0  0  0  0
    6.5955    0.6838   17.6091 N   0  0  0  0  0  0  0  0  0  0  0  0
    7.1538    0.0937   18.6781 C   0  0  0  0  0  0  0  0  0  0  0  0
    8.1159   -0.3928   18.5057 H   0  0  0  0  0  0  0  0  0  0  0  0
    4.9708    1.7696   16.9370 H   0  0  0  0  0  0  0  0  0  0  0  0
    3.8280    1.8631   19.1433 H   0  0  0  0  0  0  0  0  0  0  0  0
    4.8919    0.7501   21.1329 H   0  0  0  0  0  0  0  0  0  0  0  0
    6.5555   -1.9337   21.5624 C   0  0  0  0  0  0  0  0  0  0  0  0
    6.1250   -2.8442   20.4073 C   0  0  0  0  0  0  0  0  0  0  0  0
    6.1638   -4.2933   20.9100 C   0  0  0  0  0  0  0  0  0  0  0  0
    6.8513   -4.2686   22.2954 C   0  0  0  0  0  0  0  0  0  0  0  0
    7.3557   -2.8330   22.5200 C   0  0  0  0  0  0  0  0  0  0  0  0
    7.2442   -2.5269   23.5647 H   0  0  0  0  0  0  0  0  0  0  0  0
    8.4264   -2.7682   22.2962 H   0  0  0  0  0  0  0  0  0  0  0  0
    6.1332   -4.5614   23.0666 H   0  0  0  0  0  0  0  0  0  0  0  0
    7.6807   -4.9802   22.3604 H   0  0  0  0  0  0  0  0  0  0  0  0
    6.7236   -4.9221   20.2129 H   0  0  0  0  0  0  0  0  0  0  0  0
    5.1542   -4.7111   20.9797 H   0  0  0  0  0  0  0  0  0  0  0  0
    5.1612   -2.5466   19.9924 H   0  0  0  0  0  0  0  0  0  0  0  0
    6.8072   -2.6789   19.5799 H   0  0  0  0  0  0  0  0  0  0  0  0
    5.6459   -1.6080   22.0596 H   0  0  0  0  0  0  0  0  0  0  0  0
    8.2749   -1.0404   20.6706 H   0  0  0  0  0  0  0  0  0  0  0  0
    6.8501    0.3552   22.8327 H   0  0  0  0  0  0  0  0  0  0  0  0
    8.5186    2.2017   23.1484 C   0  0  0  0  0  0  0  0  0  0  0  0
    9.6975    2.8173   23.5992 C   0  0  0  0  0  0  0  0  0  0  0  0
    9.6038    3.7793   24.6018 C   0  0  0  0  0  0  0  0  0  0  0  0
    8.3503    4.1051   25.1205 C   0  0  0  0  0  0  0  0  0  0  0  0
    7.2207    3.5215   24.6969 N   0  0  0  0  0  0  0  0  0  0  0  0
    7.3349    2.6137   23.7400 C   0  0  0  0  0  0  0  0  0  0  0  0
    6.1271    2.1453   23.3883 O   0  0  0  0  0  0  0  0  0  0  0  0
    5.6246    2.7476   23.9705 H   0  0  0  0  0  0  0  0  0  0  0  0
    8.2493    4.8666   25.8946 H   0  0  0  0  0  0  0  0  0  0  0  0
   10.4820    4.3049   24.9536 H   0  0  0  0  0  0  0  0  0  0  0  0
   10.6731    2.5525   23.1796 H   0  0  0  0  0  0  0  0  0  0  0  0
  1  2  2  0
  2  3  1  0
  3  4  1  0
  4  5  1  0
  5  6  2  0
  6  7  1  0
  7  8  2  0
  8  9  1  0
  9 10  2  0
 10 11  1  0
  8 12  1  0
  7 13  1  0
  6 14  1  0
  4 15  1  0
 15 16  1  0
 16 17  1  0
 17 18  1  0
 18 19  1  0
 19 20  1  0
 19 21  1  0
 18 22  1  0
 18 23  1  0
 17 24  1  0
 17 25  1  0
 16 26  1  0
 16 27  1  0
 15 28  1  0
  4 29  1  0
  3 30  1  0
  2 31  1  0
 31 32  2  0
 32 33  1  0
 33 34  2  0
 34 35  1  0
 35 36  2  0
 36 37  1  0
 37 38  1  0
 34 39  1  0
 33 40  1  0
 32 41  1  0
 10  5  1  0
 19 15  1  0
 36 31  1  0
M  END
>  <cnnaffinity>  (1) 
4.96272

>  <plip>  (1) 
-0.14285714285714285

>  <filename>  (1) 
[H][O][c]1[n][c]([H])[c]([H])[c]([H])[c]1[C](=[O])[N]([H])[C]([H])([c]1[c]([H])[n][c]([H])[c]([H])[c]1[H])[C]1([H])[C]([H])([H])[C]([H])([H])[C]([H])([H])[C]1([H])[H]

>  <combo1>  (1) 
-0.7947322755735509

$$$$
