
     RDKit          3D

 52 55  0  0  0  0  0  0  0  0999 V2000
    6.7069    4.3790   22.5243 C   0  0  0  0  0  0  0  0  0  0  0  0
    7.7984    3.3882   22.2584 C   0  0  0  0  0  0  0  0  0  0  0  0
    7.5209    2.2068   21.5955 C   0  0  0  0  0  0  0  0  0  0  0  0
    8.5830    1.3257   21.4823 C   0  0  0  0  0  0  0  0  0  0  0  0
    8.5290    0.0860   20.9642 N   0  0  0  0  0  0  0  0  0  0  0  0
    7.3553   -0.7798   20.8549 C   0  0  0  0  0  0  0  0  0  0  0  0
    6.5940   -1.0644   22.1705 C   0  0  0  0  0  0  0  0  0  0  0  0
    7.3183   -1.8616   23.2059 N   0  0  0  0  0  4  0  0  0  0  0  0
    6.4860   -2.2956   24.3850 C   0  0  0  0  0  0  0  0  0  0  0  0
    7.5332   -2.9097   25.3062 C   0  0  0  0  0  0  0  0  0  0  0  0
    8.7630   -1.9872   25.1506 C   0  0  0  0  0  0  0  0  0  0  0  0
    8.5176   -1.1908   23.8553 C   0  0  0  0  0  0  0  0  0  0  0  0
    9.3763   -1.1871   23.1806 H   0  0  0  0  0  0  0  0  0  0  0  0
    8.2570   -0.1504   24.0690 H   0  0  0  0  0  0  0  0  0  0  0  0
    9.6933   -2.5643   25.0957 H   0  0  0  0  0  0  0  0  0  0  0  0
    8.8663   -1.2984   25.9965 H   0  0  0  0  0  0  0  0  0  0  0  0
    7.1939   -3.0089   26.3420 H   0  0  0  0  0  0  0  0  0  0  0  0
    7.7670   -3.9197   24.9444 H   0  0  0  0  0  0  0  0  0  0  0  0
    5.6951   -2.9868   24.0788 H   0  0  0  0  0  0  0  0  0  0  0  0
    6.0107   -1.4123   24.8346 H   0  0  0  0  0  0  0  0  0  0  0  0
    7.6676   -2.7428   22.7698 H   0  0  0  0  0  0  0  0  0  0  0  0
    5.6708   -1.5816   21.8865 H   0  0  0  0  0  0  0  0  0  0  0  0
    6.3052   -0.0951   22.5977 H   0  0  0  0  0  0  0  0  0  0  0  0
    6.4532   -0.2121   19.7726 C   0  0  0  0  0  0  0  0  0  0  0  0
    5.1721    0.3334   19.9209 C   0  0  0  0  0  0  0  0  0  0  0  0
    4.6449    1.0987   18.8681 C   0  0  0  0  0  0  0  0  0  0  0  0
    5.3763    1.2109   17.6816 C   0  0  0  0  0  0  0  0  0  0  0  0
    6.5426    0.5795   17.4763 N   0  0  0  0  0  0  0  0  0  0  0  0
    7.0454   -0.1120   18.5019 C   0  0  0  0  0  0  0  0  0  0  0  0
    7.9841   -0.6328   18.3113 H   0  0  0  0  0  0  0  0  0  0  0  0
    5.0107    1.8203   16.8570 H   0  0  0  0  0  0  0  0  0  0  0  0
    3.6938    1.6113   18.9579 H   0  0  0  0  0  0  0  0  0  0  0  0
    4.5917    0.2061   20.8393 H   0  0  0  0  0  0  0  0  0  0  0  0
    7.7395   -1.7424   20.4849 H   0  0  0  0  0  0  0  0  0  0  0  0
    9.4443   -0.2988   21.1509 H   0  0  0  0  0  0  0  0  0  0  0  0
    9.8231    1.6179   21.8848 N   0  0  0  0  0  0  0  0  0  0  0  0
   10.0186    2.8439   22.3756 C   0  0  0  0  0  0  0  0  0  0  0  0
   11.4768    3.2595   22.6362 C   0  0  0  0  0  0  0  0  0  0  0  0
   12.4632    2.2605   22.8079 C   0  0  0  0  0  0  0  0  0  0  0  0
   13.8013    2.6362   22.9046 C   0  0  0  0  0  0  0  0  0  0  0  0
   14.1243    3.9919   22.8550 C   0  0  0  0  0  0  0  0  0  0  0  0
   13.0890    4.9151   22.7366 C   0  0  0  0  0  0  0  0  0  0  0  0
   11.8043    4.5719   22.6587 N   0  0  0  0  0  0  0  0  0  0  0  0
   13.2990    5.9818   22.6960 H   0  0  0  0  0  0  0  0  0  0  0  0
   15.1458    4.3427   22.8973 H   0  0  0  0  0  0  0  0  0  0  0  0
   14.5774    1.8768   22.9920 H   0  0  0  0  0  0  0  0  0  0  0  0
   12.1813    1.2139   22.8069 H   0  0  0  0  0  0  0  0  0  0  0  0
    9.0257    3.6985   22.6669 N   0  0  0  0  0  0  0  0  0  0  0  0
    6.5538    1.9942   21.1763 H   0  0  0  0  0  0  0  0  0  0  0  0
    6.0502    4.4712   21.6539 H   0  0  0  0  0  0  0  0  0  0  0  0
    7.1190    5.3612   22.7567 H   0  0  0  0  0  0  0  0  0  0  0  0
    6.0944    4.0584   23.3718 H   0  0  0  0  0  0  0  0  0  0  0  0
  1  2  1  0
  2  3  2  0
  3  4  1  0
  4  5  1  0
  5  6  1  0
  6  7  1  0
  7  8  1  0
  8  9  1  0
  9 10  1  0
 10 11  1  0
 11 12  1  0
 12 13  1  0
 12 14  1  0
 11 15  1  0
 11 16  1  0
 10 17  1  0
 10 18  1  0
  9 19  1  0
  9 20  1  0
  8 21  1  0
  7 22  1  0
  7 23  1  0
  6 24  1  0
 24 25  2  0
 25 26  1  0
 26 27  2  0
 27 28  1  0
 28 29  2  0
 29 30  1  0
 27 31  1  0
 26 32  1  0
 25 33  1  0
  6 34  1  0
  5 35  1  0
  4 36  2  0
 36 37  1  0
 37 38  1  0
 38 39  2  0
 39 40  1  0
 40 41  2  0
 41 42  1  0
 42 43  2  0
 42 44  1  0
 41 45  1  0
 40 46  1  0
 39 47  1  0
 37 48  2  0
  3 49  1  0
  1 50  1  0
  1 51  1  0
  1 52  1  0
 48  2  1  0
 12  8  1  0
 29 24  1  0
 43 38  1  0
M  CHG  1   8   1
M  END
>  <cnnaffinity>  (1) 
6.03812

>  <plip>  (1) 
-0.10344827586206896

>  <filename>  (1) 
[H][c]1[n][c](-[c]2[n][c]([N]([H])[C]([H])([c]3[c]([H])[n][c]([H])[c]([H])[c]3[H])[C]([H])([H])[N+]3([H])[C]([H])([H])[C]([H])([H])[C]([H])([H])[C]3([H])[H])[c]([H])[c]([C]([H])([H])[H])[n]2)[c]([H])[c]([H])[c]1[H]

>  <combo1>  (1) 
-0.5760071553968307

$$$$
