
     RDKit          3D

 25 26  0  0  0  0  0  0  0  0999 V2000
    4.9401    1.7762   16.9990 H   0  0  0  0  0  0  0  0  0  0  0  0
    5.4086    1.2839   17.8516 C   0  0  0  0  0  0  0  0  0  0  0  0
    6.5703    0.6527   17.6085 N   0  0  0  0  0  0  0  0  0  0  0  0
    7.1801    0.0507   18.6374 C   0  0  0  0  0  0  0  0  0  0  0  0
    8.1222   -0.4360   18.4047 H   0  0  0  0  0  0  0  0  0  0  0  0
    6.6540    0.0295   19.9435 C   0  0  0  0  0  0  0  0  0  0  0  0
    7.5828   -0.9254   21.1871 S   0  0  0  0  0  4  0  0  0  0  0  0
    8.9892   -0.8824   20.6731 O   0  0  0  0  0  0  0  0  0  0  0  0
    7.3429    0.1791   22.6924 C   0  0  0  0  0  0  0  0  0  0  0  0
    6.5223   -0.3486   23.5933 N   0  0  0  0  0  0  0  0  0  0  0  0
    6.3467    0.2798   24.7641 C   0  0  0  0  0  0  0  0  0  0  0  0
    5.6760   -0.2140   25.4651 H   0  0  0  0  0  0  0  0  0  0  0  0
    6.9744    1.4797   25.0902 C   0  0  0  0  0  0  0  0  0  0  0  0
    6.7926    1.9540   26.0481 H   0  0  0  0  0  0  0  0  0  0  0  0
    7.8313    2.0485   24.1563 C   0  0  0  0  0  0  0  0  0  0  0  0
    8.3508    2.9896   24.3637 H   0  0  0  0  0  0  0  0  0  0  0  0
    8.0218    1.3928   22.9244 C   0  0  0  0  0  0  0  0  0  0  0  0
    9.0095    1.9633   21.9417 C   0  0  0  0  0  0  0  0  0  0  0  0
    9.3071    3.2416   22.2447 F   0  0  0  0  0  0  0  0  0  0  0  0
   10.1592    1.2792   21.9264 F   0  0  0  0  0  0  0  0  0  0  0  0
    8.5274    1.9675   20.6869 F   0  0  0  0  0  0  0  0  0  0  0  0
    5.4352    0.6627   20.1873 C   0  0  0  0  0  0  0  0  0  0  0  0
    4.9720    0.6464   21.1775 H   0  0  0  0  0  0  0  0  0  0  0  0
    4.8095    1.3094   19.1138 C   0  0  0  0  0  0  0  0  0  0  0  0
    3.8759    1.8408   19.2475 H   0  0  0  0  0  0  0  0  0  0  0  0
  1  2  1  0
  2  3  2  0
  3  4  1  0
  4  5  1  0
  4  6  2  0
  7  6  1  6
  7  8  2  0
  7  9  1  0
  9 10  2  0
 10 11  1  0
 11 12  1  0
 11 13  2  0
 13 14  1  0
 13 15  1  0
 15 16  1  0
 15 17  2  0
 17 18  1  0
 18 19  1  0
 18 20  1  0
 18 21  1  0
  6 22  1  0
 22 23  1  0
 22 24  2  0
 24 25  1  0
 24  2  1  0
 17  9  1  0
M  END
>  <cnnaffinity>  (1) 
4.33269

>  <plip>  (1) 
-0.03571428571428571

>  <filename>  (1) 
[H][c]1[n][c]([H])[c]([S@@](=[O])[c]2[n][c]([H])[c]([H])[c]([H])[c]2[C]([F])([F])[F])[c]([H])[c]1[H]

>  <combo1>  (1) 
-0.18945621083905245

$$$$
