
     RDKit          3D

 23 24  0  0  0  0  0  0  0  0999 V2000
    4.8830   -4.8394   22.8143 H   0  0  0  0  0  0  0  0  0  0  0  0
    4.6798   -4.4967   21.8648 N   0  0  0  0  0  0  0  0  0  0  0  0
    5.3708   -3.5663   21.5194 N   0  0  0  0  0  4  0  0  0  0  0  0
    6.0163   -2.7095   20.9819 N   0  0  0  0  0  0  0  0  0  0  0  0
    6.6068   -1.6931   21.7304 N   0  0  0  0  0  0  0  0  0  0  0  0
    6.5269   -1.5915   23.1293 C   0  0  0  0  0  0  0  0  0  0  0  0
    6.1417   -2.4726   23.8642 O   0  0  0  0  0  0  0  0  0  0  0  0
    7.0217   -0.2478   23.5975 C   0  0  0  0  0  0  0  0  0  0  0  0
    7.6146   -0.4101   24.5006 H   0  0  0  0  0  0  0  0  0  0  0  0
    6.1669    0.3927   23.8488 H   0  0  0  0  0  0  0  0  0  0  0  0
    8.0306    0.4394   22.2567 S   0  0  0  0  0  0  0  0  0  0  0  0
    7.3924   -0.7344   20.9846 C   0  0  2  0  0  0  0  0  0  0  0  0
    8.2390   -1.2601   20.5198 H   0  0  0  0  0  0  0  0  0  0  0  0
    6.6202   -0.0209   19.8909 C   0  0  0  0  0  0  0  0  0  0  0  0
    7.1461    0.0355   18.5928 C   0  0  0  0  0  0  0  0  0  0  0  0
    8.1052   -0.4296   18.3580 H   0  0  0  0  0  0  0  0  0  0  0  0
    6.5571    0.6698   17.5727 N   0  0  0  0  0  0  0  0  0  0  0  0
    5.4002    1.3003   17.8216 C   0  0  0  0  0  0  0  0  0  0  0  0
    4.9437    1.8113   16.9738 H   0  0  0  0  0  0  0  0  0  0  0  0
    4.7951    1.3157   19.0829 C   0  0  0  0  0  0  0  0  0  0  0  0
    3.8701    1.8606   19.2280 H   0  0  0  0  0  0  0  0  0  0  0  0
    5.4142    0.6396   20.1350 C   0  0  0  0  0  0  0  0  0  0  0  0
    4.9807    0.6467   21.1360 H   0  0  0  0  0  0  0  0  0  0  0  0
  1  2  1  0
  2  3  2  0
  3  4  2  0
  4  5  1  0
  5  6  1  0
  6  7  2  0
  6  8  1  0
  8  9  1  0
  8 10  1  0
  8 11  1  0
 11 12  1  0
 12 13  1  6
 12 14  1  0
 14 15  2  0
 15 16  1  0
 15 17  1  0
 17 18  2  0
 18 19  1  0
 18 20  1  0
 20 21  1  0
 20 22  2  0
 22 23  1  0
 12  5  1  0
 22 14  1  0
M  CHG  1   3   1
M  END
>  <cnnaffinity>  (1) 
4.08484

>  <plip>  (1) 
-0.10714285714285714

>  <filename>  (1) 
[H][N]=[N+]=[N][N]1[C](=[O])[C]([H])([H])[S][C@]1([H])[c]1[c]([H])[n][c]([H])[c]([H])[c]1[H]

>  <combo1>  (1) 
-0.6564012312866097

$$$$
