combo1_1stFeb
  PyMOL2.5          3D                             0

 20 21  0  0  1  0  0  0  0  0999 V2000
    7.7519   -3.5145   26.2060 C   0  0  0  0  0  0  0  0  0  0  0  0
    9.0051   -3.3982   25.3288 C   0  0  0  0  0  0  0  0  0  0  0  0
    8.7002   -3.7557   23.8903 C   0  0  0  0  0  0  0  0  0  0  0  0
    8.7512   -5.0898   23.4674 C   0  0  0  0  0  0  0  0  0  0  0  0
    8.3196   -5.4407   22.1839 C   0  0  0  0  0  0  0  0  0  0  0  0
    7.8606   -4.4623   21.2993 C   0  0  0  0  0  0  0  0  0  0  0  0
    7.8452   -3.1112   21.6926 C   0  0  0  0  0  0  0  0  0  0  0  0
    7.3893   -2.1514   20.7917 N   0  0  0  0  0  0  0  0  0  0  0  0
    7.4537   -0.7164   21.0240 C   0  0  1  0  0  0  0  0  0  0  0  0
    8.8886   -0.0786   21.1950 C   0  0  0  0  0  0  0  0  0  0  0  0
    9.8980   -0.3714   20.6027 O   0  0  0  0  0  0  0  0  0  0  0  0
    8.8090    0.9028   22.1177 O   0  0  0  0  0  0  0  0  0  0  0  0
    9.9946    1.6464   22.4313 C   0  0  0  0  0  0  0  0  0  0  0  0
    6.6779   -0.0303   19.9135 C   0  0  0  0  0  0  0  0  0  0  0  0
    5.4718    0.6331   20.1618 C   0  0  0  0  0  0  0  0  0  0  0  0
    4.8367    1.2781   19.0998 C   0  0  0  0  0  0  0  0  0  0  0  0
    5.4252    1.2339   17.8346 C   0  0  0  0  0  0  0  0  0  0  0  0
    6.5612    0.5683   17.5748 N   0  0  0  0  0  0  0  0  0  0  0  0
    7.1580   -0.0593   18.5965 C   0  0  0  0  0  0  0  0  0  0  0  0
    8.2612   -2.7755   22.9928 C   0  0  0  0  0  0  0  0  0  0  0  0
  1  2  1  0  0  0  0
  2  3  1  0  0  0  0
  3  4  2  0  0  0  0
  4  5  1  0  0  0  0
  5  6  2  0  0  0  0
  6  7  1  0  0  0  0
  7  8  1  0  0  0  0
  8  9  1  0  0  0  0
  9 10  1  0  0  0  0
 10 11  2  0  0  0  0
 10 12  1  0  0  0  0
 12 13  1  0  0  0  0
  9 14  1  0  0  0  0
 14 15  2  0  0  0  0
 15 16  1  0  0  0  0
 16 17  2  0  0  0  0
 17 18  1  0  0  0  0
 18 19  2  0  0  0  0
  7 20  2  0  0  0  0
  3 20  1  0  0  0  0
 14 19  1  0  0  0  0
M  END
>  <cnnaffinity>
5.018010

>  <plip>
-0.172414

>  <filename>
[H][c]1[n][c]([H])[c]([C]([H])([C](=[O])[O][C]([H])([H])[H])[N]([H])[c]2[c]([H])[c]([H])[c]([H])[c]([C]([H])([H])[C]([H])([H])[H])[c]2[H])[c]([H])[c]1[H]

>  <combo1>
-1.066804

>  <enamine_id>
Z1470573089

$$$$
