combo1_1stFeb
  PyMOL2.5          3D                             0

 18 20  0  0  0  0  0  0  0  0999 V2000
    6.7732   -3.5418   23.2334 N   0  0  0  0  0  0  0  0  0  0  0  0
    7.3789   -2.4300   22.6607 C   0  0  0  0  0  0  0  0  0  0  0  0
    6.7253   -1.6766   21.6822 C   0  0  0  0  0  0  0  0  0  0  0  0
    7.3909   -0.6570   20.9887 C   0  0  0  0  0  0  0  0  0  0  0  0
    6.6582    0.0425   19.8894 C   0  0  0  0  0  0  0  0  0  0  0  0
    5.4235    0.6683   20.1141 C   0  0  0  0  0  0  0  0  0  0  0  0
    4.7983    1.3277   19.0568 C   0  0  0  0  0  0  0  0  0  0  0  0
    5.3989    1.3122   17.7948 C   0  0  0  0  0  0  0  0  0  0  0  0
    6.5594    0.6898   17.5438 N   0  0  0  0  0  0  0  0  0  0  0  0
    7.1666    0.0877   18.5772 C   0  0  0  0  0  0  0  0  0  0  0  0
    8.7306   -0.3310   21.3308 C   0  0  0  0  0  0  0  0  0  0  0  0
    9.3435    0.6606   20.6013 O   0  0  0  0  0  0  0  0  0  0  0  0
   10.0746    1.6702   21.3019 C   0  0  0  0  0  0  0  0  0  0  0  0
   11.4040    1.1346   21.8097 C   0  0  0  0  0  0  0  0  0  0  0  0
   11.2660    0.2661   23.0480 C   0  0  0  0  0  0  0  0  0  0  0  0
   10.6980   -1.0021   22.7344 O   0  0  0  0  0  0  0  0  0  0  0  0
    9.3803   -1.0897   22.3508 C   0  0  0  0  0  0  0  0  0  0  0  0
    8.6881   -2.1084   23.0001 C   0  0  0  0  0  0  0  0  0  0  0  0
  1  2  1  0  0  0  0
  2  3  2  0  0  0  0
  3  4  1  0  0  0  0
  4  5  1  0  0  0  0
  5  6  2  0  0  0  0
  6  7  1  0  0  0  0
  7  8  2  0  0  0  0
  8  9  1  0  0  0  0
  9 10  2  0  0  0  0
  4 11  2  0  0  0  0
 11 12  1  0  0  0  0
 12 13  1  0  0  0  0
 13 14  1  0  0  0  0
 14 15  1  0  0  0  0
 15 16  1  0  0  0  0
 16 17  1  0  0  0  0
 17 18  2  0  0  0  0
  2 18  1  0  0  0  0
  5 10  1  0  0  0  0
 11 17  1  0  0  0  0
M  END
>  <cnnaffinity>
5.116720

>  <plip>
-0.142857

>  <filename>
[H][c]1[n][c]([H])[c](-[c]2[c]([H])[c]([N]([H])[H])[c]([H])[c]3[c]2[O][C]([H])([H])[C]([H])([H])[C]([H])([H])[O]3)[c]([H])[c]1[H]

>  <combo1>
-1.005677

>  <enamine_id>
PV-005145440946

$$$$
