
     RDKit          3D

 30 32  0  0  0  0  0  0  0  0999 V2000
    5.5728   -1.1575   21.8598 H   0  0  0  0  0  0  0  0  0  0  0  0
    6.6443   -1.2589   21.9566 C   0  0  0  0  0  0  0  0  0  0  0  0
    7.3562   -0.7204   20.8993 C   0  0  0  0  0  0  0  0  0  0  0  0
    9.2717   -0.7757   20.7659 Br  0  0  0  0  0  0  0  0  0  0  0  0
    6.6367   -0.0245   19.8376 C   0  0  0  0  0  0  0  0  0  0  0  0
    7.2286    0.0777   18.5723 C   0  0  0  0  0  0  0  0  0  0  0  0
    8.1942   -0.3994   18.4389 H   0  0  0  0  0  0  0  0  0  0  0  0
    6.6645    0.7312   17.5413 N   0  0  0  0  0  0  0  0  0  0  0  0
    5.4798    1.3276   17.7658 C   0  0  0  0  0  0  0  0  0  0  0  0
    5.0121    1.8632   16.9479 H   0  0  0  0  0  0  0  0  0  0  0  0
    4.8204    1.2779   19.0028 C   0  0  0  0  0  0  0  0  0  0  0  0
    3.8765    1.7986   19.1272 H   0  0  0  0  0  0  0  0  0  0  0  0
    5.3958    0.5799   20.0627 C   0  0  0  0  0  0  0  0  0  0  0  0
    4.9105    0.5385   21.0398 H   0  0  0  0  0  0  0  0  0  0  0  0
    7.2184   -1.9644   23.1170 C   0  0  0  0  0  0  0  0  0  0  0  0
    6.4984   -2.1621   24.3191 C   0  0  0  0  0  0  0  0  0  0  0  0
    5.5033   -1.7378   24.4259 H   0  0  0  0  0  0  0  0  0  0  0  0
    6.9819   -2.8959   25.3407 N   0  0  0  0  0  0  0  0  0  0  0  0
    8.2004   -3.4523   25.2144 C   0  0  0  0  0  0  0  0  0  0  0  0
    8.6778   -4.2579   26.2493 C   0  0  0  0  0  0  0  0  0  0  0  0
    8.0418   -4.4165   27.1102 H   0  0  0  0  0  0  0  0  0  0  0  0
    9.9443   -4.8547   26.1657 C   0  0  0  0  0  0  0  0  0  0  0  0
   10.3329   -5.4687   26.9733 H   0  0  0  0  0  0  0  0  0  0  0  0
   10.7340   -4.6345   25.0384 C   0  0  0  0  0  0  0  0  0  0  0  0
   11.7364   -5.0428   25.0047 H   0  0  0  0  0  0  0  0  0  0  0  0
   10.2618   -3.8540   23.9826 C   0  0  0  0  0  0  0  0  0  0  0  0
   10.8864   -3.6656   23.1150 H   0  0  0  0  0  0  0  0  0  0  0  0
    8.9951   -3.2698   24.0644 C   0  0  0  0  0  0  0  0  0  0  0  0
    8.4905   -2.5224   23.0125 C   0  0  0  0  0  0  0  0  0  0  0  0
    9.0586   -2.4486   22.0910 H   0  0  0  0  0  0  0  0  0  0  0  0
  1  2  1  0
  2  3  2  3
  3  4  1  0
  3  5  1  0
  5  6  2  0
  6  7  1  0
  6  8  1  0
  8  9  2  0
  9 10  1  0
  9 11  1  0
 11 12  1  0
 11 13  2  0
 13 14  1  0
  2 15  1  0
 15 16  2  0
 16 17  1  0
 16 18  1  0
 18 19  2  0
 19 20  1  0
 20 21  1  0
 20 22  2  0
 22 23  1  0
 22 24  1  0
 24 25  1  0
 24 26  2  0
 26 27  1  0
 26 28  1  0
 28 29  2  0
 29 30  1  0
 13  5  1  0
 29 15  1  0
 28 19  1  0
M  END
>  <cnnaffinity>  (1) 
-4.83531

>  <filename>  (1) 
BrC(=Cc1cnc2ccccc2c1)c1cccnc1

$$$$
