
     RDKit          3D

 30 31  0  0  0  0  0  0  0  0999 V2000
    6.8163   -1.5177   21.4622 H   0  0  0  0  0  0  0  0  0  0  0  0
    7.3668   -0.6880   21.0269 C   0  0  0  0  0  0  0  0  0  0  0  0
    8.5940   -0.3998   21.5910 C   0  0  0  0  0  0  0  0  0  0  0  0
    9.2043   -1.5943   22.9660 Br  0  0  0  0  0  0  0  0  0  0  0  0
    9.4105    0.8172   21.2131 C   0  0  0  0  0  0  0  0  0  0  0  0
    9.7507    0.7236   20.1807 H   0  0  0  0  0  0  0  0  0  0  0  0
    8.7843    1.7170   21.2754 H   0  0  0  0  0  0  0  0  0  0  0  0
   10.5863    0.9570   22.0919 N   0  0  0  0  0  0  0  0  0  0  0  0
   10.7259    1.8502   22.5582 H   0  0  0  0  0  0  0  0  0  0  0  0
   11.7199    0.1693   21.9252 C   0  0  0  0  0  0  0  0  0  0  0  0
   11.6841   -0.9813   21.1364 C   0  0  0  0  0  0  0  0  0  0  0  0
   10.7414   -1.3107   20.7290 H   0  0  0  0  0  0  0  0  0  0  0  0
   12.8495   -1.6880   20.8524 C   0  0  0  0  0  0  0  0  0  0  0  0
   12.8452   -2.5331   20.1796 H   0  0  0  0  0  0  0  0  0  0  0  0
   14.0504   -1.2920   21.4190 C   0  0  0  0  0  0  0  0  0  0  0  0
   14.9310   -1.8602   21.1720 H   0  0  0  0  0  0  0  0  0  0  0  0
   14.0922   -0.1829   22.2714 C   0  0  0  0  0  0  0  0  0  0  0  0
   15.0138    0.1498   22.7293 H   0  0  0  0  0  0  0  0  0  0  0  0
   12.9216    0.5476   22.5152 C   0  0  0  0  0  0  0  0  0  0  0  0
   12.9122    1.4188   23.1624 H   0  0  0  0  0  0  0  0  0  0  0  0
    6.7150    0.0479   19.9363 C   0  0  0  0  0  0  0  0  0  0  0  0
    7.2705    0.1114   18.6448 C   0  0  0  0  0  0  0  0  0  0  0  0
    8.2133   -0.3914   18.4563 H   0  0  0  0  0  0  0  0  0  0  0  0
    6.6679    0.7240   17.6072 N   0  0  0  0  0  0  0  0  0  0  0  0
    5.4788    1.3150   17.8274 C   0  0  0  0  0  0  0  0  0  0  0  0
    4.9825    1.8216   17.0051 H   0  0  0  0  0  0  0  0  0  0  0  0
    4.8527    1.2840   19.0772 C   0  0  0  0  0  0  0  0  0  0  0  0
    3.8945    1.7756   19.1997 H   0  0  0  0  0  0  0  0  0  0  0  0
    5.4646    0.6318   20.1476 C   0  0  0  0  0  0  0  0  0  0  0  0
    4.9869    0.5950   21.1259 H   0  0  0  0  0  0  0  0  0  0  0  0
  1  2  1  0
  2  3  2  3
  3  4  1  0
  3  5  1  0
  5  6  1  0
  5  7  1  0
  5  8  1  0
  8  9  1  0
  8 10  1  0
 10 11  2  0
 11 12  1  0
 11 13  1  0
 13 14  1  0
 13 15  2  0
 15 16  1  0
 15 17  1  0
 17 18  1  0
 17 19  2  0
 19 20  1  0
  2 21  1  0
 21 22  2  0
 22 23  1  0
 22 24  1  0
 24 25  2  0
 25 26  1  0
 25 27  1  0
 27 28  1  0
 27 29  2  0
 29 30  1  0
 19 10  1  0
 29 21  1  0
M  END
>  <cnnaffinity>  (1) 
-5.38369

>  <filename>  (1) 
BrC(=Cc1cccnc1)CNc1ccccc1

$$$$
