
     RDKit          3D

 25 26  0  0  0  0  0  0  0  0999 V2000
    5.6595   -1.5822   21.7384 H   0  0  0  0  0  0  0  0  0  0  0  0
    6.7363   -1.4931   21.8269 C   0  0  0  0  0  0  0  0  0  0  0  0
    7.3978   -0.6775   20.9397 C   0  0  0  0  0  0  0  0  0  0  0  0
    9.2769   -0.3503   21.1065 Br  0  0  0  0  0  0  0  0  0  0  0  0
    6.6597    0.0120   19.8948 C   0  0  0  0  0  0  0  0  0  0  0  0
    7.1924    0.0585   18.6043 C   0  0  0  0  0  0  0  0  0  0  0  0
    8.1356   -0.4409   18.3898 H   0  0  0  0  0  0  0  0  0  0  0  0
    6.5664    0.6829   17.5962 N   0  0  0  0  0  0  0  0  0  0  0  0
    5.3955    1.2925   17.8454 C   0  0  0  0  0  0  0  0  0  0  0  0
    4.8969    1.7725   17.0146 H   0  0  0  0  0  0  0  0  0  0  0  0
    4.8090    1.3114   19.1116 C   0  0  0  0  0  0  0  0  0  0  0  0
    3.8774    1.8413   19.2685 H   0  0  0  0  0  0  0  0  0  0  0  0
    5.4425    0.6467   20.1560 C   0  0  0  0  0  0  0  0  0  0  0  0
    5.0116    0.6286   21.1533 H   0  0  0  0  0  0  0  0  0  0  0  0
    7.3848   -2.2348   22.9065 C   0  0  0  0  0  0  0  0  0  0  0  0
    6.8641   -2.1453   24.2030 C   0  0  0  0  0  0  0  0  0  0  0  0
    6.0095   -1.5062   24.4056 H   0  0  0  0  0  0  0  0  0  0  0  0
    7.4403   -2.8721   25.2493 C   0  0  0  0  0  0  0  0  0  0  0  0
    7.0327   -2.7904   26.2523 H   0  0  0  0  0  0  0  0  0  0  0  0
    8.5359   -3.7067   25.0072 C   0  0  0  0  0  0  0  0  0  0  0  0
    9.3204   -4.7009   26.4369 Br  0  0  0  0  0  0  0  0  0  0  0  0
    9.0459   -3.8170   23.7096 C   0  0  0  0  0  0  0  0  0  0  0  0
    9.8853   -4.4755   23.5158 H   0  0  0  0  0  0  0  0  0  0  0  0
    8.4735   -3.0866   22.6619 C   0  0  0  0  0  0  0  0  0  0  0  0
    8.8626   -3.2112   21.6565 H   0  0  0  0  0  0  0  0  0  0  0  0
  1  2  1  0
  2  3  2  3
  3  4  1  0
  3  5  1  0
  5  6  2  0
  6  7  1  0
  6  8  1  0
  8  9  2  0
  9 10  1  0
  9 11  1  0
 11 12  1  0
 11 13  2  0
 13 14  1  0
  2 15  1  0
 15 16  2  0
 16 17  1  0
 16 18  1  0
 18 19  1  0
 18 20  2  0
 20 21  1  0
 20 22  1  0
 22 23  1  0
 22 24  2  0
 24 25  1  0
 13  5  1  0
 24 15  1  0
M  END
>  <cnnaffinity>  (1) 
-4.83744

>  <filename>  (1) 
BrC(=Cc1ccc(Br)cc1)c1cccnc1

$$$$
