
     RDKit          3D

 34 36  0  0  0  0  0  0  0  0999 V2000
    7.7194   -1.8302   20.6168 H   0  0  0  0  0  0  0  0  0  0  0  0
    7.3467   -0.8300   20.8116 C   0  0  0  0  0  0  0  0  0  0  0  0
    7.6054   -0.2998   22.0538 C   0  0  0  0  0  0  0  0  0  0  0  0
    7.1745    1.5352   22.4249 Br  0  0  0  0  0  0  0  0  0  0  0  0
    8.2548   -1.0838   23.0085 N   0  0  0  0  0  0  0  0  0  0  0  0
    7.9815   -2.5527   23.0513 C   0  0  0  0  0  0  0  0  0  0  0  0
    8.6311   -3.0661   22.3327 H   0  0  0  0  0  0  0  0  0  0  0  0
    6.9429   -2.7332   22.7483 H   0  0  0  0  0  0  0  0  0  0  0  0
    8.1354   -3.1490   24.4375 C   0  0  0  0  0  0  0  0  0  0  0  0
    7.4675   -4.3358   24.8128 C   0  0  0  0  0  0  0  0  0  0  0  0
    6.8970   -4.9174   24.0899 H   0  0  0  0  0  0  0  0  0  0  0  0
    7.5338   -4.7916   26.1367 C   0  0  0  0  0  0  0  0  0  0  0  0
    7.0230   -5.7049   26.4424 H   0  0  0  0  0  0  0  0  0  0  0  0
    8.2727   -4.0734   27.0877 C   0  0  0  0  0  0  0  0  0  0  0  0
    8.3008   -4.4187   28.1164 H   0  0  0  0  0  0  0  0  0  0  0  0
    8.9879   -2.9292   26.7066 C   0  0  0  0  0  0  0  0  0  0  0  0
    9.6012   -2.3666   27.4051 H   0  0  0  0  0  0  0  0  0  0  0  0
    8.9380   -2.4923   25.3802 C   0  0  0  0  0  0  0  0  0  0  0  0
    9.7921   -1.3519   24.9139 C   0  0  0  0  0  0  0  0  0  0  0  0
   10.2535   -0.8469   25.7637 H   0  0  0  0  0  0  0  0  0  0  0  0
   10.5873   -1.7450   24.2744 H   0  0  0  0  0  0  0  0  0  0  0  0
    8.9655   -0.3764   24.0957 C   0  0  0  0  0  0  0  0  0  0  0  0
    8.2509    0.1432   24.7431 H   0  0  0  0  0  0  0  0  0  0  0  0
    9.6377    0.3761   23.6655 H   0  0  0  0  0  0  0  0  0  0  0  0
    6.6619   -0.0782   19.7548 C   0  0  0  0  0  0  0  0  0  0  0  0
    7.0988   -0.1357   18.4186 C   0  0  0  0  0  0  0  0  0  0  0  0
    7.9642   -0.7507   18.1934 H   0  0  0  0  0  0  0  0  0  0  0  0
    6.5203    0.5547   17.4173 N   0  0  0  0  0  0  0  0  0  0  0  0
    5.4633    1.3274   17.7296 C   0  0  0  0  0  0  0  0  0  0  0  0
    4.9822    1.8974   16.9425 H   0  0  0  0  0  0  0  0  0  0  0  0
    4.9553    1.4235   19.0318 C   0  0  0  0  0  0  0  0  0  0  0  0
    4.0941    2.0518   19.2261 H   0  0  0  0  0  0  0  0  0  0  0  0
    5.5614    0.7192   20.0692 C   0  0  0  0  0  0  0  0  0  0  0  0
    5.1862    0.7711   21.0926 H   0  0  0  0  0  0  0  0  0  0  0  0
  1  2  1  0
  2  3  2  3
  3  4  1  0
  3  5  1  0
  5  6  1  0
  6  7  1  0
  6  8  1  0
  6  9  1  0
  9 10  2  0
 10 11  1  0
 10 12  1  0
 12 13  1  0
 12 14  2  0
 14 15  1  0
 14 16  1  0
 16 17  1  0
 16 18  2  0
 18 19  1  0
 19 20  1  0
 19 21  1  0
 19 22  1  0
 22 23  1  0
 22 24  1  0
  2 25  1  0
 25 26  2  0
 26 27  1  0
 26 28  1  0
 28 29  2  0
 29 30  1  0
 29 31  1  0
 31 32  1  0
 31 33  2  0
 33 34  1  0
 22  5  1  0
 33 25  1  0
 18  9  1  0
M  END
>  <cnnaffinity>  (1) 
-5.16182

>  <filename>  (1) 
BrC(=Cc1cccnc1)N1CCc2ccccc2C1

$$$$
