
     RDKit          3D

 38 40  0  0  0  0  0  0  0  0999 V2000
    5.7466   -0.7192   21.3532 H   0  0  0  0  0  0  0  0  0  0  0  0
    6.4294   -0.3341   20.5971 C   0  0  0  0  0  0  0  0  0  0  0  0
    7.7841   -0.3402   20.8777 C   0  0  0  0  0  0  0  0  0  0  0  0
    9.0612    0.3708   19.6423 Br  0  0  0  0  0  0  0  0  0  0  0  0
    8.3039   -0.8110   22.0816 N   0  0  0  0  0  0  0  0  0  0  0  0
    7.4848   -0.9087   23.3170 C   0  0  0  0  0  0  0  0  0  0  0  0
    6.7921   -0.0633   23.3809 H   0  0  0  0  0  0  0  0  0  0  0  0
    6.8986   -1.8313   23.2866 H   0  0  0  0  0  0  0  0  0  0  0  0
    8.3915   -0.9133   24.5736 C   0  0  0  0  0  0  0  0  0  0  0  0
    7.7827   -1.0762   25.4735 H   0  0  0  0  0  0  0  0  0  0  0  0
    8.8697    0.0718   24.6548 H   0  0  0  0  0  0  0  0  0  0  0  0
    9.4543   -1.9465   24.4563 N   0  0  0  0  0  0  0  0  0  0  0  0
    9.5504   -2.9712   25.3915 C   0  0  0  0  0  0  0  0  0  0  0  0
    8.7761   -2.9160   26.4776 N   0  0  0  0  0  0  0  0  0  0  0  0
    8.8461   -3.9318   27.3378 C   0  0  0  0  0  0  0  0  0  0  0  0
    8.2120   -3.9211   28.2167 H   0  0  0  0  0  0  0  0  0  0  0  0
    9.7031   -5.0099   27.1593 C   0  0  0  0  0  0  0  0  0  0  0  0
    9.6882   -5.7765   27.9103 H   0  0  0  0  0  0  0  0  0  0  0  0
   10.5316   -5.0747   26.0480 C   0  0  0  0  0  0  0  0  0  0  0  0
   11.1849   -5.9230   25.8517 H   0  0  0  0  0  0  0  0  0  0  0  0
   10.4375   -4.0230   25.1536 C   0  0  0  0  0  0  0  0  0  0  0  0
   11.0242   -4.0033   24.2497 H   0  0  0  0  0  0  0  0  0  0  0  0
   10.1107   -2.1099   23.1320 C   0  0  0  0  0  0  0  0  0  0  0  0
   11.1973   -2.1858   23.2294 H   0  0  0  0  0  0  0  0  0  0  0  0
    9.7572   -3.0308   22.6570 H   0  0  0  0  0  0  0  0  0  0  0  0
    9.7748   -0.9356   22.2142 C   0  0  0  0  0  0  0  0  0  0  0  0
   10.2419   -1.1087   21.2383 H   0  0  0  0  0  0  0  0  0  0  0  0
   10.1941   -0.0113   22.6277 H   0  0  0  0  0  0  0  0  0  0  0  0
    5.9112    0.2855   19.3585 C   0  0  0  0  0  0  0  0  0  0  0  0
    6.7414    0.4473   18.2285 C   0  0  0  0  0  0  0  0  0  0  0  0
    7.7053   -0.0384   18.2112 H   0  0  0  0  0  0  0  0  0  0  0  0
    6.4130    1.1704   17.1459 N   0  0  0  0  0  0  0  0  0  0  0  0
    5.2163    1.7683   17.1515 C   0  0  0  0  0  0  0  0  0  0  0  0
    4.9609    2.4056   16.3095 H   0  0  0  0  0  0  0  0  0  0  0  0
    4.2923    1.5919   18.1915 C   0  0  0  0  0  0  0  0  0  0  0  0
    3.3331    2.0868   18.1276 H   0  0  0  0  0  0  0  0  0  0  0  0
    4.6248    0.8197   19.3061 C   0  0  0  0  0  0  0  0  0  0  0  0
    3.9224    0.6909   20.1280 H   0  0  0  0  0  0  0  0  0  0  0  0
  1  2  1  0
  2  3  2  3
  3  4  1  0
  3  5  1  0
  5  6  1  0
  6  7  1  0
  6  8  1  0
  6  9  1  0
  9 10  1  0
  9 11  1  0
  9 12  1  0
 12 13  1  0
 13 14  2  0
 14 15  1  0
 15 16  1  0
 15 17  2  0
 17 18  1  0
 17 19  1  0
 19 20  1  0
 19 21  2  0
 21 22  1  0
 12 23  1  0
 23 24  1  0
 23 25  1  0
 23 26  1  0
 26 27  1  0
 26 28  1  0
  2 29  1  0
 29 30  2  0
 30 31  1  0
 30 32  1  0
 32 33  2  0
 33 34  1  0
 33 35  1  0
 35 36  1  0
 35 37  2  0
 37 38  1  0
 26  5  1  0
 37 29  1  0
 21 13  1  0
M  END
>  <cnnaffinity>  (1) 
-5.3271

>  <filename>  (1) 
BrC(=Cc1cccnc1)N1CCN(c2ccccn2)CC1

$$$$
