
     RDKit          3D

 30 32  0  0  0  0  0  0  0  0999 V2000
    8.1416   -1.1494   20.5694 H   0  0  0  0  0  0  0  0  0  0  0  0
    7.3853   -0.4146   20.8337 C   0  0  0  0  0  0  0  0  0  0  0  0
    7.1770   -0.2256   22.1931 C   0  0  0  0  0  0  0  0  0  0  0  0
    5.8582    0.9570   22.9277 Br  0  0  0  0  0  0  0  0  0  0  0  0
    7.9401   -1.0594   23.1179 C   0  0  0  0  0  0  0  0  0  0  0  0
    7.3015   -1.5527   24.2609 C   0  0  0  0  0  0  0  0  0  0  0  0
    6.2814   -1.2540   24.4560 H   0  0  0  0  0  0  0  0  0  0  0  0
    7.8633   -2.4318   25.1058 N   0  0  0  0  0  0  0  0  0  0  0  0
    9.0982   -2.8735   24.8225 C   0  0  0  0  0  0  0  0  0  0  0  0
    9.5634   -3.5952   25.4862 H   0  0  0  0  0  0  0  0  0  0  0  0
    9.8176   -2.4309   23.7101 C   0  0  0  0  0  0  0  0  0  0  0  0
   11.0908   -2.9342   23.4332 C   0  0  0  0  0  0  0  0  0  0  0  0
   11.5575   -3.6908   24.0639 H   0  0  0  0  0  0  0  0  0  0  0  0
   11.8240   -2.4123   22.3672 C   0  0  0  0  0  0  0  0  0  0  0  0
   12.8377   -2.7512   22.1967 H   0  0  0  0  0  0  0  0  0  0  0  0
   11.2845   -1.4443   21.5252 C   0  0  0  0  0  0  0  0  0  0  0  0
   11.8736   -1.0587   20.6957 H   0  0  0  0  0  0  0  0  0  0  0  0
    9.9947   -0.9708   21.7718 C   0  0  0  0  0  0  0  0  0  0  0  0
    9.5796   -0.2035   21.1266 H   0  0  0  0  0  0  0  0  0  0  0  0
    9.2523   -1.4691   22.8554 C   0  0  0  0  0  0  0  0  0  0  0  0
    6.6668    0.2156   19.7165 C   0  0  0  0  0  0  0  0  0  0  0  0
    7.1115    0.0236   18.3903 C   0  0  0  0  0  0  0  0  0  0  0  0
    7.9864   -0.6014   18.2220 H   0  0  0  0  0  0  0  0  0  0  0  0
    6.5170    0.5852   17.3197 N   0  0  0  0  0  0  0  0  0  0  0  0
    5.4466    1.3747   17.5286 C   0  0  0  0  0  0  0  0  0  0  0  0
    4.9844    1.8599   16.6745 H   0  0  0  0  0  0  0  0  0  0  0  0
    4.9239    1.5868   18.8066 C   0  0  0  0  0  0  0  0  0  0  0  0
    4.0640    2.2359   18.9237 H   0  0  0  0  0  0  0  0  0  0  0  0
    5.5225    0.9909   19.9149 C   0  0  0  0  0  0  0  0  0  0  0  0
    5.0934    1.1401   20.9002 H   0  0  0  0  0  0  0  0  0  0  0  0
  1  2  1  0
  2  3  2  3
  3  4  1  0
  3  5  1  0
  5  6  2  0
  6  7  1  0
  6  8  1  0
  8  9  2  0
  9 10  1  0
  9 11  1  0
 11 12  2  0
 12 13  1  0
 12 14  1  0
 14 15  1  0
 14 16  2  0
 16 17  1  0
 16 18  1  0
 18 19  1  0
 18 20  2  0
  2 21  1  0
 21 22  2  0
 22 23  1  0
 22 24  1  0
 24 25  2  0
 25 26  1  0
 25 27  1  0
 27 28  1  0
 27 29  2  0
 29 30  1  0
 20  5  1  0
 29 21  1  0
 20 11  1  0
M  END
>  <cnnaffinity>  (1) 
-5.44006

>  <filename>  (1) 
BrC(=Cc1cccnc1)c1cncc2ccccc12

$$$$
