
     RDKit          3D

 24 25  0  0  0  0  0  0  0  0999 V2000
    6.7171   -1.4502   21.5640 H   0  0  0  0  0  0  0  0  0  0  0  0
    7.3205   -0.7469   21.0036 C   0  0  0  0  0  0  0  0  0  0  0  0
    8.6297   -0.5929   21.4139 C   0  0  0  0  0  0  0  0  0  0  0  0
    9.6658    0.7863   20.6335 Br  0  0  0  0  0  0  0  0  0  0  0  0
    9.1777   -1.3664   22.4517 N   0  0  0  0  0  0  0  0  0  0  0  0
   10.5001   -1.3469   23.0664 C   0  0  0  0  0  0  0  0  0  0  0  0
   10.7474   -0.4243   23.6045 H   0  0  0  0  0  0  0  0  0  0  0  0
   11.3211   -1.6487   22.4059 H   0  0  0  0  0  0  0  0  0  0  0  0
    9.9792   -2.4777   23.9728 C   0  0  0  0  0  0  0  0  0  0  0  0
   10.5096   -3.4219   23.8675 H   0  0  0  0  0  0  0  0  0  0  0  0
    9.9468   -2.2305   25.0310 H   0  0  0  0  0  0  0  0  0  0  0  0
    8.6105   -2.4278   23.2695 C   0  0  0  0  0  0  0  0  0  0  0  0
    8.3579   -3.3420   22.7226 H   0  0  0  0  0  0  0  0  0  0  0  0
    7.7861   -2.1166   23.9205 H   0  0  0  0  0  0  0  0  0  0  0  0
    6.6651    0.0079   19.9110 C   0  0  0  0  0  0  0  0  0  0  0  0
    7.1955    0.0709   18.6034 C   0  0  0  0  0  0  0  0  0  0  0  0
    8.1320   -0.4352   18.4016 H   0  0  0  0  0  0  0  0  0  0  0  0
    6.5749    0.6852   17.5733 N   0  0  0  0  0  0  0  0  0  0  0  0
    5.4034    1.2972   17.8244 C   0  0  0  0  0  0  0  0  0  0  0  0
    4.8875    1.7997   17.0113 H   0  0  0  0  0  0  0  0  0  0  0  0
    4.8182    1.3036   19.0985 C   0  0  0  0  0  0  0  0  0  0  0  0
    3.8837    1.8319   19.2564 H   0  0  0  0  0  0  0  0  0  0  0  0
    5.4434    0.6375   20.1570 C   0  0  0  0  0  0  0  0  0  0  0  0
    5.0030    0.6278   21.1567 H   0  0  0  0  0  0  0  0  0  0  0  0
  1  2  1  0
  2  3  2  3
  3  4  1  0
  3  5  1  0
  5  6  1  0
  6  7  1  0
  6  8  1  0
  6  9  1  0
  9 10  1  0
  9 11  1  0
  9 12  1  0
 12 13  1  0
 12 14  1  0
  2 15  1  0
 15 16  2  0
 16 17  1  0
 16 18  1  0
 18 19  2  0
 19 20  1  0
 19 21  1  0
 21 22  1  0
 21 23  2  0
 23 24  1  0
 12  5  1  0
 23 15  1  0
M  END
>  <cnnaffinity>  (1) 
-4.08123

>  <filename>  (1) 
BrC(=Cc1cccnc1)N1CCC1

$$$$
