
     RDKit          3D

 31 33  0  0  0  0  0  0  0  0999 V2000
    4.8935    1.7796   17.0142 H   0  0  0  0  0  0  0  0  0  0  0  0
    5.4026    1.2918   17.8402 C   0  0  0  0  0  0  0  0  0  0  0  0
    6.5729    0.6755   17.5922 N   0  0  0  0  0  0  0  0  0  0  0  0
    7.1854    0.0446   18.6046 C   0  0  0  0  0  0  0  0  0  0  0  0
    8.1345   -0.4443   18.3939 H   0  0  0  0  0  0  0  0  0  0  0  0
    6.6462    0.0100   19.8878 C   0  0  0  0  0  0  0  0  0  0  0  0
    7.3540   -0.6950   20.9108 C   0  0  0  0  0  0  0  0  0  0  0  0
    7.5401   -1.9964   20.8966 N   0  0  0  0  0  0  0  0  0  0  0  0
    8.2605   -2.2709   22.0505 C   0  0  0  0  0  0  0  0  0  0  0  0
    8.5897   -3.2633   22.3565 H   0  0  0  0  0  0  0  0  0  0  0  0
    8.5168   -1.1139   22.7386 C   0  0  0  0  0  0  0  0  0  0  0  0
    9.0725   -0.9975   23.6608 H   0  0  0  0  0  0  0  0  0  0  0  0
    7.9391   -0.1024   22.0133 N   0  0  0  0  0  0  0  0  0  0  0  0
    8.0320    1.3352   22.3272 C   0  0  0  0  0  0  0  0  0  0  0  0
    8.9002    1.5156   22.9716 H   0  0  0  0  0  0  0  0  0  0  0  0
    8.1922    1.9022   21.4038 H   0  0  0  0  0  0  0  0  0  0  0  0
    6.7944    1.8147   23.0395 C   0  0  0  0  0  0  0  0  0  0  0  0
    6.0571    2.8951   22.5331 C   0  0  0  0  0  0  0  0  0  0  0  0
    6.3720    3.3945   21.6216 H   0  0  0  0  0  0  0  0  0  0  0  0
    4.9129    3.3454   23.2003 C   0  0  0  0  0  0  0  0  0  0  0  0
    4.3500    4.1825   22.7991 H   0  0  0  0  0  0  0  0  0  0  0  0
    4.4914    2.7230   24.3796 C   0  0  0  0  0  0  0  0  0  0  0  0
    2.9246    3.3359   25.2834 Br  0  0  0  0  0  0  0  0  0  0  0  0
    5.2266    1.6507   24.8937 C   0  0  0  0  0  0  0  0  0  0  0  0
    4.9077    1.1681   25.8123 H   0  0  0  0  0  0  0  0  0  0  0  0
    6.3733    1.2003   24.2303 C   0  0  0  0  0  0  0  0  0  0  0  0
    6.9355    0.3691   24.6475 H   0  0  0  0  0  0  0  0  0  0  0  0
    5.4455    0.6567   20.1645 C   0  0  0  0  0  0  0  0  0  0  0  0
    5.0053    0.6338   21.1589 H   0  0  0  0  0  0  0  0  0  0  0  0
    4.8142    1.3107   19.1129 C   0  0  0  0  0  0  0  0  0  0  0  0
    3.8770    1.8389   19.2669 H   0  0  0  0  0  0  0  0  0  0  0  0
  1  2  1  0
  2  3  2  0
  3  4  1  0
  4  5  1  0
  4  6  2  0
  6  7  1  0
  7  8  2  0
  8  9  1  0
  9 10  1  0
  9 11  2  0
 11 12  1  0
 11 13  1  0
 13 14  1  0
 14 15  1  0
 14 16  1  0
 14 17  1  0
 17 18  2  0
 18 19  1  0
 18 20  1  0
 20 21  1  0
 20 22  2  0
 22 23  1  0
 22 24  1  0
 24 25  1  0
 24 26  2  0
 26 27  1  0
  6 28  1  0
 28 29  1  0
 28 30  2  0
 30 31  1  0
 30  2  1  0
 13  7  1  0
 26 17  1  0
M  END
>  <cnnaffinity>  (1) 
-5.1061

>  <filename>  (1) 
Brc1ccc(Cn2ccnc2-c2cccnc2)cc1

$$$$
