
     RDKit          3D

 31 33  0  0  0  0  0  0  0  0999 V2000
    4.8838    1.8026   17.0100 H   0  0  0  0  0  0  0  0  0  0  0  0
    5.4009    1.3002   17.8189 C   0  0  0  0  0  0  0  0  0  0  0  0
    6.5637    0.6775   17.5483 N   0  0  0  0  0  0  0  0  0  0  0  0
    7.1680    0.0444   18.5720 C   0  0  0  0  0  0  0  0  0  0  0  0
    8.1234   -0.4433   18.3984 H   0  0  0  0  0  0  0  0  0  0  0  0
    6.6420    0.0126   19.8756 C   0  0  0  0  0  0  0  0  0  0  0  0
    7.3635   -0.6802   20.9296 C   0  0  0  0  0  0  0  0  0  0  0  0
    7.6062   -2.0084   20.9801 C   0  0  0  0  0  0  0  0  0  0  0  0
    7.2599   -2.7564   20.2796 H   0  0  0  0  0  0  0  0  0  0  0  0
    8.3585   -2.2269   22.1905 C   0  0  0  0  0  0  0  0  0  0  0  0
    8.7069   -3.1969   22.5215 H   0  0  0  0  0  0  0  0  0  0  0  0
    8.5520   -1.1002   22.8385 N   0  0  0  0  0  0  0  0  0  0  0  0
    7.9398   -0.1413   22.0756 N   0  0  0  0  0  0  0  0  0  0  0  0
    7.9742    1.2966   22.3819 C   0  0  0  0  0  0  0  0  0  0  0  0
    8.0836    1.8826   21.4649 H   0  0  0  0  0  0  0  0  0  0  0  0
    8.8543    1.4981   22.9942 H   0  0  0  0  0  0  0  0  0  0  0  0
    6.7416    1.7294   23.1303 C   0  0  0  0  0  0  0  0  0  0  0  0
    5.9688    2.8095   22.6757 C   0  0  0  0  0  0  0  0  0  0  0  0
    6.2554    3.3466   21.7748 H   0  0  0  0  0  0  0  0  0  0  0  0
    4.8273    3.2057   23.3841 C   0  0  0  0  0  0  0  0  0  0  0  0
    4.2367    4.0460   23.0319 H   0  0  0  0  0  0  0  0  0  0  0  0
    4.4460    2.5322   24.5493 C   0  0  0  0  0  0  0  0  0  0  0  0
    2.8844    3.0748   25.5113 Br  0  0  0  0  0  0  0  0  0  0  0  0
    5.2183    1.4595   25.0060 C   0  0  0  0  0  0  0  0  0  0  0  0
    4.9287    0.9374   25.9118 H   0  0  0  0  0  0  0  0  0  0  0  0
    6.3610    1.0633   24.3029 C   0  0  0  0  0  0  0  0  0  0  0  0
    6.9541    0.2280   24.6657 H   0  0  0  0  0  0  0  0  0  0  0  0
    5.4422    0.6629   20.1585 C   0  0  0  0  0  0  0  0  0  0  0  0
    5.0163    0.6398   21.1672 H   0  0  0  0  0  0  0  0  0  0  0  0
    4.8175    1.3162   19.0973 C   0  0  0  0  0  0  0  0  0  0  0  0
    3.8798    1.8342   19.2583 H   0  0  0  0  0  0  0  0  0  0  0  0
  1  2  1  0
  2  3  2  0
  3  4  1  0
  4  5  1  0
  4  6  2  0
  6  7  1  0
  7  8  2  0
  8  9  1  0
  8 10  1  0
 10 11  1  0
 10 12  2  0
 12 13  1  0
 13 14  1  0
 14 15  1  0
 14 16  1  0
 14 17  1  0
 17 18  2  0
 18 19  1  0
 18 20  1  0
 20 21  1  0
 20 22  2  0
 22 23  1  0
 22 24  1  0
 24 25  1  0
 24 26  2  0
 26 27  1  0
  6 28  1  0
 28 29  1  0
 28 30  2  0
 30 31  1  0
 30  2  1  0
 13  7  1  0
 26 17  1  0
M  END
>  <cnnaffinity>  (1) 
-4.84613

>  <filename>  (1) 
Brc1ccc(Cn2nccc2-c2cccnc2)cc1

$$$$
