
     RDKit          3D

 31 33  0  0  0  0  0  0  0  0999 V2000
    4.8782    1.8131   17.0059 H   0  0  0  0  0  0  0  0  0  0  0  0
    5.3956    1.3052   17.8111 C   0  0  0  0  0  0  0  0  0  0  0  0
    6.5578    0.6848   17.5390 N   0  0  0  0  0  0  0  0  0  0  0  0
    7.1647    0.0557   18.5640 C   0  0  0  0  0  0  0  0  0  0  0  0
    8.1185   -0.4372   18.3934 H   0  0  0  0  0  0  0  0  0  0  0  0
    6.6453    0.0127   19.8715 C   0  0  0  0  0  0  0  0  0  0  0  0
    7.3695   -0.6871   20.9291 C   0  0  0  0  0  0  0  0  0  0  0  0
    7.6399   -2.0249   21.0025 C   0  0  0  0  0  0  0  0  0  0  0  0
    7.2931   -2.7378   20.2664 H   0  0  0  0  0  0  0  0  0  0  0  0
    8.3757   -2.3301   22.1417 N   0  0  0  0  0  0  0  0  0  0  0  0
    8.5238   -1.1804   22.7567 C   0  0  0  0  0  0  0  0  0  0  0  0
    9.0580   -1.0528   23.6959 H   0  0  0  0  0  0  0  0  0  0  0  0
    7.9262   -0.1361   22.0586 N   0  0  0  0  0  0  0  0  0  0  0  0
    7.9643    1.2911   22.4124 C   0  0  0  0  0  0  0  0  0  0  0  0
    8.0918    1.8986   21.5088 H   0  0  0  0  0  0  0  0  0  0  0  0
    8.8334    1.4840   23.0489 H   0  0  0  0  0  0  0  0  0  0  0  0
    6.7157    1.7171   23.1412 C   0  0  0  0  0  0  0  0  0  0  0  0
    6.3088    1.0480   24.3030 C   0  0  0  0  0  0  0  0  0  0  0  0
    6.8916    0.2088   24.6726 H   0  0  0  0  0  0  0  0  0  0  0  0
    5.1528    1.4458   24.9828 C   0  0  0  0  0  0  0  0  0  0  0  0
    4.8409    0.9189   25.8787 H   0  0  0  0  0  0  0  0  0  0  0  0
    4.3930    2.5219   24.5149 C   0  0  0  0  0  0  0  0  0  0  0  0
    2.8134    3.0642   25.4469 Br  0  0  0  0  0  0  0  0  0  0  0  0
    4.8028    3.2005   23.3618 C   0  0  0  0  0  0  0  0  0  0  0  0
    4.2216    4.0439   23.0021 H   0  0  0  0  0  0  0  0  0  0  0  0
    5.9578    2.8029   22.6772 C   0  0  0  0  0  0  0  0  0  0  0  0
    6.2658    3.3414   21.7843 H   0  0  0  0  0  0  0  0  0  0  0  0
    5.4459    0.6619   20.1544 C   0  0  0  0  0  0  0  0  0  0  0  0
    5.0238    0.6421   21.1626 H   0  0  0  0  0  0  0  0  0  0  0  0
    4.8199    1.3152   19.0925 C   0  0  0  0  0  0  0  0  0  0  0  0
    3.8813    1.8330   19.2537 H   0  0  0  0  0  0  0  0  0  0  0  0
  1  2  1  0
  2  3  2  0
  3  4  1  0
  4  5  1  0
  4  6  2  0
  6  7  1  0
  7  8  2  0
  8  9  1  0
  8 10  1  0
 10 11  2  0
 11 12  1  0
 11 13  1  0
 13 14  1  0
 14 15  1  0
 14 16  1  0
 14 17  1  0
 17 18  2  0
 18 19  1  0
 18 20  1  0
 20 21  1  0
 20 22  2  0
 22 23  1  0
 22 24  1  0
 24 25  1  0
 24 26  2  0
 26 27  1  0
  6 28  1  0
 28 29  1  0
 28 30  2  0
 30 31  1  0
 30  2  1  0
 13  7  1  0
 26 17  1  0
M  END
>  <cnnaffinity>  (1) 
-5.01515

>  <filename>  (1) 
Brc1ccc(Cn2cncc2-c2cccnc2)cc1

$$$$
