
     RDKit          3D

 26 27  0  0  0  0  0  0  0  0999 V2000
    4.8922    1.8019   17.0177 H   0  0  0  0  0  0  0  0  0  0  0  0
    5.4105    1.2917   17.8271 C   0  0  0  0  0  0  0  0  0  0  0  0
    6.5776    0.6710   17.5787 N   0  0  0  0  0  0  0  0  0  0  0  0
    7.1937    0.0643   18.6085 C   0  0  0  0  0  0  0  0  0  0  0  0
    8.1361   -0.4384   18.4133 H   0  0  0  0  0  0  0  0  0  0  0  0
    6.6597    0.0202   19.9069 C   0  0  0  0  0  0  0  0  0  0  0  0
    7.3911   -0.7142   20.9878 C   0  0  0  0  0  0  0  0  0  0  0  0
    7.4552   -1.7763   20.7207 H   0  0  0  0  0  0  0  0  0  0  0  0
    6.8487   -0.6506   21.9376 H   0  0  0  0  0  0  0  0  0  0  0  0
    8.7424   -0.1424   21.1058 N   0  0  0  0  0  0  0  0  0  0  0  0
    9.5345   -0.7045   20.8127 H   0  0  0  0  0  0  0  0  0  0  0  0
    9.0398    1.1075   21.6368 C   0  0  0  0  0  0  0  0  0  0  0  0
   10.3554    1.5673   21.5581 C   0  0  0  0  0  0  0  0  0  0  0  0
   11.1118    0.9402   21.1017 H   0  0  0  0  0  0  0  0  0  0  0  0
   10.6966    2.8357   22.0541 C   0  0  0  0  0  0  0  0  0  0  0  0
   11.7099    3.2136   21.9712 H   0  0  0  0  0  0  0  0  0  0  0  0
    9.7237    3.6503   22.6433 C   0  0  0  0  0  0  0  0  0  0  0  0
   10.1822    5.3977   23.2914 Br  0  0  0  0  0  0  0  0  0  0  0  0
    8.4086    3.1844   22.7263 C   0  0  0  0  0  0  0  0  0  0  0  0
    7.6554    3.8240   23.1736 H   0  0  0  0  0  0  0  0  0  0  0  0
    8.0699    1.9153   22.2293 C   0  0  0  0  0  0  0  0  0  0  0  0
    7.0547    1.5462   22.2964 H   0  0  0  0  0  0  0  0  0  0  0  0
    5.4432    0.6520   20.1689 C   0  0  0  0  0  0  0  0  0  0  0  0
    4.9985    0.6421   21.1662 H   0  0  0  0  0  0  0  0  0  0  0  0
    4.8258    1.3018   19.1020 C   0  0  0  0  0  0  0  0  0  0  0  0
    3.8887    1.8259   19.2532 H   0  0  0  0  0  0  0  0  0  0  0  0
  1  2  1  0
  2  3  2  0
  3  4  1  0
  4  5  1  0
  4  6  2  0
  6  7  1  0
  7  8  1  0
  7  9  1  0
  7 10  1  0
 10 11  1  0
 10 12  1  0
 12 13  2  0
 13 14  1  0
 13 15  1  0
 15 16  1  0
 15 17  2  0
 17 18  1  0
 17 19  1  0
 19 20  1  0
 19 21  2  0
 21 22  1  0
  6 23  1  0
 23 24  1  0
 23 25  2  0
 25 26  1  0
 25  2  1  0
 21 12  1  0
M  END
>  <cnnaffinity>  (1) 
-4.46625

>  <filename>  (1) 
Brc1ccc(NCc2cccnc2)cc1

$$$$
