
     RDKit          3D

 30 32  0  0  0  0  0  0  0  0999 V2000
    4.9931    1.7495   17.0068 H   0  0  0  0  0  0  0  0  0  0  0  0
    5.4407    1.2519   17.8565 C   0  0  0  0  0  0  0  0  0  0  0  0
    6.5998    0.5987   17.6629 N   0  0  0  0  0  0  0  0  0  0  0  0
    7.1746    0.0372   18.7328 C   0  0  0  0  0  0  0  0  0  0  0  0
    8.1073   -0.5059   18.6028 H   0  0  0  0  0  0  0  0  0  0  0  0
    6.6228    0.1111   20.0112 C   0  0  0  0  0  0  0  0  0  0  0  0
    7.3317   -0.5284   21.0884 C   0  0  0  0  0  0  0  0  0  0  0  0
    7.1319   -0.1062   22.3329 N   0  0  0  0  0  0  0  0  0  0  0  0
    7.7870   -0.7166   23.3349 C   0  0  0  0  0  0  0  0  0  0  0  0
    7.6640   -0.1760   24.6879 C   0  0  0  0  0  0  0  0  0  0  0  0
    8.6570   -0.3630   25.6711 C   0  0  0  0  0  0  0  0  0  0  0  0
    9.5575   -0.9307   25.4510 H   0  0  0  0  0  0  0  0  0  0  0  0
    8.5175    0.2143   26.9405 C   0  0  0  0  0  0  0  0  0  0  0  0
    9.2879    0.0741   27.6976 H   0  0  0  0  0  0  0  0  0  0  0  0
    7.3825    0.9826   27.2396 C   0  0  0  0  0  0  0  0  0  0  0  0
    7.1832    1.7837   28.9669 Br  0  0  0  0  0  0  0  0  0  0  0  0
    6.3876    1.1604   26.2703 C   0  0  0  0  0  0  0  0  0  0  0  0
    5.4961    1.7436   26.4917 H   0  0  0  0  0  0  0  0  0  0  0  0
    6.5359    0.5879   25.0083 C   0  0  0  0  0  0  0  0  0  0  0  0
    5.7713    0.7345   24.2521 H   0  0  0  0  0  0  0  0  0  0  0  0
    8.5881   -1.8404   23.1124 C   0  0  0  0  0  0  0  0  0  0  0  0
    9.0568   -2.3275   23.9551 H   0  0  0  0  0  0  0  0  0  0  0  0
    8.7806   -2.3122   21.8252 C   0  0  0  0  0  0  0  0  0  0  0  0
    9.3662   -3.2015   21.6193 H   0  0  0  0  0  0  0  0  0  0  0  0
    8.1918   -1.5830   20.8089 C   0  0  0  0  0  0  0  0  0  0  0  0
    8.3475   -1.8107   19.7727 H   0  0  0  0  0  0  0  0  0  0  0  0
    5.3991    0.7601   20.2147 C   0  0  0  0  0  0  0  0  0  0  0  0
    4.9220    0.8039   21.1983 H   0  0  0  0  0  0  0  0  0  0  0  0
    4.8004    1.3348   19.0999 C   0  0  0  0  0  0  0  0  0  0  0  0
    3.8525    1.8566   19.1807 H   0  0  0  0  0  0  0  0  0  0  0  0
  1  2  1  0
  2  3  2  0
  3  4  1  0
  4  5  1  0
  4  6  2  0
  6  7  1  0
  7  8  2  0
  8  9  1  0
  9 10  1  0
 10 11  2  0
 11 12  1  0
 11 13  1  0
 13 14  1  0
 13 15  2  0
 15 16  1  0
 15 17  1  0
 17 18  1  0
 17 19  2  0
 19 20  1  0
  9 21  2  0
 21 22  1  0
 21 23  1  0
 23 24  1  0
 23 25  2  0
 25 26  1  0
  6 27  1  0
 27 28  1  0
 27 29  2  0
 29 30  1  0
 29  2  1  0
 25  7  1  0
 19 10  1  0
M  END
>  <cnnaffinity>  (1) 
-4.84571

>  <filename>  (1) 
Brc1ccc(-c2cccc(-c3cccnc3)n2)cc1

$$$$
