
     RDKit          3D

 24 25  0  0  0  0  0  0  0  0999 V2000
    6.8930   -0.7638   21.9751 H   0  0  0  0  0  0  0  0  0  0  0  0
    7.3720   -0.6641   21.0037 C   0  0  0  0  0  0  0  0  0  0  0  0
    8.5868   -1.0988   20.8114 N   0  0  0  0  0  0  0  0  0  0  0  0
    9.1948   -1.7715   21.8583 C   0  0  0  0  0  0  0  0  0  0  0  0
   10.5752   -1.9673   21.8038 C   0  0  0  0  0  0  0  0  0  0  0  0
   11.1368   -1.5166   20.9900 H   0  0  0  0  0  0  0  0  0  0  0  0
   11.2126   -2.7766   22.7543 C   0  0  0  0  0  0  0  0  0  0  0  0
   12.2757   -2.9813   22.6905 H   0  0  0  0  0  0  0  0  0  0  0  0
   10.4768   -3.3794   23.7767 C   0  0  0  0  0  0  0  0  0  0  0  0
   11.2833   -4.6645   24.9295 Br  0  0  0  0  0  0  0  0  0  0  0  0
    9.1162   -3.1010   23.8984 C   0  0  0  0  0  0  0  0  0  0  0  0
    8.5519   -3.5159   24.7285 H   0  0  0  0  0  0  0  0  0  0  0  0
    8.4755   -2.3157   22.9380 C   0  0  0  0  0  0  0  0  0  0  0  0
    7.4094   -2.1353   23.0235 H   0  0  0  0  0  0  0  0  0  0  0  0
    6.6539   -0.0201   19.9325 C   0  0  0  0  0  0  0  0  0  0  0  0
    7.2090   -0.0089   18.6490 C   0  0  0  0  0  0  0  0  0  0  0  0
    8.1524   -0.5162   18.4664 H   0  0  0  0  0  0  0  0  0  0  0  0
    6.6242    0.6229   17.6216 N   0  0  0  0  0  0  0  0  0  0  0  0
    5.4653    1.2642   17.8503 C   0  0  0  0  0  0  0  0  0  0  0  0
    4.9880    1.7922   17.0298 H   0  0  0  0  0  0  0  0  0  0  0  0
    4.8470    1.2741   19.1046 C   0  0  0  0  0  0  0  0  0  0  0  0
    3.9198    1.8173   19.2394 H   0  0  0  0  0  0  0  0  0  0  0  0
    5.4391    0.6163   20.1751 C   0  0  0  0  0  0  0  0  0  0  0  0
    4.9866    0.6301   21.1676 H   0  0  0  0  0  0  0  0  0  0  0  0
  1  2  1  0
  2  3  2  3
  3  4  1  0
  4  5  2  0
  5  6  1  0
  5  7  1  0
  7  8  1  0
  7  9  2  0
  9 10  1  0
  9 11  1  0
 11 12  1  0
 11 13  2  0
 13 14  1  0
  2 15  1  0
 15 16  2  0
 16 17  1  0
 16 18  1  0
 18 19  2  0
 19 20  1  0
 19 21  1  0
 21 22  1  0
 21 23  2  0
 23 24  1  0
 13  4  1  0
 23 15  1  0
M  END
>  <cnnaffinity>  (1) 
-4.65155

>  <filename>  (1) 
Brc1ccc(N=Cc2cccnc2)cc1

$$$$
