
     RDKit          3D

 28 30  0  0  0  0  0  0  0  0999 V2000
    4.8868    1.8025   17.0114 H   0  0  0  0  0  0  0  0  0  0  0  0
    5.4016    1.2962   17.8229 C   0  0  0  0  0  0  0  0  0  0  0  0
    6.5692    0.6794   17.5702 N   0  0  0  0  0  0  0  0  0  0  0  0
    7.1792    0.0611   18.6002 C   0  0  0  0  0  0  0  0  0  0  0  0
    8.1237   -0.4315   18.4068 H   0  0  0  0  0  0  0  0  0  0  0  0
    6.6614   -0.0002   19.9060 C   0  0  0  0  0  0  0  0  0  0  0  0
    7.4164   -0.7034   20.9562 C   0  0  0  0  0  0  0  0  0  0  0  0
    9.1382   -1.0597   20.8600 S   0  0  0  0  0  0  0  0  0  0  0  0
    9.0594   -1.8508   22.4333 C   0  0  0  0  0  0  0  0  0  0  0  0
    9.9161   -2.2835   22.9294 H   0  0  0  0  0  0  0  0  0  0  0  0
    7.8073   -1.8460   22.9962 C   0  0  0  0  0  0  0  0  0  0  0  0
    7.4387   -2.4345   24.2968 C   0  0  0  0  0  0  0  0  0  0  0  0
    8.1517   -3.5344   24.7914 C   0  0  0  0  0  0  0  0  0  0  0  0
    8.9576   -3.9541   24.1966 H   0  0  0  0  0  0  0  0  0  0  0  0
    7.8163   -4.1078   26.0213 C   0  0  0  0  0  0  0  0  0  0  0  0
    8.3686   -4.9655   26.3891 H   0  0  0  0  0  0  0  0  0  0  0  0
    6.7544   -3.5996   26.7733 C   0  0  0  0  0  0  0  0  0  0  0  0
    6.2336   -4.5034   28.3787 Br  0  0  0  0  0  0  0  0  0  0  0  0
    6.0487   -2.4855   26.3011 C   0  0  0  0  0  0  0  0  0  0  0  0
    5.2333   -2.0746   26.8887 H   0  0  0  0  0  0  0  0  0  0  0  0
    6.3777   -1.9134   25.0626 C   0  0  0  0  0  0  0  0  0  0  0  0
    5.8174   -1.0574   24.6943 H   0  0  0  0  0  0  0  0  0  0  0  0
    6.8685   -1.1740   22.1189 C   0  0  0  0  0  0  0  0  0  0  0  0
    5.8244   -1.0791   22.3302 H   0  0  0  0  0  0  0  0  0  0  0  0
    5.4386    0.6347   20.1624 C   0  0  0  0  0  0  0  0  0  0  0  0
    5.0027    0.6337   21.1656 H   0  0  0  0  0  0  0  0  0  0  0  0
    4.8160    1.3015   19.0996 C   0  0  0  0  0  0  0  0  0  0  0  0
    3.8831    1.8317   19.2557 H   0  0  0  0  0  0  0  0  0  0  0  0
  1  2  1  0
  2  3  2  0
  3  4  1  0
  4  5  1  0
  4  6  2  0
  6  7  1  0
  7  8  1  0
  8  9  1  0
  9 10  1  0
  9 11  2  0
 11 12  1  0
 12 13  2  0
 13 14  1  0
 13 15  1  0
 15 16  1  0
 15 17  2  0
 17 18  1  0
 17 19  1  0
 19 20  1  0
 19 21  2  0
 21 22  1  0
 11 23  1  0
 23 24  1  0
  6 25  1  0
 25 26  1  0
 25 27  2  0
 27 28  1  0
 27  2  1  0
 23  7  2  0
 21 12  1  0
M  END
>  <cnnaffinity>  (1) 
-5.12188

>  <filename>  (1) 
Brc1ccc(-c2csc(-c3cccnc3)c2)cc1

$$$$
