
     RDKit          3D

 26 28  0  0  0  0  0  0  0  0999 V2000
    4.8857    1.7969   17.0122 H   0  0  0  0  0  0  0  0  0  0  0  0
    5.4020    1.2970   17.8268 C   0  0  0  0  0  0  0  0  0  0  0  0
    6.5663    0.6707   17.5692 N   0  0  0  0  0  0  0  0  0  0  0  0
    7.1803    0.0548   18.5984 C   0  0  0  0  0  0  0  0  0  0  0  0
    8.1237   -0.4425   18.3981 H   0  0  0  0  0  0  0  0  0  0  0  0
    6.6790    0.0284   19.9177 C   0  0  0  0  0  0  0  0  0  0  0  0
    7.3684   -0.7078   21.0008 C   0  0  0  0  0  0  0  0  0  0  0  0
    8.0792   -2.2684   20.7775 S   0  0  0  0  0  0  0  0  0  0  0  0
    8.4863   -2.3844   22.4029 N   0  0  0  0  0  0  0  0  0  0  0  0
    8.1477   -1.3499   23.0789 N   0  0  0  0  0  0  0  0  0  0  0  0
    7.5258   -0.3683   22.3189 C   0  0  0  0  0  0  0  0  0  0  0  0
    7.1328    0.9038   22.9227 C   0  0  0  0  0  0  0  0  0  0  0  0
    7.3416    2.1194   22.2476 C   0  0  0  0  0  0  0  0  0  0  0  0
    7.8031    2.1378   21.2637 H   0  0  0  0  0  0  0  0  0  0  0  0
    6.9922    3.3263   22.8597 C   0  0  0  0  0  0  0  0  0  0  0  0
    7.1613    4.2654   22.3425 H   0  0  0  0  0  0  0  0  0  0  0  0
    6.4290    3.3358   24.1396 C   0  0  0  0  0  0  0  0  0  0  0  0
    5.9367    4.9885   24.9670 Br  0  0  0  0  0  0  0  0  0  0  0  0
    6.2286    2.1265   24.8116 C   0  0  0  0  0  0  0  0  0  0  0  0
    5.7963    2.1298   25.8055 H   0  0  0  0  0  0  0  0  0  0  0  0
    6.5838    0.9182   24.2114 C   0  0  0  0  0  0  0  0  0  0  0  0
    6.4262   -0.0160   24.7470 H   0  0  0  0  0  0  0  0  0  0  0  0
    5.4614    0.6685   20.1728 C   0  0  0  0  0  0  0  0  0  0  0  0
    5.0129    0.6399   21.1682 H   0  0  0  0  0  0  0  0  0  0  0  0
    4.8246    1.3116   19.1046 C   0  0  0  0  0  0  0  0  0  0  0  0
    3.8824    1.8305   19.2600 H   0  0  0  0  0  0  0  0  0  0  0  0
  1  2  1  0
  2  3  2  0
  3  4  1  0
  4  5  1  0
  4  6  2  0
  6  7  1  0
  7  8  1  0
  8  9  1  0
  9 10  2  0
 10 11  1  0
 11 12  1  0
 12 13  2  0
 13 14  1  0
 13 15  1  0
 15 16  1  0
 15 17  2  0
 17 18  1  0
 17 19  1  0
 19 20  1  0
 19 21  2  0
 21 22  1  0
  6 23  1  0
 23 24  1  0
 23 25  2  0
 25 26  1  0
 25  2  1  0
 11  7  2  0
 21 12  1  0
M  END
>  <cnnaffinity>  (1) 
-4.87225

>  <filename>  (1) 
Brc1ccc(-c2nnsc2-c2cccnc2)cc1

$$$$
