
     RDKit          3D

 26 28  0  0  0  0  0  0  0  0999 V2000
    4.8918    1.7896   17.0160 H   0  0  0  0  0  0  0  0  0  0  0  0
    5.4048    1.2935   17.8341 C   0  0  0  0  0  0  0  0  0  0  0  0
    6.5712    0.6684   17.5819 N   0  0  0  0  0  0  0  0  0  0  0  0
    7.1824    0.0467   18.6013 C   0  0  0  0  0  0  0  0  0  0  0  0
    8.1297   -0.4468   18.3988 H   0  0  0  0  0  0  0  0  0  0  0  0
    6.6636    0.0287   19.9019 C   0  0  0  0  0  0  0  0  0  0  0  0
    7.3651   -0.6940   20.9506 C   0  0  0  0  0  0  0  0  0  0  0  0
    7.8876   -1.9462   20.6911 N   0  0  0  0  0  0  0  0  0  0  0  0
    8.4197   -2.4951   21.7239 N   0  0  0  0  0  0  0  0  0  0  0  0
    8.3448   -1.5503   23.1308 S   0  0  0  0  0  0  0  0  0  0  0  0
    7.5472   -0.2776   22.2440 C   0  0  0  0  0  0  0  0  0  0  0  0
    7.2019    1.0277   22.8422 C   0  0  0  0  0  0  0  0  0  0  0  0
    6.7527    1.1093   24.1711 C   0  0  0  0  0  0  0  0  0  0  0  0
    6.6198    0.2046   24.7559 H   0  0  0  0  0  0  0  0  0  0  0  0
    6.4582    2.3494   24.7615 C   0  0  0  0  0  0  0  0  0  0  0  0
    6.0972    2.4015   25.7854 H   0  0  0  0  0  0  0  0  0  0  0  0
    6.6239    3.5329   24.0347 C   0  0  0  0  0  0  0  0  0  0  0  0
    6.2167    5.2253   24.8323 Br  0  0  0  0  0  0  0  0  0  0  0  0
    7.0927    3.4673   22.7190 C   0  0  0  0  0  0  0  0  0  0  0  0
    7.2356    4.3857   22.1551 H   0  0  0  0  0  0  0  0  0  0  0  0
    7.3777    2.2256   22.1266 C   0  0  0  0  0  0  0  0  0  0  0  0
    7.7690    2.2004   21.1153 H   0  0  0  0  0  0  0  0  0  0  0  0
    5.4506    0.6680   20.1693 C   0  0  0  0  0  0  0  0  0  0  0  0
    5.0032    0.6429   21.1646 H   0  0  0  0  0  0  0  0  0  0  0  0
    4.8218    1.3114   19.1076 C   0  0  0  0  0  0  0  0  0  0  0  0
    3.8821    1.8321   19.2617 H   0  0  0  0  0  0  0  0  0  0  0  0
  1  2  1  0
  2  3  2  0
  3  4  1  0
  4  5  1  0
  4  6  2  0
  6  7  1  0
  7  8  1  0
  8  9  2  0
  9 10  1  0
 10 11  1  0
 11 12  1  0
 12 13  2  0
 13 14  1  0
 13 15  1  0
 15 16  1  0
 15 17  2  0
 17 18  1  0
 17 19  1  0
 19 20  1  0
 19 21  2  0
 21 22  1  0
  6 23  1  0
 23 24  1  0
 23 25  2  0
 25 26  1  0
 25  2  1  0
 11  7  2  0
 21 12  1  0
M  END
>  <cnnaffinity>  (1) 
-4.97647

>  <filename>  (1) 
Brc1ccc(-c2snnc2-c2cccnc2)cc1

$$$$
