
     RDKit          3D

 29 31  0  0  0  0  0  0  0  0999 V2000
    4.8934    1.7798   17.0141 H   0  0  0  0  0  0  0  0  0  0  0  0
    5.4013    1.2927   17.8407 C   0  0  0  0  0  0  0  0  0  0  0  0
    6.5708    0.6777   17.5910 N   0  0  0  0  0  0  0  0  0  0  0  0
    7.1857    0.0475   18.6002 C   0  0  0  0  0  0  0  0  0  0  0  0
    8.1337   -0.4441   18.3922 H   0  0  0  0  0  0  0  0  0  0  0  0
    6.6499    0.0087   19.8872 C   0  0  0  0  0  0  0  0  0  0  0  0
    7.3527   -0.7185   20.9102 C   0  0  0  0  0  0  0  0  0  0  0  0
    7.7999   -1.9335   20.7705 N   0  0  0  0  0  0  0  0  0  0  0  0
    8.4152   -2.2477   21.9484 N   0  0  0  0  0  0  0  0  0  0  0  0
    8.3718   -1.2662   22.7799 N   0  0  0  0  0  0  0  0  0  0  0  0
    7.6975   -0.2735   22.1611 N   0  0  0  0  0  0  0  0  0  0  0  0
    7.5942    1.1063   22.6852 C   0  0  0  0  0  0  0  0  0  0  0  0
    6.9577    1.7374   22.0522 H   0  0  0  0  0  0  0  0  0  0  0  0
    8.5927    1.5596   22.6930 H   0  0  0  0  0  0  0  0  0  0  0  0
    7.0393    1.0811   24.0881 C   0  0  0  0  0  0  0  0  0  0  0  0
    5.6567    1.1521   24.3126 C   0  0  0  0  0  0  0  0  0  0  0  0
    4.9726    1.2432   23.4753 H   0  0  0  0  0  0  0  0  0  0  0  0
    5.1464    1.0945   25.6142 C   0  0  0  0  0  0  0  0  0  0  0  0
    4.0750    1.1482   25.7783 H   0  0  0  0  0  0  0  0  0  0  0  0
    6.0103    0.9645   26.7066 C   0  0  0  0  0  0  0  0  0  0  0  0
    5.3103    0.8873   28.4824 Br  0  0  0  0  0  0  0  0  0  0  0  0
    7.3899    0.8886   26.4895 C   0  0  0  0  0  0  0  0  0  0  0  0
    8.0646    0.7819   27.3343 H   0  0  0  0  0  0  0  0  0  0  0  0
    7.9023    0.9449   25.1881 C   0  0  0  0  0  0  0  0  0  0  0  0
    8.9758    0.8729   25.0371 H   0  0  0  0  0  0  0  0  0  0  0  0
    5.4488    0.6569   20.1650 C   0  0  0  0  0  0  0  0  0  0  0  0
    5.0047    0.6324   21.1584 H   0  0  0  0  0  0  0  0  0  0  0  0
    4.8152    1.3111   19.1138 C   0  0  0  0  0  0  0  0  0  0  0  0
    3.8775    1.8391   19.2661 H   0  0  0  0  0  0  0  0  0  0  0  0
  1  2  1  0
  2  3  2  0
  3  4  1  0
  4  5  1  0
  4  6  2  0
  6  7  1  0
  7  8  2  0
  8  9  1  0
  9 10  2  0
 10 11  1  0
 11 12  1  0
 12 13  1  0
 12 14  1  0
 12 15  1  0
 15 16  2  0
 16 17  1  0
 16 18  1  0
 18 19  1  0
 18 20  2  0
 20 21  1  0
 20 22  1  0
 22 23  1  0
 22 24  2  0
 24 25  1  0
  6 26  1  0
 26 27  1  0
 26 28  2  0
 28 29  1  0
 28  2  1  0
 11  7  1  0
 24 15  1  0
M  END
>  <cnnaffinity>  (1) 
-4.82777

>  <filename>  (1) 
Brc1ccc(Cn2nnnc2-c2cccnc2)cc1

$$$$
