
     RDKit          3D

 30 32  0  0  0  0  0  0  0  0999 V2000
    4.9234    1.8931   16.9276 H   0  0  0  0  0  0  0  0  0  0  0  0
    5.4349    1.3640   17.7237 C   0  0  0  0  0  0  0  0  0  0  0  0
    6.6328    0.8086   17.4656 N   0  0  0  0  0  0  0  0  0  0  0  0
    7.2508    0.1787   18.4825 C   0  0  0  0  0  0  0  0  0  0  0  0
    8.2076   -0.2953   18.2980 H   0  0  0  0  0  0  0  0  0  0  0  0
    6.7053    0.0637   19.7724 C   0  0  0  0  0  0  0  0  0  0  0  0
    7.4054   -0.6421   20.8436 C   0  0  0  0  0  0  0  0  0  0  0  0
    6.6536   -1.3496   21.7888 C   0  0  0  0  0  0  0  0  0  0  0  0
    5.5768   -1.3574   21.6856 H   0  0  0  0  0  0  0  0  0  0  0  0
    7.2000   -2.0414   22.7884 N   0  0  0  0  0  0  0  0  0  0  0  0
    8.5384   -2.0504   22.9114 C   0  0  0  0  0  0  0  0  0  0  0  0
    9.0859   -2.8188   24.0394 C   0  0  0  0  0  0  0  0  0  0  0  0
   10.3058   -3.5186   23.9871 C   0  0  0  0  0  0  0  0  0  0  0  0
   10.9099   -3.5048   23.0876 H   0  0  0  0  0  0  0  0  0  0  0  0
   10.7392   -4.2655   25.0901 C   0  0  0  0  0  0  0  0  0  0  0  0
   11.6950   -4.7792   25.0393 H   0  0  0  0  0  0  0  0  0  0  0  0
    9.9563   -4.3206   26.2491 C   0  0  0  0  0  0  0  0  0  0  0  0
   10.5901   -5.1548   27.8219 Br  0  0  0  0  0  0  0  0  0  0  0  0
    8.7094   -3.7061   26.2799 C   0  0  0  0  0  0  0  0  0  0  0  0
    8.0615   -3.8161   27.1467 H   0  0  0  0  0  0  0  0  0  0  0  0
    8.3012   -2.9394   25.1958 C   0  0  0  0  0  0  0  0  0  0  0  0
    7.3498   -2.4228   25.2428 H   0  0  0  0  0  0  0  0  0  0  0  0
    9.3606   -1.3511   22.0094 C   0  0  0  0  0  0  0  0  0  0  0  0
   10.4320   -1.3497   22.1604 H   0  0  0  0  0  0  0  0  0  0  0  0
    8.7957   -0.6355   20.9537 C   0  0  0  0  0  0  0  0  0  0  0  0
    9.4110   -0.0705   20.2538 H   0  0  0  0  0  0  0  0  0  0  0  0
    5.4482    0.6106   20.0233 C   0  0  0  0  0  0  0  0  0  0  0  0
    4.9882    0.5308   21.0096 H   0  0  0  0  0  0  0  0  0  0  0  0
    4.8189    1.2804   18.9797 C   0  0  0  0  0  0  0  0  0  0  0  0
    3.8579    1.7511   19.1389 H   0  0  0  0  0  0  0  0  0  0  0  0
  1  2  1  0
  2  3  2  0
  3  4  1  0
  4  5  1  0
  4  6  2  0
  6  7  1  0
  7  8  2  0
  8  9  1  0
  8 10  1  0
 10 11  2  0
 11 12  1  0
 12 13  2  0
 13 14  1  0
 13 15  1  0
 15 16  1  0
 15 17  2  0
 17 18  1  0
 17 19  1  0
 19 20  1  0
 19 21  2  0
 21 22  1  0
 11 23  1  0
 23 24  1  0
 23 25  2  0
 25 26  1  0
  6 27  1  0
 27 28  1  0
 27 29  2  0
 29 30  1  0
 29  2  1  0
 25  7  1  0
 21 12  1  0
M  END
>  <cnnaffinity>  (1) 
-4.98851

>  <filename>  (1) 
Brc1ccc(-c2ccc(-c3cccnc3)cn2)cc1

$$$$
