
     RDKit          3D

 27 29  0  0  0  0  0  0  0  0999 V2000
    4.8865    1.8206   16.9989 H   0  0  0  0  0  0  0  0  0  0  0  0
    5.3910    1.3035   17.8129 C   0  0  0  0  0  0  0  0  0  0  0  0
    6.5510    0.6631   17.5767 N   0  0  0  0  0  0  0  0  0  0  0  0
    7.1787    0.0772   18.6162 C   0  0  0  0  0  0  0  0  0  0  0  0
    8.1091   -0.4410   18.4036 H   0  0  0  0  0  0  0  0  0  0  0  0
    6.6894    0.0954   19.9360 C   0  0  0  0  0  0  0  0  0  0  0  0
    7.3640   -0.6038   21.0375 C   0  0  0  0  0  0  0  0  0  0  0  0
    7.7432   -1.9773   20.9144 C   0  0  0  0  0  0  0  0  0  0  0  0
    7.4503   -2.5098   20.0252 H   0  0  0  0  0  0  0  0  0  0  0  0
    8.3273   -2.5299   21.9470 N   0  0  0  0  0  0  0  0  0  0  0  0
    8.3986   -1.4318   23.2419 S   0  0  0  0  0  0  0  0  0  0  0  0
    7.6219   -0.1707   22.3022 C   0  0  0  0  0  0  0  0  0  0  0  0
    7.3251    1.1452   22.8301 C   0  0  0  0  0  0  0  0  0  0  0  0
    7.4757    2.2787   22.0244 C   0  0  0  0  0  0  0  0  0  0  0  0
    7.8044    2.1693   20.9948 H   0  0  0  0  0  0  0  0  0  0  0  0
    7.2305    3.5471   22.5559 C   0  0  0  0  0  0  0  0  0  0  0  0
    7.3834    4.4351   21.9514 H   0  0  0  0  0  0  0  0  0  0  0  0
    6.8057    3.6791   23.8821 C   0  0  0  0  0  0  0  0  0  0  0  0
    6.4746    5.4031   24.6241 Br  0  0  0  0  0  0  0  0  0  0  0  0
    6.6285    2.5399   24.6745 C   0  0  0  0  0  0  0  0  0  0  0  0
    6.3007    2.6358   25.7037 H   0  0  0  0  0  0  0  0  0  0  0  0
    6.8926    1.2728   24.1509 C   0  0  0  0  0  0  0  0  0  0  0  0
    6.7538    0.3727   24.7465 H   0  0  0  0  0  0  0  0  0  0  0  0
    5.4682    0.7184   20.1620 C   0  0  0  0  0  0  0  0  0  0  0  0
    5.0237    0.6967   21.1514 H   0  0  0  0  0  0  0  0  0  0  0  0
    4.8186    1.3270   19.0872 C   0  0  0  0  0  0  0  0  0  0  0  0
    3.8723    1.8344   19.2274 H   0  0  0  0  0  0  0  0  0  0  0  0
  1  2  1  0
  2  3  2  0
  3  4  1  0
  4  5  1  0
  4  6  2  0
  6  7  1  0
  7  8  1  0
  8  9  1  0
  8 10  2  0
 10 11  1  0
 11 12  1  0
 12 13  1  0
 13 14  2  0
 14 15  1  0
 14 16  1  0
 16 17  1  0
 16 18  2  0
 18 19  1  0
 18 20  1  0
 20 21  1  0
 20 22  2  0
 22 23  1  0
  6 24  1  0
 24 25  1  0
 24 26  2  0
 26 27  1  0
 26  2  1  0
 12  7  2  0
 22 13  1  0
M  END
>  <cnnaffinity>  (1) 
-4.90595

>  <filename>  (1) 
Brc1ccc(-c2sncc2-c2cccnc2)cc1

$$$$
