
     RDKit          3D

 24 24  0  0  0  0  0  0  0  0999 V2000
   13.7876   -1.6825   20.9461 H   0  0  0  0  0  0  0  0  0  0  0  0
   12.7657   -1.7014   21.2512 C   0  0  0  0  0  0  0  0  0  0  0  0
   11.5971   -1.7020   21.5466 C   0  0  0  0  0  0  0  0  0  0  0  0
   10.1949   -1.6846   21.9717 C   0  0  0  0  0  0  0  0  0  0  0  0
   10.0328   -0.7369   22.5108 H   0  0  0  0  0  0  0  0  0  0  0  0
   10.0288   -2.5180   22.6736 H   0  0  0  0  0  0  0  0  0  0  0  0
    9.3475   -1.8080   20.8441 O   0  0  0  0  0  0  0  0  0  0  0  0
    7.9530   -1.8355   21.1247 C   0  0  0  0  0  0  0  0  0  0  0  0
    7.4900   -2.3567   20.2863 H   0  0  0  0  0  0  0  0  0  0  0  0
    7.7466   -2.4460   22.0194 H   0  0  0  0  0  0  0  0  0  0  0  0
    7.3183   -0.4533   21.2803 C   0  0  0  0  0  0  0  0  0  0  0  0
    7.3472    0.1736   22.4581 C   0  0  0  0  0  0  0  0  0  0  0  0
    6.9721    1.1884   22.5687 H   0  0  0  0  0  0  0  0  0  0  0  0
    7.8002   -0.2806   23.3367 H   0  0  0  0  0  0  0  0  0  0  0  0
    6.6517    0.1664   20.1023 C   0  0  0  0  0  0  0  0  0  0  0  0
    7.2385    0.1017   18.8271 C   0  0  0  0  0  0  0  0  0  0  0  0
    8.1988   -0.4068   18.7163 H   0  0  0  0  0  0  0  0  0  0  0  0
    6.7060    0.6378   17.7206 N   0  0  0  0  0  0  0  0  0  0  0  0
    5.5200    1.2516   17.8478 C   0  0  0  0  0  0  0  0  0  0  0  0
    5.1014    1.6756   16.9355 H   0  0  0  0  0  0  0  0  0  0  0  0
    4.8372    1.3655   19.0667 C   0  0  0  0  0  0  0  0  0  0  0  0
    3.8809    1.8747   19.1008 H   0  0  0  0  0  0  0  0  0  0  0  0
    5.4157    0.8287   20.2158 C   0  0  0  0  0  0  0  0  0  0  0  0
    4.9267    0.8842   21.1911 H   0  0  0  0  0  0  0  0  0  0  0  0
  1  2  1  0
  2  3  3  0
  3  4  1  0
  4  5  1  0
  4  6  1  0
  4  7  1  0
  7  8  1  0
  8  9  1  0
  8 10  1  0
  8 11  1  0
 11 12  2  3
 12 13  1  0
 12 14  1  0
 11 15  1  0
 15 16  2  0
 16 17  1  0
 16 18  1  0
 18 19  2  0
 19 20  1  0
 19 21  1  0
 21 22  1  0
 21 23  2  0
 23 24  1  0
 23 15  1  0
M  END
>  <cnnaffinity>  (1) 
-4.4166

>  <filename>  (1) 
C#CCOCC(=C)c1cccnc1

$$$$
