
     RDKit          3D

 34 36  0  0  0  0  0  0  0  0999 V2000
    8.1472   -1.4506   20.5710 H   0  0  0  0  0  0  0  0  0  0  0  0
    7.4346   -0.7049   20.9183 C   0  0  0  0  0  0  0  0  0  0  0  0
    7.3376   -0.4404   22.2312 C   0  0  0  0  0  0  0  0  0  0  0  0
    6.6755    0.3702   22.5659 H   0  0  0  0  0  0  0  0  0  0  0  0
    8.0204   -1.0751   23.2436 N   0  0  0  0  0  0  0  0  0  0  0  0
    8.9864   -2.1245   22.9243 C   0  0  0  0  0  0  0  0  0  0  0  0
    9.8192   -1.7360   22.3159 H   0  0  0  0  0  0  0  0  0  0  0  0
    8.4811   -2.8727   22.2859 H   0  0  0  0  0  0  0  0  0  0  0  0
    9.5952   -2.8363   24.1303 C   0  0  0  0  0  0  0  0  0  0  0  0
   10.6990   -3.6783   23.9383 C   0  0  0  0  0  0  0  0  0  0  0  0
   11.2586   -3.6422   23.0067 H   0  0  0  0  0  0  0  0  0  0  0  0
   11.0859   -4.5826   24.9308 C   0  0  0  0  0  0  0  0  0  0  0  0
   11.8505   -5.3243   24.7136 H   0  0  0  0  0  0  0  0  0  0  0  0
   10.4518   -4.5553   26.1793 C   0  0  0  0  0  0  0  0  0  0  0  0
   10.7637   -5.2398   26.9660 H   0  0  0  0  0  0  0  0  0  0  0  0
    9.4393   -3.6205   26.4242 C   0  0  0  0  0  0  0  0  0  0  0  0
    9.0001   -3.5643   27.4197 H   0  0  0  0  0  0  0  0  0  0  0  0
    8.9977   -2.7608   25.4034 C   0  0  0  0  0  0  0  0  0  0  0  0
    7.8637   -1.7718   25.6083 C   0  0  0  0  0  0  0  0  0  0  0  0
    7.8778   -1.3899   26.6361 H   0  0  0  0  0  0  0  0  0  0  0  0
    6.9067   -2.2911   25.4621 H   0  0  0  0  0  0  0  0  0  0  0  0
    7.9467   -0.5967   24.6184 C   0  0  0  0  0  0  0  0  0  0  0  0
    7.0633    0.0453   24.7375 H   0  0  0  0  0  0  0  0  0  0  0  0
    8.8391    0.0065   24.8649 H   0  0  0  0  0  0  0  0  0  0  0  0
    6.6670   -0.0093   19.8637 C   0  0  0  0  0  0  0  0  0  0  0  0
    7.1504    0.0290   18.5378 C   0  0  0  0  0  0  0  0  0  0  0  0
    8.0804   -0.4865   18.3011 H   0  0  0  0  0  0  0  0  0  0  0  0
    6.5589    0.6644   17.5207 N   0  0  0  0  0  0  0  0  0  0  0  0
    5.4095    1.3082   17.7953 C   0  0  0  0  0  0  0  0  0  0  0  0
    4.9459    1.8330   16.9618 H   0  0  0  0  0  0  0  0  0  0  0  0
    4.8165    1.3196   19.0622 C   0  0  0  0  0  0  0  0  0  0  0  0
    3.8860    1.8566   19.2165 H   0  0  0  0  0  0  0  0  0  0  0  0
    5.4531    0.6571   20.1140 C   0  0  0  0  0  0  0  0  0  0  0  0
    5.0136    0.6443   21.1109 H   0  0  0  0  0  0  0  0  0  0  0  0
  1  2  1  0
  2  3  2  3
  3  4  1  0
  3  5  1  0
  5  6  1  0
  6  7  1  0
  6  8  1  0
  6  9  1  0
  9 10  2  0
 10 11  1  0
 10 12  1  0
 12 13  1  0
 12 14  2  0
 14 15  1  0
 14 16  1  0
 16 17  1  0
 16 18  2  0
 18 19  1  0
 19 20  1  0
 19 21  1  0
 19 22  1  0
 22 23  1  0
 22 24  1  0
  2 25  1  0
 25 26  2  0
 26 27  1  0
 26 28  1  0
 28 29  2  0
 29 30  1  0
 29 31  1  0
 31 32  1  0
 31 33  2  0
 33 34  1  0
 22  5  1  0
 33 25  1  0
 18  9  1  0
M  END
>  <cnnaffinity>  (1) 
-4.70893

>  <filename>  (1) 
C(=CN1CCc2ccccc2C1)c1cccnc1

$$$$
