
     RDKit          3D

 37 40  0  0  0  0  0  0  0  0999 V2000
    6.7642   -1.5299   21.4497 H   0  0  0  0  0  0  0  0  0  0  0  0
    7.3323   -0.7147   20.9904 C   0  0  0  0  0  0  0  0  0  0  0  0
    8.5619   -0.4062   21.4255 C   0  0  0  0  0  0  0  0  0  0  0  0
    9.3292   -1.0363   22.5245 C   0  0  0  0  0  0  0  0  0  0  0  0
    8.7528   -2.1036   23.3770 C   0  0  0  0  0  0  0  0  0  0  0  0
    9.5624   -3.2416   23.6761 C   0  0  0  0  0  0  0  0  0  0  0  0
   10.5640   -3.3005   23.2462 H   0  0  0  0  0  0  0  0  0  0  0  0
    9.1810   -4.2418   24.4324 N   0  0  0  0  0  0  0  0  0  0  0  0
    7.9296   -4.1792   25.0029 C   0  0  0  0  0  0  0  0  0  0  0  0
    7.4883   -5.2466   25.8486 C   0  0  0  0  0  0  0  0  0  0  0  0
    8.1765   -6.0695   26.0099 H   0  0  0  0  0  0  0  0  0  0  0  0
    6.2383   -5.2074   26.4285 C   0  0  0  0  0  0  0  0  0  0  0  0
    5.9005   -6.0182   27.0738 H   0  0  0  0  0  0  0  0  0  0  0  0
    5.3618   -4.1036   26.1975 C   0  0  0  0  0  0  0  0  0  0  0  0
    4.3783   -4.0901   26.6672 H   0  0  0  0  0  0  0  0  0  0  0  0
    5.7538   -3.0632   25.3927 C   0  0  0  0  0  0  0  0  0  0  0  0
    5.1008   -2.2106   25.2043 H   0  0  0  0  0  0  0  0  0  0  0  0
    7.0439   -3.0764   24.7818 C   0  0  0  0  0  0  0  0  0  0  0  0
    7.4971   -2.0247   23.9422 C   0  0  0  0  0  0  0  0  0  0  0  0
    6.8425   -1.1647   23.7718 H   0  0  0  0  0  0  0  0  0  0  0  0
   10.5011   -0.5501   22.6974 N   0  0  0  0  0  0  0  0  0  0  0  0
   10.7044    0.5655   21.7616 C   0  0  0  0  0  0  0  0  0  0  0  0
   10.9238    1.4784   22.3236 H   0  0  0  0  0  0  0  0  0  0  0  0
   11.5792    0.3358   21.1509 H   0  0  0  0  0  0  0  0  0  0  0  0
    9.4263    0.7206   20.8993 C   0  0  0  0  0  0  0  0  0  0  0  0
    9.6118    0.6047   19.8294 H   0  0  0  0  0  0  0  0  0  0  0  0
    8.9441    1.6965   21.0245 H   0  0  0  0  0  0  0  0  0  0  0  0
    6.6433   -0.0043   19.8952 C   0  0  0  0  0  0  0  0  0  0  0  0
    7.1620    0.0669   18.5875 C   0  0  0  0  0  0  0  0  0  0  0  0
    8.1079   -0.4280   18.3729 H   0  0  0  0  0  0  0  0  0  0  0  0
    6.5584    0.6858   17.5659 N   0  0  0  0  0  0  0  0  0  0  0  0
    5.3956    1.3010   17.8318 C   0  0  0  0  0  0  0  0  0  0  0  0
    4.9132    1.7892   16.9892 H   0  0  0  0  0  0  0  0  0  0  0  0
    4.7985    1.3146   19.0977 C   0  0  0  0  0  0  0  0  0  0  0  0
    3.8695    1.8484   19.2527 H   0  0  0  0  0  0  0  0  0  0  0  0
    5.4216    0.6377   20.1453 C   0  0  0  0  0  0  0  0  0  0  0  0
    5.0091    0.6225   21.1575 H   0  0  0  0  0  0  0  0  0  0  0  0
  1  2  1  0
  2  3  2  3
  3  4  1  0
  4  5  1  0
  5  6  2  0
  6  7  1  0
  6  8  1  0
  8  9  2  0
  9 10  1  0
 10 11  1  0
 10 12  2  0
 12 13  1  0
 12 14  1  0
 14 15  1  0
 14 16  2  0
 16 17  1  0
 16 18  1  0
 18 19  2  0
 19 20  1  0
  4 21  2  0
 21 22  1  0
 22 23  1  0
 22 24  1  0
 22 25  1  0
 25 26  1  0
 25 27  1  0
  2 28  1  0
 28 29  2  0
 29 30  1  0
 29 31  1  0
 31 32  2  0
 32 33  1  0
 32 34  1  0
 34 35  1  0
 34 36  2  0
 36 37  1  0
 25  3  1  0
 36 28  1  0
 19  5  1  0
 18  9  1  0
M  END
>  <cnnaffinity>  (1) 
-5.48915

>  <filename>  (1) 
C(=C1CCN=C1c1cnc2ccccc2c1)c1cccnc1

$$$$
