
     RDKit          3D

 33 35  0  0  0  0  0  0  0  0999 V2000
    6.6971   -1.4127   21.5864 H   0  0  0  0  0  0  0  0  0  0  0  0
    7.3213   -0.7240   21.0064 C   0  0  0  0  0  0  0  0  0  0  0  0
    8.5884   -0.5089   21.3764 C   0  0  0  0  0  0  0  0  0  0  0  0
    9.3304   -1.1191   22.4915 C   0  0  0  0  0  0  0  0  0  0  0  0
    8.7202   -2.1082   23.1624 O   0  0  0  0  0  0  0  0  0  0  0  0
    9.3688   -2.6593   24.3156 C   0  0  0  0  0  0  0  0  0  0  0  0
   10.3984   -2.9387   24.0776 H   0  0  0  0  0  0  0  0  0  0  0  0
    8.8137   -3.5744   24.5366 H   0  0  0  0  0  0  0  0  0  0  0  0
    9.2972   -1.7538   25.5185 C   0  0  0  0  0  0  0  0  0  0  0  0
    9.8358   -0.8205   25.3939 H   0  0  0  0  0  0  0  0  0  0  0  0
    9.2835   -2.3505   26.8990 C   0  0  0  0  0  0  0  0  0  0  0  0
    9.8112   -1.8152   27.6856 H   0  0  0  0  0  0  0  0  0  0  0  0
    9.3193   -3.4352   26.9958 H   0  0  0  0  0  0  0  0  0  0  0  0
    8.0427   -1.7224   26.3437 C   0  0  0  0  0  0  0  0  0  0  0  0
    7.7190   -0.7723   26.7608 H   0  0  0  0  0  0  0  0  0  0  0  0
    7.2280   -2.3792   26.0478 H   0  0  0  0  0  0  0  0  0  0  0  0
   10.4934   -0.6452   22.7249 N   0  0  0  0  0  0  0  0  0  0  0  0
   10.7395    0.4182   21.7505 C   0  0  0  0  0  0  0  0  0  0  0  0
   11.6555    0.1948   21.2018 H   0  0  0  0  0  0  0  0  0  0  0  0
   10.9046    1.3596   22.2814 H   0  0  0  0  0  0  0  0  0  0  0  0
    9.5155    0.5297   20.8090 C   0  0  0  0  0  0  0  0  0  0  0  0
    9.7214    0.2879   19.7671 H   0  0  0  0  0  0  0  0  0  0  0  0
    9.0781    1.5335   20.7982 H   0  0  0  0  0  0  0  0  0  0  0  0
    6.6496   -0.0082   19.9024 C   0  0  0  0  0  0  0  0  0  0  0  0
    7.1668    0.0669   18.5934 C   0  0  0  0  0  0  0  0  0  0  0  0
    8.1083   -0.4311   18.3704 H   0  0  0  0  0  0  0  0  0  0  0  0
    6.5624    0.6851   17.5710 N   0  0  0  0  0  0  0  0  0  0  0  0
    5.3984    1.2994   17.8342 C   0  0  0  0  0  0  0  0  0  0  0  0
    4.9142    1.7858   16.9916 H   0  0  0  0  0  0  0  0  0  0  0  0
    4.8003    1.3141   19.1000 C   0  0  0  0  0  0  0  0  0  0  0  0
    3.8695    1.8480   19.2547 H   0  0  0  0  0  0  0  0  0  0  0  0
    5.4251    0.6391   20.1468 C   0  0  0  0  0  0  0  0  0  0  0  0
    5.0044    0.6257   21.1550 H   0  0  0  0  0  0  0  0  0  0  0  0
  1  2  1  0
  2  3  2  3
  3  4  1  0
  4  5  1  0
  5  6  1  0
  6  7  1  0
  6  8  1  0
  6  9  1  0
  9 10  1  0
  9 11  1  0
 11 12  1  0
 11 13  1  0
 11 14  1  0
 14 15  1  0
 14 16  1  0
  4 17  2  0
 17 18  1  0
 18 19  1  0
 18 20  1  0
 18 21  1  0
 21 22  1  0
 21 23  1  0
  2 24  1  0
 24 25  2  0
 25 26  1  0
 25 27  1  0
 27 28  2  0
 28 29  1  0
 28 30  1  0
 30 31  1  0
 30 32  2  0
 32 33  1  0
 21  3  1  0
 32 24  1  0
 14  9  1  0
M  END
>  <cnnaffinity>  (1) 
-4.93112

>  <filename>  (1) 
C(=C1CCN=C1OCC1CC1)c1cccnc1

$$$$
