
     RDKit          3D

 39 42  0  0  0  0  0  0  0  0999 V2000
    7.2783    0.3781   24.8553 H   0  0  0  0  0  0  0  0  0  0  0  0
    6.9709    1.2119   24.2246 C   0  0  0  0  0  0  0  0  0  0  0  0
    6.9886    1.0565   22.8886 C   0  0  0  0  0  0  0  0  0  0  0  0
    6.6242    1.8481   22.2291 H   0  0  0  0  0  0  0  0  0  0  0  0
    7.5265   -0.1292   22.2795 C   0  0  0  0  0  0  0  0  0  0  0  0
    7.3822   -0.6081   20.9326 C   0  0  0  0  0  0  0  0  0  0  0  0
    6.6145    0.0246   19.8589 C   0  0  0  0  0  0  0  0  0  0  0  0
    7.1230    0.0207   18.5482 C   0  0  0  0  0  0  0  0  0  0  0  0
    8.0401   -0.5202   18.3227 H   0  0  0  0  0  0  0  0  0  0  0  0
    6.5503    0.6541   17.5221 N   0  0  0  0  0  0  0  0  0  0  0  0
    5.4043    1.3104   17.7635 C   0  0  0  0  0  0  0  0  0  0  0  0
    4.9767    1.8514   16.9219 H   0  0  0  0  0  0  0  0  0  0  0  0
    4.7740    1.3170   19.0107 C   0  0  0  0  0  0  0  0  0  0  0  0
    3.8399    1.8515   19.1340 H   0  0  0  0  0  0  0  0  0  0  0  0
    5.3796    0.6605   20.0796 C   0  0  0  0  0  0  0  0  0  0  0  0
    4.8907    0.6300   21.0562 H   0  0  0  0  0  0  0  0  0  0  0  0
    8.0673   -1.7275   20.7382 N   0  0  0  0  0  0  0  0  0  0  0  0
    8.6046   -1.9762   21.9324 N   0  0  0  0  0  0  0  0  0  0  0  0
    8.3573   -1.0785   22.8794 C   0  0  0  0  0  0  0  0  0  0  0  0
    9.1727   -1.3920   24.1142 C   0  0  0  0  0  0  0  0  0  0  0  0
    9.8064   -0.5493   24.4091 H   0  0  0  0  0  0  0  0  0  0  0  0
    8.5366   -1.6491   24.9697 H   0  0  0  0  0  0  0  0  0  0  0  0
   10.0462   -2.6000   23.6689 C   0  0  0  0  0  0  0  0  0  0  0  0
   11.0843   -2.2979   23.5607 H   0  0  0  0  0  0  0  0  0  0  0  0
   10.0067   -3.4190   24.3888 H   0  0  0  0  0  0  0  0  0  0  0  0
    9.5415   -3.0118   22.2619 C   0  0  0  0  0  0  0  0  0  0  0  0
   10.3409   -2.9520   21.5265 H   0  0  0  0  0  0  0  0  0  0  0  0
    9.0503   -3.9883   22.2239 H   0  0  0  0  0  0  0  0  0  0  0  0
    6.5823    2.4463   24.9079 C   0  0  0  0  0  0  0  0  0  0  0  0
    5.9192    3.4814   24.2219 C   0  0  0  0  0  0  0  0  0  0  0  0
    5.6597    3.3538   23.1737 H   0  0  0  0  0  0  0  0  0  0  0  0
    5.5880    4.6678   24.8754 C   0  0  0  0  0  0  0  0  0  0  0  0
    5.0793    5.4544   24.3228 H   0  0  0  0  0  0  0  0  0  0  0  0
    5.9228    4.8392   26.2229 C   0  0  0  0  0  0  0  0  0  0  0  0
    5.6671    5.7658   26.7280 H   0  0  0  0  0  0  0  0  0  0  0  0
    6.5811    3.8169   26.9187 C   0  0  0  0  0  0  0  0  0  0  0  0
    6.8503    3.9520   27.9638 H   0  0  0  0  0  0  0  0  0  0  0  0
    6.9014    2.6252   26.2670 C   0  0  0  0  0  0  0  0  0  0  0  0
    7.4188    1.8317   26.8031 H   0  0  0  0  0  0  0  0  0  0  0  0
  1  2  1  0
  2  3  2  3
  3  4  1  0
  3  5  1  0
  5  6  1  0
  6  7  1  0
  7  8  2  0
  8  9  1  0
  8 10  1  0
 10 11  2  0
 11 12  1  0
 11 13  1  0
 13 14  1  0
 13 15  2  0
 15 16  1  0
  6 17  2  0
 17 18  1  0
 18 19  1  0
 19 20  1  0
 20 21  1  0
 20 22  1  0
 20 23  1  0
 23 24  1  0
 23 25  1  0
 23 26  1  0
 26 27  1  0
 26 28  1  0
  2 29  1  0
 29 30  2  0
 30 31  1  0
 30 32  1  0
 32 33  1  0
 32 34  2  0
 34 35  1  0
 34 36  1  0
 36 37  1  0
 36 38  2  0
 38 39  1  0
 19  5  2  0
 38 29  1  0
 15  7  1  0
 26 18  1  0
M  END
>  <cnnaffinity>  (1) 
-5.55574

>  <filename>  (1) 
C(=Cc1c(-c2cccnc2)nn2c1CCC2)c1ccccc1

$$$$
