
     RDKit          3D

 30 32  0  0  0  0  0  0  0  0999 V2000
    6.9650   -0.3214   22.0424 H   0  0  0  0  0  0  0  0  0  0  0  0
    7.3106   -0.5905   21.0421 C   0  0  0  0  0  0  0  0  0  0  0  0
    8.2829   -1.5111   20.9271 C   0  0  0  0  0  0  0  0  0  0  0  0
    8.7681   -1.6471   19.9593 H   0  0  0  0  0  0  0  0  0  0  0  0
    8.8793   -2.3047   22.0284 C   0  0  0  0  0  0  0  0  0  0  0  0
   10.2556   -2.4214   22.0478 C   0  0  0  0  0  0  0  0  0  0  0  0
   10.8347   -2.0477   21.2050 H   0  0  0  0  0  0  0  0  0  0  0  0
   10.9878   -2.9513   23.0570 N   0  0  0  0  0  0  0  0  0  0  0  0
   10.3352   -3.4251   24.0991 C   0  0  0  0  0  0  0  0  0  0  0  0
   10.9422   -3.8145   24.9168 H   0  0  0  0  0  0  0  0  0  0  0  0
    8.9145   -3.4466   24.2108 C   0  0  0  0  0  0  0  0  0  0  0  0
    8.2365   -3.9690   25.3602 C   0  0  0  0  0  0  0  0  0  0  0  0
    8.8096   -4.3480   26.2026 H   0  0  0  0  0  0  0  0  0  0  0  0
    6.8643   -3.9766   25.4172 C   0  0  0  0  0  0  0  0  0  0  0  0
    6.3484   -4.3598   26.2956 H   0  0  0  0  0  0  0  0  0  0  0  0
    6.1048   -3.4792   24.3264 C   0  0  0  0  0  0  0  0  0  0  0  0
    5.0218   -3.4801   24.3901 H   0  0  0  0  0  0  0  0  0  0  0  0
    6.7301   -2.9749   23.2065 C   0  0  0  0  0  0  0  0  0  0  0  0
    6.1452   -2.6166   22.3677 H   0  0  0  0  0  0  0  0  0  0  0  0
    8.1564   -2.8996   23.1245 C   0  0  0  0  0  0  0  0  0  0  0  0
    6.6256    0.0834   19.9206 C   0  0  0  0  0  0  0  0  0  0  0  0
    7.1348    0.0776   18.6066 C   0  0  0  0  0  0  0  0  0  0  0  0
    8.0799   -0.4194   18.3835 H   0  0  0  0  0  0  0  0  0  0  0  0
    6.5437    0.6723   17.5666 N   0  0  0  0  0  0  0  0  0  0  0  0
    5.3859    1.3110   17.8039 C   0  0  0  0  0  0  0  0  0  0  0  0
    4.9413    1.8118   16.9508 H   0  0  0  0  0  0  0  0  0  0  0  0
    4.7624    1.3550   19.0557 C   0  0  0  0  0  0  0  0  0  0  0  0
    3.8195    1.8830   19.1723 H   0  0  0  0  0  0  0  0  0  0  0  0
    5.3957    0.7365   20.1326 C   0  0  0  0  0  0  0  0  0  0  0  0
    4.9502    0.7490   21.1294 H   0  0  0  0  0  0  0  0  0  0  0  0
  1  2  1  0
  2  3  2  3
  3  4  1  0
  3  5  1  0
  5  6  2  0
  6  7  1  0
  6  8  1  0
  8  9  2  0
  9 10  1  0
  9 11  1  0
 11 12  2  0
 12 13  1  0
 12 14  1  0
 14 15  1  0
 14 16  2  0
 16 17  1  0
 16 18  1  0
 18 19  1  0
 18 20  2  0
  2 21  1  0
 21 22  2  0
 22 23  1  0
 22 24  1  0
 24 25  2  0
 25 26  1  0
 25 27  1  0
 27 28  1  0
 27 29  2  0
 29 30  1  0
 20  5  1  0
 29 21  1  0
 20 11  1  0
M  END
>  <cnnaffinity>  (1) 
-5.16605

>  <filename>  (1) 
C(=Cc1cncc2ccccc12)c1cccnc1

$$$$
