
     RDKit          3D

 37 40  0  0  0  0  0  0  0  0999 V2000
   10.1746    1.5388   21.6329 C   0  0  0  0  0  0  0  0  0  0  0  0
    9.4689    0.6772   20.8825 C   0  0  0  0  0  0  0  0  0  0  0  0
    8.6194   -0.4183   21.4078 C   0  0  0  0  0  0  0  0  0  0  0  0
    8.8107   -1.2934   22.4660 C   0  0  0  0  0  0  0  0  0  0  0  0
    7.6075   -2.0114   22.5674 C   0  0  0  0  0  0  0  0  0  0  0  0
    6.7329   -1.6418   21.6446 N   0  0  0  0  0  0  0  0  0  0  0  0
    7.3541   -0.6871   20.9313 N   0  0  0  0  0  0  0  0  0  0  0  0
    6.6456   -0.0153   19.8997 C   0  0  0  0  0  0  0  0  0  0  0  0
    5.4268    0.6269   20.1522 C   0  0  0  0  0  0  0  0  0  0  0  0
    4.8061    1.3059   19.1010 C   0  0  0  0  0  0  0  0  0  0  0  0
    5.4112    1.2937   17.8379 C   0  0  0  0  0  0  0  0  0  0  0  0
    6.5588    0.6488   17.5818 N   0  0  0  0  0  0  0  0  0  0  0  0
    7.1585    0.0156   18.5948 C   0  0  0  0  0  0  0  0  0  0  0  0
    8.0920   -0.4917   18.3565 H   0  0  0  0  0  0  0  0  0  0  0  0
    4.9527    1.8119   16.9987 H   0  0  0  0  0  0  0  0  0  0  0  0
    3.8747    1.8459   19.2478 H   0  0  0  0  0  0  0  0  0  0  0  0
    4.9775    0.5812   21.1456 H   0  0  0  0  0  0  0  0  0  0  0  0
    7.3181   -2.7773   23.2758 H   0  0  0  0  0  0  0  0  0  0  0  0
    9.6908   -1.3530   23.0897 H   0  0  0  0  0  0  0  0  0  0  0  0
    9.5114    0.7351   19.7962 H   0  0  0  0  0  0  0  0  0  0  0  0
   10.0452    1.6562   23.1019 C   0  0  0  0  0  0  0  0  0  0  0  0
   11.1654    1.3845   23.7596 N   0  0  0  0  0  0  0  0  0  0  0  0
   11.0792    1.1454   25.0848 C   0  0  0  0  0  0  0  0  0  0  0  0
    9.9073    1.2441   25.7964 C   0  0  0  0  0  0  0  0  0  0  0  0
    8.7338    1.7193   25.1508 C   0  0  0  0  0  0  0  0  0  0  0  0
    7.5359    1.9771   25.8697 C   0  0  0  0  0  0  0  0  0  0  0  0
    6.3859    2.3200   25.2007 C   0  0  0  0  0  0  0  0  0  0  0  0
    6.3805    2.4304   23.7867 C   0  0  0  0  0  0  0  0  0  0  0  0
    7.5359    2.2275   23.0686 C   0  0  0  0  0  0  0  0  0  0  0  0
    8.7637    1.8950   23.7401 C   0  0  0  0  0  0  0  0  0  0  0  0
    7.5402    2.3074   21.9842 H   0  0  0  0  0  0  0  0  0  0  0  0
    5.4515    2.6778   23.2773 H   0  0  0  0  0  0  0  0  0  0  0  0
    5.4732    2.4894   25.7550 H   0  0  0  0  0  0  0  0  0  0  0  0
    7.5678    1.8930   26.9522 H   0  0  0  0  0  0  0  0  0  0  0  0
    9.8536    0.8907   26.8167 H   0  0  0  0  0  0  0  0  0  0  0  0
   12.0095    0.8244   25.5434 H   0  0  0  0  0  0  0  0  0  0  0  0
   11.0114    2.0906   21.2120 H   0  0  0  0  0  0  0  0  0  0  0  0
  1  2  2  3
  2  3  1  0
  3  4  2  0
  4  5  1  0
  5  6  2  0
  6  7  1  0
  7  8  1  0
  8  9  2  0
  9 10  1  0
 10 11  2  0
 11 12  1  0
 12 13  2  0
 13 14  1  0
 11 15  1  0
 10 16  1  0
  9 17  1  0
  5 18  1  0
  4 19  1  0
  2 20  1  0
  1 21  1  0
 21 22  2  0
 22 23  1  0
 23 24  2  0
 24 25  1  0
 25 26  2  0
 26 27  1  0
 27 28  2  0
 28 29  1  0
 29 30  2  0
 29 31  1  0
 28 32  1  0
 27 33  1  0
 26 34  1  0
 24 35  1  0
 23 36  1  0
  1 37  1  0
  7  3  1  0
 13  8  1  0
 30 21  1  0
 30 25  1  0
M  END
>  <cnnaffinity>  (1) 
-5.61738

>  <filename>  (1) 
C(=Cc1ccnn1-c1cccnc1)c1nccc2ccccc12

$$$$
