
     RDKit          3D

 37 40  0  0  0  0  0  0  0  0999 V2000
    6.5739   -1.3137   21.7029 H   0  0  0  0  0  0  0  0  0  0  0  0
    7.2045   -0.6618   21.0880 C   0  0  0  0  0  0  0  0  0  0  0  0
    8.4720   -0.4297   21.4774 C   0  0  0  0  0  0  0  0  0  0  0  0
    9.1765   -0.9912   22.6629 C   0  0  0  0  0  0  0  0  0  0  0  0
    8.6576   -2.0778   23.5209 C   0  0  0  0  0  0  0  0  0  0  0  0
    8.6896   -1.9192   24.8843 C   0  0  0  0  0  0  0  0  0  0  0  0
    9.1512   -1.0405   25.3264 H   0  0  0  0  0  0  0  0  0  0  0  0
    8.1512   -2.8061   25.7597 N   0  0  0  0  0  0  0  0  0  0  0  0
    7.6190   -3.9110   25.2733 C   0  0  0  0  0  0  0  0  0  0  0  0
    7.1928   -4.6256   25.9811 H   0  0  0  0  0  0  0  0  0  0  0  0
    7.6343   -4.2611   23.8906 C   0  0  0  0  0  0  0  0  0  0  0  0
    7.1592   -5.5202   23.4025 C   0  0  0  0  0  0  0  0  0  0  0  0
    6.5852   -6.1594   24.0678 H   0  0  0  0  0  0  0  0  0  0  0  0
    7.4273   -5.9075   22.1128 C   0  0  0  0  0  0  0  0  0  0  0  0
    7.1632   -6.9030   21.7554 H   0  0  0  0  0  0  0  0  0  0  0  0
    8.0774   -5.0064   21.2312 C   0  0  0  0  0  0  0  0  0  0  0  0
    8.3400   -5.3345   20.2384 H   0  0  0  0  0  0  0  0  0  0  0  0
    8.4281   -3.7380   21.6364 C   0  0  0  0  0  0  0  0  0  0  0  0
    8.9062   -3.0404   20.9560 H   0  0  0  0  0  0  0  0  0  0  0  0
    8.2260   -3.3335   22.9872 C   0  0  0  0  0  0  0  0  0  0  0  0
   10.3061   -0.4507   22.9098 N   0  0  0  0  0  0  0  0  0  0  0  0
   10.6506    0.4862   21.8355 C   0  0  0  0  0  0  0  0  0  0  0  0
   11.5456    0.1125   21.3229 H   0  0  0  0  0  0  0  0  0  0  0  0
   10.9029    1.4460   22.2985 H   0  0  0  0  0  0  0  0  0  0  0  0
    9.4335    0.5718   20.8700 C   0  0  0  0  0  0  0  0  0  0  0  0
    9.6794    0.2813   19.8452 H   0  0  0  0  0  0  0  0  0  0  0  0
    9.0048    1.5787   20.8342 H   0  0  0  0  0  0  0  0  0  0  0  0
    6.5329   -0.0482   19.9250 C   0  0  0  0  0  0  0  0  0  0  0  0
    7.1068   -0.0136   18.6375 C   0  0  0  0  0  0  0  0  0  0  0  0
    8.0172   -0.5831   18.4480 H   0  0  0  0  0  0  0  0  0  0  0  0
    6.5878    0.6526   17.5978 N   0  0  0  0  0  0  0  0  0  0  0  0
    5.4342    1.3069   17.8030 C   0  0  0  0  0  0  0  0  0  0  0  0
    5.0399    1.8599   16.9540 H   0  0  0  0  0  0  0  0  0  0  0  0
    4.7371    1.2830   19.0169 C   0  0  0  0  0  0  0  0  0  0  0  0
    3.7999    1.8209   19.1120 H   0  0  0  0  0  0  0  0  0  0  0  0
    5.2815    0.5708   20.0834 C   0  0  0  0  0  0  0  0  0  0  0  0
    4.7753    0.5092   21.0463 H   0  0  0  0  0  0  0  0  0  0  0  0
  1  2  1  0
  2  3  2  3
  3  4  1  0
  4  5  1  0
  5  6  2  0
  6  7  1  0
  6  8  1  0
  8  9  2  0
  9 10  1  0
  9 11  1  0
 11 12  2  0
 12 13  1  0
 12 14  1  0
 14 15  1  0
 14 16  2  0
 16 17  1  0
 16 18  1  0
 18 19  1  0
 18 20  2  0
  4 21  2  0
 21 22  1  0
 22 23  1  0
 22 24  1  0
 22 25  1  0
 25 26  1  0
 25 27  1  0
  2 28  1  0
 28 29  2  0
 29 30  1  0
 29 31  1  0
 31 32  2  0
 32 33  1  0
 32 34  1  0
 34 35  1  0
 34 36  2  0
 36 37  1  0
 25  3  1  0
 36 28  1  0
 20  5  1  0
 20 11  1  0
M  END
>  <cnnaffinity>  (1) 
-5.71153

>  <filename>  (1) 
C(=C1CCN=C1c1cncc2ccccc12)c1cccnc1

$$$$
