
     RDKit          3D

 44 46  0  0  0  0  0  0  0  0999 V2000
    7.6452   -1.7488   20.6880 H   0  0  0  0  0  0  0  0  0  0  0  0
    7.3625   -0.7131   20.9252 C   0  0  0  0  0  0  0  0  0  0  0  0
    7.7256   -0.2119   22.1145 C   0  0  0  0  0  0  0  0  0  0  0  0
    7.6592    1.1734   22.6127 C   0  0  0  0  0  0  0  0  0  0  0  0
    7.2439    2.1580   21.7990 O   0  0  0  0  0  0  0  0  0  0  0  0
    7.0328    3.4865   22.3248 C   0  0  0  0  0  0  0  0  0  0  0  0
    6.9719    4.1048   21.4270 H   0  0  0  0  0  0  0  0  0  0  0  0
    7.8967    3.8015   22.9263 H   0  0  0  0  0  0  0  0  0  0  0  0
    5.7183    3.5977   23.1219 C   0  0  0  0  0  0  0  0  0  0  0  0
    5.7713    2.9085   23.9857 H   0  0  0  0  0  0  0  0  0  0  0  0
    4.9164    3.2283   22.4689 H   0  0  0  0  0  0  0  0  0  0  0  0
    5.4005    4.9764   23.5210 N   0  0  0  0  0  0  0  0  0  0  0  0
    3.9581    5.1903   23.6967 C   0  0  0  0  0  0  0  0  0  0  0  0
    3.4543    4.8777   22.7720 H   0  0  0  0  0  0  0  0  0  0  0  0
    3.5539    4.5596   24.5167 H   0  0  0  0  0  0  0  0  0  0  0  0
    3.6238    6.6582   23.9885 C   0  0  0  0  0  0  0  0  0  0  0  0
    2.5397    6.7539   24.1369 H   0  0  0  0  0  0  0  0  0  0  0  0
    3.8790    7.2583   23.1040 H   0  0  0  0  0  0  0  0  0  0  0  0
    4.3958    7.1717   25.2155 C   0  0  0  0  0  0  0  0  0  0  0  0
    4.0309    6.6623   26.1225 H   0  0  0  0  0  0  0  0  0  0  0  0
    4.2134    8.2422   25.3757 H   0  0  0  0  0  0  0  0  0  0  0  0
    5.8971    6.8896   25.0342 C   0  0  0  0  0  0  0  0  0  0  0  0
    6.4592    7.1524   25.9404 H   0  0  0  0  0  0  0  0  0  0  0  0
    6.2994    7.5056   24.2174 H   0  0  0  0  0  0  0  0  0  0  0  0
    6.1476    5.4116   24.7066 C   0  0  0  0  0  0  0  0  0  0  0  0
    7.2176    5.2483   24.5213 H   0  0  0  0  0  0  0  0  0  0  0  0
    5.8742    4.7964   25.5916 H   0  0  0  0  0  0  0  0  0  0  0  0
    8.0429    1.3450   23.8238 N   0  0  0  0  0  0  0  0  0  0  0  0
    8.4661    0.0588   24.3653 C   0  0  0  0  0  0  0  0  0  0  0  0
    7.8218   -0.1863   25.2193 H   0  0  0  0  0  0  0  0  0  0  0  0
    9.4953    0.1496   24.7313 H   0  0  0  0  0  0  0  0  0  0  0  0
    8.3476   -1.0004   23.2431 C   0  0  0  0  0  0  0  0  0  0  0  0
    9.3248   -1.4003   22.9475 H   0  0  0  0  0  0  0  0  0  0  0  0
    7.7240   -1.8529   23.5361 H   0  0  0  0  0  0  0  0  0  0  0  0
    6.6207   -0.0018   19.8681 C   0  0  0  0  0  0  0  0  0  0  0  0
    7.1403    0.0545   18.5598 C   0  0  0  0  0  0  0  0  0  0  0  0
    8.0964   -0.4200   18.3380 H   0  0  0  0  0  0  0  0  0  0  0  0
    6.5454    0.6878   17.5464 N   0  0  0  0  0  0  0  0  0  0  0  0
    5.3845    1.3109   17.8047 C   0  0  0  0  0  0  0  0  0  0  0  0
    4.9237    1.8246   16.9619 H   0  0  0  0  0  0  0  0  0  0  0  0
    4.7754    1.3138   19.0638 C   0  0  0  0  0  0  0  0  0  0  0  0
    3.8523    1.8575   19.2202 H   0  0  0  0  0  0  0  0  0  0  0  0
    5.4078    0.6446   20.1120 C   0  0  0  0  0  0  0  0  0  0  0  0
    4.9993    0.6362   21.1217 H   0  0  0  0  0  0  0  0  0  0  0  0
  1  2  1  0
  2  3  2  3
  3  4  1  0
  4  5  1  0
  5  6  1  0
  6  7  1  0
  6  8  1  0
  6  9  1  0
  9 10  1  0
  9 11  1  0
  9 12  1  0
 12 13  1  0
 13 14  1  0
 13 15  1  0
 13 16  1  0
 16 17  1  0
 16 18  1  0
 16 19  1  0
 19 20  1  0
 19 21  1  0
 19 22  1  0
 22 23  1  0
 22 24  1  0
 22 25  1  0
 25 26  1  0
 25 27  1  0
  4 28  2  0
 28 29  1  0
 29 30  1  0
 29 31  1  0
 29 32  1  0
 32 33  1  0
 32 34  1  0
  2 35  1  0
 35 36  2  0
 36 37  1  0
 36 38  1  0
 38 39  2  0
 39 40  1  0
 39 41  1  0
 41 42  1  0
 41 43  2  0
 43 44  1  0
 32  3  1  0
 43 35  1  0
 25 12  1  0
M  END
>  <cnnaffinity>  (1) 
-4.43856

>  <filename>  (1) 
C(=C1CCN=C1OCCN1CCCCC1)c1cccnc1

$$$$
