
     RDKit          3D

 36 39  0  0  0  0  0  0  0  0999 V2000
    4.2791   -4.2177   22.9146 H   0  0  0  0  0  0  0  0  0  0  0  0
    5.1789   -4.1884   23.5245 C   0  0  0  0  0  0  0  0  0  0  0  0
    5.1577   -4.8887   24.6708 C   0  0  0  0  0  0  0  0  0  0  0  0
    4.3677   -5.6344   24.7845 H   0  0  0  0  0  0  0  0  0  0  0  0
    6.1376   -4.8061   25.7719 C   0  0  0  0  0  0  0  0  0  0  0  0
    6.7474   -5.9827   26.2380 C   0  0  0  0  0  0  0  0  0  0  0  0
    6.3693   -6.9461   25.9037 H   0  0  0  0  0  0  0  0  0  0  0  0
    7.8582   -5.9037   27.0760 C   0  0  0  0  0  0  0  0  0  0  0  0
    8.3615   -6.8082   27.3950 H   0  0  0  0  0  0  0  0  0  0  0  0
    8.3405   -4.6568   27.4975 C   0  0  0  0  0  0  0  0  0  0  0  0
    9.2454   -4.5947   28.0977 H   0  0  0  0  0  0  0  0  0  0  0  0
    7.6549   -3.4922   27.1411 C   0  0  0  0  0  0  0  0  0  0  0  0
    7.9896   -2.5247   27.5043 H   0  0  0  0  0  0  0  0  0  0  0  0
    6.5413   -3.5676   26.3034 C   0  0  0  0  0  0  0  0  0  0  0  0
    6.0044   -2.6654   26.0131 H   0  0  0  0  0  0  0  0  0  0  0  0
    6.1915   -3.3256   22.8755 C   0  0  0  0  0  0  0  0  0  0  0  0
    7.5103   -3.2853   23.1055 N   0  0  0  0  0  0  0  0  0  0  0  0
    7.9292   -2.3370   22.2312 N   0  0  0  0  0  0  0  0  0  0  0  0
    9.1386   -1.7063   21.9722 C   0  0  0  0  0  0  0  0  0  0  0  0
   10.0264   -1.9655   22.5237 H   0  0  0  0  0  0  0  0  0  0  0  0
    8.8863   -0.7894   21.0012 C   0  0  0  0  0  0  0  0  0  0  0  0
    9.5298   -0.0502   20.5479 H   0  0  0  0  0  0  0  0  0  0  0  0
    7.5290   -0.8258   20.6702 N   0  0  0  0  0  0  0  0  0  0  0  0
    6.8504   -0.0080   19.7259 C   0  0  0  0  0  0  0  0  0  0  0  0
    7.3123    0.1105   18.3998 C   0  0  0  0  0  0  0  0  0  0  0  0
    8.2502   -0.3563   18.0929 H   0  0  0  0  0  0  0  0  0  0  0  0
    6.6398    0.7589   17.4411 N   0  0  0  0  0  0  0  0  0  0  0  0
    5.4783    1.3458   17.7737 C   0  0  0  0  0  0  0  0  0  0  0  0
    4.9552    1.8543   16.9695 H   0  0  0  0  0  0  0  0  0  0  0  0
    4.9536    1.3273   19.0709 C   0  0  0  0  0  0  0  0  0  0  0  0
    4.0212    1.8431   19.2817 H   0  0  0  0  0  0  0  0  0  0  0  0
    5.6560    0.6513   20.0713 C   0  0  0  0  0  0  0  0  0  0  0  0
    5.3048    0.6484   21.1041 H   0  0  0  0  0  0  0  0  0  0  0  0
    6.9477   -1.8033   21.4674 C   0  0  0  0  0  0  0  0  0  0  0  0
    5.7846   -2.4480   21.8470 C   0  0  0  0  0  0  0  0  0  0  0  0
    4.7629   -2.3001   21.5852 H   0  0  0  0  0  0  0  0  0  0  0  0
  1  2  1  0
  2  3  2  3
  3  4  1  0
  3  5  1  0
  5  6  2  0
  6  7  1  0
  6  8  1  0
  8  9  1  0
  8 10  2  0
 10 11  1  0
 10 12  1  0
 12 13  1  0
 12 14  2  0
 14 15  1  0
  2 16  1  0
 16 17  2  0
 17 18  1  0
 18 19  1  0
 19 20  1  0
 19 21  2  0
 21 22  1  0
 21 23  1  0
 23 24  1  0
 24 25  2  0
 25 26  1  0
 25 27  1  0
 27 28  2  0
 28 29  1  0
 28 30  1  0
 30 31  1  0
 30 32  2  0
 32 33  1  0
 23 34  1  0
 34 35  2  0
 35 36  1  0
 14  5  1  0
 35 16  1  0
 34 18  1  0
 32 24  1  0
M  END
>  <cnnaffinity>  (1) 
-5.18402

>  <filename>  (1) 
C(=Cc1cc2n(-c3cccnc3)ccn2n1)c1ccccc1

$$$$
