
     RDKit          3D

 36 39  0  0  0  0  0  0  0  0999 V2000
    6.3712   -0.9282   24.9528 H   0  0  0  0  0  0  0  0  0  0  0  0
    7.1247   -0.6795   25.7015 C   0  0  0  0  0  0  0  0  0  0  0  0
    8.4094   -0.9027   25.4049 C   0  0  0  0  0  0  0  0  0  0  0  0
    9.2205   -0.7107   26.1106 H   0  0  0  0  0  0  0  0  0  0  0  0
    8.8090   -1.3444   24.1366 N   0  0  0  0  0  0  0  0  0  0  0  0
   10.0224   -1.9651   23.8331 C   0  0  0  0  0  0  0  0  0  0  0  0
   10.7123   -2.2189   24.6220 H   0  0  0  0  0  0  0  0  0  0  0  0
   10.0974   -2.1631   22.4949 C   0  0  0  0  0  0  0  0  0  0  0  0
   10.8412   -2.5846   21.8427 H   0  0  0  0  0  0  0  0  0  0  0  0
    8.9260   -1.6393   21.9630 N   0  0  0  0  0  0  0  0  0  0  0  0
    8.4966   -1.3703   20.7114 N   0  0  0  0  0  0  0  0  0  0  0  0
    7.3641   -0.6820   20.9271 C   0  0  0  0  0  0  0  0  0  0  0  0
    6.6015   -0.0667   19.8237 C   0  0  0  0  0  0  0  0  0  0  0  0
    7.1379   -0.0076   18.5238 C   0  0  0  0  0  0  0  0  0  0  0  0
    8.0925   -0.4820   18.2990 H   0  0  0  0  0  0  0  0  0  0  0  0
    6.5639    0.6571   17.5159 N   0  0  0  0  0  0  0  0  0  0  0  0
    5.4148    1.3009   17.7686 C   0  0  0  0  0  0  0  0  0  0  0  0
    4.9791    1.8437   16.9354 H   0  0  0  0  0  0  0  0  0  0  0  0
    4.7871    1.3006   19.0157 C   0  0  0  0  0  0  0  0  0  0  0  0
    3.8711    1.8613   19.1652 H   0  0  0  0  0  0  0  0  0  0  0  0
    5.3868    0.6086   20.0607 C   0  0  0  0  0  0  0  0  0  0  0  0
    4.9381    0.6444   21.0547 H   0  0  0  0  0  0  0  0  0  0  0  0
    7.0611   -0.5317   22.3036 C   0  0  0  0  0  0  0  0  0  0  0  0
    6.2284    0.0050   22.7219 H   0  0  0  0  0  0  0  0  0  0  0  0
    8.1325   -1.1493   22.9365 C   0  0  0  0  0  0  0  0  0  0  0  0
    6.6192   -0.0646   26.9341 C   0  0  0  0  0  0  0  0  0  0  0  0
    7.4453    0.1181   28.0574 C   0  0  0  0  0  0  0  0  0  0  0  0
    8.4805   -0.2122   28.0248 H   0  0  0  0  0  0  0  0  0  0  0  0
    6.9440    0.7092   29.2171 C   0  0  0  0  0  0  0  0  0  0  0  0
    7.5908    0.8146   30.0852 H   0  0  0  0  0  0  0  0  0  0  0  0
    5.6176    1.1499   29.2588 C   0  0  0  0  0  0  0  0  0  0  0  0
    5.2293    1.6040   30.1650 H   0  0  0  0  0  0  0  0  0  0  0  0
    4.7909    1.0043   28.1371 C   0  0  0  0  0  0  0  0  0  0  0  0
    3.7637    1.3607   28.1682 H   0  0  0  0  0  0  0  0  0  0  0  0
    5.2862    0.3922   26.9830 C   0  0  0  0  0  0  0  0  0  0  0  0
    4.6458    0.2841   26.1084 H   0  0  0  0  0  0  0  0  0  0  0  0
  1  2  1  0
  2  3  2  3
  3  4  1  0
  3  5  1  0
  5  6  1  0
  6  7  1  0
  6  8  2  0
  8  9  1  0
  8 10  1  0
 10 11  1  0
 11 12  2  0
 12 13  1  0
 13 14  2  0
 14 15  1  0
 14 16  1  0
 16 17  2  0
 17 18  1  0
 17 19  1  0
 19 20  1  0
 19 21  2  0
 21 22  1  0
 12 23  1  0
 23 24  1  0
 23 25  2  0
  2 26  1  0
 26 27  2  0
 27 28  1  0
 27 29  1  0
 29 30  1  0
 29 31  2  0
 31 32  1  0
 31 33  1  0
 33 34  1  0
 33 35  2  0
 35 36  1  0
 25  5  1  0
 35 26  1  0
 25 10  1  0
 21 13  1  0
M  END
>  <cnnaffinity>  (1) 
-5.39361

>  <filename>  (1) 
C(=Cn1ccn2nc(-c3cccnc3)cc12)c1ccccc1

$$$$
