
     RDKit          3D

 36 38  0  0  0  0  0  0  0  0999 V2000
    9.8130    2.9544   24.7048 H   0  0  0  0  0  0  0  0  0  0  0  0
    9.5707    2.0102   24.2011 C   0  0  0  0  0  0  0  0  0  0  0  0
    9.9780    1.8743   22.9306 C   0  0  0  0  0  0  0  0  0  0  0  0
    9.3806    1.0577   21.8448 C   0  0  0  0  0  0  0  0  0  0  0  0
    8.1988    0.3960   22.0321 N   0  0  0  0  0  0  0  0  0  0  0  0
    7.5961    0.8825   22.6703 H   0  0  0  0  0  0  0  0  0  0  0  0
    7.5979   -0.4823   21.0523 C   0  0  0  0  0  0  0  0  0  0  0  0
    6.9682   -1.2138   21.5806 H   0  0  0  0  0  0  0  0  0  0  0  0
    8.4128   -1.0496   20.5863 H   0  0  0  0  0  0  0  0  0  0  0  0
    6.7728    0.1863   19.9714 C   0  0  0  0  0  0  0  0  0  0  0  0
    7.2831    0.2134   18.6675 C   0  0  0  0  0  0  0  0  0  0  0  0
    8.2378   -0.2776   18.4691 H   0  0  0  0  0  0  0  0  0  0  0  0
    6.6652    0.7493   17.6072 N   0  0  0  0  0  0  0  0  0  0  0  0
    5.4653    1.3040   17.8278 C   0  0  0  0  0  0  0  0  0  0  0  0
    4.9806    1.7446   16.9585 H   0  0  0  0  0  0  0  0  0  0  0  0
    4.8348    1.3098   19.0757 C   0  0  0  0  0  0  0  0  0  0  0  0
    3.8504    1.7580   19.1717 H   0  0  0  0  0  0  0  0  0  0  0  0
    5.4881    0.7297   20.1667 C   0  0  0  0  0  0  0  0  0  0  0  0
    4.9826    0.6824   21.1359 H   0  0  0  0  0  0  0  0  0  0  0  0
   10.0471    1.0434   20.7465 N   0  0  0  0  0  0  0  0  0  0  0  0
   11.2832    1.7941   20.9596 C   0  0  0  0  0  0  0  0  0  0  0  0
   12.1178    1.0948   21.0913 H   0  0  0  0  0  0  0  0  0  0  0  0
   11.5232    2.4096   20.0848 H   0  0  0  0  0  0  0  0  0  0  0  0
   11.1201    2.6074   22.2538 C   0  0  0  0  0  0  0  0  0  0  0  0
   12.0457    2.6377   22.8370 H   0  0  0  0  0  0  0  0  0  0  0  0
   10.8432    3.6434   22.0321 H   0  0  0  0  0  0  0  0  0  0  0  0
    8.7824    1.0755   25.0266 C   0  0  0  0  0  0  0  0  0  0  0  0
    8.8441   -0.3308   24.9287 C   0  0  0  0  0  0  0  0  0  0  0  0
    9.5051   -0.8079   24.2074 H   0  0  0  0  0  0  0  0  0  0  0  0
    8.1351   -1.1735   25.6995 N   0  0  0  0  0  0  0  0  0  0  0  0
    7.3167   -0.6306   26.6084 C   0  0  0  0  0  0  0  0  0  0  0  0
    6.7404   -1.3272   27.2126 H   0  0  0  0  0  0  0  0  0  0  0  0
    7.1733    0.7491   26.8006 C   0  0  0  0  0  0  0  0  0  0  0  0
    6.4854    1.1316   27.5484 H   0  0  0  0  0  0  0  0  0  0  0  0
    7.9331    1.6116   26.0152 C   0  0  0  0  0  0  0  0  0  0  0  0
    7.8740    2.6919   26.1494 H   0  0  0  0  0  0  0  0  0  0  0  0
  1  2  1  0
  2  3  2  3
  3  4  1  0
  4  5  1  0
  5  6  1  0
  5  7  1  0
  7  8  1  0
  7  9  1  0
  7 10  1  0
 10 11  2  0
 11 12  1  0
 11 13  1  0
 13 14  2  0
 14 15  1  0
 14 16  1  0
 16 17  1  0
 16 18  2  0
 18 19  1  0
  4 20  2  0
 20 21  1  0
 21 22  1  0
 21 23  1  0
 21 24  1  0
 24 25  1  0
 24 26  1  0
  2 27  1  0
 27 28  2  0
 28 29  1  0
 28 30  1  0
 30 31  2  0
 31 32  1  0
 31 33  1  0
 33 34  1  0
 33 35  2  0
 35 36  1  0
 24  3  1  0
 35 27  1  0
 18 10  1  0
M  END
>  <cnnaffinity>  (1) 
-5.19537

>  <filename>  (1) 
C(=C1CCN=C1NCc1cccnc1)c1cccnc1

$$$$
