
     RDKit          3D

 30 32  0  0  0  0  0  0  0  0999 V2000
    7.3173   -0.6060   21.0462 C   0  0  0  0  0  0  0  0  0  0  0  0
    8.2986   -1.5119   20.9394 C   0  0  0  0  0  0  0  0  0  0  0  0
    8.8832   -2.3044   22.0320 C   0  0  0  0  0  0  0  0  0  0  0  0
   10.1951   -2.4208   21.9078 N   0  0  0  0  0  0  0  0  0  0  0  0
   10.8988   -2.9564   22.9304 C   0  0  0  0  0  0  0  0  0  0  0  0
   10.3337   -3.4421   24.0827 C   0  0  0  0  0  0  0  0  0  0  0  0
    8.9176   -3.4313   24.2131 C   0  0  0  0  0  0  0  0  0  0  0  0
    8.2432   -3.9468   25.3600 C   0  0  0  0  0  0  0  0  0  0  0  0
    6.8683   -3.9562   25.4285 C   0  0  0  0  0  0  0  0  0  0  0  0
    6.0970   -3.4584   24.3469 C   0  0  0  0  0  0  0  0  0  0  0  0
    6.7122   -2.9492   23.2279 C   0  0  0  0  0  0  0  0  0  0  0  0
    8.1444   -2.8804   23.1383 C   0  0  0  0  0  0  0  0  0  0  0  0
    6.1062   -2.5992   22.3982 H   0  0  0  0  0  0  0  0  0  0  0  0
    5.0108   -3.4648   24.4123 H   0  0  0  0  0  0  0  0  0  0  0  0
    6.3565   -4.3446   26.3053 H   0  0  0  0  0  0  0  0  0  0  0  0
    8.8282   -4.3338   26.1895 H   0  0  0  0  0  0  0  0  0  0  0  0
   10.9670   -3.8201   24.8793 H   0  0  0  0  0  0  0  0  0  0  0  0
   11.9734   -2.9626   22.7822 H   0  0  0  0  0  0  0  0  0  0  0  0
    8.8632   -1.6321   20.0181 H   0  0  0  0  0  0  0  0  0  0  0  0
    6.6416    0.0598   19.9239 C   0  0  0  0  0  0  0  0  0  0  0  0
    5.4122    0.7099   20.1432 C   0  0  0  0  0  0  0  0  0  0  0  0
    4.7782    1.3341   19.0710 C   0  0  0  0  0  0  0  0  0  0  0  0
    5.4030    1.2916   17.8187 C   0  0  0  0  0  0  0  0  0  0  0  0
    6.5591    0.6533   17.5776 N   0  0  0  0  0  0  0  0  0  0  0  0
    7.1545    0.0555   18.6138 C   0  0  0  0  0  0  0  0  0  0  0  0
    8.0996   -0.4443   18.3970 H   0  0  0  0  0  0  0  0  0  0  0  0
    4.9572    1.7967   16.9690 H   0  0  0  0  0  0  0  0  0  0  0  0
    3.8403    1.8684   19.1944 H   0  0  0  0  0  0  0  0  0  0  0  0
    4.9704    0.7171   21.1421 H   0  0  0  0  0  0  0  0  0  0  0  0
    6.9440   -0.3411   22.0378 H   0  0  0  0  0  0  0  0  0  0  0  0
  1  2  2  3
  2  3  1  0
  3  4  2  0
  4  5  1  0
  5  6  2  0
  6  7  1  0
  7  8  2  0
  8  9  1  0
  9 10  2  0
 10 11  1  0
 11 12  2  0
 11 13  1  0
 10 14  1  0
  9 15  1  0
  8 16  1  0
  6 17  1  0
  5 18  1  0
  2 19  1  0
  1 20  1  0
 20 21  2  0
 21 22  1  0
 22 23  2  0
 23 24  1  0
 24 25  2  0
 25 26  1  0
 23 27  1  0
 22 28  1  0
 21 29  1  0
  1 30  1  0
 12  3  1  0
 25 20  1  0
 12  7  1  0
M  END
>  <cnnaffinity>  (1) 
-5.22394

>  <filename>  (1) 
C(=Cc1nccc2ccccc12)c1cccnc1

$$$$
