
     RDKit          3D

 33 35  0  0  0  0  0  0  0  0999 V2000
    5.8799   -0.8872   22.2142 H   0  0  0  0  0  0  0  0  0  0  0  0
    6.9138   -1.1008   21.9337 C   0  0  0  0  0  0  0  0  0  0  0  0
    7.3812   -0.8058   20.7867 N   0  0  0  0  0  0  0  0  0  0  0  0
    6.6473   -0.0614   19.8371 C   0  0  0  0  0  0  0  0  0  0  0  0
    7.1617    0.0252   18.5186 C   0  0  0  0  0  0  0  0  0  0  0  0
    8.0964   -0.4860   18.3069 H   0  0  0  0  0  0  0  0  0  0  0  0
    6.5741    0.6823   17.5144 N   0  0  0  0  0  0  0  0  0  0  0  0
    5.4159    1.3162   17.7868 C   0  0  0  0  0  0  0  0  0  0  0  0
    4.9489    1.8435   16.9584 H   0  0  0  0  0  0  0  0  0  0  0  0
    4.8240    1.3087   19.0530 C   0  0  0  0  0  0  0  0  0  0  0  0
    3.8924    1.8388   19.2183 H   0  0  0  0  0  0  0  0  0  0  0  0
    5.4494    0.6222   20.1011 C   0  0  0  0  0  0  0  0  0  0  0  0
    5.0340    0.6303   21.1085 H   0  0  0  0  0  0  0  0  0  0  0  0
    7.7603   -1.8319   22.9464 C   0  0  0  0  0  0  0  0  0  0  0  0
    8.1457   -2.7285   22.4492 H   0  0  0  0  0  0  0  0  0  0  0  0
    7.1293   -2.1638   23.7704 H   0  0  0  0  0  0  0  0  0  0  0  0
    8.9235   -0.9928   23.4385 C   0  0  0  0  0  0  0  0  0  0  0  0
    8.7846   -0.1128   24.5574 C   0  0  0  0  0  0  0  0  0  0  0  0
    7.8533   -0.1024   25.1238 H   0  0  0  0  0  0  0  0  0  0  0  0
    9.8065    0.7377   24.9207 C   0  0  0  0  0  0  0  0  0  0  0  0
    9.7168    1.4130   25.7692 H   0  0  0  0  0  0  0  0  0  0  0  0
   11.0210    0.7841   24.1696 C   0  0  0  0  0  0  0  0  0  0  0  0
   12.0614    1.7228   24.4409 C   0  0  0  0  0  0  0  0  0  0  0  0
   11.9273    2.4139   25.2681 H   0  0  0  0  0  0  0  0  0  0  0  0
   13.1832    1.7675   23.6496 C   0  0  0  0  0  0  0  0  0  0  0  0
   13.9437    2.5128   23.8350 H   0  0  0  0  0  0  0  0  0  0  0  0
   13.3430    0.8619   22.5633 C   0  0  0  0  0  0  0  0  0  0  0  0
   14.2414    0.9008   21.9537 H   0  0  0  0  0  0  0  0  0  0  0  0
   12.3585   -0.0494   22.2723 C   0  0  0  0  0  0  0  0  0  0  0  0
   12.4487   -0.7178   21.4169 H   0  0  0  0  0  0  0  0  0  0  0  0
   11.1680   -0.1057   23.0579 C   0  0  0  0  0  0  0  0  0  0  0  0
   10.0954   -0.9791   22.7158 C   0  0  0  0  0  0  0  0  0  0  0  0
   10.1942   -1.6024   21.8255 H   0  0  0  0  0  0  0  0  0  0  0  0
  1  2  1  0
  2  3  2  3
  3  4  1  0
  4  5  2  0
  5  6  1  0
  5  7  1  0
  7  8  2  0
  8  9  1  0
  8 10  1  0
 10 11  1  0
 10 12  2  0
 12 13  1  0
  2 14  1  0
 14 15  1  0
 14 16  1  0
 14 17  1  0
 17 18  2  0
 18 19  1  0
 18 20  1  0
 20 21  1  0
 20 22  2  0
 22 23  1  0
 23 24  1  0
 23 25  2  0
 25 26  1  0
 25 27  1  0
 27 28  1  0
 27 29  2  0
 29 30  1  0
 29 31  1  0
 31 32  2  0
 32 33  1  0
 12  4  1  0
 32 17  1  0
 31 22  1  0
M  END
>  <cnnaffinity>  (1) 
-5.06475

>  <filename>  (1) 
C(Cc1ccc2ccccc2c1)=Nc1cccnc1

$$$$
