
     RDKit          3D

 41 43  0  0  0  0  0  0  0  0999 V2000
    8.6674    1.1852   23.5403 H   0  0  0  0  0  0  0  0  0  0  0  0
    8.2526    1.0549   22.5333 C   0  0  0  0  0  0  0  0  0  0  0  0
    7.9782   -0.2057   22.1700 C   0  0  0  0  0  0  0  0  0  0  0  0
    7.3435   -0.7726   20.9623 C   0  0  0  0  0  0  0  0  0  0  0  0
    6.6226   -0.0037   19.9173 C   0  0  0  0  0  0  0  0  0  0  0  0
    7.1415   -0.0533   18.6234 C   0  0  0  0  0  0  0  0  0  0  0  0
    8.0259   -0.6536   18.4150 H   0  0  0  0  0  0  0  0  0  0  0  0
    6.6093    0.5990   17.5876 N   0  0  0  0  0  0  0  0  0  0  0  0
    5.4843    1.2977   17.8130 C   0  0  0  0  0  0  0  0  0  0  0  0
    5.0644    1.8089   16.9507 H   0  0  0  0  0  0  0  0  0  0  0  0
    4.8446    1.3507   19.0568 C   0  0  0  0  0  0  0  0  0  0  0  0
    3.9185    1.9044   19.1630 H   0  0  0  0  0  0  0  0  0  0  0  0
    5.4244    0.6871   20.1408 C   0  0  0  0  0  0  0  0  0  0  0  0
    4.9566    0.6948   21.1288 H   0  0  0  0  0  0  0  0  0  0  0  0
    7.4372   -2.0474   20.8567 N   0  0  0  0  0  0  0  0  0  0  0  0
    8.0725   -2.5894   22.0623 C   0  0  0  0  0  0  0  0  0  0  0  0
    8.9702   -3.1350   21.7604 H   0  0  0  0  0  0  0  0  0  0  0  0
    7.3889   -3.3002   22.5361 H   0  0  0  0  0  0  0  0  0  0  0  0
    8.3985   -1.4062   22.9945 C   0  0  0  0  0  0  0  0  0  0  0  0
    7.8284   -1.4578   23.9283 H   0  0  0  0  0  0  0  0  0  0  0  0
    9.4628   -1.3534   23.2480 H   0  0  0  0  0  0  0  0  0  0  0  0
    8.0955    2.2906   21.6928 C   0  0  0  0  0  0  0  0  0  0  0  0
    7.0262    2.4965   21.5468 H   0  0  0  0  0  0  0  0  0  0  0  0
    8.4668    2.0855   20.6772 H   0  0  0  0  0  0  0  0  0  0  0  0
    8.7686    3.5694   22.2546 C   0  0  0  0  0  0  0  0  0  0  0  0
    8.6144    4.3341   21.4817 H   0  0  0  0  0  0  0  0  0  0  0  0
   10.2838    3.4049   22.5418 C   0  0  0  0  0  0  0  0  0  0  0  0
   10.3991    2.6751   23.3556 H   0  0  0  0  0  0  0  0  0  0  0  0
   10.8042    2.9673   21.6786 H   0  0  0  0  0  0  0  0  0  0  0  0
   10.9573    4.7219   22.9711 C   0  0  0  0  0  0  0  0  0  0  0  0
   10.9580    5.4344   22.1384 H   0  0  0  0  0  0  0  0  0  0  0  0
   12.0162    4.5561   23.2139 H   0  0  0  0  0  0  0  0  0  0  0  0
   10.2257    5.3652   24.1575 C   0  0  0  0  0  0  0  0  0  0  0  0
   10.4047    4.7477   25.0451 H   0  0  0  0  0  0  0  0  0  0  0  0
   10.6470    6.3538   24.3756 H   0  0  0  0  0  0  0  0  0  0  0  0
    8.7143    5.4915   23.9090 C   0  0  0  0  0  0  0  0  0  0  0  0
    8.2060    5.9089   24.7859 H   0  0  0  0  0  0  0  0  0  0  0  0
    8.5460    6.2202   23.1027 H   0  0  0  0  0  0  0  0  0  0  0  0
    8.0765    4.1525   23.5039 C   0  0  0  0  0  0  0  0  0  0  0  0
    8.1497    3.4330   24.3315 H   0  0  0  0  0  0  0  0  0  0  0  0
    7.0065    4.2998   23.3084 H   0  0  0  0  0  0  0  0  0  0  0  0
  1  2  1  0
  2  3  2  3
  3  4  1  0
  4  5  1  0
  5  6  2  0
  6  7  1  0
  6  8  1  0
  8  9  2  0
  9 10  1  0
  9 11  1  0
 11 12  1  0
 11 13  2  0
 13 14  1  0
  4 15  2  0
 15 16  1  0
 16 17  1  0
 16 18  1  0
 16 19  1  0
 19 20  1  0
 19 21  1  0
  2 22  1  0
 22 23  1  0
 22 24  1  0
 22 25  1  0
 25 26  1  0
 25 27  1  0
 27 28  1  0
 27 29  1  0
 27 30  1  0
 30 31  1  0
 30 32  1  0
 30 33  1  0
 33 34  1  0
 33 35  1  0
 33 36  1  0
 36 37  1  0
 36 38  1  0
 36 39  1  0
 39 40  1  0
 39 41  1  0
 19  3  1  0
 39 25  1  0
 13  5  1  0
M  END
>  <cnnaffinity>  (1) 
-5.47121

>  <filename>  (1) 
C(CC1CCCCC1)=C1CCN=C1c1cccnc1

$$$$
