
     RDKit          3D

 38 40  0  0  0  0  0  0  0  0999 V2000
    4.9977    1.7701   16.9308 H   0  0  0  0  0  0  0  0  0  0  0  0
    5.4430    1.2738   17.7923 C   0  0  0  0  0  0  0  0  0  0  0  0
    6.5922    0.6204   17.5804 N   0  0  0  0  0  0  0  0  0  0  0  0
    7.1574    0.0072   18.6338 C   0  0  0  0  0  0  0  0  0  0  0  0
    8.0952   -0.4943   18.4061 H   0  0  0  0  0  0  0  0  0  0  0  0
    6.6356    0.0041   19.9327 C   0  0  0  0  0  0  0  0  0  0  0  0
    7.3113   -0.7504   21.0883 C   0  0  0  0  0  0  0  0  0  0  0  0
    7.0989   -0.0604   22.3530 O   0  0  0  0  0  0  0  0  0  0  0  0
    7.5756    1.1866   22.6190 C   0  0  0  0  0  0  0  0  0  0  0  0
    7.6080    1.5277   23.9830 C   0  0  0  0  0  0  0  0  0  0  0  0
    7.3111    0.7781   24.7139 H   0  0  0  0  0  0  0  0  0  0  0  0
    8.0337    2.7998   24.3640 C   0  0  0  0  0  0  0  0  0  0  0  0
    8.1174    3.0402   25.4205 H   0  0  0  0  0  0  0  0  0  0  0  0
    8.3651    3.7487   23.3878 C   0  0  0  0  0  0  0  0  0  0  0  0
    8.6583    4.7529   23.6696 H   0  0  0  0  0  0  0  0  0  0  0  0
    8.3249    3.4028   22.0384 C   0  0  0  0  0  0  0  0  0  0  0  0
    8.5471    4.1559   21.2875 H   0  0  0  0  0  0  0  0  0  0  0  0
    7.9821    2.1089   21.6446 C   0  0  0  0  0  0  0  0  0  0  0  0
    8.0295    1.8220   20.6016 H   0  0  0  0  0  0  0  0  0  0  0  0
    6.5618   -2.0813   21.2922 C   0  0  0  0  0  0  0  0  0  0  0  0
    5.5085   -1.8414   21.4842 H   0  0  0  0  0  0  0  0  0  0  0  0
    6.5994   -2.6492   20.3511 H   0  0  0  0  0  0  0  0  0  0  0  0
    7.1496   -2.9138   22.4422 C   0  0  0  0  0  0  0  0  0  0  0  0
    7.0094   -2.3624   23.3832 H   0  0  0  0  0  0  0  0  0  0  0  0
    6.5956   -3.8563   22.5254 H   0  0  0  0  0  0  0  0  0  0  0  0
    8.6459   -3.1835   22.2245 C   0  0  0  0  0  0  0  0  0  0  0  0
    9.0625   -3.7454   23.0709 H   0  0  0  0  0  0  0  0  0  0  0  0
    8.7489   -3.8129   21.3290 H   0  0  0  0  0  0  0  0  0  0  0  0
    9.4434   -1.8872   22.0059 C   0  0  0  0  0  0  0  0  0  0  0  0
   10.4840   -2.1254   21.7485 H   0  0  0  0  0  0  0  0  0  0  0  0
    9.4666   -1.2999   22.9330 H   0  0  0  0  0  0  0  0  0  0  0  0
    8.8252   -1.0398   20.8806 C   0  0  0  0  0  0  0  0  0  0  0  0
    9.3857   -0.1055   20.7556 H   0  0  0  0  0  0  0  0  0  0  0  0
    8.9393   -1.5982   19.9435 H   0  0  0  0  0  0  0  0  0  0  0  0
    5.4219    0.6931   20.1292 C   0  0  0  0  0  0  0  0  0  0  0  0
    4.9912    0.7660   21.1306 H   0  0  0  0  0  0  0  0  0  0  0  0
    4.8212    1.3330   19.0452 C   0  0  0  0  0  0  0  0  0  0  0  0
    3.8918    1.8789   19.1583 H   0  0  0  0  0  0  0  0  0  0  0  0
  1  2  1  0
  2  3  2  0
  3  4  1  0
  4  5  1  0
  4  6  2  0
  6  7  1  0
  7  8  1  0
  8  9  1  0
  9 10  2  0
 10 11  1  0
 10 12  1  0
 12 13  1  0
 12 14  2  0
 14 15  1  0
 14 16  1  0
 16 17  1  0
 16 18  2  0
 18 19  1  0
  7 20  1  0
 20 21  1  0
 20 22  1  0
 20 23  1  0
 23 24  1  0
 23 25  1  0
 23 26  1  0
 26 27  1  0
 26 28  1  0
 26 29  1  0
 29 30  1  0
 29 31  1  0
 29 32  1  0
 32 33  1  0
 32 34  1  0
  6 35  1  0
 35 36  1  0
 35 37  2  0
 37 38  1  0
 37  2  1  0
 32  7  1  0
 18  9  1  0
M  END
>  <cnnaffinity>  (1) 
-5.37925

>  <filename>  (1) 
c1ccc(OC2(c3cccnc3)CCCCC2)cc1

$$$$
