
     RDKit          3D

 36 39  0  0  0  0  0  0  0  0999 V2000
    6.5435    3.3700   26.4287 H   0  0  0  0  0  0  0  0  0  0  0  0
    6.3575    2.3611   26.0636 C   0  0  0  0  0  0  0  0  0  0  0  0
    6.5853    2.1829   24.7621 N   0  0  0  0  0  0  0  0  0  0  0  0
    6.4314    0.9452   24.2830 C   0  0  0  0  0  0  0  0  0  0  0  0
    6.6799    0.9256   22.9246 N   0  0  0  0  0  0  0  0  0  0  0  0
    7.0225    1.8738   22.7870 H   0  0  0  0  0  0  0  0  0  0  0  0
    7.3937   -0.1225   22.2954 C   0  0  0  0  0  0  0  0  0  0  0  0
    7.3555   -0.5651   20.9219 C   0  0  0  0  0  0  0  0  0  0  0  0
    6.5925    0.0443   19.8168 C   0  0  0  0  0  0  0  0  0  0  0  0
    7.0983    0.0321   18.5028 C   0  0  0  0  0  0  0  0  0  0  0  0
    8.0175   -0.5062   18.2699 H   0  0  0  0  0  0  0  0  0  0  0  0
    6.5164    0.6610   17.4764 N   0  0  0  0  0  0  0  0  0  0  0  0
    5.3725    1.3202   17.7204 C   0  0  0  0  0  0  0  0  0  0  0  0
    4.9336    1.8408   16.8715 H   0  0  0  0  0  0  0  0  0  0  0  0
    4.7567    1.3543   18.9741 C   0  0  0  0  0  0  0  0  0  0  0  0
    3.8219    1.8883   19.0990 H   0  0  0  0  0  0  0  0  0  0  0  0
    5.3766    0.7142   20.0454 C   0  0  0  0  0  0  0  0  0  0  0  0
    4.9432    0.7303   21.0460 H   0  0  0  0  0  0  0  0  0  0  0  0
    8.1963   -1.5865   20.7265 N   0  0  0  0  0  0  0  0  0  0  0  0
    8.7238   -1.7919   21.9293 N   0  0  0  0  0  0  0  0  0  0  0  0
    8.3347   -0.9427   22.8868 C   0  0  0  0  0  0  0  0  0  0  0  0
    9.0918   -1.2157   24.1556 C   0  0  0  0  0  0  0  0  0  0  0  0
    8.4221   -1.6556   24.8983 H   0  0  0  0  0  0  0  0  0  0  0  0
    9.5274   -0.3263   24.6186 H   0  0  0  0  0  0  0  0  0  0  0  0
   10.1727   -2.2191   23.6773 C   0  0  0  0  0  0  0  0  0  0  0  0
   11.0987   -1.6837   23.4758 H   0  0  0  0  0  0  0  0  0  0  0  0
   10.3693   -2.9972   24.4130 H   0  0  0  0  0  0  0  0  0  0  0  0
    9.6851   -2.7859   22.3279 C   0  0  0  0  0  0  0  0  0  0  0  0
    9.2001   -3.7632   22.4186 H   0  0  0  0  0  0  0  0  0  0  0  0
   10.4801   -2.8316   21.5833 H   0  0  0  0  0  0  0  0  0  0  0  0
    6.0268   -0.1566   25.0521 C   0  0  0  0  0  0  0  0  0  0  0  0
    5.9444   -1.1293   24.5809 H   0  0  0  0  0  0  0  0  0  0  0  0
    5.7706    0.0577   26.4058 C   0  0  0  0  0  0  0  0  0  0  0  0
    5.4651   -0.7687   27.0500 H   0  0  0  0  0  0  0  0  0  0  0  0
    5.9321    1.3473   26.9238 C   0  0  0  0  0  0  0  0  0  0  0  0
    5.7587    1.5733   27.9684 H   0  0  0  0  0  0  0  0  0  0  0  0
  1  2  1  0
  2  3  2  0
  3  4  1  0
  4  5  1  0
  5  6  1  0
  5  7  1  0
  7  8  1  0
  8  9  1  0
  9 10  2  0
 10 11  1  0
 10 12  1  0
 12 13  2  0
 13 14  1  0
 13 15  1  0
 15 16  1  0
 15 17  2  0
 17 18  1  0
  8 19  2  0
 19 20  1  0
 20 21  1  0
 21 22  1  0
 22 23  1  0
 22 24  1  0
 22 25  1  0
 25 26  1  0
 25 27  1  0
 25 28  1  0
 28 29  1  0
 28 30  1  0
  4 31  2  0
 31 32  1  0
 31 33  1  0
 33 34  1  0
 33 35  2  0
 35 36  1  0
 35  2  1  0
 21  7  2  0
 17  9  1  0
 28 20  1  0
M  END
>  <cnnaffinity>  (1) 
-5.78877

>  <filename>  (1) 
c1ccc(Nc2c(-c3cccnc3)nn3c2CCC3)nc1

$$$$
