
     RDKit          3D

 39 41  0  0  0  0  0  0  0  0999 V2000
    4.9021    1.8207   16.9759 H   0  0  0  0  0  0  0  0  0  0  0  0
    5.3831    1.3176   17.8132 C   0  0  0  0  0  0  0  0  0  0  0  0
    6.5491    0.7098   17.5392 N   0  0  0  0  0  0  0  0  0  0  0  0
    7.1704    0.0831   18.5484 C   0  0  0  0  0  0  0  0  0  0  0  0
    8.1157   -0.4028   18.3135 H   0  0  0  0  0  0  0  0  0  0  0  0
    6.6777   -0.0103   19.8747 C   0  0  0  0  0  0  0  0  0  0  0  0
    7.3886   -0.7432   20.8606 N   0  0  0  0  0  0  0  0  0  0  0  0
    6.7022   -1.6869   21.7356 C   0  0  0  0  0  0  0  0  0  0  0  0
    5.7017   -1.8523   21.3229 H   0  0  0  0  0  0  0  0  0  0  0  0
    7.2298   -2.6594   21.7099 H   0  0  0  0  0  0  0  0  0  0  0  0
    6.5628   -1.2745   23.2101 C   0  0  0  0  0  0  0  0  0  0  0  0
    5.9393   -2.0063   23.7348 H   0  0  0  0  0  0  0  0  0  0  0  0
    6.0575   -0.2934   23.2916 H   0  0  0  0  0  0  0  0  0  0  0  0
    7.8798   -1.2433   23.8820 N   0  0  0  0  0  0  0  0  0  0  0  0
    7.6729   -1.5855   25.2257 O   0  0  0  0  0  0  0  0  0  0  0  0
    7.8723   -2.9430   25.5168 C   0  0  0  0  0  0  0  0  0  0  0  0
    8.2741   -3.9207   24.6069 C   0  0  0  0  0  0  0  0  0  0  0  0
    8.4760   -3.6285   23.5828 H   0  0  0  0  0  0  0  0  0  0  0  0
    8.4136   -5.2442   25.0482 C   0  0  0  0  0  0  0  0  0  0  0  0
    8.7316   -6.0183   24.3532 H   0  0  0  0  0  0  0  0  0  0  0  0
    8.1511   -5.5725   26.3839 C   0  0  0  0  0  0  0  0  0  0  0  0
    8.2616   -6.5960   26.7269 H   0  0  0  0  0  0  0  0  0  0  0  0
    7.7482   -4.5743   27.2817 C   0  0  0  0  0  0  0  0  0  0  0  0
    7.5376   -4.8297   28.3195 H   0  0  0  0  0  0  0  0  0  0  0  0
    7.6078   -3.2549   26.8478 C   0  0  0  0  0  0  0  0  0  0  0  0
    7.2814   -2.4465   27.4889 H   0  0  0  0  0  0  0  0  0  0  0  0
    8.4614    0.1175   23.8977 C   0  0  0  0  0  0  0  0  0  0  0  0
    7.8410    0.7794   24.5321 H   0  0  0  0  0  0  0  0  0  0  0  0
    9.4186   -0.0044   24.4166 H   0  0  0  0  0  0  0  0  0  0  0  0
    8.6258    0.7364   22.4807 C   0  0  0  0  0  0  0  0  0  0  0  0
    9.5379    1.3387   22.4893 H   0  0  0  0  0  0  0  0  0  0  0  0
    7.8061    1.4421   22.2778 H   0  0  0  0  0  0  0  0  0  0  0  0
    8.6988   -0.2598   21.2993 C   0  0  0  0  0  0  0  0  0  0  0  0
    9.1823    0.2128   20.4323 H   0  0  0  0  0  0  0  0  0  0  0  0
    9.3127   -1.1250   21.5922 H   0  0  0  0  0  0  0  0  0  0  0  0
    5.4553    0.6385   20.1299 C   0  0  0  0  0  0  0  0  0  0  0  0
    5.0399    0.6056   21.1366 H   0  0  0  0  0  0  0  0  0  0  0  0
    4.8059    1.3172   19.0879 C   0  0  0  0  0  0  0  0  0  0  0  0
    3.8687    1.8397   19.2480 H   0  0  0  0  0  0  0  0  0  0  0  0
  1  2  1  0
  2  3  2  0
  3  4  1  0
  4  5  1  0
  4  6  2  0
  6  7  1  0
  7  8  1  0
  8  9  1  0
  8 10  1  0
  8 11  1  0
 11 12  1  0
 11 13  1  0
 11 14  1  0
 14 15  1  0
 15 16  1  0
 16 17  2  0
 17 18  1  0
 17 19  1  0
 19 20  1  0
 19 21  2  0
 21 22  1  0
 21 23  1  0
 23 24  1  0
 23 25  2  0
 25 26  1  0
 14 27  1  0
 27 28  1  0
 27 29  1  0
 27 30  1  0
 30 31  1  0
 30 32  1  0
 30 33  1  0
 33 34  1  0
 33 35  1  0
  6 36  1  0
 36 37  1  0
 36 38  2  0
 38 39  1  0
 38  2  1  0
 33  7  1  0
 25 16  1  0
M  END
>  <cnnaffinity>  (1) 
-4.88495

>  <filename>  (1) 
c1ccc(ON2CCCN(c3cccnc3)CC2)cc1

$$$$
