
     RDKit          3D

 31 33  0  0  0  0  0  0  0  0999 V2000
    4.9444    1.8472   16.9608 H   0  0  0  0  0  0  0  0  0  0  0  0
    5.3979    1.3120   17.7913 C   0  0  0  0  0  0  0  0  0  0  0  0
    6.5543    0.6811   17.5317 N   0  0  0  0  0  0  0  0  0  0  0  0
    7.1414    0.0540   18.5572 C   0  0  0  0  0  0  0  0  0  0  0  0
    8.0923   -0.4312   18.3315 H   0  0  0  0  0  0  0  0  0  0  0  0
    6.6248   -0.0081   19.8634 C   0  0  0  0  0  0  0  0  0  0  0  0
    7.4273   -0.6980   20.9524 C   0  0  0  0  0  0  0  0  0  0  0  0
    6.7969   -0.9774   21.8024 H   0  0  0  0  0  0  0  0  0  0  0  0
    7.8789   -1.6289   20.5860 H   0  0  0  0  0  0  0  0  0  0  0  0
    8.5145    0.1472   21.4471 N   0  0  0  0  0  0  0  0  0  0  0  0
    9.8051    0.2151   20.9996 C   0  0  0  0  0  0  0  0  0  0  0  0
   10.2537   -0.5534   20.3761 H   0  0  0  0  0  0  0  0  0  0  0  0
   10.4198    1.2505   21.4969 N   0  0  0  0  0  0  0  0  0  0  0  0
    9.5302    1.8924   22.3213 N   0  0  0  0  0  0  0  0  0  0  0  0
    8.4124    1.2189   22.3037 C   0  0  0  0  0  0  0  0  0  0  0  0
    6.9773    1.5473   23.3063 S   0  0  0  0  0  0  0  0  0  0  0  0
    7.3506    0.4780   24.7153 C   0  0  0  0  0  0  0  0  0  0  0  0
    6.8198   -0.8142   24.8111 C   0  0  0  0  0  0  0  0  0  0  0  0
    6.1164   -1.1794   24.0644 H   0  0  0  0  0  0  0  0  0  0  0  0
    7.1959   -1.6534   25.8662 C   0  0  0  0  0  0  0  0  0  0  0  0
    6.8298   -2.6748   25.8951 H   0  0  0  0  0  0  0  0  0  0  0  0
    8.0739   -1.2023   26.8543 C   0  0  0  0  0  0  0  0  0  0  0  0
    8.3974   -1.8804   27.6469 H   0  0  0  0  0  0  0  0  0  0  0  0
    8.5653    0.1039   26.7734 C   0  0  0  0  0  0  0  0  0  0  0  0
    9.2528    0.4597   27.5234 H   0  0  0  0  0  0  0  0  0  0  0  0
    8.2110    0.9468   25.7160 C   0  0  0  0  0  0  0  0  0  0  0  0
    8.6036    1.9607   25.6410 H   0  0  0  0  0  0  0  0  0  0  0  0
    5.4043    0.6423   20.1041 C   0  0  0  0  0  0  0  0  0  0  0  0
    4.9648    0.6685   21.1043 H   0  0  0  0  0  0  0  0  0  0  0  0
    4.7854    1.3119   19.0453 C   0  0  0  0  0  0  0  0  0  0  0  0
    3.8540    1.8479   19.1844 H   0  0  0  0  0  0  0  0  0  0  0  0
  1  2  1  0
  2  3  2  0
  3  4  1  0
  4  5  1  0
  4  6  2  0
  6  7  1  0
  7  8  1  0
  7  9  1  0
  7 10  1  0
 10 11  1  0
 11 12  1  0
 11 13  2  0
 13 14  1  0
 14 15  2  0
 15 16  1  0
 16 17  1  0
 17 18  2  0
 18 19  1  0
 18 20  1  0
 20 21  1  0
 20 22  2  0
 22 23  1  0
 22 24  1  0
 24 25  1  0
 24 26  2  0
 26 27  1  0
  6 28  1  0
 28 29  1  0
 28 30  2  0
 30 31  1  0
 30  2  1  0
 15 10  1  0
 26 17  1  0
M  END
>  <cnnaffinity>  (1) 
-4.88727

>  <filename>  (1) 
c1ccc(Sc2nncn2Cc2cccnc2)cc1

$$$$
