
     RDKit          3D

 29 31  0  0  0  0  0  0  0  0999 V2000
   12.2364   -5.0758   25.4139 H   0  0  0  0  0  0  0  0  0  0  0  0
   11.2179   -4.9055   25.0885 C   0  0  0  0  0  0  0  0  0  0  0  0
   11.0794   -4.0116   24.1071 N   0  0  0  0  0  0  0  0  0  0  0  0
    9.8396   -3.8015   23.6608 C   0  0  0  0  0  0  0  0  0  0  0  0
    9.8429   -2.9493   22.5758 N   0  0  0  0  0  0  0  0  0  0  0  0
   10.8126   -2.6818   22.4855 H   0  0  0  0  0  0  0  0  0  0  0  0
    8.8559   -1.9825   22.3477 C   0  0  0  0  0  0  0  0  0  0  0  0
    8.1213   -1.3925   23.3328 C   0  0  0  0  0  0  0  0  0  0  0  0
    8.2717   -1.5030   24.3966 H   0  0  0  0  0  0  0  0  0  0  0  0
    6.9390   -0.3277   22.6974 S   0  0  0  0  0  0  0  0  0  0  0  0
    7.4454   -0.6400   21.0583 C   0  0  0  0  0  0  0  0  0  0  0  0
    6.7114   -0.0003   19.9421 C   0  0  0  0  0  0  0  0  0  0  0  0
    7.2285    0.0089   18.6312 C   0  0  0  0  0  0  0  0  0  0  0  0
    8.1677   -0.4945   18.4095 H   0  0  0  0  0  0  0  0  0  0  0  0
    6.6410    0.6171   17.5907 N   0  0  0  0  0  0  0  0  0  0  0  0
    5.4830    1.2529   17.8201 C   0  0  0  0  0  0  0  0  0  0  0  0
    5.0324    1.7553   16.9677 H   0  0  0  0  0  0  0  0  0  0  0  0
    4.8573    1.2816   19.0705 C   0  0  0  0  0  0  0  0  0  0  0  0
    3.9205    1.8077   19.2001 H   0  0  0  0  0  0  0  0  0  0  0  0
    5.4688    0.6416   20.1446 C   0  0  0  0  0  0  0  0  0  0  0  0
    4.9953    0.6347   21.1265 H   0  0  0  0  0  0  0  0  0  0  0  0
    8.5047   -1.5115   21.0447 C   0  0  0  0  0  0  0  0  0  0  0  0
    9.0611   -1.8338   20.1687 H   0  0  0  0  0  0  0  0  0  0  0  0
    8.7012   -4.4306   24.1844 C   0  0  0  0  0  0  0  0  0  0  0  0
    7.7334   -4.1369   23.7991 H   0  0  0  0  0  0  0  0  0  0  0  0
    8.8743   -5.3889   25.1811 C   0  0  0  0  0  0  0  0  0  0  0  0
    8.0248   -5.9285   25.5996 H   0  0  0  0  0  0  0  0  0  0  0  0
   10.1662   -5.6186   25.6637 C   0  0  0  0  0  0  0  0  0  0  0  0
   10.3729   -6.3431   26.4398 H   0  0  0  0  0  0  0  0  0  0  0  0
  1  2  1  0
  2  3  2  0
  3  4  1  0
  4  5  1  0
  5  6  1  0
  5  7  1  0
  7  8  2  0
  8  9  1  0
  8 10  1  0
 10 11  1  0
 11 12  1  0
 12 13  2  0
 13 14  1  0
 13 15  1  0
 15 16  2  0
 16 17  1  0
 16 18  1  0
 18 19  1  0
 18 20  2  0
 20 21  1  0
 11 22  2  0
 22 23  1  0
  4 24  2  0
 24 25  1  0
 24 26  1  0
 26 27  1  0
 26 28  2  0
 28 29  1  0
 28  2  1  0
 22  7  1  0
 20 12  1  0
M  END
>  <cnnaffinity>  (1) 
-5.47336

>  <filename>  (1) 
c1ccc(Nc2csc(-c3cccnc3)c2)nc1

$$$$
