
     RDKit          3D

 41 44  0  0  0  0  0  0  0  0999 V2000
   13.8904    3.9488   23.7286 H   0  0  0  0  0  0  0  0  0  0  0  0
   12.8187    4.1404   23.6557 C   0  0  0  0  0  0  0  0  0  0  0  0
   12.0716    3.1223   23.2210 N   0  0  0  0  0  0  0  0  0  0  0  0
   10.7528    3.3261   23.1417 C   0  0  0  0  0  0  0  0  0  0  0  0
    9.9645    2.2839   22.6861 N   0  0  0  0  0  0  0  0  0  0  0  0
    8.8152    1.8358   23.4807 C   0  0  0  0  0  0  0  0  0  0  0  0
    9.1292    1.1080   24.2463 H   0  0  0  0  0  0  0  0  0  0  0  0
    8.3603    2.6718   24.0225 H   0  0  0  0  0  0  0  0  0  0  0  0
    7.7634    1.1910   22.5747 C   0  0  0  0  0  0  0  0  0  0  0  0
    6.9368    0.8363   23.1983 H   0  0  0  0  0  0  0  0  0  0  0  0
    7.3531    1.9634   21.9041 H   0  0  0  0  0  0  0  0  0  0  0  0
    8.3341    0.0609   21.8139 N   0  0  0  0  0  0  0  0  0  0  0  0
    7.3295   -0.6588   21.0633 C   0  0  0  0  0  0  0  0  0  0  0  0
    6.6011    0.0422   19.9542 C   0  0  0  0  0  0  0  0  0  0  0  0
    7.1524    0.0627   18.6608 C   0  0  0  0  0  0  0  0  0  0  0  0
    8.1020   -0.4421   18.4679 H   0  0  0  0  0  0  0  0  0  0  0  0
    6.5853    0.6657   17.6069 N   0  0  0  0  0  0  0  0  0  0  0  0
    5.4190    1.2942   17.8186 C   0  0  0  0  0  0  0  0  0  0  0  0
    4.9780    1.7910   16.9597 H   0  0  0  0  0  0  0  0  0  0  0  0
    4.7795    1.3343   19.0642 C   0  0  0  0  0  0  0  0  0  0  0  0
    3.8407    1.8614   19.1704 H   0  0  0  0  0  0  0  0  0  0  0  0
    5.3796    0.7006   20.1484 C   0  0  0  0  0  0  0  0  0  0  0  0
    4.9269    0.7185   21.1430 H   0  0  0  0  0  0  0  0  0  0  0  0
    6.5998   -1.6530   21.9166 C   0  0  0  0  0  0  0  0  0  0  0  0
    5.5455   -1.8391   21.7265 H   0  0  0  0  0  0  0  0  0  0  0  0
    6.9074   -1.6753   22.9593 H   0  0  0  0  0  0  0  0  0  0  0  0
    7.5849   -2.1227   20.8803 C   0  0  0  0  0  0  0  0  0  0  0  0
    7.0884   -2.5728   20.0280 H   0  0  0  0  0  0  0  0  0  0  0  0
    8.5680   -2.5073   21.1539 H   0  0  0  0  0  0  0  0  0  0  0  0
    9.4940    0.5187   21.0348 C   0  0  0  0  0  0  0  0  0  0  0  0
    9.9546   -0.3227   20.5064 H   0  0  0  0  0  0  0  0  0  0  0  0
    9.1929    1.2552   20.2795 H   0  0  0  0  0  0  0  0  0  0  0  0
   10.5577    1.1785   21.9266 C   0  0  0  0  0  0  0  0  0  0  0  0
   11.3739    1.5643   21.3070 H   0  0  0  0  0  0  0  0  0  0  0  0
   10.9992    0.4345   22.6064 H   0  0  0  0  0  0  0  0  0  0  0  0
   10.1372    4.5499   23.4747 C   0  0  0  0  0  0  0  0  0  0  0  0
    9.0691    4.6387   23.3482 H   0  0  0  0  0  0  0  0  0  0  0  0
   10.9340    5.6026   23.8969 C   0  0  0  0  0  0  0  0  0  0  0  0
   10.4891    6.5690   24.1386 H   0  0  0  0  0  0  0  0  0  0  0  0
   12.3115    5.3877   24.0059 C   0  0  0  0  0  0  0  0  0  0  0  0
   12.9818    6.1677   24.3382 H   0  0  0  0  0  0  0  0  0  0  0  0
  1  2  1  0
  2  3  2  0
  3  4  1  0
  4  5  1  0
  5  6  1  0
  6  7  1  0
  6  8  1  0
  6  9  1  0
  9 10  1  0
  9 11  1  0
  9 12  1  0
 12 13  1  0
 13 14  1  0
 14 15  2  0
 15 16  1  0
 15 17  1  0
 17 18  2  0
 18 19  1  0
 18 20  1  0
 20 21  1  0
 20 22  2  0
 22 23  1  0
 13 24  1  0
 24 25  1  0
 24 26  1  0
 24 27  1  0
 27 28  1  0
 27 29  1  0
 12 30  1  0
 30 31  1  0
 30 32  1  0
 30 33  1  0
 33 34  1  0
 33 35  1  0
  4 36  2  0
 36 37  1  0
 36 38  1  0
 38 39  1  0
 38 40  2  0
 40 41  1  0
 40  2  1  0
 33  5  1  0
 27 13  1  0
 22 14  1  0
M  END
>  <cnnaffinity>  (1) 
-5.15843

>  <filename>  (1) 
c1ccc(N2CCN(C3(c4cccnc4)CC3)CC2)nc1

$$$$
