
     RDKit          3D

 29 31  0  0  0  0  0  0  0  0999 V2000
    6.2347    1.2009   17.0625 H   0  0  0  0  0  0  0  0  0  0  0  0
    6.4685    0.8015   18.0594 C   0  0  0  0  0  0  0  0  0  0  0  0
    7.7473    0.8993   18.4698 N   0  0  0  0  0  0  0  0  0  0  0  0
    8.0828    0.2860   19.5936 C   0  0  0  0  0  0  0  0  0  0  0  0
    9.1027    0.4071   19.9405 H   0  0  0  0  0  0  0  0  0  0  0  0
    7.1581   -0.3801   20.4424 C   0  0  0  0  0  0  0  0  0  0  0  0
    7.6245   -1.2406   21.5570 C   0  0  0  0  0  0  0  0  0  0  0  0
    7.5094   -1.2818   22.9512 C   0  0  0  0  0  0  0  0  0  0  0  0
    7.1523    0.0142   24.1078 S   0  0  0  0  0  0  0  0  0  0  0  0
    8.3428    1.1062   23.4108 C   0  0  0  0  0  0  0  0  0  0  0  0
    7.6929    1.8647   21.3616 C   0  0  0  0  0  0  0  0  0  0  0  0
    6.7646    1.3493   21.7834 H   0  0  0  0  0  0  0  0  0  0  0  0
    7.7020    2.0920   21.5616 C   0  0  0  0  0  0  0  0  0  0  0  0
    7.1060    2.4128   20.5184 H   0  0  0  0  0  0  0  0  0  0  0  0
   10.2681    1.5783   21.5056 C   0  0  0  0  0  0  0  0  0  0  0  0
   10.8603    1.9149   20.6468 H   0  0  0  0  0  0  0  0  0  0  0  0
   10.6612    1.4064   22.7650 C   0  0  0  0  0  0  0  0  0  0  0  0
   11.6982    1.5151   23.1137 H   0  0  0  0  0  0  0  0  0  0  0  0
    9.6368    1.0638   23.8157 C   0  0  0  0  0  0  0  0  0  0  0  0
    9.9076    0.8349   24.8464 H   0  0  0  0  0  0  0  0  0  0  0  0
    7.9350   -2.5786   23.3304 C   0  0  0  0  0  0  0  0  0  0  0  0
    7.9971   -2.9782   24.3345 H   0  0  0  0  0  0  0  0  0  0  0  0
    8.3077   -3.3010   22.2821 N   0  0  0  0  0  0  0  0  0  0  0  0
    8.1112   -2.4879   21.2408 N   0  0  0  0  0  0  0  0  0  0  0  0
    8.2910   -2.8295   20.3088 H   0  0  0  0  0  0  0  0  0  0  0  0
    5.8243   -0.4507   20.0052 C   0  0  0  0  0  0  0  0  0  0  0  0
    5.0945   -0.9819   20.6155 H   0  0  0  0  0  0  0  0  0  0  0  0
    5.4752    0.1471   18.7928 C   0  0  0  0  0  0  0  0  0  0  0  0
    4.4693    0.0649   18.3841 H   0  0  0  0  0  0  0  0  0  0  0  0
  1  2  1  0
  2  3  2  0
  3  4  1  0
  4  5  1  0
  4  6  2  0
  6  7  1  0
  7  8  2  0
  8  9  1  0
  9 10  1  0
 10 11  2  0
 11 12  1  0
 11 13  1  0
 13 14  1  0
 13 15  2  0
 15 16  1  0
 15 17  1  0
 17 18  1  0
 17 19  2  0
 19 20  1  0
  8 21  1  0
 21 22  1  0
 21 23  2  0
 23 24  1  0
 24 25  1  0
  6 26  1  0
 26 27  1  0
 26 28  2  0
 28 29  1  0
 28  2  1  0
 24  7  1  0
 19 10  1  0
M  END
>  <cnnaffinity>  (1) 
-5.08436

>  <filename>  (1) 
c1ccc(Sc2cn[nH]c2-c2cccnc2)cc1

$$$$
