
     RDKit          3D

 40 43  0  0  0  0  0  0  0  0999 V2000
    8.9236   -3.1205   22.0878 H   0  0  0  0  0  0  0  0  0  0  0  0
    8.3894   -2.1901   21.9210 C   0  0  0  0  0  0  0  0  0  0  0  0
    8.1111   -1.3088   22.9170 N   0  0  0  0  0  0  0  0  0  0  0  0
    7.4853   -0.3507   22.2597 C   0  0  0  0  0  0  0  0  0  0  0  0
    7.0046    0.8286   22.7725 N   0  0  0  0  0  0  0  0  0  0  0  0
    7.4868    2.1279   22.2739 C   0  0  0  0  0  0  0  0  0  0  0  0
    6.6231    2.7995   22.1837 H   0  0  0  0  0  0  0  0  0  0  0  0
    7.8999    2.0205   21.2667 H   0  0  0  0  0  0  0  0  0  0  0  0
    8.5367    2.7873   23.2067 C   0  0  0  0  0  0  0  0  0  0  0  0
    8.7304    3.8011   22.8451 H   0  0  0  0  0  0  0  0  0  0  0  0
    9.4802    2.2285   23.1136 H   0  0  0  0  0  0  0  0  0  0  0  0
    8.0711    2.8387   24.6015 N   0  0  0  0  0  0  0  0  0  0  0  0
    8.4659    3.8635   25.4569 C   0  0  0  0  0  0  0  0  0  0  0  0
    9.6399    4.4650   25.2249 N   0  0  0  0  0  0  0  0  0  0  0  0
    9.9946    5.4488   26.0576 C   0  0  0  0  0  0  0  0  0  0  0  0
   10.9651    5.9052   25.8684 H   0  0  0  0  0  0  0  0  0  0  0  0
    9.2134    5.9168   27.1107 C   0  0  0  0  0  0  0  0  0  0  0  0
    9.5546    6.7358   27.7300 H   0  0  0  0  0  0  0  0  0  0  0  0
    7.9698    5.3149   27.3251 C   0  0  0  0  0  0  0  0  0  0  0  0
    7.3078    5.6518   28.1239 H   0  0  0  0  0  0  0  0  0  0  0  0
    7.5975    4.2646   26.4966 C   0  0  0  0  0  0  0  0  0  0  0  0
    6.6374    3.7757   26.5803 H   0  0  0  0  0  0  0  0  0  0  0  0
    7.6150    1.5306   25.1044 C   0  0  0  0  0  0  0  0  0  0  0  0
    7.1723    1.6282   26.1007 H   0  0  0  0  0  0  0  0  0  0  0  0
    8.4403    0.8065   25.1942 H   0  0  0  0  0  0  0  0  0  0  0  0
    6.5626    0.8984   24.1661 C   0  0  0  0  0  0  0  0  0  0  0  0
    5.6462    1.5034   24.2012 H   0  0  0  0  0  0  0  0  0  0  0  0
    6.3031   -0.1077   24.5046 H   0  0  0  0  0  0  0  0  0  0  0  0
    7.3663   -0.6779   20.9307 N   0  0  0  0  0  0  0  0  0  0  0  0
    6.6564   -0.0011   19.8996 C   0  0  0  0  0  0  0  0  0  0  0  0
    7.1787    0.0434   18.5962 C   0  0  0  0  0  0  0  0  0  0  0  0
    8.1259   -0.4402   18.3738 H   0  0  0  0  0  0  0  0  0  0  0  0
    6.5717    0.6752   17.5890 N   0  0  0  0  0  0  0  0  0  0  0  0
    5.4043    1.2929   17.8429 C   0  0  0  0  0  0  0  0  0  0  0  0
    4.9206    1.7806   16.9996 H   0  0  0  0  0  0  0  0  0  0  0  0
    4.8112    1.3053   19.1082 C   0  0  0  0  0  0  0  0  0  0  0  0
    3.8797    1.8383   19.2599 H   0  0  0  0  0  0  0  0  0  0  0  0
    5.4417    0.6471   20.1653 C   0  0  0  0  0  0  0  0  0  0  0  0
    5.0153    0.6332   21.1684 H   0  0  0  0  0  0  0  0  0  0  0  0
    7.9737   -1.8783   20.7151 N   0  0  0  0  0  0  0  0  0  0  0  0
  1  2  1  0
  2  3  1  0
  3  4  2  0
  4  5  1  0
  5  6  1  0
  6  7  1  0
  6  8  1  0
  6  9  1  0
  9 10  1  0
  9 11  1  0
  9 12  1  0
 12 13  1  0
 13 14  2  0
 14 15  1  0
 15 16  1  0
 15 17  2  0
 17 18  1  0
 17 19  1  0
 19 20  1  0
 19 21  2  0
 21 22  1  0
 12 23  1  0
 23 24  1  0
 23 25  1  0
 23 26  1  0
 26 27  1  0
 26 28  1  0
  4 29  1  0
 29 30  1  0
 30 31  2  0
 31 32  1  0
 31 33  1  0
 33 34  2  0
 34 35  1  0
 34 36  1  0
 36 37  1  0
 36 38  2  0
 38 39  1  0
 29 40  1  0
 40  2  2  0
 26  5  1  0
 38 30  1  0
 21 13  1  0
M  END
>  <cnnaffinity>  (1) 
-5.15946

>  <filename>  (1) 
c1ccc(N2CCN(c3ncnn3-c3cccnc3)CC2)nc1

$$$$
