
     RDKit          3D

 43 46  0  0  0  0  0  0  0  0999 V2000
    9.5844    6.5303   26.9937 H   0  0  0  0  0  0  0  0  0  0  0  0
    8.7864    6.0865   26.4010 C   0  0  0  0  0  0  0  0  0  0  0  0
    9.1883    5.1967   25.4902 N   0  0  0  0  0  0  0  0  0  0  0  0
    8.2409    4.6560   24.7140 C   0  0  0  0  0  0  0  0  0  0  0  0
    8.6295    3.7151   23.7722 N   0  0  0  0  0  0  0  0  0  0  0  0
    8.2147    3.8467   22.3623 C   0  0  0  0  0  0  0  0  0  0  0  0
    7.2155    4.2953   22.3006 H   0  0  0  0  0  0  0  0  0  0  0  0
    8.8951    4.5293   21.8327 H   0  0  0  0  0  0  0  0  0  0  0  0
    8.1906    2.4690   21.6670 C   0  0  0  0  0  0  0  0  0  0  0  0
    7.9308    2.5537   20.6089 H   0  0  0  0  0  0  0  0  0  0  0  0
    7.3966    1.8633   22.1409 H   0  0  0  0  0  0  0  0  0  0  0  0
    9.5067    1.8023   21.7666 N   0  0  0  0  0  0  0  0  0  0  0  0
    9.5730    0.5383   21.0124 C   0  0  0  0  0  0  0  0  0  0  0  0
   10.5926    0.1448   21.0976 H   0  0  0  0  0  0  0  0  0  0  0  0
    9.4136    0.7679   19.9550 H   0  0  0  0  0  0  0  0  0  0  0  0
    8.6253   -0.5648   21.4219 C   0  0  0  0  0  0  0  0  0  0  0  0
    8.8588   -1.4527   22.3550 N   0  0  0  0  0  0  0  0  0  0  0  0
    7.7088   -2.1706   22.5566 N   0  0  0  0  0  0  0  0  0  0  0  0
    6.8155   -1.7102   21.7309 C   0  0  0  0  0  0  0  0  0  0  0  0
    5.8027   -2.0717   21.6339 H   0  0  0  0  0  0  0  0  0  0  0  0
    7.3313   -0.7047   20.9445 N   0  0  0  0  0  0  0  0  0  0  0  0
    6.6667    0.0019   19.8893 C   0  0  0  0  0  0  0  0  0  0  0  0
    7.1697    0.0594   18.5703 C   0  0  0  0  0  0  0  0  0  0  0  0
    8.1076   -0.4340   18.3172 H   0  0  0  0  0  0  0  0  0  0  0  0
    6.5495    0.6840   17.5576 N   0  0  0  0  0  0  0  0  0  0  0  0
    5.3913    1.3074   17.8250 C   0  0  0  0  0  0  0  0  0  0  0  0
    4.9180    1.8149   16.9870 H   0  0  0  0  0  0  0  0  0  0  0  0
    4.8079    1.3138   19.0958 C   0  0  0  0  0  0  0  0  0  0  0  0
    3.8725    1.8411   19.2469 H   0  0  0  0  0  0  0  0  0  0  0  0
    5.4534    0.6482   20.1463 C   0  0  0  0  0  0  0  0  0  0  0  0
    5.0383    0.6292   21.1564 H   0  0  0  0  0  0  0  0  0  0  0  0
    9.8170    1.6263   23.1991 C   0  0  0  0  0  0  0  0  0  0  0  0
    9.0502    0.9941   23.6827 H   0  0  0  0  0  0  0  0  0  0  0  0
   10.7788    1.1060   23.2924 H   0  0  0  0  0  0  0  0  0  0  0  0
    9.8912    2.9770   23.9259 C   0  0  0  0  0  0  0  0  0  0  0  0
   10.0741    2.7928   24.9902 H   0  0  0  0  0  0  0  0  0  0  0  0
   10.7478    3.5502   23.5328 H   0  0  0  0  0  0  0  0  0  0  0  0
    6.8688    4.9546   24.8463 C   0  0  0  0  0  0  0  0  0  0  0  0
    6.1988    4.4152   24.1891 H   0  0  0  0  0  0  0  0  0  0  0  0
    6.4625    5.8430   25.8340 C   0  0  0  0  0  0  0  0  0  0  0  0
    5.4020    6.0642   25.9835 H   0  0  0  0  0  0  0  0  0  0  0  0
    7.4568    6.4373   26.6292 C   0  0  0  0  0  0  0  0  0  0  0  0
    7.2242    7.1461   27.4162 H   0  0  0  0  0  0  0  0  0  0  0  0
  1  2  1  0
  2  3  2  0
  3  4  1  0
  4  5  1  0
  5  6  1  0
  6  7  1  0
  6  8  1  0
  6  9  1  0
  9 10  1  0
  9 11  1  0
  9 12  1  0
 12 13  1  0
 13 14  1  0
 13 15  1  0
 13 16  1  0
 16 17  2  0
 17 18  1  0
 18 19  2  0
 19 20  1  0
 19 21  1  0
 21 22  1  0
 22 23  2  0
 23 24  1  0
 23 25  1  0
 25 26  2  0
 26 27  1  0
 26 28  1  0
 28 29  1  0
 28 30  2  0
 30 31  1  0
 12 32  1  0
 32 33  1  0
 32 34  1  0
 32 35  1  0
 35 36  1  0
 35 37  1  0
  4 38  2  0
 38 39  1  0
 38 40  1  0
 40 41  1  0
 40 42  2  0
 42 43  1  0
 42  2  1  0
 35  5  1  0
 21 16  1  0
 30 22  1  0
M  END
>  <cnnaffinity>  (1) 
-5.37146

>  <filename>  (1) 
c1ccc(N2CCN(Cc3nncn3-c3cccnc3)CC2)nc1

$$$$
