
     RDKit          3D

 42 45  0  0  0  0  0  0  0  0999 V2000
    4.9513    1.7945   16.9891 H   0  0  0  0  0  0  0  0  0  0  0  0
    5.4113    1.2803   17.8310 C   0  0  0  0  0  0  0  0  0  0  0  0
    6.5620    0.6429   17.5812 N   0  0  0  0  0  0  0  0  0  0  0  0
    7.1586    0.0200   18.6119 C   0  0  0  0  0  0  0  0  0  0  0  0
    8.1047   -0.4568   18.3558 H   0  0  0  0  0  0  0  0  0  0  0  0
    6.6559   -0.0338   19.9309 C   0  0  0  0  0  0  0  0  0  0  0  0
    7.3314   -0.8873   21.0340 C   0  0  2  0  0  0  0  0  0  0  0  0
    6.6491   -2.2913   20.8972 C   0  0  0  0  0  0  0  0  0  0  0  0
    5.5775   -2.1058   20.9094 H   0  0  0  0  0  0  0  0  0  0  0  0
    6.8616   -2.6818   19.9044 H   0  0  0  0  0  0  0  0  0  0  0  0
    7.0050   -3.3336   21.8088 O   0  0  0  0  0  0  0  0  0  0  0  0
    6.1372   -3.7557   22.7864 C   0  0  0  0  0  0  0  0  0  0  0  0
    4.7964   -3.3638   22.8713 C   0  0  0  0  0  0  0  0  0  0  0  0
    4.3599   -2.7987   22.0598 H   0  0  0  0  0  0  0  0  0  0  0  0
    4.0411   -3.6481   24.0167 C   0  0  0  0  0  0  0  0  0  0  0  0
    3.0495   -3.2092   24.1329 H   0  0  0  0  0  0  0  0  0  0  0  0
    4.5847   -4.4431   25.0272 C   0  0  0  0  0  0  0  0  0  0  0  0
    4.0265   -4.6088   25.9470 H   0  0  0  0  0  0  0  0  0  0  0  0
    5.8749   -4.9700   24.8708 C   0  0  0  0  0  0  0  0  0  0  0  0
    6.2908   -5.6136   25.6439 H   0  0  0  0  0  0  0  0  0  0  0  0
    6.6639   -4.6116   23.7719 C   0  0  0  0  0  0  0  0  0  0  0  0
    7.6882   -4.9590   23.6755 H   0  0  0  0  0  0  0  0  0  0  0  0
    7.1792   -0.2909   22.4871 C   0  0  0  0  0  0  0  0  0  0  0  0
    6.6090   -0.9587   23.1419 H   0  0  0  0  0  0  0  0  0  0  0  0
    6.6696    0.6801   22.4872 H   0  0  0  0  0  0  0  0  0  0  0  0
    8.6257   -0.1230   23.0072 C   0  0  2  0  0  0  0  0  0  0  0  0
    8.6961   -0.0652   24.0977 H   0  0  0  0  0  0  0  0  0  0  0  0
    9.2613    1.0768   22.2757 C   0  0  0  0  0  0  0  0  0  0  0  0
    8.6081    1.9574   22.2666 H   0  0  0  0  0  0  0  0  0  0  0  0
   10.2053    1.3804   22.7448 H   0  0  0  0  0  0  0  0  0  0  0  0
    9.5103    0.4913   20.8598 C   0  0  0  0  0  0  0  0  0  0  0  0
   10.5882    0.4079   20.7163 H   0  0  0  0  0  0  0  0  0  0  0  0
    9.0872    1.1055   20.0634 H   0  0  0  0  0  0  0  0  0  0  0  0
    8.9005   -0.9363   20.9311 C   0  0  1  0  0  0  0  0  0  0  0  0
    9.2628   -1.6046   20.1396 H   0  0  0  0  0  0  0  0  0  0  0  0
    9.3403   -1.3136   22.3540 C   0  0  0  0  0  0  0  0  0  0  0  0
   10.4330   -1.2812   22.4730 H   0  0  0  0  0  0  0  0  0  0  0  0
    8.9755   -2.2875   22.6857 H   0  0  0  0  0  0  0  0  0  0  0  0
    5.4324    0.6276   20.1484 C   0  0  0  0  0  0  0  0  0  0  0  0
    4.9667    0.6232   21.1360 H   0  0  0  0  0  0  0  0  0  0  0  0
    4.8092    1.2984   19.0924 C   0  0  0  0  0  0  0  0  0  0  0  0
    3.8821    1.8421   19.2365 H   0  0  0  0  0  0  0  0  0  0  0  0
  1  2  1  0
  2  3  2  0
  3  4  1  0
  4  5  1  0
  4  6  2  0
  6  7  1  0
  7  8  1  1
  8  9  1  0
  8 10  1  0
  8 11  1  0
 11 12  1  0
 12 13  2  0
 13 14  1  0
 13 15  1  0
 15 16  1  0
 15 17  2  0
 17 18  1  0
 17 19  1  0
 19 20  1  0
 19 21  2  0
 21 22  1  0
  7 23  1  0
 23 24  1  0
 23 25  1  0
 23 26  1  0
 26 27  1  1
 26 28  1  0
 28 29  1  0
 28 30  1  0
 28 31  1  0
 31 32  1  0
 31 33  1  0
 31 34  1  0
 34 35  1  6
 34 36  1  0
 36 37  1  0
 36 38  1  0
  6 39  1  0
 39 40  1  0
 39 41  2  0
 41 42  1  0
 41  2  1  0
 34  7  1  0
 21 12  1  0
 36 26  1  0
M  END
>  <cnnaffinity>  (1) 
-5.12209

>  <filename>  (1) 
c1ccc(OC[C@@]2(c3cccnc3)C[C@@H]3CC[C@H]2C3)cc1

$$$$
