
     RDKit          3D

 40 43  0  0  0  0  0  0  0  0999 V2000
    5.1643    1.7911   16.8690 H   0  0  0  0  0  0  0  0  0  0  0  0
    5.5373    1.2873   17.7587 C   0  0  0  0  0  0  0  0  0  0  0  0
    6.6935    0.6187   17.6212 N   0  0  0  0  0  0  0  0  0  0  0  0
    7.1800   -0.0127   18.6962 C   0  0  0  0  0  0  0  0  0  0  0  0
    8.1040   -0.5705   18.5444 H   0  0  0  0  0  0  0  0  0  0  0  0
    6.5627    0.0131   19.9575 C   0  0  0  0  0  0  0  0  0  0  0  0
    7.1504   -0.7149   21.0870 C   0  0  0  0  0  0  0  0  0  0  0  0
    7.6056   -1.9649   20.9624 N   0  0  0  0  0  0  0  0  0  0  0  0
    7.9482   -2.2917   22.2121 N   0  0  0  0  0  0  0  0  0  0  0  0
    7.7926   -1.3125   23.1098 C   0  0  0  0  0  0  0  0  0  0  0  0
    7.2924   -0.2278   22.4138 C   0  0  0  0  0  0  0  0  0  0  0  0
    6.9969    1.1513   22.9220 C   0  0  0  0  0  0  0  0  0  0  0  0
    6.9745    1.8656   22.0796 H   0  0  0  0  0  0  0  0  0  0  0  0
    5.9866    1.1767   23.3556 H   0  0  0  0  0  0  0  0  0  0  0  0
    7.9526    1.5286   23.9395 N   0  0  0  0  0  0  0  0  0  0  0  0
    8.9039    1.2954   23.7097 H   0  0  0  0  0  0  0  0  0  0  0  0
    7.8230    2.6701   24.7145 C   0  0  0  0  0  0  0  0  0  0  0  0
    6.6005    3.3536   24.8113 C   0  0  0  0  0  0  0  0  0  0  0  0
    5.7669    3.0165   24.2034 H   0  0  0  0  0  0  0  0  0  0  0  0
    6.4732    4.4530   25.6596 C   0  0  0  0  0  0  0  0  0  0  0  0
    5.5048    4.9401   25.7385 H   0  0  0  0  0  0  0  0  0  0  0  0
    7.5673    4.9075   26.4012 C   0  0  0  0  0  0  0  0  0  0  0  0
    7.4677    5.7706   27.0537 H   0  0  0  0  0  0  0  0  0  0  0  0
    8.7906    4.2358   26.2972 C   0  0  0  0  0  0  0  0  0  0  0  0
    9.6380    4.5878   26.8770 H   0  0  0  0  0  0  0  0  0  0  0  0
    8.9262    3.1219   25.4649 C   0  0  0  0  0  0  0  0  0  0  0  0
    9.8717    2.5913   25.3887 H   0  0  0  0  0  0  0  0  0  0  0  0
    8.3023   -1.7514   24.4495 C   0  0  0  0  0  0  0  0  0  0  0  0
    9.2024   -1.1776   24.6905 H   0  0  0  0  0  0  0  0  0  0  0  0
    7.5813   -1.5730   25.2525 H   0  0  0  0  0  0  0  0  0  0  0  0
    8.6001   -3.2695   24.2370 C   0  0  0  0  0  0  0  0  0  0  0  0
    7.8841   -3.8808   24.7889 H   0  0  0  0  0  0  0  0  0  0  0  0
    9.6030   -3.5485   24.5670 H   0  0  0  0  0  0  0  0  0  0  0  0
    8.4394   -3.5525   22.7169 C   0  0  0  0  0  0  0  0  0  0  0  0
    9.3853   -3.8034   22.2385 H   0  0  0  0  0  0  0  0  0  0  0  0
    7.7167   -4.3464   22.5084 H   0  0  0  0  0  0  0  0  0  0  0  0
    5.3675    0.7390   20.0872 C   0  0  0  0  0  0  0  0  0  0  0  0
    4.8632    0.8029   21.0529 H   0  0  0  0  0  0  0  0  0  0  0  0
    4.8341    1.3663   18.9650 C   0  0  0  0  0  0  0  0  0  0  0  0
    3.9086    1.9270   19.0226 H   0  0  0  0  0  0  0  0  0  0  0  0
  1  2  1  0
  2  3  2  0
  3  4  1  0
  4  5  1  0
  4  6  2  0
  6  7  1  0
  7  8  2  0
  8  9  1  0
  9 10  1  0
 10 11  2  0
 11 12  1  0
 12 13  1  0
 12 14  1  0
 12 15  1  0
 15 16  1  0
 15 17  1  0
 17 18  2  0
 18 19  1  0
 18 20  1  0
 20 21  1  0
 20 22  2  0
 22 23  1  0
 22 24  1  0
 24 25  1  0
 24 26  2  0
 26 27  1  0
 10 28  1  0
 28 29  1  0
 28 30  1  0
 28 31  1  0
 31 32  1  0
 31 33  1  0
 31 34  1  0
 34 35  1  0
 34 36  1  0
  6 37  1  0
 37 38  1  0
 37 39  2  0
 39 40  1  0
 39  2  1  0
 11  7  1  0
 26 17  1  0
 34  9  1  0
M  END
>  <cnnaffinity>  (1) 
-5.44714

>  <filename>  (1) 
c1ccc(NCc2c(-c3cccnc3)nn3c2CCC3)cc1

$$$$
