
     RDKit          3D

 37 39  0  0  0  0  0  0  0  0999 V2000
    4.8378    2.1258   16.6884 H   0  0  0  0  0  0  0  0  0  0  0  0
    5.1963    1.5360   17.5271 C   0  0  0  0  0  0  0  0  0  0  0  0
    6.3062    0.8154   17.2950 N   0  0  0  0  0  0  0  0  0  0  0  0
    6.7936    0.1196   18.3226 C   0  0  0  0  0  0  0  0  0  0  0  0
    7.6871   -0.4724   18.1221 H   0  0  0  0  0  0  0  0  0  0  0  0
    6.2247    0.0765   19.6103 C   0  0  0  0  0  0  0  0  0  0  0  0
    6.9425   -0.6784   20.6702 C   0  0  0  0  0  0  0  0  0  0  0  0
    6.3152   -1.6111   21.5447 C   0  0  0  0  0  0  0  0  0  0  0  0
    5.2433   -1.7756   21.5118 H   0  0  0  0  0  0  0  0  0  0  0  0
    7.0016   -2.3700   22.3875 N   0  0  0  0  0  0  0  0  0  0  0  0
    8.3455   -2.2302   22.4962 N   0  0  0  0  0  0  0  0  0  0  0  0
    8.9811   -1.3299   21.7389 C   0  0  0  0  0  0  0  0  0  0  0  0
   10.3466   -1.1498   21.8233 N   0  0  0  0  0  0  0  0  0  0  0  0
   10.5658   -0.2141   21.5099 H   0  0  0  0  0  0  0  0  0  0  0  0
   11.0633   -1.5156   23.0254 C   0  0  0  0  0  0  0  0  0  0  0  0
   12.1310   -1.4326   22.7843 H   0  0  0  0  0  0  0  0  0  0  0  0
   10.8462   -2.5630   23.2440 H   0  0  0  0  0  0  0  0  0  0  0  0
   10.7251   -0.6179   24.2356 C   0  0  0  0  0  0  0  0  0  0  0  0
    9.6463   -0.6750   24.4157 H   0  0  0  0  0  0  0  0  0  0  0  0
   11.2102   -1.0103   25.1349 H   0  0  0  0  0  0  0  0  0  0  0  0
   11.1428    0.8236   24.0182 C   0  0  0  0  0  0  0  0  0  0  0  0
   12.4877    1.1429   23.7596 C   0  0  0  0  0  0  0  0  0  0  0  0
   13.2473    0.3622   23.8075 H   0  0  0  0  0  0  0  0  0  0  0  0
   12.8574    2.4501   23.4219 C   0  0  0  0  0  0  0  0  0  0  0  0
   13.9022    2.6909   23.2474 H   0  0  0  0  0  0  0  0  0  0  0  0
   11.8830    3.4536   23.3277 C   0  0  0  0  0  0  0  0  0  0  0  0
   12.1617    4.4712   23.0639 H   0  0  0  0  0  0  0  0  0  0  0  0
   10.5456    3.1532   23.6078 C   0  0  0  0  0  0  0  0  0  0  0  0
    9.7695    3.9121   23.5275 H   0  0  0  0  0  0  0  0  0  0  0  0
   10.1902    1.8535   23.9954 C   0  0  0  0  0  0  0  0  0  0  0  0
    9.1664    1.6179   24.2802 H   0  0  0  0  0  0  0  0  0  0  0  0
    8.3069   -0.5478   20.7877 C   0  0  0  0  0  0  0  0  0  0  0  0
    8.8922    0.1205   20.1627 H   0  0  0  0  0  0  0  0  0  0  0  0
    5.0280    0.7795   19.8121 C   0  0  0  0  0  0  0  0  0  0  0  0
    4.5234    0.7482   20.7803 H   0  0  0  0  0  0  0  0  0  0  0  0
    4.5204    1.5374   18.7529 C   0  0  0  0  0  0  0  0  0  0  0  0
    3.6226    2.1363   18.8578 H   0  0  0  0  0  0  0  0  0  0  0  0
  1  2  1  0
  2  3  2  0
  3  4  1  0
  4  5  1  0
  4  6  2  0
  6  7  1  0
  7  8  2  0
  8  9  1  0
  8 10  1  0
 10 11  2  0
 11 12  1  0
 12 13  1  0
 13 14  1  0
 13 15  1  0
 15 16  1  0
 15 17  1  0
 15 18  1  0
 18 19  1  0
 18 20  1  0
 18 21  1  0
 21 22  2  0
 22 23  1  0
 22 24  1  0
 24 25  1  0
 24 26  2  0
 26 27  1  0
 26 28  1  0
 28 29  1  0
 28 30  2  0
 30 31  1  0
 12 32  2  0
 32 33  1  0
  6 34  1  0
 34 35  1  0
 34 36  2  0
 36 37  1  0
 36  2  1  0
 32  7  1  0
 30 21  1  0
M  END
>  <cnnaffinity>  (1) 
-5.27685

>  <filename>  (1) 
c1ccc(CCNc2cc(-c3cccnc3)cnn2)cc1

$$$$
