
     RDKit          3D

 40 43  0  0  0  0  0  0  0  0999 V2000
    4.9858    1.8439   16.8998 H   0  0  0  0  0  0  0  0  0  0  0  0
    5.4241    1.2968   17.7341 C   0  0  0  0  0  0  0  0  0  0  0  0
    6.5719    0.6438   17.4918 N   0  0  0  0  0  0  0  0  0  0  0  0
    7.1514    0.0005   18.5108 C   0  0  0  0  0  0  0  0  0  0  0  0
    8.0842   -0.5107   18.2821 H   0  0  0  0  0  0  0  0  0  0  0  0
    6.6233   -0.0364   19.8137 C   0  0  0  0  0  0  0  0  0  0  0  0
    7.3659   -0.6581   20.9254 C   0  0  0  0  0  0  0  0  0  0  0  0
    8.4768   -1.3847   20.7281 N   0  0  0  0  0  0  0  0  0  0  0  0
    8.8832   -1.6420   21.9906 N   0  0  0  0  0  0  0  0  0  0  0  0
    9.9682   -2.3120   22.5365 C   0  0  0  0  0  0  0  0  0  0  0  0
   10.7021   -2.7805   21.9074 H   0  0  0  0  0  0  0  0  0  0  0  0
    9.8558   -2.1503   23.8779 C   0  0  0  0  0  0  0  0  0  0  0  0
   10.4846   -2.4768   24.6945 H   0  0  0  0  0  0  0  0  0  0  0  0
    8.7309   -1.3988   24.1554 N   0  0  0  0  0  0  0  0  0  0  0  0
    8.4526   -0.9253   25.4480 N   0  0  0  0  0  0  0  0  0  0  0  0
    8.8171   -1.6317   26.0842 H   0  0  0  0  0  0  0  0  0  0  0  0
    7.0229   -0.7459   25.7375 C   0  0  0  0  0  0  0  0  0  0  0  0
    6.9711   -0.4226   26.7813 H   0  0  0  0  0  0  0  0  0  0  0  0
    6.6435    0.0961   25.1405 H   0  0  0  0  0  0  0  0  0  0  0  0
    6.1342   -1.9788   25.5069 C   0  0  0  0  0  0  0  0  0  0  0  0
    5.1106   -1.6881   25.7771 H   0  0  0  0  0  0  0  0  0  0  0  0
    6.1515   -2.1914   24.4307 H   0  0  0  0  0  0  0  0  0  0  0  0
    6.5291   -3.2192   26.2827 C   0  0  0  0  0  0  0  0  0  0  0  0
    7.3928   -4.1799   25.7239 C   0  0  0  0  0  0  0  0  0  0  0  0
    7.6888   -4.0808   24.6803 H   0  0  0  0  0  0  0  0  0  0  0  0
    7.8184   -5.2901   26.4661 C   0  0  0  0  0  0  0  0  0  0  0  0
    8.4821   -6.0311   26.0190 H   0  0  0  0  0  0  0  0  0  0  0  0
    7.3392   -5.4812   27.7686 C   0  0  0  0  0  0  0  0  0  0  0  0
    7.6625   -6.3450   28.3469 H   0  0  0  0  0  0  0  0  0  0  0  0
    6.4229   -4.5742   28.3140 C   0  0  0  0  0  0  0  0  0  0  0  0
    6.0310   -4.7202   29.3201 H   0  0  0  0  0  0  0  0  0  0  0  0
    6.0251   -3.4533   27.5725 C   0  0  0  0  0  0  0  0  0  0  0  0
    5.3080   -2.7581   28.0016 H   0  0  0  0  0  0  0  0  0  0  0  0
    8.1158   -1.0950   22.9545 C   0  0  0  0  0  0  0  0  0  0  0  0
    7.0602   -0.4763   22.2943 C   0  0  0  0  0  0  0  0  0  0  0  0
    6.1864   -0.0017   22.6986 H   0  0  0  0  0  0  0  0  0  0  0  0
    5.4046    0.6263   20.0386 C   0  0  0  0  0  0  0  0  0  0  0  0
    4.9387    0.6204   21.0258 H   0  0  0  0  0  0  0  0  0  0  0  0
    4.7988    1.3027   18.9859 C   0  0  0  0  0  0  0  0  0  0  0  0
    3.8771    1.8555   19.1326 H   0  0  0  0  0  0  0  0  0  0  0  0
  1  2  1  0
  2  3  2  0
  3  4  1  0
  4  5  1  0
  4  6  2  0
  6  7  1  0
  7  8  2  0
  8  9  1  0
  9 10  1  0
 10 11  1  0
 10 12  2  0
 12 13  1  0
 12 14  1  0
 14 15  1  0
 15 16  1  0
 15 17  1  0
 17 18  1  0
 17 19  1  0
 17 20  1  0
 20 21  1  0
 20 22  1  0
 20 23  1  0
 23 24  2  0
 24 25  1  0
 24 26  1  0
 26 27  1  0
 26 28  2  0
 28 29  1  0
 28 30  1  0
 30 31  1  0
 30 32  2  0
 32 33  1  0
 14 34  1  0
 34 35  2  0
 35 36  1  0
  6 37  1  0
 37 38  1  0
 37 39  2  0
 39 40  1  0
 39  2  1  0
 35  7  1  0
 34  9  1  0
 32 23  1  0
M  END
>  <cnnaffinity>  (1) 
-5.44088

>  <filename>  (1) 
c1ccc(CCNn2ccn3nc(-c4cccnc4)cc23)cc1

$$$$
