
     RDKit          3D

 41 43  0  0  0  0  0  0  0  0999 V2000
    5.0664    1.7839   17.0215 H   0  0  0  0  0  0  0  0  0  0  0  0
    5.5528    1.2411   17.8314 C   0  0  0  0  0  0  0  0  0  0  0  0
    6.7069    0.6268   17.5364 N   0  0  0  0  0  0  0  0  0  0  0  0
    7.3441   -0.0115   18.5333 C   0  0  0  0  0  0  0  0  0  0  0  0
    8.2871   -0.4838   18.2726 H   0  0  0  0  0  0  0  0  0  0  0  0
    6.8802   -0.1061   19.8750 C   0  0  0  0  0  0  0  0  0  0  0  0
    7.6864   -0.7408   20.8690 N   0  0  0  0  0  0  0  0  0  0  0  0
    8.3068   -0.1159   21.3582 H   0  0  0  0  0  0  0  0  0  0  0  0
    7.3055   -1.7185   21.8527 C   0  0  0  0  0  0  0  0  0  0  0  0
    7.5628   -1.1174   23.1357 N   0  0  0  0  0  0  0  0  0  0  0  0
    8.5138   -0.7983   23.0386 H   0  0  0  0  0  0  0  0  0  0  0  0
    6.7050   -0.0315   23.5996 C   0  0  0  0  0  0  0  0  0  0  0  0
    5.7652    0.0001   23.0459 H   0  0  0  0  0  0  0  0  0  0  0  0
    6.4386   -0.2141   24.6504 H   0  0  0  0  0  0  0  0  0  0  0  0
    7.3683    1.3476   23.4688 C   0  0  0  0  0  0  0  0  0  0  0  0
    8.3201    1.3270   24.0114 H   0  0  0  0  0  0  0  0  0  0  0  0
    7.6069    1.5126   22.4098 H   0  0  0  0  0  0  0  0  0  0  0  0
    6.5089    2.4850   23.9663 C   0  0  0  0  0  0  0  0  0  0  0  0
    5.6759    3.1893   23.0831 C   0  0  0  0  0  0  0  0  0  0  0  0
    5.6728    2.9243   22.0252 H   0  0  0  0  0  0  0  0  0  0  0  0
    4.8586    4.2249   23.5476 C   0  0  0  0  0  0  0  0  0  0  0  0
    4.2284    4.7725   22.8511 H   0  0  0  0  0  0  0  0  0  0  0  0
    4.8598    4.5631   24.9039 C   0  0  0  0  0  0  0  0  0  0  0  0
    4.2208    5.3651   25.2652 H   0  0  0  0  0  0  0  0  0  0  0  0
    5.6838    3.8664   25.7942 C   0  0  0  0  0  0  0  0  0  0  0  0
    5.6911    4.1300   26.8485 H   0  0  0  0  0  0  0  0  0  0  0  0
    6.5013    2.8330   25.3260 C   0  0  0  0  0  0  0  0  0  0  0  0
    7.1425    2.2909   26.0189 H   0  0  0  0  0  0  0  0  0  0  0  0
    6.0009   -2.5101   21.6609 C   0  0  0  0  0  0  0  0  0  0  0  0
    5.3004   -2.0472   20.9651 H   0  0  0  0  0  0  0  0  0  0  0  0
    5.5451   -2.6959   22.6384 H   0  0  0  0  0  0  0  0  0  0  0  0
    6.8131   -3.7328   21.1640 C   0  0  0  0  0  0  0  0  0  0  0  0
    6.5378   -4.7019   21.5944 H   0  0  0  0  0  0  0  0  0  0  0  0
    6.8054   -3.8342   20.0778 H   0  0  0  0  0  0  0  0  0  0  0  0
    8.0920   -3.0512   21.7184 C   0  0  0  0  0  0  0  0  0  0  0  0
    8.3392   -3.4216   22.7193 H   0  0  0  0  0  0  0  0  0  0  0  0
    8.9906   -3.0011   21.0957 H   0  0  0  0  0  0  0  0  0  0  0  0
    5.6573    0.5332   20.1406 C   0  0  0  0  0  0  0  0  0  0  0  0
    5.2110    0.4814   21.1325 H   0  0  0  0  0  0  0  0  0  0  0  0
    4.9940    1.2210   19.1103 C   0  0  0  0  0  0  0  0  0  0  0  0
    4.0716    1.7578   19.2886 H   0  0  0  0  0  0  0  0  0  0  0  0
  1  2  1  0
  2  3  2  0
  3  4  1  0
  4  5  1  0
  4  6  2  0
  6  7  1  0
  7  8  1  0
  7  9  1  0
  9 10  1  0
 10 11  1  0
 10 12  1  0
 12 13  1  0
 12 14  1  0
 12 15  1  0
 15 16  1  0
 15 17  1  0
 15 18  1  0
 18 19  2  0
 19 20  1  0
 19 21  1  0
 21 22  1  0
 21 23  2  0
 23 24  1  0
 23 25  1  0
 25 26  1  0
 25 27  2  0
 27 28  1  0
  9 29  1  0
 29 30  1  0
 29 31  1  0
 29 32  1  0
 32 33  1  0
 32 34  1  0
 32 35  1  0
 35 36  1  0
 35 37  1  0
  6 38  1  0
 38 39  1  0
 38 40  2  0
 40 41  1  0
 40  2  1  0
 35  9  1  0
 27 18  1  0
M  END
>  <cnnaffinity>  (1) 
-4.42013

>  <filename>  (1) 
c1ccc(CCNC2(Nc3cccnc3)CCC2)cc1

$$$$
