
     RDKit          3D

 33 35  0  0  0  0  0  0  0  0999 V2000
    4.9596    1.8168   16.8493 H   0  0  0  0  0  0  0  0  0  0  0  0
    5.3866    1.3578   17.7381 C   0  0  0  0  0  0  0  0  0  0  0  0
    6.5587    0.7231   17.5783 N   0  0  0  0  0  0  0  0  0  0  0  0
    7.0990    0.1630   18.6655 C   0  0  0  0  0  0  0  0  0  0  0  0
    8.0402   -0.3574   18.5035 H   0  0  0  0  0  0  0  0  0  0  0  0
    6.5408    0.2025   19.9574 C   0  0  0  0  0  0  0  0  0  0  0  0
    7.2771   -0.4584   21.0535 C   0  0  0  0  0  0  0  0  0  0  0  0
    8.2898   -1.3957   21.0187 C   0  0  0  0  0  0  0  0  0  0  0  0
    8.8259   -1.7630   20.1601 H   0  0  0  0  0  0  0  0  0  0  0  0
    8.5361   -1.7643   22.3572 C   0  0  0  0  0  0  0  0  0  0  0  0
    9.5330   -2.8310   22.7987 C   0  0  0  0  0  0  0  0  0  0  0  0
   10.0699   -3.1115   21.8913 H   0  0  0  0  0  0  0  0  0  0  0  0
   10.2857   -2.3702   23.4459 H   0  0  0  0  0  0  0  0  0  0  0  0
    9.0815   -4.0562   23.4687 N   0  0  0  0  0  0  0  0  0  0  0  0
    9.1630   -4.0213   24.4748 H   0  0  0  0  0  0  0  0  0  0  0  0
    7.9488   -4.7943   23.1114 C   0  0  0  0  0  0  0  0  0  0  0  0
    7.1504   -5.2935   24.1594 C   0  0  0  0  0  0  0  0  0  0  0  0
    7.4374   -5.0732   25.1854 H   0  0  0  0  0  0  0  0  0  0  0  0
    6.0041   -6.0426   23.8962 C   0  0  0  0  0  0  0  0  0  0  0  0
    5.4101   -6.4363   24.7204 H   0  0  0  0  0  0  0  0  0  0  0  0
    5.6442   -6.3309   22.5755 C   0  0  0  0  0  0  0  0  0  0  0  0
    4.7268   -6.8777   22.3691 H   0  0  0  0  0  0  0  0  0  0  0  0
    6.4563   -5.8826   21.5301 C   0  0  0  0  0  0  0  0  0  0  0  0
    6.1830   -6.1207   20.5034 H   0  0  0  0  0  0  0  0  0  0  0  0
    7.5971   -5.1080   21.7857 C   0  0  0  0  0  0  0  0  0  0  0  0
    8.2070   -4.7572   20.9614 H   0  0  0  0  0  0  0  0  0  0  0  0
    7.7952   -1.0331   23.1835 N   0  0  0  0  0  0  0  0  0  0  0  0
    7.0277   -0.2789   22.3824 N   0  0  0  0  0  0  0  0  0  0  0  0
    6.4860    0.4501   22.8165 H   0  0  0  0  0  0  0  0  0  0  0  0
    5.2889    0.8366   20.0882 C   0  0  0  0  0  0  0  0  0  0  0  0
    4.7680    0.8476   21.0470 H   0  0  0  0  0  0  0  0  0  0  0  0
    4.7094    1.4231   18.9617 C   0  0  0  0  0  0  0  0  0  0  0  0
    3.7492    1.9258   19.0217 H   0  0  0  0  0  0  0  0  0  0  0  0
  1  2  1  0
  2  3  2  0
  3  4  1  0
  4  5  1  0
  4  6  2  0
  6  7  1  0
  7  8  2  0
  8  9  1  0
  8 10  1  0
 10 11  1  0
 11 12  1  0
 11 13  1  0
 11 14  1  0
 14 15  1  0
 14 16  1  0
 16 17  2  0
 17 18  1  0
 17 19  1  0
 19 20  1  0
 19 21  2  0
 21 22  1  0
 21 23  1  0
 23 24  1  0
 23 25  2  0
 25 26  1  0
 10 27  2  0
 27 28  1  0
 28 29  1  0
  6 30  1  0
 30 31  1  0
 30 32  2  0
 32 33  1  0
 32  2  1  0
 28  7  1  0
 25 16  1  0
M  END
>  <cnnaffinity>  (1) 
-5.1053

>  <filename>  (1) 
c1ccc(NCc2cc(-c3cccnc3)[nH]n2)cc1

$$$$
