
     RDKit          3D

 49 52  0  0  0  0  0  0  0  0999 V2000
    8.8020   -8.1298   29.2180 H   0  0  0  0  0  0  0  0  0  0  0  0
    7.9241   -7.5320   28.9685 C   0  0  0  0  0  0  0  0  0  0  0  0
    8.0872   -6.6265   27.9990 N   0  0  0  0  0  0  0  0  0  0  0  0
    7.0343   -5.8695   27.6852 C   0  0  0  0  0  0  0  0  0  0  0  0
    7.1961   -4.9683   26.6474 N   0  0  0  0  0  0  0  0  0  0  0  0
    6.6829   -3.5988   26.7621 C   0  0  0  0  0  0  0  0  0  0  0  0
    7.4525   -2.9432   27.2129 H   0  0  0  0  0  0  0  0  0  0  0  0
    5.8047   -3.5603   27.4102 H   0  0  0  0  0  0  0  0  0  0  0  0
    6.3105   -3.0655   25.3735 C   0  0  0  0  0  0  0  0  0  0  0  0
    5.4837   -3.6851   24.9695 H   0  0  0  0  0  0  0  0  0  0  0  0
    5.9313   -2.0422   25.4908 H   0  0  0  0  0  0  0  0  0  0  0  0
    7.4740   -3.0711   24.4617 N   0  0  0  0  0  0  0  0  0  0  0  0
    7.1673   -2.4001   23.1946 C   0  0  0  0  0  0  0  0  0  0  0  0
    6.1826   -2.7369   22.8124 H   0  0  0  0  0  0  0  0  0  0  0  0
    7.1024   -0.8725   23.4644 C   0  0  0  0  0  0  0  0  0  0  0  0
    6.0784   -0.5968   23.7378 H   0  0  0  0  0  0  0  0  0  0  0  0
    7.7274   -0.6423   24.3328 H   0  0  0  0  0  0  0  0  0  0  0  0
    7.6000   -0.0217   22.2813 C   0  0  0  0  0  0  0  0  0  0  0  0
    8.6959    0.0762   22.3782 H   0  0  0  0  0  0  0  0  0  0  0  0
    7.1888    0.9921   22.3142 H   0  0  0  0  0  0  0  0  0  0  0  0
    7.2891   -0.6477   21.0056 N   0  0  0  0  0  0  0  0  0  0  0  0
    6.6598    0.0141   19.9340 C   0  0  0  0  0  0  0  0  0  0  0  0
    7.1505    0.0151   18.5976 C   0  0  0  0  0  0  0  0  0  0  0  0
    8.0768   -0.5111   18.3633 H   0  0  0  0  0  0  0  0  0  0  0  0
    6.5646    0.6415   17.5648 N   0  0  0  0  0  0  0  0  0  0  0  0
    5.4186    1.2993   17.8059 C   0  0  0  0  0  0  0  0  0  0  0  0
    4.9622    1.8043   16.9563 H   0  0  0  0  0  0  0  0  0  0  0  0
    4.8220    1.3442   19.0704 C   0  0  0  0  0  0  0  0  0  0  0  0
    3.8873    1.8784   19.2068 H   0  0  0  0  0  0  0  0  0  0  0  0
    5.4521    0.7100   20.1459 C   0  0  0  0  0  0  0  0  0  0  0  0
    5.0232    0.7207   21.1466 H   0  0  0  0  0  0  0  0  0  0  0  0
    7.8718   -1.9621   20.7880 C   0  0  0  0  0  0  0  0  0  0  0  0
    8.7909   -1.8932   20.1790 H   0  0  0  0  0  0  0  0  0  0  0  0
    7.1370   -2.5461   20.2134 H   0  0  0  0  0  0  0  0  0  0  0  0
    8.1964   -2.6940   22.0967 C   0  0  0  0  0  0  0  0  0  0  0  0
    9.1872   -2.3978   22.4654 H   0  0  0  0  0  0  0  0  0  0  0  0
    8.2346   -3.7664   21.8811 H   0  0  0  0  0  0  0  0  0  0  0  0
    8.0321   -4.4364   24.3879 C   0  0  0  0  0  0  0  0  0  0  0  0
    7.3252   -5.1474   23.9150 H   0  0  0  0  0  0  0  0  0  0  0  0
    8.9533   -4.4293   23.7926 H   0  0  0  0  0  0  0  0  0  0  0  0
    8.3906   -4.9782   25.7843 C   0  0  0  0  0  0  0  0  0  0  0  0
    9.1869   -4.3518   26.2286 H   0  0  0  0  0  0  0  0  0  0  0  0
    8.7895   -5.9920   25.7004 H   0  0  0  0  0  0  0  0  0  0  0  0
    5.7793   -5.9825   28.3367 C   0  0  0  0  0  0  0  0  0  0  0  0
    4.9588   -5.3588   28.0075 H   0  0  0  0  0  0  0  0  0  0  0  0
    5.6242   -6.9423   29.3261 C   0  0  0  0  0  0  0  0  0  0  0  0
    4.6732   -7.0449   29.8604 H   0  0  0  0  0  0  0  0  0  0  0  0
    6.7312   -7.7398   29.6519 C   0  0  0  0  0  0  0  0  0  0  0  0
    6.6873   -8.4846   30.4326 H   0  0  0  0  0  0  0  0  0  0  0  0
  1  2  1  0
  2  3  2  0
  3  4  1  0
  4  5  1  0
  5  6  1  0
  6  7  1  0
  6  8  1  0
  6  9  1  0
  9 10  1  0
  9 11  1  0
  9 12  1  0
 12 13  1  0
 13 14  1  0
 13 15  1  0
 15 16  1  0
 15 17  1  0
 15 18  1  0
 18 19  1  0
 18 20  1  0
 18 21  1  0
 21 22  1  0
 22 23  2  0
 23 24  1  0
 23 25  1  0
 25 26  2  0
 26 27  1  0
 26 28  1  0
 28 29  1  0
 28 30  2  0
 30 31  1  0
 21 32  1  0
 32 33  1  0
 32 34  1  0
 32 35  1  0
 35 36  1  0
 35 37  1  0
 12 38  1  0
 38 39  1  0
 38 40  1  0
 38 41  1  0
 41 42  1  0
 41 43  1  0
  4 44  2  0
 44 45  1  0
 44 46  1  0
 46 47  1  0
 46 48  2  0
 48 49  1  0
 48  2  1  0
 41  5  1  0
 35 13  1  0
 30 22  1  0
M  END
>  <cnnaffinity>  (1) 
-4.99947

>  <filename>  (1) 
c1ccc(N2CCN(C3CCN(c4cccnc4)CC3)CC2)nc1

$$$$
