
     RDKit          3D

 28 30  0  0  0  0  0  0  0  0999 V2000
    4.9385    1.7805   16.9872 H   0  0  0  0  0  0  0  0  0  0  0  0
    5.4097    1.2887   17.8348 C   0  0  0  0  0  0  0  0  0  0  0  0
    6.5713    0.6638   17.5892 N   0  0  0  0  0  0  0  0  0  0  0  0
    7.1596    0.0595   18.6252 C   0  0  0  0  0  0  0  0  0  0  0  0
    8.1039   -0.4186   18.3876 H   0  0  0  0  0  0  0  0  0  0  0  0
    6.6294    0.0228   19.9235 C   0  0  0  0  0  0  0  0  0  0  0  0
    7.3502   -0.6876   20.9813 C   0  0  0  0  0  0  0  0  0  0  0  0
    6.8872   -0.7326   22.2084 N   0  0  0  0  0  0  0  0  0  0  0  0
    7.7807   -1.4878   22.9262 O   0  0  0  0  0  0  0  0  0  0  0  0
    8.7645   -1.8867   22.1090 C   0  0  0  0  0  0  0  0  0  0  0  0
   10.1066   -2.7549   22.8146 S   0  0  0  0  0  0  0  0  0  0  0  0
   11.0792   -1.2973   23.1624 C   0  0  0  0  0  0  0  0  0  0  0  0
   10.9604   -0.7161   24.4317 C   0  0  0  0  0  0  0  0  0  0  0  0
   10.3198   -1.1926   25.1717 H   0  0  0  0  0  0  0  0  0  0  0  0
   11.7315    0.4006   24.7519 C   0  0  0  0  0  0  0  0  0  0  0  0
   11.6429    0.8177   25.7459 H   0  0  0  0  0  0  0  0  0  0  0  0
   12.5872    0.9636   23.7983 C   0  0  0  0  0  0  0  0  0  0  0  0
   13.1655    1.8533   24.0390 H   0  0  0  0  0  0  0  0  0  0  0  0
   12.6834    0.3949   22.5236 C   0  0  0  0  0  0  0  0  0  0  0  0
   13.3362    0.8541   21.7880 H   0  0  0  0  0  0  0  0  0  0  0  0
   11.9365   -0.7466   22.2011 C   0  0  0  0  0  0  0  0  0  0  0  0
   12.0012   -1.2010   21.2131 H   0  0  0  0  0  0  0  0  0  0  0  0
    8.5665   -1.4100   20.8570 C   0  0  0  0  0  0  0  0  0  0  0  0
    9.2163   -1.5349   20.0069 H   0  0  0  0  0  0  0  0  0  0  0  0
    5.4098    0.6675   20.1648 C   0  0  0  0  0  0  0  0  0  0  0  0
    4.9840    0.6477   21.1729 H   0  0  0  0  0  0  0  0  0  0  0  0
    4.7974    1.3150   19.0955 C   0  0  0  0  0  0  0  0  0  0  0  0
    3.8674    1.8484   19.2434 H   0  0  0  0  0  0  0  0  0  0  0  0
  1  2  1  0
  2  3  2  0
  3  4  1  0
  4  5  1  0
  4  6  2  0
  6  7  1  0
  7  8  2  0
  8  9  1  0
  9 10  1  0
 10 11  1  0
 11 12  1  0
 12 13  2  0
 13 14  1  0
 13 15  1  0
 15 16  1  0
 15 17  2  0
 17 18  1  0
 17 19  1  0
 19 20  1  0
 19 21  2  0
 21 22  1  0
 10 23  2  0
 23 24  1  0
  6 25  1  0
 25 26  1  0
 25 27  2  0
 27 28  1  0
 27  2  1  0
 23  7  1  0
 21 12  1  0
M  END
>  <cnnaffinity>  (1) 
-5.05578

>  <filename>  (1) 
c1ccc(Sc2cc(-c3cccnc3)no2)cc1

$$$$
