
     RDKit          3D

 38 41  0  0  0  0  0  0  0  0999 V2000
    5.3574    1.6629   17.0732 H   0  0  0  0  0  0  0  0  0  0  0  0
    5.9134    1.2470   17.9113 C   0  0  0  0  0  0  0  0  0  0  0  0
    7.1013    0.6922   17.6295 N   0  0  0  0  0  0  0  0  0  0  0  0
    7.7900    0.1466   18.6383 C   0  0  0  0  0  0  0  0  0  0  0  0
    8.7630   -0.2680   18.3761 H   0  0  0  0  0  0  0  0  0  0  0  0
    7.3175    0.0826   19.9598 C   0  0  0  0  0  0  0  0  0  0  0  0
    8.0866   -0.6617   20.9689 C   0  0  0  0  0  0  0  0  0  0  0  0
    9.4204   -0.5970   20.9995 N   0  0  0  0  0  0  0  0  0  0  0  0
    9.7361   -1.3846   22.0268 N   0  0  0  0  0  0  0  0  0  0  0  0
    8.6993   -1.9859   22.6240 C   0  0  0  0  0  0  0  0  0  0  0  0
    7.5720   -1.5417   21.9772 C   0  0  0  0  0  0  0  0  0  0  0  0
    6.1749   -2.0681   22.1427 C   0  0  0  0  0  0  0  0  0  0  0  0
    5.9510   -2.2880   23.1949 H   0  0  0  0  0  0  0  0  0  0  0  0
    5.5033   -1.2797   21.7941 H   0  0  0  0  0  0  0  0  0  0  0  0
    5.8905   -3.2757   21.2798 C   0  0  0  0  0  0  0  0  0  0  0  0
    5.7716   -4.5786   21.7699 C   0  0  0  0  0  0  0  0  0  0  0  0
    5.8558   -4.7562   22.8408 H   0  0  0  0  0  0  0  0  0  0  0  0
    5.5324   -5.6438   20.8879 C   0  0  0  0  0  0  0  0  0  0  0  0
    5.3991   -6.6514   21.2767 H   0  0  0  0  0  0  0  0  0  0  0  0
    5.4520   -5.4055   19.5096 C   0  0  0  0  0  0  0  0  0  0  0  0
    5.3077   -6.2351   18.8244 H   0  0  0  0  0  0  0  0  0  0  0  0
    5.5135   -4.0922   19.0291 C   0  0  0  0  0  0  0  0  0  0  0  0
    5.3482   -3.8314   17.9867 H   0  0  0  0  0  0  0  0  0  0  0  0
    5.7449   -3.0456   19.9078 C   0  0  0  0  0  0  0  0  0  0  0  0
    5.8564   -2.0334   19.5341 H   0  0  0  0  0  0  0  0  0  0  0  0
    9.1810   -2.9678   23.6463 C   0  0  0  0  0  0  0  0  0  0  0  0
    8.6519   -2.8807   24.5985 H   0  0  0  0  0  0  0  0  0  0  0  0
    9.0296   -3.9906   23.2900 H   0  0  0  0  0  0  0  0  0  0  0  0
   10.6774   -2.5936   23.7695 C   0  0  0  0  0  0  0  0  0  0  0  0
   10.7980   -1.9553   24.6471 H   0  0  0  0  0  0  0  0  0  0  0  0
   11.3236   -3.4637   23.8804 H   0  0  0  0  0  0  0  0  0  0  0  0
   11.0400   -1.7783   22.4933 C   0  0  0  0  0  0  0  0  0  0  0  0
   11.6397   -0.8880   22.6891 H   0  0  0  0  0  0  0  0  0  0  0  0
   11.5455   -2.3726   21.7269 H   0  0  0  0  0  0  0  0  0  0  0  0
    6.0938    0.7129   20.2406 C   0  0  0  0  0  0  0  0  0  0  0  0
    5.7190    0.7609   21.2618 H   0  0  0  0  0  0  0  0  0  0  0  0
    5.3765    1.2949   19.1992 C   0  0  0  0  0  0  0  0  0  0  0  0
    4.4216    1.7731   19.3786 H   0  0  0  0  0  0  0  0  0  0  0  0
  1  2  1  0
  2  3  2  0
  3  4  1  0
  4  5  1  0
  4  6  2  0
  6  7  1  0
  7  8  2  0
  8  9  1  0
  9 10  1  0
 10 11  2  0
 11 12  1  0
 12 13  1  0
 12 14  1  0
 12 15  1  0
 15 16  2  0
 16 17  1  0
 16 18  1  0
 18 19  1  0
 18 20  2  0
 20 21  1  0
 20 22  1  0
 22 23  1  0
 22 24  2  0
 24 25  1  0
 10 26  1  0
 26 27  1  0
 26 28  1  0
 26 29  1  0
 29 30  1  0
 29 31  1  0
 29 32  1  0
 32 33  1  0
 32 34  1  0
  6 35  1  0
 35 36  1  0
 35 37  2  0
 37 38  1  0
 37  2  1  0
 11  7  1  0
 24 15  1  0
 32  9  1  0
M  END
>  <cnnaffinity>  (1) 
-5.5588

>  <filename>  (1) 
c1ccc(Cc2c(-c3cccnc3)nn3c2CCC3)cc1

$$$$
