
     RDKit          3D

 50 53  0  0  0  0  0  0  0  0999 V2000
   12.8557    5.0503   24.4958 H   0  0  0  0  0  0  0  0  0  0  0  0
   12.7265    4.6456   23.4958 C   0  0  0  0  0  0  0  0  0  0  0  0
   11.7102    3.7903   23.3606 N   0  0  0  0  0  0  0  0  0  0  0  0
   11.5468    3.2546   22.1486 C   0  0  0  0  0  0  0  0  0  0  0  0
   10.5545    2.3052   21.9828 N   0  0  0  0  0  0  0  0  0  0  0  0
   10.9194    0.9493   21.5806 C   0  0  0  0  0  0  0  0  0  0  0  0
   11.1589    0.3194   22.4593 H   0  0  0  0  0  0  0  0  0  0  0  0
   11.8112    0.9674   20.9485 H   0  0  0  0  0  0  0  0  0  0  0  0
    9.7783    0.2808   20.8048 C   0  0  0  0  0  0  0  0  0  0  0  0
    9.6291    0.7925   19.8407 H   0  0  0  0  0  0  0  0  0  0  0  0
   10.1119   -0.7389   20.5922 H   0  0  0  0  0  0  0  0  0  0  0  0
    8.5401    0.2854   21.5953 N   0  0  0  0  0  0  0  0  0  0  0  0
    7.4251   -0.5760   21.1502 C   0  0  0  0  0  0  0  0  0  0  0  0
    6.5946    0.0708   20.0056 C   0  0  0  0  0  0  0  0  0  0  0  0
    7.1361    0.0890   18.7052 C   0  0  0  0  0  0  0  0  0  0  0  0
    8.0671   -0.4343   18.4877 H   0  0  0  0  0  0  0  0  0  0  0  0
    6.5804    0.6807   17.6387 N   0  0  0  0  0  0  0  0  0  0  0  0
    5.4169    1.3146   17.8305 C   0  0  0  0  0  0  0  0  0  0  0  0
    4.9850    1.7961   16.9554 H   0  0  0  0  0  0  0  0  0  0  0  0
    4.7634    1.3450   19.0638 C   0  0  0  0  0  0  0  0  0  0  0  0
    3.8149    1.8620   19.1446 H   0  0  0  0  0  0  0  0  0  0  0  0
    5.3532    0.7130   20.1666 C   0  0  0  0  0  0  0  0  0  0  0  0
    4.8305    0.7096   21.1243 H   0  0  0  0  0  0  0  0  0  0  0  0
    7.9465   -1.9443   20.6352 C   0  0  0  0  0  0  0  0  0  0  0  0
    7.0821   -2.4397   20.1801 H   0  0  0  0  0  0  0  0  0  0  0  0
    8.6583   -1.7586   19.8324 H   0  0  0  0  0  0  0  0  0  0  0  0
    8.5914   -2.8950   21.6499 C   0  0  0  0  0  0  0  0  0  0  0  0
    8.7244   -3.8664   21.1601 H   0  0  0  0  0  0  0  0  0  0  0  0
    9.5917   -2.5274   21.9206 H   0  0  0  0  0  0  0  0  0  0  0  0
    7.7438   -3.0766   22.9116 C   0  0  0  0  0  0  0  0  0  0  0  0
    8.3043   -3.6487   23.6614 H   0  0  0  0  0  0  0  0  0  0  0  0
    6.8519   -3.6724   22.6692 H   0  0  0  0  0  0  0  0  0  0  0  0
    7.2827   -1.7314   23.4761 C   0  0  0  0  0  0  0  0  0  0  0  0
    8.1441   -1.1649   23.8561 H   0  0  0  0  0  0  0  0  0  0  0  0
    6.5988   -1.8938   24.3179 H   0  0  0  0  0  0  0  0  0  0  0  0
    6.5618   -0.9075   22.3948 C   0  0  0  0  0  0  0  0  0  0  0  0
    6.1449    0.0042   22.8361 H   0  0  0  0  0  0  0  0  0  0  0  0
    5.7312   -1.5071   22.0069 H   0  0  0  0  0  0  0  0  0  0  0  0
    8.1948    1.6815   21.9454 C   0  0  0  0  0  0  0  0  0  0  0  0
    7.2609    1.7261   22.5168 H   0  0  0  0  0  0  0  0  0  0  0  0
    8.0414    2.2866   21.0344 H   0  0  0  0  0  0  0  0  0  0  0  0
    9.3256    2.3171   22.7727 C   0  0  0  0  0  0  0  0  0  0  0  0
    9.0629    3.3446   23.0414 H   0  0  0  0  0  0  0  0  0  0  0  0
    9.4513    1.7465   23.7103 H   0  0  0  0  0  0  0  0  0  0  0  0
   12.3326    3.5840   21.0264 C   0  0  0  0  0  0  0  0  0  0  0  0
   12.0590    3.1307   20.0841 H   0  0  0  0  0  0  0  0  0  0  0  0
   13.3695    4.4912   21.1896 C   0  0  0  0  0  0  0  0  0  0  0  0
   14.0176    4.7384   20.3507 H   0  0  0  0  0  0  0  0  0  0  0  0
   13.5816    5.0291   22.4638 C   0  0  0  0  0  0  0  0  0  0  0  0
   14.3748    5.7405   22.6509 H   0  0  0  0  0  0  0  0  0  0  0  0
  1  2  1  0
  2  3  2  0
  3  4  1  0
  4  5  1  0
  5  6  1  0
  6  7  1  0
  6  8  1  0
  6  9  1  0
  9 10  1  0
  9 11  1  0
  9 12  1  0
 12 13  1  0
 13 14  1  0
 14 15  2  0
 15 16  1  0
 15 17  1  0
 17 18  2  0
 18 19  1  0
 18 20  1  0
 20 21  1  0
 20 22  2  0
 22 23  1  0
 13 24  1  0
 24 25  1  0
 24 26  1  0
 24 27  1  0
 27 28  1  0
 27 29  1  0
 27 30  1  0
 30 31  1  0
 30 32  1  0
 30 33  1  0
 33 34  1  0
 33 35  1  0
 33 36  1  0
 36 37  1  0
 36 38  1  0
 12 39  1  0
 39 40  1  0
 39 41  1  0
 39 42  1  0
 42 43  1  0
 42 44  1  0
  4 45  2  0
 45 46  1  0
 45 47  1  0
 47 48  1  0
 47 49  2  0
 49 50  1  0
 49  2  1  0
 42  5  1  0
 36 13  1  0
 22 14  1  0
M  END
>  <cnnaffinity>  (1) 
-5.57611

>  <filename>  (1) 
c1ccc(N2CCN(C3(c4cccnc4)CCCCC3)CC2)nc1

$$$$
