
     RDKit          3D

 39 41  0  0  0  0  0  0  0  0999 V2000
    4.9407    1.7981   16.9922 H   0  0  0  0  0  0  0  0  0  0  0  0
    5.3948    1.2975   17.8482 C   0  0  0  0  0  0  0  0  0  0  0  0
    6.5519    0.6625   17.6067 N   0  0  0  0  0  0  0  0  0  0  0  0
    7.1529    0.0450   18.6281 C   0  0  0  0  0  0  0  0  0  0  0  0
    8.0885   -0.4568   18.3850 H   0  0  0  0  0  0  0  0  0  0  0  0
    6.6520    0.0379   19.9353 C   0  0  0  0  0  0  0  0  0  0  0  0
    7.3971   -0.7037   20.9649 C   0  0  0  0  0  0  0  0  0  0  0  0
    7.8816   -1.9079   20.7911 N   0  0  0  0  0  0  0  0  0  0  0  0
    8.4776   -2.2518   21.9788 C   0  0  0  0  0  0  0  0  0  0  0  0
    8.9147   -3.2352   22.1064 H   0  0  0  0  0  0  0  0  0  0  0  0
    8.3857   -1.2183   22.8672 C   0  0  0  0  0  0  0  0  0  0  0  0
    8.7389   -1.0934   23.8811 H   0  0  0  0  0  0  0  0  0  0  0  0
    7.6893   -0.2188   22.2064 N   0  0  0  0  0  0  0  0  0  0  0  0
    7.4287    1.1171   22.6833 C   0  0  0  0  0  0  0  0  0  0  0  0
    7.3230    1.7821   21.8151 H   0  0  0  0  0  0  0  0  0  0  0  0
    8.3087    1.4515   23.2646 H   0  0  0  0  0  0  0  0  0  0  0  0
    6.2005    1.1425   23.4508 N   0  0  0  0  0  0  0  0  0  0  0  0
    6.2818    0.4732   24.2101 H   0  0  0  0  0  0  0  0  0  0  0  0
    5.7904    2.4623   23.9134 C   0  0  0  0  0  0  0  0  0  0  0  0
    6.6376    3.1361   24.1612 H   0  0  0  0  0  0  0  0  0  0  0  0
    5.2101    2.3497   24.8391 H   0  0  0  0  0  0  0  0  0  0  0  0
    4.8997    3.1449   22.8632 C   0  0  0  0  0  0  0  0  0  0  0  0
    4.0368    2.4903   22.6833 H   0  0  0  0  0  0  0  0  0  0  0  0
    5.4520    3.2054   21.9122 H   0  0  0  0  0  0  0  0  0  0  0  0
    4.4512    4.5192   23.3132 C   0  0  0  0  0  0  0  0  0  0  0  0
    5.2468    5.6474   23.0629 C   0  0  0  0  0  0  0  0  0  0  0  0
    6.1678    5.5281   22.4957 H   0  0  0  0  0  0  0  0  0  0  0  0
    4.8697    6.9125   23.5291 C   0  0  0  0  0  0  0  0  0  0  0  0
    5.4973    7.7743   23.3134 H   0  0  0  0  0  0  0  0  0  0  0  0
    3.6886    7.0631   24.2646 C   0  0  0  0  0  0  0  0  0  0  0  0
    3.3870    8.0474   24.6173 H   0  0  0  0  0  0  0  0  0  0  0  0
    2.8936    5.9439   24.5356 C   0  0  0  0  0  0  0  0  0  0  0  0
    1.9748    6.0495   25.1079 H   0  0  0  0  0  0  0  0  0  0  0  0
    3.2790    4.6820   24.0671 C   0  0  0  0  0  0  0  0  0  0  0  0
    2.6661    3.8108   24.2873 H   0  0  0  0  0  0  0  0  0  0  0  0
    5.4357    0.6938   20.1736 C   0  0  0  0  0  0  0  0  0  0  0  0
    5.0133    0.6962   21.1782 H   0  0  0  0  0  0  0  0  0  0  0  0
    4.7929    1.3304   19.1095 C   0  0  0  0  0  0  0  0  0  0  0  0
    3.8530    1.8561   19.2299 H   0  0  0  0  0  0  0  0  0  0  0  0
  1  2  1  0
  2  3  2  0
  3  4  1  0
  4  5  1  0
  4  6  2  0
  6  7  1  0
  7  8  2  0
  8  9  1  0
  9 10  1  0
  9 11  2  0
 11 12  1  0
 11 13  1  0
 13 14  1  0
 14 15  1  0
 14 16  1  0
 14 17  1  0
 17 18  1  0
 17 19  1  0
 19 20  1  0
 19 21  1  0
 19 22  1  0
 22 23  1  0
 22 24  1  0
 22 25  1  0
 25 26  2  0
 26 27  1  0
 26 28  1  0
 28 29  1  0
 28 30  2  0
 30 31  1  0
 30 32  1  0
 32 33  1  0
 32 34  2  0
 34 35  1  0
  6 36  1  0
 36 37  1  0
 36 38  2  0
 38 39  1  0
 38  2  1  0
 13  7  1  0
 34 25  1  0
M  END
>  <cnnaffinity>  (1) 
-4.7218

>  <filename>  (1) 
c1ccc(CCNCn2ccnc2-c2cccnc2)cc1

$$$$
