
     RDKit          3D

 42 44  0  0  0  0  0  0  0  0999 V2000
    5.0008    1.8736   16.9458 H   0  0  0  0  0  0  0  0  0  0  0  0
    5.4621    1.3378   17.7720 C   0  0  0  0  0  0  0  0  0  0  0  0
    6.6374    0.7432   17.5109 N   0  0  0  0  0  0  0  0  0  0  0  0
    7.2368    0.0994   18.5234 C   0  0  0  0  0  0  0  0  0  0  0  0
    8.1869   -0.3770   18.2851 H   0  0  0  0  0  0  0  0  0  0  0  0
    6.7148   -0.0135   19.8421 C   0  0  0  0  0  0  0  0  0  0  0  0
    7.3921   -0.6821   20.8686 N   0  0  0  0  0  0  0  0  0  0  0  0
    6.6498   -1.3274   21.9486 C   0  0  0  0  0  0  0  0  0  0  0  0
    7.1079   -2.2949   22.1690 H   0  0  0  0  0  0  0  0  0  0  0  0
    5.6316   -1.5411   21.6001 H   0  0  0  0  0  0  0  0  0  0  0  0
    6.5881   -0.5338   23.2869 C   0  0  0  0  0  0  0  0  0  0  0  0
    5.8565   -1.0220   23.9371 H   0  0  0  0  0  0  0  0  0  0  0  0
    6.2249    0.4892   23.0915 H   0  0  0  0  0  0  0  0  0  0  0  0
    7.8048   -0.4979   24.0992 N   0  0  0  0  0  0  0  0  0  0  0  0
    7.9383   -1.6066   25.0074 C   0  0  0  0  0  0  0  0  0  0  0  0
    8.9413   -1.5914   25.4521 H   0  0  0  0  0  0  0  0  0  0  0  0
    7.1826   -1.4940   25.8013 H   0  0  0  0  0  0  0  0  0  0  0  0
    7.7099   -2.8548   24.3586 O   0  0  0  0  0  0  0  0  0  0  0  0
    8.2595   -4.0150   24.8406 C   0  0  0  0  0  0  0  0  0  0  0  0
    8.6264   -4.9659   23.8743 C   0  0  0  0  0  0  0  0  0  0  0  0
    8.5000   -4.7063   22.8275 H   0  0  0  0  0  0  0  0  0  0  0  0
    9.1416   -6.1940   24.2812 C   0  0  0  0  0  0  0  0  0  0  0  0
    9.4014   -6.9462   23.5403 H   0  0  0  0  0  0  0  0  0  0  0  0
    9.3159   -6.4819   25.6384 C   0  0  0  0  0  0  0  0  0  0  0  0
    9.7611   -7.4233   25.9493 H   0  0  0  0  0  0  0  0  0  0  0  0
    8.9345   -5.5371   26.5966 C   0  0  0  0  0  0  0  0  0  0  0  0
    9.0552   -5.7587   27.6536 H   0  0  0  0  0  0  0  0  0  0  0  0
    8.3924   -4.3098   26.1999 C   0  0  0  0  0  0  0  0  0  0  0  0
    8.0311   -3.5906   26.9276 H   0  0  0  0  0  0  0  0  0  0  0  0
    9.0149   -0.0230   23.4331 C   0  0  0  0  0  0  0  0  0  0  0  0
    8.8509    1.0119   23.0923 H   0  0  0  0  0  0  0  0  0  0  0  0
    9.8009    0.0354   24.1983 H   0  0  0  0  0  0  0  0  0  0  0  0
    9.5024   -0.9089   22.2739 C   0  0  0  0  0  0  0  0  0  0  0  0
   10.5805   -0.7647   22.1400 H   0  0  0  0  0  0  0  0  0  0  0  0
    9.3601   -1.9581   22.5581 H   0  0  0  0  0  0  0  0  0  0  0  0
    8.8539   -0.6461   20.9080 C   0  0  0  0  0  0  0  0  0  0  0  0
    9.1772    0.3481   20.5545 H   0  0  0  0  0  0  0  0  0  0  0  0
    9.2693   -1.3691   20.1834 H   0  0  0  0  0  0  0  0  0  0  0  0
    5.4556    0.5834   20.0674 C   0  0  0  0  0  0  0  0  0  0  0  0
    4.9888    0.5070   21.0481 H   0  0  0  0  0  0  0  0  0  0  0  0
    4.8396    1.2808   19.0228 C   0  0  0  0  0  0  0  0  0  0  0  0
    3.8878    1.7792   19.1748 H   0  0  0  0  0  0  0  0  0  0  0  0
  1  2  1  0
  2  3  2  0
  3  4  1  0
  4  5  1  0
  4  6  2  0
  6  7  1  0
  7  8  1  0
  8  9  1  0
  8 10  1  0
  8 11  1  0
 11 12  1  0
 11 13  1  0
 11 14  1  0
 14 15  1  0
 15 16  1  0
 15 17  1  0
 15 18  1  0
 18 19  1  0
 19 20  2  0
 20 21  1  0
 20 22  1  0
 22 23  1  0
 22 24  2  0
 24 25  1  0
 24 26  1  0
 26 27  1  0
 26 28  2  0
 28 29  1  0
 14 30  1  0
 30 31  1  0
 30 32  1  0
 30 33  1  0
 33 34  1  0
 33 35  1  0
 33 36  1  0
 36 37  1  0
 36 38  1  0
  6 39  1  0
 39 40  1  0
 39 41  2  0
 41 42  1  0
 41  2  1  0
 36  7  1  0
 28 19  1  0
M  END
>  <cnnaffinity>  (1) 
-4.6811

>  <filename>  (1) 
c1ccc(OCN2CCCN(c3cccnc3)CC2)cc1

$$$$
