
     RDKit          3D

 51 55  0  0  0  0  0  0  0  0999 V2000
   13.3811    5.3506   21.9763 H   0  0  0  0  0  0  0  0  0  0  0  0
   12.5585    5.1269   22.6571 C   0  0  0  0  0  0  0  0  0  0  0  0
   11.8206    4.0657   22.3475 N   0  0  0  0  0  0  0  0  0  0  0  0
   10.7985    3.7561   23.1630 C   0  0  0  0  0  0  0  0  0  0  0  0
   10.0023    2.7016   22.7742 N   0  0  0  0  0  0  0  0  0  0  0  0
    8.8099    2.2741   23.5297 C   0  0  0  0  0  0  0  0  0  0  0  0
    9.0923    1.5858   24.3418 H   0  0  0  0  0  0  0  0  0  0  0  0
    8.3234    3.1486   23.9687 H   0  0  0  0  0  0  0  0  0  0  0  0
    7.7268    1.5624   22.6732 C   0  0  0  0  0  0  0  0  0  0  0  0
    6.9840    1.1566   23.3727 H   0  0  0  0  0  0  0  0  0  0  0  0
    7.2064    2.3001   22.0345 H   0  0  0  0  0  0  0  0  0  0  0  0
    8.3422    0.5078   21.8634 N   0  0  0  0  0  0  0  0  0  0  0  0
    7.4929   -0.5132   21.2037 C   0  0  1  0  0  0  0  0  0  0  0  0
    6.6907    0.1310   20.0566 C   0  0  0  0  0  0  0  0  0  0  0  0
    7.2409    0.2031   18.7654 C   0  0  0  0  0  0  0  0  0  0  0  0
    8.2394   -0.1873   18.5712 H   0  0  0  0  0  0  0  0  0  0  0  0
    6.6397    0.7508   17.7020 N   0  0  0  0  0  0  0  0  0  0  0  0
    5.4479    1.3317   17.9005 C   0  0  0  0  0  0  0  0  0  0  0  0
    4.9755    1.7639   17.0212 H   0  0  0  0  0  0  0  0  0  0  0  0
    4.8367    1.3985   19.1561 C   0  0  0  0  0  0  0  0  0  0  0  0
    3.8879    1.9109   19.2593 H   0  0  0  0  0  0  0  0  0  0  0  0
    5.4736    0.8114   20.2545 C   0  0  0  0  0  0  0  0  0  0  0  0
    5.0368    0.9075   21.2511 H   0  0  0  0  0  0  0  0  0  0  0  0
    8.4786   -1.6740   20.7903 C   0  0  0  0  0  0  0  0  0  0  0  0
    9.4873   -1.4355   21.1441 H   0  0  0  0  0  0  0  0  0  0  0  0
    8.5430   -1.7654   19.7139 H   0  0  0  0  0  0  0  0  0  0  0  0
    8.0314   -2.9311   21.5696 C   0  0  2  0  0  0  0  0  0  0  0  0
    8.8208   -3.6882   21.6283 H   0  0  0  0  0  0  0  0  0  0  0  0
    6.6808   -3.4728   21.0670 C   0  0  0  0  0  0  0  0  0  0  0  0
    6.4393   -4.4056   21.5936 H   0  0  0  0  0  0  0  0  0  0  0  0
    6.6418   -3.7037   19.9976 H   0  0  0  0  0  0  0  0  0  0  0  0
    5.7035   -2.3308   21.4577 C   0  0  0  0  0  0  0  0  0  0  0  0
    5.2912   -1.8592   20.5645 H   0  0  0  0  0  0  0  0  0  0  0  0
    4.8740   -2.7027   22.0681 H   0  0  0  0  0  0  0  0  0  0  0  0
    6.6087   -1.3186   22.2219 C   0  0  1  0  0  0  0  0  0  0  0  0
    6.0773   -0.6368   22.8867 H   0  0  0  0  0  0  0  0  0  0  0  0
    7.6105   -2.2702   22.8990 C   0  0  0  0  0  0  0  0  0  0  0  0
    7.1388   -2.9533   23.6196 H   0  0  0  0  0  0  0  0  0  0  0  0
    8.4284   -1.7378   23.3969 H   0  0  0  0  0  0  0  0  0  0  0  0
    9.3156    1.1712   20.9730 C   0  0  0  0  0  0  0  0  0  0  0  0
    9.6869    0.4837   20.2012 H   0  0  0  0  0  0  0  0  0  0  0  0
    8.8287    2.0163   20.4586 H   0  0  0  0  0  0  0  0  0  0  0  0
   10.4823    1.7161   21.7913 C   0  0  0  0  0  0  0  0  0  0  0  0
   10.9860    0.8748   22.2962 H   0  0  0  0  0  0  0  0  0  0  0  0
   11.1968    2.1950   21.1190 H   0  0  0  0  0  0  0  0  0  0  0  0
   10.5288    4.4903   24.3481 C   0  0  0  0  0  0  0  0  0  0  0  0
    9.7516    4.1448   25.0122 H   0  0  0  0  0  0  0  0  0  0  0  0
   11.2850    5.6179   24.6250 C   0  0  0  0  0  0  0  0  0  0  0  0
   11.0400    6.2519   25.4790 H   0  0  0  0  0  0  0  0  0  0  0  0
   12.3417    5.9401   23.7678 C   0  0  0  0  0  0  0  0  0  0  0  0
   12.9780    6.7967   23.9417 H   0  0  0  0  0  0  0  0  0  0  0  0
  1  2  1  0
  2  3  2  0
  3  4  1  0
  4  5  1  0
  5  6  1  0
  6  7  1  0
  6  8  1  0
  6  9  1  0
  9 10  1  0
  9 11  1  0
  9 12  1  0
 13 12  1  1
 13 14  1  0
 14 15  2  0
 15 16  1  0
 15 17  1  0
 17 18  2  0
 18 19  1  0
 18 20  1  0
 20 21  1  0
 20 22  2  0
 22 23  1  0
 13 24  1  0
 24 25  1  0
 24 26  1  0
 24 27  1  0
 27 28  1  1
 27 29  1  0
 29 30  1  0
 29 31  1  0
 29 32  1  0
 32 33  1  0
 32 34  1  0
 32 35  1  0
 35 36  1  1
 35 37  1  0
 37 38  1  0
 37 39  1  0
 12 40  1  0
 40 41  1  0
 40 42  1  0
 40 43  1  0
 43 44  1  0
 43 45  1  0
  4 46  2  0
 46 47  1  0
 46 48  1  0
 48 49  1  0
 48 50  2  0
 50 51  1  0
 50  2  1  0
 43  5  1  0
 35 13  1  0
 22 14  1  0
 37 27  1  0
M  END
>  <cnnaffinity>  (1) 
-5.84629

>  <filename>  (1) 
c1ccc(N2CCN([C@@]3(c4cccnc4)C[C@@H]4CC[C@H]3C4)CC2)nc1

$$$$
