
     RDKit          3D

 40 43  0  0  0  0  0  0  0  0999 V2000
    4.9834    1.8314   16.9268 H   0  0  0  0  0  0  0  0  0  0  0  0
    5.4222    1.2939   17.7646 C   0  0  0  0  0  0  0  0  0  0  0  0
    6.5717    0.6477   17.5164 N   0  0  0  0  0  0  0  0  0  0  0  0
    7.1523    0.0117   18.5392 C   0  0  0  0  0  0  0  0  0  0  0  0
    8.0890   -0.4970   18.3200 H   0  0  0  0  0  0  0  0  0  0  0  0
    6.6273   -0.0160   19.8465 C   0  0  0  0  0  0  0  0  0  0  0  0
    7.3842   -0.6484   20.9422 C   0  0  0  0  0  0  0  0  0  0  0  0
    8.5307   -1.3052   20.7019 N   0  0  0  0  0  0  0  0  0  0  0  0
    8.9410   -1.6578   21.9420 N   0  0  0  0  0  0  0  0  0  0  0  0
   10.0854   -2.2361   22.4770 C   0  0  0  0  0  0  0  0  0  0  0  0
   10.8529   -2.6187   21.8265 H   0  0  0  0  0  0  0  0  0  0  0  0
    9.9724   -2.1277   23.8226 C   0  0  0  0  0  0  0  0  0  0  0  0
   10.6647   -2.4665   24.5852 H   0  0  0  0  0  0  0  0  0  0  0  0
    8.7581   -1.4886   24.1381 N   0  0  0  0  0  0  0  0  0  0  0  0
    8.3681   -0.8245   25.3814 C   0  0  0  0  0  0  0  0  0  0  0  0
    8.5992   -1.4869   26.2244 H   0  0  0  0  0  0  0  0  0  0  0  0
    7.2757   -0.7046   25.3541 H   0  0  0  0  0  0  0  0  0  0  0  0
    8.9693    0.4725   25.6263 N   0  0  0  0  0  0  0  0  0  0  0  0
    9.9682    0.3665   25.7740 H   0  0  0  0  0  0  0  0  0  0  0  0
    8.7397    1.4746   24.5824 C   0  0  0  0  0  0  0  0  0  0  0  0
    7.6454    1.5970   24.5017 H   0  0  0  0  0  0  0  0  0  0  0  0
    9.0787    1.1392   23.5831 H   0  0  0  0  0  0  0  0  0  0  0  0
    9.3691    2.8186   24.9316 C   0  0  0  0  0  0  0  0  0  0  0  0
    8.7453    3.6425   25.8834 C   0  0  0  0  0  0  0  0  0  0  0  0
    7.8144    3.3153   26.3399 H   0  0  0  0  0  0  0  0  0  0  0  0
    9.2540    4.9058   26.1982 C   0  0  0  0  0  0  0  0  0  0  0  0
    8.7398    5.5287   26.9252 H   0  0  0  0  0  0  0  0  0  0  0  0
   10.3953    5.3814   25.5437 C   0  0  0  0  0  0  0  0  0  0  0  0
   10.7765    6.3764   25.7627 H   0  0  0  0  0  0  0  0  0  0  0  0
   11.0175    4.5895   24.5741 C   0  0  0  0  0  0  0  0  0  0  0  0
   11.8892    4.9690   24.0391 H   0  0  0  0  0  0  0  0  0  0  0  0
   10.5186    3.3109   24.2806 C   0  0  0  0  0  0  0  0  0  0  0  0
   11.0289    2.7184   23.5211 H   0  0  0  0  0  0  0  0  0  0  0  0
    8.1333   -1.2283   22.9296 C   0  0  0  0  0  0  0  0  0  0  0  0
    7.0692   -0.5847   22.3281 C   0  0  0  0  0  0  0  0  0  0  0  0
    6.2185   -0.1145   22.7911 H   0  0  0  0  0  0  0  0  0  0  0  0
    5.4014    0.6336   20.0758 C   0  0  0  0  0  0  0  0  0  0  0  0
    4.9336    0.6413   21.0635 H   0  0  0  0  0  0  0  0  0  0  0  0
    4.7963    1.3020   19.0156 C   0  0  0  0  0  0  0  0  0  0  0  0
    3.8734    1.8544   19.1522 H   0  0  0  0  0  0  0  0  0  0  0  0
  1  2  1  0
  2  3  2  0
  3  4  1  0
  4  5  1  0
  4  6  2  0
  6  7  1  0
  7  8  2  0
  8  9  1  0
  9 10  1  0
 10 11  1  0
 10 12  2  0
 12 13  1  0
 12 14  1  0
 14 15  1  0
 15 16  1  0
 15 17  1  0
 15 18  1  0
 18 19  1  0
 18 20  1  0
 20 21  1  0
 20 22  1  0
 20 23  1  0
 23 24  2  0
 24 25  1  0
 24 26  1  0
 26 27  1  0
 26 28  2  0
 28 29  1  0
 28 30  1  0
 30 31  1  0
 30 32  2  0
 32 33  1  0
 14 34  1  0
 34 35  2  0
 35 36  1  0
  6 37  1  0
 37 38  1  0
 37 39  2  0
 39 40  1  0
 39  2  1  0
 35  7  1  0
 34  9  1  0
 32 23  1  0
M  END
>  <cnnaffinity>  (1) 
-5.57523

>  <filename>  (1) 
c1ccc(CNCn2ccn3nc(-c4cccnc4)cc23)cc1

$$$$
