
     RDKit          3D

 29 31  0  0  0  0  0  0  0  0999 V2000
    4.9250    1.7834   16.9979 H   0  0  0  0  0  0  0  0  0  0  0  0
    5.4042    1.2898   17.8382 C   0  0  0  0  0  0  0  0  0  0  0  0
    6.5657    0.6758   17.5690 N   0  0  0  0  0  0  0  0  0  0  0  0
    7.1797    0.0576   18.5817 C   0  0  0  0  0  0  0  0  0  0  0  0
    8.1255   -0.4248   18.3547 H   0  0  0  0  0  0  0  0  0  0  0  0
    6.6662    0.0036   19.8887 C   0  0  0  0  0  0  0  0  0  0  0  0
    7.4054   -0.7070   20.9359 C   0  0  0  0  0  0  0  0  0  0  0  0
    8.5366   -1.3592   20.6989 N   0  0  0  0  0  0  0  0  0  0  0  0
    8.9007   -1.8437   21.8998 N   0  0  0  0  0  0  0  0  0  0  0  0
    9.7348   -2.4081   21.9865 H   0  0  0  0  0  0  0  0  0  0  0  0
    8.0453   -1.5167   22.9003 C   0  0  0  0  0  0  0  0  0  0  0  0
    8.1686   -2.1354   24.5556 S   0  0  0  0  0  0  0  0  0  0  0  0
    7.2033   -3.6259   24.3041 C   0  0  0  0  0  0  0  0  0  0  0  0
    7.8710   -4.7897   23.9066 C   0  0  0  0  0  0  0  0  0  0  0  0
    8.9548   -4.7765   23.8082 H   0  0  0  0  0  0  0  0  0  0  0  0
    7.1450   -5.9442   23.6197 C   0  0  0  0  0  0  0  0  0  0  0  0
    7.6871   -6.8337   23.3114 H   0  0  0  0  0  0  0  0  0  0  0  0
    5.7499   -5.9456   23.7430 C   0  0  0  0  0  0  0  0  0  0  0  0
    5.1892   -6.8578   23.5536 H   0  0  0  0  0  0  0  0  0  0  0  0
    5.0776   -4.7741   24.1146 C   0  0  0  0  0  0  0  0  0  0  0  0
    3.9925   -4.7651   24.1999 H   0  0  0  0  0  0  0  0  0  0  0  0
    5.8032   -3.6080   24.3849 C   0  0  0  0  0  0  0  0  0  0  0  0
    5.2906   -2.6804   24.6362 H   0  0  0  0  0  0  0  0  0  0  0  0
    7.0530   -0.7849   22.2967 C   0  0  0  0  0  0  0  0  0  0  0  0
    6.1770   -0.3907   22.7774 H   0  0  0  0  0  0  0  0  0  0  0  0
    5.4474    0.6474   20.1542 C   0  0  0  0  0  0  0  0  0  0  0  0
    5.0087    0.6355   21.1549 H   0  0  0  0  0  0  0  0  0  0  0  0
    4.8124    1.3048   19.1066 C   0  0  0  0  0  0  0  0  0  0  0  0
    3.8834    1.8349   19.2591 H   0  0  0  0  0  0  0  0  0  0  0  0
  1  2  1  0
  2  3  2  0
  3  4  1  0
  4  5  1  0
  4  6  2  0
  6  7  1  0
  7  8  2  0
  8  9  1  0
  9 10  1  0
  9 11  1  0
 11 12  1  0
 12 13  1  0
 13 14  2  0
 14 15  1  0
 14 16  1  0
 16 17  1  0
 16 18  2  0
 18 19  1  0
 18 20  1  0
 20 21  1  0
 20 22  2  0
 22 23  1  0
 11 24  2  0
 24 25  1  0
  6 26  1  0
 26 27  1  0
 26 28  2  0
 28 29  1  0
 28  2  1  0
 24  7  1  0
 22 13  1  0
M  END
>  <cnnaffinity>  (1) 
-4.99516

>  <filename>  (1) 
c1ccc(Sc2cc(-c3cccnc3)n[nH]2)cc1

$$$$
