
     RDKit          3D

 37 39  0  0  0  0  0  0  0  0999 V2000
    4.8191    1.9552   16.6781 H   0  0  0  0  0  0  0  0  0  0  0  0
    5.2783    1.5127   17.5565 C   0  0  0  0  0  0  0  0  0  0  0  0
    6.4104    0.8194   17.3489 N   0  0  0  0  0  0  0  0  0  0  0  0
    6.9975    0.2546   18.4159 C   0  0  0  0  0  0  0  0  0  0  0  0
    7.9251   -0.2825   18.2161 H   0  0  0  0  0  0  0  0  0  0  0  0
    6.4973    0.3336   19.7481 C   0  0  0  0  0  0  0  0  0  0  0  0
    7.0911   -0.3290   20.8225 N   0  0  0  0  0  0  0  0  0  0  0  0
    7.0462    0.2082   22.1875 C   0  0  0  0  0  0  0  0  0  0  0  0
    7.0700    1.3041   22.1537 H   0  0  0  0  0  0  0  0  0  0  0  0
    6.1176   -0.0802   22.7040 H   0  0  0  0  0  0  0  0  0  0  0  0
    8.2623   -0.3019   22.9648 C   0  0  0  0  0  0  0  0  0  0  0  0
    9.1536   -0.0076   22.3902 H   0  0  0  0  0  0  0  0  0  0  0  0
    8.3359    0.1643   23.9511 H   0  0  0  0  0  0  0  0  0  0  0  0
    8.2286   -1.7711   23.1254 N   0  0  0  0  0  0  0  0  0  0  0  0
    9.4861   -2.2644   23.4852 N   0  0  0  0  0  0  0  0  0  0  0  0
   10.1045   -2.5034   22.7129 H   0  0  0  0  0  0  0  0  0  0  0  0
    9.5774   -3.1994   24.5277 C   0  0  0  0  0  0  0  0  0  0  0  0
   10.6839   -4.0590   24.5319 C   0  0  0  0  0  0  0  0  0  0  0  0
   11.4383   -3.9158   23.7613 H   0  0  0  0  0  0  0  0  0  0  0  0
   10.8515   -4.9850   25.5614 C   0  0  0  0  0  0  0  0  0  0  0  0
   11.6880   -5.6678   25.4988 H   0  0  0  0  0  0  0  0  0  0  0  0
    9.9679   -5.0101   26.6462 C   0  0  0  0  0  0  0  0  0  0  0  0
   10.1437   -5.6633   27.4972 H   0  0  0  0  0  0  0  0  0  0  0  0
    8.8696   -4.1437   26.6455 C   0  0  0  0  0  0  0  0  0  0  0  0
    8.1759   -4.1548   27.4795 H   0  0  0  0  0  0  0  0  0  0  0  0
    8.6603   -3.2577   25.5846 C   0  0  0  0  0  0  0  0  0  0  0  0
    7.7970   -2.6044   25.5563 H   0  0  0  0  0  0  0  0  0  0  0  0
    7.6088   -2.4762   21.9812 C   0  0  0  0  0  0  0  0  0  0  0  0
    6.5612   -2.6828   22.2340 H   0  0  0  0  0  0  0  0  0  0  0  0
    8.1078   -3.4400   21.8379 H   0  0  0  0  0  0  0  0  0  0  0  0
    7.6225   -1.6867   20.6556 C   0  0  0  0  0  0  0  0  0  0  0  0
    8.6360   -1.6595   20.2238 H   0  0  0  0  0  0  0  0  0  0  0  0
    6.9863   -2.2298   19.9479 H   0  0  0  0  0  0  0  0  0  0  0  0
    5.3372    1.1130   19.9344 C   0  0  0  0  0  0  0  0  0  0  0  0
    4.9461    1.2428   20.9422 H   0  0  0  0  0  0  0  0  0  0  0  0
    4.7094    1.6842   18.8238 C   0  0  0  0  0  0  0  0  0  0  0  0
    3.8029    2.2709   18.9412 H   0  0  0  0  0  0  0  0  0  0  0  0
  1  2  1  0
  2  3  2  0
  3  4  1  0
  4  5  1  0
  4  6  2  0
  6  7  1  0
  7  8  1  0
  8  9  1  0
  8 10  1  0
  8 11  1  0
 11 12  1  0
 11 13  1  0
 11 14  1  0
 14 15  1  0
 15 16  1  0
 15 17  1  0
 17 18  2  0
 18 19  1  0
 18 20  1  0
 20 21  1  0
 20 22  2  0
 22 23  1  0
 22 24  1  0
 24 25  1  0
 24 26  2  0
 26 27  1  0
 14 28  1  0
 28 29  1  0
 28 30  1  0
 28 31  1  0
 31 32  1  0
 31 33  1  0
  6 34  1  0
 34 35  1  0
 34 36  2  0
 36 37  1  0
 36  2  1  0
 31  7  1  0
 26 17  1  0
M  END
>  <cnnaffinity>  (1) 
-4.65932

>  <filename>  (1) 
c1ccc(NN2CCN(c3cccnc3)CC2)cc1

$$$$
