
     RDKit          3D

 36 39  0  0  0  0  0  0  0  0999 V2000
    4.9362    1.8105   16.9747 H   0  0  0  0  0  0  0  0  0  0  0  0
    5.4032    1.2958   17.8140 C   0  0  0  0  0  0  0  0  0  0  0  0
    6.5628    0.6698   17.5623 N   0  0  0  0  0  0  0  0  0  0  0  0
    7.1641    0.0318   18.5712 C   0  0  0  0  0  0  0  0  0  0  0  0
    8.1157   -0.4370   18.3284 H   0  0  0  0  0  0  0  0  0  0  0  0
    6.6356   -0.0353   19.8730 C   0  0  0  0  0  0  0  0  0  0  0  0
    7.3683   -0.7087   20.9566 C   0  0  0  0  0  0  0  0  0  0  0  0
    8.4687   -1.4340   20.7013 N   0  0  0  0  0  0  0  0  0  0  0  0
    8.8925   -1.7640   21.9419 N   0  0  0  0  0  0  0  0  0  0  0  0
   10.0856   -2.2315   22.4708 C   0  0  0  0  0  0  0  0  0  0  0  0
   10.8525   -2.6054   21.8186 H   0  0  0  0  0  0  0  0  0  0  0  0
    9.9903   -2.0560   23.8180 C   0  0  0  0  0  0  0  0  0  0  0  0
   10.7300   -2.2105   24.5863 H   0  0  0  0  0  0  0  0  0  0  0  0
    8.7397   -1.5031   24.1269 N   0  0  0  0  0  0  0  0  0  0  0  0
    8.2623   -0.8301   25.3321 C   0  0  0  0  0  0  0  0  0  0  0  0
    8.7885   -1.2281   26.2098 H   0  0  0  0  0  0  0  0  0  0  0  0
    8.4345    0.2426   25.2190 H   0  0  0  0  0  0  0  0  0  0  0  0
    6.8658   -0.9146   25.4964 O   0  0  0  0  0  0  0  0  0  0  0  0
    6.2559   -2.1122   25.7621 C   0  0  0  0  0  0  0  0  0  0  0  0
    6.9318   -3.3228   25.9344 C   0  0  0  0  0  0  0  0  0  0  0  0
    8.0115   -3.3413   25.8451 H   0  0  0  0  0  0  0  0  0  0  0  0
    6.1928   -4.4820   26.1945 C   0  0  0  0  0  0  0  0  0  0  0  0
    6.7180   -5.4274   26.3239 H   0  0  0  0  0  0  0  0  0  0  0  0
    4.7985   -4.4272   26.2812 C   0  0  0  0  0  0  0  0  0  0  0  0
    4.2350   -5.3320   26.4786 H   0  0  0  0  0  0  0  0  0  0  0  0
    4.1309   -3.2051   26.1124 C   0  0  0  0  0  0  0  0  0  0  0  0
    3.0448   -3.1568   26.1817 H   0  0  0  0  0  0  0  0  0  0  0  0
    4.8579   -2.0453   25.8557 C   0  0  0  0  0  0  0  0  0  0  0  0
    4.3870   -1.0768   25.7141 H   0  0  0  0  0  0  0  0  0  0  0  0
    8.1115   -1.2834   22.9230 C   0  0  0  0  0  0  0  0  0  0  0  0
    7.0873   -0.5762   22.3366 C   0  0  0  0  0  0  0  0  0  0  0  0
    6.3229   -0.0022   22.8293 H   0  0  0  0  0  0  0  0  0  0  0  0
    5.4289    0.6367   20.1199 C   0  0  0  0  0  0  0  0  0  0  0  0
    4.9912    0.6413   21.1186 H   0  0  0  0  0  0  0  0  0  0  0  0
    4.7995    1.3081   19.0760 C   0  0  0  0  0  0  0  0  0  0  0  0
    3.8698    1.8475   19.2305 H   0  0  0  0  0  0  0  0  0  0  0  0
  1  2  1  0
  2  3  2  0
  3  4  1  0
  4  5  1  0
  4  6  2  0
  6  7  1  0
  7  8  2  0
  8  9  1  0
  9 10  1  0
 10 11  1  0
 10 12  2  0
 12 13  1  0
 12 14  1  0
 14 15  1  0
 15 16  1  0
 15 17  1  0
 15 18  1  0
 18 19  1  0
 19 20  2  0
 20 21  1  0
 20 22  1  0
 22 23  1  0
 22 24  2  0
 24 25  1  0
 24 26  1  0
 26 27  1  0
 26 28  2  0
 28 29  1  0
 14 30  1  0
 30 31  2  0
 31 32  1  0
  6 33  1  0
 33 34  1  0
 33 35  2  0
 35 36  1  0
 35  2  1  0
 31  7  1  0
 30  9  1  0
 28 19  1  0
M  END
>  <cnnaffinity>  (1) 
-5.40356

>  <filename>  (1) 
c1ccc(OCn2ccn3nc(-c4cccnc4)cc23)cc1

$$$$
