
     RDKit          3D

 37 40  0  0  0  0  0  0  0  0999 V2000
    5.0382    1.8212   16.7621 H   0  0  0  0  0  0  0  0  0  0  0  0
    5.4490    1.2659   17.6021 C   0  0  0  0  0  0  0  0  0  0  0  0
    6.5832    0.5882   17.3675 N   0  0  0  0  0  0  0  0  0  0  0  0
    7.1500   -0.0466   18.3984 C   0  0  0  0  0  0  0  0  0  0  0  0
    8.0622   -0.5955   18.1741 H   0  0  0  0  0  0  0  0  0  0  0  0
    6.6400   -0.0223   19.7117 C   0  0  0  0  0  0  0  0  0  0  0  0
    7.4367   -0.5457   20.8403 C   0  0  0  0  0  0  0  0  0  0  0  0
    8.6315   -1.1281   20.6312 N   0  0  0  0  0  0  0  0  0  0  0  0
    9.0467   -1.4197   21.8785 N   0  0  0  0  0  0  0  0  0  0  0  0
   10.1176   -2.1176   22.4143 C   0  0  0  0  0  0  0  0  0  0  0  0
   10.8634   -2.5399   21.7638 H   0  0  0  0  0  0  0  0  0  0  0  0
    9.9089   -2.1335   23.7555 C   0  0  0  0  0  0  0  0  0  0  0  0
   10.4602   -2.5896   24.5611 H   0  0  0  0  0  0  0  0  0  0  0  0
    8.7413   -1.4392   24.0358 N   0  0  0  0  0  0  0  0  0  0  0  0
    8.0839   -1.3864   25.2585 N   0  0  0  0  0  0  0  0  0  0  0  0
    7.1876   -0.9344   25.0763 H   0  0  0  0  0  0  0  0  0  0  0  0
    8.8162   -0.6409   26.3030 C   0  0  0  0  0  0  0  0  0  0  0  0
    9.5194    0.0725   25.8484 H   0  0  0  0  0  0  0  0  0  0  0  0
    9.4214   -1.3714   26.8619 H   0  0  0  0  0  0  0  0  0  0  0  0
    7.8986    0.1030   27.2567 C   0  0  0  0  0  0  0  0  0  0  0  0
    8.1160    1.4675   27.5074 C   0  0  0  0  0  0  0  0  0  0  0  0
    8.9235    1.9725   26.9794 H   0  0  0  0  0  0  0  0  0  0  0  0
    7.3694    2.1572   28.4690 C   0  0  0  0  0  0  0  0  0  0  0  0
    7.5740    3.2129   28.6502 H   0  0  0  0  0  0  0  0  0  0  0  0
    6.3624    1.4948   29.1729 C   0  0  0  0  0  0  0  0  0  0  0  0
    5.7599    2.0374   29.9021 H   0  0  0  0  0  0  0  0  0  0  0  0
    6.1301    0.1343   28.9332 C   0  0  0  0  0  0  0  0  0  0  0  0
    5.3789   -0.3986   29.5114 H   0  0  0  0  0  0  0  0  0  0  0  0
    6.8880   -0.5539   27.9782 C   0  0  0  0  0  0  0  0  0  0  0  0
    6.7201   -1.6188   27.8226 H   0  0  0  0  0  0  0  0  0  0  0  0
    8.1859   -1.0348   22.8459 C   0  0  0  0  0  0  0  0  0  0  0  0
    7.0979   -0.4602   22.2110 C   0  0  0  0  0  0  0  0  0  0  0  0
    6.2004   -0.0620   22.6518 H   0  0  0  0  0  0  0  0  0  0  0  0
    5.3968    0.6075   19.9097 C   0  0  0  0  0  0  0  0  0  0  0  0
    4.8999    0.5915   20.8808 H   0  0  0  0  0  0  0  0  0  0  0  0
    4.8059    1.2786   18.8435 C   0  0  0  0  0  0  0  0  0  0  0  0
    3.8874    1.8428   18.9697 H   0  0  0  0  0  0  0  0  0  0  0  0
  1  2  1  0
  2  3  2  0
  3  4  1  0
  4  5  1  0
  4  6  2  0
  6  7  1  0
  7  8  2  0
  8  9  1  0
  9 10  1  0
 10 11  1  0
 10 12  2  0
 12 13  1  0
 12 14  1  0
 14 15  1  0
 15 16  1  0
 15 17  1  0
 17 18  1  0
 17 19  1  0
 17 20  1  0
 20 21  2  0
 21 22  1  0
 21 23  1  0
 23 24  1  0
 23 25  2  0
 25 26  1  0
 25 27  1  0
 27 28  1  0
 27 29  2  0
 29 30  1  0
 14 31  1  0
 31 32  2  0
 32 33  1  0
  6 34  1  0
 34 35  1  0
 34 36  2  0
 36 37  1  0
 36  2  1  0
 32  7  1  0
 31  9  1  0
 29 20  1  0
M  END
>  <cnnaffinity>  (1) 
-4.89353

>  <filename>  (1) 
c1ccc(CNn2ccn3nc(-c4cccnc4)cc23)cc1

$$$$
