
     RDKit          3D

 39 42  0  0  0  0  0  0  0  0999 V2000
    4.9653    1.8379   16.9565 H   0  0  0  0  0  0  0  0  0  0  0  0
    5.4118    1.3038   17.7889 C   0  0  0  0  0  0  0  0  0  0  0  0
    6.5655    0.6711   17.5291 N   0  0  0  0  0  0  0  0  0  0  0  0
    7.1475    0.0089   18.5336 C   0  0  0  0  0  0  0  0  0  0  0  0
    8.1045   -0.4618   18.3119 H   0  0  0  0  0  0  0  0  0  0  0  0
    6.6110   -0.0639   19.8322 C   0  0  0  0  0  0  0  0  0  0  0  0
    7.3726   -0.7044   20.9202 C   0  0  0  0  0  0  0  0  0  0  0  0
    8.5482   -1.3210   20.6989 N   0  0  0  0  0  0  0  0  0  0  0  0
    8.9718   -1.6117   21.9517 N   0  0  0  0  0  0  0  0  0  0  0  0
   10.1796   -2.0176   22.5083 C   0  0  0  0  0  0  0  0  0  0  0  0
   10.9718   -2.3593   21.8650 H   0  0  0  0  0  0  0  0  0  0  0  0
   10.0649   -1.7960   23.8421 C   0  0  0  0  0  0  0  0  0  0  0  0
   10.7673   -1.9813   24.6408 H   0  0  0  0  0  0  0  0  0  0  0  0
    8.7882   -1.3075   24.1194 N   0  0  0  0  0  0  0  0  0  0  0  0
    8.3552   -0.5673   25.2874 C   0  0  0  0  0  0  0  0  0  0  0  0
    7.2654   -0.6217   25.3189 H   0  0  0  0  0  0  0  0  0  0  0  0
    8.7305   -1.0440   26.1972 H   0  0  0  0  0  0  0  0  0  0  0  0
    8.7693    0.8999   25.2660 C   0  0  0  0  0  0  0  0  0  0  0  0
    9.8573    0.9799   25.1474 H   0  0  0  0  0  0  0  0  0  0  0  0
    8.4600    1.3820   26.2048 H   0  0  0  0  0  0  0  0  0  0  0  0
    8.1228    1.5276   24.1646 O   0  0  0  0  0  0  0  0  0  0  0  0
    8.4591    2.8007   23.8248 C   0  0  0  0  0  0  0  0  0  0  0  0
    7.8894    3.2848   22.6369 C   0  0  0  0  0  0  0  0  0  0  0  0
    7.2642    2.6154   22.0546 H   0  0  0  0  0  0  0  0  0  0  0  0
    8.1364    4.5957   22.2328 C   0  0  0  0  0  0  0  0  0  0  0  0
    7.6808    4.9786   21.3234 H   0  0  0  0  0  0  0  0  0  0  0  0
    8.9657    5.4262   22.9968 C   0  0  0  0  0  0  0  0  0  0  0  0
    9.1564    6.4464   22.6763 H   0  0  0  0  0  0  0  0  0  0  0  0
    9.5399    4.9393   24.1692 C   0  0  0  0  0  0  0  0  0  0  0  0
   10.1891    5.5756   24.7691 H   0  0  0  0  0  0  0  0  0  0  0  0
    9.2891    3.6305   24.5913 C   0  0  0  0  0  0  0  0  0  0  0  0
    9.7199    3.2505   25.5110 H   0  0  0  0  0  0  0  0  0  0  0  0
    8.1299   -1.1926   22.9172 C   0  0  0  0  0  0  0  0  0  0  0  0
    7.0288   -0.6335   22.2903 C   0  0  0  0  0  0  0  0  0  0  0  0
    6.1890   -0.1411   22.7479 H   0  0  0  0  0  0  0  0  0  0  0  0
    5.3953    0.6004   20.0789 C   0  0  0  0  0  0  0  0  0  0  0  0
    4.9445    0.6129   21.0740 H   0  0  0  0  0  0  0  0  0  0  0  0
    4.7896    1.2971   19.0401 C   0  0  0  0  0  0  0  0  0  0  0  0
    3.8710    1.8519   19.1923 H   0  0  0  0  0  0  0  0  0  0  0  0
  1  2  1  0
  2  3  2  0
  3  4  1  0
  4  5  1  0
  4  6  2  0
  6  7  1  0
  7  8  2  0
  8  9  1  0
  9 10  1  0
 10 11  1  0
 10 12  2  0
 12 13  1  0
 12 14  1  0
 14 15  1  0
 15 16  1  0
 15 17  1  0
 15 18  1  0
 18 19  1  0
 18 20  1  0
 18 21  1  0
 21 22  1  0
 22 23  2  0
 23 24  1  0
 23 25  1  0
 25 26  1  0
 25 27  2  0
 27 28  1  0
 27 29  1  0
 29 30  1  0
 29 31  2  0
 31 32  1  0
 14 33  1  0
 33 34  2  0
 34 35  1  0
  6 36  1  0
 36 37  1  0
 36 38  2  0
 38 39  1  0
 38  2  1  0
 34  7  1  0
 33  9  1  0
 31 22  1  0
M  END
>  <cnnaffinity>  (1) 
-5.66207

>  <filename>  (1) 
c1ccc(OCCn2ccn3nc(-c4cccnc4)cc23)cc1

$$$$
