
     RDKit          3D

 38 40  0  0  0  0  0  0  0  0999 V2000
    4.9252    1.8134   17.0386 H   0  0  0  0  0  0  0  0  0  0  0  0
    5.4168    1.2910   17.8548 C   0  0  0  0  0  0  0  0  0  0  0  0
    6.5656    0.6625   17.5576 N   0  0  0  0  0  0  0  0  0  0  0  0
    7.1923    0.0183   18.5590 C   0  0  0  0  0  0  0  0  0  0  0  0
    8.1226   -0.4837   18.2907 H   0  0  0  0  0  0  0  0  0  0  0  0
    6.7169   -0.0529   19.8955 C   0  0  0  0  0  0  0  0  0  0  0  0
    7.3622   -0.7682   20.9464 N   0  0  0  0  0  0  0  0  0  0  0  0
    6.7156   -0.9219   21.7083 H   0  0  0  0  0  0  0  0  0  0  0  0
    8.4948   -0.2180   21.6117 C   0  0  0  0  0  0  0  0  0  0  0  0
    8.2934   -0.1585   23.0142 N   0  0  0  0  0  0  0  0  0  0  0  0
    8.0733   -1.1169   23.2534 H   0  0  0  0  0  0  0  0  0  0  0  0
    7.2418    0.7236   23.5128 C   0  0  0  0  0  0  0  0  0  0  0  0
    6.2383    0.4328   23.1520 H   0  0  0  0  0  0  0  0  0  0  0  0
    7.2138    0.5890   24.5980 H   0  0  0  0  0  0  0  0  0  0  0  0
    7.4685    2.2131   23.2118 C   0  0  0  0  0  0  0  0  0  0  0  0
    8.4383    2.5145   23.6312 H   0  0  0  0  0  0  0  0  0  0  0  0
    7.5336    2.3564   22.1252 H   0  0  0  0  0  0  0  0  0  0  0  0
    6.3558    3.0772   23.7803 C   0  0  0  0  0  0  0  0  0  0  0  0
    6.4031    3.5131   25.1137 C   0  0  0  0  0  0  0  0  0  0  0  0
    7.2661    3.2700   25.7317 H   0  0  0  0  0  0  0  0  0  0  0  0
    5.3526    4.2583   25.6676 C   0  0  0  0  0  0  0  0  0  0  0  0
    5.4060    4.5869   26.7012 H   0  0  0  0  0  0  0  0  0  0  0  0
    4.2353    4.5718   24.8879 C   0  0  0  0  0  0  0  0  0  0  0  0
    3.4174    5.1489   25.3169 H   0  0  0  0  0  0  0  0  0  0  0  0
    4.1718    4.1467   23.5604 C   0  0  0  0  0  0  0  0  0  0  0  0
    3.3048    4.3932   22.9518 H   0  0  0  0  0  0  0  0  0  0  0  0
    5.2266    3.4036   23.0086 C   0  0  0  0  0  0  0  0  0  0  0  0
    5.1645    3.0852   21.9684 H   0  0  0  0  0  0  0  0  0  0  0  0
    9.8511   -0.6903   21.1998 C   0  0  0  0  0  0  0  0  0  0  0  0
   10.5514   -0.9265   21.9915 H   0  0  0  0  0  0  0  0  0  0  0  0
    9.8618   -1.3387   20.3330 H   0  0  0  0  0  0  0  0  0  0  0  0
    9.4455    0.7491   20.9880 C   0  0  0  0  0  0  0  0  0  0  0  0
    9.1947    1.0435   19.9787 H   0  0  0  0  0  0  0  0  0  0  0  0
    9.8479    1.5155   21.6458 H   0  0  0  0  0  0  0  0  0  0  0  0
    5.5087    0.6044   20.1659 C   0  0  0  0  0  0  0  0  0  0  0  0
    5.1043    0.5931   21.1784 H   0  0  0  0  0  0  0  0  0  0  0  0
    4.8498    1.2822   19.1317 C   0  0  0  0  0  0  0  0  0  0  0  0
    3.9142    1.8047   19.2983 H   0  0  0  0  0  0  0  0  0  0  0  0
  1  2  1  0
  2  3  2  0
  3  4  1  0
  4  5  1  0
  4  6  2  0
  6  7  1  0
  7  8  1  0
  7  9  1  0
  9 10  1  0
 10 11  1  0
 10 12  1  0
 12 13  1  0
 12 14  1  0
 12 15  1  0
 15 16  1  0
 15 17  1  0
 15 18  1  0
 18 19  2  0
 19 20  1  0
 19 21  1  0
 21 22  1  0
 21 23  2  0
 23 24  1  0
 23 25  1  0
 25 26  1  0
 25 27  2  0
 27 28  1  0
  9 29  1  0
 29 30  1  0
 29 31  1  0
 29 32  1  0
 32 33  1  0
 32 34  1  0
  6 35  1  0
 35 36  1  0
 35 37  2  0
 37 38  1  0
 37  2  1  0
 32  9  1  0
 27 18  1  0
M  END
>  <cnnaffinity>  (1) 
-4.40506

>  <filename>  (1) 
c1ccc(CCNC2(Nc3cccnc3)CC2)cc1

$$$$
