
     RDKit          3D

 33 36  0  0  0  0  0  0  0  0999 V2000
    5.3312   -5.8632   27.4773 H   0  0  0  0  0  0  0  0  0  0  0  0
    6.2335   -5.3154   27.2087 C   0  0  0  0  0  0  0  0  0  0  0  0
    6.1617   -4.5663   26.1041 N   0  0  0  0  0  0  0  0  0  0  0  0
    7.2602   -3.8805   25.7755 C   0  0  0  0  0  0  0  0  0  0  0  0
    7.0139   -3.1314   24.6448 N   0  0  0  0  0  0  0  0  0  0  0  0
    6.1152   -3.4765   24.3211 H   0  0  0  0  0  0  0  0  0  0  0  0
    7.9373   -2.8010   23.6877 N   0  0  0  0  0  0  0  0  0  0  0  0
    9.1613   -3.4051   23.4229 C   0  0  0  0  0  0  0  0  0  0  0  0
    9.4837   -4.2566   24.0012 H   0  0  0  0  0  0  0  0  0  0  0  0
    9.7083   -2.8114   22.3334 C   0  0  0  0  0  0  0  0  0  0  0  0
   10.6769   -2.8617   21.8673 H   0  0  0  0  0  0  0  0  0  0  0  0
    8.7833   -1.8913   21.8891 N   0  0  0  0  0  0  0  0  0  0  0  0
    8.6261   -1.1891   20.7469 N   0  0  0  0  0  0  0  0  0  0  0  0
    7.4149   -0.6328   20.9243 C   0  0  0  0  0  0  0  0  0  0  0  0
    6.7144    0.1003   19.8575 C   0  0  0  0  0  0  0  0  0  0  0  0
    7.2246    0.1134   18.5503 C   0  0  0  0  0  0  0  0  0  0  0  0
    8.1683   -0.3871   18.3429 H   0  0  0  0  0  0  0  0  0  0  0  0
    6.6164    0.7073   17.5194 N   0  0  0  0  0  0  0  0  0  0  0  0
    5.4456    1.3203   17.7569 C   0  0  0  0  0  0  0  0  0  0  0  0
    4.9669    1.7899   16.8982 H   0  0  0  0  0  0  0  0  0  0  0  0
    4.8402    1.3537   19.0182 C   0  0  0  0  0  0  0  0  0  0  0  0
    3.8869    1.8551   19.1483 H   0  0  0  0  0  0  0  0  0  0  0  0
    5.4826    0.7386   20.0878 C   0  0  0  0  0  0  0  0  0  0  0  0
    5.0308    0.7585   21.0812 H   0  0  0  0  0  0  0  0  0  0  0  0
    6.8345   -0.9324   22.1742 C   0  0  0  0  0  0  0  0  0  0  0  0
    5.9895   -0.4426   22.6155 H   0  0  0  0  0  0  0  0  0  0  0  0
    7.7231   -1.8377   22.7273 C   0  0  0  0  0  0  0  0  0  0  0  0
    8.4484   -3.8701   26.5179 C   0  0  0  0  0  0  0  0  0  0  0  0
    9.2566   -3.2312   26.1884 H   0  0  0  0  0  0  0  0  0  0  0  0
    8.5088   -4.6718   27.6547 C   0  0  0  0  0  0  0  0  0  0  0  0
    9.4298   -4.7134   28.2382 H   0  0  0  0  0  0  0  0  0  0  0  0
    7.3779   -5.4183   28.0055 C   0  0  0  0  0  0  0  0  0  0  0  0
    7.3798   -6.0603   28.8764 H   0  0  0  0  0  0  0  0  0  0  0  0
  1  2  1  0
  2  3  2  0
  3  4  1  0
  4  5  1  0
  5  6  1  0
  5  7  1  0
  7  8  1  0
  8  9  1  0
  8 10  2  0
 10 11  1  0
 10 12  1  0
 12 13  1  0
 13 14  2  0
 14 15  1  0
 15 16  2  0
 16 17  1  0
 16 18  1  0
 18 19  2  0
 19 20  1  0
 19 21  1  0
 21 22  1  0
 21 23  2  0
 23 24  1  0
 14 25  1  0
 25 26  1  0
 25 27  2  0
  4 28  2  0
 28 29  1  0
 28 30  1  0
 30 31  1  0
 30 32  2  0
 32 33  1  0
 32  2  1  0
 27  7  1  0
 27 12  1  0
 23 15  1  0
M  END
>  <cnnaffinity>  (1) 
-5.04612

>  <filename>  (1) 
c1ccc(Nn2ccn3nc(-c4cccnc4)cc23)nc1

$$$$
