
     RDKit          3D

 29 31  0  0  0  0  0  0  0  0999 V2000
    4.9345    1.8171   17.0149 H   0  0  0  0  0  0  0  0  0  0  0  0
    5.4082    1.2933   17.8443 C   0  0  0  0  0  0  0  0  0  0  0  0
    6.5742    0.6784   17.5719 N   0  0  0  0  0  0  0  0  0  0  0  0
    7.1834    0.0318   18.5720 C   0  0  0  0  0  0  0  0  0  0  0  0
    8.1453   -0.4371   18.3679 H   0  0  0  0  0  0  0  0  0  0  0  0
    6.6533   -0.0638   19.8714 C   0  0  0  0  0  0  0  0  0  0  0  0
    7.4593   -0.7102   20.8173 O   0  0  0  0  0  0  0  0  0  0  0  0
    6.9789   -1.5057   21.7836 C   0  0  0  0  0  0  0  0  0  0  0  0
    5.8882   -2.2269   21.7803 N   0  0  0  0  0  0  0  0  0  0  0  0
    5.8983   -2.8945   22.9661 N   0  0  0  0  0  0  0  0  0  0  0  0
    6.9387   -2.6212   23.6551 N   0  0  0  0  0  0  0  0  0  0  0  0
    7.6695   -1.7307   22.9429 N   0  0  0  0  0  0  0  0  0  0  0  0
    8.9272   -1.3849   23.4673 N   0  0  0  0  0  0  0  0  0  0  0  0
    9.4130   -2.1945   23.8307 H   0  0  0  0  0  0  0  0  0  0  0  0
    9.7156   -0.3557   22.9218 C   0  0  0  0  0  0  0  0  0  0  0  0
    9.1709    0.9247   22.7780 C   0  0  0  0  0  0  0  0  0  0  0  0
    8.1288    1.0588   23.0475 H   0  0  0  0  0  0  0  0  0  0  0  0
    9.9585    1.9800   22.3057 C   0  0  0  0  0  0  0  0  0  0  0  0
    9.5169    2.9640   22.1790 H   0  0  0  0  0  0  0  0  0  0  0  0
   11.3051    1.7735   21.9866 C   0  0  0  0  0  0  0  0  0  0  0  0
   11.9100    2.5960   21.6073 H   0  0  0  0  0  0  0  0  0  0  0  0
   11.8547    0.4964   22.1401 C   0  0  0  0  0  0  0  0  0  0  0  0
   12.9021    0.3312   21.8971 H   0  0  0  0  0  0  0  0  0  0  0  0
   11.0672   -0.5690   22.5990 C   0  0  0  0  0  0  0  0  0  0  0  0
   11.4872   -1.5691   22.6846 H   0  0  0  0  0  0  0  0  0  0  0  0
    5.4476    0.5802   20.1610 C   0  0  0  0  0  0  0  0  0  0  0  0
    5.0288    0.5541   21.1677 H   0  0  0  0  0  0  0  0  0  0  0  0
    4.8211    1.2775   19.1123 C   0  0  0  0  0  0  0  0  0  0  0  0
    3.8948    1.8235   19.2672 H   0  0  0  0  0  0  0  0  0  0  0  0
  1  2  1  0
  2  3  2  0
  3  4  1  0
  4  5  1  0
  4  6  2  0
  6  7  1  0
  7  8  1  0
  8  9  2  0
  9 10  1  0
 10 11  2  0
 11 12  1  0
 12 13  1  0
 13 14  1  0
 13 15  1  0
 15 16  2  0
 16 17  1  0
 16 18  1  0
 18 19  1  0
 18 20  2  0
 20 21  1  0
 20 22  1  0
 22 23  1  0
 22 24  2  0
 24 25  1  0
  6 26  1  0
 26 27  1  0
 26 28  2  0
 28 29  1  0
 28  2  1  0
 12  8  1  0
 24 15  1  0
M  END
>  <cnnaffinity>  (1) 
-5.14594

>  <filename>  (1) 
c1ccc(Nn2nnnc2Oc2cccnc2)cc1

$$$$
