
     RDKit          3D

 34 37  0  0  0  0  0  0  0  0999 V2000
   11.5761    2.1305   25.2356 H   0  0  0  0  0  0  0  0  0  0  0  0
   10.4946    2.0117   25.1806 C   0  0  0  0  0  0  0  0  0  0  0  0
   10.0444    0.7696   25.3711 N   0  0  0  0  0  0  0  0  0  0  0  0
    8.7205    0.5623   25.2699 C   0  0  0  0  0  0  0  0  0  0  0  0
    8.2979   -0.8992   25.3582 C   0  0  0  0  0  0  0  0  0  0  0  0
    7.2258   -1.0147   25.5528 H   0  0  0  0  0  0  0  0  0  0  0  0
    8.8380   -1.3784   26.1834 H   0  0  0  0  0  0  0  0  0  0  0  0
    8.6323   -1.5955   24.1133 N   0  0  0  0  0  0  0  0  0  0  0  0
    9.8888   -2.1327   23.8239 C   0  0  0  0  0  0  0  0  0  0  0  0
   10.5884   -2.3252   24.6254 H   0  0  0  0  0  0  0  0  0  0  0  0
   10.0670   -2.1954   22.4847 C   0  0  0  0  0  0  0  0  0  0  0  0
   10.8673   -2.5674   21.8730 H   0  0  0  0  0  0  0  0  0  0  0  0
    8.9195   -1.6459   21.9219 N   0  0  0  0  0  0  0  0  0  0  0  0
    8.5388   -1.2743   20.6801 N   0  0  0  0  0  0  0  0  0  0  0  0
    7.3690   -0.6559   20.9066 C   0  0  0  0  0  0  0  0  0  0  0  0
    6.6192   -0.0272   19.8083 C   0  0  0  0  0  0  0  0  0  0  0  0
    7.1467   -0.0034   18.5041 C   0  0  0  0  0  0  0  0  0  0  0  0
    8.0759   -0.5268   18.2859 H   0  0  0  0  0  0  0  0  0  0  0  0
    6.5704    0.6406   17.4828 N   0  0  0  0  0  0  0  0  0  0  0  0
    5.4263    1.2961   17.7300 C   0  0  0  0  0  0  0  0  0  0  0  0
    4.9953    1.8517   16.8973 H   0  0  0  0  0  0  0  0  0  0  0  0
    4.7963    1.3001   18.9795 C   0  0  0  0  0  0  0  0  0  0  0  0
    3.8789    1.8580   19.1206 H   0  0  0  0  0  0  0  0  0  0  0  0
    5.3963    0.6228   20.0371 C   0  0  0  0  0  0  0  0  0  0  0  0
    4.9295    0.6199   21.0253 H   0  0  0  0  0  0  0  0  0  0  0  0
    7.0065   -0.6284   22.2750 C   0  0  0  0  0  0  0  0  0  0  0  0
    6.1215   -0.2023   22.7135 H   0  0  0  0  0  0  0  0  0  0  0  0
    8.0641   -1.2673   22.8932 C   0  0  0  0  0  0  0  0  0  0  0  0
    7.8141    1.6103   25.0265 C   0  0  0  0  0  0  0  0  0  0  0  0
    6.7579    1.3950   24.9185 H   0  0  0  0  0  0  0  0  0  0  0  0
    8.2903    2.9158   24.8662 C   0  0  0  0  0  0  0  0  0  0  0  0
    7.6061    3.7488   24.6868 H   0  0  0  0  0  0  0  0  0  0  0  0
    9.6706    3.1137   24.9286 C   0  0  0  0  0  0  0  0  0  0  0  0
   10.1172    4.0941   24.8091 H   0  0  0  0  0  0  0  0  0  0  0  0
  1  2  1  0
  2  3  2  0
  3  4  1  0
  4  5  1  0
  5  6  1  0
  5  7  1  0
  5  8  1  0
  8  9  1  0
  9 10  1  0
  9 11  2  0
 11 12  1  0
 11 13  1  0
 13 14  1  0
 14 15  2  0
 15 16  1  0
 16 17  2  0
 17 18  1  0
 17 19  1  0
 19 20  2  0
 20 21  1  0
 20 22  1  0
 22 23  1  0
 22 24  2  0
 24 25  1  0
 15 26  1  0
 26 27  1  0
 26 28  2  0
  4 29  2  0
 29 30  1  0
 29 31  1  0
 31 32  1  0
 31 33  2  0
 33 34  1  0
 33  2  1  0
 28  8  1  0
 28 13  1  0
 24 16  1  0
M  END
>  <cnnaffinity>  (1) 
-5.63293

>  <filename>  (1) 
c1ccc(Cn2ccn3nc(-c4cccnc4)cc23)nc1

$$$$
