
     RDKit          3D

 32 35  0  0  0  0  0  0  0  0999 V2000
    5.0487    1.7763   16.9146 H   0  0  0  0  0  0  0  0  0  0  0  0
    5.4101    1.2140   17.7725 C   0  0  0  0  0  0  0  0  0  0  0  0
    6.5059    0.4656   17.5631 N   0  0  0  0  0  0  0  0  0  0  0  0
    6.9981   -0.2078   18.6030 C   0  0  0  0  0  0  0  0  0  0  0  0
    7.8636   -0.8388   18.4089 H   0  0  0  0  0  0  0  0  0  0  0  0
    6.4639   -0.1367   19.9008 C   0  0  0  0  0  0  0  0  0  0  0  0
    7.2385   -0.7725   20.9770 C   0  0  0  0  0  0  0  0  0  0  0  0
    8.1096   -1.7381   20.7944 N   0  0  0  0  0  0  0  0  0  0  0  0
    8.5944   -2.0516   22.0128 N   0  0  0  0  0  0  0  0  0  0  0  0
    8.0887   -1.3069   22.9185 N   0  0  0  0  0  0  0  0  0  0  0  0
    7.2239   -0.4654   22.3038 N   0  0  0  0  0  0  0  0  0  0  0  0
    6.7245    0.6865   23.0292 C   0  0  0  0  0  0  0  0  0  0  0  0
    5.9076    0.4630   24.1311 C   0  0  0  0  0  0  0  0  0  0  0  0
    5.7543   -0.5559   24.4702 H   0  0  0  0  0  0  0  0  0  0  0  0
    5.3086    1.5665   24.7831 C   0  0  0  0  0  0  0  0  0  0  0  0
    4.6794    1.3899   25.6522 H   0  0  0  0  0  0  0  0  0  0  0  0
    5.5576    2.8523   24.3606 C   0  0  0  0  0  0  0  0  0  0  0  0
    5.1017    3.7106   24.8483 H   0  0  0  0  0  0  0  0  0  0  0  0
    6.5148    3.0937   23.3181 C   0  0  0  0  0  0  0  0  0  0  0  0
    6.9447    4.4119   23.0211 C   0  0  0  0  0  0  0  0  0  0  0  0
    6.3925    5.2454   23.4345 H   0  0  0  0  0  0  0  0  0  0  0  0
    8.1127    4.6579   22.2415 C   0  0  0  0  0  0  0  0  0  0  0  0
    8.4445    5.6954   22.1360 H   0  0  0  0  0  0  0  0  0  0  0  0
    8.7148    3.5760   21.7222 C   0  0  0  0  0  0  0  0  0  0  0  0
    7.9811    1.9461   20.5573 H   0  0  0  0  0  0  0  0  0  0  0  0
    8.2911    2.1974   21.6304 C   0  0  0  0  0  0  0  0  0  0  0  0
    9.1310    1.5010   21.9016 H   0  0  0  0  0  0  0  0  0  0  0  0
    7.1292    1.9831   22.6660 C   0  0  0  0  0  0  0  0  0  0  0  0
    5.2735    0.5837   20.0942 C   0  0  0  0  0  0  0  0  0  0  0  0
    4.7857    0.6075   21.0719 H   0  0  0  0  0  0  0  0  0  0  0  0
    4.7491    1.2775   19.0052 C   0  0  0  0  0  0  0  0  0  0  0  0
    3.8532    1.8834   19.0931 H   0  0  0  0  0  0  0  0  0  0  0  0
  1  2  1  0
  2  3  2  0
  3  4  1  0
  4  5  1  0
  4  6  2  0
  6  7  1  0
  7  8  2  0
  8  9  1  0
  9 10  2  0
 10 11  1  0
 11 12  1  0
 12 13  2  0
 13 14  1  0
 13 15  1  0
 15 16  1  0
 15 17  2  0
 17 18  1  0
 17 19  1  0
 19 20  2  0
 20 21  1  0
 20 22  1  0
 22 23  1  0
 22 24  2  0
 24 25  1  0
 24 26  1  0
 26 27  1  0
 26 28  2  0
  6 29  1  0
 29 30  1  0
 29 31  2  0
 31 32  1  0
 31  2  1  0
 11  7  1  0
 28 12  1  0
 28 19  1  0
M  END
>  <cnnaffinity>  (1) 
-4.4231

>  <filename>  (1) 
c1cncc(-c2nnnn2-c2cccc3ccccc23)c1

$$$$
