
     RDKit          3D

 40 43  0  0  0  0  0  0  0  0999 V2000
    4.9160    1.8484   16.9064 H   0  0  0  0  0  0  0  0  0  0  0  0
    5.3747    1.3489   17.7560 C   0  0  0  0  0  0  0  0  0  0  0  0
    6.5337    0.7157   17.5133 N   0  0  0  0  0  0  0  0  0  0  0  0
    7.1373    0.1038   18.5466 C   0  0  0  0  0  0  0  0  0  0  0  0
    8.0686   -0.4179   18.3165 H   0  0  0  0  0  0  0  0  0  0  0  0
    6.6308    0.1056   19.8792 C   0  0  0  0  0  0  0  0  0  0  0  0
    7.1924   -0.5870   20.9735 N   0  0  0  0  0  0  0  0  0  0  0  0
    7.7152    0.0879   22.1735 C   0  0  0  0  0  0  0  0  0  0  0  0
    7.2153    1.0515   22.3154 H   0  0  0  0  0  0  0  0  0  0  0  0
    8.7926    0.3096   22.0778 H   0  0  0  0  0  0  0  0  0  0  0  0
    7.5241   -0.8168   23.4076 C   0  0  0  0  0  0  0  0  0  0  0  0
    7.9416   -0.3531   24.3069 H   0  0  0  0  0  0  0  0  0  0  0  0
    6.4427   -0.9532   23.5898 H   0  0  0  0  0  0  0  0  0  0  0  0
    8.2024   -2.0893   23.1517 N   0  0  0  0  0  0  0  0  0  0  0  0
    8.8185   -2.8691   24.1691 C   0  0  0  0  0  0  0  0  0  0  0  0
   10.1981   -2.9871   24.1458 C   0  0  0  0  0  0  0  0  0  0  0  0
   10.7447   -2.4514   23.3738 H   0  0  0  0  0  0  0  0  0  0  0  0
   10.9408   -3.7331   25.0044 N   0  0  0  0  0  0  0  0  0  0  0  0
   10.3162   -4.3630   25.9722 C   0  0  0  0  0  0  0  0  0  0  0  0
   10.9362   -4.9406   26.6612 H   0  0  0  0  0  0  0  0  0  0  0  0
    8.8944   -4.3444   26.1448 C   0  0  0  0  0  0  0  0  0  0  0  0
    8.2368   -5.0417   27.2058 C   0  0  0  0  0  0  0  0  0  0  0  0
    8.8303   -5.5138   27.9868 H   0  0  0  0  0  0  0  0  0  0  0  0
    6.8672   -5.1180   27.2452 C   0  0  0  0  0  0  0  0  0  0  0  0
    6.3731   -5.6899   28.0279 H   0  0  0  0  0  0  0  0  0  0  0  0
    6.0792   -4.4781   26.2560 C   0  0  0  0  0  0  0  0  0  0  0  0
    4.9990   -4.5944   26.2736 H   0  0  0  0  0  0  0  0  0  0  0  0
    6.6835   -3.7426   25.2543 C   0  0  0  0  0  0  0  0  0  0  0  0
    6.0671   -3.2475   24.5088 H   0  0  0  0  0  0  0  0  0  0  0  0
    8.1068   -3.6352   25.1717 C   0  0  0  0  0  0  0  0  0  0  0  0
    7.6698   -2.7896   21.9914 C   0  0  0  0  0  0  0  0  0  0  0  0
    6.6155   -3.1000   22.1445 H   0  0  0  0  0  0  0  0  0  0  0  0
    8.2627   -3.6927   21.8228 H   0  0  0  0  0  0  0  0  0  0  0  0
    7.7709   -1.9013   20.7434 C   0  0  0  0  0  0  0  0  0  0  0  0
    7.1814   -2.3686   19.9521 H   0  0  0  0  0  0  0  0  0  0  0  0
    8.8243   -1.8413   20.4036 H   0  0  0  0  0  0  0  0  0  0  0  0
    5.4131    0.7718   20.0922 C   0  0  0  0  0  0  0  0  0  0  0  0
    4.9991    0.7382   21.0986 H   0  0  0  0  0  0  0  0  0  0  0  0
    4.7691    1.3886   19.0169 C   0  0  0  0  0  0  0  0  0  0  0  0
    3.8215    1.8962   19.1530 H   0  0  0  0  0  0  0  0  0  0  0  0
  1  2  1  0
  2  3  2  0
  3  4  1  0
  4  5  1  0
  4  6  2  0
  6  7  1  0
  7  8  1  0
  8  9  1  0
  8 10  1  0
  8 11  1  0
 11 12  1  0
 11 13  1  0
 11 14  1  0
 14 15  1  0
 15 16  2  0
 16 17  1  0
 16 18  1  0
 18 19  2  0
 19 20  1  0
 19 21  1  0
 21 22  2  0
 22 23  1  0
 22 24  1  0
 24 25  1  0
 24 26  2  0
 26 27  1  0
 26 28  1  0
 28 29  1  0
 28 30  2  0
 14 31  1  0
 31 32  1  0
 31 33  1  0
 31 34  1  0
 34 35  1  0
 34 36  1  0
  6 37  1  0
 37 38  1  0
 37 39  2  0
 39 40  1  0
 39  2  1  0
 34  7  1  0
 30 15  1  0
 30 21  1  0
M  END
>  <cnnaffinity>  (1) 
-5.19123

>  <filename>  (1) 
c1cncc(N2CCN(c3cncc4ccccc34)CC2)c1

$$$$
