
     RDKit          3D

 47 50  0  0  0  0  0  0  0  0999 V2000
    5.0600    1.8533   16.8970 H   0  0  0  0  0  0  0  0  0  0  0  0
    5.4522    1.3413   17.7730 C   0  0  0  0  0  0  0  0  0  0  0  0
    6.5903    0.6510   17.6008 N   0  0  0  0  0  0  0  0  0  0  0  0
    7.1002    0.0082   18.6666 C   0  0  0  0  0  0  0  0  0  0  0  0
    8.0248   -0.5429   18.4904 H   0  0  0  0  0  0  0  0  0  0  0  0
    6.5186    0.0248   19.9627 C   0  0  0  0  0  0  0  0  0  0  0  0
    7.0287   -0.6471   21.1155 N   0  0  0  0  0  0  0  0  0  0  0  0
    7.6666    0.1856   22.1409 C   0  0  0  0  0  0  0  0  0  0  0  0
    7.6498   -0.3594   23.0948 H   0  0  0  0  0  0  0  0  0  0  0  0
    7.0474    1.0747   22.2817 H   0  0  0  0  0  0  0  0  0  0  0  0
    9.1236    0.6237   21.8088 C   0  0  0  0  0  0  0  0  0  0  0  0
    9.3232    1.5996   22.2654 H   0  0  0  0  0  0  0  0  0  0  0  0
    9.1683    0.7917   20.7222 H   0  0  0  0  0  0  0  0  0  0  0  0
   10.2186   -0.2840   22.1998 N   0  0  0  0  0  0  0  0  0  0  0  0
   10.8022    0.0039   23.5189 C   0  0  0  0  0  0  0  0  0  0  0  0
   11.7127   -0.5939   23.6351 H   0  0  0  0  0  0  0  0  0  0  0  0
   11.1448    1.0461   23.5207 H   0  0  0  0  0  0  0  0  0  0  0  0
    9.8655   -0.2167   24.7077 C   0  0  0  0  0  0  0  0  0  0  0  0
    9.6101   -1.5296   25.2179 C   0  0  0  0  0  0  0  0  0  0  0  0
   10.2156   -2.3584   24.8513 H   0  0  0  0  0  0  0  0  0  0  0  0
    8.6214   -1.7693   26.1414 C   0  0  0  0  0  0  0  0  0  0  0  0
    8.4378   -2.7831   26.4847 H   0  0  0  0  0  0  0  0  0  0  0  0
    7.8330   -0.6966   26.6637 C   0  0  0  0  0  0  0  0  0  0  0  0
    6.7759   -0.8809   27.6060 C   0  0  0  0  0  0  0  0  0  0  0  0
    6.5300   -1.8926   27.9122 H   0  0  0  0  0  0  0  0  0  0  0  0
    6.1070    0.1971   28.1401 C   0  0  0  0  0  0  0  0  0  0  0  0
    5.2969    0.0356   28.8486 H   0  0  0  0  0  0  0  0  0  0  0  0
    6.4847    1.5235   27.7822 C   0  0  0  0  0  0  0  0  0  0  0  0
    6.0164    2.3687   28.2826 H   0  0  0  0  0  0  0  0  0  0  0  0
    7.4620    1.7345   26.8371 C   0  0  0  0  0  0  0  0  0  0  0  0
    7.7496    2.7426   26.5392 H   0  0  0  0  0  0  0  0  0  0  0  0
    8.1484    0.6345   26.2417 C   0  0  0  0  0  0  0  0  0  0  0  0
    9.1711    0.8383   25.2652 C   0  0  0  0  0  0  0  0  0  0  0  0
    9.3840    1.8675   24.9817 H   0  0  0  0  0  0  0  0  0  0  0  0
    9.9807   -1.7164   21.9959 C   0  0  0  0  0  0  0  0  0  0  0  0
   10.9625   -2.2066   21.9063 H   0  0  0  0  0  0  0  0  0  0  0  0
    9.5034   -2.1805   22.8758 H   0  0  0  0  0  0  0  0  0  0  0  0
    9.1192   -2.0839   20.7872 C   0  0  0  0  0  0  0  0  0  0  0  0
    9.4067   -1.4751   19.9250 H   0  0  0  0  0  0  0  0  0  0  0  0
    9.3630   -3.1248   20.5555 H   0  0  0  0  0  0  0  0  0  0  0  0
    7.5937   -1.9862   21.0075 C   0  0  0  0  0  0  0  0  0  0  0  0
    7.3376   -2.5256   21.9341 H   0  0  0  0  0  0  0  0  0  0  0  0
    7.0516   -2.5034   20.2098 H   0  0  0  0  0  0  0  0  0  0  0  0
    5.3371    0.7743   20.1076 C   0  0  0  0  0  0  0  0  0  0  0  0
    4.8799    0.8192   21.0952 H   0  0  0  0  0  0  0  0  0  0  0  0
    4.7844    1.4209   18.9994 C   0  0  0  0  0  0  0  0  0  0  0  0
    3.8672    1.9946   19.0818 H   0  0  0  0  0  0  0  0  0  0  0  0
  1  2  1  0
  2  3  2  0
  3  4  1  0
  4  5  1  0
  4  6  2  0
  6  7  1  0
  7  8  1  0
  8  9  1  0
  8 10  1  0
  8 11  1  0
 11 12  1  0
 11 13  1  0
 11 14  1  0
 14 15  1  0
 15 16  1  0
 15 17  1  0
 15 18  1  0
 18 19  2  0
 19 20  1  0
 19 21  1  0
 21 22  1  0
 21 23  2  0
 23 24  1  0
 24 25  1  0
 24 26  2  0
 26 27  1  0
 26 28  1  0
 28 29  1  0
 28 30  2  0
 30 31  1  0
 30 32  1  0
 32 33  2  0
 33 34  1  0
 14 35  1  0
 35 36  1  0
 35 37  1  0
 35 38  1  0
 38 39  1  0
 38 40  1  0
 38 41  1  0
 41 42  1  0
 41 43  1  0
  6 44  1  0
 44 45  1  0
 44 46  2  0
 46 47  1  0
 46  2  1  0
 41  7  1  0
 33 18  1  0
 32 23  1  0
M  END
>  <cnnaffinity>  (1) 
-5.06972

>  <filename>  (1) 
c1cncc(N2CCCN(Cc3ccc4ccccc4c3)CC2)c1

$$$$
