
     RDKit          3D

 32 35  0  0  0  0  0  0  0  0999 V2000
    9.1219   -2.9347   22.2891 H   0  0  0  0  0  0  0  0  0  0  0  0
    8.3948   -2.1581   22.0717 C   0  0  0  0  0  0  0  0  0  0  0  0
    7.9938   -1.8375   20.8142 N   0  0  0  0  0  0  0  0  0  0  0  0
    7.1348   -0.8638   21.0110 C   0  0  0  0  0  0  0  0  0  0  0  0
    6.4123   -0.1946   19.9175 C   0  0  0  0  0  0  0  0  0  0  0  0
    6.9645   -0.3086   18.6304 C   0  0  0  0  0  0  0  0  0  0  0  0
    7.8336   -0.9401   18.4642 H   0  0  0  0  0  0  0  0  0  0  0  0
    6.5035    0.3493   17.5633 N   0  0  0  0  0  0  0  0  0  0  0  0
    5.4419    1.1488   17.7408 C   0  0  0  0  0  0  0  0  0  0  0  0
    5.1159    1.7187   16.8703 H   0  0  0  0  0  0  0  0  0  0  0  0
    4.7794    1.2800   18.9652 C   0  0  0  0  0  0  0  0  0  0  0  0
    3.9272    1.9440   19.0395 H   0  0  0  0  0  0  0  0  0  0  0  0
    5.2538    0.5806   20.0749 C   0  0  0  0  0  0  0  0  0  0  0  0
    4.7557    0.6442   21.0442 H   0  0  0  0  0  0  0  0  0  0  0  0
    7.0582   -0.5850   22.3586 N   0  0  0  0  0  0  0  0  0  0  0  0
    6.6018    0.5836   23.0562 C   0  0  0  0  0  0  0  0  0  0  0  0
    5.7541    0.4208   24.1508 C   0  0  0  0  0  0  0  0  0  0  0  0
    5.5266   -0.5651   24.5464 H   0  0  0  0  0  0  0  0  0  0  0  0
    5.1666    1.4674   24.7710 N   0  0  0  0  0  0  0  0  0  0  0  0
    5.4648    2.6841   24.3598 C   0  0  0  0  0  0  0  0  0  0  0  0
    4.9608    3.5054   24.8658 H   0  0  0  0  0  0  0  0  0  0  0  0
    6.4578    2.9705   23.3583 C   0  0  0  0  0  0  0  0  0  0  0  0
    6.9053    4.2954   23.1096 C   0  0  0  0  0  0  0  0  0  0  0  0
    6.3713    5.1333   23.5415 H   0  0  0  0  0  0  0  0  0  0  0  0
    8.0748    4.5405   22.3291 C   0  0  0  0  0  0  0  0  0  0  0  0
    8.4187    5.5779   22.2352 H   0  0  0  0  0  0  0  0  0  0  0  0
    8.6587    3.4670   21.7798 C   0  0  0  0  0  0  0  0  0  0  0  0
    8.0461    1.7718   20.6547 H   0  0  0  0  0  0  0  0  0  0  0  0
    8.2752    2.0716   21.7300 C   0  0  0  0  0  0  0  0  0  0  0  0
    9.1274    1.4157   22.0595 H   0  0  0  0  0  0  0  0  0  0  0  0
    7.0681    1.8630   22.7122 C   0  0  0  0  0  0  0  0  0  0  0  0
    7.8612   -1.4450   23.0362 N   0  0  0  0  0  0  0  0  0  0  0  0
  1  2  1  0
  2  3  1  0
  3  4  2  0
  4  5  1  0
  5  6  2  0
  6  7  1  0
  6  8  1  0
  8  9  2  0
  9 10  1  0
  9 11  1  0
 11 12  1  0
 11 13  2  0
 13 14  1  0
  4 15  1  0
 15 16  1  0
 16 17  2  0
 17 18  1  0
 17 19  1  0
 19 20  2  0
 20 21  1  0
 20 22  1  0
 22 23  2  0
 23 24  1  0
 23 25  1  0
 25 26  1  0
 25 27  2  0
 27 28  1  0
 27 29  1  0
 29 30  1  0
 29 31  2  0
 15 32  1  0
 32  2  2  0
 13  5  1  0
 31 16  1  0
 31 22  1  0
M  END
>  <cnnaffinity>  (1) 
-4.63165

>  <filename>  (1) 
c1cncc(-c2ncnn2-c2cncc3ccccc23)c1

$$$$
