
     RDKit          3D

 43 46  0  0  0  0  0  0  0  0999 V2000
    4.9095    1.8467   16.9215 H   0  0  0  0  0  0  0  0  0  0  0  0
    5.3633    1.3272   17.7601 C   0  0  0  0  0  0  0  0  0  0  0  0
    6.5282    0.7056   17.5154 N   0  0  0  0  0  0  0  0  0  0  0  0
    7.1341    0.1013   18.5510 C   0  0  0  0  0  0  0  0  0  0  0  0
    8.0883   -0.3713   18.3202 H   0  0  0  0  0  0  0  0  0  0  0  0
    6.6070    0.0452   19.8743 C   0  0  0  0  0  0  0  0  0  0  0  0
    7.2875   -0.5357   20.9744 N   0  0  0  0  0  0  0  0  0  0  0  0
    6.6692   -1.5488   21.8237 C   0  0  0  0  0  0  0  0  0  0  0  0
    5.6298   -1.6826   21.5011 H   0  0  0  0  0  0  0  0  0  0  0  0
    6.6420   -1.2111   22.8749 H   0  0  0  0  0  0  0  0  0  0  0  0
    7.3390   -2.9468   21.7747 C   0  0  0  0  0  0  0  0  0  0  0  0
    7.4893   -3.2147   20.7228 H   0  0  0  0  0  0  0  0  0  0  0  0
    6.6255   -3.6812   22.1656 H   0  0  0  0  0  0  0  0  0  0  0  0
    8.5961   -3.1158   22.5134 N   0  0  0  0  0  0  0  0  0  0  0  0
    8.5453   -3.6209   23.8244 C   0  0  0  0  0  0  0  0  0  0  0  0
    9.6954   -4.2976   24.4032 C   0  0  0  0  0  0  0  0  0  0  0  0
   10.6107   -4.3697   23.8163 H   0  0  0  0  0  0  0  0  0  0  0  0
    9.7379   -4.8412   25.5956 N   0  0  0  0  0  0  0  0  0  0  0  0
    8.6114   -4.7336   26.3759 C   0  0  0  0  0  0  0  0  0  0  0  0
    8.6462   -5.3212   27.6645 C   0  0  0  0  0  0  0  0  0  0  0  0
    9.5940   -5.7661   27.9384 H   0  0  0  0  0  0  0  0  0  0  0  0
    7.5454   -5.2782   28.4879 C   0  0  0  0  0  0  0  0  0  0  0  0
    7.5626   -5.7816   29.4490 H   0  0  0  0  0  0  0  0  0  0  0  0
    6.3818   -4.5655   28.0833 C   0  0  0  0  0  0  0  0  0  0  0  0
    5.5482   -4.4967   28.7787 H   0  0  0  0  0  0  0  0  0  0  0  0
    6.3261   -3.9565   26.8506 C   0  0  0  0  0  0  0  0  0  0  0  0
    5.4402   -3.3934   26.5586 H   0  0  0  0  0  0  0  0  0  0  0  0
    7.4266   -4.0470   25.9472 C   0  0  0  0  0  0  0  0  0  0  0  0
    7.4166   -3.4940   24.6286 C   0  0  0  0  0  0  0  0  0  0  0  0
    6.5426   -2.9505   24.2752 H   0  0  0  0  0  0  0  0  0  0  0  0
    9.7872   -2.3247   22.1805 C   0  0  0  0  0  0  0  0  0  0  0  0
   10.6410   -2.9993   22.0205 H   0  0  0  0  0  0  0  0  0  0  0  0
   10.0832   -1.7364   23.0659 H   0  0  0  0  0  0  0  0  0  0  0  0
    9.6466   -1.3626   21.0056 C   0  0  0  0  0  0  0  0  0  0  0  0
    9.3259   -1.9010   20.1103 H   0  0  0  0  0  0  0  0  0  0  0  0
   10.6385   -0.9576   20.7783 H   0  0  0  0  0  0  0  0  0  0  0  0
    8.6753   -0.1992   21.2527 C   0  0  0  0  0  0  0  0  0  0  0  0
    8.7754    0.1588   22.2962 H   0  0  0  0  0  0  0  0  0  0  0  0
    8.9494    0.6560   20.6232 H   0  0  0  0  0  0  0  0  0  0  0  0
    5.3646    0.6672   20.0814 C   0  0  0  0  0  0  0  0  0  0  0  0
    4.9528    0.6610   21.0911 H   0  0  0  0  0  0  0  0  0  0  0  0
    4.7503    1.3295   19.0172 C   0  0  0  0  0  0  0  0  0  0  0  0
    3.8168    1.8578   19.1601 H   0  0  0  0  0  0  0  0  0  0  0  0
  1  2  1  0
  2  3  2  0
  3  4  1  0
  4  5  1  0
  4  6  2  0
  6  7  1  0
  7  8  1  0
  8  9  1  0
  8 10  1  0
  8 11  1  0
 11 12  1  0
 11 13  1  0
 11 14  1  0
 14 15  1  0
 15 16  2  0
 16 17  1  0
 16 18  1  0
 18 19  2  0
 19 20  1  0
 20 21  1  0
 20 22  2  0
 22 23  1  0
 22 24  1  0
 24 25  1  0
 24 26  2  0
 26 27  1  0
 26 28  1  0
 28 29  2  0
 29 30  1  0
 14 31  1  0
 31 32  1  0
 31 33  1  0
 31 34  1  0
 34 35  1  0
 34 36  1  0
 34 37  1  0
 37 38  1  0
 37 39  1  0
  6 40  1  0
 40 41  1  0
 40 42  2  0
 42 43  1  0
 42  2  1  0
 37  7  1  0
 29 15  1  0
 28 19  1  0
M  END
>  <cnnaffinity>  (1) 
-5.48298

>  <filename>  (1) 
c1cncc(N2CCCN(c3cnc4ccccc4c3)CC2)c1

$$$$
