
     RDKit          3D

 23 24  0  0  0  0  0  0  0  0999 V2000
    4.9231    1.7793   16.9923 H   0  0  0  0  0  0  0  0  0  0  0  0
    5.4061    1.2903   17.8397 C   0  0  0  0  0  0  0  0  0  0  0  0
    6.5742    0.6657   17.5962 N   0  0  0  0  0  0  0  0  0  0  0  0
    7.1745    0.0532   18.6279 C   0  0  0  0  0  0  0  0  0  0  0  0
    8.1190   -0.4331   18.4023 H   0  0  0  0  0  0  0  0  0  0  0  0
    6.6605   -0.0005   19.9394 C   0  0  0  0  0  0  0  0  0  0  0  0
    7.4039   -0.7084   20.9326 N   0  0  0  0  0  0  0  0  0  0  0  0
    6.9751   -0.7710   22.0895 N   0  0  0  0  0  0  0  0  0  0  0  0
    7.6898   -1.4471   23.0376 O   0  0  0  0  0  0  0  0  0  0  0  0
    7.2530   -1.5500   24.3569 C   0  0  0  0  0  0  0  0  0  0  0  0
    6.0707   -0.9725   24.8533 C   0  0  0  0  0  0  0  0  0  0  0  0
    5.4470   -0.3515   24.2360 H   0  0  0  0  0  0  0  0  0  0  0  0
    5.6616   -1.0916   26.1214 N   0  0  0  0  0  0  0  0  0  0  0  0
    6.4385   -1.7820   26.9607 C   0  0  0  0  0  0  0  0  0  0  0  0
    6.0787   -1.8472   27.9824 H   0  0  0  0  0  0  0  0  0  0  0  0
    7.6401   -2.3778   26.5668 C   0  0  0  0  0  0  0  0  0  0  0  0
    8.2228   -2.9194   27.3021 H   0  0  0  0  0  0  0  0  0  0  0  0
    8.0690   -2.2700   25.2416 C   0  0  0  0  0  0  0  0  0  0  0  0
    9.0026   -2.7261   24.9134 H   0  0  0  0  0  0  0  0  0  0  0  0
    5.4363    0.6507   20.1733 C   0  0  0  0  0  0  0  0  0  0  0  0
    4.9873    0.6433   21.1690 H   0  0  0  0  0  0  0  0  0  0  0  0
    4.8085    1.3078   19.1064 C   0  0  0  0  0  0  0  0  0  0  0  0
    3.8759    1.8411   19.2612 H   0  0  0  0  0  0  0  0  0  0  0  0
  1  2  1  0
  2  3  2  0
  3  4  1  0
  4  5  1  0
  4  6  2  0
  6  7  1  0
  7  8  2  3
  8  9  1  0
  9 10  1  0
 10 11  2  0
 11 12  1  0
 11 13  1  0
 13 14  2  0
 14 15  1  0
 14 16  1  0
 16 17  1  0
 16 18  2  0
 18 19  1  0
  6 20  1  0
 20 21  1  0
 20 22  2  0
 22 23  1  0
 22  2  1  0
 18 10  1  0
M  END
>  <cnnaffinity>  (1) 
-4.09588

>  <filename>  (1) 
c1cncc(N=NOc2cccnc2)c1

$$$$
