
     RDKit          3D

 34 37  0  0  0  0  0  0  0  0999 V2000
    8.6652   -3.6861   21.4443 H   0  0  0  0  0  0  0  0  0  0  0  0
    8.3839   -2.6614   21.6555 C   0  0  0  0  0  0  0  0  0  0  0  0
    8.7089   -2.1941   22.8593 N   0  0  0  0  0  0  0  0  0  0  0  0
    8.3567   -0.9329   23.1030 C   0  0  0  0  0  0  0  0  0  0  0  0
    8.6139   -0.5153   24.0770 H   0  0  0  0  0  0  0  0  0  0  0  0
    7.6932   -0.1173   22.1828 C   0  0  0  0  0  0  0  0  0  0  0  0
    7.4238    1.3233   22.4823 C   0  0  0  0  0  0  0  0  0  0  0  0
    8.0609    2.3301   21.7688 C   0  0  0  0  0  0  0  0  0  0  0  0
    8.7635    2.0427   20.9904 H   0  0  0  0  0  0  0  0  0  0  0  0
    7.8964    3.6622   21.9836 N   0  0  0  0  0  0  0  0  0  0  0  0
    7.0421    4.0157   22.9181 C   0  0  0  0  0  0  0  0  0  0  0  0
    6.9021    5.0813   23.0935 H   0  0  0  0  0  0  0  0  0  0  0  0
    6.2925    3.1052   23.7212 C   0  0  0  0  0  0  0  0  0  0  0  0
    5.3704    3.5345   24.7252 C   0  0  0  0  0  0  0  0  0  0  0  0
    5.2380    4.6030   24.8991 H   0  0  0  0  0  0  0  0  0  0  0  0
    4.6602    2.6143   25.4529 C   0  0  0  0  0  0  0  0  0  0  0  0
    3.9583    2.9404   26.2167 H   0  0  0  0  0  0  0  0  0  0  0  0
    4.8258    1.2235   25.2187 C   0  0  0  0  0  0  0  0  0  0  0  0
    4.2554    0.5014   25.7943 H   0  0  0  0  0  0  0  0  0  0  0  0
    5.7107    0.7841   24.2607 C   0  0  0  0  0  0  0  0  0  0  0  0
    5.8291   -0.2790   24.0717 H   0  0  0  0  0  0  0  0  0  0  0  0
    6.4855    1.7074   23.4968 C   0  0  0  0  0  0  0  0  0  0  0  0
    7.4006   -0.7397   20.9486 C   0  0  0  0  0  0  0  0  0  0  0  0
    6.6531   -0.0177   19.9008 C   0  0  0  0  0  0  0  0  0  0  0  0
    7.1737    0.0391   18.6043 C   0  0  0  0  0  0  0  0  0  0  0  0
    8.1254   -0.4376   18.3740 H   0  0  0  0  0  0  0  0  0  0  0  0
    6.5749    0.6753   17.5939 N   0  0  0  0  0  0  0  0  0  0  0  0
    5.4079    1.2884   17.8490 C   0  0  0  0  0  0  0  0  0  0  0  0
    4.9180    1.7742   17.0051 H   0  0  0  0  0  0  0  0  0  0  0  0
    4.8078    1.3045   19.1129 C   0  0  0  0  0  0  0  0  0  0  0  0
    3.8762    1.8418   19.2632 H   0  0  0  0  0  0  0  0  0  0  0  0
    5.4448    0.6474   20.1631 C   0  0  0  0  0  0  0  0  0  0  0  0
    5.0120    0.6430   21.1698 H   0  0  0  0  0  0  0  0  0  0  0  0
    7.7659   -1.9970   20.6833 N   0  0  0  0  0  0  0  0  0  0  0  0
  1  2  1  0
  2  3  2  0
  3  4  1  0
  4  5  1  0
  4  6  2  0
  6  7  1  0
  7  8  2  0
  8  9  1  0
  8 10  1  0
 10 11  2  0
 11 12  1  0
 11 13  1  0
 13 14  2  0
 14 15  1  0
 14 16  1  0
 16 17  1  0
 16 18  2  0
 18 19  1  0
 18 20  1  0
 20 21  1  0
 20 22  2  0
  6 23  1  0
 23 24  1  0
 24 25  2  0
 25 26  1  0
 25 27  1  0
 27 28  2  0
 28 29  1  0
 28 30  1  0
 30 31  1  0
 30 32  2  0
 32 33  1  0
 23 34  2  0
 34  2  1  0
 22  7  1  0
 32 24  1  0
 22 13  1  0
M  END
>  <cnnaffinity>  (1) 
-5.07896

>  <filename>  (1) 
c1cncc(-c2ncncc2-c2cncc3ccccc23)c1

$$$$
