
     RDKit          3D

 32 35  0  0  0  0  0  0  0  0999 V2000
    4.9143    1.7889   16.9913 H   0  0  0  0  0  0  0  0  0  0  0  0
    5.3942    1.2975   17.8341 C   0  0  0  0  0  0  0  0  0  0  0  0
    6.5555    0.6792   17.5696 N   0  0  0  0  0  0  0  0  0  0  0  0
    7.1570    0.0446   18.5793 C   0  0  0  0  0  0  0  0  0  0  0  0
    8.1196   -0.4220   18.3696 H   0  0  0  0  0  0  0  0  0  0  0  0
    6.6249   -0.0276   19.8807 C   0  0  0  0  0  0  0  0  0  0  0  0
    7.5588   -0.8417   21.1848 S   0  0  0  0  0  0  0  0  0  0  0  0
    8.5858    0.5407   21.5842 C   0  0  0  0  0  0  0  0  0  0  0  0
    9.7651    0.7837   21.0641 N   0  0  0  0  0  0  0  0  0  0  0  0
   10.1256    1.9995   21.5332 N   0  0  0  0  0  0  0  0  0  0  0  0
    9.2240    2.5062   22.2838 N   0  0  0  0  0  0  0  0  0  0  0  0
    8.2126    1.6018   22.3449 N   0  0  0  0  0  0  0  0  0  0  0  0
    6.9805    1.8667   23.0286 C   0  0  0  0  0  0  0  0  0  0  0  0
    6.2157    2.9619   22.6786 C   0  0  0  0  0  0  0  0  0  0  0  0
    6.5657    3.6596   21.9216 H   0  0  0  0  0  0  0  0  0  0  0  0
    4.9993    3.2304   23.2134 N   0  0  0  0  0  0  0  0  0  0  0  0
    4.5297    2.4117   24.1344 C   0  0  0  0  0  0  0  0  0  0  0  0
    3.5513    2.6378   24.5534 H   0  0  0  0  0  0  0  0  0  0  0  0
    5.2231    1.2581   24.6075 C   0  0  0  0  0  0  0  0  0  0  0  0
    4.6879    0.3922   25.6160 C   0  0  0  0  0  0  0  0  0  0  0  0
    3.7061    0.6024   26.0391 H   0  0  0  0  0  0  0  0  0  0  0  0
    5.4193   -0.6882   26.0533 C   0  0  0  0  0  0  0  0  0  0  0  0
    5.0208   -1.3468   26.8237 H   0  0  0  0  0  0  0  0  0  0  0  0
    6.7098   -0.9545   25.5155 C   0  0  0  0  0  0  0  0  0  0  0  0
    7.2825   -1.8065   25.8770 H   0  0  0  0  0  0  0  0  0  0  0  0
    7.2489   -0.1381   24.5464 C   0  0  0  0  0  0  0  0  0  0  0  0
    8.2419   -0.3203   24.1449 H   0  0  0  0  0  0  0  0  0  0  0  0
    6.5059    0.9787   24.0499 C   0  0  0  0  0  0  0  0  0  0  0  0
    5.4243    0.6374   20.1508 C   0  0  0  0  0  0  0  0  0  0  0  0
    5.0030    0.6254   21.1599 H   0  0  0  0  0  0  0  0  0  0  0  0
    4.7973    1.3130   19.0997 C   0  0  0  0  0  0  0  0  0  0  0  0
    3.8676    1.8498   19.2534 H   0  0  0  0  0  0  0  0  0  0  0  0
  1  2  1  0
  2  3  2  0
  3  4  1  0
  4  5  1  0
  4  6  2  0
  6  7  1  0
  7  8  1  0
  8  9  2  0
  9 10  1  0
 10 11  2  0
 11 12  1  0
 12 13  1  0
 13 14  2  0
 14 15  1  0
 14 16  1  0
 16 17  2  0
 17 18  1  0
 17 19  1  0
 19 20  2  0
 20 21  1  0
 20 22  1  0
 22 23  1  0
 22 24  2  0
 24 25  1  0
 24 26  1  0
 26 27  1  0
 26 28  2  0
  6 29  1  0
 29 30  1  0
 29 31  2  0
 31 32  1  0
 31  2  1  0
 12  8  1  0
 28 13  1  0
 28 19  1  0
M  END
>  <cnnaffinity>  (1) 
-5.23889

>  <filename>  (1) 
c1cncc(Sc2nnnn2-c2cncc3ccccc23)c1

$$$$
