
     RDKit          3D

 34 37  0  0  0  0  0  0  0  0999 V2000
    9.3860   -0.2617   20.3421 H   0  0  0  0  0  0  0  0  0  0  0  0
    8.7811   -0.8002   21.0665 C   0  0  0  0  0  0  0  0  0  0  0  0
    9.4427   -1.4460   22.0451 N   0  0  0  0  0  0  0  0  0  0  0  0
    8.6644   -2.0593   22.9583 C   0  0  0  0  0  0  0  0  0  0  0  0
    9.1631   -2.5800   23.7740 H   0  0  0  0  0  0  0  0  0  0  0  0
    7.2440   -2.0286   22.8994 C   0  0  0  0  0  0  0  0  0  0  0  0
    6.3692   -2.6405   23.9162 C   0  0  0  0  0  0  0  0  0  0  0  0
    5.4219   -3.5434   23.4941 C   0  0  0  0  0  0  0  0  0  0  0  0
    5.2628   -3.7104   22.4311 H   0  0  0  0  0  0  0  0  0  0  0  0
    4.6659   -4.3101   24.3201 N   0  0  0  0  0  0  0  0  0  0  0  0
    4.7651   -4.0715   25.6131 C   0  0  0  0  0  0  0  0  0  0  0  0
    4.1641   -4.6911   26.2797 H   0  0  0  0  0  0  0  0  0  0  0  0
    5.5713   -3.0385   26.1786 C   0  0  0  0  0  0  0  0  0  0  0  0
    5.5121   -2.6794   27.5579 C   0  0  0  0  0  0  0  0  0  0  0  0
    4.8530   -3.2230   28.2342 H   0  0  0  0  0  0  0  0  0  0  0  0
    6.2587   -1.6306   28.0275 C   0  0  0  0  0  0  0  0  0  0  0  0
    6.1601   -1.3275   29.0683 H   0  0  0  0  0  0  0  0  0  0  0  0
    7.1979   -0.9697   27.1925 C   0  0  0  0  0  0  0  0  0  0  0  0
    7.8005   -0.1618   27.6008 H   0  0  0  0  0  0  0  0  0  0  0  0
    7.3121   -1.3266   25.8687 C   0  0  0  0  0  0  0  0  0  0  0  0
    8.0469   -0.8297   25.2452 H   0  0  0  0  0  0  0  0  0  0  0  0
    6.4538   -2.3252   25.3098 C   0  0  0  0  0  0  0  0  0  0  0  0
    6.6048   -1.4582   21.8598 N   0  0  0  0  0  0  0  0  0  0  0  0
    7.3607   -0.7881   20.9711 C   0  0  0  0  0  0  0  0  0  0  0  0
    6.6231   -0.0411   19.9157 C   0  0  0  0  0  0  0  0  0  0  0  0
    7.1535    0.0113   18.6205 C   0  0  0  0  0  0  0  0  0  0  0  0
    8.0884   -0.4963   18.3967 H   0  0  0  0  0  0  0  0  0  0  0  0
    6.5818    0.6498   17.5961 N   0  0  0  0  0  0  0  0  0  0  0  0
    5.4325    1.2940   17.8367 C   0  0  0  0  0  0  0  0  0  0  0  0
    4.9847    1.8122   16.9900 H   0  0  0  0  0  0  0  0  0  0  0  0
    4.8113    1.3112   19.0908 C   0  0  0  0  0  0  0  0  0  0  0  0
    3.8837    1.8575   19.2178 H   0  0  0  0  0  0  0  0  0  0  0  0
    5.4090    0.6271   20.1504 C   0  0  0  0  0  0  0  0  0  0  0  0
    4.9513    0.6162   21.1422 H   0  0  0  0  0  0  0  0  0  0  0  0
  1  2  1  0
  2  3  2  0
  3  4  1  0
  4  5  1  0
  4  6  2  0
  6  7  1  0
  7  8  2  0
  8  9  1  0
  8 10  1  0
 10 11  2  0
 11 12  1  0
 11 13  1  0
 13 14  2  0
 14 15  1  0
 14 16  1  0
 16 17  1  0
 16 18  2  0
 18 19  1  0
 18 20  1  0
 20 21  1  0
 20 22  2  0
  6 23  1  0
 23 24  2  0
 24 25  1  0
 25 26  2  0
 26 27  1  0
 26 28  1  0
 28 29  2  0
 29 30  1  0
 29 31  1  0
 31 32  1  0
 31 33  2  0
 33 34  1  0
 24  2  1  0
 33 25  1  0
 22  7  1  0
 22 13  1  0
M  END
>  <cnnaffinity>  (1) 
-5.46246

>  <filename>  (1) 
c1cncc(-c2cncc(-c3cncc4ccccc34)n2)c1

$$$$
