
     RDKit          3D

 34 36  0  0  0  0  0  0  0  0999 V2000
    8.0480   -3.7693   21.8047 H   0  0  0  0  0  0  0  0  0  0  0  0
    8.0394   -2.6880   21.8568 C   0  0  0  0  0  0  0  0  0  0  0  0
    8.6669   -2.1413   22.8955 N   0  0  0  0  0  0  0  0  0  0  0  0
    8.6470   -0.8058   22.9427 C   0  0  0  0  0  0  0  0  0  0  0  0
    9.1710   -0.3498   23.7821 H   0  0  0  0  0  0  0  0  0  0  0  0
    8.0397   -0.0148   21.9861 C   0  0  0  0  0  0  0  0  0  0  0  0
    8.0552    1.4887   22.0790 C   0  0  0  0  0  0  0  0  0  0  0  0
    8.9335    1.8257   22.6668 H   0  0  0  0  0  0  0  0  0  0  0  0
    8.1815    1.9074   21.0718 H   0  0  0  0  0  0  0  0  0  0  0  0
    6.8229    2.0132   22.6592 N   0  0  0  0  0  0  0  0  0  0  0  0
    6.6973    3.4634   22.4861 C   0  0  0  0  0  0  0  0  0  0  0  0
    7.6740    3.9665   22.6040 H   0  0  0  0  0  0  0  0  0  0  0  0
    6.3230    3.7058   21.4830 H   0  0  0  0  0  0  0  0  0  0  0  0
    5.7383    3.9394   23.5846 C   0  0  0  0  0  0  0  0  0  0  0  0
    6.0662    4.8985   23.9968 H   0  0  0  0  0  0  0  0  0  0  0  0
    4.7329    4.0912   23.1851 H   0  0  0  0  0  0  0  0  0  0  0  0
    5.7439    2.8219   24.6409 C   0  0  0  0  0  0  0  0  0  0  0  0
    4.7362    2.4287   24.7930 H   0  0  0  0  0  0  0  0  0  0  0  0
    6.0951    3.1794   25.6132 H   0  0  0  0  0  0  0  0  0  0  0  0
    6.6837    1.7397   24.0896 C   0  0  0  0  0  0  0  0  0  0  0  0
    7.6583    1.7951   24.6073 H   0  0  0  0  0  0  0  0  0  0  0  0
    6.2854    0.7316   24.2521 H   0  0  0  0  0  0  0  0  0  0  0  0
    7.3850   -0.7106   20.9639 C   0  0  0  0  0  0  0  0  0  0  0  0
    6.6493   -0.0003   19.9103 C   0  0  0  0  0  0  0  0  0  0  0  0
    7.1722    0.0402   18.6188 C   0  0  0  0  0  0  0  0  0  0  0  0
    8.1196   -0.4409   18.3804 H   0  0  0  0  0  0  0  0  0  0  0  0
    6.5769    0.6700   17.5986 N   0  0  0  0  0  0  0  0  0  0  0  0
    5.4111    1.2867   17.8495 C   0  0  0  0  0  0  0  0  0  0  0  0
    4.9233    1.7743   17.0050 H   0  0  0  0  0  0  0  0  0  0  0  0
    4.8074    1.3062   19.1108 C   0  0  0  0  0  0  0  0  0  0  0  0
    3.8746    1.8422   19.2596 H   0  0  0  0  0  0  0  0  0  0  0  0
    5.4405    0.6511   20.1673 C   0  0  0  0  0  0  0  0  0  0  0  0
    5.0034    0.6449   21.1680 H   0  0  0  0  0  0  0  0  0  0  0  0
    7.4149   -2.0455   20.8723 N   0  0  0  0  0  0  0  0  0  0  0  0
  1  2  1  0
  2  3  2  0
  3  4  1  0
  4  5  1  0
  4  6  2  0
  6  7  1  0
  7  8  1  0
  7  9  1  0
  7 10  1  0
 10 11  1  0
 11 12  1  0
 11 13  1  0
 11 14  1  0
 14 15  1  0
 14 16  1  0
 14 17  1  0
 17 18  1  0
 17 19  1  0
 17 20  1  0
 20 21  1  0
 20 22  1  0
  6 23  1  0
 23 24  1  0
 24 25  2  0
 25 26  1  0
 25 27  1  0
 27 28  2  0
 28 29  1  0
 28 30  1  0
 30 31  1  0
 30 32  2  0
 32 33  1  0
 23 34  2  0
 34  2  1  0
 20 10  1  0
 32 24  1  0
M  END
>  <cnnaffinity>  (1) 
-5.02212

>  <filename>  (1) 
c1cncc(-c2ncncc2CN2CCCC2)c1

$$$$
