
     RDKit          3D

 31 33  0  0  0  0  0  0  0  0999 V2000
    5.0029    2.0434   16.4613 H   0  0  0  0  0  0  0  0  0  0  0  0
    5.3272    1.5783   17.3888 C   0  0  0  0  0  0  0  0  0  0  0  0
    6.4745    0.8889   17.3223 N   0  0  0  0  0  0  0  0  0  0  0  0
    6.8938    0.3042   18.4480 C   0  0  0  0  0  0  0  0  0  0  0  0
    7.8396   -0.2287   18.3902 H   0  0  0  0  0  0  0  0  0  0  0  0
    6.2050    0.3547   19.6712 C   0  0  0  0  0  0  0  0  0  0  0  0
    6.7977   -0.4153   20.7750 C   0  0  0  0  0  0  0  0  0  0  0  0
    7.6986   -1.3795   20.6409 N   0  0  0  0  0  0  0  0  0  0  0  0
    7.9615   -1.7731   21.9125 C   0  0  0  0  0  0  0  0  0  0  0  0
    9.0009   -2.8461   22.2163 C   0  0  0  0  0  0  0  0  0  0  0  0
    9.2265   -3.2291   21.2183 H   0  0  0  0  0  0  0  0  0  0  0  0
   10.3020   -2.2690   22.8611 C   0  0  0  0  0  0  0  0  0  0  0  0
   11.1094   -3.0138   22.7916 H   0  0  0  0  0  0  0  0  0  0  0  0
   10.6690   -1.3791   22.3322 H   0  0  0  0  0  0  0  0  0  0  0  0
   10.0434   -1.9521   24.3394 C   0  0  0  0  0  0  0  0  0  0  0  0
   10.9262   -1.5354   24.8209 H   0  0  0  0  0  0  0  0  0  0  0  0
    9.2320   -1.2145   24.4320 H   0  0  0  0  0  0  0  0  0  0  0  0
    9.6939   -3.1307   25.0532 O   0  0  0  0  0  0  0  0  0  0  0  0
    8.4551   -3.6577   24.5988 C   0  0  0  0  0  0  0  0  0  0  0  0
    8.2492   -4.5504   25.1987 H   0  0  0  0  0  0  0  0  0  0  0  0
    7.6496   -2.9313   24.7782 H   0  0  0  0  0  0  0  0  0  0  0  0
    8.5121   -4.0249   23.1122 C   0  0  0  0  0  0  0  0  0  0  0  0
    9.2391   -4.8440   23.0330 H   0  0  0  0  0  0  0  0  0  0  0  0
    7.5434   -4.4232   22.7816 H   0  0  0  0  0  0  0  0  0  0  0  0
    7.2823   -1.1010   22.8298 N   0  0  0  0  0  0  0  0  0  0  0  0
    6.5439   -0.2441   22.0826 N   0  0  0  0  0  0  0  0  0  0  0  0
    5.9229    0.4229   22.5219 H   0  0  0  0  0  0  0  0  0  0  0  0
    5.0083    1.0939   19.7287 C   0  0  0  0  0  0  0  0  0  0  0  0
    4.4177    1.2047   20.6459 H   0  0  0  0  0  0  0  0  0  0  0  0
    4.5650    1.7073   18.5555 C   0  0  0  0  0  0  0  0  0  0  0  0
    3.6559    2.2982   18.5266 H   0  0  0  0  0  0  0  0  0  0  0  0
  1  2  1  0
  2  3  2  0
  3  4  1  0
  4  5  1  0
  4  6  2  0
  6  7  1  0
  7  8  2  0
  8  9  1  0
  9 10  1  0
 10 11  1  0
 10 12  1  0
 12 13  1  0
 12 14  1  0
 12 15  1  0
 15 16  1  0
 15 17  1  0
 15 18  1  0
 18 19  1  0
 19 20  1  0
 19 21  1  0
 19 22  1  0
 22 23  1  0
 22 24  1  0
  9 25  2  0
 25 26  1  0
 26 27  1  0
  6 28  1  0
 28 29  1  0
 28 30  2  0
 30 31  1  0
 30  2  1  0
 26  7  1  0
 22 10  1  0
M  END
>  <cnnaffinity>  (1) 
-4.64618

>  <filename>  (1) 
c1cncc(-c2nc(C3CCOCC3)n[nH]2)c1

$$$$
