
     RDKit          3D

 36 39  0  0  0  0  0  0  0  0999 V2000
    4.9544    1.7944   16.9796 H   0  0  0  0  0  0  0  0  0  0  0  0
    5.3980    1.2858   17.8294 C   0  0  0  0  0  0  0  0  0  0  0  0
    6.5584    0.6573   17.5919 N   0  0  0  0  0  0  0  0  0  0  0  0
    7.1625    0.0718   18.6309 C   0  0  0  0  0  0  0  0  0  0  0  0
    8.1118   -0.4125   18.3928 H   0  0  0  0  0  0  0  0  0  0  0  0
    6.6572    0.0819   19.9515 C   0  0  0  0  0  0  0  0  0  0  0  0
    7.4253   -0.6056   21.0131 C   0  0  0  0  0  0  0  0  0  0  0  0
    8.2637   -1.6472   20.8538 C   0  0  0  0  0  0  0  0  0  0  0  0
    8.6616   -2.0109   19.9294 H   0  0  0  0  0  0  0  0  0  0  0  0
    8.8566   -2.3258   22.3471 S   0  0  0  0  0  0  0  0  0  0  0  0
    8.0806   -1.0325   23.2123 C   0  0  0  0  0  0  0  0  0  0  0  0
    8.0937   -0.5233   24.4241 N   0  0  0  0  0  0  0  0  0  0  0  0
    7.3522    0.6132   24.2611 C   0  0  0  0  0  0  0  0  0  0  0  0
    7.1429    1.6207   25.3712 C   0  0  0  0  0  0  0  0  0  0  0  0
    8.0773    2.2013   25.4269 H   0  0  0  0  0  0  0  0  0  0  0  0
    5.9675    2.5730   25.0516 C   0  0  0  0  0  0  0  0  0  0  0  0
    6.1185    3.0212   24.0647 H   0  0  0  0  0  0  0  0  0  0  0  0
    5.9655    3.3994   25.7777 H   0  0  0  0  0  0  0  0  0  0  0  0
    4.6143    1.8426   25.0911 C   0  0  0  0  0  0  0  0  0  0  0  0
    4.5669    1.1217   24.2636 H   0  0  0  0  0  0  0  0  0  0  0  0
    3.8018    2.5587   24.9171 H   0  0  0  0  0  0  0  0  0  0  0  0
    4.4142    1.1054   26.4231 C   0  0  0  0  0  0  0  0  0  0  0  0
    4.3539    1.8487   27.2303 H   0  0  0  0  0  0  0  0  0  0  0  0
    3.4607    0.5629   26.4221 H   0  0  0  0  0  0  0  0  0  0  0  0
    5.5832    0.1551   26.7308 C   0  0  0  0  0  0  0  0  0  0  0  0
    5.6146   -0.6490   25.9791 H   0  0  0  0  0  0  0  0  0  0  0  0
    5.4349   -0.3408   27.6975 H   0  0  0  0  0  0  0  0  0  0  0  0
    6.9277    0.8996   26.7208 C   0  0  0  0  0  0  0  0  0  0  0  0
    6.9696    1.6278   27.5465 H   0  0  0  0  0  0  0  0  0  0  0  0
    7.7474    0.1895   26.8668 H   0  0  0  0  0  0  0  0  0  0  0  0
    6.8866    0.8160   23.0314 N   0  0  0  0  0  0  0  0  0  0  0  0
    7.3470   -0.2752   22.3687 N   0  0  0  0  0  0  0  0  0  0  0  0
    5.4177    0.7173   20.1623 C   0  0  0  0  0  0  0  0  0  0  0  0
    4.9727    0.7383   21.1556 H   0  0  0  0  0  0  0  0  0  0  0  0
    4.7816    1.3253   19.0814 C   0  0  0  0  0  0  0  0  0  0  0  0
    3.8370    1.8464   19.1961 H   0  0  0  0  0  0  0  0  0  0  0  0
  1  2  1  0
  2  3  2  0
  3  4  1  0
  4  5  1  0
  4  6  2  0
  6  7  1  0
  7  8  2  0
  8  9  1  0
  8 10  1  0
 10 11  1  0
 11 12  2  0
 12 13  1  0
 13 14  1  0
 14 15  1  0
 14 16  1  0
 16 17  1  0
 16 18  1  0
 16 19  1  0
 19 20  1  0
 19 21  1  0
 19 22  1  0
 22 23  1  0
 22 24  1  0
 22 25  1  0
 25 26  1  0
 25 27  1  0
 25 28  1  0
 28 29  1  0
 28 30  1  0
 13 31  2  0
 31 32  1  0
  6 33  1  0
 33 34  1  0
 33 35  2  0
 35 36  1  0
 35  2  1  0
 32  7  1  0
 32 11  1  0
 28 14  1  0
M  END
>  <cnnaffinity>  (1) 
-5.48448

>  <filename>  (1) 
c1cncc(-c2csc3nc(C4CCCCC4)nn23)c1

$$$$
