
     RDKit          3D

 34 35  0  0  0  0  0  0  0  0999 V2000
    5.0452    1.8324   16.9075 H   0  0  0  0  0  0  0  0  0  0  0  0
    5.4733    1.2936   17.7550 C   0  0  0  0  0  0  0  0  0  0  0  0
    6.6114    0.6202   17.5178 N   0  0  0  0  0  0  0  0  0  0  0  0
    7.1739   -0.0289   18.5482 C   0  0  0  0  0  0  0  0  0  0  0  0
    8.0829   -0.5917   18.3247 H   0  0  0  0  0  0  0  0  0  0  0  0
    6.6644   -0.0269   19.8598 C   0  0  0  0  0  0  0  0  0  0  0  0
    7.5193   -0.8980   21.1609 S   0  0  0  0  0  0  0  0  0  0  0  0
    8.3954    0.4142   22.1079 C   0  0  0  0  0  0  0  0  0  0  0  0
    8.5694   -0.0380   23.0920 H   0  0  0  0  0  0  0  0  0  0  0  0
    7.7122    1.2565   22.2590 H   0  0  0  0  0  0  0  0  0  0  0  0
    9.7087    0.8851   21.4732 C   0  0  0  0  0  0  0  0  0  0  0  0
   10.3743    0.0240   21.3141 H   0  0  0  0  0  0  0  0  0  0  0  0
    9.4661    1.2703   20.4733 H   0  0  0  0  0  0  0  0  0  0  0  0
   10.4795    1.9759   22.2560 C   0  0  0  0  0  0  0  0  0  0  0  0
   10.8799    1.5444   23.1940 H   0  0  0  0  0  0  0  0  0  0  0  0
    9.5914    3.1719   22.6394 C   0  0  0  0  0  0  0  0  0  0  0  0
    9.0688    3.5075   21.7314 H   0  0  0  0  0  0  0  0  0  0  0  0
    8.7983    2.8263   23.3164 H   0  0  0  0  0  0  0  0  0  0  0  0
   10.3644    4.3362   23.2924 C   0  0  0  0  0  0  0  0  0  0  0  0
    9.6984    5.2070   23.3317 H   0  0  0  0  0  0  0  0  0  0  0  0
   10.5926    4.0660   24.3325 H   0  0  0  0  0  0  0  0  0  0  0  0
   11.6765    4.7325   22.5820 C   0  0  0  0  0  0  0  0  0  0  0  0
   12.2755    5.3506   23.2644 H   0  0  0  0  0  0  0  0  0  0  0  0
   11.4646    5.3787   21.7206 H   0  0  0  0  0  0  0  0  0  0  0  0
   12.5116    3.5398   22.0858 C   0  0  0  0  0  0  0  0  0  0  0  0
   13.2653    3.9162   21.3862 H   0  0  0  0  0  0  0  0  0  0  0  0
   13.0694    3.0818   22.9133 H   0  0  0  0  0  0  0  0  0  0  0  0
   11.6587    2.4680   21.3920 C   0  0  0  0  0  0  0  0  0  0  0  0
   12.2828    1.6160   21.0994 H   0  0  0  0  0  0  0  0  0  0  0  0
   11.2516    2.8792   20.4542 H   0  0  0  0  0  0  0  0  0  0  0  0
    5.4366    0.6243   20.0704 C   0  0  0  0  0  0  0  0  0  0  0  0
    4.9601    0.5924   21.0489 H   0  0  0  0  0  0  0  0  0  0  0  0
    4.8447    1.3071   19.0018 C   0  0  0  0  0  0  0  0  0  0  0  0
    3.9163    1.8519   19.1296 H   0  0  0  0  0  0  0  0  0  0  0  0
  1  2  1  0
  2  3  2  0
  3  4  1  0
  4  5  1  0
  4  6  2  0
  6  7  1  0
  7  8  1  0
  8  9  1  0
  8 10  1  0
  8 11  1  0
 11 12  1  0
 11 13  1  0
 11 14  1  0
 14 15  1  0
 14 16  1  0
 16 17  1  0
 16 18  1  0
 16 19  1  0
 19 20  1  0
 19 21  1  0
 19 22  1  0
 22 23  1  0
 22 24  1  0
 22 25  1  0
 25 26  1  0
 25 27  1  0
 25 28  1  0
 28 29  1  0
 28 30  1  0
  6 31  1  0
 31 32  1  0
 31 33  2  0
 33 34  1  0
 33  2  1  0
 28 14  1  0
M  END
>  <cnnaffinity>  (1) 
-4.95167

>  <filename>  (1) 
c1cncc(SCCC2CCCCC2)c1

$$$$
