
     RDKit          3D

 32 35  0  0  0  0  0  0  0  0999 V2000
    4.9144    1.7868   16.9930 H   0  0  0  0  0  0  0  0  0  0  0  0
    5.3951    1.2960   17.8364 C   0  0  0  0  0  0  0  0  0  0  0  0
    6.5566    0.6789   17.5709 N   0  0  0  0  0  0  0  0  0  0  0  0
    7.1595    0.0448   18.5816 C   0  0  0  0  0  0  0  0  0  0  0  0
    8.1223   -0.4212   18.3699 H   0  0  0  0  0  0  0  0  0  0  0  0
    6.6257   -0.0285   19.8824 C   0  0  0  0  0  0  0  0  0  0  0  0
    7.5503   -0.8285   21.1987 S   0  0  0  0  0  0  0  0  0  0  0  0
    8.4845    0.5993   21.6558 C   0  0  0  0  0  0  0  0  0  0  0  0
    9.6379    0.8812   21.1040 N   0  0  0  0  0  0  0  0  0  0  0  0
    9.9776    2.1034   21.5731 N   0  0  0  0  0  0  0  0  0  0  0  0
    9.0940    2.5768   22.3552 N   0  0  0  0  0  0  0  0  0  0  0  0
    8.1042    1.6409   22.4377 N   0  0  0  0  0  0  0  0  0  0  0  0
    6.8936    1.8180   23.1829 C   0  0  0  0  0  0  0  0  0  0  0  0
    6.3883    3.0236   23.2145 N   0  0  0  0  0  0  0  0  0  0  0  0
    5.2285    3.2143   23.9320 C   0  0  0  0  0  0  0  0  0  0  0  0
    4.6543    4.5220   24.0065 C   0  0  0  0  0  0  0  0  0  0  0  0
    5.1740    5.3185   23.4831 H   0  0  0  0  0  0  0  0  0  0  0  0
    3.4872    4.7489   24.7122 C   0  0  0  0  0  0  0  0  0  0  0  0
    3.0507    5.7475   24.7607 H   0  0  0  0  0  0  0  0  0  0  0  0
    2.8260    3.6818   25.3891 C   0  0  0  0  0  0  0  0  0  0  0  0
    1.9053    3.8796   25.9413 H   0  0  0  0  0  0  0  0  0  0  0  0
    3.3510    2.4106   25.3457 C   0  0  0  0  0  0  0  0  0  0  0  0
    2.8627    1.5829   25.8634 H   0  0  0  0  0  0  0  0  0  0  0  0
    4.5570    2.1512   24.6232 C   0  0  0  0  0  0  0  0  0  0  0  0
    5.1573    0.8591   24.5600 C   0  0  0  0  0  0  0  0  0  0  0  0
    4.6726    0.0278   25.0790 H   0  0  0  0  0  0  0  0  0  0  0  0
    6.3224    0.6875   23.8506 C   0  0  0  0  0  0  0  0  0  0  0  0
    6.7899   -0.2910   23.8114 H   0  0  0  0  0  0  0  0  0  0  0  0
    5.4263    0.6385   20.1541 C   0  0  0  0  0  0  0  0  0  0  0  0
    5.0087    0.6333   21.1676 H   0  0  0  0  0  0  0  0  0  0  0  0
    4.7994    1.3131   19.1026 C   0  0  0  0  0  0  0  0  0  0  0  0
    3.8703    1.8499   19.2561 H   0  0  0  0  0  0  0  0  0  0  0  0
  1  2  1  0
  2  3  2  0
  3  4  1  0
  4  5  1  0
  4  6  2  0
  6  7  1  0
  7  8  1  0
  8  9  2  0
  9 10  1  0
 10 11  2  0
 11 12  1  0
 12 13  1  0
 13 14  2  0
 14 15  1  0
 15 16  2  0
 16 17  1  0
 16 18  1  0
 18 19  1  0
 18 20  2  0
 20 21  1  0
 20 22  1  0
 22 23  1  0
 22 24  2  0
 24 25  1  0
 25 26  1  0
 25 27  2  0
 27 28  1  0
  6 29  1  0
 29 30  1  0
 29 31  2  0
 31 32  1  0
 31  2  1  0
 12  8  1  0
 27 13  1  0
 24 15  1  0
M  END
>  <cnnaffinity>  (1) 
-4.87791

>  <filename>  (1) 
c1cncc(Sc2nnnn2-c2ccc3ccccc3n2)c1

$$$$
