
     RDKit          3D

 34 38  0  0  0  0  0  0  0  0999 V2000
    4.9165    1.7757   17.0020 H   0  0  0  0  0  0  0  0  0  0  0  0
    5.4045    1.2899   17.8428 C   0  0  0  0  0  0  0  0  0  0  0  0
    6.5700    0.6778   17.5768 N   0  0  0  0  0  0  0  0  0  0  0  0
    7.1738    0.0561   18.5903 C   0  0  0  0  0  0  0  0  0  0  0  0
    8.1242   -0.4345   18.3743 H   0  0  0  0  0  0  0  0  0  0  0  0
    6.6459    0.0091   19.8910 C   0  0  0  0  0  0  0  0  0  0  0  0
    7.4024   -0.6997   20.9177 C   0  0  0  0  0  0  0  0  0  0  0  0
    8.3297   -1.5991   20.7015 N   0  0  0  0  0  0  0  0  0  0  0  0
    8.8436   -2.0149   21.9098 N   0  0  0  0  0  0  0  0  0  0  0  0
    8.2190   -1.3177   22.8197 C   0  0  0  0  0  0  0  0  0  0  0  0
    8.3581   -0.9816   24.5191 S   0  0  0  0  0  0  0  0  0  0  0  0
    7.1322    0.2950   24.2938 C   0  0  0  0  0  0  0  0  0  0  0  0
    6.7668    1.1993   25.3887 C   0  0  0  0  0  0  0  0  0  0  0  0
    6.8197    2.5593   25.1557 C   0  0  0  0  0  0  0  0  0  0  0  0
    7.0797    2.9340   24.1722 H   0  0  0  0  0  0  0  0  0  0  0  0
    6.5773    3.5070   26.0969 N   0  0  0  0  0  0  0  0  0  0  0  0
    6.2642    3.0966   27.3092 C   0  0  0  0  0  0  0  0  0  0  0  0
    6.0677    3.8566   28.0641 H   0  0  0  0  0  0  0  0  0  0  0  0
    6.1577    1.7296   27.6951 C   0  0  0  0  0  0  0  0  0  0  0  0
    5.7950    1.3328   29.0208 C   0  0  0  0  0  0  0  0  0  0  0  0
    5.6119    2.0937   29.7790 H   0  0  0  0  0  0  0  0  0  0  0  0
    5.6659   -0.0003   29.3247 C   0  0  0  0  0  0  0  0  0  0  0  0
    5.3909   -0.3141   30.3294 H   0  0  0  0  0  0  0  0  0  0  0  0
    5.8791   -0.9883   28.3270 C   0  0  0  0  0  0  0  0  0  0  0  0
    5.7562   -2.0370   28.5741 H   0  0  0  0  0  0  0  0  0  0  0  0
    6.2315   -0.6286   27.0434 C   0  0  0  0  0  0  0  0  0  0  0  0
    6.3720   -1.3824   26.2783 H   0  0  0  0  0  0  0  0  0  0  0  0
    6.4037    0.7400   26.6977 C   0  0  0  0  0  0  0  0  0  0  0  0
    6.6893    0.4430   23.0834 N   0  0  0  0  0  0  0  0  0  0  0  0
    7.2709   -0.5047   22.2796 N   0  0  0  0  0  0  0  0  0  0  0  0
    5.4320    0.6518   20.1626 C   0  0  0  0  0  0  0  0  0  0  0  0
    5.0107    0.6369   21.1717 H   0  0  0  0  0  0  0  0  0  0  0  0
    4.8043    1.3082   19.1091 C   0  0  0  0  0  0  0  0  0  0  0  0
    3.8738    1.8438   19.2616 H   0  0  0  0  0  0  0  0  0  0  0  0
  1  2  1  0
  2  3  2  0
  3  4  1  0
  4  5  1  0
  4  6  2  0
  6  7  1  0
  7  8  2  0
  8  9  1  0
  9 10  2  0
 10 11  1  0
 11 12  1  0
 12 13  1  0
 13 14  2  0
 14 15  1  0
 14 16  1  0
 16 17  2  0
 17 18  1  0
 17 19  1  0
 19 20  2  0
 20 21  1  0
 20 22  1  0
 22 23  1  0
 22 24  2  0
 24 25  1  0
 24 26  1  0
 26 27  1  0
 26 28  2  0
 12 29  2  0
 29 30  1  0
  6 31  1  0
 31 32  1  0
 31 33  2  0
 33 34  1  0
 33  2  1  0
 30  7  1  0
 30 10  1  0
 28 13  1  0
 28 19  1  0
M  END
>  <cnnaffinity>  (1) 
-5.69548

>  <filename>  (1) 
c1cncc(-c2nnc3sc(-c4cncc5ccccc45)nn23)c1

$$$$
