
     RDKit          3D

 35 38  0  0  0  0  0  0  0  0999 V2000
    4.9087    1.7795   16.9974 H   0  0  0  0  0  0  0  0  0  0  0  0
    5.3988    1.2955   17.8368 C   0  0  0  0  0  0  0  0  0  0  0  0
    6.5620    0.6815   17.5666 N   0  0  0  0  0  0  0  0  0  0  0  0
    7.1726    0.0720   18.5874 C   0  0  0  0  0  0  0  0  0  0  0  0
    8.1156   -0.4295   18.3707 H   0  0  0  0  0  0  0  0  0  0  0  0
    6.6622    0.0152   19.8965 C   0  0  0  0  0  0  0  0  0  0  0  0
    7.3794   -0.7023   20.9762 C   0  0  0  0  0  0  0  0  0  0  0  0
    8.7689   -0.5854   21.1567 C   0  0  0  0  0  0  0  0  0  0  0  0
    9.3323    0.0622   20.4909 H   0  0  0  0  0  0  0  0  0  0  0  0
    9.4561   -1.2101   22.1224 N   0  0  0  0  0  0  0  0  0  0  0  0
    8.7561   -1.9896   22.9567 C   0  0  0  0  0  0  0  0  0  0  0  0
    9.3138   -2.5021   23.7336 H   0  0  0  0  0  0  0  0  0  0  0  0
    7.3655   -2.1978   22.8735 C   0  0  0  0  0  0  0  0  0  0  0  0
    6.6418   -3.0690   23.8375 C   0  0  0  0  0  0  0  0  0  0  0  0
    6.6371   -2.7656   25.1872 C   0  0  0  0  0  0  0  0  0  0  0  0
    7.1934   -1.9003   25.5368 H   0  0  0  0  0  0  0  0  0  0  0  0
    5.9663   -3.4657   26.1431 N   0  0  0  0  0  0  0  0  0  0  0  0
    5.2771   -4.5126   25.7437 C   0  0  0  0  0  0  0  0  0  0  0  0
    4.7349   -5.0780   26.5012 H   0  0  0  0  0  0  0  0  0  0  0  0
    5.1937   -4.9601   24.3921 C   0  0  0  0  0  0  0  0  0  0  0  0
    4.4391   -6.1094   24.0072 C   0  0  0  0  0  0  0  0  0  0  0  0
    3.8920   -6.6680   24.7675 H   0  0  0  0  0  0  0  0  0  0  0  0
    4.4114   -6.5072   22.6954 C   0  0  0  0  0  0  0  0  0  0  0  0
    3.8302   -7.3752   22.4052 H   0  0  0  0  0  0  0  0  0  0  0  0
    5.1370   -5.7931   21.7042 C   0  0  0  0  0  0  0  0  0  0  0  0
    5.1204   -6.1293   20.6724 H   0  0  0  0  0  0  0  0  0  0  0  0
    5.8701   -4.6826   22.0494 C   0  0  0  0  0  0  0  0  0  0  0  0
    6.4418   -4.1409   21.3002 H   0  0  0  0  0  0  0  0  0  0  0  0
    5.9083   -4.2208   23.4018 C   0  0  0  0  0  0  0  0  0  0  0  0
    6.6789   -1.5224   21.8620 C   0  0  0  0  0  0  0  0  0  0  0  0
    5.6038   -1.6667   21.7450 H   0  0  0  0  0  0  0  0  0  0  0  0
    5.4387    0.6500   20.1510 C   0  0  0  0  0  0  0  0  0  0  0  0
    5.0166    0.6309   21.1600 H   0  0  0  0  0  0  0  0  0  0  0  0
    4.8035    1.3167   19.1047 C   0  0  0  0  0  0  0  0  0  0  0  0
    3.8694    1.8468   19.2615 H   0  0  0  0  0  0  0  0  0  0  0  0
  1  2  1  0
  2  3  2  0
  3  4  1  0
  4  5  1  0
  4  6  2  0
  6  7  1  0
  7  8  2  0
  8  9  1  0
  8 10  1  0
 10 11  2  0
 11 12  1  0
 11 13  1  0
 13 14  1  0
 14 15  2  0
 15 16  1  0
 15 17  1  0
 17 18  2  0
 18 19  1  0
 18 20  1  0
 20 21  2  0
 21 22  1  0
 21 23  1  0
 23 24  1  0
 23 25  2  0
 25 26  1  0
 25 27  1  0
 27 28  1  0
 27 29  2  0
 13 30  2  0
 30 31  1  0
  6 32  1  0
 32 33  1  0
 32 34  2  0
 34 35  1  0
 34  2  1  0
 30  7  1  0
 29 14  1  0
 29 20  1  0
M  END
>  <cnnaffinity>  (1) 
-5.55575

>  <filename>  (1) 
c1cncc(-c2cncc(-c3cncc4ccccc34)c2)c1

$$$$
