
     RDKit          3D

 34 36  0  0  0  0  0  0  0  0999 V2000
    4.9529    1.8333   16.9448 H   0  0  0  0  0  0  0  0  0  0  0  0
    5.4187    1.2762   17.7552 C   0  0  0  0  0  0  0  0  0  0  0  0
    6.5450    0.6075   17.4528 N   0  0  0  0  0  0  0  0  0  0  0  0
    7.1709   -0.0327   18.4483 C   0  0  0  0  0  0  0  0  0  0  0  0
    8.0996   -0.5451   18.2044 H   0  0  0  0  0  0  0  0  0  0  0  0
    6.6957   -0.0644   19.7682 C   0  0  0  0  0  0  0  0  0  0  0  0
    7.4986   -0.6862   20.7127 O   0  0  0  0  0  0  0  0  0  0  0  0
    6.9479   -1.6195   21.5639 C   0  0  0  0  0  0  0  0  0  0  0  0
    6.0000   -2.6338   21.2754 C   0  0  0  0  0  0  0  0  0  0  0  0
    5.5630   -2.8914   20.3176 H   0  0  0  0  0  0  0  0  0  0  0  0
    5.6824   -3.3238   22.3646 N   0  0  0  0  0  0  0  0  0  0  0  0
    6.4520   -2.7832   23.3283 N   0  0  0  0  0  0  0  0  0  0  0  0
    6.2525   -2.9255   24.3051 H   0  0  0  0  0  0  0  0  0  0  0  0
    7.2520   -1.7722   22.9085 C   0  0  0  0  0  0  0  0  0  0  0  0
    8.0794   -1.1440   23.8478 N   0  0  0  0  0  0  0  0  0  0  0  0
    8.5584    0.1992   23.5101 C   0  0  0  0  0  0  0  0  0  0  0  0
    8.7088    0.7419   24.4539 H   0  0  0  0  0  0  0  0  0  0  0  0
    7.7593    0.7184   22.9804 H   0  0  0  0  0  0  0  0  0  0  0  0
    9.8632    0.2355   22.6822 C   0  0  0  0  0  0  0  0  0  0  0  0
   10.2154    1.2756   22.6419 H   0  0  0  0  0  0  0  0  0  0  0  0
    9.6297   -0.0620   21.6554 H   0  0  0  0  0  0  0  0  0  0  0  0
   10.9444   -0.7011   23.2598 C   0  0  0  0  0  0  0  0  0  0  0  0
   11.3325   -0.3116   24.2141 H   0  0  0  0  0  0  0  0  0  0  0  0
   11.8132   -0.7633   22.5903 H   0  0  0  0  0  0  0  0  0  0  0  0
   10.3218   -2.0895   23.4993 C   0  0  0  0  0  0  0  0  0  0  0  0
    9.9284   -2.4750   22.5514 H   0  0  0  0  0  0  0  0  0  0  0  0
   11.0467   -2.8284   23.8503 H   0  0  0  0  0  0  0  0  0  0  0  0
    9.1397   -1.9594   24.4673 C   0  0  0  0  0  0  0  0  0  0  0  0
    8.7477   -2.9334   24.7800 H   0  0  0  0  0  0  0  0  0  0  0  0
    9.4687   -1.4323   25.3721 H   0  0  0  0  0  0  0  0  0  0  0  0
    5.5004    0.5972   20.0748 C   0  0  0  0  0  0  0  0  0  0  0  0
    5.0924    0.5682   21.0875 H   0  0  0  0  0  0  0  0  0  0  0  0
    4.8612    1.2941   19.0397 C   0  0  0  0  0  0  0  0  0  0  0  0
    3.9612    1.8724   19.2241 H   0  0  0  0  0  0  0  0  0  0  0  0
  1  2  1  0
  2  3  2  0
  3  4  1  0
  4  5  1  0
  4  6  2  0
  6  7  1  0
  7  8  1  0
  8  9  1  0
  9 10  1  0
  9 11  2  0
 11 12  1  0
 12 13  1  0
 12 14  1  0
 14 15  1  0
 15 16  1  0
 16 17  1  0
 16 18  1  0
 16 19  1  0
 19 20  1  0
 19 21  1  0
 19 22  1  0
 22 23  1  0
 22 24  1  0
 22 25  1  0
 25 26  1  0
 25 27  1  0
 25 28  1  0
 28 29  1  0
 28 30  1  0
  6 31  1  0
 31 32  1  0
 31 33  2  0
 33 34  1  0
 33  2  1  0
 14  8  2  0
 28 15  1  0
M  END
>  <cnnaffinity>  (1) 
-5.15345

>  <filename>  (1) 
c1cncc(Oc2cn[nH]c2N2CCCCC2)c1

$$$$
