
     RDKit          3D

 36 39  0  0  0  0  0  0  0  0999 V2000
    4.9439    1.8664   16.9190 H   0  0  0  0  0  0  0  0  0  0  0  0
    5.3844    1.3187   17.7502 C   0  0  0  0  0  0  0  0  0  0  0  0
    6.5287    0.6646   17.4929 N   0  0  0  0  0  0  0  0  0  0  0  0
    7.1116    0.0250   18.5109 C   0  0  0  0  0  0  0  0  0  0  0  0
    8.0367   -0.5029   18.2819 H   0  0  0  0  0  0  0  0  0  0  0  0
    6.6062    0.0270   19.8243 C   0  0  0  0  0  0  0  0  0  0  0  0
    7.3718   -0.5728   20.9198 C   0  0  0  0  0  0  0  0  0  0  0  0
    8.1781   -1.6172   20.7264 N   0  0  0  0  0  0  0  0  0  0  0  0
    8.7079   -1.8220   21.9314 N   0  0  0  0  0  0  0  0  0  0  0  0
    8.3253   -0.9735   22.8913 C   0  0  0  0  0  0  0  0  0  0  0  0
    7.4048   -0.1349   22.2909 C   0  0  0  0  0  0  0  0  0  0  0  0
    6.6916    0.9266   22.8875 N   0  0  0  0  0  0  0  0  0  0  0  0
    6.9314    1.8304   22.5056 H   0  0  0  0  0  0  0  0  0  0  0  0
    6.5154    1.0128   24.2603 C   0  0  0  0  0  0  0  0  0  0  0  0
    6.7117    2.2392   24.8838 C   0  0  0  0  0  0  0  0  0  0  0  0
    7.1015    3.0803   24.3256 H   0  0  0  0  0  0  0  0  0  0  0  0
    6.4349    2.3404   26.2388 C   0  0  0  0  0  0  0  0  0  0  0  0
    6.5622    3.2916   26.7493 H   0  0  0  0  0  0  0  0  0  0  0  0
    5.9935    1.3243   26.9906 N   0  0  0  0  0  0  0  0  0  0  0  0
    5.8289    0.1472   26.3730 C   0  0  0  0  0  0  0  0  0  0  0  0
    5.4733   -0.6798   26.9823 H   0  0  0  0  0  0  0  0  0  0  0  0
    6.0866   -0.0667   25.0245 C   0  0  0  0  0  0  0  0  0  0  0  0
    6.0040   -1.0478   24.5777 H   0  0  0  0  0  0  0  0  0  0  0  0
    9.1010   -1.2213   24.1582 C   0  0  0  0  0  0  0  0  0  0  0  0
    8.4449   -1.6282   24.9371 H   0  0  0  0  0  0  0  0  0  0  0  0
    9.5592   -0.3014   24.5392 H   0  0  0  0  0  0  0  0  0  0  0  0
   10.1707   -2.2453   23.6888 C   0  0  0  0  0  0  0  0  0  0  0  0
   11.1029   -1.7134   23.5019 H   0  0  0  0  0  0  0  0  0  0  0  0
   10.3648   -3.0227   24.4303 H   0  0  0  0  0  0  0  0  0  0  0  0
    9.6875   -2.8000   22.3201 C   0  0  0  0  0  0  0  0  0  0  0  0
   10.4861   -2.7948   21.5799 H   0  0  0  0  0  0  0  0  0  0  0  0
    9.2357   -3.7991   22.3586 H   0  0  0  0  0  0  0  0  0  0  0  0
    5.3790    0.6666   20.0625 C   0  0  0  0  0  0  0  0  0  0  0  0
    4.9380    0.6524   21.0612 H   0  0  0  0  0  0  0  0  0  0  0  0
    4.7622    1.3245   19.0034 C   0  0  0  0  0  0  0  0  0  0  0  0
    3.8348    1.8692   19.1442 H   0  0  0  0  0  0  0  0  0  0  0  0
  1  2  1  0
  2  3  2  0
  3  4  1  0
  4  5  1  0
  4  6  2  0
  6  7  1  0
  7  8  2  0
  8  9  1  0
  9 10  1  0
 10 11  2  0
 11 12  1  0
 12 13  1  0
 12 14  1  0
 14 15  2  0
 15 16  1  0
 15 17  1  0
 17 18  1  0
 17 19  2  0
 19 20  1  0
 20 21  1  0
 20 22  2  0
 22 23  1  0
 10 24  1  0
 24 25  1  0
 24 26  1  0
 24 27  1  0
 27 28  1  0
 27 29  1  0
 27 30  1  0
 30 31  1  0
 30 32  1  0
  6 33  1  0
 33 34  1  0
 33 35  2  0
 35 36  1  0
 35  2  1  0
 11  7  1  0
 22 14  1  0
 30  9  1  0
M  END
>  <cnnaffinity>  (1) 
-5.69602

>  <filename>  (1) 
c1cncc(-c2nn3c(c2Nc2ccncc2)CCC3)c1

$$$$
