
     RDKit          3D

 33 35  0  0  0  0  0  0  0  0999 V2000
    6.7738   -2.7108   23.7094 H   0  0  0  0  0  0  0  0  0  0  0  0
    7.3039   -2.1089   22.9688 C   0  0  0  0  0  0  0  0  0  0  0  0
    8.6135   -1.9735   23.1394 N   0  0  0  0  0  0  0  0  0  0  0  0
    9.2507   -1.2586   22.2155 C   0  0  0  0  0  0  0  0  0  0  0  0
   10.5648   -1.1840   22.4141 O   0  0  0  0  0  0  0  0  0  0  0  0
   11.4151   -0.5843   21.4190 C   0  0  0  0  0  0  0  0  0  0  0  0
   10.9239   -0.6864   20.4458 H   0  0  0  0  0  0  0  0  0  0  0  0
   11.6471    0.8806   21.7833 C   0  0  0  0  0  0  0  0  0  0  0  0
   10.7323    1.3451   22.1649 H   0  0  0  0  0  0  0  0  0  0  0  0
   11.9352    1.4294   20.8792 H   0  0  0  0  0  0  0  0  0  0  0  0
   12.8070    0.8664   22.7909 C   0  0  0  0  0  0  0  0  0  0  0  0
   12.4230    0.6572   23.7972 H   0  0  0  0  0  0  0  0  0  0  0  0
   13.3322    1.8240   22.8469 H   0  0  0  0  0  0  0  0  0  0  0  0
   13.7221   -0.2840   22.3185 C   0  0  0  0  0  0  0  0  0  0  0  0
   14.5224    0.0814   21.6623 H   0  0  0  0  0  0  0  0  0  0  0  0
   14.2127   -0.7721   23.1647 H   0  0  0  0  0  0  0  0  0  0  0  0
   12.7989   -1.2604   21.5292 C   0  0  0  0  0  0  0  0  0  0  0  0
   13.2028   -1.4480   20.5288 H   0  0  0  0  0  0  0  0  0  0  0  0
   12.7009   -2.2246   22.0333 H   0  0  0  0  0  0  0  0  0  0  0  0
    8.7141   -0.6563   21.1585 N   0  0  0  0  0  0  0  0  0  0  0  0
    7.3912   -0.7478   21.0546 C   0  0  0  0  0  0  0  0  0  0  0  0
    6.7388   -0.0064   19.9690 C   0  0  0  0  0  0  0  0  0  0  0  0
    7.3284    0.0177   18.7024 C   0  0  0  0  0  0  0  0  0  0  0  0
    8.2990   -0.4537   18.5413 H   0  0  0  0  0  0  0  0  0  0  0  0
    6.7630    0.5952   17.6372 N   0  0  0  0  0  0  0  0  0  0  0  0
    5.5906    1.2213   17.8244 C   0  0  0  0  0  0  0  0  0  0  0  0
    5.1556    1.6921   16.9462 H   0  0  0  0  0  0  0  0  0  0  0  0
    4.9381    1.2965   19.0629 C   0  0  0  0  0  0  0  0  0  0  0  0
    4.0063    1.8427   19.1609 H   0  0  0  0  0  0  0  0  0  0  0  0
    5.5206    0.6659   20.1565 C   0  0  0  0  0  0  0  0  0  0  0  0
    5.0614    0.7228   21.1476 H   0  0  0  0  0  0  0  0  0  0  0  0
    6.6237   -1.5234   21.9143 C   0  0  0  0  0  0  0  0  0  0  0  0
    5.5647   -1.6543   21.7498 H   0  0  0  0  0  0  0  0  0  0  0  0
  1  2  1  0
  2  3  2  0
  3  4  1  0
  4  5  1  0
  5  6  1  0
  6  7  1  0
  6  8  1  0
  8  9  1  0
  8 10  1  0
  8 11  1  0
 11 12  1  0
 11 13  1  0
 11 14  1  0
 14 15  1  0
 14 16  1  0
 14 17  1  0
 17 18  1  0
 17 19  1  0
  4 20  2  0
 20 21  1  0
 21 22  1  0
 22 23  2  0
 23 24  1  0
 23 25  1  0
 25 26  2  0
 26 27  1  0
 26 28  1  0
 28 29  1  0
 28 30  2  0
 30 31  1  0
 21 32  2  0
 32 33  1  0
 32  2  1  0
 17  6  1  0
 30 22  1  0
M  END
>  <cnnaffinity>  (1) 
-5.29232

>  <filename>  (1) 
c1cncc(-c2ccnc(OC3CCCC3)n2)c1

$$$$
