
     RDKit          3D

 37 39  0  0  0  0  0  0  0  0999 V2000
    4.9608    1.7895   16.9845 H   0  0  0  0  0  0  0  0  0  0  0  0
    5.4119    1.2860   17.8328 C   0  0  0  0  0  0  0  0  0  0  0  0
    6.5775    0.6630   17.5978 N   0  0  0  0  0  0  0  0  0  0  0  0
    7.1796    0.0629   18.6281 C   0  0  0  0  0  0  0  0  0  0  0  0
    8.1296   -0.4313   18.4155 H   0  0  0  0  0  0  0  0  0  0  0  0
    6.6522    0.0627   19.9330 C   0  0  0  0  0  0  0  0  0  0  0  0
    7.3397   -0.6184   20.9737 N   0  0  0  0  0  0  0  0  0  0  0  0
    7.7497   -1.9332   20.8849 C   0  0  0  0  0  0  0  0  0  0  0  0
    7.3758   -2.5147   20.0642 H   0  0  0  0  0  0  0  0  0  0  0  0
    8.3867   -2.2907   22.0427 C   0  0  0  0  0  0  0  0  0  0  0  0
    8.8334   -3.2536   22.2689 H   0  0  0  0  0  0  0  0  0  0  0  0
    8.3077   -1.1696   22.9157 C   0  0  0  0  0  0  0  0  0  0  0  0
    8.6164   -1.0780   23.9472 H   0  0  0  0  0  0  0  0  0  0  0  0
    7.6358   -0.1708   22.2496 C   0  0  0  0  0  0  0  0  0  0  0  0
    7.1333    1.0247   22.7143 N   0  0  0  0  0  0  0  0  0  0  0  0
    7.2196    1.7634   22.0275 H   0  0  0  0  0  0  0  0  0  0  0  0
    7.3821    1.4396   24.0797 C   0  0  0  0  0  0  0  0  0  0  0  0
    7.1995    0.5821   24.7498 H   0  0  0  0  0  0  0  0  0  0  0  0
    8.8231    1.9013   24.3052 C   0  0  0  0  0  0  0  0  0  0  0  0
    9.0482    2.7406   23.6297 H   0  0  0  0  0  0  0  0  0  0  0  0
    9.5121    1.0914   24.0316 H   0  0  0  0  0  0  0  0  0  0  0  0
    9.0098    2.3469   25.7554 C   0  0  0  0  0  0  0  0  0  0  0  0
    8.8690    1.4888   26.4254 H   0  0  0  0  0  0  0  0  0  0  0  0
   10.0414    2.6429   25.8893 H   0  0  0  0  0  0  0  0  0  0  0  0
    8.0160    3.4573   26.1414 C   0  0  0  0  0  0  0  0  0  0  0  0
    8.2249    4.3541   25.5387 H   0  0  0  0  0  0  0  0  0  0  0  0
    8.1482    3.7507   27.1894 H   0  0  0  0  0  0  0  0  0  0  0  0
    6.5657    3.0087   25.8881 C   0  0  0  0  0  0  0  0  0  0  0  0
    6.3180    2.1801   26.5671 H   0  0  0  0  0  0  0  0  0  0  0  0
    5.8558    3.8088   26.1168 H   0  0  0  0  0  0  0  0  0  0  0  0
    6.3800    2.5321   24.4436 C   0  0  0  0  0  0  0  0  0  0  0  0
    5.3706    2.1494   24.2613 H   0  0  0  0  0  0  0  0  0  0  0  0
    6.5320    3.3681   23.7466 H   0  0  0  0  0  0  0  0  0  0  0  0
    5.4207    0.6944   20.1655 C   0  0  0  0  0  0  0  0  0  0  0  0
    4.9762    0.6691   21.1615 H   0  0  0  0  0  0  0  0  0  0  0  0
    4.7936    1.3164   19.0874 C   0  0  0  0  0  0  0  0  0  0  0  0
    3.8513    1.8348   19.2166 H   0  0  0  0  0  0  0  0  0  0  0  0
  1  2  1  0
  2  3  2  0
  3  4  1  0
  4  5  1  0
  4  6  2  0
  6  7  1  0
  7  8  1  0
  8  9  1  0
  8 10  2  0
 10 11  1  0
 10 12  1  0
 12 13  1  0
 12 14  2  0
 14 15  1  0
 15 16  1  0
 15 17  1  0
 17 18  1  0
 17 19  1  0
 19 20  1  0
 19 21  1  0
 19 22  1  0
 22 23  1  0
 22 24  1  0
 22 25  1  0
 25 26  1  0
 25 27  1  0
 25 28  1  0
 28 29  1  0
 28 30  1  0
 28 31  1  0
 31 32  1  0
 31 33  1  0
  6 34  1  0
 34 35  1  0
 34 36  2  0
 36 37  1  0
 36  2  1  0
 14  7  1  0
 31 17  1  0
M  END
>  <cnnaffinity>  (1) 
-4.70467

>  <filename>  (1) 
c1cncc(-n2cccc2NC2CCCCC2)c1

$$$$
