
     RDKit          3D

 43 46  0  0  0  0  0  0  0  0999 V2000
    5.1392    2.2995   16.6904 H   0  0  0  0  0  0  0  0  0  0  0  0
    5.5529    1.7271   17.5173 C   0  0  0  0  0  0  0  0  0  0  0  0
    6.5028    0.8272   17.2131 N   0  0  0  0  0  0  0  0  0  0  0  0
    7.0250    0.1106   18.2191 C   0  0  0  0  0  0  0  0  0  0  0  0
    7.8143   -0.5922   17.9505 H   0  0  0  0  0  0  0  0  0  0  0  0
    6.6521    0.2370   19.5830 C   0  0  0  0  0  0  0  0  0  0  0  0
    7.2880   -0.5215   20.6171 N   0  0  0  0  0  0  0  0  0  0  0  0
    7.0002   -1.9633   20.7056 C   0  0  0  0  0  0  0  0  0  0  0  0
    7.9219   -2.5245   20.9113 H   0  0  0  0  0  0  0  0  0  0  0  0
    6.6544   -2.2840   19.7182 H   0  0  0  0  0  0  0  0  0  0  0  0
    5.9237   -2.4063   21.7236 C   0  0  0  0  0  0  0  0  0  0  0  0
    5.5971   -3.4251   21.4903 H   0  0  0  0  0  0  0  0  0  0  0  0
    5.0551   -1.7581   21.5610 H   0  0  0  0  0  0  0  0  0  0  0  0
    6.3168   -2.4052   23.1347 N   0  0  0  0  0  0  0  0  0  0  0  0
    6.9052   -3.5772   23.7015 C   0  0  0  0  0  0  0  0  0  0  0  0
    6.1185   -4.5574   24.2883 C   0  0  0  0  0  0  0  0  0  0  0  0
    5.0331   -4.4664   24.2433 H   0  0  0  0  0  0  0  0  0  0  0  0
    6.5964   -5.6246   24.9913 N   0  0  0  0  0  0  0  0  0  0  0  0
    7.8982   -5.7425   25.1318 C   0  0  0  0  0  0  0  0  0  0  0  0
    8.2558   -6.5673   25.7476 H   0  0  0  0  0  0  0  0  0  0  0  0
    8.8518   -4.8474   24.5541 C   0  0  0  0  0  0  0  0  0  0  0  0
   10.2549   -4.9795   24.7757 C   0  0  0  0  0  0  0  0  0  0  0  0
   10.6211   -5.8085   25.3825 H   0  0  0  0  0  0  0  0  0  0  0  0
   11.1198   -4.0786   24.2099 C   0  0  0  0  0  0  0  0  0  0  0  0
   12.1749   -4.1641   24.3934 H   0  0  0  0  0  0  0  0  0  0  0  0
   10.6538   -3.0360   23.3736 C   0  0  0  0  0  0  0  0  0  0  0  0
   11.3736   -2.3679   22.9136 H   0  0  0  0  0  0  0  0  0  0  0  0
    9.2976   -2.8708   23.1775 C   0  0  0  0  0  0  0  0  0  0  0  0
    8.9471   -2.0363   22.5804 H   0  0  0  0  0  0  0  0  0  0  0  0
    8.3468   -3.7525   23.7828 C   0  0  0  0  0  0  0  0  0  0  0  0
    6.6259   -1.1587   23.8383 C   0  0  0  0  0  0  0  0  0  0  0  0
    5.9196   -1.0351   24.6758 H   0  0  0  0  0  0  0  0  0  0  0  0
    7.6029   -1.2493   24.3331 H   0  0  0  0  0  0  0  0  0  0  0  0
    6.6052    0.1100   22.9943 C   0  0  0  0  0  0  0  0  0  0  0  0
    5.5977    0.2559   22.5962 H   0  0  0  0  0  0  0  0  0  0  0  0
    6.7970    0.9532   23.6687 H   0  0  0  0  0  0  0  0  0  0  0  0
    7.6278    0.1879   21.8541 C   0  0  0  0  0  0  0  0  0  0  0  0
    7.7505    1.2422   21.5817 H   0  0  0  0  0  0  0  0  0  0  0  0
    8.6228   -0.1277   22.2048 H   0  0  0  0  0  0  0  0  0  0  0  0
    5.6687    1.2055   19.8601 C   0  0  0  0  0  0  0  0  0  0  0  0
    5.3777    1.3773   20.8891 H   0  0  0  0  0  0  0  0  0  0  0  0
    5.1039    1.9482   18.8209 C   0  0  0  0  0  0  0  0  0  0  0  0
    4.3496    2.7034   19.0222 H   0  0  0  0  0  0  0  0  0  0  0  0
  1  2  1  0
  2  3  2  0
  3  4  1  0
  4  5  1  0
  4  6  2  0
  6  7  1  0
  7  8  1  0
  8  9  1  0
  8 10  1  0
  8 11  1  0
 11 12  1  0
 11 13  1  0
 11 14  1  0
 14 15  1  0
 15 16  2  0
 16 17  1  0
 16 18  1  0
 18 19  2  0
 19 20  1  0
 19 21  1  0
 21 22  2  0
 22 23  1  0
 22 24  1  0
 24 25  1  0
 24 26  2  0
 26 27  1  0
 26 28  1  0
 28 29  1  0
 28 30  2  0
 14 31  1  0
 31 32  1  0
 31 33  1  0
 31 34  1  0
 34 35  1  0
 34 36  1  0
 34 37  1  0
 37 38  1  0
 37 39  1  0
  6 40  1  0
 40 41  1  0
 40 42  2  0
 42 43  1  0
 42  2  1  0
 37  7  1  0
 30 15  1  0
 30 21  1  0
M  END
>  <cnnaffinity>  (1) 
-5.8618

>  <filename>  (1) 
c1cncc(N2CCCN(c3cncc4ccccc34)CC2)c1

$$$$
