
     RDKit          3D

 25 27  0  0  0  0  0  0  0  0999 V2000
    5.3513    2.7373   23.7285 H   0  0  0  0  0  0  0  0  0  0  0  0
    6.4021    2.7004   23.4682 C   0  0  0  0  0  0  0  0  0  0  0  0
    7.3057    3.5664   23.7752 N   0  0  0  0  0  0  0  0  0  0  0  0
    8.4669    3.0732   23.2197 C   0  0  0  0  0  0  0  0  0  0  0  0
    9.4328    3.5511   23.2818 H   0  0  0  0  0  0  0  0  0  0  0  0
    8.1861    1.9046   22.6061 C   0  0  0  0  0  0  0  0  0  0  0  0
    8.9734    1.0081   21.9198 N   0  0  0  0  0  0  0  0  0  0  0  0
   10.3080    1.2325   21.8431 N   0  0  0  0  0  0  0  0  0  0  0  0
   10.8017    0.2708   21.1751 N   0  0  0  0  0  0  0  0  0  0  0  0
    9.8418   -0.5967   20.7799 N   0  0  0  0  0  0  0  0  0  0  0  0
    8.7149   -0.1484   21.2580 C   0  0  0  0  0  0  0  0  0  0  0  0
    7.3757   -0.7414   20.9963 C   0  0  0  0  0  0  0  0  0  0  0  0
    7.5566   -1.7840   20.7003 H   0  0  0  0  0  0  0  0  0  0  0  0
    6.8001   -0.7418   21.9262 H   0  0  0  0  0  0  0  0  0  0  0  0
    6.6316    0.0034   19.8968 C   0  0  0  0  0  0  0  0  0  0  0  0
    7.1490    0.0675   18.5865 C   0  0  0  0  0  0  0  0  0  0  0  0
    8.0977   -0.4144   18.3679 H   0  0  0  0  0  0  0  0  0  0  0  0
    6.5526    0.6804   17.5582 N   0  0  0  0  0  0  0  0  0  0  0  0
    5.3945    1.3018   17.8268 C   0  0  0  0  0  0  0  0  0  0  0  0
    4.9169    1.7928   16.9832 H   0  0  0  0  0  0  0  0  0  0  0  0
    4.7955    1.3210   19.0940 C   0  0  0  0  0  0  0  0  0  0  0  0
    3.8626    1.8528   19.2468 H   0  0  0  0  0  0  0  0  0  0  0  0
    5.4244    0.6563   20.1503 C   0  0  0  0  0  0  0  0  0  0  0  0
    5.0061    0.6311   21.1592 H   0  0  0  0  0  0  0  0  0  0  0  0
    6.8670    1.6387   22.7474 O   0  0  0  0  0  0  0  0  0  0  0  0
  1  2  1  0
  2  3  2  0
  3  4  1  0
  4  5  1  0
  4  6  2  0
  6  7  1  0
  7  8  1  0
  8  9  2  0
  9 10  1  0
 10 11  2  0
 11 12  1  0
 12 13  1  0
 12 14  1  0
 12 15  1  0
 15 16  2  0
 16 17  1  0
 16 18  1  0
 18 19  2  0
 19 20  1  0
 19 21  1  0
 21 22  1  0
 21 23  2  0
 23 24  1  0
  6 25  1  0
 25  2  1  0
 11  7  1  0
 23 15  1  0
M  END
>  <cnnaffinity>  (1) 
-4.70167

>  <filename>  (1) 
c1cncc(Cc2nnnn2-c2cnco2)c1

$$$$
