
     RDKit          3D

 38 41  0  0  0  0  0  0  0  0999 V2000
    4.9166    1.7872   16.9907 H   0  0  0  0  0  0  0  0  0  0  0  0
    5.3981    1.2965   17.8341 C   0  0  0  0  0  0  0  0  0  0  0  0
    6.5572    0.6717   17.5754 N   0  0  0  0  0  0  0  0  0  0  0  0
    7.1697    0.0550   18.5953 C   0  0  0  0  0  0  0  0  0  0  0  0
    8.1161   -0.4279   18.3625 H   0  0  0  0  0  0  0  0  0  0  0  0
    6.6520    0.0024   19.9076 C   0  0  0  0  0  0  0  0  0  0  0  0
    7.3164   -0.7056   20.9512 N   0  0  0  0  0  0  0  0  0  0  0  0
    6.7480   -1.7002   21.7226 C   0  0  0  0  0  0  0  0  0  0  0  0
    5.7137   -1.9612   21.5553 H   0  0  0  0  0  0  0  0  0  0  0  0
    7.6961   -2.1858   22.5906 C   0  0  0  0  0  0  0  0  0  0  0  0
    7.5592   -2.9591   23.3343 H   0  0  0  0  0  0  0  0  0  0  0  0
    8.8902   -1.4587   22.3558 C   0  0  0  0  0  0  0  0  0  0  0  0
    9.8472   -1.5359   22.8656 H   0  0  0  0  0  0  0  0  0  0  0  0
    8.6255   -0.5404   21.3697 C   0  0  0  0  0  0  0  0  0  0  0  0
    9.5810    0.4700   20.8203 C   0  0  0  0  0  0  0  0  0  0  0  0
   10.2976   -0.1626   20.2943 H   0  0  0  0  0  0  0  0  0  0  0  0
    9.0994    1.1512   20.1092 H   0  0  0  0  0  0  0  0  0  0  0  0
   10.2941    1.2530   21.9003 C   0  0  0  0  0  0  0  0  0  0  0  0
   11.5898    0.9248   22.2526 C   0  0  0  0  0  0  0  0  0  0  0  0
   12.1142    0.1351   21.7112 H   0  0  0  0  0  0  0  0  0  0  0  0
   12.2579    1.5854   23.3195 C   0  0  0  0  0  0  0  0  0  0  0  0
   13.2831    1.3100   23.5632 H   0  0  0  0  0  0  0  0  0  0  0  0
   11.6008    2.5666   24.0229 C   0  0  0  0  0  0  0  0  0  0  0  0
   12.0724    3.0964   24.8358 H   0  0  0  0  0  0  0  0  0  0  0  0
   10.2575    2.9318   23.7099 C   0  0  0  0  0  0  0  0  0  0  0  0
    9.5745    3.9455   24.4501 C   0  0  0  0  0  0  0  0  0  0  0  0
   10.1089    4.4499   25.2512 H   0  0  0  0  0  0  0  0  0  0  0  0
    8.2765    4.2826   24.1547 C   0  0  0  0  0  0  0  0  0  0  0  0
    7.7669    5.0589   24.7242 H   0  0  0  0  0  0  0  0  0  0  0  0
    7.5911    3.6184   23.0985 C   0  0  0  0  0  0  0  0  0  0  0  0
    6.5651    3.8993   22.8711 H   0  0  0  0  0  0  0  0  0  0  0  0
    8.2181    2.6383   22.3608 C   0  0  0  0  0  0  0  0  0  0  0  0
    7.6794    2.1386   21.5549 H   0  0  0  0  0  0  0  0  0  0  0  0
    9.5814    2.2659   22.6362 C   0  0  0  0  0  0  0  0  0  0  0  0
    5.4332    0.6467   20.1602 C   0  0  0  0  0  0  0  0  0  0  0  0
    5.0101    0.6316   21.1677 H   0  0  0  0  0  0  0  0  0  0  0  0
    4.8070    1.3128   19.1035 C   0  0  0  0  0  0  0  0  0  0  0  0
    3.8755    1.8427   19.2574 H   0  0  0  0  0  0  0  0  0  0  0  0
  1  2  1  0
  2  3  2  0
  3  4  1  0
  4  5  1  0
  4  6  2  0
  6  7  1  0
  7  8  1  0
  8  9  1  0
  8 10  2  0
 10 11  1  0
 10 12  1  0
 12 13  1  0
 12 14  2  0
 14 15  1  0
 15 16  1  0
 15 17  1  0
 15 18  1  0
 18 19  2  0
 19 20  1  0
 19 21  1  0
 21 22  1  0
 21 23  2  0
 23 24  1  0
 23 25  1  0
 25 26  2  0
 26 27  1  0
 26 28  1  0
 28 29  1  0
 28 30  2  0
 30 31  1  0
 30 32  1  0
 32 33  1  0
 32 34  2  0
  6 35  1  0
 35 36  1  0
 35 37  2  0
 37 38  1  0
 37  2  1  0
 14  7  1  0
 34 18  1  0
 34 25  1  0
M  END
>  <cnnaffinity>  (1) 
-5.60347

>  <filename>  (1) 
c1cncc(-n2cccc2Cc2cccc3ccccc23)c1

$$$$
