
     RDKit          3D

 36 40  0  0  0  0  0  0  0  0999 V2000
    5.0352    1.8687   17.1585 H   0  0  0  0  0  0  0  0  0  0  0  0
    5.4955    1.2323   17.9128 C   0  0  0  0  0  0  0  0  0  0  0  0
    6.6203    0.5955   17.5441 N   0  0  0  0  0  0  0  0  0  0  0  0
    7.2364   -0.1461   18.4732 C   0  0  0  0  0  0  0  0  0  0  0  0
    8.1603   -0.6330   18.1535 H   0  0  0  0  0  0  0  0  0  0  0  0
    6.7559   -0.3178   19.7847 C   0  0  0  0  0  0  0  0  0  0  0  0
    7.5818   -0.9957   20.7945 C   0  0  0  0  0  0  0  0  0  0  0  0
    8.8790   -0.7278   21.0380 C   0  0  0  0  0  0  0  0  0  0  0  0
    9.5314   -0.1128   20.4358 H   0  0  0  0  0  0  0  0  0  0  0  0
    9.4415   -1.3925   22.5440 S   0  0  0  0  0  0  0  0  0  0  0  0
    7.8633   -2.0395   22.8495 C   0  0  0  0  0  0  0  0  0  0  0  0
    7.2361   -2.6956   23.8030 N   0  0  0  0  0  0  0  0  0  0  0  0
    5.9975   -2.8883   23.2593 C   0  0  0  0  0  0  0  0  0  0  0  0
    4.8778   -3.5882   23.9389 C   0  0  0  0  0  0  0  0  0  0  0  0
    3.9850   -4.2923   23.1396 C   0  0  0  0  0  0  0  0  0  0  0  0
    4.1922   -4.3764   22.0726 H   0  0  0  0  0  0  0  0  0  0  0  0
    2.8099   -4.8734   23.6755 C   0  0  0  0  0  0  0  0  0  0  0  0
    2.1396   -5.4193   23.0144 H   0  0  0  0  0  0  0  0  0  0  0  0
    2.5279   -4.7643   25.0161 C   0  0  0  0  0  0  0  0  0  0  0  0
    1.5902   -5.1433   25.4208 H   0  0  0  0  0  0  0  0  0  0  0  0
    3.4431   -4.1177   25.9000 C   0  0  0  0  0  0  0  0  0  0  0  0
    3.1876   -4.1062   27.3073 C   0  0  0  0  0  0  0  0  0  0  0  0
    2.3222   -4.6549   27.6812 H   0  0  0  0  0  0  0  0  0  0  0  0
    4.0382   -3.4569   28.1660 C   0  0  0  0  0  0  0  0  0  0  0  0
    3.8512   -3.4660   29.2375 H   0  0  0  0  0  0  0  0  0  0  0  0
    5.1822   -2.7895   27.6547 C   0  0  0  0  0  0  0  0  0  0  0  0
    5.8293   -2.2556   28.3448 H   0  0  0  0  0  0  0  0  0  0  0  0
    5.4929   -2.8300   26.3115 C   0  0  0  0  0  0  0  0  0  0  0  0
    6.4009   -2.3621   25.9497 H   0  0  0  0  0  0  0  0  0  0  0  0
    4.6365   -3.5057   25.3736 C   0  0  0  0  0  0  0  0  0  0  0  0
    5.8513   -2.3946   22.0223 N   0  0  0  0  0  0  0  0  0  0  0  0
    7.0535   -1.8097   21.8021 N   0  0  0  0  0  0  0  0  0  0  0  0
    5.5478    0.3063   20.1338 C   0  0  0  0  0  0  0  0  0  0  0  0
    5.1430    0.1507   21.1364 H   0  0  0  0  0  0  0  0  0  0  0  0
    4.9231    1.1125   19.1855 C   0  0  0  0  0  0  0  0  0  0  0  0
    4.0219    1.6630   19.4293 H   0  0  0  0  0  0  0  0  0  0  0  0
  1  2  1  0
  2  3  2  0
  3  4  1  0
  4  5  1  0
  4  6  2  0
  6  7  1  0
  7  8  2  0
  8  9  1  0
  8 10  1  0
 10 11  1  0
 11 12  2  0
 12 13  1  0
 13 14  1  0
 14 15  2  0
 15 16  1  0
 15 17  1  0
 17 18  1  0
 17 19  2  0
 19 20  1  0
 19 21  1  0
 21 22  2  0
 22 23  1  0
 22 24  1  0
 24 25  1  0
 24 26  2  0
 26 27  1  0
 26 28  1  0
 28 29  1  0
 28 30  2  0
 13 31  2  0
 31 32  1  0
  6 33  1  0
 33 34  1  0
 33 35  2  0
 35 36  1  0
 35  2  1  0
 32  7  1  0
 32 11  1  0
 30 14  1  0
 30 21  1  0
M  END
>  <cnnaffinity>  (1) 
-5.56563

>  <filename>  (1) 
c1cncc(-c2csc3nc(-c4cccc5ccccc45)nn23)c1

$$$$
