
     RDKit          3D

 35 37  0  0  0  0  0  0  0  0999 V2000
    4.9080    1.8437   16.9364 H   0  0  0  0  0  0  0  0  0  0  0  0
    5.3656    1.3246   17.7756 C   0  0  0  0  0  0  0  0  0  0  0  0
    6.5285    0.7025   17.5250 N   0  0  0  0  0  0  0  0  0  0  0  0
    7.1429    0.0884   18.5487 C   0  0  0  0  0  0  0  0  0  0  0  0
    8.1018   -0.3745   18.3144 H   0  0  0  0  0  0  0  0  0  0  0  0
    6.6227    0.0244   19.8721 C   0  0  0  0  0  0  0  0  0  0  0  0
    7.2945   -0.5690   20.9647 N   0  0  0  0  0  0  0  0  0  0  0  0
    6.6636   -1.5712   21.8159 C   0  0  0  0  0  0  0  0  0  0  0  0
    6.5936   -1.2211   22.8583 H   0  0  0  0  0  0  0  0  0  0  0  0
    5.6364   -1.7225   21.4665 H   0  0  0  0  0  0  0  0  0  0  0  0
    7.3589   -2.9535   21.8193 C   0  0  0  0  0  0  0  0  0  0  0  0
    7.5629   -3.2650   20.7894 H   0  0  0  0  0  0  0  0  0  0  0  0
    6.6665   -3.6870   22.2397 H   0  0  0  0  0  0  0  0  0  0  0  0
    8.5987   -3.0288   22.5826 N   0  0  0  0  0  0  0  0  0  0  0  0
    8.5766   -3.4561   23.9020 C   0  0  0  0  0  0  0  0  0  0  0  0
    7.1237   -3.4863   24.8770 S   0  0  0  0  0  0  0  0  0  0  0  0
    7.9991   -4.0771   26.2437 C   0  0  0  0  0  0  0  0  0  0  0  0
    7.4654   -4.2745   27.1629 H   0  0  0  0  0  0  0  0  0  0  0  0
    9.3240   -4.2418   25.9719 C   0  0  0  0  0  0  0  0  0  0  0  0
   10.0480   -4.6009   26.7013 H   0  0  0  0  0  0  0  0  0  0  0  0
    9.6545   -3.8798   24.6275 C   0  0  0  0  0  0  0  0  0  0  0  0
   10.6406   -3.9227   24.1715 H   0  0  0  0  0  0  0  0  0  0  0  0
    9.8110   -2.3328   22.1598 C   0  0  0  0  0  0  0  0  0  0  0  0
   10.6170   -3.0492   21.9657 H   0  0  0  0  0  0  0  0  0  0  0  0
   10.1709   -1.7369   23.0108 H   0  0  0  0  0  0  0  0  0  0  0  0
    9.6513   -1.3843   20.9809 C   0  0  0  0  0  0  0  0  0  0  0  0
    9.3075   -1.9462   20.1083 H   0  0  0  0  0  0  0  0  0  0  0  0
   10.6476   -0.9885   20.7502 H   0  0  0  0  0  0  0  0  0  0  0  0
    8.6784   -0.2286   21.2509 C   0  0  0  0  0  0  0  0  0  0  0  0
    8.7816    0.1290   22.2926 H   0  0  0  0  0  0  0  0  0  0  0  0
    8.9450    0.6319   20.6302 H   0  0  0  0  0  0  0  0  0  0  0  0
    5.3859    0.6574   20.0871 C   0  0  0  0  0  0  0  0  0  0  0  0
    4.9879    0.6481   21.0993 H   0  0  0  0  0  0  0  0  0  0  0  0
    4.7553    1.3279   19.0352 C   0  0  0  0  0  0  0  0  0  0  0  0
    3.8226    1.8624   19.1851 H   0  0  0  0  0  0  0  0  0  0  0  0
  1  2  1  0
  2  3  2  0
  3  4  1  0
  4  5  1  0
  4  6  2  0
  6  7  1  0
  7  8  1  0
  8  9  1  0
  8 10  1  0
  8 11  1  0
 11 12  1  0
 11 13  1  0
 11 14  1  0
 14 15  1  0
 15 16  1  0
 16 17  1  0
 17 18  1  0
 17 19  2  0
 19 20  1  0
 19 21  1  0
 21 22  1  0
 14 23  1  0
 23 24  1  0
 23 25  1  0
 23 26  1  0
 26 27  1  0
 26 28  1  0
 26 29  1  0
 29 30  1  0
 29 31  1  0
  6 32  1  0
 32 33  1  0
 32 34  2  0
 34 35  1  0
 34  2  1  0
 29  7  1  0
 21 15  2  0
M  END
>  <cnnaffinity>  (1) 
-4.9512

>  <filename>  (1) 
c1cncc(N2CCCN(c3cccs3)CC2)c1

$$$$
