
     RDKit          3D

 37 39  0  0  0  0  0  0  0  0999 V2000
    6.7595   -3.5238   22.8083 H   0  0  0  0  0  0  0  0  0  0  0  0
    7.2514   -2.6324   22.4237 C   0  0  0  0  0  0  0  0  0  0  0  0
    8.4236   -2.3282   22.9790 N   0  0  0  0  0  0  0  0  0  0  0  0
    9.0104   -1.2221   22.5323 C   0  0  0  0  0  0  0  0  0  0  0  0
    9.9531   -0.9485   23.0115 H   0  0  0  0  0  0  0  0  0  0  0  0
    8.4853   -0.4483   21.5037 C   0  0  0  0  0  0  0  0  0  0  0  0
    9.2264    0.8007   21.1645 C   0  0  0  0  0  0  0  0  0  0  0  0
   10.2758    0.5318   20.9634 H   0  0  0  0  0  0  0  0  0  0  0  0
    8.8643    1.2793   20.2415 H   0  0  0  0  0  0  0  0  0  0  0  0
    9.1723    1.7364   22.2869 N   0  0  0  0  0  0  0  0  0  0  0  0
    7.8506    2.3947   22.3579 C   0  0  0  0  0  0  0  0  0  0  0  0
    7.5910    2.9012   21.4041 H   0  0  0  0  0  0  0  0  0  0  0  0
    7.0850    1.6294   22.5223 H   0  0  0  0  0  0  0  0  0  0  0  0
    7.7802    3.4465   23.4624 C   0  0  0  0  0  0  0  0  0  0  0  0
    7.9313    2.9807   24.4419 H   0  0  0  0  0  0  0  0  0  0  0  0
    6.7737    3.8824   23.4677 H   0  0  0  0  0  0  0  0  0  0  0  0
    8.8302    4.5285   23.2106 C   0  0  0  0  0  0  0  0  0  0  0  0
    8.8546    5.2535   24.0304 H   0  0  0  0  0  0  0  0  0  0  0  0
    8.5546    5.0776   22.2999 H   0  0  0  0  0  0  0  0  0  0  0  0
   10.2203    3.9025   23.0640 C   0  0  0  0  0  0  0  0  0  0  0  0
   10.9309    4.6234   22.6567 H   0  0  0  0  0  0  0  0  0  0  0  0
   10.6037    3.6423   24.0534 H   0  0  0  0  0  0  0  0  0  0  0  0
   10.2919    2.6743   22.1576 C   0  0  0  0  0  0  0  0  0  0  0  0
   10.4312    2.9749   21.1055 H   0  0  0  0  0  0  0  0  0  0  0  0
   11.2095    2.1273   22.4166 H   0  0  0  0  0  0  0  0  0  0  0  0
    7.2452   -0.8563   21.0079 C   0  0  0  0  0  0  0  0  0  0  0  0
    6.5580   -0.0971   19.9457 C   0  0  0  0  0  0  0  0  0  0  0  0
    7.1423   -0.0453   18.6764 C   0  0  0  0  0  0  0  0  0  0  0  0
    8.0905   -0.5442   18.4736 H   0  0  0  0  0  0  0  0  0  0  0  0
    6.6173    0.6172   17.6360 N   0  0  0  0  0  0  0  0  0  0  0  0
    5.4674    1.2741   17.8452 C   0  0  0  0  0  0  0  0  0  0  0  0
    5.0465    1.8025   16.9917 H   0  0  0  0  0  0  0  0  0  0  0  0
    4.8061    1.2887   19.0797 C   0  0  0  0  0  0  0  0  0  0  0  0
    3.8835    1.8482   19.1825 H   0  0  0  0  0  0  0  0  0  0  0  0
    5.3515    0.5827   20.1506 C   0  0  0  0  0  0  0  0  0  0  0  0
    4.8562    0.5658   21.1276 H   0  0  0  0  0  0  0  0  0  0  0  0
    6.6287   -1.9550   21.4597 N   0  0  0  0  0  0  0  0  0  0  0  0
  1  2  1  0
  2  3  2  0
  3  4  1  0
  4  5  1  0
  4  6  2  0
  6  7  1  0
  7  8  1  0
  7  9  1  0
  7 10  1  0
 10 11  1  0
 11 12  1  0
 11 13  1  0
 11 14  1  0
 14 15  1  0
 14 16  1  0
 14 17  1  0
 17 18  1  0
 17 19  1  0
 17 20  1  0
 20 21  1  0
 20 22  1  0
 20 23  1  0
 23 24  1  0
 23 25  1  0
  6 26  1  0
 26 27  1  0
 27 28  2  0
 28 29  1  0
 28 30  1  0
 30 31  2  0
 31 32  1  0
 31 33  1  0
 33 34  1  0
 33 35  2  0
 35 36  1  0
 26 37  2  0
 37  2  1  0
 23 10  1  0
 35 27  1  0
M  END
>  <cnnaffinity>  (1) 
-5.11241

>  <filename>  (1) 
c1cncc(-c2ncncc2CN2CCCCC2)c1

$$$$
