
     RDKit          3D

 31 35  0  0  0  0  0  0  0  0999 V2000
    4.9167    1.7756   17.0023 H   0  0  0  0  0  0  0  0  0  0  0  0
    5.4046    1.2898   17.8432 C   0  0  0  0  0  0  0  0  0  0  0  0
    6.5702    0.6776   17.5767 N   0  0  0  0  0  0  0  0  0  0  0  0
    7.1745    0.0566   18.5909 C   0  0  0  0  0  0  0  0  0  0  0  0
    8.1241   -0.4344   18.3742 H   0  0  0  0  0  0  0  0  0  0  0  0
    6.6482    0.0105   19.8926 C   0  0  0  0  0  0  0  0  0  0  0  0
    7.4053   -0.7041   20.9148 C   0  0  0  0  0  0  0  0  0  0  0  0
    8.3300   -1.6067   20.7019 N   0  0  0  0  0  0  0  0  0  0  0  0
    8.8298   -2.0383   21.9105 N   0  0  0  0  0  0  0  0  0  0  0  0
    8.2004   -1.3537   22.8285 C   0  0  0  0  0  0  0  0  0  0  0  0
    8.2621   -1.0872   24.5518 S   0  0  0  0  0  0  0  0  0  0  0  0
    7.0471    0.1629   24.3047 C   0  0  0  0  0  0  0  0  0  0  0  0
    6.5357    0.9671   25.4096 C   0  0  0  0  0  0  0  0  0  0  0  0
    5.6553    1.8991   25.3078 N   0  0  0  0  0  0  0  0  0  0  0  0
    5.4984    2.3675   26.6010 C   0  0  0  0  0  0  0  0  0  0  0  0
    4.6731    3.3809   27.1106 C   0  0  0  0  0  0  0  0  0  0  0  0
    4.0282    3.9254   26.4268 H   0  0  0  0  0  0  0  0  0  0  0  0
    4.7272    3.6366   28.4828 C   0  0  0  0  0  0  0  0  0  0  0  0
    4.0951    4.4180   28.9007 H   0  0  0  0  0  0  0  0  0  0  0  0
    5.5893    2.8937   29.3246 C   0  0  0  0  0  0  0  0  0  0  0  0
    5.6090    3.1138   30.3893 H   0  0  0  0  0  0  0  0  0  0  0  0
    6.4166    1.8797   28.8173 C   0  0  0  0  0  0  0  0  0  0  0  0
    7.0841    1.2969   29.4447 H   0  0  0  0  0  0  0  0  0  0  0  0
    6.3474    1.6402   27.4463 C   0  0  0  0  0  0  0  0  0  0  0  0
    7.0222    0.7301   26.6771 O   0  0  0  0  0  0  0  0  0  0  0  0
    6.6271    0.3494   23.0897 N   0  0  0  0  0  0  0  0  0  0  0  0
    7.2734   -0.5183   22.2761 N   0  0  0  0  0  0  0  0  0  0  0  0
    5.4329    0.6525   20.1639 C   0  0  0  0  0  0  0  0  0  0  0  0
    5.0115    0.6373   21.1729 H   0  0  0  0  0  0  0  0  0  0  0  0
    4.8050    1.3079   19.1096 C   0  0  0  0  0  0  0  0  0  0  0  0
    3.8744    1.8434   19.2619 H   0  0  0  0  0  0  0  0  0  0  0  0
  1  2  1  0
  2  3  2  0
  3  4  1  0
  4  5  1  0
  4  6  2  0
  6  7  1  0
  7  8  2  0
  8  9  1  0
  9 10  2  0
 10 11  1  0
 11 12  1  0
 12 13  1  0
 13 14  2  0
 14 15  1  0
 15 16  2  0
 16 17  1  0
 16 18  1  0
 18 19  1  0
 18 20  2  0
 20 21  1  0
 20 22  1  0
 22 23  1  0
 22 24  2  0
 24 25  1  0
 12 26  2  0
 26 27  1  0
  6 28  1  0
 28 29  1  0
 28 30  2  0
 30 31  1  0
 30  2  1  0
 27  7  1  0
 27 10  1  0
 25 13  1  0
 24 15  1  0
M  END
>  <cnnaffinity>  (1) 
-5.46122

>  <filename>  (1) 
c1cncc(-c2nnc3sc(-c4nc5ccccc5o4)nn23)c1

$$$$
