
     RDKit          3D

 37 39  0  0  0  0  0  0  0  0999 V2000
    4.9275    1.7848   16.9964 H   0  0  0  0  0  0  0  0  0  0  0  0
    5.4042    1.2937   17.8424 C   0  0  0  0  0  0  0  0  0  0  0  0
    6.5615    0.6662   17.5877 N   0  0  0  0  0  0  0  0  0  0  0  0
    7.1705    0.0467   18.6070 C   0  0  0  0  0  0  0  0  0  0  0  0
    8.1144   -0.4345   18.3653 H   0  0  0  0  0  0  0  0  0  0  0  0
    6.6559   -0.0038   19.9136 C   0  0  0  0  0  0  0  0  0  0  0  0
    7.3552   -0.6995   20.9347 N   0  0  0  0  0  0  0  0  0  0  0  0
    6.7316   -1.6744   21.6322 N   0  0  0  0  0  0  0  0  0  0  0  0
    7.6296   -2.1085   22.5018 C   0  0  0  0  0  0  0  0  0  0  0  0
    7.3697   -2.9117   23.1778 H   0  0  0  0  0  0  0  0  0  0  0  0
    8.8475   -1.4131   22.3888 C   0  0  0  0  0  0  0  0  0  0  0  0
    9.7414   -1.5115   22.9915 H   0  0  0  0  0  0  0  0  0  0  0  0
    8.6426   -0.5019   21.3796 C   0  0  0  0  0  0  0  0  0  0  0  0
    9.5469    0.6075   20.9538 C   0  0  0  0  0  0  0  0  0  0  0  0
   10.5710    0.2286   21.0353 H   0  0  0  0  0  0  0  0  0  0  0  0
    9.3934    0.8442   19.8986 H   0  0  0  0  0  0  0  0  0  0  0  0
    9.4337    1.8988   21.8017 C   0  0  0  0  0  0  0  0  0  0  0  0
   10.1500    2.6181   21.3687 H   0  0  0  0  0  0  0  0  0  0  0  0
    8.0371    2.5313   21.7095 C   0  0  0  0  0  0  0  0  0  0  0  0
    7.7630    2.5957   20.6587 H   0  0  0  0  0  0  0  0  0  0  0  0
    7.2824    1.8530   22.1298 H   0  0  0  0  0  0  0  0  0  0  0  0
    7.9678    3.8696   22.4646 C   0  0  0  0  0  0  0  0  0  0  0  0
    6.9627    4.3023   22.3984 H   0  0  0  0  0  0  0  0  0  0  0  0
    8.6409    4.5990   21.9931 H   0  0  0  0  0  0  0  0  0  0  0  0
    8.3812    3.6854   23.9363 C   0  0  0  0  0  0  0  0  0  0  0  0
    7.6317    3.0553   24.4360 H   0  0  0  0  0  0  0  0  0  0  0  0
    8.3735    4.6453   24.4669 H   0  0  0  0  0  0  0  0  0  0  0  0
    9.7576    3.0116   24.0615 C   0  0  0  0  0  0  0  0  0  0  0  0
   10.0033    2.8327   25.1132 H   0  0  0  0  0  0  0  0  0  0  0  0
   10.5276    3.6917   23.6721 H   0  0  0  0  0  0  0  0  0  0  0  0
    9.8195    1.6946   23.2766 C   0  0  0  0  0  0  0  0  0  0  0  0
   10.8179    1.2468   23.3442 H   0  0  0  0  0  0  0  0  0  0  0  0
    9.1244    0.9759   23.7335 H   0  0  0  0  0  0  0  0  0  0  0  0
    5.4377    0.6400   20.1706 C   0  0  0  0  0  0  0  0  0  0  0  0
    5.0009    0.6126   21.1731 H   0  0  0  0  0  0  0  0  0  0  0  0
    4.8143    1.3083   19.1119 C   0  0  0  0  0  0  0  0  0  0  0  0
    3.8822    1.8381   19.2589 H   0  0  0  0  0  0  0  0  0  0  0  0
  1  2  1  0
  2  3  2  0
  3  4  1  0
  4  5  1  0
  4  6  2  0
  6  7  1  0
  7  8  1  0
  8  9  2  0
  9 10  1  0
  9 11  1  0
 11 12  1  0
 11 13  2  0
 13 14  1  0
 14 15  1  0
 14 16  1  0
 14 17  1  0
 17 18  1  0
 17 19  1  0
 19 20  1  0
 19 21  1  0
 19 22  1  0
 22 23  1  0
 22 24  1  0
 22 25  1  0
 25 26  1  0
 25 27  1  0
 25 28  1  0
 28 29  1  0
 28 30  1  0
 28 31  1  0
 31 32  1  0
 31 33  1  0
  6 34  1  0
 34 35  1  0
 34 36  2  0
 36 37  1  0
 36  2  1  0
 13  7  1  0
 31 17  1  0
M  END
>  <cnnaffinity>  (1) 
-5.26744

>  <filename>  (1) 
c1cncc(-n2nccc2CC2CCCCC2)c1

$$$$
