
     RDKit          3D

 39 41  0  0  0  0  0  0  0  0999 V2000
    4.9274    1.7915   16.9879 H   0  0  0  0  0  0  0  0  0  0  0  0
    5.3973    1.2907   17.8336 C   0  0  0  0  0  0  0  0  0  0  0  0
    6.5597    0.6668   17.5850 N   0  0  0  0  0  0  0  0  0  0  0  0
    7.1721    0.0587   18.6100 C   0  0  0  0  0  0  0  0  0  0  0  0
    8.1153   -0.4278   18.3711 H   0  0  0  0  0  0  0  0  0  0  0  0
    6.6759    0.0310   19.9415 C   0  0  0  0  0  0  0  0  0  0  0  0
    7.3523   -0.6226   20.9998 N   0  0  0  0  0  0  0  0  0  0  0  0
    7.4215   -0.3174   22.3574 C   0  0  0  0  0  0  0  0  0  0  0  0
    6.9285    0.8642   22.7334 O   0  0  0  0  0  0  0  0  0  0  0  0
    7.0085    1.2050   24.1389 C   0  0  0  0  0  0  0  0  0  0  0  0
    8.0606    1.1755   24.4467 H   0  0  0  0  0  0  0  0  0  0  0  0
    6.4613    0.4510   24.7176 H   0  0  0  0  0  0  0  0  0  0  0  0
    6.4078    2.5989   24.3493 C   0  0  0  0  0  0  0  0  0  0  0  0
    6.9451    3.2824   23.6725 H   0  0  0  0  0  0  0  0  0  0  0  0
    4.9052    2.6702   24.0054 C   0  0  0  0  0  0  0  0  0  0  0  0
    4.7254    2.3263   22.9800 H   0  0  0  0  0  0  0  0  0  0  0  0
    4.3640    1.9692   24.6605 H   0  0  0  0  0  0  0  0  0  0  0  0
    4.3243    4.0998   24.1957 C   0  0  0  0  0  0  0  0  0  0  0  0
    3.2781    4.0210   24.5205 H   0  0  0  0  0  0  0  0  0  0  0  0
    4.3133    4.6432   23.2442 H   0  0  0  0  0  0  0  0  0  0  0  0
    5.0465    4.9505   25.1547 N   0  0  0  0  0  0  0  0  0  0  0  0
    5.8326    5.3652   24.6598 H   0  0  0  0  0  0  0  0  0  0  0  0
    5.5895    4.1695   26.2640 C   0  0  0  0  0  0  0  0  0  0  0  0
    4.7364    3.6959   26.7689 H   0  0  0  0  0  0  0  0  0  0  0  0
    6.0322    4.8543   26.9959 H   0  0  0  0  0  0  0  0  0  0  0  0
    6.6211    3.0957   25.8123 C   0  0  0  0  0  0  0  0  0  0  0  0
    6.5670    2.2524   26.5146 H   0  0  0  0  0  0  0  0  0  0  0  0
    7.6354    3.5038   25.9025 H   0  0  0  0  0  0  0  0  0  0  0  0
    7.9909   -1.1815   23.1146 N   0  0  0  0  0  0  0  0  0  0  0  0
    8.3968   -2.2944   22.2594 C   0  0  0  0  0  0  0  0  0  0  0  0
    7.8912   -3.2209   22.5665 H   0  0  0  0  0  0  0  0  0  0  0  0
    9.4767   -2.4790   22.3400 H   0  0  0  0  0  0  0  0  0  0  0  0
    8.0098   -1.9101   20.8152 C   0  0  0  0  0  0  0  0  0  0  0  0
    8.8810   -1.8230   20.1521 H   0  0  0  0  0  0  0  0  0  0  0  0
    7.3181   -2.6313   20.3654 H   0  0  0  0  0  0  0  0  0  0  0  0
    5.4443    0.6633   20.1674 C   0  0  0  0  0  0  0  0  0  0  0  0
    5.0266    0.6290   21.1678 H   0  0  0  0  0  0  0  0  0  0  0  0
    4.8050    1.3066   19.1016 C   0  0  0  0  0  0  0  0  0  0  0  0
    3.8728    1.8359   19.2508 H   0  0  0  0  0  0  0  0  0  0  0  0
  1  2  1  0
  2  3  2  0
  3  4  1  0
  4  5  1  0
  4  6  2  0
  6  7  1  0
  7  8  1  0
  8  9  1  0
  9 10  1  0
 10 11  1  0
 10 12  1  0
 10 13  1  0
 13 14  1  0
 13 15  1  0
 15 16  1  0
 15 17  1  0
 15 18  1  0
 18 19  1  0
 18 20  1  0
 18 21  1  0
 21 22  1  0
 21 23  1  0
 23 24  1  0
 23 25  1  0
 23 26  1  0
 26 27  1  0
 26 28  1  0
  8 29  2  0
 29 30  1  0
 30 31  1  0
 30 32  1  0
 30 33  1  0
 33 34  1  0
 33 35  1  0
  6 36  1  0
 36 37  1  0
 36 38  2  0
 38 39  1  0
 38  2  1  0
 33  7  1  0
 26 13  1  0
M  END
>  <cnnaffinity>  (1) 
-4.78885

>  <filename>  (1) 
c1cncc(N2CCN=C2OCC2CCNCC2)c1

$$$$
