
     RDKit          3D

 41 43  0  0  0  0  0  0  0  0999 V2000
    4.8047    1.2800   19.1244 C   0  0  0  0  0  0  0  0  0  0  0  0
    5.4396    1.2494   17.8779 C   0  0  0  0  0  0  0  0  0  0  0  0
    6.6007    0.6064   17.6694 N   0  0  0  0  0  0  0  0  0  0  0  0
    7.1809    0.0128   18.7194 C   0  0  0  0  0  0  0  0  0  0  0  0
    6.6387    0.0276   20.0177 C   0  0  0  0  0  0  0  0  0  0  0  0
    7.4253   -0.4500   21.0468 O   0  0  0  0  0  0  0  0  0  0  0  0
    6.9579   -1.3382   22.0011 C   0  0  0  0  0  0  0  0  0  0  0  0
    5.9832   -2.3176   21.7684 C   0  0  0  0  0  0  0  0  0  0  0  0
    5.5079   -3.0838   22.8462 C   0  0  0  0  0  0  0  0  0  0  0  0
    5.9799   -2.8371   24.1404 C   0  0  0  0  0  0  0  0  0  0  0  0
    7.0271   -1.9252   24.3344 C   0  0  0  0  0  0  0  0  0  0  0  0
    7.6071   -1.2582   23.2478 C   0  0  0  0  0  0  0  0  0  0  0  0
    8.9064   -0.4939   23.3732 C   0  0  0  0  0  0  0  0  0  0  0  0
    8.6331    0.9870   23.3324 N   0  0  0  0  0  4  0  0  0  0  0  0
    9.9025    1.7918   23.1763 C   0  0  0  0  0  0  0  0  0  0  0  0
    9.6530    3.3038   23.1942 C   0  0  0  0  0  0  0  0  0  0  0  0
    8.9988    3.7317   24.5098 N   0  0  0  0  0  4  0  0  0  0  0  0
    7.6747    2.9712   24.6186 C   0  0  0  0  0  0  0  0  0  0  0  0
    7.9060    1.4554   24.6067 C   0  0  0  0  0  0  0  0  0  0  0  0
    8.5290    1.1956   25.4765 H   0  0  0  0  0  0  0  0  0  0  0  0
    6.9602    0.9199   24.7077 H   0  0  0  0  0  0  0  0  0  0  0  0
    7.1377    3.2592   25.5221 H   0  0  0  0  0  0  0  0  0  0  0  0
    7.0608    3.2223   23.7469 H   0  0  0  0  0  0  0  0  0  0  0  0
    9.6233    3.4226   25.3097 H   0  0  0  0  0  0  0  0  0  0  0  0
    8.8622    4.7674   24.5512 H   0  0  0  0  0  0  0  0  0  0  0  0
    8.9700    3.5380   22.3705 H   0  0  0  0  0  0  0  0  0  0  0  0
   10.5911    3.8331   23.0331 H   0  0  0  0  0  0  0  0  0  0  0  0
   10.4219    1.5073   22.2573 H   0  0  0  0  0  0  0  0  0  0  0  0
   10.5672    1.5529   24.0218 H   0  0  0  0  0  0  0  0  0  0  0  0
    7.9998    1.0794   22.5009 H   0  0  0  0  0  0  0  0  0  0  0  0
    9.6077   -0.7560   22.5698 H   0  0  0  0  0  0  0  0  0  0  0  0
    9.4235   -0.7567   24.3047 H   0  0  0  0  0  0  0  0  0  0  0  0
    7.4221   -1.7592   25.3375 H   0  0  0  0  0  0  0  0  0  0  0  0
    5.5481   -3.3571   24.9929 H   0  0  0  0  0  0  0  0  0  0  0  0
    4.7311   -3.8307   22.6835 H   0  0  0  0  0  0  0  0  0  0  0  0
    5.5983   -2.4689   20.7655 H   0  0  0  0  0  0  0  0  0  0  0  0
    5.3979    0.6403   20.2220 C   0  0  0  0  0  0  0  0  0  0  0  0
    4.9246    0.6222   21.2057 H   0  0  0  0  0  0  0  0  0  0  0  0
    8.1305   -0.4877   18.5480 H   0  0  0  0  0  0  0  0  0  0  0  0
    5.0039    1.7564   17.0170 H   0  0  0  0  0  0  0  0  0  0  0  0
    3.8699    1.8186   19.2260 H   0  0  0  0  0  0  0  0  0  0  0  0
  1  2  2  0
  2  3  1  0
  3  4  2  0
  4  5  1  0
  5  6  1  0
  6  7  1  0
  7  8  2  0
  8  9  1  0
  9 10  2  0
 10 11  1  0
 11 12  2  0
 12 13  1  0
 13 14  1  0
 14 15  1  0
 15 16  1  0
 16 17  1  0
 17 18  1  0
 18 19  1  0
 19 20  1  0
 19 21  1  0
 18 22  1  0
 18 23  1  0
 17 24  1  0
 17 25  1  0
 16 26  1  0
 16 27  1  0
 15 28  1  0
 15 29  1  0
 14 30  1  0
 13 31  1  0
 13 32  1  0
 11 33  1  0
 10 34  1  0
  9 35  1  0
  8 36  1  0
  5 37  2  0
 37 38  1  0
  4 39  1  0
  2 40  1  0
  1 41  1  0
 37  1  1  0
 12  7  1  0
 19 14  1  0
M  CHG  2  14   1  17   1
M  END
>  <cnnaffinity>  (1) 
-4.71682

>  <filename>  (1) 
c1cncc(Oc2ccccc2C[NH+]2CC[NH2+]CC2)c1

$$$$
