
     RDKit          3D

 34 37  0  0  0  0  0  0  0  0999 V2000
    4.9460    1.8041   16.9463 H   0  0  0  0  0  0  0  0  0  0  0  0
    5.4206    1.3064   17.7856 C   0  0  0  0  0  0  0  0  0  0  0  0
    6.5834    0.6924   17.5301 N   0  0  0  0  0  0  0  0  0  0  0  0
    7.2077    0.0938   18.5502 C   0  0  0  0  0  0  0  0  0  0  0  0
    8.1472   -0.4016   18.3086 H   0  0  0  0  0  0  0  0  0  0  0  0
    6.6989    0.0692   19.8643 C   0  0  0  0  0  0  0  0  0  0  0  0
    7.3930   -0.6729   20.9345 C   0  0  0  0  0  0  0  0  0  0  0  0
    8.6032   -1.2236   20.7479 N   0  0  0  0  0  0  0  0  0  0  0  0
    8.8040   -1.8933   21.9056 N   0  0  0  0  0  0  0  0  0  0  0  0
    9.7698   -2.7760   22.3797 C   0  0  0  0  0  0  0  0  0  0  0  0
   10.7074   -2.8761   21.8623 H   0  0  0  0  0  0  0  0  0  0  0  0
    9.2458   -3.3205   23.5090 C   0  0  0  0  0  0  0  0  0  0  0  0
    9.6368   -4.1138   24.1336 H   0  0  0  0  0  0  0  0  0  0  0  0
    8.0159   -2.7221   23.7834 N   0  0  0  0  0  0  0  0  0  0  0  0
    6.9995   -3.1308   24.7465 C   0  0  0  0  0  0  0  0  0  0  0  0
    7.4912   -3.5247   25.6456 H   0  0  0  0  0  0  0  0  0  0  0  0
    6.4733   -2.2218   25.0551 H   0  0  0  0  0  0  0  0  0  0  0  0
    6.0247   -4.1365   24.1573 C   0  0  0  0  0  0  0  0  0  0  0  0
    4.7486   -3.7491   23.7251 C   0  0  0  0  0  0  0  0  0  0  0  0
    4.3868   -2.7508   23.9595 H   0  0  0  0  0  0  0  0  0  0  0  0
    3.9008   -4.5441   23.0595 N   0  0  0  0  0  0  0  0  0  0  0  0
    4.2952   -5.8032   22.8433 C   0  0  0  0  0  0  0  0  0  0  0  0
    3.5953   -6.4439   22.3151 H   0  0  0  0  0  0  0  0  0  0  0  0
    5.5211   -6.3122   23.2728 C   0  0  0  0  0  0  0  0  0  0  0  0
    5.7532   -7.3557   23.1159 H   0  0  0  0  0  0  0  0  0  0  0  0
    6.4042   -5.4635   23.9359 C   0  0  0  0  0  0  0  0  0  0  0  0
    7.3757   -5.8267   24.2752 H   0  0  0  0  0  0  0  0  0  0  0  0
    7.7652   -1.8267   22.7649 C   0  0  0  0  0  0  0  0  0  0  0  0
    6.8428   -0.9570   22.2061 C   0  0  0  0  0  0  0  0  0  0  0  0
    5.9714   -0.4767   22.6115 H   0  0  0  0  0  0  0  0  0  0  0  0
    5.4689    0.7060   20.1042 C   0  0  0  0  0  0  0  0  0  0  0  0
    5.0146    0.7095   21.0966 H   0  0  0  0  0  0  0  0  0  0  0  0
    4.8212    1.3329   19.0473 C   0  0  0  0  0  0  0  0  0  0  0  0
    3.8755    1.8372   19.1937 H   0  0  0  0  0  0  0  0  0  0  0  0
  1  2  1  0
  2  3  2  0
  3  4  1  0
  4  5  1  0
  4  6  2  0
  6  7  1  0
  7  8  2  0
  8  9  1  0
  9 10  1  0
 10 11  1  0
 10 12  2  0
 12 13  1  0
 12 14  1  0
 14 15  1  0
 15 16  1  0
 15 17  1  0
 15 18  1  0
 18 19  2  0
 19 20  1  0
 19 21  1  0
 21 22  2  0
 22 23  1  0
 22 24  1  0
 24 25  1  0
 24 26  2  0
 26 27  1  0
 14 28  1  0
 28 29  2  0
 29 30  1  0
  6 31  1  0
 31 32  1  0
 31 33  2  0
 33 34  1  0
 33  2  1  0
 29  7  1  0
 28  9  1  0
 26 18  1  0
M  END
>  <cnnaffinity>  (1) 
-5.69139

>  <filename>  (1) 
c1cncc(Cn2ccn3nc(-c4cccnc4)cc23)c1

$$$$
