
     RDKit          3D

 35 38  0  0  0  0  0  0  0  0999 V2000
    4.9095    1.7853   16.9936 H   0  0  0  0  0  0  0  0  0  0  0  0
    5.3969    1.2983   17.8343 C   0  0  0  0  0  0  0  0  0  0  0  0
    6.5577    0.6790   17.5655 N   0  0  0  0  0  0  0  0  0  0  0  0
    7.1712    0.0614   18.5816 C   0  0  0  0  0  0  0  0  0  0  0  0
    8.1176   -0.4311   18.3646 H   0  0  0  0  0  0  0  0  0  0  0  0
    6.6544    0.0104   19.8952 C   0  0  0  0  0  0  0  0  0  0  0  0
    7.3208   -0.6890   20.9441 N   0  0  0  0  0  0  0  0  0  0  0  0
    6.7889   -1.6322   21.7904 C   0  0  0  0  0  0  0  0  0  0  0  0
    5.7527   -1.9354   21.7382 H   0  0  0  0  0  0  0  0  0  0  0  0
    7.6958   -2.1022   22.6007 N   0  0  0  0  0  0  0  0  0  0  0  0
    8.8701   -1.4506   22.3152 N   0  0  0  0  0  0  0  0  0  0  0  0
    8.6307   -0.5984   21.3560 C   0  0  0  0  0  0  0  0  0  0  0  0
    9.6658    0.3270   20.7838 C   0  0  0  0  0  0  0  0  0  0  0  0
   10.3289   -0.3420   20.2287 H   0  0  0  0  0  0  0  0  0  0  0  0
    9.2039    1.0252   20.0794 H   0  0  0  0  0  0  0  0  0  0  0  0
   10.4136    1.0897   21.8500 C   0  0  0  0  0  0  0  0  0  0  0  0
   11.6717    0.7039   22.2497 C   0  0  0  0  0  0  0  0  0  0  0  0
   12.1579   -0.1280   21.7443 H   0  0  0  0  0  0  0  0  0  0  0  0
   12.3884    1.2771   23.2547 N   0  0  0  0  0  0  0  0  0  0  0  0
   11.8015    2.2675   23.8886 C   0  0  0  0  0  0  0  0  0  0  0  0
   12.3531    2.7361   24.6870 H   0  0  0  0  0  0  0  0  0  0  0  0
   10.4952    2.7667   23.6206 C   0  0  0  0  0  0  0  0  0  0  0  0
    9.9100    3.8435   24.3565 C   0  0  0  0  0  0  0  0  0  0  0  0
   10.4794    4.3439   25.1336 H   0  0  0  0  0  0  0  0  0  0  0  0
    8.6388    4.2703   24.0703 C   0  0  0  0  0  0  0  0  0  0  0  0
    8.1952    5.0901   24.6321 H   0  0  0  0  0  0  0  0  0  0  0  0
    7.8932    3.6455   23.0326 C   0  0  0  0  0  0  0  0  0  0  0  0
    6.8904    3.9989   22.8108 H   0  0  0  0  0  0  0  0  0  0  0  0
    8.4349    2.6105   22.3021 C   0  0  0  0  0  0  0  0  0  0  0  0
    7.8527    2.1410   21.5122 H   0  0  0  0  0  0  0  0  0  0  0  0
    9.7623    2.1462   22.5681 C   0  0  0  0  0  0  0  0  0  0  0  0
    5.4395    0.6481   20.1594 C   0  0  0  0  0  0  0  0  0  0  0  0
    5.0192    0.6256   21.1687 H   0  0  0  0  0  0  0  0  0  0  0  0
    4.8074    1.3129   19.1049 C   0  0  0  0  0  0  0  0  0  0  0  0
    3.8751    1.8430   19.2617 H   0  0  0  0  0  0  0  0  0  0  0  0
  1  2  1  0
  2  3  2  0
  3  4  1  0
  4  5  1  0
  4  6  2  0
  6  7  1  0
  7  8  1  0
  8  9  1  0
  8 10  2  0
 10 11  1  0
 11 12  2  0
 12 13  1  0
 13 14  1  0
 13 15  1  0
 13 16  1  0
 16 17  2  0
 17 18  1  0
 17 19  1  0
 19 20  2  0
 20 21  1  0
 20 22  1  0
 22 23  2  0
 23 24  1  0
 23 25  1  0
 25 26  1  0
 25 27  2  0
 27 28  1  0
 27 29  1  0
 29 30  1  0
 29 31  2  0
  6 32  1  0
 32 33  1  0
 32 34  2  0
 34 35  1  0
 34  2  1  0
 12  7  1  0
 31 16  1  0
 31 22  1  0
M  END
>  <cnnaffinity>  (1) 
-5.63841

>  <filename>  (1) 
c1cncc(-n2cnnc2Cc2cncc3ccccc23)c1

$$$$
