
     RDKit          3D

 37 40  0  0  0  0  0  0  0  0999 V2000
    5.1570    1.2360   17.1316 H   0  0  0  0  0  0  0  0  0  0  0  0
    5.6177    0.6852   17.9500 C   0  0  0  0  0  0  0  0  0  0  0  0
    6.6360   -0.1248   17.6285 N   0  0  0  0  0  0  0  0  0  0  0  0
    7.2251   -0.7961   18.6283 C   0  0  0  0  0  0  0  0  0  0  0  0
    8.0533   -1.4286   18.3202 H   0  0  0  0  0  0  0  0  0  0  0  0
    6.8601   -0.6960   19.9707 C   0  0  0  0  0  0  0  0  0  0  0  0
    7.7056   -1.4207   21.0150 C   0  0  2  0  0  0  0  0  0  0  0  0
    8.7379   -1.4928   20.6496 H   0  0  0  0  0  0  0  0  0  0  0  0
    7.2779   -2.7399   21.2237 O   0  0  0  0  0  0  0  0  0  0  0  0
    6.3416   -2.6882   22.2782 C   0  0  0  0  0  0  0  0  0  0  0  0
    6.2512   -3.6882   22.7013 H   0  0  0  0  0  0  0  0  0  0  0  0
    5.3570   -2.3651   21.9034 H   0  0  0  0  0  0  0  0  0  0  0  0
    6.9239   -1.6607   23.2444 C   0  0  0  0  0  0  0  0  0  0  0  0
    6.1316   -1.1408   23.7896 H   0  0  0  0  0  0  0  0  0  0  0  0
    7.6090   -2.1330   23.9655 H   0  0  0  0  0  0  0  0  0  0  0  0
    7.6686   -0.7900   22.3427 N   0  0  0  0  0  0  0  0  0  0  0  0
    7.9814    0.5675   22.5225 C   0  0  0  0  0  0  0  0  0  0  0  0
    8.6127    1.2154   21.4608 C   0  0  0  0  0  0  0  0  0  0  0  0
    8.9734    0.6456   20.6118 H   0  0  0  0  0  0  0  0  0  0  0  0
    8.7080    2.6185   21.3924 C   0  0  0  0  0  0  0  0  0  0  0  0
    9.1475    3.0589   20.5105 H   0  0  0  0  0  0  0  0  0  0  0  0
    8.2558    3.4130   22.4125 C   0  0  0  0  0  0  0  0  0  0  0  0
    8.3123    4.5002   22.3642 H   0  0  0  0  0  0  0  0  0  0  0  0
    7.7713    2.7969   23.6050 C   0  0  0  0  0  0  0  0  0  0  0  0
    7.4548    3.6218   24.7261 C   0  0  0  0  0  0  0  0  0  0  0  0
    7.4869    4.7012   24.5837 H   0  0  0  0  0  0  0  0  0  0  0  0
    7.1525    3.0744   25.9464 C   0  0  0  0  0  0  0  0  0  0  0  0
    6.9654    3.7130   26.8070 H   0  0  0  0  0  0  0  0  0  0  0  0
    7.1018    1.6622   26.0893 C   0  0  0  0  0  0  0  0  0  0  0  0
    6.8851    1.2215   27.0595 H   0  0  0  0  0  0  0  0  0  0  0  0
    7.3516    0.8316   25.0154 C   0  0  0  0  0  0  0  0  0  0  0  0
    7.3342   -0.2413   25.1774 H   0  0  0  0  0  0  0  0  0  0  0  0
    7.6804    1.3610   23.7159 C   0  0  0  0  0  0  0  0  0  0  0  0
    5.7817    0.1415   20.2835 C   0  0  0  0  0  0  0  0  0  0  0  0
    5.4835    0.2789   21.3226 H   0  0  0  0  0  0  0  0  0  0  0  0
    5.1570    0.8472   19.2592 C   0  0  0  0  0  0  0  0  0  0  0  0
    4.3580    1.5470   19.4724 H   0  0  0  0  0  0  0  0  0  0  0  0
  1  2  1  0
  2  3  2  0
  3  4  1  0
  4  5  1  0
  4  6  2  0
  6  7  1  0
  7  8  1  6
  7  9  1  0
  9 10  1  0
 10 11  1  0
 10 12  1  0
 10 13  1  0
 13 14  1  0
 13 15  1  0
 13 16  1  0
 16 17  1  0
 17 18  2  0
 18 19  1  0
 18 20  1  0
 20 21  1  0
 20 22  2  0
 22 23  1  0
 22 24  1  0
 24 25  2  0
 25 26  1  0
 25 27  1  0
 27 28  1  0
 27 29  2  0
 29 30  1  0
 29 31  1  0
 31 32  1  0
 31 33  2  0
  6 34  1  0
 34 35  1  0
 34 36  2  0
 36 37  1  0
 36  2  1  0
 16  7  1  0
 33 17  1  0
 33 24  1  0
M  END
>  <cnnaffinity>  (1) 
-4.27962

>  <filename>  (1) 
c1cncc([C@@H]2OCCN2c2cccc3ccccc23)c1

$$$$
