
     RDKit          3D

 41 44  0  0  0  0  0  0  0  0999 V2000
    4.9603    1.8335   16.9690 H   0  0  0  0  0  0  0  0  0  0  0  0
    5.4095    1.3006   17.8043 C   0  0  0  0  0  0  0  0  0  0  0  0
    6.5641    0.6587   17.5596 N   0  0  0  0  0  0  0  0  0  0  0  0
    7.1535    0.0209   18.5798 C   0  0  0  0  0  0  0  0  0  0  0  0
    8.0874   -0.4872   18.3383 H   0  0  0  0  0  0  0  0  0  0  0  0
    6.6288   -0.0054   19.8844 C   0  0  0  0  0  0  0  0  0  0  0  0
    7.2980   -0.7233   20.9797 C   0  0  0  0  0  0  0  0  0  0  0  0
    7.7034   -1.9854   20.8506 N   0  0  0  0  0  0  0  0  0  0  0  0
    8.1879   -2.2851   22.0594 N   0  0  0  0  0  0  0  0  0  0  0  0
    8.1783   -1.2743   22.9359 C   0  0  0  0  0  0  0  0  0  0  0  0
    7.5981   -0.2072   22.2761 C   0  0  0  0  0  0  0  0  0  0  0  0
    7.3679    1.1488   22.8606 C   0  0  0  0  0  0  0  0  0  0  0  0
    6.9332    1.8115   22.0987 H   0  0  0  0  0  0  0  0  0  0  0  0
    8.6749    1.8248   23.3203 C   0  0  0  0  0  0  0  0  0  0  0  0
    9.3664    1.9169   22.4743 H   0  0  0  0  0  0  0  0  0  0  0  0
    9.1628    1.1773   24.0599 H   0  0  0  0  0  0  0  0  0  0  0  0
    8.3963    3.1946   23.9446 C   0  0  0  0  0  0  0  0  0  0  0  0
    9.3315    3.6528   24.2868 H   0  0  0  0  0  0  0  0  0  0  0  0
    7.9889    3.8544   23.1654 H   0  0  0  0  0  0  0  0  0  0  0  0
    7.3880    3.0908   25.0987 C   0  0  0  0  0  0  0  0  0  0  0  0
    7.1638    4.0850   25.4970 H   0  0  0  0  0  0  0  0  0  0  0  0
    7.8435    2.5203   25.9212 H   0  0  0  0  0  0  0  0  0  0  0  0
    6.0905    2.3934   24.6660 C   0  0  0  0  0  0  0  0  0  0  0  0
    5.4123    2.2734   25.5185 H   0  0  0  0  0  0  0  0  0  0  0  0
    5.5677    3.0182   23.9285 H   0  0  0  0  0  0  0  0  0  0  0  0
    6.3736    1.0377   24.0275 C   0  0  0  0  0  0  0  0  0  0  0  0
    6.8023    0.3538   24.7710 H   0  0  0  0  0  0  0  0  0  0  0  0
    5.4489    0.5689   23.6717 H   0  0  0  0  0  0  0  0  0  0  0  0
    8.8867   -1.6865   24.1958 C   0  0  0  0  0  0  0  0  0  0  0  0
    8.2377   -1.6153   25.0752 H   0  0  0  0  0  0  0  0  0  0  0  0
    9.7390   -1.0313   24.3858 H   0  0  0  0  0  0  0  0  0  0  0  0
    9.3457   -3.1438   23.8973 C   0  0  0  0  0  0  0  0  0  0  0  0
   10.4081   -3.2802   24.1121 H   0  0  0  0  0  0  0  0  0  0  0  0
    8.7740   -3.8472   24.5040 H   0  0  0  0  0  0  0  0  0  0  0  0
    9.0673   -3.3764   22.3909 C   0  0  0  0  0  0  0  0  0  0  0  0
    8.6003   -4.3318   22.1449 H   0  0  0  0  0  0  0  0  0  0  0  0
    9.9730   -3.2405   21.7959 H   0  0  0  0  0  0  0  0  0  0  0  0
    5.4155    0.6620   20.1107 C   0  0  0  0  0  0  0  0  0  0  0  0
    4.9676    0.6490   21.1044 H   0  0  0  0  0  0  0  0  0  0  0  0
    4.7878    1.3159   19.0556 C   0  0  0  0  0  0  0  0  0  0  0  0
    3.8586    1.8535   19.2040 H   0  0  0  0  0  0  0  0  0  0  0  0
  1  2  1  0
  2  3  2  0
  3  4  1  0
  4  5  1  0
  4  6  2  0
  6  7  1  0
  7  8  2  0
  8  9  1  0
  9 10  1  0
 10 11  2  0
 11 12  1  0
 12 13  1  0
 12 14  1  0
 14 15  1  0
 14 16  1  0
 14 17  1  0
 17 18  1  0
 17 19  1  0
 17 20  1  0
 20 21  1  0
 20 22  1  0
 20 23  1  0
 23 24  1  0
 23 25  1  0
 23 26  1  0
 26 27  1  0
 26 28  1  0
 10 29  1  0
 29 30  1  0
 29 31  1  0
 29 32  1  0
 32 33  1  0
 32 34  1  0
 32 35  1  0
 35 36  1  0
 35 37  1  0
  6 38  1  0
 38 39  1  0
 38 40  2  0
 40 41  1  0
 40  2  1  0
 11  7  1  0
 26 12  1  0
 35  9  1  0
M  END
>  <cnnaffinity>  (1) 
-5.65221

>  <filename>  (1) 
c1cncc(-c2nn3c(c2C2CCCCC2)CCC3)c1

$$$$
