
     RDKit          3D

 33 36  0  0  0  0  0  0  0  0999 V2000
    5.2310    1.7781   17.2085 H   0  0  0  0  0  0  0  0  0  0  0  0
    5.5940    1.2437   18.0854 C   0  0  0  0  0  0  0  0  0  0  0  0
    6.6973    0.4956   17.9182 N   0  0  0  0  0  0  0  0  0  0  0  0
    7.1652   -0.1733   18.9732 C   0  0  0  0  0  0  0  0  0  0  0  0
    8.0857   -0.7354   18.8335 H   0  0  0  0  0  0  0  0  0  0  0  0
    6.5538   -0.1629   20.2418 C   0  0  0  0  0  0  0  0  0  0  0  0
    7.1475   -0.9450   21.2737 N   0  0  0  0  0  0  0  0  0  0  0  0
    7.9013   -2.0194   20.9398 N   0  0  0  0  0  0  0  0  0  0  0  0
    8.2029   -2.6081   22.0852 C   0  0  0  0  0  0  0  0  0  0  0  0
    8.8575   -3.4730   22.0950 H   0  0  0  0  0  0  0  0  0  0  0  0
    7.6340   -1.9375   23.1863 C   0  0  0  0  0  0  0  0  0  0  0  0
    7.7014   -2.1874   24.2325 H   0  0  0  0  0  0  0  0  0  0  0  0
    7.0201   -0.8341   22.6474 C   0  0  0  0  0  0  0  0  0  0  0  0
    6.6054    0.3890   23.3429 C   0  0  0  0  0  0  0  0  0  0  0  0
    5.6249    0.3790   24.3098 C   0  0  0  0  0  0  0  0  0  0  0  0
    5.2239   -0.5664   24.6702 H   0  0  0  0  0  0  0  0  0  0  0  0
    5.0399    1.4966   24.8178 N   0  0  0  0  0  0  0  0  0  0  0  0
    5.4783    2.6666   24.3819 C   0  0  0  0  0  0  0  0  0  0  0  0
    4.9843    3.5515   24.7873 H   0  0  0  0  0  0  0  0  0  0  0  0
    6.5812    2.8268   23.4780 C   0  0  0  0  0  0  0  0  0  0  0  0
    7.0782    4.0894   23.0222 C   0  0  0  0  0  0  0  0  0  0  0  0
    6.4977    4.9864   23.2275 H   0  0  0  0  0  0  0  0  0  0  0  0
    8.2440    4.1655   22.2867 C   0  0  0  0  0  0  0  0  0  0  0  0
    8.6035    5.1355   21.9527 H   0  0  0  0  0  0  0  0  0  0  0  0
    8.9608    2.9885   21.9408 C   0  0  0  0  0  0  0  0  0  0  0  0
    9.9002    3.0335   21.3898 H   0  0  0  0  0  0  0  0  0  0  0  0
    8.4638    1.7590   22.3014 C   0  0  0  0  0  0  0  0  0  0  0  0
    9.0064    0.8635   22.0217 H   0  0  0  0  0  0  0  0  0  0  0  0
    7.2380    1.6463   23.0310 C   0  0  0  0  0  0  0  0  0  0  0  0
    5.4067    0.6296   20.4129 C   0  0  0  0  0  0  0  0  0  0  0  0
    4.9093    0.7024   21.3792 H   0  0  0  0  0  0  0  0  0  0  0  0
    4.9307    1.3496   19.3112 C   0  0  0  0  0  0  0  0  0  0  0  0
    4.0757    2.0164   19.3969 H   0  0  0  0  0  0  0  0  0  0  0  0
  1  2  1  0
  2  3  2  0
  3  4  1  0
  4  5  1  0
  4  6  2  0
  6  7  1  0
  7  8  1  0
  8  9  2  0
  9 10  1  0
  9 11  1  0
 11 12  1  0
 11 13  2  0
 13 14  1  0
 14 15  2  0
 15 16  1  0
 15 17  1  0
 17 18  2  0
 18 19  1  0
 18 20  1  0
 20 21  2  0
 21 22  1  0
 21 23  1  0
 23 24  1  0
 23 25  2  0
 25 26  1  0
 25 27  1  0
 27 28  1  0
 27 29  2  0
  6 30  1  0
 30 31  1  0
 30 32  2  0
 32 33  1  0
 32  2  1  0
 13  7  1  0
 29 14  1  0
 29 20  1  0
M  END
>  <cnnaffinity>  (1) 
-5.15752

>  <filename>  (1) 
c1cncc(-n2nccc2-c2cncc3ccccc23)c1

$$$$
