
     RDKit          3D

 33 36  0  0  0  0  0  0  0  0999 V2000
    4.9394    1.7838   16.9945 H   0  0  0  0  0  0  0  0  0  0  0  0
    5.4123    1.2890   17.8417 C   0  0  0  0  0  0  0  0  0  0  0  0
    6.5791    0.6656   17.6017 N   0  0  0  0  0  0  0  0  0  0  0  0
    7.1749    0.0346   18.6191 C   0  0  0  0  0  0  0  0  0  0  0  0
    8.1203   -0.4438   18.3841 H   0  0  0  0  0  0  0  0  0  0  0  0
    6.6462   -0.0038   19.9237 C   0  0  0  0  0  0  0  0  0  0  0  0
    7.3529   -0.6763   20.9578 N   0  0  0  0  0  0  0  0  0  0  0  0
    7.8311   -1.9114   20.7242 N   0  0  0  0  0  0  0  0  0  0  0  0
    8.3107   -2.3351   21.8841 C   0  0  0  0  0  0  0  0  0  0  0  0
    8.7272   -3.3317   21.9549 H   0  0  0  0  0  0  0  0  0  0  0  0
    8.1663   -1.3699   22.8926 C   0  0  0  0  0  0  0  0  0  0  0  0
    8.4719   -1.4007   23.9312 H   0  0  0  0  0  0  0  0  0  0  0  0
    7.5513   -0.3055   22.2711 C   0  0  0  0  0  0  0  0  0  0  0  0
    7.2676    1.0334   22.8339 C   0  0  0  0  0  0  0  0  0  0  0  0
    6.8745    1.0539   24.0919 N   0  0  0  0  0  0  0  0  0  0  0  0
    6.6146    2.2661   24.6646 C   0  0  0  0  0  0  0  0  0  0  0  0
    6.1734    2.2881   26.0287 C   0  0  0  0  0  0  0  0  0  0  0  0
    6.0649    1.3268   26.5238 H   0  0  0  0  0  0  0  0  0  0  0  0
    5.9152    3.4933   26.6511 C   0  0  0  0  0  0  0  0  0  0  0  0
    5.5791    3.5171   27.6858 H   0  0  0  0  0  0  0  0  0  0  0  0
    6.0833    4.7268   25.9510 C   0  0  0  0  0  0  0  0  0  0  0  0
    5.8720    5.6670   26.4592 H   0  0  0  0  0  0  0  0  0  0  0  0
    6.5084    4.7350   24.6429 C   0  0  0  0  0  0  0  0  0  0  0  0
    6.6457    5.6628   24.0868 H   0  0  0  0  0  0  0  0  0  0  0  0
    6.7868    3.5096   23.9684 C   0  0  0  0  0  0  0  0  0  0  0  0
    7.2511    3.4556   22.6173 C   0  0  0  0  0  0  0  0  0  0  0  0
    7.3919    4.3902   22.0602 H   0  0  0  0  0  0  0  0  0  0  0  0
    7.4908    2.2253   22.0585 C   0  0  0  0  0  0  0  0  0  0  0  0
    7.8398    2.1129   21.0380 H   0  0  0  0  0  0  0  0  0  0  0  0
    5.4189    0.6282   20.1651 C   0  0  0  0  0  0  0  0  0  0  0  0
    4.9962    0.6365   21.1717 H   0  0  0  0  0  0  0  0  0  0  0  0
    4.8077    1.2958   19.1027 C   0  0  0  0  0  0  0  0  0  0  0  0
    3.8822    1.8347   19.2519 H   0  0  0  0  0  0  0  0  0  0  0  0
  1  2  1  0
  2  3  2  0
  3  4  1  0
  4  5  1  0
  4  6  2  0
  6  7  1  0
  7  8  1  0
  8  9  2  0
  9 10  1  0
  9 11  1  0
 11 12  1  0
 11 13  2  0
 13 14  1  0
 14 15  2  0
 15 16  1  0
 16 17  2  0
 17 18  1  0
 17 19  1  0
 19 20  1  0
 19 21  2  0
 21 22  1  0
 21 23  1  0
 23 24  1  0
 23 25  2  0
 25 26  1  0
 26 27  1  0
 26 28  2  0
 28 29  1  0
  6 30  1  0
 30 31  1  0
 30 32  2  0
 32 33  1  0
 32  2  1  0
 13  7  1  0
 28 14  1  0
 25 16  1  0
M  END
>  <cnnaffinity>  (1) 
-5.28818

>  <filename>  (1) 
c1cncc(-n2nccc2-c2ccc3ccccc3n2)c1

$$$$
