
     RDKit          3D

 32 34  0  0  0  0  0  0  0  0999 V2000
    4.9707    1.8016   16.9891 H   0  0  0  0  0  0  0  0  0  0  0  0
    5.4329    1.2899   17.8301 C   0  0  0  0  0  0  0  0  0  0  0  0
    6.5855    0.6509   17.5758 N   0  0  0  0  0  0  0  0  0  0  0  0
    7.1973    0.0180   18.5881 C   0  0  0  0  0  0  0  0  0  0  0  0
    8.1404   -0.4795   18.3611 H   0  0  0  0  0  0  0  0  0  0  0  0
    6.6801    0.0004   19.8951 C   0  0  0  0  0  0  0  0  0  0  0  0
    7.2484   -0.6654   20.9527 O   0  0  0  0  0  0  0  0  0  0  0  0
    8.6122   -0.7860   21.0948 C   0  0  0  0  0  0  0  0  0  0  0  0
    9.6438    0.0842   20.6941 C   0  0  0  0  0  0  0  0  0  0  0  0
    9.5658    0.9663   20.0788 H   0  0  0  0  0  0  0  0  0  0  0  0
   10.8273   -0.3140   21.1412 N   0  0  0  0  0  0  0  0  0  0  0  0
   10.5503   -1.4439   21.8112 N   0  0  0  0  0  0  0  0  0  0  0  0
   11.2591   -1.9577   22.3007 H   0  0  0  0  0  0  0  0  0  0  0  0
    9.2389   -1.7867   21.8273 C   0  0  0  0  0  0  0  0  0  0  0  0
    8.8074   -2.9630   22.4377 N   0  0  0  0  0  0  0  0  0  0  0  0
    7.3420   -3.0195   22.6290 C   0  0  0  0  0  0  0  0  0  0  0  0
    6.9950   -2.1364   23.1856 H   0  0  0  0  0  0  0  0  0  0  0  0
    6.8659   -3.0108   21.6447 H   0  0  0  0  0  0  0  0  0  0  0  0
    6.8990   -4.2881   23.3473 C   0  0  0  0  0  0  0  0  0  0  0  0
    6.9237   -5.1346   22.6418 H   0  0  0  0  0  0  0  0  0  0  0  0
    5.8655   -4.1790   23.6889 H   0  0  0  0  0  0  0  0  0  0  0  0
    7.6753   -4.5722   24.4967 O   0  0  0  0  0  0  0  0  0  0  0  0
    9.0429   -4.7300   24.1573 C   0  0  0  0  0  0  0  0  0  0  0  0
    9.1662   -5.5636   23.4489 H   0  0  0  0  0  0  0  0  0  0  0  0
    9.5634   -5.0006   25.0803 H   0  0  0  0  0  0  0  0  0  0  0  0
    9.6362   -3.4599   23.5559 C   0  0  0  0  0  0  0  0  0  0  0  0
    9.7445   -2.6938   24.3385 H   0  0  0  0  0  0  0  0  0  0  0  0
   10.6390   -3.7110   23.1858 H   0  0  0  0  0  0  0  0  0  0  0  0
    5.4669    0.6489   20.1494 C   0  0  0  0  0  0  0  0  0  0  0  0
    5.0667    0.6300   21.1618 H   0  0  0  0  0  0  0  0  0  0  0  0
    4.8294    1.3063   19.0954 C   0  0  0  0  0  0  0  0  0  0  0  0
    3.8873    1.8293   19.2424 H   0  0  0  0  0  0  0  0  0  0  0  0
  1  2  1  0
  2  3  2  0
  3  4  1  0
  4  5  1  0
  4  6  2  0
  6  7  1  0
  7  8  1  0
  8  9  1  0
  9 10  1  0
  9 11  2  0
 11 12  1  0
 12 13  1  0
 12 14  1  0
 14 15  1  0
 15 16  1  0
 16 17  1  0
 16 18  1  0
 16 19  1  0
 19 20  1  0
 19 21  1  0
 19 22  1  0
 22 23  1  0
 23 24  1  0
 23 25  1  0
 23 26  1  0
 26 27  1  0
 26 28  1  0
  6 29  1  0
 29 30  1  0
 29 31  2  0
 31 32  1  0
 31  2  1  0
 14  8  2  0
 26 15  1  0
M  END
>  <cnnaffinity>  (1) 
-4.94425

>  <filename>  (1) 
c1cncc(Oc2cn[nH]c2N2CCOCC2)c1

$$$$
