
     RDKit          3D

 47 50  0  0  0  0  0  0  0  0999 V2000
    5.0028    1.8000   16.9421 H   0  0  0  0  0  0  0  0  0  0  0  0
    5.4396    1.2904   17.7994 C   0  0  0  0  0  0  0  0  0  0  0  0
    6.5757    0.6197   17.5731 N   0  0  0  0  0  0  0  0  0  0  0  0
    7.1387   -0.0159   18.6166 C   0  0  0  0  0  0  0  0  0  0  0  0
    8.0646   -0.5352   18.3592 H   0  0  0  0  0  0  0  0  0  0  0  0
    6.6218   -0.0329   19.9303 C   0  0  0  0  0  0  0  0  0  0  0  0
    7.2563   -0.9027   21.0493 C   0  0  2  0  0  0  0  0  0  0  0  0
    6.5239   -2.2878   20.9288 C   0  0  0  0  0  0  0  0  0  0  0  0
    6.5746   -2.6274   19.8889 H   0  0  0  0  0  0  0  0  0  0  0  0
    5.4677   -2.0306   21.0810 H   0  0  0  0  0  0  0  0  0  0  0  0
    6.8202   -3.4992   21.8418 C   0  0  0  0  0  0  0  0  0  0  0  0
    7.0766   -3.1629   22.8549 H   0  0  0  0  0  0  0  0  0  0  0  0
    5.5594   -4.3893   21.9810 C   0  0  0  0  0  0  0  0  0  0  0  0
    5.2970   -4.7473   20.9742 H   0  0  0  0  0  0  0  0  0  0  0  0
    4.7103   -3.7949   22.3440 H   0  0  0  0  0  0  0  0  0  0  0  0
    5.7844   -5.6168   22.8779 C   0  0  0  0  0  0  0  0  0  0  0  0
    4.8774   -6.2325   22.9174 H   0  0  0  0  0  0  0  0  0  0  0  0
    5.9886   -5.2907   23.9070 H   0  0  0  0  0  0  0  0  0  0  0  0
    6.9684   -6.4414   22.3594 C   0  0  0  0  0  0  0  0  0  0  0  0
    6.7016   -6.8296   21.3680 H   0  0  0  0  0  0  0  0  0  0  0  0
    7.1716   -7.3187   22.9700 H   0  0  0  0  0  0  0  0  0  0  0  0
    8.2329   -5.5844   22.2318 C   0  0  0  0  0  0  0  0  0  0  0  0
    8.5496   -5.2372   23.2237 H   0  0  0  0  0  0  0  0  0  0  0  0
    9.0551   -6.1979   21.8598 H   0  0  0  0  0  0  0  0  0  0  0  0
    7.9684   -4.3777   21.3239 C   0  0  0  0  0  0  0  0  0  0  0  0
    8.8539   -3.7576   21.1593 H   0  0  0  0  0  0  0  0  0  0  0  0
    7.6771   -4.7691   20.3407 H   0  0  0  0  0  0  0  0  0  0  0  0
    7.0578   -0.3474   22.5146 C   0  0  0  0  0  0  0  0  0  0  0  0
    6.5241   -1.0740   23.1368 H   0  0  0  0  0  0  0  0  0  0  0  0
    6.4834    0.5841   22.5486 H   0  0  0  0  0  0  0  0  0  0  0  0
    8.4794   -0.1192   23.0685 C   0  0  2  0  0  0  0  0  0  0  0  0
    8.5258   -0.0670   24.1609 H   0  0  0  0  0  0  0  0  0  0  0  0
    9.0733    1.1083   22.3423 C   0  0  0  0  0  0  0  0  0  0  0  0
    8.3532    1.9331   22.2640 H   0  0  0  0  0  0  0  0  0  0  0  0
    9.9569    1.5057   22.8554 H   0  0  0  0  0  0  0  0  0  0  0  0
    9.4262    0.5195   20.9456 C   0  0  0  0  0  0  0  0  0  0  0  0
   10.5155    0.4689   20.8418 H   0  0  0  0  0  0  0  0  0  0  0  0
    9.0371    1.1291   20.1297 H   0  0  0  0  0  0  0  0  0  0  0  0
    8.8337   -0.9226   20.9955 C   0  0  1  0  0  0  0  0  0  0  0  0
    9.2399   -1.5702   20.2083 H   0  0  0  0  0  0  0  0  0  0  0  0
    9.2450   -1.2867   22.4324 C   0  0  0  0  0  0  0  0  0  0  0  0
   10.3315   -1.2358   22.5933 H   0  0  0  0  0  0  0  0  0  0  0  0
    8.8966   -2.2644   22.7679 H   0  0  0  0  0  0  0  0  0  0  0  0
    5.4182    0.6666   20.1220 C   0  0  0  0  0  0  0  0  0  0  0  0
    4.9422    0.6822   21.1044 H   0  0  0  0  0  0  0  0  0  0  0  0
    4.8230    1.3406   19.0515 C   0  0  0  0  0  0  0  0  0  0  0  0
    3.9030    1.8983   19.1744 H   0  0  0  0  0  0  0  0  0  0  0  0
  1  2  1  0
  2  3  2  0
  3  4  1  0
  4  5  1  0
  4  6  2  0
  6  7  1  0
  7  8  1  1
  8  9  1  0
  8 10  1  0
  8 11  1  0
 11 12  1  0
 11 13  1  0
 13 14  1  0
 13 15  1  0
 13 16  1  0
 16 17  1  0
 16 18  1  0
 16 19  1  0
 19 20  1  0
 19 21  1  0
 19 22  1  0
 22 23  1  0
 22 24  1  0
 22 25  1  0
 25 26  1  0
 25 27  1  0
  7 28  1  0
 28 29  1  0
 28 30  1  0
 28 31  1  0
 31 32  1  1
 31 33  1  0
 33 34  1  0
 33 35  1  0
 33 36  1  0
 36 37  1  0
 36 38  1  0
 36 39  1  0
 39 40  1  6
 39 41  1  0
 41 42  1  0
 41 43  1  0
  6 44  1  0
 44 45  1  0
 44 46  2  0
 46 47  1  0
 46  2  1  0
 39  7  1  0
 25 11  1  0
 41 31  1  0
M  END
>  <cnnaffinity>  (1) 
-5.68419

>  <filename>  (1) 
c1cncc([C@]2(CC3CCCCC3)C[C@@H]3CC[C@H]2C3)c1

$$$$
