
     RDKit          3D

 39 42  0  0  0  0  0  0  0  0999 V2000
    4.9977    1.7849   17.0091 H   0  0  0  0  0  0  0  0  0  0  0  0
    5.4385    1.2736   17.8626 C   0  0  0  0  0  0  0  0  0  0  0  0
    6.5925    0.6290   17.6381 N   0  0  0  0  0  0  0  0  0  0  0  0
    7.1579    0.0048   18.6751 C   0  0  0  0  0  0  0  0  0  0  0  0
    8.1016   -0.4956   18.4545 H   0  0  0  0  0  0  0  0  0  0  0  0
    6.6040   -0.0417   19.9593 C   0  0  0  0  0  0  0  0  0  0  0  0
    7.3162   -0.7968   21.0151 C   0  0  0  0  0  0  0  0  0  0  0  0
    6.5478   -1.4494   21.8923 N   0  0  0  0  0  0  0  0  0  0  0  0
    7.1502   -2.0207   22.9370 C   0  0  0  0  0  0  0  0  0  0  0  0
    6.3357   -2.6022   23.8838 N   0  0  0  0  0  0  0  0  0  0  0  0
    6.6112   -2.4704   25.3143 C   0  0  0  0  0  0  0  0  0  0  0  0
    7.6596   -2.2104   25.4772 H   0  0  0  0  0  0  0  0  0  0  0  0
    6.0258   -1.6328   25.7334 H   0  0  0  0  0  0  0  0  0  0  0  0
    6.2648   -3.7285   26.0969 C   0  0  0  0  0  0  0  0  0  0  0  0
    7.0155   -4.1860   27.1891 C   0  0  0  0  0  0  0  0  0  0  0  0
    7.9122   -3.6591   27.5112 H   0  0  0  0  0  0  0  0  0  0  0  0
    6.6227   -5.3339   27.8886 C   0  0  0  0  0  0  0  0  0  0  0  0
    7.2161   -5.6990   28.7258 H   0  0  0  0  0  0  0  0  0  0  0  0
    5.4658   -6.0169   27.5098 C   0  0  0  0  0  0  0  0  0  0  0  0
    5.1606   -6.9138   28.0447 H   0  0  0  0  0  0  0  0  0  0  0  0
    4.6957   -5.5501   26.4380 C   0  0  0  0  0  0  0  0  0  0  0  0
    3.7840   -6.0724   26.1543 H   0  0  0  0  0  0  0  0  0  0  0  0
    5.0852   -4.4096   25.7285 C   0  0  0  0  0  0  0  0  0  0  0  0
    4.3023   -3.8339   24.5643 C   0  0  0  0  0  0  0  0  0  0  0  0
    3.5412   -4.5352   24.2064 H   0  0  0  0  0  0  0  0  0  0  0  0
    3.7809   -2.9249   24.8892 H   0  0  0  0  0  0  0  0  0  0  0  0
    5.2439   -3.4533   23.4162 C   0  0  0  0  0  0  0  0  0  0  0  0
    4.7065   -2.9418   22.6095 H   0  0  0  0  0  0  0  0  0  0  0  0
    5.6585   -4.3723   22.9787 H   0  0  0  0  0  0  0  0  0  0  0  0
    8.5487   -2.0836   23.0871 C   0  0  0  0  0  0  0  0  0  0  0  0
    8.9426   -2.6399   23.9253 H   0  0  0  0  0  0  0  0  0  0  0  0
    9.3462   -1.4756   22.1263 C   0  0  0  0  0  0  0  0  0  0  0  0
   10.4324   -1.5215   22.2004 H   0  0  0  0  0  0  0  0  0  0  0  0
    8.7191   -0.8025   21.0744 C   0  0  0  0  0  0  0  0  0  0  0  0
    9.2952   -0.2643   20.3321 H   0  0  0  0  0  0  0  0  0  0  0  0
    5.3918    0.6336   20.1790 C   0  0  0  0  0  0  0  0  0  0  0  0
    4.9329    0.6271   21.1700 H   0  0  0  0  0  0  0  0  0  0  0  0
    4.8043    1.3067   19.1099 C   0  0  0  0  0  0  0  0  0  0  0  0
    3.8749    1.8553   19.2304 H   0  0  0  0  0  0  0  0  0  0  0  0
  1  2  1  0
  2  3  2  0
  3  4  1  0
  4  5  1  0
  4  6  2  0
  6  7  1  0
  7  8  2  0
  8  9  1  0
  9 10  1  0
 10 11  1  0
 11 12  1  0
 11 13  1  0
 11 14  1  0
 14 15  2  0
 15 16  1  0
 15 17  1  0
 17 18  1  0
 17 19  2  0
 19 20  1  0
 19 21  1  0
 21 22  1  0
 21 23  2  0
 23 24  1  0
 24 25  1  0
 24 26  1  0
 24 27  1  0
 27 28  1  0
 27 29  1  0
  9 30  2  0
 30 31  1  0
 30 32  1  0
 32 33  1  0
 32 34  2  0
 34 35  1  0
  6 36  1  0
 36 37  1  0
 36 38  2  0
 38 39  1  0
 38  2  1  0
 34  7  1  0
 27 10  1  0
 23 14  1  0
M  END
>  <cnnaffinity>  (1) 
-5.12742

>  <filename>  (1) 
c1cncc(-c2cccc(N3CCc4ccccc4C3)n2)c1

$$$$
