
     RDKit          3D

 34 35  0  0  0  0  0  0  0  0999 V2000
    4.9177    1.7814   16.9984 H   0  0  0  0  0  0  0  0  0  0  0  0
    5.4058    1.2888   17.8387 C   0  0  0  0  0  0  0  0  0  0  0  0
    6.5688    0.6723   17.5864 N   0  0  0  0  0  0  0  0  0  0  0  0
    7.1895    0.0504   18.6023 C   0  0  0  0  0  0  0  0  0  0  0  0
    8.1357   -0.4316   18.3608 H   0  0  0  0  0  0  0  0  0  0  0  0
    6.6821   -0.0045   19.9137 C   0  0  0  0  0  0  0  0  0  0  0  0
    7.2607   -0.6184   20.9866 O   0  0  0  0  0  0  0  0  0  0  0  0
    8.5062   -1.3155   20.8557 C   0  0  0  0  0  0  0  0  0  0  0  0
    8.4037   -2.0879   20.1004 H   0  0  0  0  0  0  0  0  0  0  0  0
    9.2968   -0.6361   20.5033 H   0  0  0  0  0  0  0  0  0  0  0  0
    8.8768   -1.9648   22.1826 C   0  0  0  0  0  0  0  0  0  0  0  0
    9.9559   -2.1686   22.1636 H   0  0  0  0  0  0  0  0  0  0  0  0
    8.7087   -1.2284   22.9748 H   0  0  0  0  0  0  0  0  0  0  0  0
    8.1376   -3.2746   22.5156 C   0  0  0  0  0  0  0  0  0  0  0  0
    8.2946   -3.9751   21.6784 H   0  0  0  0  0  0  0  0  0  0  0  0
    6.6190   -3.0830   22.6754 C   0  0  0  0  0  0  0  0  0  0  0  0
    6.1848   -2.6903   21.7518 H   0  0  0  0  0  0  0  0  0  0  0  0
    6.4461   -2.3120   23.4390 H   0  0  0  0  0  0  0  0  0  0  0  0
    5.9024   -4.3760   23.0822 C   0  0  0  0  0  0  0  0  0  0  0  0
    4.8347   -4.1782   23.2369 H   0  0  0  0  0  0  0  0  0  0  0  0
    5.9669   -5.0918   22.2509 H   0  0  0  0  0  0  0  0  0  0  0  0
    6.5194   -5.0069   24.3365 C   0  0  0  0  0  0  0  0  0  0  0  0
    6.3531   -4.3364   25.1913 H   0  0  0  0  0  0  0  0  0  0  0  0
    6.0146   -5.9500   24.5787 H   0  0  0  0  0  0  0  0  0  0  0  0
    8.0282   -5.2297   24.1646 C   0  0  0  0  0  0  0  0  0  0  0  0
    8.4613   -5.6446   25.0833 H   0  0  0  0  0  0  0  0  0  0  0  0
    8.1929   -5.9801   23.3784 H   0  0  0  0  0  0  0  0  0  0  0  0
    8.7440   -3.9290   23.7726 C   0  0  0  0  0  0  0  0  0  0  0  0
    9.8147   -4.1232   23.6210 H   0  0  0  0  0  0  0  0  0  0  0  0
    8.6802   -3.2166   24.6091 H   0  0  0  0  0  0  0  0  0  0  0  0
    5.4543    0.6399   20.1672 C   0  0  0  0  0  0  0  0  0  0  0  0
    5.0370    0.6128   21.1750 H   0  0  0  0  0  0  0  0  0  0  0  0
    4.8240    1.2981   19.1115 C   0  0  0  0  0  0  0  0  0  0  0  0
    3.8923    1.8289   19.2658 H   0  0  0  0  0  0  0  0  0  0  0  0
  1  2  1  0
  2  3  2  0
  3  4  1  0
  4  5  1  0
  4  6  2  0
  6  7  1  0
  7  8  1  0
  8  9  1  0
  8 10  1  0
  8 11  1  0
 11 12  1  0
 11 13  1  0
 11 14  1  0
 14 15  1  0
 14 16  1  0
 16 17  1  0
 16 18  1  0
 16 19  1  0
 19 20  1  0
 19 21  1  0
 19 22  1  0
 22 23  1  0
 22 24  1  0
 22 25  1  0
 25 26  1  0
 25 27  1  0
 25 28  1  0
 28 29  1  0
 28 30  1  0
  6 31  1  0
 31 32  1  0
 31 33  2  0
 33 34  1  0
 33  2  1  0
 28 14  1  0
M  END
>  <cnnaffinity>  (1) 
-4.5616

>  <filename>  (1) 
c1cncc(OCCC2CCCCC2)c1

$$$$
