
     RDKit          3D

 34 37  0  0  0  0  0  0  0  0999 V2000
    4.9986    1.8467   16.8974 H   0  0  0  0  0  0  0  0  0  0  0  0
    5.4314    1.2937   17.7306 C   0  0  0  0  0  0  0  0  0  0  0  0
    6.5760    0.6357   17.4878 N   0  0  0  0  0  0  0  0  0  0  0  0
    7.1515   -0.0014   18.5132 C   0  0  0  0  0  0  0  0  0  0  0  0
    8.0762   -0.5300   18.2914 H   0  0  0  0  0  0  0  0  0  0  0  0
    6.6244   -0.0213   19.8181 C   0  0  0  0  0  0  0  0  0  0  0  0
    7.3714   -0.6498   20.9207 C   0  0  0  0  0  0  0  0  0  0  0  0
    8.5408   -1.2680   20.6893 N   0  0  0  0  0  0  0  0  0  0  0  0
    8.9298   -1.6400   21.9266 N   0  0  0  0  0  0  0  0  0  0  0  0
   10.0552   -2.2404   22.4792 C   0  0  0  0  0  0  0  0  0  0  0  0
   10.8643   -2.5893   21.8589 H   0  0  0  0  0  0  0  0  0  0  0  0
    9.8594   -2.2270   23.8242 C   0  0  0  0  0  0  0  0  0  0  0  0
   10.5073   -2.5663   24.6237 H   0  0  0  0  0  0  0  0  0  0  0  0
    8.6185   -1.6495   24.1134 N   0  0  0  0  0  0  0  0  0  0  0  0
    8.2212   -1.0011   25.3700 C   0  0  0  0  0  0  0  0  0  0  0  0
    8.6909   -1.5439   26.1993 H   0  0  0  0  0  0  0  0  0  0  0  0
    7.1320   -1.0782   25.4711 H   0  0  0  0  0  0  0  0  0  0  0  0
    8.6641    0.4587   25.3803 C   0  0  0  0  0  0  0  0  0  0  0  0
    7.8022    1.5366   25.1378 C   0  0  0  0  0  0  0  0  0  0  0  0
    6.7246    1.4078   25.0916 H   0  0  0  0  0  0  0  0  0  0  0  0
    8.3516    2.8055   24.8937 C   0  0  0  0  0  0  0  0  0  0  0  0
    7.7059    3.6593   24.6972 H   0  0  0  0  0  0  0  0  0  0  0  0
    9.6656    3.0577   24.8732 N   0  0  0  0  0  0  0  0  0  0  0  0
   10.4820    2.0348   25.1587 C   0  0  0  0  0  0  0  0  0  0  0  0
   11.5510    2.2379   25.1334 H   0  0  0  0  0  0  0  0  0  0  0  0
   10.0317    0.7464   25.4499 C   0  0  0  0  0  0  0  0  0  0  0  0
   10.7450   -0.0345   25.6866 H   0  0  0  0  0  0  0  0  0  0  0  0
    8.0727   -1.2750   22.9004 C   0  0  0  0  0  0  0  0  0  0  0  0
    7.0098   -0.6340   22.2895 C   0  0  0  0  0  0  0  0  0  0  0  0
    6.1244   -0.2083   22.7319 H   0  0  0  0  0  0  0  0  0  0  0  0
    5.4008    0.6284   20.0416 C   0  0  0  0  0  0  0  0  0  0  0  0
    4.9306    0.6152   21.0271 H   0  0  0  0  0  0  0  0  0  0  0  0
    4.8014    1.3001   18.9803 C   0  0  0  0  0  0  0  0  0  0  0  0
    3.8805    1.8552   19.1209 H   0  0  0  0  0  0  0  0  0  0  0  0
  1  2  1  0
  2  3  2  0
  3  4  1  0
  4  5  1  0
  4  6  2  0
  6  7  1  0
  7  8  2  0
  8  9  1  0
  9 10  1  0
 10 11  1  0
 10 12  2  0
 12 13  1  0
 12 14  1  0
 14 15  1  0
 15 16  1  0
 15 17  1  0
 15 18  1  0
 18 19  2  0
 19 20  1  0
 19 21  1  0
 21 22  1  0
 21 23  2  0
 23 24  1  0
 24 25  1  0
 24 26  2  0
 26 27  1  0
 14 28  1  0
 28 29  2  0
 29 30  1  0
  6 31  1  0
 31 32  1  0
 31 33  2  0
 33 34  1  0
 33  2  1  0
 29  7  1  0
 28  9  1  0
 26 18  1  0
M  END
>  <cnnaffinity>  (1) 
-5.71001

>  <filename>  (1) 
c1cncc(-c2cc3n(Cc4ccncc4)ccn3n2)c1

$$$$
