
     RDKit          3D

 40 43  0  0  0  0  0  0  0  0999 V2000
    4.9204    1.7785   16.9986 H   0  0  0  0  0  0  0  0  0  0  0  0
    5.4032    1.2938   17.8411 C   0  0  0  0  0  0  0  0  0  0  0  0
    6.5681    0.6779   17.5813 N   0  0  0  0  0  0  0  0  0  0  0  0
    7.1658    0.0521   18.5973 C   0  0  0  0  0  0  0  0  0  0  0  0
    8.1129   -0.4354   18.3769 H   0  0  0  0  0  0  0  0  0  0  0  0
    6.6503    0.0184   19.8994 C   0  0  0  0  0  0  0  0  0  0  0  0
    7.3998   -0.7269   20.9105 C   0  0  0  0  0  0  0  0  0  0  0  0
    7.8667   -1.9433   20.7415 N   0  0  0  0  0  0  0  0  0  0  0  0
    8.4584   -2.2755   21.9301 C   0  0  0  0  0  0  0  0  0  0  0  0
    8.9410   -3.2305   22.0739 H   0  0  0  0  0  0  0  0  0  0  0  0
    8.3759   -1.2412   22.8167 C   0  0  0  0  0  0  0  0  0  0  0  0
    8.7457   -1.1247   23.8257 H   0  0  0  0  0  0  0  0  0  0  0  0
    7.6961   -0.2402   22.1550 N   0  0  0  0  0  0  0  0  0  0  0  0
    7.4243    1.0750   22.7187 C   0  0  0  0  0  0  0  0  0  0  0  0
    8.3565    1.4768   23.1242 H   0  0  0  0  0  0  0  0  0  0  0  0
    7.1255    1.7655   21.9284 H   0  0  0  0  0  0  0  0  0  0  0  0
    6.3676    1.0352   23.8248 C   0  0  0  0  0  0  0  0  0  0  0  0
    5.4747    0.5268   23.4563 H   0  0  0  0  0  0  0  0  0  0  0  0
    6.7468    0.4370   24.6613 H   0  0  0  0  0  0  0  0  0  0  0  0
    6.0014    2.4158   24.2987 C   0  0  0  0  0  0  0  0  0  0  0  0
    4.9663    3.1455   23.6345 C   0  0  0  0  0  0  0  0  0  0  0  0
    4.4296    2.6756   22.8100 H   0  0  0  0  0  0  0  0  0  0  0  0
    4.6483    4.4277   24.0141 C   0  0  0  0  0  0  0  0  0  0  0  0
    3.8548    4.9810   23.5129 H   0  0  0  0  0  0  0  0  0  0  0  0
    5.3574    5.0650   25.0775 C   0  0  0  0  0  0  0  0  0  0  0  0
    5.0528    6.3926   25.5037 C   0  0  0  0  0  0  0  0  0  0  0  0
    4.2495    6.9249   24.9933 H   0  0  0  0  0  0  0  0  0  0  0  0
    5.7603    6.9777   26.5296 C   0  0  0  0  0  0  0  0  0  0  0  0
    5.5231    7.9902   26.8481 H   0  0  0  0  0  0  0  0  0  0  0  0
    6.8121    6.2638   27.1835 C   0  0  0  0  0  0  0  0  0  0  0  0
    7.3586    6.7449   27.9912 H   0  0  0  0  0  0  0  0  0  0  0  0
    7.1308    4.9825   26.7967 C   0  0  0  0  0  0  0  0  0  0  0  0
    7.9308    4.4251   27.2877 H   0  0  0  0  0  0  0  0  0  0  0  0
    6.4134    4.3491   25.7371 C   0  0  0  0  0  0  0  0  0  0  0  0
    6.7105    3.0207   25.3152 C   0  0  0  0  0  0  0  0  0  0  0  0
    7.5227    2.4927   25.8145 H   0  0  0  0  0  0  0  0  0  0  0  0
    5.4331    0.6643   20.1568 C   0  0  0  0  0  0  0  0  0  0  0  0
    4.9911    0.6367   21.1596 H   0  0  0  0  0  0  0  0  0  0  0  0
    4.7965    1.3142   19.1039 C   0  0  0  0  0  0  0  0  0  0  0  0
    3.8655    1.8486   19.2589 H   0  0  0  0  0  0  0  0  0  0  0  0
  1  2  1  0
  2  3  2  0
  3  4  1  0
  4  5  1  0
  4  6  2  0
  6  7  1  0
  7  8  2  0
  8  9  1  0
  9 10  1  0
  9 11  2  0
 11 12  1  0
 11 13  1  0
 13 14  1  0
 14 15  1  0
 14 16  1  0
 14 17  1  0
 17 18  1  0
 17 19  1  0
 17 20  1  0
 20 21  2  0
 21 22  1  0
 21 23  1  0
 23 24  1  0
 23 25  2  0
 25 26  1  0
 26 27  1  0
 26 28  2  0
 28 29  1  0
 28 30  1  0
 30 31  1  0
 30 32  2  0
 32 33  1  0
 32 34  1  0
 34 35  2  0
 35 36  1  0
  6 37  1  0
 37 38  1  0
 37 39  2  0
 39 40  1  0
 39  2  1  0
 13  7  1  0
 35 20  1  0
 34 25  1  0
M  END
>  <cnnaffinity>  (1) 
-5.19941

>  <filename>  (1) 
c1cncc(-c2nccn2CCc2ccc3ccccc3c2)c1

$$$$
