
     RDKit          3D

 34 37  0  0  0  0  0  0  0  0999 V2000
    4.9188    1.7799   16.9972 H   0  0  0  0  0  0  0  0  0  0  0  0
    5.4023    1.2952   17.8400 C   0  0  0  0  0  0  0  0  0  0  0  0
    6.5667    0.6797   17.5765 N   0  0  0  0  0  0  0  0  0  0  0  0
    7.1676    0.0604   18.5947 C   0  0  0  0  0  0  0  0  0  0  0  0
    8.1135   -0.4318   18.3764 H   0  0  0  0  0  0  0  0  0  0  0  0
    6.6502    0.0254   19.8953 C   0  0  0  0  0  0  0  0  0  0  0  0
    7.3982   -0.7127   20.9160 C   0  0  0  0  0  0  0  0  0  0  0  0
    7.7167   -1.9788   20.8596 N   0  0  0  0  0  0  0  0  0  0  0  0
    8.3929   -2.2914   22.0115 N   0  0  0  0  0  0  0  0  0  0  0  0
    8.4802   -1.1959   22.7125 C   0  0  0  0  0  0  0  0  0  0  0  0
    8.9712   -1.0974   23.6714 H   0  0  0  0  0  0  0  0  0  0  0  0
    7.8830   -0.1494   22.0666 N   0  0  0  0  0  0  0  0  0  0  0  0
    7.7934    1.2365   22.5174 C   0  0  0  0  0  0  0  0  0  0  0  0
    7.8644    1.8977   21.6520 H   0  0  0  0  0  0  0  0  0  0  0  0
    8.6635    1.4425   23.1485 H   0  0  0  0  0  0  0  0  0  0  0  0
    6.5379    1.5567   23.3041 C   0  0  0  0  0  0  0  0  0  0  0  0
    5.7158    2.6624   22.9315 C   0  0  0  0  0  0  0  0  0  0  0  0
    5.9817    3.2663   22.0611 H   0  0  0  0  0  0  0  0  0  0  0  0
    4.5541    2.9622   23.6322 C   0  0  0  0  0  0  0  0  0  0  0  0
    3.9173    3.7974   23.3534 H   0  0  0  0  0  0  0  0  0  0  0  0
    4.2025    2.1657   24.7406 C   0  0  0  0  0  0  0  0  0  0  0  0
    3.1173    2.1865   25.6783 C   0  0  0  0  0  0  0  0  0  0  0  0
    2.3123    2.9047   25.6649 H   0  0  0  0  0  0  0  0  0  0  0  0
    3.3141    1.1594   26.5571 C   0  0  0  0  0  0  0  0  0  0  0  0
    2.7146    0.8489   27.4090 H   0  0  0  0  0  0  0  0  0  0  0  0
    4.4768    0.4927   26.2115 N   0  0  0  0  0  0  0  0  0  0  0  0
    4.8770   -0.3038   26.6749 H   0  0  0  0  0  0  0  0  0  0  0  0
    5.0385    1.0868   25.1102 C   0  0  0  0  0  0  0  0  0  0  0  0
    6.2098    0.7724   24.4098 C   0  0  0  0  0  0  0  0  0  0  0  0
    6.8285   -0.0697   24.7197 H   0  0  0  0  0  0  0  0  0  0  0  0
    5.4313    0.6651   20.1576 C   0  0  0  0  0  0  0  0  0  0  0  0
    5.0019    0.6333   21.1633 H   0  0  0  0  0  0  0  0  0  0  0  0
    4.7988    1.3188   19.1038 C   0  0  0  0  0  0  0  0  0  0  0  0
    3.8646    1.8488   19.2560 H   0  0  0  0  0  0  0  0  0  0  0  0
  1  2  1  0
  2  3  2  0
  3  4  1  0
  4  5  1  0
  4  6  2  0
  6  7  1  0
  7  8  2  0
  8  9  1  0
  9 10  2  0
 10 11  1  0
 10 12  1  0
 12 13  1  0
 13 14  1  0
 13 15  1  0
 13 16  1  0
 16 17  2  0
 17 18  1  0
 17 19  1  0
 19 20  1  0
 19 21  2  0
 21 22  1  0
 22 23  1  0
 22 24  2  0
 24 25  1  0
 24 26  1  0
 26 27  1  0
 26 28  1  0
 28 29  2  0
 29 30  1  0
  6 31  1  0
 31 32  1  0
 31 33  2  0
 33 34  1  0
 33  2  1  0
 12  7  1  0
 29 16  1  0
 28 21  1  0
M  END
>  <cnnaffinity>  (1) 
-5.02842

>  <filename>  (1) 
c1cncc(-c2nncn2Cc2ccc3cc[nH]c3c2)c1

$$$$
