
     RDKit          3D

 48 51  0  0  0  0  0  0  0  0999 V2000
    4.9226    1.8440   16.9605 H   0  0  0  0  0  0  0  0  0  0  0  0
    5.3912    1.3221   17.7941 C   0  0  0  0  0  0  0  0  0  0  0  0
    6.5523    0.7016   17.5309 N   0  0  0  0  0  0  0  0  0  0  0  0
    7.1652    0.0826   18.5466 C   0  0  0  0  0  0  0  0  0  0  0  0
    8.1088   -0.3969   18.2880 H   0  0  0  0  0  0  0  0  0  0  0  0
    6.6834    0.0445   19.8724 C   0  0  0  0  0  0  0  0  0  0  0  0
    7.4400   -0.6152   20.9639 C   0  0  0  0  0  0  0  0  0  0  0  0
    7.7844   -0.1690   22.2303 C   0  0  0  0  0  0  0  0  0  0  0  0
    7.6290    1.1927   22.8526 C   0  0  0  0  0  0  0  0  0  0  0  0
    7.0388    1.8245   22.1653 H   0  0  0  0  0  0  0  0  0  0  0  0
    8.6124    1.6771   22.9241 H   0  0  0  0  0  0  0  0  0  0  0  0
    7.0569    1.1321   24.2021 N   0  0  0  0  0  0  0  0  0  0  0  0
    5.6917    0.6062   24.1509 C   0  0  0  0  0  0  0  0  0  0  0  0
    5.8077   -0.3857   23.7091 H   0  0  0  0  0  0  0  0  0  0  0  0
    5.0233    1.2201   23.5045 H   0  0  0  0  0  0  0  0  0  0  0  0
    5.0402    0.4489   25.5208 C   0  0  0  0  0  0  0  0  0  0  0  0
    3.9804    0.2004   25.3987 H   0  0  0  0  0  0  0  0  0  0  0  0
    5.5057   -0.3904   26.0416 H   0  0  0  0  0  0  0  0  0  0  0  0
    5.1849    1.7148   26.3625 C   0  0  0  0  0  0  0  0  0  0  0  0
    4.5899    2.4964   25.8623 H   0  0  0  0  0  0  0  0  0  0  0  0
    4.5823    1.5338   27.6816 N   0  0  0  0  0  0  0  0  0  0  0  0
    5.1966    0.5870   28.6225 C   0  0  0  0  0  0  0  0  0  0  0  0
    4.4115   -0.0380   29.0805 H   0  0  0  0  0  0  0  0  0  0  0  0
    5.8979   -0.0991   28.1368 H   0  0  0  0  0  0  0  0  0  0  0  0
    5.8758    1.4453   29.6890 C   0  0  0  0  0  0  0  0  0  0  0  0
    6.8538    1.7790   29.3175 H   0  0  0  0  0  0  0  0  0  0  0  0
    6.0327    0.8999   30.6246 H   0  0  0  0  0  0  0  0  0  0  0  0
    4.9115    2.6285   29.8280 C   0  0  0  0  0  0  0  0  0  0  0  0
    4.1342    2.4133   30.5709 H   0  0  0  0  0  0  0  0  0  0  0  0
    5.4202    3.5474   30.1383 H   0  0  0  0  0  0  0  0  0  0  0  0
    4.2780    2.7657   28.4242 C   0  0  0  0  0  0  0  0  0  0  0  0
    4.6764    3.6528   27.9104 H   0  0  0  0  0  0  0  0  0  0  0  0
    3.1920    2.9208   28.5007 H   0  0  0  0  0  0  0  0  0  0  0  0
    6.6554    2.1710   26.3844 C   0  0  0  0  0  0  0  0  0  0  0  0
    7.2655    1.4014   26.8752 H   0  0  0  0  0  0  0  0  0  0  0  0
    6.7464    3.0871   26.9786 H   0  0  0  0  0  0  0  0  0  0  0  0
    7.1662    2.3817   24.9601 C   0  0  0  0  0  0  0  0  0  0  0  0
    6.6119    3.2256   24.4926 H   0  0  0  0  0  0  0  0  0  0  0  0
    8.2227    2.6753   25.0130 H   0  0  0  0  0  0  0  0  0  0  0  0
    8.3652   -1.2828   22.8694 C   0  0  0  0  0  0  0  0  0  0  0  0
    8.7329   -1.3690   23.8859 H   0  0  0  0  0  0  0  0  0  0  0  0
    8.4269   -2.3379   22.0597 N   0  0  0  0  0  0  0  0  0  0  0  0
    7.8715   -1.9036   20.9149 N   0  0  0  0  0  0  0  0  0  0  0  0
    7.7772   -2.5399   20.1317 H   0  0  0  0  0  0  0  0  0  0  0  0
    5.4468    0.6683   20.1150 C   0  0  0  0  0  0  0  0  0  0  0  0
    4.9961    0.6300   21.1111 H   0  0  0  0  0  0  0  0  0  0  0  0
    4.7961    1.3155   19.0602 C   0  0  0  0  0  0  0  0  0  0  0  0
    3.8546    1.8279   19.2020 H   0  0  0  0  0  0  0  0  0  0  0  0
  1  2  1  0
  2  3  2  0
  3  4  1  0
  4  5  1  0
  4  6  2  0
  6  7  1  0
  7  8  2  0
  8  9  1  0
  9 10  1  0
  9 11  1  0
  9 12  1  0
 12 13  1  0
 13 14  1  0
 13 15  1  0
 13 16  1  0
 16 17  1  0
 16 18  1  0
 16 19  1  0
 19 20  1  0
 19 21  1  0
 21 22  1  0
 22 23  1  0
 22 24  1  0
 22 25  1  0
 25 26  1  0
 25 27  1  0
 25 28  1  0
 28 29  1  0
 28 30  1  0
 28 31  1  0
 31 32  1  0
 31 33  1  0
 19 34  1  0
 34 35  1  0
 34 36  1  0
 34 37  1  0
 37 38  1  0
 37 39  1  0
  8 40  1  0
 40 41  1  0
 40 42  2  0
 42 43  1  0
 43 44  1  0
  6 45  1  0
 45 46  1  0
 45 47  2  0
 47 48  1  0
 47  2  1  0
 43  7  1  0
 37 12  1  0
 31 21  1  0
M  END
>  <cnnaffinity>  (1) 
-4.89539

>  <filename>  (1) 
c1cncc(-c2[nH]ncc2CN2CCC(N3CCCC3)CC2)c1

$$$$
