
     RDKit          3D

 39 43  0  0  0  0  0  0  0  0999 V2000
    4.7935    1.2896   19.0002 C   0  0  0  0  0  0  0  0  0  0  0  0
    5.4334    1.2745   17.7600 C   0  0  0  0  0  0  0  0  0  0  0  0
    6.5836    0.6148   17.5365 N   0  0  0  0  0  0  0  0  0  0  0  0
    7.1539   -0.0160   18.5670 C   0  0  0  0  0  0  0  0  0  0  0  0
    6.6369    0.0252   19.8743 C   0  0  0  0  0  0  0  0  0  0  0  0
    7.3615   -0.5828   20.9432 N   0  0  0  0  0  0  0  0  0  0  0  0
    7.8598   -1.8313   20.7701 N   0  0  0  0  0  0  0  0  0  0  0  0
    8.2814   -2.1644   21.9726 C   0  0  0  0  0  0  0  0  0  0  0  0
    8.8795   -3.4727   22.3127 C   0  0  0  0  0  0  0  0  0  0  0  0
    8.4010   -4.3163   23.4681 C   0  0  0  0  0  0  0  0  0  0  0  0
    8.1325   -4.7638   22.0642 C   0  0  0  0  0  0  0  0  0  0  0  0
    7.1033   -4.6789   21.7140 H   0  0  0  0  0  0  0  0  0  0  0  0
    8.6712   -5.6203   21.6682 H   0  0  0  0  0  0  0  0  0  0  0  0
    9.1821   -4.8313   24.0203 H   0  0  0  0  0  0  0  0  0  0  0  0
    7.5703   -3.9551   24.0711 H   0  0  0  0  0  0  0  0  0  0  0  0
    9.9616   -3.4092   22.2126 H   0  0  0  0  0  0  0  0  0  0  0  0
    8.1320   -1.2097   22.9098 N   0  0  0  0  0  0  0  0  0  0  0  0
    7.5556   -0.2119   22.2536 C   0  0  0  0  0  0  0  0  0  0  0  0
    7.2319    1.1258   22.8190 C   0  0  0  0  0  0  0  0  0  0  0  0
    7.5676    2.1958   22.0963 N   0  0  0  0  0  0  0  0  0  0  0  0
    7.2811    3.4242   22.5830 C   0  0  0  0  0  0  0  0  0  0  0  0
    6.6815    3.6341   23.8005 C   0  0  0  0  0  0  0  0  0  0  0  0
    6.3287    2.5211   24.6142 C   0  0  0  0  0  0  0  0  0  0  0  0
    5.7267    2.6698   25.8956 C   0  0  0  0  0  0  0  0  0  0  0  0
    5.3695    1.5694   26.6383 C   0  0  0  0  0  0  0  0  0  0  0  0
    5.5851    0.2658   26.1297 C   0  0  0  0  0  0  0  0  0  0  0  0
    6.1772    0.0818   24.9028 C   0  0  0  0  0  0  0  0  0  0  0  0
    6.5910    1.2084   24.1156 C   0  0  0  0  0  0  0  0  0  0  0  0
    6.3507   -0.9225   24.5269 H   0  0  0  0  0  0  0  0  0  0  0  0
    5.2849   -0.5978   26.7142 H   0  0  0  0  0  0  0  0  0  0  0  0
    4.9158    1.6826   27.6178 H   0  0  0  0  0  0  0  0  0  0  0  0
    5.5547    3.6683   26.2802 H   0  0  0  0  0  0  0  0  0  0  0  0
    6.4726    4.6422   24.1319 H   0  0  0  0  0  0  0  0  0  0  0  0
    7.5507    4.2571   21.9350 H   0  0  0  0  0  0  0  0  0  0  0  0
    5.4007    0.6522   20.0847 C   0  0  0  0  0  0  0  0  0  0  0  0
    4.9334    0.6482   21.0673 H   0  0  0  0  0  0  0  0  0  0  0  0
    8.0651   -0.5713   18.3538 H   0  0  0  0  0  0  0  0  0  0  0  0
    5.0015    1.7976   16.9097 H   0  0  0  0  0  0  0  0  0  0  0  0
    3.8366    1.7903   19.1098 H   0  0  0  0  0  0  0  0  0  0  0  0
  1  2  2  0
  2  3  1  0
  3  4  2  0
  4  5  1  0
  5  6  1  0
  6  7  1  0
  7  8  2  0
  8  9  1  0
  9 10  1  0
 10 11  1  0
 11 12  1  0
 11 13  1  0
 10 14  1  0
 10 15  1  0
  9 16  1  0
  8 17  1  0
 17 18  2  0
 18 19  1  0
 19 20  2  0
 20 21  1  0
 21 22  2  0
 22 23  1  0
 23 24  2  0
 24 25  1  0
 25 26  2  0
 26 27  1  0
 27 28  2  0
 27 29  1  0
 26 30  1  0
 25 31  1  0
 24 32  1  0
 22 33  1  0
 21 34  1  0
  5 35  2  0
 35 36  1  0
  4 37  1  0
  2 38  1  0
  1 39  1  0
 35  1  1  0
 18  6  1  0
 28 19  1  0
 11  9  1  0
 28 23  1  0
M  END
>  <cnnaffinity>  (1) 
-5.42287

>  <filename>  (1) 
c1cncc(-n2nc(C3CC3)nc2-c2nccc3ccccc23)c1

$$$$
