
     RDKit          3D

 27 29  0  0  0  0  0  0  0  0999 V2000
    4.9554    1.7828   17.0151 H   0  0  0  0  0  0  0  0  0  0  0  0
    5.4097    1.2719   17.8610 C   0  0  0  0  0  0  0  0  0  0  0  0
    6.5725    0.6429   17.6197 N   0  0  0  0  0  0  0  0  0  0  0  0
    7.1783    0.0242   18.6397 C   0  0  0  0  0  0  0  0  0  0  0  0
    8.1364   -0.4473   18.4312 H   0  0  0  0  0  0  0  0  0  0  0  0
    6.6418   -0.0250   19.9411 C   0  0  0  0  0  0  0  0  0  0  0  0
    7.4186   -0.6187   20.9454 O   0  0  0  0  0  0  0  0  0  0  0  0
    6.9193   -1.3857   21.9274 C   0  0  0  0  0  0  0  0  0  0  0  0
    7.4502   -1.5217   23.1123 N   0  0  0  0  0  0  0  0  0  0  0  0
    6.6304   -2.4465   23.6953 C   0  0  0  0  0  0  0  0  0  0  0  0
    6.7888   -2.9292   25.0684 C   0  0  0  0  0  0  0  0  0  0  0  0
    7.9988   -2.6906   25.7305 C   0  0  0  0  0  0  0  0  0  0  0  0
    8.7847   -2.0855   25.2670 H   0  0  0  0  0  0  0  0  0  0  0  0
    8.2619   -3.1819   26.9471 N   0  0  0  0  0  0  0  0  0  0  0  0
    7.3178   -3.9120   27.5536 C   0  0  0  0  0  0  0  0  0  0  0  0
    7.5879   -4.3403   28.5211 H   0  0  0  0  0  0  0  0  0  0  0  0
    6.0462   -4.1310   27.0125 C   0  0  0  0  0  0  0  0  0  0  0  0
    5.3099   -4.6954   27.5773 H   0  0  0  0  0  0  0  0  0  0  0  0
    5.7728   -3.6377   25.7411 C   0  0  0  0  0  0  0  0  0  0  0  0
    4.7982   -3.7927   25.2691 H   0  0  0  0  0  0  0  0  0  0  0  0
    5.6745   -2.9162   22.9252 N   0  0  0  0  0  0  0  0  0  0  0  0
    5.8803   -2.2341   21.7507 N   0  0  0  0  0  0  0  0  0  0  0  0
    5.0644   -1.9461   21.2404 H   0  0  0  0  0  0  0  0  0  0  0  0
    5.4327    0.6284   20.1895 C   0  0  0  0  0  0  0  0  0  0  0  0
    5.0140    0.6681   21.1927 H   0  0  0  0  0  0  0  0  0  0  0  0
    4.8080    1.2906   19.1203 C   0  0  0  0  0  0  0  0  0  0  0  0
    3.8830    1.8418   19.2573 H   0  0  0  0  0  0  0  0  0  0  0  0
  1  2  1  0
  2  3  2  0
  3  4  1  0
  4  5  1  0
  4  6  2  0
  6  7  1  0
  7  8  1  0
  8  9  2  0
  9 10  1  0
 10 11  1  0
 11 12  2  0
 12 13  1  0
 12 14  1  0
 14 15  2  0
 15 16  1  0
 15 17  1  0
 17 18  1  0
 17 19  2  0
 19 20  1  0
 10 21  2  0
 21 22  1  0
 22 23  1  0
  6 24  1  0
 24 25  1  0
 24 26  2  0
 26 27  1  0
 26  2  1  0
 22  8  1  0
 19 11  1  0
M  END
>  <cnnaffinity>  (1) 
-4.4957

>  <filename>  (1) 
c1cncc(Oc2nc(-c3cccnc3)n[nH]2)c1

$$$$
