
     RDKit          3D

 41 45  0  0  0  0  0  0  0  0999 V2000
    5.0109    1.8365   16.8819 H   0  0  0  0  0  0  0  0  0  0  0  0
    5.4373    1.2914   17.7211 C   0  0  0  0  0  0  0  0  0  0  0  0
    6.5779    0.6277   17.4804 N   0  0  0  0  0  0  0  0  0  0  0  0
    7.1488   -0.0167   18.5034 C   0  0  0  0  0  0  0  0  0  0  0  0
    8.0724   -0.5450   18.2794 H   0  0  0  0  0  0  0  0  0  0  0  0
    6.6258   -0.0282   19.8092 C   0  0  0  0  0  0  0  0  0  0  0  0
    7.3827   -0.6429   20.9151 C   0  0  0  0  0  0  0  0  0  0  0  0
    8.5602   -1.2513   20.6929 N   0  0  0  0  0  0  0  0  0  0  0  0
    8.9509   -1.6043   21.9342 N   0  0  0  0  0  0  0  0  0  0  0  0
   10.0711   -2.2134   22.4838 C   0  0  0  0  0  0  0  0  0  0  0  0
   10.8710   -2.5704   21.8597 H   0  0  0  0  0  0  0  0  0  0  0  0
    9.8764   -2.1852   23.8271 C   0  0  0  0  0  0  0  0  0  0  0  0
   10.5002   -2.5595   24.6235 H   0  0  0  0  0  0  0  0  0  0  0  0
    8.6410   -1.5972   24.1144 N   0  0  0  0  0  0  0  0  0  0  0  0
    8.2739   -0.9060   25.3526 C   0  0  0  0  0  0  0  0  0  0  0  0
    8.8147   -1.3759   26.1806 H   0  0  0  0  0  0  0  0  0  0  0  0
    7.2047   -1.0455   25.5330 H   0  0  0  0  0  0  0  0  0  0  0  0
    8.6169    0.5753   25.2786 C   0  0  0  0  0  0  0  0  0  0  0  0
    9.9994    0.9162   25.2801 C   0  0  0  0  0  0  0  0  0  0  0  0
   10.7447    0.1403   25.4342 H   0  0  0  0  0  0  0  0  0  0  0  0
   10.4132    2.2034   25.0699 C   0  0  0  0  0  0  0  0  0  0  0  0
   11.4721    2.4448   25.0337 H   0  0  0  0  0  0  0  0  0  0  0  0
    9.4595    3.2508   24.9136 C   0  0  0  0  0  0  0  0  0  0  0  0
    9.8608    4.6153   24.8333 C   0  0  0  0  0  0  0  0  0  0  0  0
   10.9191    4.8327   24.9245 H   0  0  0  0  0  0  0  0  0  0  0  0
    8.9348    5.6206   24.6864 C   0  0  0  0  0  0  0  0  0  0  0  0
    9.2489    6.6621   24.6941 H   0  0  0  0  0  0  0  0  0  0  0  0
    7.5541    5.2953   24.5484 C   0  0  0  0  0  0  0  0  0  0  0  0
    6.8404    6.0997   24.3880 H   0  0  0  0  0  0  0  0  0  0  0  0
    7.1307    3.9853   24.6103 C   0  0  0  0  0  0  0  0  0  0  0  0
    6.0759    3.7440   24.4892 H   0  0  0  0  0  0  0  0  0  0  0  0
    8.0674    2.9288   24.8515 C   0  0  0  0  0  0  0  0  0  0  0  0
    7.6774    1.5627   25.0454 C   0  0  0  0  0  0  0  0  0  0  0  0
    6.6190    1.3200   25.0042 H   0  0  0  0  0  0  0  0  0  0  0  0
    8.0855   -1.2445   22.9023 C   0  0  0  0  0  0  0  0  0  0  0  0
    7.0134   -0.6280   22.2807 C   0  0  0  0  0  0  0  0  0  0  0  0
    6.1140   -0.2340   22.7233 H   0  0  0  0  0  0  0  0  0  0  0  0
    5.4030    0.6287   20.0263 C   0  0  0  0  0  0  0  0  0  0  0  0
    4.9310    0.6149   21.0097 H   0  0  0  0  0  0  0  0  0  0  0  0
    4.8052    1.3061   18.9678 C   0  0  0  0  0  0  0  0  0  0  0  0
    3.8798    1.8554   19.0999 H   0  0  0  0  0  0  0  0  0  0  0  0
  1  2  1  0
  2  3  2  0
  3  4  1  0
  4  5  1  0
  4  6  2  0
  6  7  1  0
  7  8  2  0
  8  9  1  0
  9 10  1  0
 10 11  1  0
 10 12  2  0
 12 13  1  0
 12 14  1  0
 14 15  1  0
 15 16  1  0
 15 17  1  0
 15 18  1  0
 18 19  2  0
 19 20  1  0
 19 21  1  0
 21 22  1  0
 21 23  2  0
 23 24  1  0
 24 25  1  0
 24 26  2  0
 26 27  1  0
 26 28  1  0
 28 29  1  0
 28 30  2  0
 30 31  1  0
 30 32  1  0
 32 33  2  0
 33 34  1  0
 14 35  1  0
 35 36  2  0
 36 37  1  0
  6 38  1  0
 38 39  1  0
 38 40  2  0
 40 41  1  0
 40  2  1  0
 36  7  1  0
 35  9  1  0
 33 18  1  0
 32 23  1  0
M  END
>  <cnnaffinity>  (1) 
-5.85444

>  <filename>  (1) 
c1cncc(-c2cc3n(Cc4ccc5ccccc5c4)ccn3n2)c1

$$$$
