
     RDKit          3D

 35 38  0  0  0  0  0  0  0  0999 V2000
    4.9444    1.7661   16.9143 H   0  0  0  0  0  0  0  0  0  0  0  0
    5.3940    1.3378   17.8033 C   0  0  0  0  0  0  0  0  0  0  0  0
    6.5829    0.7385   17.6203 N   0  0  0  0  0  0  0  0  0  0  0  0
    7.1394    0.1820   18.7007 C   0  0  0  0  0  0  0  0  0  0  0  0
    8.0934   -0.3215   18.5439 H   0  0  0  0  0  0  0  0  0  0  0  0
    6.5841    0.2057   20.0013 C   0  0  0  0  0  0  0  0  0  0  0  0
    7.2789   -0.4789   21.1289 C   0  0  0  0  0  0  0  0  0  0  0  0
    7.7349   -1.7917   20.9421 C   0  0  0  0  0  0  0  0  0  0  0  0
    7.4825   -2.2802   20.0119 H   0  0  0  0  0  0  0  0  0  0  0  0
    8.4418   -2.4959   21.8175 N   0  0  0  0  0  0  0  0  0  0  0  0
    8.6390   -1.9494   23.0305 C   0  0  0  0  0  0  0  0  0  0  0  0
    9.3389   -2.8340   23.9745 C   0  0  0  0  0  0  0  0  0  0  0  0
   10.5443   -3.3610   23.5754 C   0  0  0  0  0  0  0  0  0  0  0  0
   10.9550   -3.1575   22.5873 H   0  0  0  0  0  0  0  0  0  0  0  0
   11.3015   -4.1757   24.3473 N   0  0  0  0  0  0  0  0  0  0  0  0
   10.8328   -4.5227   25.5265 C   0  0  0  0  0  0  0  0  0  0  0  0
   11.4417   -5.1976   26.1208 H   0  0  0  0  0  0  0  0  0  0  0  0
    9.5818   -4.0933   26.0500 C   0  0  0  0  0  0  0  0  0  0  0  0
    9.0852   -4.5218   27.3178 C   0  0  0  0  0  0  0  0  0  0  0  0
    9.7185   -5.1275   27.9629 H   0  0  0  0  0  0  0  0  0  0  0  0
    7.8108   -4.1943   27.7001 C   0  0  0  0  0  0  0  0  0  0  0  0
    7.4354   -4.5313   28.6622 H   0  0  0  0  0  0  0  0  0  0  0  0
    6.9771   -3.4159   26.8495 C   0  0  0  0  0  0  0  0  0  0  0  0
    5.9505   -3.2184   27.1377 H   0  0  0  0  0  0  0  0  0  0  0  0
    7.4545   -2.9421   25.6466 C   0  0  0  0  0  0  0  0  0  0  0  0
    6.8264   -2.3504   24.9855 H   0  0  0  0  0  0  0  0  0  0  0  0
    8.7818   -3.2474   25.2248 C   0  0  0  0  0  0  0  0  0  0  0  0
    8.2165   -0.6436   23.3444 C   0  0  0  0  0  0  0  0  0  0  0  0
    8.3958   -0.2527   24.3427 H   0  0  0  0  0  0  0  0  0  0  0  0
    7.5221    0.0982   22.3825 C   0  0  0  0  0  0  0  0  0  0  0  0
    7.1809    1.1118   22.5866 H   0  0  0  0  0  0  0  0  0  0  0  0
    5.3466    0.8451   20.1614 C   0  0  0  0  0  0  0  0  0  0  0  0
    4.8698    0.8710   21.1452 H   0  0  0  0  0  0  0  0  0  0  0  0
    4.7369    1.4083   19.0378 C   0  0  0  0  0  0  0  0  0  0  0  0
    3.7676    1.8935   19.1021 H   0  0  0  0  0  0  0  0  0  0  0  0
  1  2  1  0
  2  3  2  0
  3  4  1  0
  4  5  1  0
  4  6  2  0
  6  7  1  0
  7  8  2  0
  8  9  1  0
  8 10  1  0
 10 11  2  0
 11 12  1  0
 12 13  2  0
 13 14  1  0
 13 15  1  0
 15 16  2  0
 16 17  1  0
 16 18  1  0
 18 19  2  0
 19 20  1  0
 19 21  1  0
 21 22  1  0
 21 23  2  0
 23 24  1  0
 23 25  1  0
 25 26  1  0
 25 27  2  0
 11 28  1  0
 28 29  1  0
 28 30  2  0
 30 31  1  0
  6 32  1  0
 32 33  1  0
 32 34  2  0
 34 35  1  0
 34  2  1  0
 30  7  1  0
 27 12  1  0
 27 18  1  0
M  END
>  <cnnaffinity>  (1) 
-5.85095

>  <filename>  (1) 
c1cncc(-c2ccc(-c3cncc4ccccc34)nc2)c1

$$$$
