
     RDKit          3D

 35 38  0  0  0  0  0  0  0  0999 V2000
    8.6073   -1.7692   19.8239 H   0  0  0  0  0  0  0  0  0  0  0  0
    8.4362   -1.4589   20.8418 C   0  0  0  0  0  0  0  0  0  0  0  0
    9.0302   -2.1722   21.8132 N   0  0  0  0  0  0  0  0  0  0  0  0
    8.8329   -1.6967   23.0511 C   0  0  0  0  0  0  0  0  0  0  0  0
    9.3006   -2.2657   23.8442 H   0  0  0  0  0  0  0  0  0  0  0  0
    8.0398   -0.5417   23.3458 C   0  0  0  0  0  0  0  0  0  0  0  0
    7.9987   -0.0478   24.7622 C   0  0  0  0  0  0  0  0  0  0  0  0
    9.1818   -0.1473   25.4908 C   0  0  0  0  0  0  0  0  0  0  0  0
   10.1002   -0.4931   25.0257 H   0  0  0  0  0  0  0  0  0  0  0  0
    9.2538    0.1794   26.8625 C   0  0  0  0  0  0  0  0  0  0  0  0
   10.1897    0.0192   27.3959 H   0  0  0  0  0  0  0  0  0  0  0  0
    8.1505    0.6518   27.5248 C   0  0  0  0  0  0  0  0  0  0  0  0
    8.2021    0.9024   28.5823 H   0  0  0  0  0  0  0  0  0  0  0  0
    6.9041    0.7583   26.8437 C   0  0  0  0  0  0  0  0  0  0  0  0
    5.7305    1.1180   27.5709 C   0  0  0  0  0  0  0  0  0  0  0  0
    5.8350    1.4120   28.6145 H   0  0  0  0  0  0  0  0  0  0  0  0
    4.4920    1.0391   26.9856 C   0  0  0  0  0  0  0  0  0  0  0  0
    3.5965    1.1936   27.5751 H   0  0  0  0  0  0  0  0  0  0  0  0
    4.3772    0.7067   25.6105 C   0  0  0  0  0  0  0  0  0  0  0  0
    3.3925    0.6255   25.1608 H   0  0  0  0  0  0  0  0  0  0  0  0
    5.5043    0.4670   24.8575 C   0  0  0  0  0  0  0  0  0  0  0  0
    5.4276    0.2833   23.7940 H   0  0  0  0  0  0  0  0  0  0  0  0
    6.8086    0.4202   25.4470 C   0  0  0  0  0  0  0  0  0  0  0  0
    7.4018    0.1077   22.3476 N   0  0  0  0  0  0  0  0  0  0  0  0
    7.6049   -0.3451   21.0903 C   0  0  0  0  0  0  0  0  0  0  0  0
    6.8496    0.3079   19.9903 C   0  0  0  0  0  0  0  0  0  0  0  0
    7.3363    0.3047   18.6717 C   0  0  0  0  0  0  0  0  0  0  0  0
    8.3338   -0.0774   18.4507 H   0  0  0  0  0  0  0  0  0  0  0  0
    6.6539    0.7627   17.6185 N   0  0  0  0  0  0  0  0  0  0  0  0
    5.4424    1.2932   17.8499 C   0  0  0  0  0  0  0  0  0  0  0  0
    4.9136    1.6801   16.9792 H   0  0  0  0  0  0  0  0  0  0  0  0
    4.8790    1.3799   19.1267 C   0  0  0  0  0  0  0  0  0  0  0  0
    3.9109    1.8482   19.2589 H   0  0  0  0  0  0  0  0  0  0  0  0
    5.5912    0.8821   20.2152 C   0  0  0  0  0  0  0  0  0  0  0  0
    5.1903    0.9290   21.2297 H   0  0  0  0  0  0  0  0  0  0  0  0
  1  2  1  0
  2  3  2  0
  3  4  1  0
  4  5  1  0
  4  6  2  0
  6  7  1  0
  7  8  2  0
  8  9  1  0
  8 10  1  0
 10 11  1  0
 10 12  2  0
 12 13  1  0
 12 14  1  0
 14 15  2  0
 15 16  1  0
 15 17  1  0
 17 18  1  0
 17 19  2  0
 19 20  1  0
 19 21  1  0
 21 22  1  0
 21 23  2  0
  6 24  1  0
 24 25  2  0
 25 26  1  0
 26 27  2  0
 27 28  1  0
 27 29  1  0
 29 30  2  0
 30 31  1  0
 30 32  1  0
 32 33  1  0
 32 34  2  0
 34 35  1  0
 25  2  1  0
 34 26  1  0
 23  7  1  0
 23 14  1  0
M  END
>  <cnnaffinity>  (1) 
-5.43191

>  <filename>  (1) 
c1cncc(-c2cncc(-c3cccc4ccccc34)n2)c1

$$$$
