
     RDKit          3D

 31 34  0  0  0  0  0  0  0  0999 V2000
    5.0279    1.7502   16.9139 H   0  0  0  0  0  0  0  0  0  0  0  0
    5.4885    1.2601   17.7687 C   0  0  0  0  0  0  0  0  0  0  0  0
    6.6539    0.6318   17.5380 N   0  0  0  0  0  0  0  0  0  0  0  0
    7.2602    0.0421   18.5701 C   0  0  0  0  0  0  0  0  0  0  0  0
    8.1988   -0.4694   18.3717 H   0  0  0  0  0  0  0  0  0  0  0  0
    6.7434    0.0658   19.8788 C   0  0  0  0  0  0  0  0  0  0  0  0
    7.4779   -0.5510   20.9369 N   0  0  0  0  0  0  0  0  0  0  0  0
    8.0242   -1.7764   20.7737 N   0  0  0  0  0  0  0  0  0  0  0  0
    8.6347   -2.0601   21.8580 N   0  0  0  0  0  0  0  0  0  0  0  0
    8.5339   -1.0602   22.7615 N   0  0  0  0  0  0  0  0  0  0  0  0
    7.8046   -0.1314   22.1857 C   0  0  0  0  0  0  0  0  0  0  0  0
    7.4139    1.4223   22.9160 S   0  0  0  0  0  0  0  0  0  0  0  0
    6.2745    0.9360   24.2060 C   0  0  0  0  0  0  0  0  0  0  0  0
    4.9473    1.2178   24.1455 C   0  0  0  0  0  0  0  0  0  0  0  0
    4.4409    1.7798   23.3744 H   0  0  0  0  0  0  0  0  0  0  0  0
    4.2842    0.6650   25.2140 N   0  0  0  0  0  0  0  0  0  0  0  0
    3.2923    0.4974   25.2527 H   0  0  0  0  0  0  0  0  0  0  0  0
    5.1933   -0.0031   26.0030 C   0  0  0  0  0  0  0  0  0  0  0  0
    4.9894   -0.6948   27.2079 C   0  0  0  0  0  0  0  0  0  0  0  0
    3.9953   -0.7764   27.6404 H   0  0  0  0  0  0  0  0  0  0  0  0
    6.1127   -1.2284   27.8332 C   0  0  0  0  0  0  0  0  0  0  0  0
    5.9810   -1.7430   28.7803 H   0  0  0  0  0  0  0  0  0  0  0  0
    7.4120   -1.0541   27.2924 C   0  0  0  0  0  0  0  0  0  0  0  0
    8.2754   -1.4337   27.8353 H   0  0  0  0  0  0  0  0  0  0  0  0
    7.6045   -0.3700   26.0966 C   0  0  0  0  0  0  0  0  0  0  0  0
    8.6073   -0.2266   25.6927 H   0  0  0  0  0  0  0  0  0  0  0  0
    6.4812    0.1625   25.4213 C   0  0  0  0  0  0  0  0  0  0  0  0
    5.5177    0.6845   20.1101 C   0  0  0  0  0  0  0  0  0  0  0  0
    5.0710    0.6891   21.1034 H   0  0  0  0  0  0  0  0  0  0  0  0
    4.8778    1.2938   19.0266 C   0  0  0  0  0  0  0  0  0  0  0  0
    3.9283    1.7970   19.1576 H   0  0  0  0  0  0  0  0  0  0  0  0
  1  2  1  0
  2  3  2  0
  3  4  1  0
  4  5  1  0
  4  6  2  0
  6  7  1  0
  7  8  1  0
  8  9  2  0
  9 10  1  0
 10 11  2  0
 11 12  1  0
 12 13  1  0
 13 14  2  0
 14 15  1  0
 14 16  1  0
 16 17  1  0
 16 18  1  0
 18 19  2  0
 19 20  1  0
 19 21  1  0
 21 22  1  0
 21 23  2  0
 23 24  1  0
 23 25  1  0
 25 26  1  0
 25 27  2  0
  6 28  1  0
 28 29  1  0
 28 30  2  0
 30 31  1  0
 30  2  1  0
 11  7  1  0
 27 13  1  0
 27 18  1  0
M  END
>  <cnnaffinity>  (1) 
-5.02413

>  <filename>  (1) 
c1cncc(-n2nnnc2Sc2c[nH]c3ccccc23)c1

$$$$
