
     RDKit          3D

 37 39  0  0  0  0  0  0  0  0999 V2000
    5.0204    1.7969   16.9498 H   0  0  0  0  0  0  0  0  0  0  0  0
    5.4833    1.2807   17.7884 C   0  0  0  0  0  0  0  0  0  0  0  0
    6.6495    0.6644   17.5367 N   0  0  0  0  0  0  0  0  0  0  0  0
    7.2434    0.0484   18.5650 C   0  0  0  0  0  0  0  0  0  0  0  0
    8.1829   -0.4549   18.3443 H   0  0  0  0  0  0  0  0  0  0  0  0
    6.7216   -0.0116   19.8694 C   0  0  0  0  0  0  0  0  0  0  0  0
    7.4821   -0.7126   20.9316 C   0  0  0  0  0  0  0  0  0  0  0  0
    6.8582   -1.5525   21.8862 C   0  0  0  0  0  0  0  0  0  0  0  0
    5.7862   -1.7386   21.8787 H   0  0  0  0  0  0  0  0  0  0  0  0
    7.5521   -2.2098   22.8093 N   0  0  0  0  0  0  0  0  0  0  0  0
    8.8787   -2.0518   22.9075 N   0  0  0  0  0  0  0  0  0  0  0  0
    9.5282   -1.2280   22.0609 C   0  0  0  0  0  0  0  0  0  0  0  0
   10.8527   -1.1055   22.3401 N   0  0  0  0  0  0  0  0  0  0  0  0
   11.0597   -1.5915   23.1939 H   0  0  0  0  0  0  0  0  0  0  0  0
   11.8136   -0.2175   21.7357 C   0  0  0  0  0  0  0  0  0  0  0  0
   11.8103   -0.4482   20.6638 H   0  0  0  0  0  0  0  0  0  0  0  0
   11.4570    1.2915   21.8745 C   0  0  0  0  0  0  0  0  0  0  0  0
   11.9777    1.8365   21.0757 H   0  0  0  0  0  0  0  0  0  0  0  0
   10.3883    1.4452   21.6935 H   0  0  0  0  0  0  0  0  0  0  0  0
   11.8516    1.9201   23.2202 C   0  0  0  0  0  0  0  0  0  0  0  0
   11.2403    1.4973   24.0321 H   0  0  0  0  0  0  0  0  0  0  0  0
   11.6366    2.9961   23.2178 H   0  0  0  0  0  0  0  0  0  0  0  0
   13.3389    1.6642   23.4841 C   0  0  0  0  0  0  0  0  0  0  0  0
   13.9232    2.1156   22.6673 H   0  0  0  0  0  0  0  0  0  0  0  0
   13.6782    2.1559   24.3921 H   0  0  0  0  0  0  0  0  0  0  0  0
   13.6076    0.1595   23.5974 C   0  0  0  0  0  0  0  0  0  0  0  0
   13.0304   -0.2115   24.4604 H   0  0  0  0  0  0  0  0  0  0  0  0
   14.6693   -0.0239   23.8136 H   0  0  0  0  0  0  0  0  0  0  0  0
   13.2106   -0.5807   22.3040 C   0  0  0  0  0  0  0  0  0  0  0  0
   13.9811   -0.3498   21.5585 H   0  0  0  0  0  0  0  0  0  0  0  0
   13.2319   -1.6721   22.4396 H   0  0  0  0  0  0  0  0  0  0  0  0
    8.8614   -0.5780   21.0116 C   0  0  0  0  0  0  0  0  0  0  0  0
    9.4314    0.0375   20.3228 H   0  0  0  0  0  0  0  0  0  0  0  0
    5.4931    0.6226   20.1061 C   0  0  0  0  0  0  0  0  0  0  0  0
    5.0514    0.6049   21.1051 H   0  0  0  0  0  0  0  0  0  0  0  0
    4.8707    1.2850   19.0480 C   0  0  0  0  0  0  0  0  0  0  0  0
    3.9349    1.8122   19.1905 H   0  0  0  0  0  0  0  0  0  0  0  0
  1  2  1  0
  2  3  2  0
  3  4  1  0
  4  5  1  0
  4  6  2  0
  6  7  1  0
  7  8  2  0
  8  9  1  0
  8 10  1  0
 10 11  2  0
 11 12  1  0
 12 13  1  0
 13 14  1  0
 13 15  1  0
 15 16  1  0
 15 17  1  0
 17 18  1  0
 17 19  1  0
 17 20  1  0
 20 21  1  0
 20 22  1  0
 20 23  1  0
 23 24  1  0
 23 25  1  0
 23 26  1  0
 26 27  1  0
 26 28  1  0
 26 29  1  0
 29 30  1  0
 29 31  1  0
 12 32  2  0
 32 33  1  0
  6 34  1  0
 34 35  1  0
 34 36  2  0
 36 37  1  0
 36  2  1  0
 32  7  1  0
 29 15  1  0
M  END
>  <cnnaffinity>  (1) 
-5.10403

>  <filename>  (1) 
c1cncc(-c2cnnc(NC3CCCCC3)c2)c1

$$$$
