
     RDKit          3D

 36 38  0  0  0  0  0  0  0  0999 V2000
    4.9315    1.7766   17.0022 H   0  0  0  0  0  0  0  0  0  0  0  0
    5.4072    1.2834   17.8474 C   0  0  0  0  0  0  0  0  0  0  0  0
    6.5665    0.6636   17.5882 N   0  0  0  0  0  0  0  0  0  0  0  0
    7.1898    0.0657   18.6085 C   0  0  0  0  0  0  0  0  0  0  0  0
    8.1314   -0.4177   18.3685 H   0  0  0  0  0  0  0  0  0  0  0  0
    6.6810    0.0180   19.9146 C   0  0  0  0  0  0  0  0  0  0  0  0
    7.4420   -0.7032   20.9560 C   0  0  0  0  0  0  0  0  0  0  0  0
    8.7799   -0.6957   20.8758 N   0  0  0  0  0  0  0  0  0  0  0  0
    9.4544   -1.3116   21.8519 C   0  0  0  0  0  0  0  0  0  0  0  0
   10.5363   -1.2752   21.7767 H   0  0  0  0  0  0  0  0  0  0  0  0
    8.8558   -1.9971   22.9152 C   0  0  0  0  0  0  0  0  0  0  0  0
    9.4665   -2.5096   23.6489 H   0  0  0  0  0  0  0  0  0  0  0  0
    7.4609   -2.0471   22.9800 C   0  0  0  0  0  0  0  0  0  0  0  0
    6.7192   -2.8194   24.0555 C   0  0  0  0  0  0  0  0  0  0  0  0
    5.9607   -2.1572   24.4945 H   0  0  0  0  0  0  0  0  0  0  0  0
    7.4243   -3.0737   24.8724 H   0  0  0  0  0  0  0  0  0  0  0  0
    6.0511   -4.0074   23.5133 N   0  0  0  0  0  0  0  0  0  0  0  0
    5.0597   -4.5327   24.4545 C   0  0  0  0  0  0  0  0  0  0  0  0
    5.5112   -4.7745   25.4359 H   0  0  0  0  0  0  0  0  0  0  0  0
    4.2933   -3.7637   24.6191 H   0  0  0  0  0  0  0  0  0  0  0  0
    4.4022   -5.7931   23.8919 C   0  0  0  0  0  0  0  0  0  0  0  0
    3.7196   -6.2215   24.6278 H   0  0  0  0  0  0  0  0  0  0  0  0
    3.8344   -5.5267   22.9877 H   0  0  0  0  0  0  0  0  0  0  0  0
    5.3590   -6.7996   23.5786 O   0  0  0  0  0  0  0  0  0  0  0  0
    6.3055   -6.3028   22.6386 C   0  0  0  0  0  0  0  0  0  0  0  0
    7.0225   -7.1065   22.4584 H   0  0  0  0  0  0  0  0  0  0  0  0
    5.8002   -6.0616   21.6915 H   0  0  0  0  0  0  0  0  0  0  0  0
    7.0232   -5.0549   23.1553 C   0  0  0  0  0  0  0  0  0  0  0  0
    7.6996   -4.6720   22.3837 H   0  0  0  0  0  0  0  0  0  0  0  0
    7.6469   -5.3465   24.0218 H   0  0  0  0  0  0  0  0  0  0  0  0
    6.7625   -1.3859   21.9698 C   0  0  0  0  0  0  0  0  0  0  0  0
    5.6887   -1.4404   21.9164 H   0  0  0  0  0  0  0  0  0  0  0  0
    5.4487    0.6467   20.1652 C   0  0  0  0  0  0  0  0  0  0  0  0
    5.0039    0.6454   21.1642 H   0  0  0  0  0  0  0  0  0  0  0  0
    4.8151    1.3042   19.1134 C   0  0  0  0  0  0  0  0  0  0  0  0
    3.8846    1.8337   19.2579 H   0  0  0  0  0  0  0  0  0  0  0  0
  1  2  1  0
  2  3  2  0
  3  4  1  0
  4  5  1  0
  4  6  2  0
  6  7  1  0
  7  8  2  0
  8  9  1  0
  9 10  1  0
  9 11  2  0
 11 12  1  0
 11 13  1  0
 13 14  1  0
 14 15  1  0
 14 16  1  0
 14 17  1  0
 17 18  1  0
 18 19  1  0
 18 20  1  0
 18 21  1  0
 21 22  1  0
 21 23  1  0
 21 24  1  0
 24 25  1  0
 25 26  1  0
 25 27  1  0
 25 28  1  0
 28 29  1  0
 28 30  1  0
 13 31  2  0
 31 32  1  0
  6 33  1  0
 33 34  1  0
 33 35  2  0
 35 36  1  0
 35  2  1  0
 31  7  1  0
 28 17  1  0
M  END
>  <cnnaffinity>  (1) 
-4.90492

>  <filename>  (1) 
c1cncc(-c2cc(CN3CCOCC3)ccn2)c1

$$$$
