
     RDKit          3D

 31 34  0  0  0  0  0  0  0  0999 V2000
    4.9868    1.8346   17.2349 H   0  0  0  0  0  0  0  0  0  0  0  0
    5.4785    1.2042   17.9770 C   0  0  0  0  0  0  0  0  0  0  0  0
    6.5882    0.5669   17.5719 N   0  0  0  0  0  0  0  0  0  0  0  0
    7.2468   -0.1732   18.4707 C   0  0  0  0  0  0  0  0  0  0  0  0
    8.1502   -0.6648   18.0987 H   0  0  0  0  0  0  0  0  0  0  0  0
    6.8374   -0.3298   19.8146 C   0  0  0  0  0  0  0  0  0  0  0  0
    7.7025   -0.9914   20.8007 C   0  0  0  0  0  0  0  0  0  0  0  0
    9.0535   -0.8681   21.0230 C   0  0  0  0  0  0  0  0  0  0  0  0
    9.7223   -0.2730   20.4088 H   0  0  0  0  0  0  0  0  0  0  0  0
    9.4716   -1.5197   22.1552 N   0  0  0  0  0  0  0  0  0  0  0  0
    8.3637   -2.0219   22.6349 C   0  0  0  0  0  0  0  0  0  0  0  0
    7.8943   -2.8395   24.1044 S   0  0  0  0  0  0  0  0  0  0  0  0
    6.2542   -2.7285   23.5092 C   0  0  0  0  0  0  0  0  0  0  0  0
    5.1203   -3.0886   24.1699 N   0  0  0  0  0  0  0  0  0  0  0  0
    4.3794   -2.6134   23.6629 H   0  0  0  0  0  0  0  0  0  0  0  0
    4.8700   -3.9098   25.3010 C   0  0  0  0  0  0  0  0  0  0  0  0
    4.0105   -3.5026   26.3545 C   0  0  0  0  0  0  0  0  0  0  0  0
    3.5670   -2.5061   26.3358 H   0  0  0  0  0  0  0  0  0  0  0  0
    3.6728   -4.2771   27.3943 N   0  0  0  0  0  0  0  0  0  0  0  0
    4.1832   -5.5184   27.4409 C   0  0  0  0  0  0  0  0  0  0  0  0
    3.9038   -6.1233   28.3002 H   0  0  0  0  0  0  0  0  0  0  0  0
    5.0313   -6.0293   26.4527 C   0  0  0  0  0  0  0  0  0  0  0  0
    5.4067   -7.0466   26.5305 H   0  0  0  0  0  0  0  0  0  0  0  0
    5.3885   -5.2112   25.3727 C   0  0  0  0  0  0  0  0  0  0  0  0
    6.0293   -5.5724   24.5698 H   0  0  0  0  0  0  0  0  0  0  0  0
    6.0627   -2.1601   22.3458 N   0  0  0  0  0  0  0  0  0  0  0  0
    7.2711   -1.7704   21.8676 N   0  0  0  0  0  0  0  0  0  0  0  0
    5.6249    0.2743   20.1915 C   0  0  0  0  0  0  0  0  0  0  0  0
    5.2356    0.1093   21.1951 H   0  0  0  0  0  0  0  0  0  0  0  0
    4.9548    1.0759   19.2679 C   0  0  0  0  0  0  0  0  0  0  0  0
    4.0492    1.6097   19.5309 H   0  0  0  0  0  0  0  0  0  0  0  0
  1  2  1  0
  2  3  2  0
  3  4  1  0
  4  5  1  0
  4  6  2  0
  6  7  1  0
  7  8  2  0
  8  9  1  0
  8 10  1  0
 10 11  2  0
 11 12  1  0
 12 13  1  0
 13 14  1  0
 14 15  1  0
 14 16  1  0
 16 17  2  0
 17 18  1  0
 17 19  1  0
 19 20  2  0
 20 21  1  0
 20 22  1  0
 22 23  1  0
 22 24  2  0
 24 25  1  0
 13 26  2  0
 26 27  1  0
  6 28  1  0
 28 29  1  0
 28 30  2  0
 30 31  1  0
 30  2  1  0
 27  7  1  0
 27 11  1  0
 24 16  1  0
M  END
>  <cnnaffinity>  (1) 
-5.15613

>  <filename>  (1) 
c1cncc(Nc2nn3c(-c4cccnc4)cnc3s2)c1

$$$$
