
     RDKit          3D

 44 47  0  0  0  0  0  0  0  0999 V2000
    4.9106    1.8626   16.9845 H   0  0  0  0  0  0  0  0  0  0  0  0
    5.4021    1.3363   17.8002 C   0  0  0  0  0  0  0  0  0  0  0  0
    6.5703    0.7385   17.5118 N   0  0  0  0  0  0  0  0  0  0  0  0
    7.1917    0.0801   18.5038 C   0  0  0  0  0  0  0  0  0  0  0  0
    8.1472   -0.3740   18.2406 H   0  0  0  0  0  0  0  0  0  0  0  0
    6.6875   -0.0636   19.8270 C   0  0  0  0  0  0  0  0  0  0  0  0
    7.3748   -0.8102   20.8096 N   0  0  0  0  0  0  0  0  0  0  0  0
    6.6892   -1.6158   21.8277 C   0  0  0  0  0  0  0  0  0  0  0  0
    5.6197   -1.6664   21.6072 H   0  0  0  0  0  0  0  0  0  0  0  0
    7.0657   -2.6473   21.7583 H   0  0  0  0  0  0  0  0  0  0  0  0
    6.9175   -1.1594   23.3094 C   0  0  0  0  0  0  0  0  0  0  0  0
    6.9279   -2.0622   23.9350 H   0  0  0  0  0  0  0  0  0  0  0  0
    6.0619   -0.5755   23.6640 H   0  0  0  0  0  0  0  0  0  0  0  0
    8.1670   -0.3992   23.5600 N   0  0  0  0  0  0  0  0  0  0  0  0
    7.9168    1.0522   23.6688 C   0  0  0  0  0  0  0  0  0  0  0  0
    8.8795    1.5789   23.6028 H   0  0  0  0  0  0  0  0  0  0  0  0
    7.2987    1.4152   22.8279 H   0  0  0  0  0  0  0  0  0  0  0  0
    7.2520    1.4080   24.9948 C   0  0  0  0  0  0  0  0  0  0  0  0
    5.9340    1.9703   25.0516 C   0  0  0  0  0  0  0  0  0  0  0  0
    5.3873    2.1536   24.1260 H   0  0  0  0  0  0  0  0  0  0  0  0
    5.3449    2.2902   26.2554 C   0  0  0  0  0  0  0  0  0  0  0  0
    4.3487    2.7262   26.2823 H   0  0  0  0  0  0  0  0  0  0  0  0
    6.0179    2.0485   27.4905 C   0  0  0  0  0  0  0  0  0  0  0  0
    5.4806    2.4333   28.7639 C   0  0  0  0  0  0  0  0  0  0  0  0
    4.5205    2.9434   28.8018 H   0  0  0  0  0  0  0  0  0  0  0  0
    6.1975    2.2134   29.9200 C   0  0  0  0  0  0  0  0  0  0  0  0
    5.8278    2.5721   30.8770 H   0  0  0  0  0  0  0  0  0  0  0  0
    7.4362    1.5102   29.8743 C   0  0  0  0  0  0  0  0  0  0  0  0
    7.9758    1.3062   30.7959 H   0  0  0  0  0  0  0  0  0  0  0  0
    7.9530    1.0971   28.6708 C   0  0  0  0  0  0  0  0  0  0  0  0
    8.8422    0.4732   28.6352 H   0  0  0  0  0  0  0  0  0  0  0  0
    7.3046    1.4181   27.4431 C   0  0  0  0  0  0  0  0  0  0  0  0
    7.9136    1.1503   26.1793 C   0  0  0  0  0  0  0  0  0  0  0  0
    8.9252    0.7389   26.1765 H   0  0  0  0  0  0  0  0  0  0  0  0
    9.1854   -0.7661   22.5642 C   0  0  0  0  0  0  0  0  0  0  0  0
    9.3829   -1.8407   22.6706 H   0  0  0  0  0  0  0  0  0  0  0  0
   10.1351   -0.2693   22.7976 H   0  0  0  0  0  0  0  0  0  0  0  0
    8.7799   -0.4669   21.0969 C   0  0  0  0  0  0  0  0  0  0  0  0
    9.4703   -0.9978   20.4228 H   0  0  0  0  0  0  0  0  0  0  0  0
    8.9253    0.6073   20.9087 H   0  0  0  0  0  0  0  0  0  0  0  0
    5.4680    0.5965   20.0964 C   0  0  0  0  0  0  0  0  0  0  0  0
    5.0669    0.5890   21.1083 H   0  0  0  0  0  0  0  0  0  0  0  0
    4.8216    1.2991   19.0721 C   0  0  0  0  0  0  0  0  0  0  0  0
    3.8829    1.8170   19.2486 H   0  0  0  0  0  0  0  0  0  0  0  0
  1  2  1  0
  2  3  2  0
  3  4  1  0
  4  5  1  0
  4  6  2  0
  6  7  1  0
  7  8  1  0
  8  9  1  0
  8 10  1  0
  8 11  1  0
 11 12  1  0
 11 13  1  0
 11 14  1  0
 14 15  1  0
 15 16  1  0
 15 17  1  0
 15 18  1  0
 18 19  2  0
 19 20  1  0
 19 21  1  0
 21 22  1  0
 21 23  2  0
 23 24  1  0
 24 25  1  0
 24 26  2  0
 26 27  1  0
 26 28  1  0
 28 29  1  0
 28 30  2  0
 30 31  1  0
 30 32  1  0
 32 33  2  0
 33 34  1  0
 14 35  1  0
 35 36  1  0
 35 37  1  0
 35 38  1  0
 38 39  1  0
 38 40  1  0
  6 41  1  0
 41 42  1  0
 41 43  2  0
 43 44  1  0
 43  2  1  0
 38  7  1  0
 33 18  1  0
 32 23  1  0
M  END
>  <cnnaffinity>  (1) 
-4.92013

>  <filename>  (1) 
c1cncc(N2CCN(Cc3ccc4ccccc4c3)CC2)c1

$$$$
