
     RDKit          3D

 39 41  0  0  0  0  0  0  0  0999 V2000
    4.9418    1.7854   16.9384 H   0  0  0  0  0  0  0  0  0  0  0  0
    5.3924    1.3005   17.8019 C   0  0  0  0  0  0  0  0  0  0  0  0
    6.5455    0.6596   17.5893 N   0  0  0  0  0  0  0  0  0  0  0  0
    7.1249    0.0742   18.6484 C   0  0  0  0  0  0  0  0  0  0  0  0
    8.0548   -0.4283   18.4026 H   0  0  0  0  0  0  0  0  0  0  0  0
    6.6267    0.0715   19.9808 C   0  0  0  0  0  0  0  0  0  0  0  0
    7.3902   -0.6320   21.1467 C   0  0  0  0  0  0  0  0  0  0  0  0
    8.4165    0.2965   21.8811 C   0  0  1  0  0  0  0  0  0  0  0  0
    8.8950   -0.2979   22.6763 H   0  0  0  0  0  0  0  0  0  0  0  0
    9.5276    0.8619   20.9931 C   0  0  0  0  0  0  0  0  0  0  0  0
   10.3252    0.1350   20.8008 H   0  0  0  0  0  0  0  0  0  0  0  0
    9.0932    1.1392   20.0280 H   0  0  0  0  0  0  0  0  0  0  0  0
   10.0474    2.0564   21.6501 N   0  0  0  0  0  0  0  0  0  0  0  0
   10.8962    1.8421   22.1598 H   0  0  0  0  0  0  0  0  0  0  0  0
    9.0301    2.5614   22.5868 C   0  0  0  0  0  0  0  0  0  0  0  0
    8.7079    3.5727   22.3055 H   0  0  0  0  0  0  0  0  0  0  0  0
    9.4504    2.6327   23.6014 H   0  0  0  0  0  0  0  0  0  0  0  0
    7.8435    1.5787   22.5155 C   0  0  0  0  0  0  0  0  0  0  0  0
    7.3785    1.4120   23.4942 H   0  0  0  0  0  0  0  0  0  0  0  0
    7.0757    1.9980   21.8517 H   0  0  0  0  0  0  0  0  0  0  0  0
    6.3940   -1.2014   22.1995 C   0  0  0  0  0  0  0  0  0  0  0  0
    5.5718   -1.6850   21.6547 H   0  0  0  0  0  0  0  0  0  0  0  0
    5.9701   -0.3629   22.7583 H   0  0  0  0  0  0  0  0  0  0  0  0
    6.9646   -2.2333   23.1945 C   0  0  0  0  0  0  0  0  0  0  0  0
    7.6563   -1.7450   23.8937 H   0  0  0  0  0  0  0  0  0  0  0  0
    6.1387   -2.6231   23.8029 H   0  0  0  0  0  0  0  0  0  0  0  0
    7.6759   -3.3906   22.4862 C   0  0  0  0  0  0  0  0  0  0  0  0
    8.1383   -4.0722   23.2104 H   0  0  0  0  0  0  0  0  0  0  0  0
    6.9228   -3.9763   21.9366 H   0  0  0  0  0  0  0  0  0  0  0  0
    8.7125   -2.8714   21.4890 C   0  0  0  0  0  0  0  0  0  0  0  0
    9.0708   -3.6958   20.8731 H   0  0  0  0  0  0  0  0  0  0  0  0
    9.5931   -2.4437   21.9910 H   0  0  0  0  0  0  0  0  0  0  0  0
    8.0822   -1.8652   20.5346 C   0  0  0  0  0  0  0  0  0  0  0  0
    7.2554   -2.3764   20.0250 H   0  0  0  0  0  0  0  0  0  0  0  0
    8.8103   -1.5711   19.7763 H   0  0  0  0  0  0  0  0  0  0  0  0
    5.3898    0.7150   20.1444 C   0  0  0  0  0  0  0  0  0  0  0  0
    4.8988    0.7312   21.1198 H   0  0  0  0  0  0  0  0  0  0  0  0
    4.7736    1.3398   19.0530 C   0  0  0  0  0  0  0  0  0  0  0  0
    3.8321    1.8591   19.1649 H   0  0  0  0  0  0  0  0  0  0  0  0
  1  2  1  0
  2  3  2  0
  3  4  1  0
  4  5  1  0
  4  6  2  0
  6  7  1  0
  7  8  1  0
  8  9  1  1
  8 10  1  0
 10 11  1  0
 10 12  1  0
 10 13  1  0
 13 14  1  0
 13 15  1  0
 15 16  1  0
 15 17  1  0
 15 18  1  0
 18 19  1  0
 18 20  1  0
  7 21  1  0
 21 22  1  0
 21 23  1  0
 21 24  1  0
 24 25  1  0
 24 26  1  0
 24 27  1  0
 27 28  1  0
 27 29  1  0
 27 30  1  0
 30 31  1  0
 30 32  1  0
 30 33  1  0
 33 34  1  0
 33 35  1  0
  6 36  1  0
 36 37  1  0
 36 38  2  0
 38 39  1  0
 38  2  1  0
 33  7  1  0
 18  8  1  0
M  END
>  <cnnaffinity>  (1) 
-4.19328

>  <filename>  (1) 
c1cncc(C2([C@@H]3CCNC3)CCCCC2)c1

$$$$
