
     RDKit          3D

 36 39  0  0  0  0  0  0  0  0999 V2000
    4.9441    1.8019   16.9967 H   0  0  0  0  0  0  0  0  0  0  0  0
    5.4043    1.2949   17.8405 C   0  0  0  0  0  0  0  0  0  0  0  0
    6.5587    0.6570   17.5891 N   0  0  0  0  0  0  0  0  0  0  0  0
    7.1496    0.0349   18.6113 C   0  0  0  0  0  0  0  0  0  0  0  0
    8.0807   -0.4840   18.3851 H   0  0  0  0  0  0  0  0  0  0  0  0
    6.6466    0.0428   19.9214 C   0  0  0  0  0  0  0  0  0  0  0  0
    7.4161   -0.6803   20.9375 C   0  0  0  0  0  0  0  0  0  0  0  0
    7.9478   -1.8653   20.7404 N   0  0  0  0  0  0  0  0  0  0  0  0
    8.5400   -2.2111   21.9247 C   0  0  0  0  0  0  0  0  0  0  0  0
    9.0241   -3.1707   22.0532 H   0  0  0  0  0  0  0  0  0  0  0  0
    8.4032   -1.2033   22.8372 C   0  0  0  0  0  0  0  0  0  0  0  0
    8.7304   -1.1017   23.8632 H   0  0  0  0  0  0  0  0  0  0  0  0
    7.6837   -0.2117   22.2015 N   0  0  0  0  0  0  0  0  0  0  0  0
    7.4068    1.0967   22.7941 C   0  0  0  0  0  0  0  0  0  0  0  0
    7.2010    1.7993   21.9773 H   0  0  0  0  0  0  0  0  0  0  0  0
    8.3390    1.4473   23.2577 H   0  0  0  0  0  0  0  0  0  0  0  0
    6.2945    1.1187   23.8335 C   0  0  0  0  0  0  0  0  0  0  0  0
    5.7521   -0.0354   24.3610 C   0  0  0  0  0  0  0  0  0  0  0  0
    6.1845   -1.0116   24.1511 H   0  0  0  0  0  0  0  0  0  0  0  0
    4.6332   -0.0879   25.1409 N   0  0  0  0  0  0  0  0  0  0  0  0
    4.0636    1.0454   25.4703 C   0  0  0  0  0  0  0  0  0  0  0  0
    3.1352    0.9676   26.0294 H   0  0  0  0  0  0  0  0  0  0  0  0
    4.6264    2.3277   25.1881 C   0  0  0  0  0  0  0  0  0  0  0  0
    4.1329    3.5209   25.8016 C   0  0  0  0  0  0  0  0  0  0  0  0
    3.2464    3.4847   26.4299 H   0  0  0  0  0  0  0  0  0  0  0  0
    4.7947    4.7114   25.6357 C   0  0  0  0  0  0  0  0  0  0  0  0
    4.4672    5.6045   26.1649 H   0  0  0  0  0  0  0  0  0  0  0  0
    5.9446    4.7694   24.8071 C   0  0  0  0  0  0  0  0  0  0  0  0
    6.4769    5.7102   24.7201 H   0  0  0  0  0  0  0  0  0  0  0  0
    6.4112    3.6400   24.1603 C   0  0  0  0  0  0  0  0  0  0  0  0
    7.2937    3.7258   23.5308 H   0  0  0  0  0  0  0  0  0  0  0  0
    5.7942    2.3698   24.3582 C   0  0  0  0  0  0  0  0  0  0  0  0
    5.4288    0.6948   20.1681 C   0  0  0  0  0  0  0  0  0  0  0  0
    4.9955    0.6921   21.1735 H   0  0  0  0  0  0  0  0  0  0  0  0
    4.7932    1.3258   19.0994 C   0  0  0  0  0  0  0  0  0  0  0  0
    3.8558    1.8527   19.2332 H   0  0  0  0  0  0  0  0  0  0  0  0
  1  2  1  0
  2  3  2  0
  3  4  1  0
  4  5  1  0
  4  6  2  0
  6  7  1  0
  7  8  2  0
  8  9  1  0
  9 10  1  0
  9 11  2  0
 11 12  1  0
 11 13  1  0
 13 14  1  0
 14 15  1  0
 14 16  1  0
 14 17  1  0
 17 18  2  0
 18 19  1  0
 18 20  1  0
 20 21  2  0
 21 22  1  0
 21 23  1  0
 23 24  2  0
 24 25  1  0
 24 26  1  0
 26 27  1  0
 26 28  2  0
 28 29  1  0
 28 30  1  0
 30 31  1  0
 30 32  2  0
  6 33  1  0
 33 34  1  0
 33 35  2  0
 35 36  1  0
 35  2  1  0
 13  7  1  0
 32 17  1  0
 32 23  1  0
M  END
>  <cnnaffinity>  (1) 
-5.58536

>  <filename>  (1) 
c1cncc(-c2nccn2Cc2cncc3ccccc23)c1

$$$$
