
     RDKit          3D

 35 38  0  0  0  0  0  0  0  0999 V2000
    4.9176    1.7841   16.9890 H   0  0  0  0  0  0  0  0  0  0  0  0
    5.3999    1.2962   17.8304 C   0  0  0  0  0  0  0  0  0  0  0  0
    6.5620    0.6768   17.5674 N   0  0  0  0  0  0  0  0  0  0  0  0
    7.1697    0.0735   18.5953 C   0  0  0  0  0  0  0  0  0  0  0  0
    8.1117   -0.4275   18.3763 H   0  0  0  0  0  0  0  0  0  0  0  0
    6.6525    0.0193   19.8978 C   0  0  0  0  0  0  0  0  0  0  0  0
    7.3746   -0.7008   20.9603 C   0  0  0  0  0  0  0  0  0  0  0  0
    6.6966   -1.5283   21.8525 C   0  0  0  0  0  0  0  0  0  0  0  0
    5.6297   -1.6834   21.7482 H   0  0  0  0  0  0  0  0  0  0  0  0
    7.4284   -2.1842   22.8385 C   0  0  0  0  0  0  0  0  0  0  0  0
    6.9120   -2.8379   23.5337 H   0  0  0  0  0  0  0  0  0  0  0  0
    8.7594   -2.0943   22.9815 N   0  0  0  0  0  0  0  0  0  0  0  0
    9.4062   -1.2500   22.1612 C   0  0  0  0  0  0  0  0  0  0  0  0
   10.8645   -1.0997   22.3516 C   0  0  0  0  0  0  0  0  0  0  0  0
   11.6402   -2.2209   22.2431 C   0  0  0  0  0  0  0  0  0  0  0  0
   11.1880   -3.2034   22.1887 H   0  0  0  0  0  0  0  0  0  0  0  0
   12.9936   -2.2114   22.2070 N   0  0  0  0  0  0  0  0  0  0  0  0
   13.6105   -1.0753   22.4381 C   0  0  0  0  0  0  0  0  0  0  0  0
   14.6918   -1.1148   22.5706 H   0  0  0  0  0  0  0  0  0  0  0  0
   12.9429    0.1673   22.6097 C   0  0  0  0  0  0  0  0  0  0  0  0
   13.6488    1.3939   22.8113 C   0  0  0  0  0  0  0  0  0  0  0  0
   14.7390    1.3883   22.8552 H   0  0  0  0  0  0  0  0  0  0  0  0
   12.9512    2.5726   22.9166 C   0  0  0  0  0  0  0  0  0  0  0  0
   13.4788    3.5147   23.0511 H   0  0  0  0  0  0  0  0  0  0  0  0
   11.5279    2.5728   22.8480 C   0  0  0  0  0  0  0  0  0  0  0  0
   10.9819    3.5070   22.9427 H   0  0  0  0  0  0  0  0  0  0  0  0
   10.8287    1.4021   22.6704 C   0  0  0  0  0  0  0  0  0  0  0  0
    9.7438    1.3893   22.6418 H   0  0  0  0  0  0  0  0  0  0  0  0
   11.5175    0.1620   22.5338 C   0  0  0  0  0  0  0  0  0  0  0  0
    8.7532   -0.5762   21.1198 C   0  0  0  0  0  0  0  0  0  0  0  0
    9.3208    0.0817   20.4768 H   0  0  0  0  0  0  0  0  0  0  0  0
    5.4275    0.6558   20.1477 C   0  0  0  0  0  0  0  0  0  0  0  0
    5.0077    0.6395   21.1584 H   0  0  0  0  0  0  0  0  0  0  0  0
    4.8009    1.3192   19.0967 C   0  0  0  0  0  0  0  0  0  0  0  0
    3.8686    1.8480   19.2526 H   0  0  0  0  0  0  0  0  0  0  0  0
  1  2  1  0
  2  3  2  0
  3  4  1  0
  4  5  1  0
  4  6  2  0
  6  7  1  0
  7  8  2  0
  8  9  1  0
  8 10  1  0
 10 11  1  0
 10 12  2  0
 12 13  1  0
 13 14  1  0
 14 15  2  0
 15 16  1  0
 15 17  1  0
 17 18  2  0
 18 19  1  0
 18 20  1  0
 20 21  2  0
 21 22  1  0
 21 23  1  0
 23 24  1  0
 23 25  2  0
 25 26  1  0
 25 27  1  0
 27 28  1  0
 27 29  2  0
 13 30  2  0
 30 31  1  0
  6 32  1  0
 32 33  1  0
 32 34  2  0
 34 35  1  0
 34  2  1  0
 30  7  1  0
 29 14  1  0
 29 20  1  0
M  END
>  <cnnaffinity>  (1) 
-6.23986

>  <filename>  (1) 
c1cncc(-c2ccnc(-c3cncc4ccccc34)c2)c1

$$$$
