
     RDKit          3D

 31 34  0  0  0  0  0  0  0  0999 V2000
    4.9528    1.8121   16.9831 H   0  0  0  0  0  0  0  0  0  0  0  0
    5.4047    1.2947   17.8227 C   0  0  0  0  0  0  0  0  0  0  0  0
    6.5701    0.6788   17.5688 N   0  0  0  0  0  0  0  0  0  0  0  0
    7.1851    0.0813   18.5964 C   0  0  0  0  0  0  0  0  0  0  0  0
    8.1404   -0.3978   18.3792 H   0  0  0  0  0  0  0  0  0  0  0  0
    6.6665    0.0542   19.9158 C   0  0  0  0  0  0  0  0  0  0  0  0
    7.3533   -0.6225   20.9895 N   0  0  0  0  0  0  0  0  0  0  0  0
    7.7195   -1.9467   20.9999 C   0  0  0  0  0  0  0  0  0  0  0  0
    7.4623   -2.6049   20.1937 H   0  0  0  0  0  0  0  0  0  0  0  0
    8.2435   -2.3040   22.1325 N   0  0  0  0  0  0  0  0  0  0  0  0
    8.1850   -1.2162   22.9590 N   0  0  0  0  0  0  0  0  0  0  0  0
    7.6319   -0.2335   22.2923 C   0  0  0  0  0  0  0  0  0  0  0  0
    7.2990    1.0625   22.8717 C   0  0  0  0  0  0  0  0  0  0  0  0
    7.5253    2.2494   22.1701 C   0  0  0  0  0  0  0  0  0  0  0  0
    7.9126    2.2049   21.1550 H   0  0  0  0  0  0  0  0  0  0  0  0
    7.2216    3.4908   22.7540 C   0  0  0  0  0  0  0  0  0  0  0  0
    7.4149    4.3945   22.1836 H   0  0  0  0  0  0  0  0  0  0  0  0
    6.6695    3.5835   24.0324 C   0  0  0  0  0  0  0  0  0  0  0  0
    6.4409    4.5540   24.4676 H   0  0  0  0  0  0  0  0  0  0  0  0
    6.4184    2.3810   24.7232 C   0  0  0  0  0  0  0  0  0  0  0  0
    6.7281    1.1151   24.1678 C   0  0  0  0  0  0  0  0  0  0  0  0
    6.3138    0.1234   25.1291 C   0  0  0  0  0  0  0  0  0  0  0  0
    6.4221   -0.9436   24.9893 H   0  0  0  0  0  0  0  0  0  0  0  0
    5.8050    0.7846   26.2028 C   0  0  0  0  0  0  0  0  0  0  0  0
    5.4146    0.3940   27.1388 H   0  0  0  0  0  0  0  0  0  0  0  0
    5.8595    2.1424   25.9610 N   0  0  0  0  0  0  0  0  0  0  0  0
    5.5940    2.8490   26.6229 H   0  0  0  0  0  0  0  0  0  0  0  0
    5.4257    0.6672   20.1496 C   0  0  0  0  0  0  0  0  0  0  0  0
    4.9966    0.6600   21.1540 H   0  0  0  0  0  0  0  0  0  0  0  0
    4.7899    1.3047   19.0802 C   0  0  0  0  0  0  0  0  0  0  0  0
    3.8468    1.8237   19.2178 H   0  0  0  0  0  0  0  0  0  0  0  0
  1  2  1  0
  2  3  2  0
  3  4  1  0
  4  5  1  0
  4  6  2  0
  6  7  1  0
  7  8  1  0
  8  9  1  0
  8 10  2  0
 10 11  1  0
 11 12  2  0
 12 13  1  0
 13 14  2  0
 14 15  1  0
 14 16  1  0
 16 17  1  0
 16 18  2  0
 18 19  1  0
 18 20  1  0
 20 21  2  0
 21 22  1  0
 22 23  1  0
 22 24  2  0
 24 25  1  0
 24 26  1  0
 26 27  1  0
  6 28  1  0
 28 29  1  0
 28 30  2  0
 30 31  1  0
 30  2  1  0
 12  7  1  0
 21 13  1  0
 26 20  1  0
M  END
>  <cnnaffinity>  (1) 
-5.02493

>  <filename>  (1) 
c1cncc(-n2cnnc2-c2cccc3[nH]ccc23)c1

$$$$
