
     RDKit          3D

 34 37  0  0  0  0  0  0  0  0999 V2000
    5.0174    1.8033   16.6779 H   0  0  0  0  0  0  0  0  0  0  0  0
    5.4475    1.3065   17.5451 C   0  0  0  0  0  0  0  0  0  0  0  0
    6.6114    0.6744   17.3393 N   0  0  0  0  0  0  0  0  0  0  0  0
    7.1797    0.0685   18.3878 C   0  0  0  0  0  0  0  0  0  0  0  0
    8.1226   -0.4376   18.1920 H   0  0  0  0  0  0  0  0  0  0  0  0
    6.6284    0.0652   19.6846 C   0  0  0  0  0  0  0  0  0  0  0  0
    7.3625   -0.5712   20.7950 C   0  0  0  0  0  0  0  0  0  0  0  0
    8.5714   -1.1131   20.5785 N   0  0  0  0  0  0  0  0  0  0  0  0
    8.9006   -1.6092   21.7893 N   0  0  0  0  0  0  0  0  0  0  0  0
    9.9208   -2.4317   22.2402 C   0  0  0  0  0  0  0  0  0  0  0  0
   10.7810   -2.5908   21.6131 H   0  0  0  0  0  0  0  0  0  0  0  0
    9.5940   -2.7491   23.5168 C   0  0  0  0  0  0  0  0  0  0  0  0
   10.0409   -3.4007   24.2482 H   0  0  0  0  0  0  0  0  0  0  0  0
    8.4219   -2.1050   23.8558 N   0  0  0  0  0  0  0  0  0  0  0  0
    8.0043   -1.9638   25.1842 N   0  0  0  0  0  0  0  0  0  0  0  0
    7.1018   -1.5023   25.1272 H   0  0  0  0  0  0  0  0  0  0  0  0
    8.9283   -1.1355   25.9993 C   0  0  0  0  0  0  0  0  0  0  0  0
    8.3750   -0.8432   26.8965 H   0  0  0  0  0  0  0  0  0  0  0  0
    9.7305   -1.7996   26.3395 H   0  0  0  0  0  0  0  0  0  0  0  0
    9.4930    0.0644   25.2537 C   0  0  0  0  0  0  0  0  0  0  0  0
    8.7578    0.5380   24.6007 H   0  0  0  0  0  0  0  0  0  0  0  0
   10.5482    0.9757   25.8076 C   0  0  0  0  0  0  0  0  0  0  0  0
   10.9355    0.8087   26.8063 H   0  0  0  0  0  0  0  0  0  0  0  0
   10.4959    2.0166   25.5009 H   0  0  0  0  0  0  0  0  0  0  0  0
   10.9169   -0.0162   24.7481 C   0  0  0  0  0  0  0  0  0  0  0  0
   11.1926    0.3322   23.7563 H   0  0  0  0  0  0  0  0  0  0  0  0
   11.4797   -0.8730   25.1087 H   0  0  0  0  0  0  0  0  0  0  0  0
    7.9776   -1.4005   22.7487 C   0  0  0  0  0  0  0  0  0  0  0  0
    6.9363   -0.7049   22.1393 C   0  0  0  0  0  0  0  0  0  0  0  0
    6.0160   -0.3554   22.5688 H   0  0  0  0  0  0  0  0  0  0  0  0
    5.3971    0.7147   19.8737 C   0  0  0  0  0  0  0  0  0  0  0  0
    4.9258    0.7570   20.8564 H   0  0  0  0  0  0  0  0  0  0  0  0
    4.7988    1.3432   18.7830 C   0  0  0  0  0  0  0  0  0  0  0  0
    3.8629    1.8791   18.8851 H   0  0  0  0  0  0  0  0  0  0  0  0
  1  2  1  0
  2  3  2  0
  3  4  1  0
  4  5  1  0
  4  6  2  0
  6  7  1  0
  7  8  2  0
  8  9  1  0
  9 10  1  0
 10 11  1  0
 10 12  2  0
 12 13  1  0
 12 14  1  0
 14 15  1  0
 15 16  1  0
 15 17  1  0
 17 18  1  0
 17 19  1  0
 17 20  1  0
 20 21  1  0
 20 22  1  0
 22 23  1  0
 22 24  1  0
 22 25  1  0
 25 26  1  0
 25 27  1  0
 14 28  1  0
 28 29  2  0
 29 30  1  0
  6 31  1  0
 31 32  1  0
 31 33  2  0
 33 34  1  0
 33  2  1  0
 29  7  1  0
 28  9  1  0
 25 20  1  0
M  END
>  <cnnaffinity>  (1) 
-5.24678

>  <filename>  (1) 
c1cncc(-c2cc3n(NCC4CC4)ccn3n2)c1

$$$$
