
     RDKit          3D

 31 33  0  0  0  0  0  0  0  0999 V2000
    4.9747    1.7924   16.9914 H   0  0  0  0  0  0  0  0  0  0  0  0
    5.4305    1.2890   17.8379 C   0  0  0  0  0  0  0  0  0  0  0  0
    6.5926    0.6632   17.5942 N   0  0  0  0  0  0  0  0  0  0  0  0
    7.1709    0.0037   18.6091 C   0  0  0  0  0  0  0  0  0  0  0  0
    8.1352   -0.4590   18.3890 H   0  0  0  0  0  0  0  0  0  0  0  0
    6.6143   -0.0759   19.9087 C   0  0  0  0  0  0  0  0  0  0  0  0
    7.1019   -0.8452   20.9819 N   0  0  0  0  0  0  0  0  0  0  0  0
    7.1845   -0.2687   21.8156 H   0  0  0  0  0  0  0  0  0  0  0  0
    8.2815   -1.5835   20.7637 N   0  0  0  0  0  0  0  0  0  0  0  0
    8.2022   -2.1558   19.9305 H   0  0  0  0  0  0  0  0  0  0  0  0
    8.8458   -2.3066   21.8523 C   0  0  0  0  0  0  0  0  0  0  0  0
   10.2196   -2.4240   21.8001 C   0  0  0  0  0  0  0  0  0  0  0  0
   10.7326   -2.0200   20.9299 H   0  0  0  0  0  0  0  0  0  0  0  0
   10.9470   -2.9921   22.8716 C   0  0  0  0  0  0  0  0  0  0  0  0
   12.0277   -3.0345   22.7963 H   0  0  0  0  0  0  0  0  0  0  0  0
   10.2960   -3.4855   23.9758 C   0  0  0  0  0  0  0  0  0  0  0  0
   10.8523   -3.9252   24.7993 H   0  0  0  0  0  0  0  0  0  0  0  0
    8.8729   -3.4259   24.0605 C   0  0  0  0  0  0  0  0  0  0  0  0
    8.1864   -3.9051   25.2202 C   0  0  0  0  0  0  0  0  0  0  0  0
    8.7732   -4.3153   26.0392 H   0  0  0  0  0  0  0  0  0  0  0  0
    6.8167   -3.8556   25.3016 C   0  0  0  0  0  0  0  0  0  0  0  0
    6.3037   -4.2146   26.1911 H   0  0  0  0  0  0  0  0  0  0  0  0
    6.0582   -3.3401   24.2189 C   0  0  0  0  0  0  0  0  0  0  0  0
    4.9762   -3.3015   24.2970 H   0  0  0  0  0  0  0  0  0  0  0  0
    6.6729   -2.8704   23.0780 C   0  0  0  0  0  0  0  0  0  0  0  0
    6.0835   -2.4971   22.2447 H   0  0  0  0  0  0  0  0  0  0  0  0
    8.1112   -2.8618   22.9741 C   0  0  0  0  0  0  0  0  0  0  0  0
    5.4357    0.6455   20.1586 C   0  0  0  0  0  0  0  0  0  0  0  0
    5.0196    0.6482   21.1669 H   0  0  0  0  0  0  0  0  0  0  0  0
    4.8256    1.3127   19.0992 C   0  0  0  0  0  0  0  0  0  0  0  0
    3.9005    1.8560   19.2445 H   0  0  0  0  0  0  0  0  0  0  0  0
  1  2  1  0
  2  3  2  0
  3  4  1  0
  4  5  1  0
  4  6  2  0
  6  7  1  0
  7  8  1  0
  7  9  1  0
  9 10  1  0
  9 11  1  0
 11 12  2  0
 12 13  1  0
 12 14  1  0
 14 15  1  0
 14 16  2  0
 16 17  1  0
 16 18  1  0
 18 19  2  0
 19 20  1  0
 19 21  1  0
 21 22  1  0
 21 23  2  0
 23 24  1  0
 23 25  1  0
 25 26  1  0
 25 27  2  0
  6 28  1  0
 28 29  1  0
 28 30  2  0
 30 31  1  0
 30  2  1  0
 27 11  1  0
 27 18  1  0
M  END
>  <cnnaffinity>  (1) 
-4.97642

>  <filename>  (1) 
c1cncc(NNc2cccc3ccccc23)c1

$$$$
