
     RDKit          3D

 38 41  0  0  0  0  0  0  0  0999 V2000
    4.9150    1.7830   16.9933 H   0  0  0  0  0  0  0  0  0  0  0  0
    5.3989    1.2943   17.8338 C   0  0  0  0  0  0  0  0  0  0  0  0
    6.5561    0.6726   17.5710 N   0  0  0  0  0  0  0  0  0  0  0  0
    7.1612    0.0601   18.5980 C   0  0  0  0  0  0  0  0  0  0  0  0
    8.1089   -0.4155   18.3510 H   0  0  0  0  0  0  0  0  0  0  0  0
    6.6666    0.0101   19.9149 C   0  0  0  0  0  0  0  0  0  0  0  0
    7.3482   -0.8604   20.9780 C   0  0  2  0  0  0  0  0  0  0  0  0
    6.6877   -2.2638   20.7887 C   0  0  0  0  0  0  0  0  0  0  0  0
    6.7553   -2.5399   19.7350 H   0  0  0  0  0  0  0  0  0  0  0  0
    5.6141   -2.1372   20.9651 H   0  0  0  0  0  0  0  0  0  0  0  0
    7.1705   -3.3947   21.6320 C   0  0  0  0  0  0  0  0  0  0  0  0
    8.1895   -4.2401   21.2612 N   0  0  0  0  0  0  0  0  0  0  0  0
    8.3110   -5.1029   22.2348 C   0  0  0  0  0  0  0  0  0  0  0  0
    9.0289   -5.9163   22.2657 H   0  0  0  0  0  0  0  0  0  0  0  0
    7.4141   -4.8670   23.2296 N   0  0  0  0  0  0  0  0  0  0  0  0
    7.3316   -5.4009   24.0729 H   0  0  0  0  0  0  0  0  0  0  0  0
    6.6746   -3.7699   22.8491 C   0  0  0  0  0  0  0  0  0  0  0  0
    5.8622   -3.3479   23.4303 H   0  0  0  0  0  0  0  0  0  0  0  0
    7.1974   -0.2962   22.4384 C   0  0  0  0  0  0  0  0  0  0  0  0
    6.6330    0.6416   22.4772 H   0  0  0  0  0  0  0  0  0  0  0  0
    6.6782   -1.0129   23.0818 H   0  0  0  0  0  0  0  0  0  0  0  0
    8.6372   -0.0584   22.9344 C   0  0  2  0  0  0  0  0  0  0  0  0
    8.7236    0.0184   24.0202 H   0  0  0  0  0  0  0  0  0  0  0  0
    9.2187    1.1450   22.1731 C   0  0  0  0  0  0  0  0  0  0  0  0
    8.5508    2.0111   22.1429 H   0  0  0  0  0  0  0  0  0  0  0  0
   10.1652    1.4745   22.6172 H   0  0  0  0  0  0  0  0  0  0  0  0
    9.4686    0.5427   20.7688 C   0  0  0  0  0  0  0  0  0  0  0  0
    9.0140    1.1261   19.9668 H   0  0  0  0  0  0  0  0  0  0  0  0
   10.5457    0.4988   20.6535 H   0  0  0  0  0  0  0  0  0  0  0  0
    8.9093   -0.9013   20.8679 C   0  0  1  0  0  0  0  0  0  0  0  0
    9.2804   -1.5824   20.0906 H   0  0  0  0  0  0  0  0  0  0  0  0
    9.3776   -1.2334   22.2925 C   0  0  0  0  0  0  0  0  0  0  0  0
    9.0557   -2.2018   22.6701 H   0  0  0  0  0  0  0  0  0  0  0  0
   10.4685   -1.1704   22.3972 H   0  0  0  0  0  0  0  0  0  0  0  0
    5.4424    0.6544   20.1547 C   0  0  0  0  0  0  0  0  0  0  0  0
    4.9927    0.6331   21.1529 H   0  0  0  0  0  0  0  0  0  0  0  0
    4.8069    1.3133   19.1021 C   0  0  0  0  0  0  0  0  0  0  0  0
    3.8752    1.8440   19.2587 H   0  0  0  0  0  0  0  0  0  0  0  0
  1  2  1  0
  2  3  2  0
  3  4  1  0
  4  5  1  0
  4  6  2  0
  6  7  1  0
  7  8  1  1
  8  9  1  0
  8 10  1  0
  8 11  1  0
 11 12  1  0
 12 13  2  0
 13 14  1  0
 13 15  1  0
 15 16  1  0
 15 17  1  0
 17 18  1  0
  7 19  1  0
 19 20  1  0
 19 21  1  0
 19 22  1  0
 22 23  1  1
 22 24  1  0
 24 25  1  0
 24 26  1  0
 24 27  1  0
 27 28  1  0
 27 29  1  0
 27 30  1  0
 30 31  1  6
 30 32  1  0
 32 33  1  0
 32 34  1  0
  6 35  1  0
 35 36  1  0
 35 37  2  0
 37 38  1  0
 37  2  1  0
 30  7  1  0
 17 11  2  0
 32 22  1  0
M  END
>  <cnnaffinity>  (1) 
-5.58706

>  <filename>  (1) 
c1cncc([C@]2(Cc3c[nH]cn3)C[C@@H]3CC[C@H]2C3)c1

$$$$
