
     RDKit          3D

 32 34  0  0  0  0  0  0  0  0999 V2000
    4.9457    1.7971   16.9827 H   0  0  0  0  0  0  0  0  0  0  0  0
    5.3996    1.2964   17.8375 C   0  0  0  0  0  0  0  0  0  0  0  0
    6.5591    0.6628   17.5996 N   0  0  0  0  0  0  0  0  0  0  0  0
    7.1531    0.0453   18.6247 C   0  0  0  0  0  0  0  0  0  0  0  0
    8.0903   -0.4549   18.3866 H   0  0  0  0  0  0  0  0  0  0  0  0
    6.6396    0.0379   19.9307 C   0  0  0  0  0  0  0  0  0  0  0  0
    7.3672   -0.7037   20.9667 C   0  0  0  0  0  0  0  0  0  0  0  0
    7.9173   -1.8769   20.7651 N   0  0  0  0  0  0  0  0  0  0  0  0
    8.4858   -2.2377   21.9586 C   0  0  0  0  0  0  0  0  0  0  0  0
    8.9585   -3.2079   22.0614 H   0  0  0  0  0  0  0  0  0  0  0  0
    8.3175   -1.2488   22.8839 C   0  0  0  0  0  0  0  0  0  0  0  0
    8.6685   -1.1433   23.9026 H   0  0  0  0  0  0  0  0  0  0  0  0
    7.5773   -0.2605   22.2446 N   0  0  0  0  0  0  0  0  0  0  0  0
    7.2860    1.0615   22.7554 C   0  0  0  0  0  0  0  0  0  0  0  0
    7.2206    1.7842   21.9280 H   0  0  0  0  0  0  0  0  0  0  0  0
    8.1337    1.3806   23.3884 H   0  0  0  0  0  0  0  0  0  0  0  0
    6.0459    1.0414   23.4768 N   0  0  0  0  0  0  0  0  0  0  0  0
    5.6277    0.1446   23.6762 H   0  0  0  0  0  0  0  0  0  0  0  0
    5.5179    2.0990   24.1468 C   0  0  0  0  0  0  0  0  0  0  0  0
    4.3236    1.9201   24.8595 C   0  0  0  0  0  0  0  0  0  0  0  0
    3.8534    0.9467   24.9234 H   0  0  0  0  0  0  0  0  0  0  0  0
    3.7649    3.0288   25.4768 C   0  0  0  0  0  0  0  0  0  0  0  0
    2.8277    2.9475   26.0302 H   0  0  0  0  0  0  0  0  0  0  0  0
    4.2980    4.2581   25.4475 N   0  0  0  0  0  0  0  0  0  0  0  0
    5.4490    4.4055   24.7779 C   0  0  0  0  0  0  0  0  0  0  0  0
    5.8610    5.4179   24.7681 H   0  0  0  0  0  0  0  0  0  0  0  0
    6.1040    3.3738   24.1234 C   0  0  0  0  0  0  0  0  0  0  0  0
    7.0344    3.5466   23.5989 H   0  0  0  0  0  0  0  0  0  0  0  0
    5.4219    0.6898   20.1627 C   0  0  0  0  0  0  0  0  0  0  0  0
    4.9842    0.6878   21.1599 H   0  0  0  0  0  0  0  0  0  0  0  0
    4.7897    1.3262   19.0954 C   0  0  0  0  0  0  0  0  0  0  0  0
    3.8532    1.8545   19.2261 H   0  0  0  0  0  0  0  0  0  0  0  0
  1  2  1  0
  2  3  2  0
  3  4  1  0
  4  5  1  0
  4  6  2  0
  6  7  1  0
  7  8  2  0
  8  9  1  0
  9 10  1  0
  9 11  2  0
 11 12  1  0
 11 13  1  0
 13 14  1  0
 14 15  1  0
 14 16  1  0
 14 17  1  0
 17 18  1  0
 17 19  1  0
 19 20  2  0
 20 21  1  0
 20 22  1  0
 22 23  1  0
 22 24  2  0
 24 25  1  0
 25 26  1  0
 25 27  2  0
 27 28  1  0
  6 29  1  0
 29 30  1  0
 29 31  2  0
 31 32  1  0
 31  2  1  0
 13  7  1  0
 27 19  1  0
M  END
>  <cnnaffinity>  (1) 
-4.95305

>  <filename>  (1) 
c1cncc(-c2nccn2CNc2ccncc2)c1

$$$$
