
     RDKit          3D

 45 48  0  0  0  0  0  0  0  0999 V2000
    4.9786    1.8088   16.9466 H   0  0  0  0  0  0  0  0  0  0  0  0
    5.4284    1.3363   17.8153 C   0  0  0  0  0  0  0  0  0  0  0  0
    6.5793    0.6924   17.5898 N   0  0  0  0  0  0  0  0  0  0  0  0
    7.1602    0.1088   18.6433 C   0  0  0  0  0  0  0  0  0  0  0  0
    8.0875   -0.4091   18.4134 H   0  0  0  0  0  0  0  0  0  0  0  0
    6.6645    0.1289   19.9624 C   0  0  0  0  0  0  0  0  0  0  0  0
    7.5094   -0.4515   21.1180 C   0  0  2  0  0  0  0  0  0  0  0  0
    8.2915    0.7826   21.6973 C   0  0  0  0  0  0  0  0  0  0  0  0
    8.7882    1.2546   20.8333 H   0  0  0  0  0  0  0  0  0  0  0  0
    7.5660    1.5395   22.0435 H   0  0  0  0  0  0  0  0  0  0  0  0
    9.2852    0.4691   22.7217 N   0  0  0  0  0  0  0  0  0  0  0  0
    8.9896    0.9662   24.0690 C   0  0  0  0  0  0  0  0  0  0  0  0
    7.9873    0.6226   24.3623 H   0  0  0  0  0  0  0  0  0  0  0  0
    8.9736    2.0730   24.0926 H   0  0  0  0  0  0  0  0  0  0  0  0
    9.9988    0.4185   25.1048 C   0  0  0  0  0  0  0  0  0  0  0  0
    9.8017    0.8612   26.0843 H   0  0  0  0  0  0  0  0  0  0  0  0
    9.8147   -0.6579   25.1984 H   0  0  0  0  0  0  0  0  0  0  0  0
   11.4292    0.5740   24.7888 N   0  0  0  0  0  0  0  0  0  0  0  0
   11.6983    1.5494   24.8926 H   0  0  0  0  0  0  0  0  0  0  0  0
   11.6539    0.1514   23.3978 C   0  0  0  0  0  0  0  0  0  0  0  0
   12.6871    0.3690   23.1133 H   0  0  0  0  0  0  0  0  0  0  0  0
   11.5417   -0.9365   23.3634 H   0  0  0  0  0  0  0  0  0  0  0  0
   10.6849    0.7492   22.3606 C   0  0  0  0  0  0  0  0  0  0  0  0
   10.8714    1.8357   22.2626 H   0  0  0  0  0  0  0  0  0  0  0  0
   10.9094    0.2935   21.3876 H   0  0  0  0  0  0  0  0  0  0  0  0
    8.5218   -1.5890   20.7127 C   0  0  0  0  0  0  0  0  0  0  0  0
    9.5088   -1.3349   21.1103 H   0  0  0  0  0  0  0  0  0  0  0  0
    8.6444   -1.7008   19.6406 H   0  0  0  0  0  0  0  0  0  0  0  0
    8.0749   -2.8568   21.4695 C   0  0  2  0  0  0  0  0  0  0  0  0
    8.8577   -3.6171   21.5334 H   0  0  0  0  0  0  0  0  0  0  0  0
    6.7113   -3.3948   20.9874 C   0  0  0  0  0  0  0  0  0  0  0  0
    6.4890   -4.3366   21.5077 H   0  0  0  0  0  0  0  0  0  0  0  0
    6.6227   -3.5949   19.9138 H   0  0  0  0  0  0  0  0  0  0  0  0
    5.7422   -2.2730   21.4437 C   0  0  0  0  0  0  0  0  0  0  0  0
    4.9660   -2.6656   22.1058 H   0  0  0  0  0  0  0  0  0  0  0  0
    5.2717   -1.8124   20.5732 H   0  0  0  0  0  0  0  0  0  0  0  0
    6.6677   -1.2558   22.1787 C   0  0  1  0  0  0  0  0  0  0  0  0
    6.1506   -0.6044   22.8923 H   0  0  0  0  0  0  0  0  0  0  0  0
    7.6797   -2.2288   22.8155 C   0  0  0  0  0  0  0  0  0  0  0  0
    8.5075   -1.7404   23.3423 H   0  0  0  0  0  0  0  0  0  0  0  0
    7.2130   -2.9509   23.4997 H   0  0  0  0  0  0  0  0  0  0  0  0
    5.4395    0.7992   20.1644 C   0  0  0  0  0  0  0  0  0  0  0  0
    4.9629    0.8332   21.1512 H   0  0  0  0  0  0  0  0  0  0  0  0
    4.8153    1.4086   19.0699 C   0  0  0  0  0  0  0  0  0  0  0  0
    3.8753    1.9437   19.1678 H   0  0  0  0  0  0  0  0  0  0  0  0
  1  2  1  0
  2  3  2  0
  3  4  1  0
  4  5  1  0
  4  6  2  0
  6  7  1  0
  7  8  1  1
  8  9  1  0
  8 10  1  0
  8 11  1  0
 11 12  1  0
 12 13  1  0
 12 14  1  0
 12 15  1  0
 15 16  1  0
 15 17  1  0
 15 18  1  0
 18 19  1  0
 18 20  1  0
 20 21  1  0
 20 22  1  0
 20 23  1  0
 23 24  1  0
 23 25  1  0
  7 26  1  0
 26 27  1  0
 26 28  1  0
 26 29  1  0
 29 30  1  1
 29 31  1  0
 31 32  1  0
 31 33  1  0
 31 34  1  0
 34 35  1  0
 34 36  1  0
 34 37  1  0
 37 38  1  1
 37 39  1  0
 39 40  1  0
 39 41  1  0
  6 42  1  0
 42 43  1  0
 42 44  2  0
 44 45  1  0
 44  2  1  0
 37  7  1  0
 23 11  1  0
 39 29  1  0
M  END
>  <cnnaffinity>  (1) 
-5.02675

>  <filename>  (1) 
c1cncc([C@]2(CN3CCNCC3)C[C@@H]3CC[C@H]2C3)c1

$$$$
