
     RDKit          3D

 35 38  0  0  0  0  0  0  0  0999 V2000
    4.9216    1.7815   16.9947 H   0  0  0  0  0  0  0  0  0  0  0  0
    5.4031    1.2950   17.8378 C   0  0  0  0  0  0  0  0  0  0  0  0
    6.5665    0.6778   17.5784 N   0  0  0  0  0  0  0  0  0  0  0  0
    7.1666    0.0552   18.5968 C   0  0  0  0  0  0  0  0  0  0  0  0
    8.1138   -0.4312   18.3735 H   0  0  0  0  0  0  0  0  0  0  0  0
    6.6496    0.0238   19.8964 C   0  0  0  0  0  0  0  0  0  0  0  0
    7.3917   -0.7109   20.9265 C   0  0  0  0  0  0  0  0  0  0  0  0
    7.5495   -2.0122   20.9386 N   0  0  0  0  0  0  0  0  0  0  0  0
    8.2559   -2.2849   22.0819 C   0  0  0  0  0  0  0  0  0  0  0  0
    8.5385   -3.2961   22.3438 H   0  0  0  0  0  0  0  0  0  0  0  0
    8.5498   -1.1330   22.7523 C   0  0  0  0  0  0  0  0  0  0  0  0
    9.0945   -0.9454   23.6681 H   0  0  0  0  0  0  0  0  0  0  0  0
    8.0129   -0.1130   21.9917 N   0  0  0  0  0  0  0  0  0  0  0  0
    8.0669    1.3139   22.2946 C   0  0  0  0  0  0  0  0  0  0  0  0
    8.2421    1.8713   21.3723 H   0  0  0  0  0  0  0  0  0  0  0  0
    8.9333    1.4752   22.9420 H   0  0  0  0  0  0  0  0  0  0  0  0
    6.8293    1.8435   22.9938 C   0  0  0  0  0  0  0  0  0  0  0  0
    6.1237    2.9648   22.4620 C   0  0  0  0  0  0  0  0  0  0  0  0
    6.4674    3.4310   21.5350 H   0  0  0  0  0  0  0  0  0  0  0  0
    4.9693    3.4401   23.0687 C   0  0  0  0  0  0  0  0  0  0  0  0
    4.4196    4.2854   22.6631 H   0  0  0  0  0  0  0  0  0  0  0  0
    4.5093    2.8133   24.2447 C   0  0  0  0  0  0  0  0  0  0  0  0
    3.3971    3.0351   25.1250 C   0  0  0  0  0  0  0  0  0  0  0  0
    2.6608    3.8118   24.9934 H   0  0  0  0  0  0  0  0  0  0  0  0
    3.4709    2.1062   26.1245 C   0  0  0  0  0  0  0  0  0  0  0  0
    2.8181    1.9486   26.9793 H   0  0  0  0  0  0  0  0  0  0  0  0
    4.5822    1.3086   25.9098 N   0  0  0  0  0  0  0  0  0  0  0  0
    4.8933    0.5406   26.4777 H   0  0  0  0  0  0  0  0  0  0  0  0
    5.2330    1.7179   24.7737 C   0  0  0  0  0  0  0  0  0  0  0  0
    6.3942    1.2243   24.1648 C   0  0  0  0  0  0  0  0  0  0  0  0
    6.9278    0.3720   24.5885 H   0  0  0  0  0  0  0  0  0  0  0  0
    5.4258    0.6585   20.1528 C   0  0  0  0  0  0  0  0  0  0  0  0
    5.0017    0.6367   21.1634 H   0  0  0  0  0  0  0  0  0  0  0  0
    4.7969    1.3163   19.0996 C   0  0  0  0  0  0  0  0  0  0  0  0
    3.8653    1.8495   19.2528 H   0  0  0  0  0  0  0  0  0  0  0  0
  1  2  1  0
  2  3  2  0
  3  4  1  0
  4  5  1  0
  4  6  2  0
  6  7  1  0
  7  8  2  0
  8  9  1  0
  9 10  1  0
  9 11  2  0
 11 12  1  0
 11 13  1  0
 13 14  1  0
 14 15  1  0
 14 16  1  0
 14 17  1  0
 17 18  2  0
 18 19  1  0
 18 20  1  0
 20 21  1  0
 20 22  2  0
 22 23  1  0
 23 24  1  0
 23 25  2  0
 25 26  1  0
 25 27  1  0
 27 28  1  0
 27 29  1  0
 29 30  2  0
 30 31  1  0
  6 32  1  0
 32 33  1  0
 32 34  2  0
 34 35  1  0
 34  2  1  0
 13  7  1  0
 30 17  1  0
 29 22  1  0
M  END
>  <cnnaffinity>  (1) 
-5.26483

>  <filename>  (1) 
c1cncc(-c2nccn2Cc2ccc3cc[nH]c3c2)c1

$$$$
