
     RDKit          3D

 34 37  0  0  0  0  0  0  0  0999 V2000
    4.9424    1.8109   16.9874 H   0  0  0  0  0  0  0  0  0  0  0  0
    5.4036    1.3000   17.8303 C   0  0  0  0  0  0  0  0  0  0  0  0
    6.5596    0.6631   17.5825 N   0  0  0  0  0  0  0  0  0  0  0  0
    7.1501    0.0354   18.6026 C   0  0  0  0  0  0  0  0  0  0  0  0
    8.0856   -0.4756   18.3728 H   0  0  0  0  0  0  0  0  0  0  0  0
    6.6346    0.0265   19.9111 C   0  0  0  0  0  0  0  0  0  0  0  0
    7.3875   -0.6880   20.9452 C   0  0  0  0  0  0  0  0  0  0  0  0
    8.0107   -1.8353   20.7789 N   0  0  0  0  0  0  0  0  0  0  0  0
    8.5885   -2.1319   21.9566 N   0  0  0  0  0  0  0  0  0  0  0  0
    8.3695   -1.2057   22.8206 N   0  0  0  0  0  0  0  0  0  0  0  0
    7.6080   -0.2701   22.2157 N   0  0  0  0  0  0  0  0  0  0  0  0
    7.3182    0.9817   22.9237 C   0  0  0  0  0  0  0  0  0  0  0  0
    7.0721    1.7408   22.1716 H   0  0  0  0  0  0  0  0  0  0  0  0
    8.2570    1.2951   23.3977 H   0  0  0  0  0  0  0  0  0  0  0  0
    6.2074    0.9081   23.9700 C   0  0  0  0  0  0  0  0  0  0  0  0
    5.7821   -0.2826   24.5273 C   0  0  0  0  0  0  0  0  0  0  0  0
    6.3613   -1.1924   24.3804 H   0  0  0  0  0  0  0  0  0  0  0  0
    4.6348   -0.4257   25.2562 N   0  0  0  0  0  0  0  0  0  0  0  0
    3.9476    0.6571   25.5365 C   0  0  0  0  0  0  0  0  0  0  0  0
    3.0075    0.5196   26.0690 H   0  0  0  0  0  0  0  0  0  0  0  0
    4.4124    1.9832   25.2653 C   0  0  0  0  0  0  0  0  0  0  0  0
    3.8153    3.1417   25.8555 C   0  0  0  0  0  0  0  0  0  0  0  0
    2.8990    3.0413   26.4316 H   0  0  0  0  0  0  0  0  0  0  0  0
    4.4199    4.3703   25.7402 C   0  0  0  0  0  0  0  0  0  0  0  0
    4.0210    5.2327   26.2752 H   0  0  0  0  0  0  0  0  0  0  0  0
    5.5998    4.5096   24.9605 C   0  0  0  0  0  0  0  0  0  0  0  0
    6.0842    5.4797   24.9193 H   0  0  0  0  0  0  0  0  0  0  0  0
    6.1556    3.4219   24.3159 C   0  0  0  0  0  0  0  0  0  0  0  0
    7.0477    3.5678   23.7077 H   0  0  0  0  0  0  0  0  0  0  0  0
    5.6034    2.1151   24.4769 C   0  0  0  0  0  0  0  0  0  0  0  0
    5.4203    0.6827   20.1525 C   0  0  0  0  0  0  0  0  0  0  0  0
    4.9798    0.6821   21.1526 H   0  0  0  0  0  0  0  0  0  0  0  0
    4.7914    1.3251   19.0877 C   0  0  0  0  0  0  0  0  0  0  0  0
    3.8553    1.8543   19.2243 H   0  0  0  0  0  0  0  0  0  0  0  0
  1  2  1  0
  2  3  2  0
  3  4  1  0
  4  5  1  0
  4  6  2  0
  6  7  1  0
  7  8  2  0
  8  9  1  0
  9 10  2  0
 10 11  1  0
 11 12  1  0
 12 13  1  0
 12 14  1  0
 12 15  1  0
 15 16  2  0
 16 17  1  0
 16 18  1  0
 18 19  2  0
 19 20  1  0
 19 21  1  0
 21 22  2  0
 22 23  1  0
 22 24  1  0
 24 25  1  0
 24 26  2  0
 26 27  1  0
 26 28  1  0
 28 29  1  0
 28 30  2  0
  6 31  1  0
 31 32  1  0
 31 33  2  0
 33 34  1  0
 33  2  1  0
 11  7  1  0
 30 15  1  0
 30 21  1  0
M  END
>  <cnnaffinity>  (1) 
-5.47913

>  <filename>  (1) 
c1cncc(-c2nnnn2Cc2cncc3ccccc23)c1

$$$$
