
     RDKit          3D

 37 39  0  0  0  0  0  0  0  0999 V2000
    4.9751    1.8357   16.9806 H   0  0  0  0  0  0  0  0  0  0  0  0
    5.4165    1.3045   17.8206 C   0  0  0  0  0  0  0  0  0  0  0  0
    6.5694    0.6629   17.5787 N   0  0  0  0  0  0  0  0  0  0  0  0
    7.1503    0.0337   18.6082 C   0  0  0  0  0  0  0  0  0  0  0  0
    8.0912   -0.4716   18.3833 H   0  0  0  0  0  0  0  0  0  0  0  0
    6.6220   -0.0054   19.9070 C   0  0  0  0  0  0  0  0  0  0  0  0
    7.3648   -0.6946   20.9660 C   0  0  0  0  0  0  0  0  0  0  0  0
    6.7604   -1.6060   21.7944 N   0  0  0  0  0  0  0  0  0  0  0  0
    7.6844   -2.0331   22.6069 C   0  0  0  0  0  0  0  0  0  0  0  0
    7.5402   -2.7522   23.4058 H   0  0  0  0  0  0  0  0  0  0  0  0
    8.8868   -1.4455   22.3486 N   0  0  0  0  0  0  0  0  0  0  0  0
    9.7019   -1.5077   22.9410 H   0  0  0  0  0  0  0  0  0  0  0  0
    8.7017   -0.5539   21.3160 C   0  0  0  0  0  0  0  0  0  0  0  0
    9.7361    0.4576   20.9350 C   0  0  0  0  0  0  0  0  0  0  0  0
   10.7374    0.0149   21.0367 H   0  0  0  0  0  0  0  0  0  0  0  0
    9.5972    0.6814   19.8741 H   0  0  0  0  0  0  0  0  0  0  0  0
    9.6808    1.7960   21.7223 C   0  0  0  0  0  0  0  0  0  0  0  0
   10.4498    2.4472   21.2744 H   0  0  0  0  0  0  0  0  0  0  0  0
    8.3042    2.4665   21.5772 C   0  0  0  0  0  0  0  0  0  0  0  0
    8.0126    2.5183   20.5266 H   0  0  0  0  0  0  0  0  0  0  0  0
    7.5716    1.8057   22.0545 H   0  0  0  0  0  0  0  0  0  0  0  0
    8.2067    3.8294   22.2785 C   0  0  0  0  0  0  0  0  0  0  0  0
    7.1836    4.2064   22.1820 H   0  0  0  0  0  0  0  0  0  0  0  0
    8.8356    4.5755   21.7849 H   0  0  0  0  0  0  0  0  0  0  0  0
    8.6192    3.7326   23.7588 C   0  0  0  0  0  0  0  0  0  0  0  0
    7.8551    3.1771   24.3195 H   0  0  0  0  0  0  0  0  0  0  0  0
    8.6487    4.7322   24.2066 H   0  0  0  0  0  0  0  0  0  0  0  0
    9.9763    3.0293   23.9291 C   0  0  0  0  0  0  0  0  0  0  0  0
   10.2110    2.9086   24.9919 H   0  0  0  0  0  0  0  0  0  0  0  0
   10.7634    3.6724   23.5096 H   0  0  0  0  0  0  0  0  0  0  0  0
    9.9954    1.6597   23.2253 C   0  0  0  0  0  0  0  0  0  0  0  0
   10.9571    1.1556   23.3775 H   0  0  0  0  0  0  0  0  0  0  0  0
    9.2309    1.0201   23.6936 H   0  0  0  0  0  0  0  0  0  0  0  0
    5.3914    0.6388   20.1295 C   0  0  0  0  0  0  0  0  0  0  0  0
    4.9358    0.6267   21.1220 H   0  0  0  0  0  0  0  0  0  0  0  0
    4.7854    1.3114   19.0685 C   0  0  0  0  0  0  0  0  0  0  0  0
    3.8545    1.8532   19.1943 H   0  0  0  0  0  0  0  0  0  0  0  0
  1  2  1  0
  2  3  2  0
  3  4  1  0
  4  5  1  0
  4  6  2  0
  6  7  1  0
  7  8  1  0
  8  9  2  0
  9 10  1  0
  9 11  1  0
 11 12  1  0
 11 13  1  0
 13 14  1  0
 14 15  1  0
 14 16  1  0
 14 17  1  0
 17 18  1  0
 17 19  1  0
 19 20  1  0
 19 21  1  0
 19 22  1  0
 22 23  1  0
 22 24  1  0
 22 25  1  0
 25 26  1  0
 25 27  1  0
 25 28  1  0
 28 29  1  0
 28 30  1  0
 28 31  1  0
 31 32  1  0
 31 33  1  0
  6 34  1  0
 34 35  1  0
 34 36  2  0
 36 37  1  0
 36  2  1  0
 13  7  2  0
 31 17  1  0
M  END
>  <cnnaffinity>  (1) 
-5.24684

>  <filename>  (1) 
c1cncc(-c2nc[nH]c2CC2CCCCC2)c1

$$$$
