
     RDKit          3D

 38 40  0  0  0  0  0  0  0  0999 V2000
    4.9212    1.7811   16.9992 H   0  0  0  0  0  0  0  0  0  0  0  0
    5.4068    1.2881   17.8416 C   0  0  0  0  0  0  0  0  0  0  0  0
    6.5652    0.6663   17.5872 N   0  0  0  0  0  0  0  0  0  0  0  0
    7.1900    0.0535   18.6028 C   0  0  0  0  0  0  0  0  0  0  0  0
    8.1291   -0.4377   18.3678 H   0  0  0  0  0  0  0  0  0  0  0  0
    6.6859    0.0180   19.9164 C   0  0  0  0  0  0  0  0  0  0  0  0
    7.2842   -0.6681   20.9483 O   0  0  0  0  0  0  0  0  0  0  0  0
    8.6470   -0.7360   21.0876 C   0  0  0  0  0  0  0  0  0  0  0  0
    9.6725    0.1084   20.6201 C   0  0  0  0  0  0  0  0  0  0  0  0
    9.5857    0.9495   19.9573 H   0  0  0  0  0  0  0  0  0  0  0  0
   10.8576   -0.2620   21.0979 N   0  0  0  0  0  0  0  0  0  0  0  0
   10.5837   -1.3255   21.8540 N   0  0  0  0  0  0  0  0  0  0  0  0
   11.3380   -1.7724   22.3436 H   0  0  0  0  0  0  0  0  0  0  0  0
    9.2657   -1.6646   21.8941 C   0  0  0  0  0  0  0  0  0  0  0  0
    8.7122   -2.7216   22.7784 C   0  0  0  0  0  0  0  0  0  0  0  0
    7.7342   -3.0106   22.3764 H   0  0  0  0  0  0  0  0  0  0  0  0
    9.3496   -3.6173   22.7361 H   0  0  0  0  0  0  0  0  0  0  0  0
    8.5421   -2.2720   24.2448 C   0  0  0  0  0  0  0  0  0  0  0  0
    9.5161   -1.9149   24.6123 H   0  0  0  0  0  0  0  0  0  0  0  0
    7.5475   -1.1036   24.3832 C   0  0  0  0  0  0  0  0  0  0  0  0
    7.8818   -0.2391   23.7937 H   0  0  0  0  0  0  0  0  0  0  0  0
    6.5847   -1.4030   23.9454 H   0  0  0  0  0  0  0  0  0  0  0  0
    7.3407   -0.6981   25.8480 C   0  0  0  0  0  0  0  0  0  0  0  0
    6.5916    0.0997   25.9203 H   0  0  0  0  0  0  0  0  0  0  0  0
    8.2778   -0.2733   26.2330 H   0  0  0  0  0  0  0  0  0  0  0  0
    6.9369   -1.8956   26.7198 C   0  0  0  0  0  0  0  0  0  0  0  0
    5.9447   -2.2457   26.4043 H   0  0  0  0  0  0  0  0  0  0  0  0
    6.8372   -1.5903   27.7680 H   0  0  0  0  0  0  0  0  0  0  0  0
    7.9366   -3.0530   26.5905 C   0  0  0  0  0  0  0  0  0  0  0  0
    7.6117   -3.9164   27.1825 H   0  0  0  0  0  0  0  0  0  0  0  0
    8.9061   -2.7382   27.0008 H   0  0  0  0  0  0  0  0  0  0  0  0
    8.1321   -3.4599   25.1262 C   0  0  0  0  0  0  0  0  0  0  0  0
    7.1972   -3.8816   24.7300 H   0  0  0  0  0  0  0  0  0  0  0  0
    8.8866   -4.2547   25.0464 H   0  0  0  0  0  0  0  0  0  0  0  0
    5.4610    0.6433   20.1747 C   0  0  0  0  0  0  0  0  0  0  0  0
    5.0338    0.6109   21.1767 H   0  0  0  0  0  0  0  0  0  0  0  0
    4.8237    1.2994   19.1150 C   0  0  0  0  0  0  0  0  0  0  0  0
    3.8903    1.8282   19.2664 H   0  0  0  0  0  0  0  0  0  0  0  0
  1  2  1  0
  2  3  2  0
  3  4  1  0
  4  5  1  0
  4  6  2  0
  6  7  1  0
  7  8  1  0
  8  9  1  0
  9 10  1  0
  9 11  2  0
 11 12  1  0
 12 13  1  0
 12 14  1  0
 14 15  1  0
 15 16  1  0
 15 17  1  0
 15 18  1  0
 18 19  1  0
 18 20  1  0
 20 21  1  0
 20 22  1  0
 20 23  1  0
 23 24  1  0
 23 25  1  0
 23 26  1  0
 26 27  1  0
 26 28  1  0
 26 29  1  0
 29 30  1  0
 29 31  1  0
 29 32  1  0
 32 33  1  0
 32 34  1  0
  6 35  1  0
 35 36  1  0
 35 37  2  0
 37 38  1  0
 37  2  1  0
 14  8  2  0
 32 18  1  0
M  END
>  <cnnaffinity>  (1) 
-5.56299

>  <filename>  (1) 
c1cncc(Oc2cn[nH]c2CC2CCCCC2)c1

$$$$
