
     RDKit          3D

 34 36  0  0  0  0  0  0  0  0999 V2000
    4.9478    1.7820   17.0059 H   0  0  0  0  0  0  0  0  0  0  0  0
    5.4188    1.2802   17.8465 C   0  0  0  0  0  0  0  0  0  0  0  0
    6.5769    0.6567   17.5892 N   0  0  0  0  0  0  0  0  0  0  0  0
    7.1947    0.0362   18.6044 C   0  0  0  0  0  0  0  0  0  0  0  0
    8.1354   -0.4511   18.3636 H   0  0  0  0  0  0  0  0  0  0  0  0
    6.6806    0.0044   19.9160 C   0  0  0  0  0  0  0  0  0  0  0  0
    7.2435   -0.6951   20.9548 O   0  0  0  0  0  0  0  0  0  0  0  0
    8.6161   -0.7623   21.0959 C   0  0  0  0  0  0  0  0  0  0  0  0
    9.6518    0.0842   20.6366 C   0  0  0  0  0  0  0  0  0  0  0  0
    9.5974    0.9453   19.9822 H   0  0  0  0  0  0  0  0  0  0  0  0
   10.8392   -0.2994   21.0944 N   0  0  0  0  0  0  0  0  0  0  0  0
   10.5690   -1.3943   21.8457 N   0  0  0  0  0  0  0  0  0  0  0  0
   11.3011   -1.9332   22.2822 H   0  0  0  0  0  0  0  0  0  0  0  0
    9.2520   -1.7103   21.8767 C   0  0  0  0  0  0  0  0  0  0  0  0
    8.7432   -2.8263   22.5093 N   0  0  0  0  0  0  0  0  0  0  0  0
    7.7334   -2.8111   22.5420 H   0  0  0  0  0  0  0  0  0  0  0  0
    9.4649   -3.5881   23.5095 C   0  0  0  0  0  0  0  0  0  0  0  0
   10.4000   -3.9351   23.0525 H   0  0  0  0  0  0  0  0  0  0  0  0
    9.8917   -2.8562   24.7973 C   0  0  0  0  0  0  0  0  0  0  0  0
   10.8503   -2.3574   24.6313 H   0  0  0  0  0  0  0  0  0  0  0  0
    9.1785   -2.0581   25.0417 H   0  0  0  0  0  0  0  0  0  0  0  0
    9.9480   -3.9486   25.9068 C   0  0  0  0  0  0  0  0  0  0  0  0
    9.4440   -3.5928   26.8135 H   0  0  0  0  0  0  0  0  0  0  0  0
   10.9707   -4.2027   26.2085 H   0  0  0  0  0  0  0  0  0  0  0  0
    9.2841   -5.2244   25.3195 C   0  0  0  0  0  0  0  0  0  0  0  0
    8.5657   -5.6797   26.0138 H   0  0  0  0  0  0  0  0  0  0  0  0
   10.0476   -5.9942   25.1370 H   0  0  0  0  0  0  0  0  0  0  0  0
    8.6324   -4.7739   23.9969 C   0  0  0  0  0  0  0  0  0  0  0  0
    8.5774   -5.5648   23.2403 H   0  0  0  0  0  0  0  0  0  0  0  0
    7.6040   -4.4262   24.1794 H   0  0  0  0  0  0  0  0  0  0  0  0
    5.4654    0.6453   20.1740 C   0  0  0  0  0  0  0  0  0  0  0  0
    5.0497    0.6086   21.1795 H   0  0  0  0  0  0  0  0  0  0  0  0
    4.8296    1.3009   19.1180 C   0  0  0  0  0  0  0  0  0  0  0  0
    3.8911    1.8232   19.2646 H   0  0  0  0  0  0  0  0  0  0  0  0
  1  2  1  0
  2  3  2  0
  3  4  1  0
  4  5  1  0
  4  6  2  0
  6  7  1  0
  7  8  1  0
  8  9  1  0
  9 10  1  0
  9 11  2  0
 11 12  1  0
 12 13  1  0
 12 14  1  0
 14 15  1  0
 15 16  1  0
 15 17  1  0
 17 18  1  0
 17 19  1  0
 19 20  1  0
 19 21  1  0
 19 22  1  0
 22 23  1  0
 22 24  1  0
 22 25  1  0
 25 26  1  0
 25 27  1  0
 25 28  1  0
 28 29  1  0
 28 30  1  0
  6 31  1  0
 31 32  1  0
 31 33  2  0
 33 34  1  0
 33  2  1  0
 14  8  2  0
 28 17  1  0
M  END
>  <cnnaffinity>  (1) 
-5.25028

>  <filename>  (1) 
c1cncc(Oc2cn[nH]c2NC2CCCC2)c1

$$$$
