
     RDKit          3D

 35 38  0  0  0  0  0  0  0  0999 V2000
    4.9805    1.8454   16.9348 H   0  0  0  0  0  0  0  0  0  0  0  0
    5.4240    1.3159   17.7745 C   0  0  0  0  0  0  0  0  0  0  0  0
    6.5722    0.6618   17.5209 N   0  0  0  0  0  0  0  0  0  0  0  0
    7.1445   -0.0019   18.5272 C   0  0  0  0  0  0  0  0  0  0  0  0
    8.0636   -0.5453   18.3190 H   0  0  0  0  0  0  0  0  0  0  0  0
    6.6211   -0.0165   19.8320 C   0  0  0  0  0  0  0  0  0  0  0  0
    7.3380   -0.6776   20.8717 N   0  0  0  0  0  0  0  0  0  0  0  0
    7.7299   -1.9637   20.7458 N   0  0  0  0  0  0  0  0  0  0  0  0
    8.3658   -2.2638   21.8152 N   0  0  0  0  0  0  0  0  0  0  0  0
    8.4225   -1.2138   22.6582 N   0  0  0  0  0  0  0  0  0  0  0  0
    7.7763   -0.2298   22.0764 C   0  0  0  0  0  0  0  0  0  0  0  0
    7.6613    1.1554   22.6423 C   0  0  0  0  0  0  0  0  0  0  0  0
    8.6655    1.5956   22.6481 H   0  0  0  0  0  0  0  0  0  0  0  0
    7.0580    1.7867   21.9840 H   0  0  0  0  0  0  0  0  0  0  0  0
    7.0906    1.1678   24.0471 C   0  0  0  0  0  0  0  0  0  0  0  0
    5.7576    1.4567   24.2444 C   0  0  0  0  0  0  0  0  0  0  0  0
    5.1272    1.7073   23.3934 H   0  0  0  0  0  0  0  0  0  0  0  0
    5.1708    1.4546   25.5421 C   0  0  0  0  0  0  0  0  0  0  0  0
    4.1328    1.7662   25.6571 H   0  0  0  0  0  0  0  0  0  0  0  0
    5.9226    1.1183   26.6408 C   0  0  0  0  0  0  0  0  0  0  0  0
    5.4947    1.1409   27.6453 H   0  0  0  0  0  0  0  0  0  0  0  0
    7.2970    0.7425   26.4813 C   0  0  0  0  0  0  0  0  0  0  0  0
    8.0636    0.2114   27.5664 C   0  0  0  0  0  0  0  0  0  0  0  0
    7.5897    0.1013   28.5382 H   0  0  0  0  0  0  0  0  0  0  0  0
    9.3722   -0.1731   27.3929 C   0  0  0  0  0  0  0  0  0  0  0  0
    9.9631   -0.5504   28.2302 H   0  0  0  0  0  0  0  0  0  0  0  0
    9.9964   -0.0028   26.1302 C   0  0  0  0  0  0  0  0  0  0  0  0
   11.0278   -0.3061   25.9853 H   0  0  0  0  0  0  0  0  0  0  0  0
    9.3025    0.5266   25.0694 C   0  0  0  0  0  0  0  0  0  0  0  0
    9.7936    0.6174   24.1046 H   0  0  0  0  0  0  0  0  0  0  0  0
    7.9072    0.8369   25.1841 C   0  0  0  0  0  0  0  0  0  0  0  0
    5.4107    0.6313   20.0861 C   0  0  0  0  0  0  0  0  0  0  0  0
    4.9591    0.5894   21.0801 H   0  0  0  0  0  0  0  0  0  0  0  0
    4.8022    1.3122   19.0267 C   0  0  0  0  0  0  0  0  0  0  0  0
    3.8665    1.8393   19.1648 H   0  0  0  0  0  0  0  0  0  0  0  0
  1  2  1  0
  2  3  2  0
  3  4  1  0
  4  5  1  0
  4  6  2  0
  6  7  1  0
  7  8  1  0
  8  9  2  0
  9 10  1  0
 10 11  2  0
 11 12  1  0
 12 13  1  0
 12 14  1  0
 12 15  1  0
 15 16  2  0
 16 17  1  0
 16 18  1  0
 18 19  1  0
 18 20  2  0
 20 21  1  0
 20 22  1  0
 22 23  2  0
 23 24  1  0
 23 25  1  0
 25 26  1  0
 25 27  2  0
 27 28  1  0
 27 29  1  0
 29 30  1  0
 29 31  2  0
  6 32  1  0
 32 33  1  0
 32 34  2  0
 34 35  1  0
 34  2  1  0
 11  7  1  0
 31 15  1  0
 31 22  1  0
M  END
>  <cnnaffinity>  (1) 
-5.04449

>  <filename>  (1) 
c1cncc(-n2nnnc2Cc2cccc3ccccc23)c1

$$$$
