
     RDKit          3D

 41 43  0  0  0  0  0  0  0  0999 V2000
    4.8022    1.3161   19.0999 C   0  0  0  0  0  0  0  0  0  0  0  0
    5.4013    1.2985   17.8371 C   0  0  0  0  0  0  0  0  0  0  0  0
    6.5682    0.6900   17.5815 N   0  0  0  0  0  0  0  0  0  0  0  0
    7.1767    0.0813   18.6036 C   0  0  0  0  0  0  0  0  0  0  0  0
    6.6581    0.0245   19.9043 C   0  0  0  0  0  0  0  0  0  0  0  0
    7.3908   -0.7078   20.9711 C   0  0  0  0  0  0  0  0  0  0  0  0
    8.3315    0.2902   21.6401 N   0  0  0  0  0  4  0  0  0  0  0  0
    9.1072   -0.3518   22.7747 C   0  0  0  0  0  0  0  0  0  0  0  0
    8.2311   -0.7881   23.9356 C   0  0  0  0  0  0  0  0  0  0  0  0
    7.7687   -1.9693   24.2094 N   0  0  0  0  0  0  0  0  0  0  0  0
    6.9906   -1.7103   25.3207 C   0  0  0  0  0  0  0  0  0  0  0  0
    6.2303   -2.8052   26.0064 C   0  0  0  0  0  0  0  0  0  0  0  0
    5.1024   -3.3572   25.1006 C   0  0  0  0  0  0  0  0  0  0  0  0
    4.3273   -4.4797   25.8009 C   0  0  0  0  0  0  0  0  0  0  0  0
    5.2589   -5.6015   26.2826 C   0  0  0  0  0  0  0  0  0  0  0  0
    6.3861   -5.0593   27.1735 C   0  0  0  0  0  0  0  0  0  0  0  0
    7.1713   -3.9399   26.4793 C   0  0  0  0  0  0  0  0  0  0  0  0
    7.9387   -3.5407   27.1553 H   0  0  0  0  0  0  0  0  0  0  0  0
    7.7088   -4.3455   25.6105 H   0  0  0  0  0  0  0  0  0  0  0  0
    7.0651   -5.8688   27.4682 H   0  0  0  0  0  0  0  0  0  0  0  0
    5.9537   -4.6677   28.1059 H   0  0  0  0  0  0  0  0  0  0  0  0
    4.6881   -6.3731   26.8138 H   0  0  0  0  0  0  0  0  0  0  0  0
    5.7036   -6.0964   25.4075 H   0  0  0  0  0  0  0  0  0  0  0  0
    3.7924   -4.0588   26.6648 H   0  0  0  0  0  0  0  0  0  0  0  0
    3.5576   -4.8802   25.1304 H   0  0  0  0  0  0  0  0  0  0  0  0
    4.4193   -2.5481   24.8132 H   0  0  0  0  0  0  0  0  0  0  0  0
    5.5453   -3.7341   24.1680 H   0  0  0  0  0  0  0  0  0  0  0  0
    5.7697   -2.3497   26.8907 H   0  0  0  0  0  0  0  0  0  0  0  0
    6.9784   -0.4652   25.6932 N   0  0  0  0  0  0  0  0  0  0  0  0
    7.8093    0.1577   24.7668 O   0  0  0  0  0  0  0  0  0  0  0  0
    9.8992    0.3003   23.1415 H   0  0  0  0  0  0  0  0  0  0  0  0
    9.5580   -1.2817   22.4206 H   0  0  0  0  0  0  0  0  0  0  0  0
    8.9126    0.7021   20.8723 H   0  0  0  0  0  0  0  0  0  0  0  0
    7.7079    1.0650   22.0010 H   0  0  0  0  0  0  0  0  0  0  0  0
    7.9668   -1.5530   20.5731 H   0  0  0  0  0  0  0  0  0  0  0  0
    6.7084   -1.1189   21.7247 H   0  0  0  0  0  0  0  0  0  0  0  0
    5.4354    0.6614   20.1555 C   0  0  0  0  0  0  0  0  0  0  0  0
    4.9964    0.6376   21.1587 H   0  0  0  0  0  0  0  0  0  0  0  0
    8.1156   -0.4204   18.3686 H   0  0  0  0  0  0  0  0  0  0  0  0
    4.9215    1.7855   16.9908 H   0  0  0  0  0  0  0  0  0  0  0  0
    3.8711    1.8456   19.2497 H   0  0  0  0  0  0  0  0  0  0  0  0
  1  2  2  0
  2  3  1  0
  3  4  2  0
  4  5  1  0
  5  6  1  0
  6  7  1  0
  7  8  1  0
  8  9  1  0
  9 10  2  0
 10 11  1  0
 11 12  1  0
 12 13  1  0
 13 14  1  0
 14 15  1  0
 15 16  1  0
 16 17  1  0
 17 18  1  0
 17 19  1  0
 16 20  1  0
 16 21  1  0
 15 22  1  0
 15 23  1  0
 14 24  1  0
 14 25  1  0
 13 26  1  0
 13 27  1  0
 12 28  1  0
 11 29  2  0
 29 30  1  0
  8 31  1  0
  8 32  1  0
  7 33  1  0
  7 34  1  0
  6 35  1  0
  6 36  1  0
  5 37  2  0
 37 38  1  0
  4 39  1  0
  2 40  1  0
  1 41  1  0
 37  1  1  0
 30  9  1  0
 17 12  1  0
M  CHG  1   7   1
M  END
>  <cnnaffinity>  (1) 
-4.99605

>  <filename>  (1) 
c1cncc(C[NH2+]Cc2nc(C3CCCCC3)no2)c1

$$$$
