
     RDKit          3D

 32 35  0  0  0  0  0  0  0  0999 V2000
    4.8032    1.2903   19.1034 C   0  0  0  0  0  0  0  0  0  0  0  0
    5.4072    1.2872   17.8430 C   0  0  0  0  0  0  0  0  0  0  0  0
    6.5737    0.6655   17.5995 N   0  0  0  0  0  0  0  0  0  0  0  0
    7.1741    0.0322   18.6099 C   0  0  0  0  0  0  0  0  0  0  0  0
    6.6456   -0.0126   19.9120 C   0  0  0  0  0  0  0  0  0  0  0  0
    7.3838   -0.6535   20.9431 N   0  0  0  0  0  0  0  0  0  0  0  0
    7.9521   -1.8479   20.7070 N   0  0  0  0  0  0  0  0  0  0  0  0
    8.4753   -2.2354   21.8601 C   0  0  0  0  0  0  0  0  0  0  0  0
    8.2585   -1.2893   22.8713 C   0  0  0  0  0  0  0  0  0  0  0  0
    7.5670   -0.2606   22.2532 C   0  0  0  0  0  0  0  0  0  0  0  0
    7.2010    1.0751   22.7468 C   0  0  0  0  0  0  0  0  0  0  0  0
    7.5877    2.1193   22.0204 N   0  0  0  0  0  0  0  0  0  0  0  0
    7.3472    3.3579   22.4976 C   0  0  0  0  0  0  0  0  0  0  0  0
    6.7169    3.6118   23.6937 C   0  0  0  0  0  0  0  0  0  0  0  0
    6.2738    2.5270   24.4756 C   0  0  0  0  0  0  0  0  0  0  0  0
    5.6108    2.6781   25.7124 C   0  0  0  0  0  0  0  0  0  0  0  0
    5.1971    1.5582   26.3878 C   0  0  0  0  0  0  0  0  0  0  0  0
    5.3778    0.2935   25.9423 N   0  0  0  0  0  0  0  0  0  0  0  0
    5.9986    0.1431   24.7897 C   0  0  0  0  0  0  0  0  0  0  0  0
    6.4990    1.2101   23.9922 C   0  0  0  0  0  0  0  0  0  0  0  0
    6.1170   -0.8839   24.4538 H   0  0  0  0  0  0  0  0  0  0  0  0
    4.6801    1.6495   27.3366 H   0  0  0  0  0  0  0  0  0  0  0  0
    5.4334    3.6710   26.0992 H   0  0  0  0  0  0  0  0  0  0  0  0
    6.5466    4.6211   24.0367 H   0  0  0  0  0  0  0  0  0  0  0  0
    7.6868    4.1746   21.8674 H   0  0  0  0  0  0  0  0  0  0  0  0
    8.6180   -1.3069   23.8917 H   0  0  0  0  0  0  0  0  0  0  0  0
    9.0125   -3.1736   21.9175 H   0  0  0  0  0  0  0  0  0  0  0  0
    5.4195    0.6181   20.1603 C   0  0  0  0  0  0  0  0  0  0  0  0
    5.0075    0.6423   21.1729 H   0  0  0  0  0  0  0  0  0  0  0  0
    8.1229   -0.4415   18.3754 H   0  0  0  0  0  0  0  0  0  0  0  0
    4.9352    1.7825   16.9964 H   0  0  0  0  0  0  0  0  0  0  0  0
    3.8808    1.8357   19.2552 H   0  0  0  0  0  0  0  0  0  0  0  0
  1  2  2  0
  2  3  1  0
  3  4  2  0
  4  5  1  0
  5  6  1  0
  6  7  1  0
  7  8  2  0
  8  9  1  0
  9 10  2  0
 10 11  1  0
 11 12  2  0
 12 13  1  0
 13 14  2  0
 14 15  1  0
 15 16  2  0
 16 17  1  0
 17 18  2  0
 18 19  1  0
 19 20  2  0
 19 21  1  0
 17 22  1  0
 16 23  1  0
 14 24  1  0
 13 25  1  0
  9 26  1  0
  8 27  1  0
  5 28  2  0
 28 29  1  0
  4 30  1  0
  2 31  1  0
  1 32  1  0
 28  1  1  0
 10  6  1  0
 20 11  1  0
 20 15  1  0
M  END
>  <cnnaffinity>  (1) 
-5.46785

>  <filename>  (1) 
c1cncc(-n2nccc2-c2nccc3ccncc23)c1

$$$$
