
     RDKit          3D

 50 54  0  0  0  0  0  0  0  0999 V2000
    4.9983    1.7957   16.9860 H   0  0  0  0  0  0  0  0  0  0  0  0
    5.4283    1.2742   17.8407 C   0  0  0  0  0  0  0  0  0  0  0  0
    6.5833    0.6288   17.6197 N   0  0  0  0  0  0  0  0  0  0  0  0
    7.1381    0.0014   18.6649 C   0  0  0  0  0  0  0  0  0  0  0  0
    8.0827   -0.5053   18.4698 H   0  0  0  0  0  0  0  0  0  0  0  0
    6.5917   -0.0404   19.9633 C   0  0  0  0  0  0  0  0  0  0  0  0
    7.3114   -0.7493   21.0894 C   0  0  0  0  0  0  0  0  0  0  0  0
    7.0175   -2.1972   21.3307 C   0  0  0  0  0  0  0  0  0  0  0  0
    7.8199   -3.1928   21.1646 N   0  0  0  0  0  0  0  0  0  0  0  0
    7.1357   -4.3412   21.5301 N   0  0  0  0  0  0  0  0  0  0  0  0
    5.9729   -3.9322   21.9364 C   0  0  0  0  0  0  0  0  0  0  0  0
    4.9525   -4.6767   22.4549 N   0  0  0  0  0  0  0  0  0  0  0  0
    4.2015   -4.1736   23.6151 C   0  0  0  0  0  0  0  0  0  0  0  0
    4.7630   -4.3681   24.5510 H   0  0  0  0  0  0  0  0  0  0  0  0
    4.0574   -3.0917   23.5577 H   0  0  0  0  0  0  0  0  0  0  0  0
    2.8603   -4.8906   23.6611 C   0  0  0  0  0  0  0  0  0  0  0  0
    2.2557   -4.5020   24.4872 H   0  0  0  0  0  0  0  0  0  0  0  0
    2.3034   -4.7250   22.7293 H   0  0  0  0  0  0  0  0  0  0  0  0
    3.0771   -6.3944   23.8486 C   0  0  0  0  0  0  0  0  0  0  0  0
    3.5409   -6.5504   24.8541 H   0  0  0  0  0  0  0  0  0  0  0  0
    1.8151   -7.1167   23.7722 N   0  0  0  0  0  0  0  0  0  0  0  0
    0.8912   -6.7802   24.8513 C   0  0  0  0  0  0  0  0  0  0  0  0
    1.4240   -6.6468   25.8131 H   0  0  0  0  0  0  0  0  0  0  0  0
    0.3769   -5.8334   24.6371 H   0  0  0  0  0  0  0  0  0  0  0  0
   -0.0855   -7.9578   24.9423 C   0  0  0  0  0  0  0  0  0  0  0  0
   -0.3079   -8.1934   25.9867 H   0  0  0  0  0  0  0  0  0  0  0  0
   -1.0331   -7.7072   24.4589 H   0  0  0  0  0  0  0  0  0  0  0  0
    0.6050   -9.1297   24.2148 C   0  0  0  0  0  0  0  0  0  0  0  0
    0.7681   -9.9908   24.8707 H   0  0  0  0  0  0  0  0  0  0  0  0
    0.0026   -9.4801   23.3721 H   0  0  0  0  0  0  0  0  0  0  0  0
    1.9454   -8.5766   23.7247 C   0  0  0  0  0  0  0  0  0  0  0  0
    2.7668   -8.9440   24.3693 H   0  0  0  0  0  0  0  0  0  0  0  0
    2.1759   -8.9054   22.7010 H   0  0  0  0  0  0  0  0  0  0  0  0
    4.0389   -6.9474   22.7987 C   0  0  0  0  0  0  0  0  0  0  0  0
    3.4745   -7.0840   21.8640 H   0  0  0  0  0  0  0  0  0  0  0  0
    4.3892   -7.9268   23.1404 H   0  0  0  0  0  0  0  0  0  0  0  0
    5.2720   -6.1065   22.5503 C   0  0  0  0  0  0  0  0  0  0  0  0
    5.7312   -6.4245   21.6079 H   0  0  0  0  0  0  0  0  0  0  0  0
    6.0245   -6.2754   23.3456 H   0  0  0  0  0  0  0  0  0  0  0  0
    5.8024   -2.5959   21.8194 O   0  0  0  0  0  0  0  0  0  0  0  0
    7.7279    0.0797   22.2989 C   0  0  0  0  0  0  0  0  0  0  0  0
    7.4533    1.1355   22.3088 H   0  0  0  0  0  0  0  0  0  0  0  0
    7.7201   -0.3901   23.2814 H   0  0  0  0  0  0  0  0  0  0  0  0
    8.7553   -0.3594   21.3020 C   0  0  0  0  0  0  0  0  0  0  0  0
    9.4269   -1.1652   21.5960 H   0  0  0  0  0  0  0  0  0  0  0  0
    9.1862    0.3927   20.6386 H   0  0  0  0  0  0  0  0  0  0  0  0
    5.3827    0.6346   20.1672 C   0  0  0  0  0  0  0  0  0  0  0  0
    4.9325    0.6506   21.1624 H   0  0  0  0  0  0  0  0  0  0  0  0
    4.7924    1.2957   19.0866 C   0  0  0  0  0  0  0  0  0  0  0  0
    3.8624    1.8377   19.1994 H   0  0  0  0  0  0  0  0  0  0  0  0
  1  2  1  0
  2  3  2  0
  3  4  1  0
  4  5  1  0
  4  6  2  0
  6  7  1  0
  7  8  1  0
  8  9  2  0
  9 10  1  0
 10 11  2  0
 11 12  1  0
 12 13  1  0
 13 14  1  0
 13 15  1  0
 13 16  1  0
 16 17  1  0
 16 18  1  0
 16 19  1  0
 19 20  1  0
 19 21  1  0
 21 22  1  0
 22 23  1  0
 22 24  1  0
 22 25  1  0
 25 26  1  0
 25 27  1  0
 25 28  1  0
 28 29  1  0
 28 30  1  0
 28 31  1  0
 31 32  1  0
 31 33  1  0
 19 34  1  0
 34 35  1  0
 34 36  1  0
 34 37  1  0
 37 38  1  0
 37 39  1  0
 11 40  1  0
  7 41  1  0
 41 42  1  0
 41 43  1  0
 41 44  1  0
 44 45  1  0
 44 46  1  0
  6 47  1  0
 47 48  1  0
 47 49  2  0
 49 50  1  0
 49  2  1  0
 44  7  1  0
 40  8  1  0
 37 12  1  0
 31 21  1  0
M  END
>  <cnnaffinity>  (1) 
-5.0605

>  <filename>  (1) 
c1cncc(C2(c3nnc(N4CCC(N5CCCC5)CC4)o3)CC2)c1

$$$$
