
     RDKit          3D

 32 33  0  0  0  0  0  0  0  0999 V2000
    5.1269    1.9549   16.7625 H   0  0  0  0  0  0  0  0  0  0  0  0
    5.4137    1.3842   17.6426 C   0  0  0  0  0  0  0  0  0  0  0  0
    6.5149    0.6207   17.5191 N   0  0  0  0  0  0  0  0  0  0  0  0
    6.8975   -0.0797   18.5924 C   0  0  0  0  0  0  0  0  0  0  0  0
    7.7712   -0.7276   18.4824 H   0  0  0  0  0  0  0  0  0  0  0  0
    6.2216   -0.0602   19.8153 C   0  0  0  0  0  0  0  0  0  0  0  0
    6.9412   -0.9510   21.2123 S   0  0  0  0  0  0  0  0  0  0  0  0
    7.8700    0.3275   21.9273 N   0  0  0  0  0  0  0  0  0  0  0  0
    7.2936    1.1755   21.9657 H   0  0  0  0  0  0  0  0  0  0  0  0
    9.2128    0.6683   21.4320 N   0  0  0  0  0  0  0  0  0  0  0  0
    9.3218    0.2420   20.5035 H   0  0  0  0  0  0  0  0  0  0  0  0
   10.2754    0.1086   22.2944 C   0  0  0  0  0  0  0  0  0  0  0  0
    9.9223   -0.8415   22.7379 H   0  0  0  0  0  0  0  0  0  0  0  0
   11.5098   -0.1600   21.4086 C   0  0  0  0  0  0  0  0  0  0  0  0
   11.7339    0.7854   20.8897 H   0  0  0  0  0  0  0  0  0  0  0  0
   11.2542   -0.8992   20.6404 H   0  0  0  0  0  0  0  0  0  0  0  0
   12.7525   -0.6139   22.1950 C   0  0  0  0  0  0  0  0  0  0  0  0
   12.5753   -1.6154   22.6095 H   0  0  0  0  0  0  0  0  0  0  0  0
   13.6205   -0.7212   21.5322 H   0  0  0  0  0  0  0  0  0  0  0  0
   13.0549    0.3823   23.3219 C   0  0  0  0  0  0  0  0  0  0  0  0
   13.9520    0.0991   23.8784 H   0  0  0  0  0  0  0  0  0  0  0  0
   13.2673    1.3583   22.8598 H   0  0  0  0  0  0  0  0  0  0  0  0
   11.8417    0.5532   24.2458 C   0  0  0  0  0  0  0  0  0  0  0  0
   11.5970   -0.4218   24.6947 H   0  0  0  0  0  0  0  0  0  0  0  0
   12.0698    1.2389   25.0684 H   0  0  0  0  0  0  0  0  0  0  0  0
   10.6410    1.0790   23.4374 C   0  0  0  0  0  0  0  0  0  0  0  0
    9.7597    1.2624   24.0658 H   0  0  0  0  0  0  0  0  0  0  0  0
   10.9089    2.0462   22.9820 H   0  0  0  0  0  0  0  0  0  0  0  0
    5.0563    0.7136   19.9305 C   0  0  0  0  0  0  0  0  0  0  0  0
    4.4876    0.7252   20.8611 H   0  0  0  0  0  0  0  0  0  0  0  0
    4.6536    1.4499   18.8151 C   0  0  0  0  0  0  0  0  0  0  0  0
    3.7673    2.0762   18.8403 H   0  0  0  0  0  0  0  0  0  0  0  0
  1  2  1  0
  2  3  2  0
  3  4  1  0
  4  5  1  0
  4  6  2  0
  6  7  1  0
  7  8  1  0
  8  9  1  0
  8 10  1  0
 10 11  1  0
 10 12  1  0
 12 13  1  0
 12 14  1  0
 14 15  1  0
 14 16  1  0
 14 17  1  0
 17 18  1  0
 17 19  1  0
 17 20  1  0
 20 21  1  0
 20 22  1  0
 20 23  1  0
 23 24  1  0
 23 25  1  0
 23 26  1  0
 26 27  1  0
 26 28  1  0
  6 29  1  0
 29 30  1  0
 29 31  2  0
 31 32  1  0
 31  2  1  0
 26 12  1  0
M  END
>  <cnnaffinity>  (1) 
-4.39125

>  <filename>  (1) 
c1cncc(SNNC2CCCCC2)c1

$$$$
