
     RDKit          3D

 31 33  0  0  0  0  0  0  0  0999 V2000
    4.9611    1.8028   16.9881 H   0  0  0  0  0  0  0  0  0  0  0  0
    5.4270    1.2939   17.8298 C   0  0  0  0  0  0  0  0  0  0  0  0
    6.5797    0.6558   17.5760 N   0  0  0  0  0  0  0  0  0  0  0  0
    7.1903    0.0197   18.5854 C   0  0  0  0  0  0  0  0  0  0  0  0
    8.1344   -0.4774   18.3592 H   0  0  0  0  0  0  0  0  0  0  0  0
    6.6725   -0.0054   19.8915 C   0  0  0  0  0  0  0  0  0  0  0  0
    7.2380   -0.6872   20.9398 O   0  0  0  0  0  0  0  0  0  0  0  0
    8.6021   -0.7529   21.1156 C   0  0  0  0  0  0  0  0  0  0  0  0
    9.6516    0.0600   20.6568 C   0  0  0  0  0  0  0  0  0  0  0  0
    9.5800    0.9401   20.0362 H   0  0  0  0  0  0  0  0  0  0  0  0
   10.8330   -0.3555   21.0974 N   0  0  0  0  0  0  0  0  0  0  0  0
   10.5331   -1.4305   21.8484 N   0  0  0  0  0  0  0  0  0  0  0  0
   11.2379   -1.9624   22.3258 H   0  0  0  0  0  0  0  0  0  0  0  0
    9.2041   -1.7002   21.9229 C   0  0  0  0  0  0  0  0  0  0  0  0
    8.7001   -2.7064   22.6921 N   0  0  0  0  0  0  0  0  0  0  0  0
    9.5117   -3.5358   23.5566 C   0  0  0  0  0  0  0  0  0  0  0  0
    9.7898   -2.9930   24.4716 H   0  0  0  0  0  0  0  0  0  0  0  0
   10.4488   -3.8091   23.0610 H   0  0  0  0  0  0  0  0  0  0  0  0
    8.5919   -4.7168   23.8570 C   0  0  0  0  0  0  0  0  0  0  0  0
    8.7337   -5.4983   23.0992 H   0  0  0  0  0  0  0  0  0  0  0  0
    8.7947   -5.1544   24.8370 H   0  0  0  0  0  0  0  0  0  0  0  0
    7.1823   -4.1148   23.7880 C   0  0  0  0  0  0  0  0  0  0  0  0
    6.8888   -3.7040   24.7601 H   0  0  0  0  0  0  0  0  0  0  0  0
    6.4234   -4.8501   23.5142 H   0  0  0  0  0  0  0  0  0  0  0  0
    7.2737   -2.9826   22.7648 C   0  0  0  0  0  0  0  0  0  0  0  0
    6.9138   -3.2677   21.7718 H   0  0  0  0  0  0  0  0  0  0  0  0
    6.6966   -2.0979   23.0645 H   0  0  0  0  0  0  0  0  0  0  0  0
    5.4618    0.6463   20.1482 C   0  0  0  0  0  0  0  0  0  0  0  0
    5.0587    0.6291   21.1600 H   0  0  0  0  0  0  0  0  0  0  0  0
    4.8260    1.3081   19.0959 C   0  0  0  0  0  0  0  0  0  0  0  0
    3.8851    1.8332   19.2464 H   0  0  0  0  0  0  0  0  0  0  0  0
  1  2  1  0
  2  3  2  0
  3  4  1  0
  4  5  1  0
  4  6  2  0
  6  7  1  0
  7  8  1  0
  8  9  1  0
  9 10  1  0
  9 11  2  0
 11 12  1  0
 12 13  1  0
 12 14  1  0
 14 15  1  0
 15 16  1  0
 16 17  1  0
 16 18  1  0
 16 19  1  0
 19 20  1  0
 19 21  1  0
 19 22  1  0
 22 23  1  0
 22 24  1  0
 22 25  1  0
 25 26  1  0
 25 27  1  0
  6 28  1  0
 28 29  1  0
 28 30  2  0
 30 31  1  0
 30  2  1  0
 14  8  2  0
 25 15  1  0
M  END
>  <cnnaffinity>  (1) 
-5.06557

>  <filename>  (1) 
c1cncc(Oc2cn[nH]c2N2CCCC2)c1

$$$$
