
     RDKit          3D

 34 37  0  0  0  0  0  0  0  0999 V2000
    4.9416    1.7502   16.9453 H   0  0  0  0  0  0  0  0  0  0  0  0
    5.4092    1.2938   17.8223 C   0  0  0  0  0  0  0  0  0  0  0  0
    6.5763    0.6588   17.6244 N   0  0  0  0  0  0  0  0  0  0  0  0
    7.1457    0.0677   18.6834 C   0  0  0  0  0  0  0  0  0  0  0  0
    8.0898   -0.4413   18.4926 H   0  0  0  0  0  0  0  0  0  0  0  0
    6.6236    0.0894   19.9912 C   0  0  0  0  0  0  0  0  0  0  0  0
    7.3337   -0.6232   21.0808 C   0  0  0  0  0  0  0  0  0  0  0  0
    7.8349   -1.9040   21.0994 C   0  0  0  0  0  0  0  0  0  0  0  0
    7.6753   -2.6728   20.3737 H   0  0  0  0  0  0  0  0  0  0  0  0
    8.4423   -2.0484   22.3584 C   0  0  0  0  0  0  0  0  0  0  0  0
    8.9482   -2.9108   22.7606 H   0  0  0  0  0  0  0  0  0  0  0  0
    8.3140   -0.9585   23.0899 N   0  0  0  0  0  0  0  0  0  0  0  0
    7.6068   -0.1040   22.3245 N   0  0  0  0  0  0  0  0  0  0  0  0
    7.2430    1.1532   22.8715 C   0  0  0  0  0  0  0  0  0  0  0  0
    7.7084    2.3022   22.2712 C   0  0  0  0  0  0  0  0  0  0  0  0
    8.3552    2.2336   21.3986 H   0  0  0  0  0  0  0  0  0  0  0  0
    7.3483    3.5640   22.7942 C   0  0  0  0  0  0  0  0  0  0  0  0
    7.7128    4.4559   22.2899 H   0  0  0  0  0  0  0  0  0  0  0  0
    6.5324    3.6583   23.9018 C   0  0  0  0  0  0  0  0  0  0  0  0
    6.2343    4.6330   24.2746 H   0  0  0  0  0  0  0  0  0  0  0  0
    6.0256    2.4855   24.5457 C   0  0  0  0  0  0  0  0  0  0  0  0
    5.1327    2.5648   25.6653 C   0  0  0  0  0  0  0  0  0  0  0  0
    4.8624    3.5482   26.0460 H   0  0  0  0  0  0  0  0  0  0  0  0
    4.6028    1.4276   26.2236 C   0  0  0  0  0  0  0  0  0  0  0  0
    3.9021    1.4997   27.0521 H   0  0  0  0  0  0  0  0  0  0  0  0
    4.9514    0.1487   25.7149 C   0  0  0  0  0  0  0  0  0  0  0  0
    4.4996   -0.7400   26.1458 H   0  0  0  0  0  0  0  0  0  0  0  0
    5.8370    0.0316   24.6665 C   0  0  0  0  0  0  0  0  0  0  0  0
    6.1247   -0.9479   24.3000 H   0  0  0  0  0  0  0  0  0  0  0  0
    6.3899    1.1964   24.0329 C   0  0  0  0  0  0  0  0  0  0  0  0
    5.4109    0.7725   20.1782 C   0  0  0  0  0  0  0  0  0  0  0  0
    4.9805    0.8423   21.1785 H   0  0  0  0  0  0  0  0  0  0  0  0
    4.7904    1.3605   19.0748 C   0  0  0  0  0  0  0  0  0  0  0  0
    3.8313    1.8533   19.1620 H   0  0  0  0  0  0  0  0  0  0  0  0
  1  2  1  0
  2  3  2  0
  3  4  1  0
  4  5  1  0
  4  6  2  0
  6  7  1  0
  7  8  2  0
  8  9  1  0
  8 10  1  0
 10 11  1  0
 10 12  2  0
 12 13  1  0
 13 14  1  0
 14 15  2  0
 15 16  1  0
 15 17  1  0
 17 18  1  0
 17 19  2  0
 19 20  1  0
 19 21  1  0
 21 22  2  0
 22 23  1  0
 22 24  1  0
 24 25  1  0
 24 26  2  0
 26 27  1  0
 26 28  1  0
 28 29  1  0
 28 30  2  0
  6 31  1  0
 31 32  1  0
 31 33  2  0
 33 34  1  0
 33  2  1  0
 13  7  1  0
 30 14  1  0
 30 21  1  0
M  END
>  <cnnaffinity>  (1) 
-4.7489

>  <filename>  (1) 
c1cncc(-c2ccnn2-c2cccc3ccccc23)c1

$$$$
