
     RDKit          3D

 35 38  0  0  0  0  0  0  0  0999 V2000
    5.0185    1.7978   16.9920 H   0  0  0  0  0  0  0  0  0  0  0  0
    5.4337    1.2640   17.8484 C   0  0  0  0  0  0  0  0  0  0  0  0
    6.5847    0.6104   17.6392 N   0  0  0  0  0  0  0  0  0  0  0  0
    7.1309   -0.0194   18.6886 C   0  0  0  0  0  0  0  0  0  0  0  0
    8.0751   -0.5273   18.4934 H   0  0  0  0  0  0  0  0  0  0  0  0
    6.5731   -0.0598   19.9840 C   0  0  0  0  0  0  0  0  0  0  0  0
    7.2922   -0.7639   21.1171 C   0  0  0  0  0  0  0  0  0  0  0  0
    7.0519   -2.2285   21.3488 C   0  0  0  0  0  0  0  0  0  0  0  0
    7.8880   -3.1917   21.1507 N   0  0  0  0  0  0  0  0  0  0  0  0
    7.2491   -4.3732   21.5080 N   0  0  0  0  0  0  0  0  0  0  0  0
    6.0799   -4.0105   21.9495 C   0  0  0  0  0  0  0  0  0  0  0  0
    5.0864   -4.7852   22.4527 N   0  0  0  0  0  0  0  0  0  0  0  0
    4.3071   -4.3863   23.6305 C   0  0  0  0  0  0  0  0  0  0  0  0
    3.7302   -3.4747   23.4480 H   0  0  0  0  0  0  0  0  0  0  0  0
    4.9612   -4.2025   24.5014 H   0  0  0  0  0  0  0  0  0  0  0  0
    3.4086   -5.6036   23.8505 C   0  0  0  0  0  0  0  0  0  0  0  0
    3.0664   -5.6917   24.8854 H   0  0  0  0  0  0  0  0  0  0  0  0
    2.5148   -5.5349   23.2161 H   0  0  0  0  0  0  0  0  0  0  0  0
    4.2766   -6.7928   23.4221 C   0  0  0  0  0  0  0  0  0  0  0  0
    3.6659   -7.6335   23.0810 H   0  0  0  0  0  0  0  0  0  0  0  0
    4.8919   -7.1559   24.2562 H   0  0  0  0  0  0  0  0  0  0  0  0
    5.1744   -6.2413   22.3024 C   0  0  0  0  0  0  0  0  0  0  0  0
    4.8282   -6.5474   21.3020 H   0  0  0  0  0  0  0  0  0  0  0  0
    6.2162   -6.5735   22.4160 H   0  0  0  0  0  0  0  0  0  0  0  0
    5.8744   -2.6709   21.8811 O   0  0  0  0  0  0  0  0  0  0  0  0
    7.7130    0.0796   22.3194 C   0  0  0  0  0  0  0  0  0  0  0  0
    7.4378    1.1359   22.3206 H   0  0  0  0  0  0  0  0  0  0  0  0
    7.7209   -0.3799   23.3067 H   0  0  0  0  0  0  0  0  0  0  0  0
    8.7321   -0.3640   21.3180 C   0  0  0  0  0  0  0  0  0  0  0  0
    9.1443    0.3774   20.6313 H   0  0  0  0  0  0  0  0  0  0  0  0
    9.3941   -1.1797   21.6079 H   0  0  0  0  0  0  0  0  0  0  0  0
    5.3705    0.6290   20.1739 C   0  0  0  0  0  0  0  0  0  0  0  0
    4.9117    0.6544   21.1649 H   0  0  0  0  0  0  0  0  0  0  0  0
    4.7885    1.2916   19.0886 C   0  0  0  0  0  0  0  0  0  0  0  0
    3.8622    1.8417   19.1924 H   0  0  0  0  0  0  0  0  0  0  0  0
  1  2  1  0
  2  3  2  0
  3  4  1  0
  4  5  1  0
  4  6  2  0
  6  7  1  0
  7  8  1  0
  8  9  2  0
  9 10  1  0
 10 11  2  0
 11 12  1  0
 12 13  1  0
 13 14  1  0
 13 15  1  0
 13 16  1  0
 16 17  1  0
 16 18  1  0
 16 19  1  0
 19 20  1  0
 19 21  1  0
 19 22  1  0
 22 23  1  0
 22 24  1  0
 11 25  1  0
  7 26  1  0
 26 27  1  0
 26 28  1  0
 26 29  1  0
 29 30  1  0
 29 31  1  0
  6 32  1  0
 32 33  1  0
 32 34  2  0
 34 35  1  0
 34  2  1  0
 29  7  1  0
 25  8  1  0
 22 12  1  0
M  END
>  <cnnaffinity>  (1) 
-4.57842

>  <filename>  (1) 
c1cncc(C2(c3nnc(N4CCCC4)o3)CC2)c1

$$$$
