
     RDKit          3D

 41 44  0  0  0  0  0  0  0  0999 V2000
    4.9302    1.8052   16.9689 H   0  0  0  0  0  0  0  0  0  0  0  0
    5.4047    1.2986   17.8093 C   0  0  0  0  0  0  0  0  0  0  0  0
    6.5675    0.6765   17.5553 N   0  0  0  0  0  0  0  0  0  0  0  0
    7.1922    0.0752   18.5709 C   0  0  0  0  0  0  0  0  0  0  0  0
    8.1353   -0.4068   18.3234 H   0  0  0  0  0  0  0  0  0  0  0  0
    6.6972    0.0428   19.8854 C   0  0  0  0  0  0  0  0  0  0  0  0
    7.4106   -0.6849   20.9493 C   0  0  0  0  0  0  0  0  0  0  0  0
    8.6213   -1.2316   20.7574 N   0  0  0  0  0  0  0  0  0  0  0  0
    8.8299   -1.8850   21.9227 N   0  0  0  0  0  0  0  0  0  0  0  0
    9.7582   -2.8098   22.3583 C   0  0  0  0  0  0  0  0  0  0  0  0
   10.6749   -2.9176   21.8086 H   0  0  0  0  0  0  0  0  0  0  0  0
    9.2536   -3.3197   23.5204 C   0  0  0  0  0  0  0  0  0  0  0  0
    9.5883   -4.1371   24.1409 H   0  0  0  0  0  0  0  0  0  0  0  0
    8.0676   -2.6617   23.8262 N   0  0  0  0  0  0  0  0  0  0  0  0
    7.0382   -3.0041   24.7934 C   0  0  0  0  0  0  0  0  0  0  0  0
    6.6325   -2.0578   25.1733 H   0  0  0  0  0  0  0  0  0  0  0  0
    7.5015   -3.5276   25.6406 H   0  0  0  0  0  0  0  0  0  0  0  0
    5.8984   -3.8446   24.1773 C   0  0  0  0  0  0  0  0  0  0  0  0
    5.5123   -3.2778   23.3091 H   0  0  0  0  0  0  0  0  0  0  0  0
    6.4078   -5.2082   23.6625 C   0  0  0  0  0  0  0  0  0  0  0  0
    7.1795   -5.0509   22.8950 H   0  0  0  0  0  0  0  0  0  0  0  0
    6.8971   -5.7351   24.4992 H   0  0  0  0  0  0  0  0  0  0  0  0
    5.2709   -6.0889   23.1140 C   0  0  0  0  0  0  0  0  0  0  0  0
    5.6676   -7.0663   22.8093 H   0  0  0  0  0  0  0  0  0  0  0  0
    4.8572   -5.6303   22.2018 H   0  0  0  0  0  0  0  0  0  0  0  0
    4.1431   -6.2672   24.1465 C   0  0  0  0  0  0  0  0  0  0  0  0
    4.5250   -6.8351   25.0099 H   0  0  0  0  0  0  0  0  0  0  0  0
    3.3278   -6.8704   23.7266 H   0  0  0  0  0  0  0  0  0  0  0  0
    3.6136   -4.9061   24.6317 C   0  0  0  0  0  0  0  0  0  0  0  0
    3.1252   -4.3841   23.7941 H   0  0  0  0  0  0  0  0  0  0  0  0
    2.8380   -5.0433   25.3953 H   0  0  0  0  0  0  0  0  0  0  0  0
    4.7477   -4.0270   25.1857 C   0  0  0  0  0  0  0  0  0  0  0  0
    4.3594   -3.0417   25.4802 H   0  0  0  0  0  0  0  0  0  0  0  0
    5.1581   -4.4864   26.1006 H   0  0  0  0  0  0  0  0  0  0  0  0
    7.8162   -1.7903   22.8001 C   0  0  0  0  0  0  0  0  0  0  0  0
    6.8656   -0.9735   22.2209 C   0  0  0  0  0  0  0  0  0  0  0  0
    5.9285   -0.6232   22.5911 H   0  0  0  0  0  0  0  0  0  0  0  0
    5.4627    0.6759   20.1249 C   0  0  0  0  0  0  0  0  0  0  0  0
    5.0116    0.6741   21.1174 H   0  0  0  0  0  0  0  0  0  0  0  0
    4.8111    1.3154   19.0760 C   0  0  0  0  0  0  0  0  0  0  0  0
    3.8696    1.8399   19.2274 H   0  0  0  0  0  0  0  0  0  0  0  0
  1  2  1  0
  2  3  2  0
  3  4  1  0
  4  5  1  0
  4  6  2  0
  6  7  1  0
  7  8  2  0
  8  9  1  0
  9 10  1  0
 10 11  1  0
 10 12  2  0
 12 13  1  0
 12 14  1  0
 14 15  1  0
 15 16  1  0
 15 17  1  0
 15 18  1  0
 18 19  1  0
 18 20  1  0
 20 21  1  0
 20 22  1  0
 20 23  1  0
 23 24  1  0
 23 25  1  0
 23 26  1  0
 26 27  1  0
 26 28  1  0
 26 29  1  0
 29 30  1  0
 29 31  1  0
 29 32  1  0
 32 33  1  0
 32 34  1  0
 14 35  1  0
 35 36  2  0
 36 37  1  0
  6 38  1  0
 38 39  1  0
 38 40  2  0
 40 41  1  0
 40  2  1  0
 36  7  1  0
 35  9  1  0
 32 18  1  0
M  END
>  <cnnaffinity>  (1) 
-5.81758

>  <filename>  (1) 
c1cncc(-c2cc3n(CC4CCCCC4)ccn3n2)c1

$$$$
