
     RDKit          3D

 24 26  0  0  0  0  0  0  0  0999 V2000
    4.9218    1.7825   16.9935 H   0  0  0  0  0  0  0  0  0  0  0  0
    5.4010    1.2957   17.8365 C   0  0  0  0  0  0  0  0  0  0  0  0
    6.5659    0.6799   17.5779 N   0  0  0  0  0  0  0  0  0  0  0  0
    7.1686    0.0647   18.5966 C   0  0  0  0  0  0  0  0  0  0  0  0
    8.1098   -0.4375   18.3792 H   0  0  0  0  0  0  0  0  0  0  0  0
    6.6509    0.0434   19.9005 C   0  0  0  0  0  0  0  0  0  0  0  0
    7.3617   -0.7152   20.9196 C   0  0  0  0  0  0  0  0  0  0  0  0
    7.8680   -1.9043   20.7599 N   0  0  0  0  0  0  0  0  0  0  0  0
    8.3524   -2.3287   21.9768 N   0  0  0  0  0  0  0  0  0  0  0  0
    8.1432   -1.3752   22.8369 C   0  0  0  0  0  0  0  0  0  0  0  0
    8.4179   -1.4034   23.8846 H   0  0  0  0  0  0  0  0  0  0  0  0
    7.5319   -0.3048   22.2249 N   0  0  0  0  0  0  0  0  0  0  0  0
    7.2572    0.9034   22.8390 C   0  0  0  0  0  0  0  0  0  0  0  0
    7.0073    1.0256   24.1102 N   0  0  0  0  0  0  0  0  0  0  0  0
    6.8419    2.3759   24.3027 C   0  0  0  0  0  0  0  0  0  0  0  0
    6.6322    2.7927   25.2740 H   0  0  0  0  0  0  0  0  0  0  0  0
    7.0101    3.0748   23.1475 C   0  0  0  0  0  0  0  0  0  0  0  0
    6.9689    4.1360   22.9306 H   0  0  0  0  0  0  0  0  0  0  0  0
    7.2910    2.0998   22.2025 N   0  0  0  0  0  0  0  0  0  0  0  0
    7.4766    2.2098   21.2248 H   0  0  0  0  0  0  0  0  0  0  0  0
    5.4215    0.6662   20.1571 C   0  0  0  0  0  0  0  0  0  0  0  0
    4.9942    0.6392   21.1666 H   0  0  0  0  0  0  0  0  0  0  0  0
    4.7940    1.3162   19.0978 C   0  0  0  0  0  0  0  0  0  0  0  0
    3.8639    1.8463   19.2511 H   0  0  0  0  0  0  0  0  0  0  0  0
  1  2  1  0
  2  3  2  0
  3  4  1  0
  4  5  1  0
  4  6  2  0
  6  7  1  0
  7  8  2  0
  8  9  1  0
  9 10  2  0
 10 11  1  0
 10 12  1  0
 12 13  1  0
 13 14  2  0
 14 15  1  0
 15 16  1  0
 15 17  2  0
 17 18  1  0
 17 19  1  0
 19 20  1  0
  6 21  1  0
 21 22  1  0
 21 23  2  0
 23 24  1  0
 23  2  1  0
 12  7  1  0
 19 13  1  0
M  END
>  <cnnaffinity>  (1) 
-4.60284

>  <filename>  (1) 
c1cncc(-c2nncn2-c2ncc[nH]2)c1

$$$$
