
     RDKit          3D

 37 40  0  0  0  0  0  0  0  0999 V2000
    4.9137    1.7858   16.9885 H   0  0  0  0  0  0  0  0  0  0  0  0
    5.3976    1.2991   17.8289 C   0  0  0  0  0  0  0  0  0  0  0  0
    6.5585    0.6788   17.5630 N   0  0  0  0  0  0  0  0  0  0  0  0
    7.1600    0.0680   18.5915 C   0  0  0  0  0  0  0  0  0  0  0  0
    8.1082   -0.4265   18.3792 H   0  0  0  0  0  0  0  0  0  0  0  0
    6.6357    0.0160   19.8954 C   0  0  0  0  0  0  0  0  0  0  0  0
    7.3541   -0.6910   20.9526 C   0  0  0  0  0  0  0  0  0  0  0  0
    8.6822   -0.6394   21.2961 C   0  0  0  0  0  0  0  0  0  0  0  0
    9.7724    0.2240   20.7262 C   0  0  0  0  0  0  0  0  0  0  0  0
   10.4730   -0.4654   20.2441 H   0  0  0  0  0  0  0  0  0  0  0  0
    9.3824    0.8923   19.9502 H   0  0  0  0  0  0  0  0  0  0  0  0
   10.5031    1.0316   21.7709 C   0  0  0  0  0  0  0  0  0  0  0  0
   11.7396    0.6094   22.2198 C   0  0  0  0  0  0  0  0  0  0  0  0
   12.2014   -0.2776   21.7845 H   0  0  0  0  0  0  0  0  0  0  0  0
   12.4297    1.2956   23.2507 C   0  0  0  0  0  0  0  0  0  0  0  0
   13.4072    0.9432   23.5760 H   0  0  0  0  0  0  0  0  0  0  0  0
   11.8521    2.4032   23.8193 C   0  0  0  0  0  0  0  0  0  0  0  0
   12.3359    2.9554   24.6019 H   0  0  0  0  0  0  0  0  0  0  0  0
   10.5761    2.8780   23.4095 C   0  0  0  0  0  0  0  0  0  0  0  0
    9.9882    4.0278   24.0230 C   0  0  0  0  0  0  0  0  0  0  0  0
   10.5455    4.5438   24.8050 H   0  0  0  0  0  0  0  0  0  0  0  0
    8.7501    4.4729   23.6330 C   0  0  0  0  0  0  0  0  0  0  0  0
    8.3064    5.3509   24.1011 H   0  0  0  0  0  0  0  0  0  0  0  0
    8.0385    3.7850   22.6094 C   0  0  0  0  0  0  0  0  0  0  0  0
    7.0603    4.1535   22.3071 H   0  0  0  0  0  0  0  0  0  0  0  0
    8.5769    2.6751   21.9962 C   0  0  0  0  0  0  0  0  0  0  0  0
    8.0159    2.1558   21.2172 H   0  0  0  0  0  0  0  0  0  0  0  0
    9.8753    2.1832   22.3711 C   0  0  0  0  0  0  0  0  0  0  0  0
    8.7928   -1.5305   22.3829 C   0  0  0  0  0  0  0  0  0  0  0  0
    9.6927   -1.7394   22.9368 H   0  0  0  0  0  0  0  0  0  0  0  0
    7.6365   -2.0901   22.7056 N   0  0  0  0  0  0  0  0  0  0  0  0
    6.7732   -1.5454   21.8289 N   0  0  0  0  0  0  0  0  0  0  0  0
    5.7991   -1.8018   21.8371 H   0  0  0  0  0  0  0  0  0  0  0  0
    5.4171    0.6589   20.1489 C   0  0  0  0  0  0  0  0  0  0  0  0
    4.9992    0.6397   21.1598 H   0  0  0  0  0  0  0  0  0  0  0  0
    4.7958    1.3214   19.0948 C   0  0  0  0  0  0  0  0  0  0  0  0
    3.8642    1.8521   19.2520 H   0  0  0  0  0  0  0  0  0  0  0  0
  1  2  1  0
  2  3  2  0
  3  4  1  0
  4  5  1  0
  4  6  2  0
  6  7  1  0
  7  8  2  0
  8  9  1  0
  9 10  1  0
  9 11  1  0
  9 12  1  0
 12 13  2  0
 13 14  1  0
 13 15  1  0
 15 16  1  0
 15 17  2  0
 17 18  1  0
 17 19  1  0
 19 20  2  0
 20 21  1  0
 20 22  1  0
 22 23  1  0
 22 24  2  0
 24 25  1  0
 24 26  1  0
 26 27  1  0
 26 28  2  0
  8 29  1  0
 29 30  1  0
 29 31  2  0
 31 32  1  0
 32 33  1  0
  6 34  1  0
 34 35  1  0
 34 36  2  0
 36 37  1  0
 36  2  1  0
 32  7  1  0
 28 12  1  0
 28 19  1  0
M  END
>  <cnnaffinity>  (1) 
-5.77203

>  <filename>  (1) 
c1cncc(-c2[nH]ncc2Cc2cccc3ccccc23)c1

$$$$
