
     RDKit          3D

 32 35  0  0  0  0  0  0  0  0999 V2000
    4.9207    1.8161   16.9688 H   0  0  0  0  0  0  0  0  0  0  0  0
    5.3793    1.3068   17.8169 C   0  0  0  0  0  0  0  0  0  0  0  0
    6.5383    0.6831   17.5659 N   0  0  0  0  0  0  0  0  0  0  0  0
    7.1378    0.0557   18.5829 C   0  0  0  0  0  0  0  0  0  0  0  0
    8.0928   -0.4157   18.3496 H   0  0  0  0  0  0  0  0  0  0  0  0
    6.6213   -0.0105   19.8932 C   0  0  0  0  0  0  0  0  0  0  0  0
    7.3711   -0.7473   20.9996 C   0  0  0  0  0  0  0  0  0  0  0  0
    6.8005   -0.7255   21.9335 H   0  0  0  0  0  0  0  0  0  0  0  0
    7.5125   -1.8054   20.7420 H   0  0  0  0  0  0  0  0  0  0  0  0
    8.7451   -0.2088   21.2316 C   0  0  0  0  0  0  0  0  0  0  0  0
    9.8472   -0.7934   20.8395 N   0  0  0  0  0  0  0  0  0  0  0  0
   10.8628    0.0411   21.1528 N   0  0  0  0  0  0  0  0  0  0  0  0
   10.4343    1.1018   21.7096 N   0  0  0  0  0  0  0  0  0  0  0  0
    9.0799    0.9830   21.7909 N   0  0  0  0  0  0  0  0  0  0  0  0
    8.3454    1.9907   22.3901 C   0  0  0  0  0  0  0  0  0  0  0  0
    7.0080    1.7862   22.5311 O   0  0  0  0  0  0  0  0  0  0  0  0
    6.5279    2.9105   23.1547 C   0  0  0  0  0  0  0  0  0  0  0  0
    5.2092    3.1892   23.5153 C   0  0  0  0  0  0  0  0  0  0  0  0
    4.3930    2.5009   23.3229 H   0  0  0  0  0  0  0  0  0  0  0  0
    4.9727    4.4157   24.1359 C   0  0  0  0  0  0  0  0  0  0  0  0
    3.9646    4.6840   24.4317 H   0  0  0  0  0  0  0  0  0  0  0  0
    6.0135    5.3285   24.3853 C   0  0  0  0  0  0  0  0  0  0  0  0
    5.7949    6.2771   24.8647 H   0  0  0  0  0  0  0  0  0  0  0  0
    7.3189    5.0358   24.0179 C   0  0  0  0  0  0  0  0  0  0  0  0
    8.1276    5.7328   24.1975 H   0  0  0  0  0  0  0  0  0  0  0  0
    7.5883    3.8058   23.3899 C   0  0  0  0  0  0  0  0  0  0  0  0
    8.7665    3.1777   22.8760 C   0  0  0  0  0  0  0  0  0  0  0  0
    9.7946    3.5202   22.8425 H   0  0  0  0  0  0  0  0  0  0  0  0
    5.4134    0.6497   20.1314 C   0  0  0  0  0  0  0  0  0  0  0  0
    4.9928    0.6427   21.1362 H   0  0  0  0  0  0  0  0  0  0  0  0
    4.7814    1.3207   19.0803 C   0  0  0  0  0  0  0  0  0  0  0  0
    3.8512    1.8571   19.2203 H   0  0  0  0  0  0  0  0  0  0  0  0
  1  2  1  0
  2  3  2  0
  3  4  1  0
  4  5  1  0
  4  6  2  0
  6  7  1  0
  7  8  1  0
  7  9  1  0
  7 10  1  0
 10 11  2  0
 11 12  1  0
 12 13  2  0
 13 14  1  0
 14 15  1  0
 15 16  1  0
 16 17  1  0
 17 18  2  0
 18 19  1  0
 18 20  1  0
 20 21  1  0
 20 22  2  0
 22 23  1  0
 22 24  1  0
 24 25  1  0
 24 26  2  0
 26 27  1  0
 27 28  1  0
  6 29  1  0
 29 30  1  0
 29 31  2  0
 31 32  1  0
 31  2  1  0
 14 10  1  0
 27 15  2  0
 26 17  1  0
M  END
>  <cnnaffinity>  (1) 
-5.0943

>  <filename>  (1) 
c1cncc(Cc2nnnn2-c2cc3ccccc3o2)c1

$$$$
