
     RDKit          3D

 39 41  0  0  0  0  0  0  0  0999 V2000
    5.1115    1.7951   16.9112 H   0  0  0  0  0  0  0  0  0  0  0  0
    5.5286    1.2742   17.7702 C   0  0  0  0  0  0  0  0  0  0  0  0
    6.6657    0.5950   17.5526 N   0  0  0  0  0  0  0  0  0  0  0  0
    7.2011   -0.0401   18.6048 C   0  0  0  0  0  0  0  0  0  0  0  0
    8.1348   -0.5680   18.4164 H   0  0  0  0  0  0  0  0  0  0  0  0
    6.6356   -0.0568   19.9014 C   0  0  0  0  0  0  0  0  0  0  0  0
    7.2823   -0.7684   21.0126 C   0  0  0  0  0  0  0  0  0  0  0  0
    8.6167   -0.8617   21.3564 C   0  0  0  0  0  0  0  0  0  0  0  0
    9.6338   -0.1443   20.7058 N   0  0  0  0  0  0  0  0  0  0  0  0
    9.2764    0.7962   20.5221 H   0  0  0  0  0  0  0  0  0  0  0  0
   10.9104   -0.1180   21.3973 C   0  0  0  0  0  0  0  0  0  0  0  0
   11.6967    0.0895   20.6762 H   0  0  0  0  0  0  0  0  0  0  0  0
   11.1100   -1.1336   21.7596 H   0  0  0  0  0  0  0  0  0  0  0  0
   11.0000    0.9042   22.5386 C   0  0  0  0  0  0  0  0  0  0  0  0
   10.3038    0.5976   23.3388 H   0  0  0  0  0  0  0  0  0  0  0  0
   10.5603    2.3210   22.0637 C   0  0  0  0  0  0  0  0  0  0  0  0
   10.7977    2.4580   20.9963 H   0  0  0  0  0  0  0  0  0  0  0  0
    9.4652    2.3812   22.1527 H   0  0  0  0  0  0  0  0  0  0  0  0
   11.1918    3.4944   22.8460 C   0  0  0  0  0  0  0  0  0  0  0  0
   10.4888    4.3382   22.8570 H   0  0  0  0  0  0  0  0  0  0  0  0
   12.0919    3.8454   22.3204 H   0  0  0  0  0  0  0  0  0  0  0  0
   11.5835    3.0880   24.2701 C   0  0  0  0  0  0  0  0  0  0  0  0
   12.0020    3.9516   24.8013 H   0  0  0  0  0  0  0  0  0  0  0  0
   10.6801    2.7903   24.8254 H   0  0  0  0  0  0  0  0  0  0  0  0
   12.6098    1.9281   24.2611 C   0  0  0  0  0  0  0  0  0  0  0  0
   12.5807    1.4177   25.2290 H   0  0  0  0  0  0  0  0  0  0  0  0
   13.6216    2.3319   24.1495 H   0  0  0  0  0  0  0  0  0  0  0  0
   12.4199    0.9102   23.1158 C   0  0  0  0  0  0  0  0  0  0  0  0
   13.1201    1.1388   22.2951 H   0  0  0  0  0  0  0  0  0  0  0  0
   12.6705   -0.0977   23.4700 H   0  0  0  0  0  0  0  0  0  0  0  0
    8.6427   -1.7679   22.4549 C   0  0  0  0  0  0  0  0  0  0  0  0
    9.4959   -2.1116   23.0234 H   0  0  0  0  0  0  0  0  0  0  0  0
    7.4194   -2.1626   22.7958 N   0  0  0  0  0  0  0  0  0  0  0  0
    6.6149   -1.5354   21.9221 N   0  0  0  0  0  0  0  0  0  0  0  0
    5.6147   -1.6036   22.0387 H   0  0  0  0  0  0  0  0  0  0  0  0
    5.4416    0.6542   20.0960 C   0  0  0  0  0  0  0  0  0  0  0  0
    4.9857    0.6879   21.0891 H   0  0  0  0  0  0  0  0  0  0  0  0
    4.8839    1.3301   19.0130 C   0  0  0  0  0  0  0  0  0  0  0  0
    3.9727    1.9078   19.1217 H   0  0  0  0  0  0  0  0  0  0  0  0
  1  2  1  0
  2  3  2  0
  3  4  1  0
  4  5  1  0
  4  6  2  0
  6  7  1  0
  7  8  2  0
  8  9  1  0
  9 10  1  0
  9 11  1  0
 11 12  1  0
 11 13  1  0
 11 14  1  0
 14 15  1  0
 14 16  1  0
 16 17  1  0
 16 18  1  0
 16 19  1  0
 19 20  1  0
 19 21  1  0
 19 22  1  0
 22 23  1  0
 22 24  1  0
 22 25  1  0
 25 26  1  0
 25 27  1  0
 25 28  1  0
 28 29  1  0
 28 30  1  0
  8 31  1  0
 31 32  1  0
 31 33  2  0
 33 34  1  0
 34 35  1  0
  6 36  1  0
 36 37  1  0
 36 38  2  0
 38 39  1  0
 38  2  1  0
 34  7  1  0
 28 14  1  0
M  END
>  <cnnaffinity>  (1) 
-5.66741

>  <filename>  (1) 
c1cncc(-c2[nH]ncc2NCC2CCCCC2)c1

$$$$
