
     RDKit          3D

 31 34  0  0  0  0  0  0  0  0999 V2000
    5.1945    1.7651   16.9414 H   0  0  0  0  0  0  0  0  0  0  0  0
    5.5806    1.2644   17.8286 C   0  0  0  0  0  0  0  0  0  0  0  0
    6.7426    0.6107   17.6797 N   0  0  0  0  0  0  0  0  0  0  0  0
    7.2396   -0.0173   18.7527 C   0  0  0  0  0  0  0  0  0  0  0  0
    8.2001   -0.5117   18.6265 H   0  0  0  0  0  0  0  0  0  0  0  0
    6.5913   -0.0730   20.0048 C   0  0  0  0  0  0  0  0  0  0  0  0
    7.1000   -0.9075   21.1140 C   0  0  0  0  0  0  0  0  0  0  0  0
    6.3972   -1.7872   21.8552 C   0  0  0  0  0  0  0  0  0  0  0  0
    5.3485   -2.0167   21.7369 H   0  0  0  0  0  0  0  0  0  0  0  0
    7.3568   -2.6184   23.0518 S   0  0  0  0  0  0  0  0  0  0  0  0
    8.7542   -1.7242   22.5357 C   0  0  0  0  0  0  0  0  0  0  0  0
   10.0432   -1.6557   22.8195 N   0  0  0  0  0  0  0  0  0  0  0  0
   10.4731   -0.7621   21.8881 C   0  0  0  0  0  0  0  0  0  0  0  0
   11.8890   -0.3642   21.6835 C   0  0  2  0  0  0  0  0  0  0  0  0
   11.8039    0.3513   20.8673 H   0  0  0  0  0  0  0  0  0  0  0  0
   12.7814   -1.5540   21.2935 C   0  0  0  0  0  0  0  0  0  0  0  0
   12.6301   -1.9550   20.2914 H   0  0  0  0  0  0  0  0  0  0  0  0
   12.6583   -2.3756   22.0217 H   0  0  0  0  0  0  0  0  0  0  0  0
   14.0812   -1.0239   21.3346 O   0  0  0  0  0  0  0  0  0  0  0  0
   14.1629   -0.2692   22.5252 C   0  0  0  0  0  0  0  0  0  0  0  0
   14.4947   -0.9209   23.3357 H   0  0  0  0  0  0  0  0  0  0  0  0
   14.9421    0.4807   22.3821 H   0  0  0  0  0  0  0  0  0  0  0  0
   12.7494    0.3033   22.7956 C   0  0  0  0  0  0  0  0  0  0  0  0
   12.4121    0.0652   23.8083 H   0  0  0  0  0  0  0  0  0  0  0  0
   12.7301    1.3914   22.7082 H   0  0  0  0  0  0  0  0  0  0  0  0
    9.5538   -0.3005   21.0536 N   0  0  0  0  0  0  0  0  0  0  0  0
    8.4374   -0.9185   21.5039 N   0  0  0  0  0  0  0  0  0  0  0  0
    5.3931    0.6439   20.1450 C   0  0  0  0  0  0  0  0  0  0  0  0
    4.8937    0.6803   21.1148 H   0  0  0  0  0  0  0  0  0  0  0  0
    4.8804    1.3239   19.0392 C   0  0  0  0  0  0  0  0  0  0  0  0
    3.9621    1.8955   19.1056 H   0  0  0  0  0  0  0  0  0  0  0  0
  1  2  1  0
  2  3  2  0
  3  4  1  0
  4  5  1  0
  4  6  2  0
  6  7  1  0
  7  8  2  0
  8  9  1  0
  8 10  1  0
 10 11  1  0
 11 12  2  0
 12 13  1  0
 13 14  1  0
 14 15  1  6
 14 16  1  0
 16 17  1  0
 16 18  1  0
 16 19  1  0
 19 20  1  0
 20 21  1  0
 20 22  1  0
 20 23  1  0
 23 24  1  0
 23 25  1  0
 13 26  2  0
 26 27  1  0
  6 28  1  0
 28 29  1  0
 28 30  2  0
 30 31  1  0
 30  2  1  0
 27  7  1  0
 27 11  1  0
 23 14  1  0
M  END
>  <cnnaffinity>  (1) 
-5.62734

>  <filename>  (1) 
c1cncc(-c2csc3nc([C@H]4CCOC4)nn23)c1

$$$$
