
     RDKit          3D

 42 45  0  0  0  0  0  0  0  0999 V2000
    4.9830    1.7963   16.9813 H   0  0  0  0  0  0  0  0  0  0  0  0
    5.4222    1.2800   17.8357 C   0  0  0  0  0  0  0  0  0  0  0  0
    6.5799    0.6414   17.6113 N   0  0  0  0  0  0  0  0  0  0  0  0
    7.1473    0.0225   18.6556 C   0  0  0  0  0  0  0  0  0  0  0  0
    8.0893   -0.4865   18.4521 H   0  0  0  0  0  0  0  0  0  0  0  0
    6.6103   -0.0095   19.9573 C   0  0  0  0  0  0  0  0  0  0  0  0
    7.3355   -0.7155   21.0784 C   0  0  0  0  0  0  0  0  0  0  0  0
    7.0441   -2.1730   21.2763 C   0  0  0  0  0  0  0  0  0  0  0  0
    7.8431   -3.1696   21.0702 N   0  0  0  0  0  0  0  0  0  0  0  0
    7.1560   -4.3176   21.3960 N   0  0  0  0  0  0  0  0  0  0  0  0
    6.0054   -3.9345   21.8496 C   0  0  0  0  0  0  0  0  0  0  0  0
    5.0660   -4.7896   22.6128 C   0  0  0  0  0  0  0  0  0  0  0  0
    5.1077   -5.7825   22.1518 H   0  0  0  0  0  0  0  0  0  0  0  0
    4.0418   -4.4133   22.5405 H   0  0  0  0  0  0  0  0  0  0  0  0
    5.4882   -4.8970   24.1015 C   0  0  0  0  0  0  0  0  0  0  0  0
    5.4836   -3.8818   24.5408 H   0  0  0  0  0  0  0  0  0  0  0  0
    6.9219   -5.4515   24.2563 C   0  0  0  0  0  0  0  0  0  0  0  0
    7.6357   -4.7606   23.7868 H   0  0  0  0  0  0  0  0  0  0  0  0
    7.0059   -6.3875   23.6826 H   0  0  0  0  0  0  0  0  0  0  0  0
    7.3149   -5.6734   25.7234 C   0  0  0  0  0  0  0  0  0  0  0  0
    7.4474   -4.6873   26.1970 H   0  0  0  0  0  0  0  0  0  0  0  0
    8.2874   -6.1810   25.7671 H   0  0  0  0  0  0  0  0  0  0  0  0
    6.2662   -6.4675   26.5176 C   0  0  0  0  0  0  0  0  0  0  0  0
    6.5592   -6.5112   27.5749 H   0  0  0  0  0  0  0  0  0  0  0  0
    6.2284   -7.5047   26.1565 H   0  0  0  0  0  0  0  0  0  0  0  0
    4.8632   -5.8619   26.3692 C   0  0  0  0  0  0  0  0  0  0  0  0
    4.8494   -4.8576   26.8229 H   0  0  0  0  0  0  0  0  0  0  0  0
    4.1262   -6.4697   26.9094 H   0  0  0  0  0  0  0  0  0  0  0  0
    4.4755   -5.7466   24.8873 C   0  0  0  0  0  0  0  0  0  0  0  0
    3.4704   -5.3124   24.7899 H   0  0  0  0  0  0  0  0  0  0  0  0
    4.4300   -6.7553   24.4414 H   0  0  0  0  0  0  0  0  0  0  0  0
    5.8452   -2.5910   21.7678 O   0  0  0  0  0  0  0  0  0  0  0  0
    7.7382    0.1017   22.3029 C   0  0  0  0  0  0  0  0  0  0  0  0
    7.4584    1.1546   22.3234 H   0  0  0  0  0  0  0  0  0  0  0  0
    7.7236   -0.3882   23.2722 H   0  0  0  0  0  0  0  0  0  0  0  0
    8.7746   -0.3157   21.3144 C   0  0  0  0  0  0  0  0  0  0  0  0
    9.1996    0.4469   20.6639 H   0  0  0  0  0  0  0  0  0  0  0  0
    9.4432   -1.1235   21.6014 H   0  0  0  0  0  0  0  0  0  0  0  0
    5.3958    0.6543   20.1617 C   0  0  0  0  0  0  0  0  0  0  0  0
    4.9428    0.6663   21.1553 H   0  0  0  0  0  0  0  0  0  0  0  0
    4.7909    1.3052   19.0832 C   0  0  0  0  0  0  0  0  0  0  0  0
    3.8557    1.8401   19.1985 H   0  0  0  0  0  0  0  0  0  0  0  0
  1  2  1  0
  2  3  2  0
  3  4  1  0
  4  5  1  0
  4  6  2  0
  6  7  1  0
  7  8  1  0
  8  9  2  0
  9 10  1  0
 10 11  2  0
 11 12  1  0
 12 13  1  0
 12 14  1  0
 12 15  1  0
 15 16  1  0
 15 17  1  0
 17 18  1  0
 17 19  1  0
 17 20  1  0
 20 21  1  0
 20 22  1  0
 20 23  1  0
 23 24  1  0
 23 25  1  0
 23 26  1  0
 26 27  1  0
 26 28  1  0
 26 29  1  0
 29 30  1  0
 29 31  1  0
 11 32  1  0
  7 33  1  0
 33 34  1  0
 33 35  1  0
 33 36  1  0
 36 37  1  0
 36 38  1  0
  6 39  1  0
 39 40  1  0
 39 41  2  0
 41 42  1  0
 41  2  1  0
 36  7  1  0
 32  8  1  0
 29 15  1  0
M  END
>  <cnnaffinity>  (1) 
-5.38022

>  <filename>  (1) 
c1cncc(C2(c3nnc(CC4CCCCC4)o3)CC2)c1

$$$$
