
     RDKit          3D

 40 43  0  0  0  0  0  0  0  0999 V2000
    4.9682    1.8124   16.9600 H   0  0  0  0  0  0  0  0  0  0  0  0
    5.4109    1.2878   17.8048 C   0  0  0  0  0  0  0  0  0  0  0  0
    6.5467    0.6137   17.5613 N   0  0  0  0  0  0  0  0  0  0  0  0
    7.1250   -0.0085   18.5935 C   0  0  0  0  0  0  0  0  0  0  0  0
    8.0325   -0.5671   18.3682 H   0  0  0  0  0  0  0  0  0  0  0  0
    6.6432    0.0488   19.9113 C   0  0  0  0  0  0  0  0  0  0  0  0
    7.4227   -0.5774   20.9813 C   0  0  0  0  0  0  0  0  0  0  0  0
    7.7994   -1.8967   20.8765 N   0  0  0  0  0  0  0  0  0  0  0  0
    8.4030   -2.1411   22.0114 C   0  0  0  0  0  0  0  0  0  0  0  0
    9.2039   -3.5051   22.7682 S   0  0  0  0  0  0  0  0  0  0  0  0
    9.7546   -2.4659   24.0765 C   0  0  0  0  0  0  0  0  0  0  0  0
   10.4697   -2.8353   24.8019 H   0  0  0  0  0  0  0  0  0  0  0  0
    9.2737   -1.2180   23.9672 C   0  0  0  0  0  0  0  0  0  0  0  0
    9.4407   -0.3717   24.6226 H   0  0  0  0  0  0  0  0  0  0  0  0
    8.4964   -1.0441   22.8260 N   0  0  0  0  0  0  0  0  0  0  0  0
    7.8580   -0.0046   22.1749 C   0  0  0  0  0  0  0  0  0  0  0  0
    7.7490    1.3608   22.7881 C   0  0  0  0  0  0  0  0  0  0  0  0
    7.2040    2.0019   22.0850 H   0  0  0  0  0  0  0  0  0  0  0  0
    8.7534    1.7965   22.8954 H   0  0  0  0  0  0  0  0  0  0  0  0
    7.0347    1.3917   24.1662 C   0  0  0  0  0  0  0  0  0  0  0  0
    7.5717    0.7183   24.8488 H   0  0  0  0  0  0  0  0  0  0  0  0
    5.6024    0.8530   24.0331 C   0  0  0  0  0  0  0  0  0  0  0  0
    5.7169   -0.1821   23.6990 H   0  0  0  0  0  0  0  0  0  0  0  0
    5.0633    1.4285   23.2604 H   0  0  0  0  0  0  0  0  0  0  0  0
    4.7792    0.9002   25.3272 C   0  0  0  0  0  0  0  0  0  0  0  0
    3.7395    0.6202   25.1081 H   0  0  0  0  0  0  0  0  0  0  0  0
    5.1625    0.1448   26.0250 H   0  0  0  0  0  0  0  0  0  0  0  0
    4.8340    2.2741   26.0055 C   0  0  0  0  0  0  0  0  0  0  0  0
    4.2897    3.0014   25.3845 H   0  0  0  0  0  0  0  0  0  0  0  0
    4.3269    2.2230   26.9797 H   0  0  0  0  0  0  0  0  0  0  0  0
    6.2846    2.7529   26.1827 C   0  0  0  0  0  0  0  0  0  0  0  0
    6.7999    2.0712   26.8795 H   0  0  0  0  0  0  0  0  0  0  0  0
    6.2941    3.7503   26.6404 H   0  0  0  0  0  0  0  0  0  0  0  0
    7.0525    2.7730   24.8452 C   0  0  0  0  0  0  0  0  0  0  0  0
    8.0918    3.0844   25.0278 H   0  0  0  0  0  0  0  0  0  0  0  0
    6.5959    3.5217   24.1781 H   0  0  0  0  0  0  0  0  0  0  0  0
    5.4212    0.7042   20.1364 C   0  0  0  0  0  0  0  0  0  0  0  0
    4.9564    0.7091   21.1272 H   0  0  0  0  0  0  0  0  0  0  0  0
    4.7983    1.3301   19.0608 C   0  0  0  0  0  0  0  0  0  0  0  0
    3.8603    1.8577   19.1838 H   0  0  0  0  0  0  0  0  0  0  0  0
  1  2  1  0
  2  3  2  0
  3  4  1  0
  4  5  1  0
  4  6  2  0
  6  7  1  0
  7  8  1  0
  8  9  2  0
  9 10  1  0
 10 11  1  0
 11 12  1  0
 11 13  2  0
 13 14  1  0
 13 15  1  0
 15 16  1  0
 16 17  1  0
 17 18  1  0
 17 19  1  0
 17 20  1  0
 20 21  1  0
 20 22  1  0
 22 23  1  0
 22 24  1  0
 22 25  1  0
 25 26  1  0
 25 27  1  0
 25 28  1  0
 28 29  1  0
 28 30  1  0
 28 31  1  0
 31 32  1  0
 31 33  1  0
 31 34  1  0
 34 35  1  0
 34 36  1  0
  6 37  1  0
 37 38  1  0
 37 39  2  0
 39 40  1  0
 39  2  1  0
 16  7  2  0
 34 20  1  0
 15  9  1  0
M  END
>  <cnnaffinity>  (1) 
-5.32768

>  <filename>  (1) 
c1cncc(-c2nc3sccn3c2CC2CCCCC2)c1

$$$$
