
     RDKit          3D

 31 34  0  0  0  0  0  0  0  0999 V2000
    4.9152    1.7850   16.9958 H   0  0  0  0  0  0  0  0  0  0  0  0
    5.3978    1.2951   17.8386 C   0  0  0  0  0  0  0  0  0  0  0  0
    6.5621    0.6803   17.5682 N   0  0  0  0  0  0  0  0  0  0  0  0
    7.1686    0.0612   18.5820 C   0  0  0  0  0  0  0  0  0  0  0  0
    8.1193   -0.4173   18.3588 H   0  0  0  0  0  0  0  0  0  0  0  0
    6.6658    0.0065   19.9020 C   0  0  0  0  0  0  0  0  0  0  0  0
    7.3917   -0.6920   20.9763 C   0  0  0  0  0  0  0  0  0  0  0  0
    8.2011   -2.1754   20.7940 S   0  0  0  0  0  0  0  0  0  0  0  0
    8.6367   -2.2785   22.4113 N   0  0  0  0  0  0  0  0  0  0  0  0
    8.2089   -1.2717   23.0615 N   0  0  0  0  0  0  0  0  0  0  0  0
    7.5163   -0.3483   22.3169 C   0  0  0  0  0  0  0  0  0  0  0  0
    7.0703    0.8964   22.9302 C   0  0  0  0  0  0  0  0  0  0  0  0
    7.4694    2.1053   22.3938 C   0  0  0  0  0  0  0  0  0  0  0  0
    8.1049    2.1286   21.5121 H   0  0  0  0  0  0  0  0  0  0  0  0
    7.1248    3.3173   22.8871 N   0  0  0  0  0  0  0  0  0  0  0  0
    6.3447    3.3321   23.9485 C   0  0  0  0  0  0  0  0  0  0  0  0
    6.0772    4.3041   24.3521 H   0  0  0  0  0  0  0  0  0  0  0  0
    5.8366    2.1701   24.6002 C   0  0  0  0  0  0  0  0  0  0  0  0
    4.9880    2.2331   25.7500 C   0  0  0  0  0  0  0  0  0  0  0  0
    4.7223    3.2041   26.1658 H   0  0  0  0  0  0  0  0  0  0  0  0
    4.5111    1.0757   26.3208 C   0  0  0  0  0  0  0  0  0  0  0  0
    3.8652    1.1171   27.1952 H   0  0  0  0  0  0  0  0  0  0  0  0
    4.8567   -0.1934   25.7779 C   0  0  0  0  0  0  0  0  0  0  0  0
    4.4640   -1.1037   26.2253 H   0  0  0  0  0  0  0  0  0  0  0  0
    5.6925   -0.2789   24.6878 C   0  0  0  0  0  0  0  0  0  0  0  0
    5.9558   -1.2327   24.2341 H   0  0  0  0  0  0  0  0  0  0  0  0
    6.2082    0.8999   24.0722 C   0  0  0  0  0  0  0  0  0  0  0  0
    5.4402    0.6473   20.1600 C   0  0  0  0  0  0  0  0  0  0  0  0
    5.0229    0.6305   21.1726 H   0  0  0  0  0  0  0  0  0  0  0  0
    4.8043    1.3063   19.1059 C   0  0  0  0  0  0  0  0  0  0  0  0
    3.8747    1.8429   19.2568 H   0  0  0  0  0  0  0  0  0  0  0  0
  1  2  1  0
  2  3  2  0
  3  4  1  0
  4  5  1  0
  4  6  2  0
  6  7  1  0
  7  8  1  0
  8  9  1  0
  9 10  2  0
 10 11  1  0
 11 12  1  0
 12 13  2  0
 13 14  1  0
 13 15  1  0
 15 16  2  0
 16 17  1  0
 16 18  1  0
 18 19  2  0
 19 20  1  0
 19 21  1  0
 21 22  1  0
 21 23  2  0
 23 24  1  0
 23 25  1  0
 25 26  1  0
 25 27  2  0
  6 28  1  0
 28 29  1  0
 28 30  2  0
 30 31  1  0
 30  2  1  0
 11  7  2  0
 27 12  1  0
 27 18  1  0
M  END
>  <cnnaffinity>  (1) 
-4.72925

>  <filename>  (1) 
c1cncc(-c2snnc2-c2cncc3ccccc23)c1

$$$$
