
     RDKit          3D

 35 37  0  0  0  0  0  0  0  0999 V2000
    4.9313    1.7825   17.0021 H   0  0  0  0  0  0  0  0  0  0  0  0
    5.4080    1.2849   17.8448 C   0  0  0  0  0  0  0  0  0  0  0  0
    6.5674    0.6625   17.5856 N   0  0  0  0  0  0  0  0  0  0  0  0
    7.1913    0.0483   18.6007 C   0  0  0  0  0  0  0  0  0  0  0  0
    8.1319   -0.4409   18.3607 H   0  0  0  0  0  0  0  0  0  0  0  0
    6.6863    0.0163   19.9120 C   0  0  0  0  0  0  0  0  0  0  0  0
    7.2765   -0.6698   20.9425 O   0  0  0  0  0  0  0  0  0  0  0  0
    8.6389   -0.7305   21.0769 C   0  0  0  0  0  0  0  0  0  0  0  0
    9.6678    0.1092   20.6089 C   0  0  0  0  0  0  0  0  0  0  0  0
    9.6103    0.9607   19.9483 H   0  0  0  0  0  0  0  0  0  0  0  0
   10.8479   -0.2734   21.0925 N   0  0  0  0  0  0  0  0  0  0  0  0
   10.5769   -1.3397   21.8521 N   0  0  0  0  0  0  0  0  0  0  0  0
   11.3361   -1.7823   22.3469 H   0  0  0  0  0  0  0  0  0  0  0  0
    9.2516   -1.6570   21.8913 C   0  0  0  0  0  0  0  0  0  0  0  0
    8.6951   -2.7345   22.7579 C   0  0  0  0  0  0  0  0  0  0  0  0
    9.2856   -3.6508   22.6224 H   0  0  0  0  0  0  0  0  0  0  0  0
    7.6768   -2.9560   22.3948 H   0  0  0  0  0  0  0  0  0  0  0  0
    8.7377   -2.3699   24.1826 N   0  0  0  0  0  0  0  0  0  0  0  0
    8.5734   -3.5187   25.0853 C   0  0  0  0  0  0  0  0  0  0  0  0
    8.9142   -3.2244   26.0862 H   0  0  0  0  0  0  0  0  0  0  0  0
    9.2270   -4.3315   24.7435 H   0  0  0  0  0  0  0  0  0  0  0  0
    7.1109   -3.9970   25.1784 C   0  0  0  0  0  0  0  0  0  0  0  0
    7.0020   -4.7978   25.9125 H   0  0  0  0  0  0  0  0  0  0  0  0
    6.7944   -4.3831   24.1944 H   0  0  0  0  0  0  0  0  0  0  0  0
    6.2443   -2.9405   25.5835 O   0  0  0  0  0  0  0  0  0  0  0  0
    6.3215   -1.8416   24.6811 C   0  0  0  0  0  0  0  0  0  0  0  0
    5.9477   -2.1396   23.6873 H   0  0  0  0  0  0  0  0  0  0  0  0
    5.6606   -1.0665   25.0756 H   0  0  0  0  0  0  0  0  0  0  0  0
    7.7660   -1.3140   24.5398 C   0  0  0  0  0  0  0  0  0  0  0  0
    8.0745   -0.8710   25.4952 H   0  0  0  0  0  0  0  0  0  0  0  0
    7.8043   -0.5257   23.7792 H   0  0  0  0  0  0  0  0  0  0  0  0
    5.4646    0.6446   20.1733 C   0  0  0  0  0  0  0  0  0  0  0  0
    5.0440    0.6080   21.1777 H   0  0  0  0  0  0  0  0  0  0  0  0
    4.8262    1.2995   19.1167 C   0  0  0  0  0  0  0  0  0  0  0  0
    3.8932    1.8235   19.2673 H   0  0  0  0  0  0  0  0  0  0  0  0
  1  2  1  0
  2  3  2  0
  3  4  1  0
  4  5  1  0
  4  6  2  0
  6  7  1  0
  7  8  1  0
  8  9  1  0
  9 10  1  0
  9 11  2  0
 11 12  1  0
 12 13  1  0
 12 14  1  0
 14 15  1  0
 15 16  1  0
 15 17  1  0
 15 18  1  0
 18 19  1  0
 19 20  1  0
 19 21  1  0
 19 22  1  0
 22 23  1  0
 22 24  1  0
 22 25  1  0
 25 26  1  0
 26 27  1  0
 26 28  1  0
 26 29  1  0
 29 30  1  0
 29 31  1  0
  6 32  1  0
 32 33  1  0
 32 34  2  0
 34 35  1  0
 34  2  1  0
 14  8  2  0
 29 18  1  0
M  END
>  <cnnaffinity>  (1) 
-5.01544

>  <filename>  (1) 
c1cncc(Oc2cn[nH]c2CN2CCOCC2)c1

$$$$
