
     RDKit          3D

 36 39  0  0  0  0  0  0  0  0999 V2000
    4.9110    1.7893   16.9903 H   0  0  0  0  0  0  0  0  0  0  0  0
    5.3965    1.2994   17.8314 C   0  0  0  0  0  0  0  0  0  0  0  0
    6.5552    0.6777   17.5608 N   0  0  0  0  0  0  0  0  0  0  0  0
    7.1683    0.0617   18.5785 C   0  0  0  0  0  0  0  0  0  0  0  0
    8.1142   -0.4288   18.3593 H   0  0  0  0  0  0  0  0  0  0  0  0
    6.6544    0.0103   19.8953 C   0  0  0  0  0  0  0  0  0  0  0  0
    7.3203   -0.6868   20.9494 N   0  0  0  0  0  0  0  0  0  0  0  0
    6.7885   -1.6349   21.7917 C   0  0  0  0  0  0  0  0  0  0  0  0
    5.7527   -1.9386   21.7384 H   0  0  0  0  0  0  0  0  0  0  0  0
    7.6968   -2.1081   22.6005 N   0  0  0  0  0  0  0  0  0  0  0  0
    8.8707   -1.4531   22.3192 N   0  0  0  0  0  0  0  0  0  0  0  0
    8.6292   -0.5942   21.3665 C   0  0  0  0  0  0  0  0  0  0  0  0
    9.6584    0.3259   20.7855 C   0  0  0  0  0  0  0  0  0  0  0  0
    9.1980    1.0254   20.0826 H   0  0  0  0  0  0  0  0  0  0  0  0
   10.3188   -0.3502   20.2370 H   0  0  0  0  0  0  0  0  0  0  0  0
   10.4164    1.0783   21.8471 C   0  0  0  0  0  0  0  0  0  0  0  0
   11.6787    0.6548   22.2061 C   0  0  0  0  0  0  0  0  0  0  0  0
   12.1296   -0.1856   21.6788 H   0  0  0  0  0  0  0  0  0  0  0  0
   12.3955    1.2812   23.2591 C   0  0  0  0  0  0  0  0  0  0  0  0
   13.3997    0.9418   23.5098 H   0  0  0  0  0  0  0  0  0  0  0  0
   11.8020    2.3130   23.9416 C   0  0  0  0  0  0  0  0  0  0  0  0
   12.2933    2.8073   24.7558 H   0  0  0  0  0  0  0  0  0  0  0  0
   10.4921    2.7739   23.6309 C   0  0  0  0  0  0  0  0  0  0  0  0
    9.8895    3.8478   24.3576 C   0  0  0  0  0  0  0  0  0  0  0  0
   10.4612    4.3485   25.1334 H   0  0  0  0  0  0  0  0  0  0  0  0
    8.6175    4.2700   24.0696 C   0  0  0  0  0  0  0  0  0  0  0  0
    8.1701    5.0896   24.6315 H   0  0  0  0  0  0  0  0  0  0  0  0
    7.8823    3.6369   23.0286 C   0  0  0  0  0  0  0  0  0  0  0  0
    6.8783    3.9873   22.8033 H   0  0  0  0  0  0  0  0  0  0  0  0
    8.4342    2.6046   22.3023 C   0  0  0  0  0  0  0  0  0  0  0  0
    7.8538    2.1324   21.5101 H   0  0  0  0  0  0  0  0  0  0  0  0
    9.7695    2.1424   22.5701 C   0  0  0  0  0  0  0  0  0  0  0  0
    5.4388    0.6475   20.1595 C   0  0  0  0  0  0  0  0  0  0  0  0
    5.0215    0.6256   21.1710 H   0  0  0  0  0  0  0  0  0  0  0  0
    4.8079    1.3125   19.1031 C   0  0  0  0  0  0  0  0  0  0  0  0
    3.8759    1.8425   19.2596 H   0  0  0  0  0  0  0  0  0  0  0  0
  1  2  1  0
  2  3  2  0
  3  4  1  0
  4  5  1  0
  4  6  2  0
  6  7  1  0
  7  8  1  0
  8  9  1  0
  8 10  2  0
 10 11  1  0
 11 12  2  0
 12 13  1  0
 13 14  1  0
 13 15  1  0
 13 16  1  0
 16 17  2  0
 17 18  1  0
 17 19  1  0
 19 20  1  0
 19 21  2  0
 21 22  1  0
 21 23  1  0
 23 24  2  0
 24 25  1  0
 24 26  1  0
 26 27  1  0
 26 28  2  0
 28 29  1  0
 28 30  1  0
 30 31  1  0
 30 32  2  0
  6 33  1  0
 33 34  1  0
 33 35  2  0
 35 36  1  0
 35  2  1  0
 12  7  1  0
 32 16  1  0
 32 23  1  0
M  END
>  <cnnaffinity>  (1) 
-5.78688

>  <filename>  (1) 
c1cncc(-n2cnnc2Cc2cccc3ccccc23)c1

$$$$
