
     RDKit          3D

 31 33  0  0  0  0  0  0  0  0999 V2000
    4.7944    1.3265   19.0692 C   0  0  0  0  0  0  0  0  0  0  0  0
    5.3780    1.3158   17.7964 C   0  0  0  0  0  0  0  0  0  0  0  0
    6.5403    0.6969   17.5304 N   0  0  0  0  0  0  0  0  0  0  0  0
    7.1637    0.0849   18.5424 C   0  0  0  0  0  0  0  0  0  0  0  0
    6.6806    0.0419   19.8608 C   0  0  0  0  0  0  0  0  0  0  0  0
    7.3870   -0.6541   20.9493 C   0  0  0  0  0  0  0  0  0  0  0  0
    6.8638   -1.2172   22.0872 C   0  0  0  0  0  0  0  0  0  0  0  0
    7.9409   -1.8084   22.7717 C   0  0  0  0  0  0  0  0  0  0  0  0
    7.8325   -2.6208   24.0621 C   0  0  0  0  0  0  0  0  0  0  0  0
    7.8720   -4.0938   23.9778 N   0  0  0  0  0  0  0  0  0  0  0  0
    6.9586   -4.8131   23.2470 C   0  0  0  0  0  0  0  0  0  0  0  0
    7.2606   -6.1708   22.9419 C   0  0  0  0  0  0  0  0  0  0  0  0
    6.2786   -6.9238   22.3403 C   0  0  0  0  0  0  0  0  0  0  0  0
    5.0535   -6.2727   22.0334 C   0  0  0  0  0  0  0  0  0  0  0  0
    4.8456   -4.9865   22.2827 N   0  0  0  0  0  0  0  0  0  0  0  0
    5.7992   -4.2485   22.8892 N   0  0  0  0  0  0  0  0  0  0  0  0
    4.2142   -6.7840   21.5785 H   0  0  0  0  0  0  0  0  0  0  0  0
    6.3980   -7.9844   22.1167 H   0  0  0  0  0  0  0  0  0  0  0  0
    8.2345   -6.5605   23.2333 H   0  0  0  0  0  0  0  0  0  0  0  0
    8.7762   -4.5411   23.9876 H   0  0  0  0  0  0  0  0  0  0  0  0
    6.8654   -2.3400   24.5099 H   0  0  0  0  0  0  0  0  0  0  0  0
    8.6301   -2.3118   24.7460 H   0  0  0  0  0  0  0  0  0  0  0  0
    9.0800   -1.5898   22.1189 N   0  0  0  0  0  0  0  0  0  0  0  0
    8.7230   -0.9160   21.0148 N   0  0  0  0  0  0  0  0  0  0  0  0
    9.4399   -0.6607   20.3524 H   0  0  0  0  0  0  0  0  0  0  0  0
    5.8328   -1.3601   22.3384 H   0  0  0  0  0  0  0  0  0  0  0  0
    5.4512    0.6734   20.1124 C   0  0  0  0  0  0  0  0  0  0  0  0
    5.0304    0.6574   21.1173 H   0  0  0  0  0  0  0  0  0  0  0  0
    8.0990   -0.4076   18.2813 H   0  0  0  0  0  0  0  0  0  0  0  0
    4.9010    1.8208   16.9556 H   0  0  0  0  0  0  0  0  0  0  0  0
    3.8579    1.8524   19.2257 H   0  0  0  0  0  0  0  0  0  0  0  0
  1  2  2  0
  2  3  1  0
  3  4  2  0
  4  5  1  0
  5  6  1  0
  6  7  2  0
  7  8  1  0
  8  9  1  0
  9 10  1  0
 10 11  1  0
 11 12  2  0
 12 13  1  0
 13 14  2  0
 14 15  1  0
 15 16  2  0
 14 17  1  0
 13 18  1  0
 12 19  1  0
 10 20  1  0
  9 21  1  0
  9 22  1  0
  8 23  2  0
 23 24  1  0
 24 25  1  0
  7 26  1  0
  5 27  2  0
 27 28  1  0
  4 29  1  0
  2 30  1  0
  1 31  1  0
 27  1  1  0
 24  6  1  0
 16 11  1  0
M  END
>  <cnnaffinity>  (1) 
-5.23605

>  <filename>  (1) 
c1cncc(-c2cc(CNc3cccnn3)n[nH]2)c1

$$$$
