
     RDKit          3D

 34 37  0  0  0  0  0  0  0  0999 V2000
   10.4542   -1.1799   21.8800 H   0  0  0  0  0  0  0  0  0  0  0  0
    9.3709   -1.2377   21.8784 C   0  0  0  0  0  0  0  0  0  0  0  0
    8.7416   -0.6515   20.8606 N   0  0  0  0  0  0  0  0  0  0  0  0
    7.4076   -0.7015   20.8832 C   0  0  0  0  0  0  0  0  0  0  0  0
    6.6821    0.0289   19.8313 C   0  0  0  0  0  0  0  0  0  0  0  0
    7.2157    0.0702   18.5356 C   0  0  0  0  0  0  0  0  0  0  0  0
    8.1658   -0.4123   18.3178 H   0  0  0  0  0  0  0  0  0  0  0  0
    6.6152    0.6768   17.5084 N   0  0  0  0  0  0  0  0  0  0  0  0
    5.4574    1.3077   17.7521 C   0  0  0  0  0  0  0  0  0  0  0  0
    4.9917    1.7981   16.9001 H   0  0  0  0  0  0  0  0  0  0  0  0
    4.8539    1.3541   19.0134 C   0  0  0  0  0  0  0  0  0  0  0  0
    3.9222    1.8911   19.1464 H   0  0  0  0  0  0  0  0  0  0  0  0
    5.4740    0.7002   20.0755 C   0  0  0  0  0  0  0  0  0  0  0  0
    5.0447    0.7267   21.0808 H   0  0  0  0  0  0  0  0  0  0  0  0
    6.7166   -1.4093   21.8628 C   0  0  0  0  0  0  0  0  0  0  0  0
    5.6543   -1.5712   21.7901 H   0  0  0  0  0  0  0  0  0  0  0  0
    7.4738   -1.9880   22.8752 C   0  0  0  0  0  0  0  0  0  0  0  0
    6.8336   -2.6628   24.0108 C   0  0  0  0  0  0  0  0  0  0  0  0
    5.8366   -1.9957   24.6809 C   0  0  0  0  0  0  0  0  0  0  0  0
    5.5498   -0.9832   24.4023 H   0  0  0  0  0  0  0  0  0  0  0  0
    5.1644   -2.4945   25.7510 N   0  0  0  0  0  0  0  0  0  0  0  0
    5.5232   -3.6778   26.2044 C   0  0  0  0  0  0  0  0  0  0  0  0
    4.9450   -4.0657   27.0469 H   0  0  0  0  0  0  0  0  0  0  0  0
    6.6032   -4.4456   25.6654 C   0  0  0  0  0  0  0  0  0  0  0  0
    7.1115   -5.6354   26.2783 C   0  0  0  0  0  0  0  0  0  0  0  0
    6.7182   -5.9709   27.2375 H   0  0  0  0  0  0  0  0  0  0  0  0
    8.1005   -6.3529   25.6526 C   0  0  0  0  0  0  0  0  0  0  0  0
    8.5213   -7.2503   26.0885 H   0  0  0  0  0  0  0  0  0  0  0  0
    8.6000   -5.9569   24.3863 C   0  0  0  0  0  0  0  0  0  0  0  0
    9.3437   -6.5728   23.8933 H   0  0  0  0  0  0  0  0  0  0  0  0
    8.1952   -4.7764   23.8150 C   0  0  0  0  0  0  0  0  0  0  0  0
    8.6412   -4.4051   22.9003 H   0  0  0  0  0  0  0  0  0  0  0  0
    7.2316   -3.9555   24.4790 C   0  0  0  0  0  0  0  0  0  0  0  0
    8.8069   -1.9035   22.8840 N   0  0  0  0  0  0  0  0  0  0  0  0
  1  2  1  0
  2  3  2  0
  3  4  1  0
  4  5  1  0
  5  6  2  0
  6  7  1  0
  6  8  1  0
  8  9  2  0
  9 10  1  0
  9 11  1  0
 11 12  1  0
 11 13  2  0
 13 14  1  0
  4 15  2  0
 15 16  1  0
 15 17  1  0
 17 18  1  0
 18 19  2  0
 19 20  1  0
 19 21  1  0
 21 22  2  0
 22 23  1  0
 22 24  1  0
 24 25  2  0
 25 26  1  0
 25 27  1  0
 27 28  1  0
 27 29  2  0
 29 30  1  0
 29 31  1  0
 31 32  1  0
 31 33  2  0
 17 34  2  0
 34  2  1  0
 13  5  1  0
 33 18  1  0
 33 24  1  0
M  END
>  <cnnaffinity>  (1) 
-5.29532

>  <filename>  (1) 
c1cncc(-c2cc(-c3cncc4ccccc34)ncn2)c1

$$$$
