
     RDKit          3D

 26 28  0  0  0  0  0  0  0  0999 V2000
    4.9177    1.7961   16.9809 H   0  0  0  0  0  0  0  0  0  0  0  0
    5.3907    1.3028   17.8265 C   0  0  0  0  0  0  0  0  0  0  0  0
    6.5492    0.6814   17.5632 N   0  0  0  0  0  0  0  0  0  0  0  0
    7.1480    0.0653   18.5881 C   0  0  0  0  0  0  0  0  0  0  0  0
    8.0982   -0.4150   18.3657 H   0  0  0  0  0  0  0  0  0  0  0  0
    6.6288    0.0022   19.8978 C   0  0  0  0  0  0  0  0  0  0  0  0
    7.3731   -0.7426   20.9960 C   0  0  0  0  0  0  0  0  0  0  0  0
    6.7996   -0.7441   21.9278 H   0  0  0  0  0  0  0  0  0  0  0  0
    7.5481   -1.7884   20.7064 H   0  0  0  0  0  0  0  0  0  0  0  0
    8.7148   -0.1522   21.2557 C   0  0  0  0  0  0  0  0  0  0  0  0
    9.8377   -0.6349   20.7912 N   0  0  0  0  0  0  0  0  0  0  0  0
   10.8115    0.2238   21.1655 N   0  0  0  0  0  0  0  0  0  0  0  0
   10.3346    1.2085   21.8126 N   0  0  0  0  0  0  0  0  0  0  0  0
    8.9929    1.0108   21.8962 N   0  0  0  0  0  0  0  0  0  0  0  0
    8.2231    1.9392   22.5675 C   0  0  0  0  0  0  0  0  0  0  0  0
    6.9078    1.6706   22.7080 O   0  0  0  0  0  0  0  0  0  0  0  0
    6.3798    2.7253   23.4065 C   0  0  0  0  0  0  0  0  0  0  0  0
    5.3214    2.6884   23.6250 H   0  0  0  0  0  0  0  0  0  0  0  0
    7.3508    3.6265   23.6935 C   0  0  0  0  0  0  0  0  0  0  0  0
    7.2240    4.5579   24.2329 H   0  0  0  0  0  0  0  0  0  0  0  0
    8.5658    3.1188   23.1432 C   0  0  0  0  0  0  0  0  0  0  0  0
    9.5742    3.5135   23.1300 H   0  0  0  0  0  0  0  0  0  0  0  0
    5.4220    0.6559   20.1470 C   0  0  0  0  0  0  0  0  0  0  0  0
    5.0016    0.6328   21.1545 H   0  0  0  0  0  0  0  0  0  0  0  0
    4.7937    1.3223   19.0924 C   0  0  0  0  0  0  0  0  0  0  0  0
    3.8626    1.8529   19.2422 H   0  0  0  0  0  0  0  0  0  0  0  0
  1  2  1  0
  2  3  2  0
  3  4  1  0
  4  5  1  0
  4  6  2  0
  6  7  1  0
  7  8  1  0
  7  9  1  0
  7 10  1  0
 10 11  2  0
 11 12  1  0
 12 13  2  0
 13 14  1  0
 14 15  1  0
 15 16  1  0
 16 17  1  0
 17 18  1  0
 17 19  2  0
 19 20  1  0
 19 21  1  0
 21 22  1  0
  6 23  1  0
 23 24  1  0
 23 25  2  0
 25 26  1  0
 25  2  1  0
 14 10  1  0
 21 15  2  0
M  END
>  <cnnaffinity>  (1) 
-4.7235

>  <filename>  (1) 
c1cncc(Cc2nnnn2-c2ccco2)c1

$$$$
