
     RDKit          3D

 41 43  0  0  0  0  0  0  0  0999 V2000
    4.9110    1.8066   16.9702 H   0  0  0  0  0  0  0  0  0  0  0  0
    5.3888    1.3080   17.8140 C   0  0  0  0  0  0  0  0  0  0  0  0
    6.5507    0.6916   17.5507 N   0  0  0  0  0  0  0  0  0  0  0  0
    7.1698    0.0844   18.5736 C   0  0  0  0  0  0  0  0  0  0  0  0
    8.1031   -0.4224   18.3293 H   0  0  0  0  0  0  0  0  0  0  0  0
    6.6737    0.0338   19.8898 C   0  0  0  0  0  0  0  0  0  0  0  0
    7.3486   -0.7003   20.9771 C   0  0  0  0  0  0  0  0  0  0  0  0
    6.8107   -1.6785   21.7785 C   0  0  0  0  0  0  0  0  0  0  0  0
    5.7984   -2.0442   21.6452 H   0  0  0  0  0  0  0  0  0  0  0  0
    7.7967   -2.0730   22.7171 C   0  0  0  0  0  0  0  0  0  0  0  0
    7.6902   -2.8276   23.4909 H   0  0  0  0  0  0  0  0  0  0  0  0
    8.9075   -1.2980   22.4613 C   0  0  0  0  0  0  0  0  0  0  0  0
    9.8656   -1.2257   22.9597 H   0  0  0  0  0  0  0  0  0  0  0  0
    8.6428   -0.4748   21.3923 N   0  0  0  0  0  0  0  0  0  0  0  0
    9.4968    0.6180   20.9347 C   0  0  0  0  0  0  0  0  0  0  0  0
   10.4874    0.4557   21.3714 H   0  0  0  0  0  0  0  0  0  0  0  0
    9.6001    0.5339   19.8526 H   0  0  0  0  0  0  0  0  0  0  0  0
    8.9721    2.0239   21.2631 C   0  0  0  0  0  0  0  0  0  0  0  0
    9.7333    2.7513   20.9548 H   0  0  0  0  0  0  0  0  0  0  0  0
    8.0859    2.2259   20.6453 H   0  0  0  0  0  0  0  0  0  0  0  0
    8.6316    2.2529   22.7404 C   0  0  0  0  0  0  0  0  0  0  0  0
    7.9424    1.4527   23.0597 H   0  0  0  0  0  0  0  0  0  0  0  0
    9.8723    2.1736   23.6492 C   0  0  0  0  0  0  0  0  0  0  0  0
   10.6130    2.9238   23.3201 H   0  0  0  0  0  0  0  0  0  0  0  0
   10.3628    1.1958   23.5482 H   0  0  0  0  0  0  0  0  0  0  0  0
    9.5090    2.4082   25.1222 C   0  0  0  0  0  0  0  0  0  0  0  0
    8.8444    1.6008   25.4689 H   0  0  0  0  0  0  0  0  0  0  0  0
   10.4151    2.3047   25.7256 H   0  0  0  0  0  0  0  0  0  0  0  0
    8.7953    3.7619   25.3168 C   0  0  0  0  0  0  0  0  0  0  0  0
    8.5187    3.9129   26.3683 H   0  0  0  0  0  0  0  0  0  0  0  0
    9.4776    4.5869   25.0577 H   0  0  0  0  0  0  0  0  0  0  0  0
    7.5467    3.8498   24.4145 C   0  0  0  0  0  0  0  0  0  0  0  0
    7.0498    4.8234   24.5219 H   0  0  0  0  0  0  0  0  0  0  0  0
    6.8139    3.0944   24.7406 H   0  0  0  0  0  0  0  0  0  0  0  0
    7.9001    3.5959   22.9378 C   0  0  0  0  0  0  0  0  0  0  0  0
    8.5400    4.4131   22.5619 H   0  0  0  0  0  0  0  0  0  0  0  0
    6.9893    3.6065   22.3221 H   0  0  0  0  0  0  0  0  0  0  0  0
    5.4426    0.6627   20.1322 C   0  0  0  0  0  0  0  0  0  0  0  0
    5.0169    0.6345   21.1354 H   0  0  0  0  0  0  0  0  0  0  0  0
    4.7994    1.3224   19.0821 C   0  0  0  0  0  0  0  0  0  0  0  0
    3.8650    1.8469   19.2351 H   0  0  0  0  0  0  0  0  0  0  0  0
  1  2  1  0
  2  3  2  0
  3  4  1  0
  4  5  1  0
  4  6  2  0
  6  7  1  0
  7  8  2  0
  8  9  1  0
  8 10  1  0
 10 11  1  0
 10 12  2  0
 12 13  1  0
 12 14  1  0
 14 15  1  0
 15 16  1  0
 15 17  1  0
 15 18  1  0
 18 19  1  0
 18 20  1  0
 18 21  1  0
 21 22  1  0
 21 23  1  0
 23 24  1  0
 23 25  1  0
 23 26  1  0
 26 27  1  0
 26 28  1  0
 26 29  1  0
 29 30  1  0
 29 31  1  0
 29 32  1  0
 32 33  1  0
 32 34  1  0
 32 35  1  0
 35 36  1  0
 35 37  1  0
  6 38  1  0
 38 39  1  0
 38 40  2  0
 40 41  1  0
 40  2  1  0
 14  7  1  0
 35 21  1  0
M  END
>  <cnnaffinity>  (1) 
-5.07221

>  <filename>  (1) 
c1cncc(-c2cccn2CCC2CCCCC2)c1

$$$$
