
     RDKit          3D

 32 35  0  0  0  0  0  0  0  0999 V2000
    4.9625    1.8060   16.9905 H   0  0  0  0  0  0  0  0  0  0  0  0
    5.4136    1.2961   17.8356 C   0  0  0  0  0  0  0  0  0  0  0  0
    6.5836    0.6822   17.5961 N   0  0  0  0  0  0  0  0  0  0  0  0
    7.1851    0.0720   18.6247 C   0  0  0  0  0  0  0  0  0  0  0  0
    8.1445   -0.4062   18.4170 H   0  0  0  0  0  0  0  0  0  0  0  0
    6.6454    0.0396   19.9339 C   0  0  0  0  0  0  0  0  0  0  0  0
    7.3019   -0.6517   21.0151 N   0  0  0  0  0  0  0  0  0  0  0  0
    7.6452   -1.9837   21.0457 C   0  0  0  0  0  0  0  0  0  0  0  0
    7.4275   -2.6576   20.2373 H   0  0  0  0  0  0  0  0  0  0  0  0
    8.1620   -2.3236   22.1876 N   0  0  0  0  0  0  0  0  0  0  0  0
    8.1342   -1.2120   22.9907 N   0  0  0  0  0  0  0  0  0  0  0  0
    7.6083   -0.2336   22.3047 C   0  0  0  0  0  0  0  0  0  0  0  0
    7.3391    1.0972   22.8480 C   0  0  0  0  0  0  0  0  0  0  0  0
    6.8491    1.1825   24.1921 C   0  0  0  0  0  0  0  0  0  0  0  0
    6.7108    0.2792   24.7854 H   0  0  0  0  0  0  0  0  0  0  0  0
    6.5374    2.3021   24.7849 N   0  0  0  0  0  0  0  0  0  0  0  0
    6.7318    3.4652   24.0796 C   0  0  0  0  0  0  0  0  0  0  0  0
    6.4063    4.6789   24.7359 C   0  0  0  0  0  0  0  0  0  0  0  0
    6.0544    4.5622   25.7527 H   0  0  0  0  0  0  0  0  0  0  0  0
    6.5688    5.8836   24.0963 C   0  0  0  0  0  0  0  0  0  0  0  0
    6.3113    6.8075   24.6065 H   0  0  0  0  0  0  0  0  0  0  0  0
    7.0950    5.9349   22.7725 C   0  0  0  0  0  0  0  0  0  0  0  0
    7.1846    6.9016   22.2800 H   0  0  0  0  0  0  0  0  0  0  0  0
    7.4653    4.7771   22.1246 C   0  0  0  0  0  0  0  0  0  0  0  0
    7.9508    4.8196   21.1532 H   0  0  0  0  0  0  0  0  0  0  0  0
    7.2571    3.5070   22.7495 C   0  0  0  0  0  0  0  0  0  0  0  0
    7.5366    2.2610   22.1350 C   0  0  0  0  0  0  0  0  0  0  0  0
    7.8558    2.2182   21.0927 H   0  0  0  0  0  0  0  0  0  0  0  0
    5.4137    0.6686   20.1595 C   0  0  0  0  0  0  0  0  0  0  0  0
    4.9850    0.6686   21.1643 H   0  0  0  0  0  0  0  0  0  0  0  0
    4.7890    1.3081   19.0864 C   0  0  0  0  0  0  0  0  0  0  0  0
    3.8431    1.8222   19.2154 H   0  0  0  0  0  0  0  0  0  0  0  0
  1  2  1  0
  2  3  2  0
  3  4  1  0
  4  5  1  0
  4  6  2  0
  6  7  1  0
  7  8  1  0
  8  9  1  0
  8 10  2  0
 10 11  1  0
 11 12  2  0
 12 13  1  0
 13 14  2  0
 14 15  1  0
 14 16  1  0
 16 17  2  0
 17 18  1  0
 18 19  1  0
 18 20  2  0
 20 21  1  0
 20 22  1  0
 22 23  1  0
 22 24  2  0
 24 25  1  0
 24 26  1  0
 26 27  2  0
 27 28  1  0
  6 29  1  0
 29 30  1  0
 29 31  2  0
 31 32  1  0
 31  2  1  0
 12  7  1  0
 27 13  1  0
 26 17  1  0
M  END
>  <cnnaffinity>  (1) 
-5.14626

>  <filename>  (1) 
c1cncc(-n2cnnc2-c2cnc3ccccc3c2)c1

$$$$
