
     RDKit          3D

 27 30  0  0  0  0  0  0  0  0999 V2000
    4.9546    1.8000   16.9557 H   0  0  0  0  0  0  0  0  0  0  0  0
    5.3943    1.2924   17.8091 C   0  0  0  0  0  0  0  0  0  0  0  0
    6.5566    0.6588   17.5825 N   0  0  0  0  0  0  0  0  0  0  0  0
    7.1514    0.0791   18.6272 C   0  0  0  0  0  0  0  0  0  0  0  0
    8.1012   -0.4063   18.3943 H   0  0  0  0  0  0  0  0  0  0  0  0
    6.6420    0.0968   19.9458 C   0  0  0  0  0  0  0  0  0  0  0  0
    7.4066   -0.5791   21.0191 C   0  0  0  0  0  0  0  0  0  0  0  0
    8.2316   -1.6271   20.8414 C   0  0  0  0  0  0  0  0  0  0  0  0
    8.6101   -1.9882   19.9057 H   0  0  0  0  0  0  0  0  0  0  0  0
    8.8269   -2.3236   22.3177 S   0  0  0  0  0  0  0  0  0  0  0  0
    8.0887   -1.0302   23.2046 C   0  0  0  0  0  0  0  0  0  0  0  0
    8.1336   -0.5508   24.4231 N   0  0  0  0  0  0  0  0  0  0  0  0
    7.3850    0.5923   24.2885 C   0  0  0  0  0  0  0  0  0  0  0  0
    7.1235    1.5285   25.3946 C   0  0  0  0  0  0  0  0  0  0  0  0
    6.5652    2.4026   25.0780 H   0  0  0  0  0  0  0  0  0  0  0  0
    8.1432    1.7036   26.4956 C   0  0  0  0  0  0  0  0  0  0  0  0
    8.3073    2.7019   26.8976 H   0  0  0  0  0  0  0  0  0  0  0  0
    9.0382    1.0923   26.3923 H   0  0  0  0  0  0  0  0  0  0  0  0
    6.8631    0.9829   26.7802 C   0  0  0  0  0  0  0  0  0  0  0  0
    6.9195   -0.1018   26.8584 H   0  0  0  0  0  0  0  0  0  0  0  0
    6.0905    1.4509   27.3875 H   0  0  0  0  0  0  0  0  0  0  0  0
    6.8958    0.8217   23.0818 N   0  0  0  0  0  0  0  0  0  0  0  0
    7.3504   -0.2505   22.3821 N   0  0  0  0  0  0  0  0  0  0  0  0
    5.3971    0.7235   20.1475 C   0  0  0  0  0  0  0  0  0  0  0  0
    4.9537    0.7395   21.1442 H   0  0  0  0  0  0  0  0  0  0  0  0
    4.7716    1.3306   19.0603 C   0  0  0  0  0  0  0  0  0  0  0  0
    3.8264    1.8528   19.1695 H   0  0  0  0  0  0  0  0  0  0  0  0
  1  2  1  0
  2  3  2  0
  3  4  1  0
  4  5  1  0
  4  6  2  0
  6  7  1  0
  7  8  2  0
  8  9  1  0
  8 10  1  0
 10 11  1  0
 11 12  2  0
 12 13  1  0
 13 14  1  0
 14 15  1  0
 14 16  1  0
 16 17  1  0
 16 18  1  0
 16 19  1  0
 19 20  1  0
 19 21  1  0
 13 22  2  0
 22 23  1  0
  6 24  1  0
 24 25  1  0
 24 26  2  0
 26 27  1  0
 26  2  1  0
 23  7  1  0
 23 11  1  0
 19 14  1  0
M  END
>  <cnnaffinity>  (1) 
-4.96344

>  <filename>  (1) 
c1cncc(-c2csc3nc(C4CC4)nn23)c1

$$$$
