
     RDKit          3D

 35 38  0  0  0  0  0  0  0  0999 V2000
    4.9549    1.7928   16.9550 H   0  0  0  0  0  0  0  0  0  0  0  0
    5.4064    1.2957   17.8084 C   0  0  0  0  0  0  0  0  0  0  0  0
    6.5656    0.6559   17.5810 N   0  0  0  0  0  0  0  0  0  0  0  0
    7.1334    0.0345   18.6216 C   0  0  0  0  0  0  0  0  0  0  0  0
    8.0927   -0.4487   18.4220 H   0  0  0  0  0  0  0  0  0  0  0  0
    6.5813    0.0238   19.9097 C   0  0  0  0  0  0  0  0  0  0  0  0
    7.2296   -0.6593   21.0543 C   0  0  0  0  0  0  0  0  0  0  0  0
    6.8469   -0.3424   22.0287 H   0  0  0  0  0  0  0  0  0  0  0  0
    8.2889   -0.3681   21.0215 H   0  0  0  0  0  0  0  0  0  0  0  0
    7.0878   -2.1225   20.9928 N   0  0  0  0  0  0  0  0  0  0  0  0
    8.1559   -3.1072   21.0352 C   0  0  0  0  0  0  0  0  0  0  0  0
    9.7046   -2.7812   20.9891 C   0  0  0  0  0  0  0  0  0  0  0  0
    9.7186   -2.7881   20.9903 C   0  0  0  0  0  0  0  0  0  0  0  0
    9.0922   -1.7947   19.7462 H   0  0  0  0  0  0  0  0  0  0  0  0
   12.3348   -1.9206   22.0265 C   0  0  0  0  0  0  0  0  0  0  0  0
   12.1137   -1.7501   20.8899 H   0  0  0  0  0  0  0  0  0  0  0  0
   12.6748   -2.1026   21.8606 C   0  0  0  0  0  0  0  0  0  0  0  0
   13.5977   -2.6269   21.7354 H   0  0  0  0  0  0  0  0  0  0  0  0
   11.4684   -2.8356   22.7949 C   0  0  0  0  0  0  0  0  0  0  0  0
   10.2046   -3.1502   22.4135 C   0  0  0  0  0  0  0  0  0  0  0  0
    9.6579   -4.0394   23.4368 C   0  0  0  0  0  0  0  0  0  0  0  0
    8.6864   -4.5299   23.5190 H   0  0  0  0  0  0  0  0  0  0  0  0
   10.6872   -4.3655   24.2782 C   0  0  0  0  0  0  0  0  0  0  0  0
   10.8332   -5.1306   25.0599 H   0  0  0  0  0  0  0  0  0  0  0  0
   11.7812   -3.6552   23.8326 N   0  0  0  0  0  0  0  0  0  0  0  0
   12.7459   -3.8705   24.1138 H   0  0  0  0  0  0  0  0  0  0  0  0
    7.4878   -4.2910   21.0287 N   0  0  0  0  0  0  0  0  0  0  0  0
    6.1476   -4.0984   20.9076 C   0  0  0  0  0  0  0  0  0  0  0  0
    5.4291   -4.9250   20.8476 H   0  0  0  0  0  0  0  0  0  0  0  0
    5.8944   -2.7618   20.8726 C   0  0  0  0  0  0  0  0  0  0  0  0
    5.0780   -2.0886   20.7423 H   0  0  0  0  0  0  0  0  0  0  0  0
    5.3773    0.6901   20.1242 C   0  0  0  0  0  0  0  0  0  0  0  0
    4.9538    0.7020   21.1327 H   0  0  0  0  0  0  0  0  0  0  0  0
    4.7744    1.3412   19.0542 C   0  0  0  0  0  0  0  0  0  0  0  0
    3.8464    1.8770   19.1874 H   0  0  0  0  0  0  0  0  0  0  0  0
  1  2  1  0
  2  3  2  0
  3  4  1  0
  4  5  1  0
  4  6  2  0
  6  7  1  0
  7  8  1  0
  7  9  1  0
  7 10  1  0
 10 11  1  0
 11 12  1  0
 12 13  2  0
 13 14  1  0
 13 15  1  0
 15 16  1  0
 15 17  2  0
 17 18  1  0
 17 19  1  0
 19 20  2  0
 20 21  1  0
 21 22  1  0
 21 23  2  0
 23 24  1  0
 23 25  1  0
 25 26  1  0
 11 27  2  0
 27 28  1  0
 28 29  1  0
 28 30  2  0
 30 31  1  0
  6 32  1  0
 32 33  1  0
 32 34  2  0
 34 35  1  0
 34  2  1  0
 30 10  1  0
 20 12  1  0
 25 19  1  0
M  END
>  <cnnaffinity>  (1) 
-5.05959

>  <filename>  (1) 
c1cncc(Cn2ccnc2-c2cccc3[nH]ccc23)c1

$$$$
