
     RDKit          3D

 37 40  0  0  0  0  0  0  0  0999 V2000
    5.3360    1.6243   17.0654 H   0  0  0  0  0  0  0  0  0  0  0  0
    5.9005    1.2418   17.9139 C   0  0  0  0  0  0  0  0  0  0  0  0
    7.1005    0.7081   17.6292 N   0  0  0  0  0  0  0  0  0  0  0  0
    7.8018    0.1857   18.6405 C   0  0  0  0  0  0  0  0  0  0  0  0
    8.7792   -0.2267   18.3877 H   0  0  0  0  0  0  0  0  0  0  0  0
    7.3361    0.1240   19.9643 C   0  0  0  0  0  0  0  0  0  0  0  0
    8.0950   -0.6207   20.9808 C   0  0  0  0  0  0  0  0  0  0  0  0
    9.4272   -0.5559   21.0285 N   0  0  0  0  0  0  0  0  0  0  0  0
    9.7287   -1.3537   22.0512 N   0  0  0  0  0  0  0  0  0  0  0  0
    8.6842   -1.9695   22.6207 C   0  0  0  0  0  0  0  0  0  0  0  0
    7.5659   -1.5315   21.9529 C   0  0  0  0  0  0  0  0  0  0  0  0
    6.1662   -2.0651   22.0919 C   0  0  0  0  0  0  0  0  0  0  0  0
    5.9370   -2.2879   23.1390 H   0  0  0  0  0  0  0  0  0  0  0  0
    5.4799   -1.2871   21.7583 H   0  0  0  0  0  0  0  0  0  0  0  0
    5.8723   -3.2407   21.1994 C   0  0  0  0  0  0  0  0  0  0  0  0
    5.6745   -4.5512   21.6304 C   0  0  0  0  0  0  0  0  0  0  0  0
    5.6857   -4.7955   22.6872 H   0  0  0  0  0  0  0  0  0  0  0  0
    5.4389   -5.5436   20.6738 C   0  0  0  0  0  0  0  0  0  0  0  0
    5.2730   -6.5752   20.9818 H   0  0  0  0  0  0  0  0  0  0  0  0
    5.3716   -5.2976   19.3584 N   0  0  0  0  0  0  0  0  0  0  0  0
    5.5331   -4.0229   18.9637 C   0  0  0  0  0  0  0  0  0  0  0  0
    5.4423   -3.7927   17.9070 H   0  0  0  0  0  0  0  0  0  0  0  0
    5.7846   -2.9830   19.8337 C   0  0  0  0  0  0  0  0  0  0  0  0
    5.9171   -1.9730   19.4613 H   0  0  0  0  0  0  0  0  0  0  0  0
    9.1568   -2.9417   23.6566 C   0  0  0  0  0  0  0  0  0  0  0  0
    8.9941   -3.9781   23.3430 H   0  0  0  0  0  0  0  0  0  0  0  0
    8.6269   -2.8076   24.6007 H   0  0  0  0  0  0  0  0  0  0  0  0
   10.6568   -2.5842   23.7791 C   0  0  0  0  0  0  0  0  0  0  0  0
   11.2985   -3.4578   23.8883 H   0  0  0  0  0  0  0  0  0  0  0  0
   10.7854   -1.9497   24.6560 H   0  0  0  0  0  0  0  0  0  0  0  0
   11.0283   -1.7712   22.5096 C   0  0  0  0  0  0  0  0  0  0  0  0
   11.5090   -2.3743   21.7355 H   0  0  0  0  0  0  0  0  0  0  0  0
   11.6645   -0.9068   22.7071 H   0  0  0  0  0  0  0  0  0  0  0  0
    6.1116    0.7482   20.2555 C   0  0  0  0  0  0  0  0  0  0  0  0
    5.7500    0.7949   21.2843 H   0  0  0  0  0  0  0  0  0  0  0  0
    5.3829    1.3085   19.2104 C   0  0  0  0  0  0  0  0  0  0  0  0
    4.4233    1.7803   19.3847 H   0  0  0  0  0  0  0  0  0  0  0  0
  1  2  1  0
  2  3  2  0
  3  4  1  0
  4  5  1  0
  4  6  2  0
  6  7  1  0
  7  8  2  0
  8  9  1  0
  9 10  1  0
 10 11  2  0
 11 12  1  0
 12 13  1  0
 12 14  1  0
 12 15  1  0
 15 16  2  0
 16 17  1  0
 16 18  1  0
 18 19  1  0
 18 20  2  0
 20 21  1  0
 21 22  1  0
 21 23  2  0
 23 24  1  0
 10 25  1  0
 25 26  1  0
 25 27  1  0
 25 28  1  0
 28 29  1  0
 28 30  1  0
 28 31  1  0
 31 32  1  0
 31 33  1  0
  6 34  1  0
 34 35  1  0
 34 36  2  0
 36 37  1  0
 36  2  1  0
 11  7  1  0
 23 15  1  0
 31  9  1  0
M  END
>  <cnnaffinity>  (1) 
-5.61409

>  <filename>  (1) 
c1cncc(-c2nn3c(c2Cc2ccncc2)CCC3)c1

$$$$
