
     RDKit          3D

 31 33  0  0  0  0  0  0  0  0999 V2000
    4.9093    1.7869   16.9920 H   0  0  0  0  0  0  0  0  0  0  0  0
    5.3953    1.3000   17.8348 C   0  0  0  0  0  0  0  0  0  0  0  0
    6.5598    0.6849   17.5688 N   0  0  0  0  0  0  0  0  0  0  0  0
    7.1729    0.0651   18.5821 C   0  0  0  0  0  0  0  0  0  0  0  0
    8.1227   -0.4232   18.3741 H   0  0  0  0  0  0  0  0  0  0  0  0
    6.6611    0.0163   19.8955 C   0  0  0  0  0  0  0  0  0  0  0  0
    7.3672   -0.6903   20.9251 N   0  0  0  0  0  0  0  0  0  0  0  0
    7.5824   -2.0443   21.0160 C   0  0  0  0  0  0  0  0  0  0  0  0
    7.1960   -2.7306   20.2803 H   0  0  0  0  0  0  0  0  0  0  0  0
    8.2941   -2.3417   22.0643 N   0  0  0  0  0  0  0  0  0  0  0  0
    8.5779   -1.1628   22.7095 N   0  0  0  0  0  0  0  0  0  0  0  0
    8.0225   -0.1932   22.0319 C   0  0  0  0  0  0  0  0  0  0  0  0
    8.0699    1.2770   22.3704 C   0  0  0  0  0  0  0  0  0  0  0  0
    8.8631    1.4060   23.1160 H   0  0  0  0  0  0  0  0  0  0  0  0
    8.3870    1.8350   21.4810 H   0  0  0  0  0  0  0  0  0  0  0  0
    6.8271    1.8597   22.8792 N   0  0  0  0  0  0  0  0  0  0  0  0
    6.3061    2.4920   22.2902 H   0  0  0  0  0  0  0  0  0  0  0  0
    6.1685    1.4252   23.9901 C   0  0  0  0  0  0  0  0  0  0  0  0
    6.7990    0.6651   24.9804 C   0  0  0  0  0  0  0  0  0  0  0  0
    7.8228    0.3419   24.8691 H   0  0  0  0  0  0  0  0  0  0  0  0
    6.0669    0.3085   26.0994 C   0  0  0  0  0  0  0  0  0  0  0  0
    6.5330   -0.2837   26.8800 H   0  0  0  0  0  0  0  0  0  0  0  0
    4.7918    0.6447   26.3157 N   0  0  0  0  0  0  0  0  0  0  0  0
    4.2092    1.3716   25.3588 C   0  0  0  0  0  0  0  0  0  0  0  0
    3.1753    1.6417   25.5486 H   0  0  0  0  0  0  0  0  0  0  0  0
    4.8299    1.7869   24.1912 C   0  0  0  0  0  0  0  0  0  0  0  0
    4.2985    2.3841   23.4638 H   0  0  0  0  0  0  0  0  0  0  0  0
    5.4432    0.6525   20.1610 C   0  0  0  0  0  0  0  0  0  0  0  0
    5.0138    0.6117   21.1641 H   0  0  0  0  0  0  0  0  0  0  0  0
    4.8048    1.3138   19.1034 C   0  0  0  0  0  0  0  0  0  0  0  0
    3.8711    1.8428   19.2588 H   0  0  0  0  0  0  0  0  0  0  0  0
  1  2  1  0
  2  3  2  0
  3  4  1  0
  4  5  1  0
  4  6  2  0
  6  7  1  0
  7  8  1  0
  8  9  1  0
  8 10  2  0
 10 11  1  0
 11 12  2  0
 12 13  1  0
 13 14  1  0
 13 15  1  0
 13 16  1  0
 16 17  1  0
 16 18  1  0
 18 19  2  0
 19 20  1  0
 19 21  1  0
 21 22  1  0
 21 23  2  0
 23 24  1  0
 24 25  1  0
 24 26  2  0
 26 27  1  0
  6 28  1  0
 28 29  1  0
 28 30  2  0
 30 31  1  0
 30  2  1  0
 12  7  1  0
 26 18  1  0
M  END
>  <cnnaffinity>  (1) 
-4.95143

>  <filename>  (1) 
c1cncc(-n2cnnc2CNc2ccncc2)c1

$$$$
