
     RDKit          3D

 36 39  0  0  0  0  0  0  0  0999 V2000
    5.1986    1.8002   16.7721 H   0  0  0  0  0  0  0  0  0  0  0  0
    5.6290    1.3362   17.6565 C   0  0  0  0  0  0  0  0  0  0  0  0
    6.7993    0.7025   17.4834 N   0  0  0  0  0  0  0  0  0  0  0  0
    7.3344    0.0972   18.5474 C   0  0  0  0  0  0  0  0  0  0  0  0
    8.3021   -0.3759   18.3970 H   0  0  0  0  0  0  0  0  0  0  0  0
    6.7214    0.0474   19.8145 C   0  0  0  0  0  0  0  0  0  0  0  0
    7.3154   -0.7786   20.8825 C   0  0  0  0  0  0  0  0  0  0  0  0
    8.4784   -1.4156   20.6726 N   0  0  0  0  0  0  0  0  0  0  0  0
    8.6774   -2.0681   21.8309 N   0  0  0  0  0  0  0  0  0  0  0  0
    9.7564   -2.7495   22.3739 C   0  0  0  0  0  0  0  0  0  0  0  0
   10.6450   -2.9032   21.7899 H   0  0  0  0  0  0  0  0  0  0  0  0
    9.3803   -3.0783   23.6362 C   0  0  0  0  0  0  0  0  0  0  0  0
    9.9093   -3.5386   24.4586 H   0  0  0  0  0  0  0  0  0  0  0  0
    8.0844   -2.6400   23.8417 N   0  0  0  0  0  0  0  0  0  0  0  0
    7.3771   -2.8382   25.0238 N   0  0  0  0  0  0  0  0  0  0  0  0
    6.4811   -2.3648   24.9131 H   0  0  0  0  0  0  0  0  0  0  0  0
    7.1150   -4.2571   25.3361 C   0  0  0  0  0  0  0  0  0  0  0  0
    6.9494   -4.8609   24.4326 H   0  0  0  0  0  0  0  0  0  0  0  0
    7.9998   -4.6828   25.8315 H   0  0  0  0  0  0  0  0  0  0  0  0
    5.9068   -4.3450   26.2189 C   0  0  0  0  0  0  0  0  0  0  0  0
    5.7939   -3.5155   27.3448 C   0  0  0  0  0  0  0  0  0  0  0  0
    6.5992   -2.8195   27.5980 H   0  0  0  0  0  0  0  0  0  0  0  0
    4.7321   -3.5169   28.1582 N   0  0  0  0  0  0  0  0  0  0  0  0
    3.7233   -4.3510   27.8679 C   0  0  0  0  0  0  0  0  0  0  0  0
    2.8637   -4.3145   28.5364 H   0  0  0  0  0  0  0  0  0  0  0  0
    3.7395   -5.2323   26.7832 C   0  0  0  0  0  0  0  0  0  0  0  0
    2.8893   -5.8817   26.5882 H   0  0  0  0  0  0  0  0  0  0  0  0
    4.8603   -5.2372   25.9516 C   0  0  0  0  0  0  0  0  0  0  0  0
    4.9196   -5.9127   25.0962 H   0  0  0  0  0  0  0  0  0  0  0  0
    7.6774   -1.9234   22.7338 C   0  0  0  0  0  0  0  0  0  0  0  0
    6.7731   -1.0250   22.1648 C   0  0  0  0  0  0  0  0  0  0  0  0
    5.9591   -0.4857   22.6172 H   0  0  0  0  0  0  0  0  0  0  0  0
    5.5334    0.7804   19.9917 C   0  0  0  0  0  0  0  0  0  0  0  0
    5.0527    0.8686   20.9676 H   0  0  0  0  0  0  0  0  0  0  0  0
    4.9767    1.4275   18.8916 C   0  0  0  0  0  0  0  0  0  0  0  0
    4.0522    1.9931   18.9743 H   0  0  0  0  0  0  0  0  0  0  0  0
  1  2  1  0
  2  3  2  0
  3  4  1  0
  4  5  1  0
  4  6  2  0
  6  7  1  0
  7  8  2  0
  8  9  1  0
  9 10  1  0
 10 11  1  0
 10 12  2  0
 12 13  1  0
 12 14  1  0
 14 15  1  0
 15 16  1  0
 15 17  1  0
 17 18  1  0
 17 19  1  0
 17 20  1  0
 20 21  2  0
 21 22  1  0
 21 23  1  0
 23 24  2  0
 24 25  1  0
 24 26  1  0
 26 27  1  0
 26 28  2  0
 28 29  1  0
 14 30  1  0
 30 31  2  0
 31 32  1  0
  6 33  1  0
 33 34  1  0
 33 35  2  0
 35 36  1  0
 35  2  1  0
 31  7  1  0
 30  9  1  0
 28 20  1  0
M  END
>  <cnnaffinity>  (1) 
-5.37843

>  <filename>  (1) 
c1cncc(CNn2ccn3nc(-c4cccnc4)cc23)c1

$$$$
