
     RDKit          3D

 38 41  0  0  0  0  0  0  0  0999 V2000
    4.9410    2.7321   16.5933 H   0  0  0  0  0  0  0  0  0  0  0  0
    5.3673    2.1575   17.4115 C   0  0  0  0  0  0  0  0  0  0  0  0
    6.4014    1.3534   17.1025 N   0  0  0  0  0  0  0  0  0  0  0  0
    6.9370    0.6299   18.0940 C   0  0  0  0  0  0  0  0  0  0  0  0
    7.7815   -0.0048   17.8237 H   0  0  0  0  0  0  0  0  0  0  0  0
    6.4836    0.6398   19.4464 C   0  0  0  0  0  0  0  0  0  0  0  0
    7.0516   -0.1762   20.4197 N   0  0  0  0  0  0  0  0  0  0  0  0
    7.5188   -1.5255   20.0959 C   0  0  0  0  0  0  0  0  0  0  0  0
    7.0512   -1.8452   19.1639 H   0  0  0  0  0  0  0  0  0  0  0  0
    8.6111   -1.5422   19.9478 H   0  0  0  0  0  0  0  0  0  0  0  0
    7.1551   -2.5251   21.2071 C   0  0  0  0  0  0  0  0  0  0  0  0
    7.4955   -3.5299   20.9337 H   0  0  0  0  0  0  0  0  0  0  0  0
    6.0545   -2.5621   21.3048 H   0  0  0  0  0  0  0  0  0  0  0  0
    7.7934   -2.1185   22.4620 N   0  0  0  0  0  0  0  0  0  0  0  0
    7.8893   -3.0100   23.4847 C   0  0  0  0  0  0  0  0  0  0  0  0
    8.7037   -2.6730   24.5280 O   0  0  0  0  0  0  0  0  0  0  0  0
    8.6017   -3.7054   25.4303 C   0  0  0  0  0  0  0  0  0  0  0  0
    9.2512   -3.7885   26.6540 C   0  0  0  0  0  0  0  0  0  0  0  0
    9.8700   -2.9808   27.0174 H   0  0  0  0  0  0  0  0  0  0  0  0
    9.0567   -4.9623   27.3879 C   0  0  0  0  0  0  0  0  0  0  0  0
    9.5819   -5.1151   28.3266 H   0  0  0  0  0  0  0  0  0  0  0  0
    8.1731   -5.9656   26.9463 C   0  0  0  0  0  0  0  0  0  0  0  0
    8.0372   -6.8488   27.5660 H   0  0  0  0  0  0  0  0  0  0  0  0
    7.4784   -5.8239   25.7492 C   0  0  0  0  0  0  0  0  0  0  0  0
    6.7377   -6.5543   25.4529 H   0  0  0  0  0  0  0  0  0  0  0  0
    7.7244   -4.6900   24.9482 C   0  0  0  0  0  0  0  0  0  0  0  0
    7.2893   -4.2202   23.6566 C   0  0  0  0  0  0  0  0  0  0  0  0
    6.6035   -4.6667   22.9596 H   0  0  0  0  0  0  0  0  0  0  0  0
    8.0369   -0.6782   22.6289 C   0  0  0  0  0  0  0  0  0  0  0  0
    9.0367   -0.4278   22.2520 H   0  0  0  0  0  0  0  0  0  0  0  0
    8.0203   -0.4137   23.6866 H   0  0  0  0  0  0  0  0  0  0  0  0
    6.9780    0.1289   21.8530 C   0  0  0  0  0  0  0  0  0  0  0  0
    7.1289    1.2003   22.0153 H   0  0  0  0  0  0  0  0  0  0  0  0
    5.9868   -0.1220   22.2675 H   0  0  0  0  0  0  0  0  0  0  0  0
    5.4131    1.5087   19.7402 C   0  0  0  0  0  0  0  0  0  0  0  0
    5.0287    1.5544   20.7592 H   0  0  0  0  0  0  0  0  0  0  0  0
    4.8561    2.2683   18.7088 C   0  0  0  0  0  0  0  0  0  0  0  0
    4.0397    2.9559   18.9058 H   0  0  0  0  0  0  0  0  0  0  0  0
  1  2  1  0
  2  3  2  0
  3  4  1  0
  4  5  1  0
  4  6  2  0
  6  7  1  0
  7  8  1  0
  8  9  1  0
  8 10  1  0
  8 11  1  0
 11 12  1  0
 11 13  1  0
 11 14  1  0
 14 15  1  0
 15 16  1  0
 16 17  1  0
 17 18  2  0
 18 19  1  0
 18 20  1  0
 20 21  1  0
 20 22  2  0
 22 23  1  0
 22 24  1  0
 24 25  1  0
 24 26  2  0
 26 27  1  0
 27 28  1  0
 14 29  1  0
 29 30  1  0
 29 31  1  0
 29 32  1  0
 32 33  1  0
 32 34  1  0
  6 35  1  0
 35 36  1  0
 35 37  2  0
 37 38  1  0
 37  2  1  0
 32  7  1  0
 27 15  2  0
 26 17  1  0
M  END
>  <cnnaffinity>  (1) 
-4.78799

>  <filename>  (1) 
c1cncc(N2CCN(c3cc4ccccc4o3)CC2)c1

$$$$
