
     RDKit          3D

 33 36  0  0  0  0  0  0  0  0999 V2000
    4.9161    1.7752   17.0000 H   0  0  0  0  0  0  0  0  0  0  0  0
    5.4042    1.2909   17.8404 C   0  0  0  0  0  0  0  0  0  0  0  0
    6.5691    0.6764   17.5800 N   0  0  0  0  0  0  0  0  0  0  0  0
    7.1752    0.0648   18.5976 C   0  0  0  0  0  0  0  0  0  0  0  0
    8.1185   -0.4282   18.3602 H   0  0  0  0  0  0  0  0  0  0  0  0
    6.6531    0.0201   19.8941 C   0  0  0  0  0  0  0  0  0  0  0  0
    7.3443   -0.6818   20.9648 C   0  0  0  0  0  0  0  0  0  0  0  0
    6.8090   -0.9886   22.1283 N   0  0  0  0  0  0  0  0  0  0  0  0
    7.8019   -1.6172   22.8077 C   0  0  0  0  0  0  0  0  0  0  0  0
    7.6459   -2.2205   24.1532 C   0  0  0  0  0  0  0  0  0  0  0  0
    8.2575   -3.4419   24.3973 C   0  0  0  0  0  0  0  0  0  0  0  0
    8.8686   -3.9008   23.6237 H   0  0  0  0  0  0  0  0  0  0  0  0
    8.0984   -4.1149   25.6307 C   0  0  0  0  0  0  0  0  0  0  0  0
    8.5918   -5.0723   25.7775 H   0  0  0  0  0  0  0  0  0  0  0  0
    7.3288   -3.5683   26.6279 C   0  0  0  0  0  0  0  0  0  0  0  0
    7.1954   -4.0886   27.5768 H   0  0  0  0  0  0  0  0  0  0  0  0
    6.6967   -2.3059   26.4415 C   0  0  0  0  0  0  0  0  0  0  0  0
    5.9100   -1.7267   27.4831 C   0  0  0  0  0  0  0  0  0  0  0  0
    5.7820   -2.2829   28.4119 H   0  0  0  0  0  0  0  0  0  0  0  0
    5.3329   -0.4927   27.3280 C   0  0  0  0  0  0  0  0  0  0  0  0
    4.7388   -0.0560   28.1289 H   0  0  0  0  0  0  0  0  0  0  0  0
    5.5212    0.2316   26.1217 C   0  0  0  0  0  0  0  0  0  0  0  0
    5.0710    1.2151   26.0138 H   0  0  0  0  0  0  0  0  0  0  0  0
    6.2712   -0.2952   25.0930 C   0  0  0  0  0  0  0  0  0  0  0  0
    6.4229    0.2743   24.1801 H   0  0  0  0  0  0  0  0  0  0  0  0
    6.8649   -1.5963   25.1994 C   0  0  0  0  0  0  0  0  0  0  0  0
    8.9333   -1.7149   22.1155 N   0  0  0  0  0  0  0  0  0  0  0  0
    8.6185   -1.1045   20.9536 N   0  0  0  0  0  0  0  0  0  0  0  0
    9.3019   -0.9996   20.2252 H   0  0  0  0  0  0  0  0  0  0  0  0
    5.4322    0.6585   20.1548 C   0  0  0  0  0  0  0  0  0  0  0  0
    5.0064    0.6282   21.1622 H   0  0  0  0  0  0  0  0  0  0  0  0
    4.8031    1.3139   19.1053 C   0  0  0  0  0  0  0  0  0  0  0  0
    3.8705    1.8460   19.2605 H   0  0  0  0  0  0  0  0  0  0  0  0
  1  2  1  0
  2  3  2  0
  3  4  1  0
  4  5  1  0
  4  6  2  0
  6  7  1  0
  7  8  2  0
  8  9  1  0
  9 10  1  0
 10 11  2  0
 11 12  1  0
 11 13  1  0
 13 14  1  0
 13 15  2  0
 15 16  1  0
 15 17  1  0
 17 18  2  0
 18 19  1  0
 18 20  1  0
 20 21  1  0
 20 22  2  0
 22 23  1  0
 22 24  1  0
 24 25  1  0
 24 26  2  0
  9 27  2  0
 27 28  1  0
 28 29  1  0
  6 30  1  0
 30 31  1  0
 30 32  2  0
 32 33  1  0
 32  2  1  0
 28  7  1  0
 26 10  1  0
 26 17  1  0
M  END
>  <cnnaffinity>  (1) 
-4.98164

>  <filename>  (1) 
c1cncc(-c2nc(-c3cccc4ccccc34)n[nH]2)c1

$$$$
