
     RDKit          3D

 32 34  0  0  0  0  0  0  0  0999 V2000
    8.9131   -3.1155   22.0898 H   0  0  0  0  0  0  0  0  0  0  0  0
    8.3834   -2.1845   21.9272 C   0  0  0  0  0  0  0  0  0  0  0  0
    8.1160   -1.3007   22.9254 N   0  0  0  0  0  0  0  0  0  0  0  0
    7.5015   -0.3343   22.2673 C   0  0  0  0  0  0  0  0  0  0  0  0
    7.0365    0.8456   22.7846 N   0  0  0  0  0  0  0  0  0  0  0  0
    7.4986    2.1323   22.2447 C   0  0  0  0  0  0  0  0  0  0  0  0
    7.9047    1.9994   21.2377 H   0  0  0  0  0  0  0  0  0  0  0  0
    6.6305    2.7975   22.1400 H   0  0  0  0  0  0  0  0  0  0  0  0
    8.5347    2.7967   23.1630 C   0  0  0  0  0  0  0  0  0  0  0  0
    9.4558    2.2043   23.1323 H   0  0  0  0  0  0  0  0  0  0  0  0
    8.7875    3.7909   22.7754 H   0  0  0  0  0  0  0  0  0  0  0  0
    8.0261    2.8955   24.6071 C   0  0  0  0  0  0  0  0  0  0  0  0
    8.8035    3.3090   25.2605 H   0  0  0  0  0  0  0  0  0  0  0  0
    7.1801    3.5982   24.6502 H   0  0  0  0  0  0  0  0  0  0  0  0
    7.5767    1.5198   25.1149 C   0  0  0  0  0  0  0  0  0  0  0  0
    7.1461    1.6029   26.1201 H   0  0  0  0  0  0  0  0  0  0  0  0
    8.4336    0.8418   25.1866 H   0  0  0  0  0  0  0  0  0  0  0  0
    6.5558    0.8878   24.1642 C   0  0  0  0  0  0  0  0  0  0  0  0
    6.2947   -0.1235   24.4839 H   0  0  0  0  0  0  0  0  0  0  0  0
    5.6297    1.4831   24.1895 H   0  0  0  0  0  0  0  0  0  0  0  0
    7.3702   -0.6676   20.9382 N   0  0  0  0  0  0  0  0  0  0  0  0
    6.6573    0.0019   19.9007 C   0  0  0  0  0  0  0  0  0  0  0  0
    7.1770    0.0439   18.5971 C   0  0  0  0  0  0  0  0  0  0  0  0
    8.1249   -0.4396   18.3734 H   0  0  0  0  0  0  0  0  0  0  0  0
    6.5727    0.6741   17.5895 N   0  0  0  0  0  0  0  0  0  0  0  0
    5.4052    1.2930   17.8430 C   0  0  0  0  0  0  0  0  0  0  0  0
    4.9208    1.7811   16.9986 H   0  0  0  0  0  0  0  0  0  0  0  0
    4.8122    1.3048   19.1078 C   0  0  0  0  0  0  0  0  0  0  0  0
    3.8797    1.8380   19.2595 H   0  0  0  0  0  0  0  0  0  0  0  0
    5.4409    0.6477   20.1671 C   0  0  0  0  0  0  0  0  0  0  0  0
    5.0140    0.6316   21.1694 H   0  0  0  0  0  0  0  0  0  0  0  0
    7.9658   -1.8714   20.7233 N   0  0  0  0  0  0  0  0  0  0  0  0
  1  2  1  0
  2  3  1  0
  3  4  2  0
  4  5  1  0
  5  6  1  0
  6  7  1  0
  6  8  1  0
  6  9  1  0
  9 10  1  0
  9 11  1  0
  9 12  1  0
 12 13  1  0
 12 14  1  0
 12 15  1  0
 15 16  1  0
 15 17  1  0
 15 18  1  0
 18 19  1  0
 18 20  1  0
  4 21  1  0
 21 22  1  0
 22 23  2  0
 23 24  1  0
 23 25  1  0
 25 26  2  0
 26 27  1  0
 26 28  1  0
 28 29  1  0
 28 30  2  0
 30 31  1  0
 21 32  1  0
 32  2  2  0
 18  5  1  0
 30 22  1  0
M  END
>  <cnnaffinity>  (1) 
-4.81357

>  <filename>  (1) 
c1cncc(-n2ncnc2N2CCCCC2)c1

$$$$
