
     RDKit          3D

 42 45  0  0  0  0  0  0  0  0999 V2000
    4.9547    1.7868   16.9829 H   0  0  0  0  0  0  0  0  0  0  0  0
    5.4191    1.2949   17.8337 C   0  0  0  0  0  0  0  0  0  0  0  0
    6.5799    0.6632   17.5906 N   0  0  0  0  0  0  0  0  0  0  0  0
    7.1744    0.0610   18.6308 C   0  0  0  0  0  0  0  0  0  0  0  0
    8.1143   -0.4458   18.3976 H   0  0  0  0  0  0  0  0  0  0  0  0
    6.6651    0.0578   19.9455 C   0  0  0  0  0  0  0  0  0  0  0  0
    7.3683   -0.6198   21.0946 C   0  0  0  0  0  0  0  0  0  0  0  0
    8.3489    0.2206   21.8677 C   0  0  0  0  0  0  0  0  0  0  0  0
    8.0685    0.8622   22.9553 N   0  0  0  0  0  0  0  0  0  0  0  0
    9.1229    1.6012   23.4331 N   0  0  0  0  0  0  0  0  0  0  0  0
   10.1684    1.4728   22.6783 C   0  0  0  0  0  0  0  0  0  0  0  0
   11.3497    2.0566   22.8501 O   0  0  0  0  0  0  0  0  0  0  0  0
   11.5242    2.9212   24.0000 C   0  0  0  0  0  0  0  0  0  0  0  0
   12.6036    2.9655   24.1333 H   0  0  0  0  0  0  0  0  0  0  0  0
   11.0847    2.4490   24.8831 H   0  0  0  0  0  0  0  0  0  0  0  0
   10.9329    4.3090   23.7373 C   0  0  0  0  0  0  0  0  0  0  0  0
   11.3666    4.6880   22.7910 H   0  0  0  0  0  0  0  0  0  0  0  0
    9.8657    4.1615   23.5442 H   0  0  0  0  0  0  0  0  0  0  0  0
   11.0812    5.2448   24.8453 N   0  0  0  0  0  0  0  0  0  0  0  0
   12.4421    5.6988   25.1210 C   0  0  0  0  0  0  0  0  0  0  0  0
   12.9561    4.9727   25.7551 H   0  0  0  0  0  0  0  0  0  0  0  0
   13.0360    5.8105   24.1973 H   0  0  0  0  0  0  0  0  0  0  0  0
   12.2990    7.0540   25.8400 C   0  0  0  0  0  0  0  0  0  0  0  0
   12.9329    7.8095   25.3633 H   0  0  0  0  0  0  0  0  0  0  0  0
   12.6203    6.9801   26.8825 H   0  0  0  0  0  0  0  0  0  0  0  0
   10.8002    7.3985   25.7546 C   0  0  0  0  0  0  0  0  0  0  0  0
   10.6184    8.4417   25.4817 H   0  0  0  0  0  0  0  0  0  0  0  0
   10.3135    7.2287   26.7184 H   0  0  0  0  0  0  0  0  0  0  0  0
   10.2424    6.4317   24.7121 C   0  0  0  0  0  0  0  0  0  0  0  0
    9.1925    6.1728   24.9061 H   0  0  0  0  0  0  0  0  0  0  0  0
   10.2909    6.8873   23.7013 H   0  0  0  0  0  0  0  0  0  0  0  0
    9.9852    0.4327   21.3176 S   0  0  0  0  0  0  0  0  0  0  0  0
    6.6324   -1.6473   21.9296 C   0  0  0  0  0  0  0  0  0  0  0  0
    5.5773   -1.8101   21.6943 H   0  0  0  0  0  0  0  0  0  0  0  0
    6.8652   -1.6567   22.9923 H   0  0  0  0  0  0  0  0  0  0  0  0
    7.6438   -2.0919   20.9127 C   0  0  0  0  0  0  0  0  0  0  0  0
    7.1589   -2.4976   20.0293 H   0  0  0  0  0  0  0  0  0  0  0  0
    8.6306   -2.4943   21.1386 H   0  0  0  0  0  0  0  0  0  0  0  0
    5.4518    0.7174   20.1670 C   0  0  0  0  0  0  0  0  0  0  0  0
    5.0251    0.7205   21.1710 H   0  0  0  0  0  0  0  0  0  0  0  0
    4.8151    1.3389   19.0926 C   0  0  0  0  0  0  0  0  0  0  0  0
    3.8688    1.8518   19.2200 H   0  0  0  0  0  0  0  0  0  0  0  0
  1  2  1  0
  2  3  2  0
  3  4  1  0
  4  5  1  0
  4  6  2  0
  6  7  1  0
  7  8  1  0
  8  9  2  0
  9 10  1  0
 10 11  2  0
 11 12  1  0
 12 13  1  0
 13 14  1  0
 13 15  1  0
 13 16  1  0
 16 17  1  0
 16 18  1  0
 16 19  1  0
 19 20  1  0
 20 21  1  0
 20 22  1  0
 20 23  1  0
 23 24  1  0
 23 25  1  0
 23 26  1  0
 26 27  1  0
 26 28  1  0
 26 29  1  0
 29 30  1  0
 29 31  1  0
 11 32  1  0
  7 33  1  0
 33 34  1  0
 33 35  1  0
 33 36  1  0
 36 37  1  0
 36 38  1  0
  6 39  1  0
 39 40  1  0
 39 41  2  0
 41 42  1  0
 41  2  1  0
 36  7  1  0
 32  8  1  0
 29 19  1  0
M  END
>  <cnnaffinity>  (1) 
-5.3186

>  <filename>  (1) 
c1cncc(C2(c3nnc(OCCN4CCCC4)s3)CC2)c1

$$$$
