
     RDKit          3D

 30 32  0  0  0  0  0  0  0  0999 V2000
    4.9109    1.7788   16.9981 H   0  0  0  0  0  0  0  0  0  0  0  0
    5.4006    1.2941   17.8392 C   0  0  0  0  0  0  0  0  0  0  0  0
    6.5680    0.6820   17.5737 N   0  0  0  0  0  0  0  0  0  0  0  0
    7.1727    0.0541   18.5914 C   0  0  0  0  0  0  0  0  0  0  0  0
    8.1233   -0.4322   18.3715 H   0  0  0  0  0  0  0  0  0  0  0  0
    6.6418   -0.0177   19.8925 C   0  0  0  0  0  0  0  0  0  0  0  0
    7.5265   -0.8252   21.1973 S   0  0  0  0  0  0  0  0  0  0  0  0
    8.4968    0.6341   21.7130 C   0  0  0  0  0  0  0  0  0  0  0  0
    9.1327    0.9183   20.8682 H   0  0  0  0  0  0  0  0  0  0  0  0
    7.8048    1.4678   21.8809 H   0  0  0  0  0  0  0  0  0  0  0  0
    9.2883    0.3000   22.9365 C   0  0  0  0  0  0  0  0  0  0  0  0
   10.6345    0.0314   22.8408 C   0  0  0  0  0  0  0  0  0  0  0  0
   11.1235    0.0597   21.8699 H   0  0  0  0  0  0  0  0  0  0  0  0
   11.4468   -0.2656   23.8886 N   0  0  0  0  0  0  0  0  0  0  0  0
   10.8860   -0.3191   25.0792 C   0  0  0  0  0  0  0  0  0  0  0  0
   11.5259   -0.5560   25.9222 H   0  0  0  0  0  0  0  0  0  0  0  0
    9.5036   -0.0899   25.3364 C   0  0  0  0  0  0  0  0  0  0  0  0
    8.9426   -0.1659   26.6502 C   0  0  0  0  0  0  0  0  0  0  0  0
    9.5899   -0.4029   27.4951 H   0  0  0  0  0  0  0  0  0  0  0  0
    7.6012    0.0590   26.8392 C   0  0  0  0  0  0  0  0  0  0  0  0
    7.1704    0.0015   27.8360 H   0  0  0  0  0  0  0  0  0  0  0  0
    6.7606    0.3673   25.7346 C   0  0  0  0  0  0  0  0  0  0  0  0
    5.7020    0.5388   25.8967 H   0  0  0  0  0  0  0  0  0  0  0  0
    7.2799    0.4476   24.4594 C   0  0  0  0  0  0  0  0  0  0  0  0
    6.6272    0.6745   23.6224 H   0  0  0  0  0  0  0  0  0  0  0  0
    8.6671    0.2237   24.2217 C   0  0  0  0  0  0  0  0  0  0  0  0
    5.4335    0.6442   20.1548 C   0  0  0  0  0  0  0  0  0  0  0  0
    5.0046    0.6286   21.1601 H   0  0  0  0  0  0  0  0  0  0  0  0
    4.8012    1.3120   19.1054 C   0  0  0  0  0  0  0  0  0  0  0  0
    3.8703    1.8464   19.2641 H   0  0  0  0  0  0  0  0  0  0  0  0
  1  2  1  0
  2  3  2  0
  3  4  1  0
  4  5  1  0
  4  6  2  0
  6  7  1  0
  7  8  1  0
  8  9  1  0
  8 10  1  0
  8 11  1  0
 11 12  2  0
 12 13  1  0
 12 14  1  0
 14 15  2  0
 15 16  1  0
 15 17  1  0
 17 18  2  0
 18 19  1  0
 18 20  1  0
 20 21  1  0
 20 22  2  0
 22 23  1  0
 22 24  1  0
 24 25  1  0
 24 26  2  0
  6 27  1  0
 27 28  1  0
 27 29  2  0
 29 30  1  0
 29  2  1  0
 26 11  1  0
 26 17  1  0
M  END
>  <cnnaffinity>  (1) 
-4.92589

>  <filename>  (1) 
c1cncc(SCc2cncc3ccccc23)c1

$$$$
