
     RDKit          3D

 41 43  0  0  0  0  0  0  0  0999 V2000
    4.8079    1.2990   19.0924 C   0  0  0  0  0  0  0  0  0  0  0  0
    5.3918    1.3016   17.8212 C   0  0  0  0  0  0  0  0  0  0  0  0
    6.5518    0.6774   17.5505 N   0  0  0  0  0  0  0  0  0  0  0  0
    7.1678    0.0504   18.5620 C   0  0  0  0  0  0  0  0  0  0  0  0
    6.6847   -0.0086   19.8916 C   0  0  0  0  0  0  0  0  0  0  0  0
    7.4478   -0.6201   20.9256 N   0  0  0  0  0  0  0  0  0  0  0  0
    7.3014   -0.3798   22.2737 C   0  0  0  0  0  0  0  0  0  0  0  0
    7.2000   -1.3115   23.1825 N   0  0  0  0  0  0  0  0  0  0  0  0
    7.2419   -0.6825   24.4102 N   0  0  0  0  0  0  0  0  0  0  0  0
    7.4110    0.5863   24.1773 C   0  0  0  0  0  0  0  0  0  0  0  0
    7.4312    0.8556   22.8334 N   0  0  0  0  0  0  0  0  0  0  0  0
    7.8523    2.0805   22.1543 C   0  0  0  0  0  0  0  0  0  0  0  0
    9.2907    2.0462   21.6232 C   0  0  0  0  0  0  0  0  0  0  0  0
   10.3874    1.9895   22.7168 C   0  0  0  0  0  0  0  0  0  0  0  0
   11.6474    2.8010   22.2861 C   0  0  0  0  0  0  0  0  0  0  0  0
   12.8863    2.4162   23.1123 C   0  0  0  0  0  0  0  0  0  0  0  0
   13.2705    0.9215   22.9195 C   0  0  0  0  0  0  0  0  0  0  0  0
   12.0621    0.0346   22.5139 C   0  0  0  0  0  0  0  0  0  0  0  0
   10.7442    0.5282   23.1432 C   0  0  0  0  0  0  0  0  0  0  0  0
    9.9179   -0.1498   22.8827 H   0  0  0  0  0  0  0  0  0  0  0  0
   10.8305    0.4809   24.2408 H   0  0  0  0  0  0  0  0  0  0  0  0
   11.9440    0.0492   21.4199 H   0  0  0  0  0  0  0  0  0  0  0  0
   12.2518   -1.0131   22.7772 H   0  0  0  0  0  0  0  0  0  0  0  0
   13.7190    0.5505   23.8518 H   0  0  0  0  0  0  0  0  0  0  0  0
   14.0518    0.8202   22.1549 H   0  0  0  0  0  0  0  0  0  0  0  0
   13.7340    3.0704   22.8695 H   0  0  0  0  0  0  0  0  0  0  0  0
   12.6595    2.5965   24.1726 H   0  0  0  0  0  0  0  0  0  0  0  0
   11.4288    3.8742   22.3858 H   0  0  0  0  0  0  0  0  0  0  0  0
   11.8571    2.6312   21.2166 H   0  0  0  0  0  0  0  0  0  0  0  0
    9.9929    2.4905   23.6193 H   0  0  0  0  0  0  0  0  0  0  0  0
    9.4084    2.9574   21.0298 H   0  0  0  0  0  0  0  0  0  0  0  0
    9.4166    1.2121   20.9156 H   0  0  0  0  0  0  0  0  0  0  0  0
    7.1575    2.2801   21.3341 H   0  0  0  0  0  0  0  0  0  0  0  0
    7.7331    2.8946   22.8803 H   0  0  0  0  0  0  0  0  0  0  0  0
    7.5411    1.3662   24.9218 H   0  0  0  0  0  0  0  0  0  0  0  0
    7.7537   -1.5734   20.8178 H   0  0  0  0  0  0  0  0  0  0  0  0
    5.4584    0.6279   20.1434 C   0  0  0  0  0  0  0  0  0  0  0  0
    5.0535    0.6120   21.1553 H   0  0  0  0  0  0  0  0  0  0  0  0
    8.1161   -0.4306   18.3324 H   0  0  0  0  0  0  0  0  0  0  0  0
    4.9230    1.8193   16.9853 H   0  0  0  0  0  0  0  0  0  0  0  0
    3.8752    1.8381   19.2483 H   0  0  0  0  0  0  0  0  0  0  0  0
  1  2  2  0
  2  3  1  0
  3  4  2  0
  4  5  1  0
  5  6  1  0
  6  7  1  0
  7  8  2  0
  8  9  1  0
  9 10  2  0
 10 11  1  0
 11 12  1  0
 12 13  1  0
 13 14  1  0
 14 15  1  0
 15 16  1  0
 16 17  1  0
 17 18  1  0
 18 19  1  0
 19 20  1  0
 19 21  1  0
 18 22  1  0
 18 23  1  0
 17 24  1  0
 17 25  1  0
 16 26  1  0
 16 27  1  0
 15 28  1  0
 15 29  1  0
 14 30  1  0
 13 31  1  0
 13 32  1  0
 12 33  1  0
 12 34  1  0
 10 35  1  0
  6 36  1  0
  5 37  2  0
 37 38  1  0
  4 39  1  0
  2 40  1  0
  1 41  1  0
 37  1  1  0
 11  7  1  0
 19 14  1  0
M  END
>  <cnnaffinity>  (1) 
-5.78054

>  <filename>  (1) 
c1cncc(Nc2nncn2CCC2CCCCC2)c1

$$$$
