
     RDKit          3D

 31 34  0  0  0  0  0  0  0  0999 V2000
    4.9218    1.7840   16.9918 H   0  0  0  0  0  0  0  0  0  0  0  0
    5.4018    1.2958   17.8332 C   0  0  0  0  0  0  0  0  0  0  0  0
    6.5666    0.6812   17.5701 N   0  0  0  0  0  0  0  0  0  0  0  0
    7.1672    0.0593   18.5864 C   0  0  0  0  0  0  0  0  0  0  0  0
    8.1119   -0.4373   18.3729 H   0  0  0  0  0  0  0  0  0  0  0  0
    6.6464    0.0219   19.8875 C   0  0  0  0  0  0  0  0  0  0  0  0
    7.3703   -0.7354   20.9065 C   0  0  0  0  0  0  0  0  0  0  0  0
    7.8921   -1.9191   20.7381 N   0  0  0  0  0  0  0  0  0  0  0  0
    8.3840   -2.3481   21.9493 N   0  0  0  0  0  0  0  0  0  0  0  0
    8.1660   -1.3993   22.8118 C   0  0  0  0  0  0  0  0  0  0  0  0
    8.4500   -1.4080   23.8577 H   0  0  0  0  0  0  0  0  0  0  0  0
    7.5416   -0.3253   22.2179 N   0  0  0  0  0  0  0  0  0  0  0  0
    7.2345    0.8769   22.8593 C   0  0  0  0  0  0  0  0  0  0  0  0
    6.9055    1.0654   24.1670 C   0  0  0  0  0  0  0  0  0  0  0  0
    6.8031    0.3050   24.9225 H   0  0  0  0  0  0  0  0  0  0  0  0
    6.7320    2.4672   24.3582 C   0  0  0  0  0  0  0  0  0  0  0  0
    6.4142    3.2587   25.4778 C   0  0  0  0  0  0  0  0  0  0  0  0
    6.2448    2.7739   26.4377 H   0  0  0  0  0  0  0  0  0  0  0  0
    6.3323    4.6380   25.3244 C   0  0  0  0  0  0  0  0  0  0  0  0
    6.0855    5.2632   26.1827 H   0  0  0  0  0  0  0  0  0  0  0  0
    6.5668    5.2408   24.0551 C   0  0  0  0  0  0  0  0  0  0  0  0
    6.4947    6.3256   23.9620 H   0  0  0  0  0  0  0  0  0  0  0  0
    6.8873    4.4789   22.9318 C   0  0  0  0  0  0  0  0  0  0  0  0
    7.0676    4.9345   21.9552 H   0  0  0  0  0  0  0  0  0  0  0  0
    6.9723    3.0899   23.1041 C   0  0  0  0  0  0  0  0  0  0  0  0
    7.2934    2.0877   22.2133 N   0  0  0  0  0  0  0  0  0  0  0  0
    7.4920    2.2309   21.2414 H   0  0  0  0  0  0  0  0  0  0  0  0
    5.4197    0.6526   20.1486 C   0  0  0  0  0  0  0  0  0  0  0  0
    4.9981    0.6390   21.1610 H   0  0  0  0  0  0  0  0  0  0  0  0
    4.7934    1.3121   19.0949 C   0  0  0  0  0  0  0  0  0  0  0  0
    3.8641    1.8468   19.2517 H   0  0  0  0  0  0  0  0  0  0  0  0
  1  2  1  0
  2  3  2  0
  3  4  1  0
  4  5  1  0
  4  6  2  0
  6  7  1  0
  7  8  2  0
  8  9  1  0
  9 10  2  0
 10 11  1  0
 10 12  1  0
 12 13  1  0
 13 14  2  0
 14 15  1  0
 14 16  1  0
 16 17  2  0
 17 18  1  0
 17 19  1  0
 19 20  1  0
 19 21  2  0
 21 22  1  0
 21 23  1  0
 23 24  1  0
 23 25  2  0
 25 26  1  0
 26 27  1  0
  6 28  1  0
 28 29  1  0
 28 30  2  0
 30 31  1  0
 30  2  1  0
 12  7  1  0
 26 13  1  0
 25 16  1  0
M  END
>  <cnnaffinity>  (1) 
-5.11012

>  <filename>  (1) 
c1cncc(-c2nncn2-c2cc3ccccc3[nH]2)c1

$$$$
