
     RDKit          3D

 32 35  0  0  0  0  0  0  0  0999 V2000
    4.9162    1.7761   17.0015 H   0  0  0  0  0  0  0  0  0  0  0  0
    5.4043    1.2930   17.8427 C   0  0  0  0  0  0  0  0  0  0  0  0
    6.5696    0.6789   17.5786 N   0  0  0  0  0  0  0  0  0  0  0  0
    7.1707    0.0556   18.5935 C   0  0  0  0  0  0  0  0  0  0  0  0
    8.1181   -0.4358   18.3788 H   0  0  0  0  0  0  0  0  0  0  0  0
    6.6483    0.0214   19.8933 C   0  0  0  0  0  0  0  0  0  0  0  0
    7.3928   -0.7077   20.9136 C   0  0  0  0  0  0  0  0  0  0  0  0
    7.8400   -1.9380   20.8287 N   0  0  0  0  0  0  0  0  0  0  0  0
    8.4503   -2.1960   22.0006 N   0  0  0  0  0  0  0  0  0  0  0  0
    8.4142   -1.1687   22.7734 N   0  0  0  0  0  0  0  0  0  0  0  0
    7.7553   -0.2015   22.1124 N   0  0  0  0  0  0  0  0  0  0  0  0
    7.5492    1.1268   22.6929 C   0  0  0  0  0  0  0  0  0  0  0  0
    7.4872    1.8392   21.8662 H   0  0  0  0  0  0  0  0  0  0  0  0
    8.4530    1.3787   23.2539 H   0  0  0  0  0  0  0  0  0  0  0  0
    6.3233    1.2442   23.5933 C   0  0  0  0  0  0  0  0  0  0  0  0
    5.3527    2.2288   23.3628 C   0  0  0  0  0  0  0  0  0  0  0  0
    5.4661    2.9145   22.5193 H   0  0  0  0  0  0  0  0  0  0  0  0
    4.2154    2.3512   24.1956 C   0  0  0  0  0  0  0  0  0  0  0  0
    3.4658    3.1124   24.0187 H   0  0  0  0  0  0  0  0  0  0  0  0
    4.1024    1.4663   25.2513 C   0  0  0  0  0  0  0  0  0  0  0  0
    5.0724    0.4922   25.4928 C   0  0  0  0  0  0  0  0  0  0  0  0
    6.1886    0.3604   24.6908 C   0  0  0  0  0  0  0  0  0  0  0  0
    6.9367   -0.4005   24.8848 H   0  0  0  0  0  0  0  0  0  0  0  0
    4.7272   -0.2411   26.5946 O   0  0  0  0  0  0  0  0  0  0  0  0
    3.4913    0.3034   27.0531 C   0  0  0  0  0  0  0  0  0  0  0  0
    3.6068    0.6721   28.0746 H   0  0  0  0  0  0  0  0  0  0  0  0
    2.7191   -0.4683   27.0362 H   0  0  0  0  0  0  0  0  0  0  0  0
    3.1132    1.3785   26.1931 O   0  0  0  0  0  0  0  0  0  0  0  0
    5.4323    0.6642   20.1590 C   0  0  0  0  0  0  0  0  0  0  0  0
    4.9991    0.6329   21.1642 H   0  0  0  0  0  0  0  0  0  0  0  0
    4.7982    1.3169   19.1060 C   0  0  0  0  0  0  0  0  0  0  0  0
    3.8659    1.8480   19.2615 H   0  0  0  0  0  0  0  0  0  0  0  0
  1  2  1  0
  2  3  2  0
  3  4  1  0
  4  5  1  0
  4  6  2  0
  6  7  1  0
  7  8  2  0
  8  9  1  0
  9 10  2  0
 10 11  1  0
 11 12  1  0
 12 13  1  0
 12 14  1  0
 12 15  1  0
 15 16  2  0
 16 17  1  0
 16 18  1  0
 18 19  1  0
 18 20  2  0
 20 21  1  0
 21 22  2  0
 22 23  1  0
 21 24  1  0
 24 25  1  0
 25 26  1  0
 25 27  1  0
 25 28  1  0
  6 29  1  0
 29 30  1  0
 29 31  2  0
 31 32  1  0
 31  2  1  0
 11  7  1  0
 22 15  1  0
 28 20  1  0
M  END
>  <cnnaffinity>  (1) 
-4.74998

>  <filename>  (1) 
c1cncc(-c2nnnn2Cc2ccc3c(c2)OCO3)c1

$$$$
