
     RDKit          3D

 27 29  0  0  0  0  0  0  0  0999 V2000
    5.0237    1.7623   17.0805 H   0  0  0  0  0  0  0  0  0  0  0  0
    5.4894    1.2381   17.9113 C   0  0  0  0  0  0  0  0  0  0  0  0
    6.6449    0.6104   17.6343 N   0  0  0  0  0  0  0  0  0  0  0  0
    7.2507   -0.0183   18.6454 C   0  0  0  0  0  0  0  0  0  0  0  0
    8.2001   -0.5042   18.4494 H   0  0  0  0  0  0  0  0  0  0  0  0
    6.7316   -0.0813   19.9485 C   0  0  0  0  0  0  0  0  0  0  0  0
    7.5217   -0.7052   20.9071 O   0  0  0  0  0  0  0  0  0  0  0  0
    6.9615   -1.5136   21.8248 C   0  0  0  0  0  0  0  0  0  0  0  0
    7.5817   -1.6872   23.0047 N   0  0  0  0  0  0  0  0  0  0  0  0
    6.7600   -2.5013   23.6328 C   0  0  0  0  0  0  0  0  0  0  0  0
    6.9548   -3.0121   24.9842 C   0  0  0  0  0  0  0  0  0  0  0  0
    8.2437   -2.9188   25.5381 C   0  0  0  0  0  0  0  0  0  0  0  0
    9.0438   -2.4062   25.0104 H   0  0  0  0  0  0  0  0  0  0  0  0
    8.5769   -3.4454   26.7172 N   0  0  0  0  0  0  0  0  0  0  0  0
    7.6273   -4.0798   27.4134 C   0  0  0  0  0  0  0  0  0  0  0  0
    7.9400   -4.5173   28.3614 H   0  0  0  0  0  0  0  0  0  0  0  0
    6.2979   -4.1670   26.9769 C   0  0  0  0  0  0  0  0  0  0  0  0
    5.5642   -4.6645   27.5957 H   0  0  0  0  0  0  0  0  0  0  0  0
    5.9489   -3.6227   25.7453 C   0  0  0  0  0  0  0  0  0  0  0  0
    4.9129   -3.6691   25.3904 H   0  0  0  0  0  0  0  0  0  0  0  0
    5.7443   -2.8539   22.8190 N   0  0  0  0  0  0  0  0  0  0  0  0
    4.8844   -3.3171   23.0637 H   0  0  0  0  0  0  0  0  0  0  0  0
    5.8535   -2.2038   21.6254 N   0  0  0  0  0  0  0  0  0  0  0  0
    5.5127    0.5378   20.2333 C   0  0  0  0  0  0  0  0  0  0  0  0
    5.0682    0.4816   21.2302 H   0  0  0  0  0  0  0  0  0  0  0  0
    4.8935    1.2222   19.1768 C   0  0  0  0  0  0  0  0  0  0  0  0
    3.9580    1.7491   19.3241 H   0  0  0  0  0  0  0  0  0  0  0  0
  1  2  1  0
  2  3  2  0
  3  4  1  0
  4  5  1  0
  4  6  2  0
  6  7  1  0
  7  8  1  0
  8  9  1  0
  9 10  2  0
 10 11  1  0
 11 12  2  0
 12 13  1  0
 12 14  1  0
 14 15  2  0
 15 16  1  0
 15 17  1  0
 17 18  1  0
 17 19  2  0
 19 20  1  0
 10 21  1  0
 21 22  1  0
 21 23  1  0
  6 24  1  0
 24 25  1  0
 24 26  2  0
 26 27  1  0
 26  2  1  0
 23  8  2  0
 19 11  1  0
M  END
>  <cnnaffinity>  (1) 
-4.6757

>  <filename>  (1) 
c1cncc(Oc2n[nH]c(-c3cccnc3)n2)c1

$$$$
