
     RDKit          3D

 35 37  0  0  0  0  0  0  0  0999 V2000
    4.9333    1.8037   16.9737 H   0  0  0  0  0  0  0  0  0  0  0  0
    5.3951    1.3000   17.8239 C   0  0  0  0  0  0  0  0  0  0  0  0
    6.5559    0.6766   17.5704 N   0  0  0  0  0  0  0  0  0  0  0  0
    7.1591    0.0599   18.6002 C   0  0  0  0  0  0  0  0  0  0  0  0
    8.1034   -0.4255   18.3620 H   0  0  0  0  0  0  0  0  0  0  0  0
    6.6410   -0.0022   19.9041 C   0  0  0  0  0  0  0  0  0  0  0  0
    7.3566   -0.7402   20.9805 C   0  0  0  0  0  0  0  0  0  0  0  0
    8.7413   -0.6051   21.1591 C   0  0  0  0  0  0  0  0  0  0  0  0
    9.3196    0.0497   20.5223 H   0  0  0  0  0  0  0  0  0  0  0  0
    9.3456   -1.2794   22.2120 C   0  0  0  0  0  0  0  0  0  0  0  0
   10.4183   -1.1834   22.3788 H   0  0  0  0  0  0  0  0  0  0  0  0
    8.6941   -2.0578   23.0792 N   0  0  0  0  0  0  0  0  0  0  0  0
    7.3779   -2.2327   22.8866 C   0  0  0  0  0  0  0  0  0  0  0  0
    6.7322   -3.0752   23.7607 N   0  0  0  0  0  0  0  0  0  0  0  0
    7.3242   -3.3958   25.0635 C   0  0  0  0  0  0  0  0  0  0  0  0
    8.0145   -2.5966   25.3476 H   0  0  0  0  0  0  0  0  0  0  0  0
    7.9233   -4.3170   24.9785 H   0  0  0  0  0  0  0  0  0  0  0  0
    6.2366   -3.5676   26.1331 C   0  0  0  0  0  0  0  0  0  0  0  0
    6.7295   -3.8200   27.0789 H   0  0  0  0  0  0  0  0  0  0  0  0
    5.7448   -2.5966   26.2820 H   0  0  0  0  0  0  0  0  0  0  0  0
    5.1773   -4.6411   25.7606 C   0  0  0  0  0  0  0  0  0  0  0  0
    4.1845   -4.2909   26.0752 H   0  0  0  0  0  0  0  0  0  0  0  0
    5.3495   -5.5724   26.3148 H   0  0  0  0  0  0  0  0  0  0  0  0
    5.1873   -4.9545   24.2472 C   0  0  0  0  0  0  0  0  0  0  0  0
    5.9568   -5.7081   24.0298 H   0  0  0  0  0  0  0  0  0  0  0  0
    4.2258   -5.3747   23.9332 H   0  0  0  0  0  0  0  0  0  0  0  0
    5.4643   -3.7110   23.3952 C   0  0  0  0  0  0  0  0  0  0  0  0
    4.6276   -3.0079   23.5216 H   0  0  0  0  0  0  0  0  0  0  0  0
    5.4935   -4.0001   22.3350 H   0  0  0  0  0  0  0  0  0  0  0  0
    6.6734   -1.5849   21.8505 C   0  0  0  0  0  0  0  0  0  0  0  0
    5.6085   -1.7376   21.7694 H   0  0  0  0  0  0  0  0  0  0  0  0
    5.4220    0.6562   20.1410 C   0  0  0  0  0  0  0  0  0  0  0  0
    4.9978    0.6534   21.1457 H   0  0  0  0  0  0  0  0  0  0  0  0
    4.7928    1.3218   19.0842 C   0  0  0  0  0  0  0  0  0  0  0  0
    3.8595    1.8565   19.2284 H   0  0  0  0  0  0  0  0  0  0  0  0
  1  2  1  0
  2  3  2  0
  3  4  1  0
  4  5  1  0
  4  6  2  0
  6  7  1  0
  7  8  2  0
  8  9  1  0
  8 10  1  0
 10 11  1  0
 10 12  2  0
 12 13  1  0
 13 14  1  0
 14 15  1  0
 15 16  1  0
 15 17  1  0
 15 18  1  0
 18 19  1  0
 18 20  1  0
 18 21  1  0
 21 22  1  0
 21 23  1  0
 21 24  1  0
 24 25  1  0
 24 26  1  0
 24 27  1  0
 27 28  1  0
 27 29  1  0
 13 30  2  0
 30 31  1  0
  6 32  1  0
 32 33  1  0
 32 34  2  0
 34 35  1  0
 34  2  1  0
 30  7  1  0
 27 14  1  0
M  END
>  <cnnaffinity>  (1) 
-4.86051

>  <filename>  (1) 
c1cncc(-c2ccnc(N3CCCCC3)c2)c1

$$$$
