
     RDKit          3D

 42 44  0  0  0  0  0  0  0  0999 V2000
    4.9292    1.8005   16.9787 H   0  0  0  0  0  0  0  0  0  0  0  0
    5.3954    1.2965   17.8215 C   0  0  0  0  0  0  0  0  0  0  0  0
    6.5467    0.6673   17.5620 N   0  0  0  0  0  0  0  0  0  0  0  0
    7.1680    0.0597   18.5895 C   0  0  0  0  0  0  0  0  0  0  0  0
    8.1093   -0.4122   18.3206 H   0  0  0  0  0  0  0  0  0  0  0  0
    6.6821    0.0205   19.9147 C   0  0  0  0  0  0  0  0  0  0  0  0
    7.3623   -0.7574   21.0614 C   0  0  0  0  0  0  0  0  0  0  0  0
    6.4924   -2.0297   21.3175 C   0  0  0  0  0  0  0  0  0  0  0  0
    5.4519   -1.7028   21.4824 H   0  0  0  0  0  0  0  0  0  0  0  0
    6.4755   -2.5933   20.3726 H   0  0  0  0  0  0  0  0  0  0  0  0
    6.9744   -2.8871   22.4010 N   0  0  0  0  0  0  0  0  0  0  0  0
    7.1166   -4.3136   22.0340 C   0  0  0  0  0  0  0  0  0  0  0  0
    8.0193   -4.4173   21.4176 H   0  0  0  0  0  0  0  0  0  0  0  0
    6.2593   -4.6806   21.4340 H   0  0  0  0  0  0  0  0  0  0  0  0
    7.2408   -5.2198   23.2734 C   0  0  0  0  0  0  0  0  0  0  0  0
    7.3952   -6.2532   22.9407 H   0  0  0  0  0  0  0  0  0  0  0  0
    8.1488   -4.9016   23.8140 H   0  0  0  0  0  0  0  0  0  0  0  0
    6.0264   -5.1643   24.1388 N   0  0  0  0  0  0  0  0  0  0  0  0
    6.3231   -5.3152   25.1024 H   0  0  0  0  0  0  0  0  0  0  0  0
    5.3358   -3.8482   24.0484 C   0  0  0  0  0  0  0  0  0  0  0  0
    4.5807   -3.9063   23.2472 H   0  0  0  0  0  0  0  0  0  0  0  0
    4.7900   -3.6551   24.9774 H   0  0  0  0  0  0  0  0  0  0  0  0
    6.3215   -2.6965   23.7221 C   0  0  0  0  0  0  0  0  0  0  0  0
    5.8541   -1.7112   23.7519 H   0  0  0  0  0  0  0  0  0  0  0  0
    7.0972   -2.6747   24.5092 H   0  0  0  0  0  0  0  0  0  0  0  0
    8.8140   -1.2068   20.7496 C   0  0  0  0  0  0  0  0  0  0  0  0
    8.8604   -1.7495   19.8040 H   0  0  0  0  0  0  0  0  0  0  0  0
    9.1253   -1.8949   21.5479 H   0  0  0  0  0  0  0  0  0  0  0  0
    9.7934   -0.0423   20.6864 C   0  0  0  0  0  0  0  0  0  0  0  0
    9.5593    0.5790   19.8046 H   0  0  0  0  0  0  0  0  0  0  0  0
   10.8151   -0.4207   20.6029 H   0  0  0  0  0  0  0  0  0  0  0  0
    9.7707    0.7497   21.8542 O   0  0  0  0  0  0  0  0  0  0  0  0
    8.4802    1.2605   22.1360 C   0  0  0  0  0  0  0  0  0  0  0  0
    8.6071    1.8688   23.0348 H   0  0  0  0  0  0  0  0  0  0  0  0
    8.1342    1.9094   21.3105 H   0  0  0  0  0  0  0  0  0  0  0  0
    7.4734    0.1250   22.3452 C   0  0  0  0  0  0  0  0  0  0  0  0
    6.4961    0.5323   22.6250 H   0  0  0  0  0  0  0  0  0  0  0  0
    7.8307   -0.5001   23.1752 H   0  0  0  0  0  0  0  0  0  0  0  0
    5.4508    0.6680   20.1426 C   0  0  0  0  0  0  0  0  0  0  0  0
    4.9876    0.6477   21.1313 H   0  0  0  0  0  0  0  0  0  0  0  0
    4.8100    1.3224   19.0896 C   0  0  0  0  0  0  0  0  0  0  0  0
    3.8738    1.8444   19.2408 H   0  0  0  0  0  0  0  0  0  0  0  0
  1  2  1  0
  2  3  2  0
  3  4  1  0
  4  5  1  0
  4  6  2  0
  6  7  1  0
  7  8  1  0
  8  9  1  0
  8 10  1  0
  8 11  1  0
 11 12  1  0
 12 13  1  0
 12 14  1  0
 12 15  1  0
 15 16  1  0
 15 17  1  0
 15 18  1  0
 18 19  1  0
 18 20  1  0
 20 21  1  0
 20 22  1  0
 20 23  1  0
 23 24  1  0
 23 25  1  0
  7 26  1  0
 26 27  1  0
 26 28  1  0
 26 29  1  0
 29 30  1  0
 29 31  1  0
 29 32  1  0
 32 33  1  0
 33 34  1  0
 33 35  1  0
 33 36  1  0
 36 37  1  0
 36 38  1  0
  6 39  1  0
 39 40  1  0
 39 41  2  0
 41 42  1  0
 41  2  1  0
 36  7  1  0
 23 11  1  0
M  END
>  <cnnaffinity>  (1) 
-4.43706

>  <filename>  (1) 
c1cncc(C2(CN3CCNCC3)CCOCC2)c1

$$$$
