
     RDKit          3D

 36 39  0  0  0  0  0  0  0  0999 V2000
    4.9141    1.7813   16.9936 H   0  0  0  0  0  0  0  0  0  0  0  0
    5.3999    1.2957   17.8338 C   0  0  0  0  0  0  0  0  0  0  0  0
    6.5624    0.6783   17.5665 N   0  0  0  0  0  0  0  0  0  0  0  0
    7.1709    0.0740   18.5921 C   0  0  0  0  0  0  0  0  0  0  0  0
    8.1127   -0.4267   18.3708 H   0  0  0  0  0  0  0  0  0  0  0  0
    6.6549    0.0196   19.8949 C   0  0  0  0  0  0  0  0  0  0  0  0
    7.3799   -0.6923   20.9588 C   0  0  0  0  0  0  0  0  0  0  0  0
    8.7577   -0.5582   21.1096 C   0  0  0  0  0  0  0  0  0  0  0  0
    9.3254    0.0973   20.4625 H   0  0  0  0  0  0  0  0  0  0  0  0
    9.3757   -1.2414   22.1532 C   0  0  0  0  0  0  0  0  0  0  0  0
   10.4422   -1.1353   22.3070 H   0  0  0  0  0  0  0  0  0  0  0  0
    8.7323   -2.0256   23.0255 N   0  0  0  0  0  0  0  0  0  0  0  0
    7.4058   -2.1911   22.8574 C   0  0  0  0  0  0  0  0  0  0  0  0
    6.6901   -3.0602   23.8407 C   0  0  0  0  0  0  0  0  0  0  0  0
    6.7627   -2.7439   25.1859 C   0  0  0  0  0  0  0  0  0  0  0  0
    7.3728   -1.9014   25.5043 H   0  0  0  0  0  0  0  0  0  0  0  0
    6.0529   -3.4900   26.1618 C   0  0  0  0  0  0  0  0  0  0  0  0
    6.1442   -3.2128   27.2090 H   0  0  0  0  0  0  0  0  0  0  0  0
    5.2709   -4.5573   25.7881 C   0  0  0  0  0  0  0  0  0  0  0  0
    4.7254   -5.1387   26.5333 H   0  0  0  0  0  0  0  0  0  0  0  0
    5.1679   -4.9309   24.4155 C   0  0  0  0  0  0  0  0  0  0  0  0
    4.3691   -6.0482   24.0205 C   0  0  0  0  0  0  0  0  0  0  0  0
    3.8304   -6.5984   24.7935 H   0  0  0  0  0  0  0  0  0  0  0  0
    4.2909   -6.4298   22.7035 C   0  0  0  0  0  0  0  0  0  0  0  0
    3.6809   -7.2821   22.4132 H   0  0  0  0  0  0  0  0  0  0  0  0
    5.0184   -5.7144   21.7112 C   0  0  0  0  0  0  0  0  0  0  0  0
    4.9683   -6.0378   20.6754 H   0  0  0  0  0  0  0  0  0  0  0  0
    5.7955   -4.6305   22.0546 C   0  0  0  0  0  0  0  0  0  0  0  0
    6.3645   -4.1043   21.2908 H   0  0  0  0  0  0  0  0  0  0  0  0
    5.8890   -4.1868   23.4173 C   0  0  0  0  0  0  0  0  0  0  0  0
    6.7029   -1.5240   21.8481 C   0  0  0  0  0  0  0  0  0  0  0  0
    5.6355   -1.6770   21.7476 H   0  0  0  0  0  0  0  0  0  0  0  0
    5.4312    0.6526   20.1500 C   0  0  0  0  0  0  0  0  0  0  0  0
    5.0142    0.6332   21.1619 H   0  0  0  0  0  0  0  0  0  0  0  0
    4.8020    1.3174   19.1012 C   0  0  0  0  0  0  0  0  0  0  0  0
    3.8688    1.8472   19.2577 H   0  0  0  0  0  0  0  0  0  0  0  0
  1  2  1  0
  2  3  2  0
  3  4  1  0
  4  5  1  0
  4  6  2  0
  6  7  1  0
  7  8  2  0
  8  9  1  0
  8 10  1  0
 10 11  1  0
 10 12  2  0
 12 13  1  0
 13 14  1  0
 14 15  2  0
 15 16  1  0
 15 17  1  0
 17 18  1  0
 17 19  2  0
 19 20  1  0
 19 21  1  0
 21 22  2  0
 22 23  1  0
 22 24  1  0
 24 25  1  0
 24 26  2  0
 26 27  1  0
 26 28  1  0
 28 29  1  0
 28 30  2  0
 13 31  2  0
 31 32  1  0
  6 33  1  0
 33 34  1  0
 33 35  2  0
 35 36  1  0
 35  2  1  0
 31  7  1  0
 30 14  1  0
 30 21  1  0
M  END
>  <cnnaffinity>  (1) 
-6.09485

>  <filename>  (1) 
c1cncc(-c2ccnc(-c3cccc4ccccc34)c2)c1

$$$$
