
     RDKit          3D

 36 39  0  0  0  0  0  0  0  0999 V2000
    5.1231    1.7996   16.8554 H   0  0  0  0  0  0  0  0  0  0  0  0
    5.5047    1.2942   17.7410 C   0  0  0  0  0  0  0  0  0  0  0  0
    6.6493    0.6081   17.5772 N   0  0  0  0  0  0  0  0  0  0  0  0
    7.1373   -0.0329   18.6434 C   0  0  0  0  0  0  0  0  0  0  0  0
    8.0438   -0.6172   18.4868 H   0  0  0  0  0  0  0  0  0  0  0  0
    6.5561    0.0093   19.9206 C   0  0  0  0  0  0  0  0  0  0  0  0
    7.2010   -0.6943   21.0336 C   0  0  0  0  0  0  0  0  0  0  0  0
    7.6698   -1.9383   20.8912 N   0  0  0  0  0  0  0  0  0  0  0  0
    8.0921   -2.2487   22.1231 N   0  0  0  0  0  0  0  0  0  0  0  0
    7.9804   -1.2577   23.0140 C   0  0  0  0  0  0  0  0  0  0  0  0
    7.4332   -0.1819   22.3490 C   0  0  0  0  0  0  0  0  0  0  0  0
    7.1407    1.1526   22.9958 C   0  0  2  0  0  0  0  0  0  0  0  0
    6.8956    1.8669   22.2020 H   0  0  0  0  0  0  0  0  0  0  0  0
    8.2836    1.7520   23.8592 C   0  0  0  0  0  0  0  0  0  0  0  0
    8.1833    2.8534   23.8736 H   0  0  0  0  0  0  0  0  0  0  0  0
    9.3014    1.5158   23.5379 H   0  0  0  0  0  0  0  0  0  0  0  0
    8.1018    1.2313   25.1585 O   0  0  0  0  0  0  0  0  0  0  0  0
    6.7164    1.3387   25.4109 C   0  0  0  0  0  0  0  0  0  0  0  0
    6.4724    0.6438   26.2220 H   0  0  0  0  0  0  0  0  0  0  0  0
    6.4628    2.3584   25.7482 H   0  0  0  0  0  0  0  0  0  0  0  0
    6.0213    1.0224   24.0723 C   0  0  0  0  0  0  0  0  0  0  0  0
    5.1858    1.6997   23.8799 H   0  0  0  0  0  0  0  0  0  0  0  0
    5.6066    0.0106   24.0959 H   0  0  0  0  0  0  0  0  0  0  0  0
    8.5214   -1.6617   24.3472 C   0  0  0  0  0  0  0  0  0  0  0  0
    9.3790   -1.0251   24.5831 H   0  0  0  0  0  0  0  0  0  0  0  0
    7.7781   -1.5219   25.1388 H   0  0  0  0  0  0  0  0  0  0  0  0
    8.8948   -3.1519   24.1129 C   0  0  0  0  0  0  0  0  0  0  0  0
    9.8580   -3.4174   24.5481 H   0  0  0  0  0  0  0  0  0  0  0  0
    8.1406   -3.8004   24.5664 H   0  0  0  0  0  0  0  0  0  0  0  0
    8.9012   -3.3602   22.5732 C   0  0  0  0  0  0  0  0  0  0  0  0
    8.4676   -4.3135   22.2684 H   0  0  0  0  0  0  0  0  0  0  0  0
    9.9097   -3.2724   22.1504 H   0  0  0  0  0  0  0  0  0  0  0  0
    5.3689    0.7456   20.0764 C   0  0  0  0  0  0  0  0  0  0  0  0
    4.8805    0.8025   21.0520 H   0  0  0  0  0  0  0  0  0  0  0  0
    4.8257    1.3793   18.9613 C   0  0  0  0  0  0  0  0  0  0  0  0
    3.8990    1.9422   19.0220 H   0  0  0  0  0  0  0  0  0  0  0  0
  1  2  1  0
  2  3  2  0
  3  4  1  0
  4  5  1  0
  4  6  2  0
  6  7  1  0
  7  8  2  0
  8  9  1  0
  9 10  1  0
 10 11  2  0
 11 12  1  0
 12 13  1  6
 12 14  1  0
 14 15  1  0
 14 16  1  0
 14 17  1  0
 17 18  1  0
 18 19  1  0
 18 20  1  0
 18 21  1  0
 21 22  1  0
 21 23  1  0
 10 24  1  0
 24 25  1  0
 24 26  1  0
 24 27  1  0
 27 28  1  0
 27 29  1  0
 27 30  1  0
 30 31  1  0
 30 32  1  0
  6 33  1  0
 33 34  1  0
 33 35  2  0
 35 36  1  0
 35  2  1  0
 11  7  1  0
 21 12  1  0
 30  9  1  0
M  END
>  <cnnaffinity>  (1) 
-5.03569

>  <filename>  (1) 
c1cncc(-c2nn3c(c2[C@H]2CCOC2)CCC3)c1

$$$$
