
     RDKit          3D

 34 37  0  0  0  0  0  0  0  0999 V2000
    4.9248    1.7810   16.9966 H   0  0  0  0  0  0  0  0  0  0  0  0
    5.4081    1.2890   17.8422 C   0  0  0  0  0  0  0  0  0  0  0  0
    6.5741    0.6698   17.5915 N   0  0  0  0  0  0  0  0  0  0  0  0
    7.1739    0.0369   18.6020 C   0  0  0  0  0  0  0  0  0  0  0  0
    8.1228   -0.4394   18.3766 H   0  0  0  0  0  0  0  0  0  0  0  0
    6.6510   -0.0165   19.9074 C   0  0  0  0  0  0  0  0  0  0  0  0
    7.3819   -0.6872   20.9296 N   0  0  0  0  0  0  0  0  0  0  0  0
    7.9617   -1.8828   20.6952 N   0  0  0  0  0  0  0  0  0  0  0  0
    8.4831   -2.2470   21.8573 C   0  0  0  0  0  0  0  0  0  0  0  0
    9.0194   -3.1808   21.9438 H   0  0  0  0  0  0  0  0  0  0  0  0
    8.2600   -1.2925   22.8619 C   0  0  0  0  0  0  0  0  0  0  0  0
    8.5836   -1.2788   23.8929 H   0  0  0  0  0  0  0  0  0  0  0  0
    7.5492   -0.2902   22.2362 C   0  0  0  0  0  0  0  0  0  0  0  0
    7.1864    1.0380   22.7552 C   0  0  0  0  0  0  0  0  0  0  0  0
    7.6867    2.1783   22.1370 C   0  0  0  0  0  0  0  0  0  0  0  0
    8.2941    2.0616   21.2424 H   0  0  0  0  0  0  0  0  0  0  0  0
    7.4171    3.4671   22.6533 C   0  0  0  0  0  0  0  0  0  0  0  0
    7.8212    4.3385   22.1392 H   0  0  0  0  0  0  0  0  0  0  0  0
    6.6484    3.6039   23.7892 C   0  0  0  0  0  0  0  0  0  0  0  0
    6.4368    4.5890   24.2006 H   0  0  0  0  0  0  0  0  0  0  0  0
    6.1099    2.4619   24.4564 C   0  0  0  0  0  0  0  0  0  0  0  0
    5.3094    2.5962   25.6321 C   0  0  0  0  0  0  0  0  0  0  0  0
    5.1304    3.6010   26.0141 H   0  0  0  0  0  0  0  0  0  0  0  0
    4.7739    1.4949   26.2598 C   0  0  0  0  0  0  0  0  0  0  0  0
    4.1636    1.6123   27.1531 H   0  0  0  0  0  0  0  0  0  0  0  0
    5.0125    0.1910   25.7435 C   0  0  0  0  0  0  0  0  0  0  0  0
    4.5756   -0.6751   26.2374 H   0  0  0  0  0  0  0  0  0  0  0  0
    5.7910    0.0204   24.6192 C   0  0  0  0  0  0  0  0  0  0  0  0
    5.9594   -0.9742   24.2012 H   0  0  0  0  0  0  0  0  0  0  0  0
    6.3727    1.1465   23.9381 C   0  0  0  0  0  0  0  0  0  0  0  0
    5.4338    0.6326   20.1683 C   0  0  0  0  0  0  0  0  0  0  0  0
    5.0129    0.6411   21.1798 H   0  0  0  0  0  0  0  0  0  0  0  0
    4.8098    1.2969   19.1078 C   0  0  0  0  0  0  0  0  0  0  0  0
    3.8798    1.8382   19.2593 H   0  0  0  0  0  0  0  0  0  0  0  0
  1  2  1  0
  2  3  2  0
  3  4  1  0
  4  5  1  0
  4  6  2  0
  6  7  1  0
  7  8  1  0
  8  9  2  0
  9 10  1  0
  9 11  1  0
 11 12  1  0
 11 13  2  0
 13 14  1  0
 14 15  2  0
 15 16  1  0
 15 17  1  0
 17 18  1  0
 17 19  2  0
 19 20  1  0
 19 21  1  0
 21 22  2  0
 22 23  1  0
 22 24  1  0
 24 25  1  0
 24 26  2  0
 26 27  1  0
 26 28  1  0
 28 29  1  0
 28 30  2  0
  6 31  1  0
 31 32  1  0
 31 33  2  0
 33 34  1  0
 33  2  1  0
 13  7  1  0
 30 14  1  0
 30 21  1  0
M  END
>  <cnnaffinity>  (1) 
-4.99036

>  <filename>  (1) 
c1cncc(-n2nccc2-c2cccc3ccccc23)c1

$$$$
