
     RDKit          3D

 32 35  0  0  0  0  0  0  0  0999 V2000
    5.0286    1.7523   16.9814 H   0  0  0  0  0  0  0  0  0  0  0  0
    5.4673    1.2778   17.8578 C   0  0  0  0  0  0  0  0  0  0  0  0
    6.6178    0.6125   17.6561 N   0  0  0  0  0  0  0  0  0  0  0  0
    7.1844    0.0191   18.7058 C   0  0  0  0  0  0  0  0  0  0  0  0
    8.0801   -0.5722   18.5209 H   0  0  0  0  0  0  0  0  0  0  0  0
    6.6704    0.1004   20.0157 C   0  0  0  0  0  0  0  0  0  0  0  0
    7.3947   -0.5509   21.0478 N   0  0  0  0  0  0  0  0  0  0  0  0
    8.0103   -1.7111   20.7292 N   0  0  0  0  0  0  0  0  0  0  0  0
    8.4573   -2.1996   21.8711 C   0  0  0  0  0  0  0  0  0  0  0  0
    8.9776   -3.1486   21.8776 H   0  0  0  0  0  0  0  0  0  0  0  0
    8.1542   -1.3585   22.9532 C   0  0  0  0  0  0  0  0  0  0  0  0
    8.3731   -1.5107   23.9997 H   0  0  0  0  0  0  0  0  0  0  0  0
    7.5063   -0.2732   22.3981 C   0  0  0  0  0  0  0  0  0  0  0  0
    7.0357    0.9398   23.1000 C   0  0  0  0  0  0  0  0  0  0  0  0
    6.2015    0.7777   24.2119 C   0  0  0  0  0  0  0  0  0  0  0  0
    5.9064   -0.2317   24.4856 H   0  0  0  0  0  0  0  0  0  0  0  0
    5.6750    1.8778   24.9179 C   0  0  0  0  0  0  0  0  0  0  0  0
    5.0133    1.7001   25.7658 H   0  0  0  0  0  0  0  0  0  0  0  0
    6.0068    3.1814   24.5625 C   0  0  0  0  0  0  0  0  0  0  0  0
    5.6460    4.0367   25.1304 H   0  0  0  0  0  0  0  0  0  0  0  0
    6.8305    3.3534   23.4366 C   0  0  0  0  0  0  0  0  0  0  0  0
    7.3694    2.2673   22.6937 C   0  0  0  0  0  0  0  0  0  0  0  0
    8.1719    2.8608   21.6518 C   0  0  0  0  0  0  0  0  0  0  0  0
    8.7387    2.3408   20.8923 H   0  0  0  0  0  0  0  0  0  0  0  0
    8.0678    4.2210   21.7755 C   0  0  0  0  0  0  0  0  0  0  0  0
    8.4641    5.0357   21.1808 H   0  0  0  0  0  0  0  0  0  0  0  0
    7.2549    4.5157   22.8410 N   0  0  0  0  0  0  0  0  0  0  0  0
    7.0127    5.4430   23.1482 H   0  0  0  0  0  0  0  0  0  0  0  0
    5.4512    0.7592   20.2192 C   0  0  0  0  0  0  0  0  0  0  0  0
    4.9935    0.7822   21.2113 H   0  0  0  0  0  0  0  0  0  0  0  0
    4.8418    1.3525   19.1067 C   0  0  0  0  0  0  0  0  0  0  0  0
    3.8964    1.8773   19.1965 H   0  0  0  0  0  0  0  0  0  0  0  0
  1  2  1  0
  2  3  2  0
  3  4  1  0
  4  5  1  0
  4  6  2  0
  6  7  1  0
  7  8  1  0
  8  9  2  0
  9 10  1  0
  9 11  1  0
 11 12  1  0
 11 13  2  0
 13 14  1  0
 14 15  2  0
 15 16  1  0
 15 17  1  0
 17 18  1  0
 17 19  2  0
 19 20  1  0
 19 21  1  0
 21 22  2  0
 22 23  1  0
 23 24  1  0
 23 25  2  0
 25 26  1  0
 25 27  1  0
 27 28  1  0
  6 29  1  0
 29 30  1  0
 29 31  2  0
 31 32  1  0
 31  2  1  0
 13  7  1  0
 22 14  1  0
 27 21  1  0
M  END
>  <cnnaffinity>  (1) 
-5.28157

>  <filename>  (1) 
c1cncc(-n2nccc2-c2cccc3[nH]ccc23)c1

$$$$
