
     RDKit          3D

 39 41  0  0  0  0  0  0  0  0999 V2000
    4.9121    1.7869   16.9893 H   0  0  0  0  0  0  0  0  0  0  0  0
    5.3943    1.2987   17.8315 C   0  0  0  0  0  0  0  0  0  0  0  0
    6.5563    0.6828   17.5678 N   0  0  0  0  0  0  0  0  0  0  0  0
    7.1563    0.0631   18.5888 C   0  0  0  0  0  0  0  0  0  0  0  0
    8.1090   -0.4182   18.3785 H   0  0  0  0  0  0  0  0  0  0  0  0
    6.6346   -0.0003   19.8923 C   0  0  0  0  0  0  0  0  0  0  0  0
    7.3964   -0.7244   20.9866 C   0  0  0  0  0  0  0  0  0  0  0  0
    6.7831   -0.8119   21.8953 H   0  0  0  0  0  0  0  0  0  0  0  0
    7.6463   -1.7427   20.6654 H   0  0  0  0  0  0  0  0  0  0  0  0
    8.6887   -0.0406   21.3102 C   0  0  0  0  0  0  0  0  0  0  0  0
    9.8482   -0.3633   20.7983 N   0  0  0  0  0  0  0  0  0  0  0  0
   10.7755    0.5266   21.2773 N   0  0  0  0  0  0  0  0  0  0  0  0
   10.1414    1.3613   22.0457 C   0  0  0  0  0  0  0  0  0  0  0  0
   10.5980    2.1742   22.5990 H   0  0  0  0  0  0  0  0  0  0  0  0
    8.8064    1.0757   22.0944 N   0  0  0  0  0  0  0  0  0  0  0  0
    7.8101    1.7648   22.9087 C   0  0  0  0  0  0  0  0  0  0  0  0
    7.9277    2.8417   22.7461 H   0  0  0  0  0  0  0  0  0  0  0  0
    6.8116    1.5174   22.5415 H   0  0  0  0  0  0  0  0  0  0  0  0
    7.9233    1.4366   24.4017 C   0  0  0  0  0  0  0  0  0  0  0  0
    8.9547    1.6586   24.7112 H   0  0  0  0  0  0  0  0  0  0  0  0
    6.9923    2.3297   25.2424 C   0  0  0  0  0  0  0  0  0  0  0  0
    5.9559    2.1819   24.9057 H   0  0  0  0  0  0  0  0  0  0  0  0
    7.2236    3.3903   25.0694 H   0  0  0  0  0  0  0  0  0  0  0  0
    7.0843    2.0094   26.7407 C   0  0  0  0  0  0  0  0  0  0  0  0
    6.3804    2.6309   27.3074 H   0  0  0  0  0  0  0  0  0  0  0  0
    8.0884    2.2724   27.0998 H   0  0  0  0  0  0  0  0  0  0  0  0
    6.8289    0.5217   27.0177 C   0  0  0  0  0  0  0  0  0  0  0  0
    5.7870    0.2860   26.7640 H   0  0  0  0  0  0  0  0  0  0  0  0
    6.9444    0.3044   28.0863 H   0  0  0  0  0  0  0  0  0  0  0  0
    7.7564   -0.3735   26.1860 C   0  0  0  0  0  0  0  0  0  0  0  0
    8.7926   -0.2247   26.5168 H   0  0  0  0  0  0  0  0  0  0  0  0
    7.5273   -1.4316   26.3608 H   0  0  0  0  0  0  0  0  0  0  0  0
    7.6662   -0.0529   24.6907 C   0  0  0  0  0  0  0  0  0  0  0  0
    8.3712   -0.6747   24.1245 H   0  0  0  0  0  0  0  0  0  0  0  0
    6.6609   -0.3173   24.3293 H   0  0  0  0  0  0  0  0  0  0  0  0
    5.4283    0.6539   20.1485 C   0  0  0  0  0  0  0  0  0  0  0  0
    5.0001    0.6333   21.1561 H   0  0  0  0  0  0  0  0  0  0  0  0
    4.7955    1.3188   19.0956 C   0  0  0  0  0  0  0  0  0  0  0  0
    3.8646    1.8511   19.2528 H   0  0  0  0  0  0  0  0  0  0  0  0
  1  2  1  0
  2  3  2  0
  3  4  1  0
  4  5  1  0
  4  6  2  0
  6  7  1  0
  7  8  1  0
  7  9  1  0
  7 10  1  0
 10 11  2  0
 11 12  1  0
 12 13  2  0
 13 14  1  0
 13 15  1  0
 15 16  1  0
 16 17  1  0
 16 18  1  0
 16 19  1  0
 19 20  1  0
 19 21  1  0
 21 22  1  0
 21 23  1  0
 21 24  1  0
 24 25  1  0
 24 26  1  0
 24 27  1  0
 27 28  1  0
 27 29  1  0
 27 30  1  0
 30 31  1  0
 30 32  1  0
 30 33  1  0
 33 34  1  0
 33 35  1  0
  6 36  1  0
 36 37  1  0
 36 38  2  0
 38 39  1  0
 38  2  1  0
 15 10  1  0
 33 19  1  0
M  END
>  <cnnaffinity>  (1) 
-5.34985

>  <filename>  (1) 
c1cncc(Cc2nncn2CC2CCCCC2)c1

$$$$
