
     RDKit          3D

 38 40  0  0  0  0  0  0  0  0999 V2000
    4.8905    1.8712   16.7760 H   0  0  0  0  0  0  0  0  0  0  0  0
    5.3335    1.3928   17.6459 C   0  0  0  0  0  0  0  0  0  0  0  0
    6.5187    0.7913   17.4514 N   0  0  0  0  0  0  0  0  0  0  0  0
    7.0974    0.2005   18.5090 C   0  0  0  0  0  0  0  0  0  0  0  0
    8.0429   -0.3103   18.3184 H   0  0  0  0  0  0  0  0  0  0  0  0
    6.5434    0.1645   19.8153 C   0  0  0  0  0  0  0  0  0  0  0  0
    7.2244   -0.4326   20.9052 N   0  0  0  0  0  0  0  0  0  0  0  0
    6.5528   -1.3189   21.8435 C   0  0  0  0  0  0  0  0  0  0  0  0
    6.4295   -0.8252   22.8246 H   0  0  0  0  0  0  0  0  0  0  0  0
    5.5520   -1.5415   21.4602 H   0  0  0  0  0  0  0  0  0  0  0  0
    7.2770   -2.6574   22.0894 C   0  0  0  0  0  0  0  0  0  0  0  0
    7.4239   -3.1687   21.1186 H   0  0  0  0  0  0  0  0  0  0  0  0
    6.5856   -3.2774   22.6766 H   0  0  0  0  0  0  0  0  0  0  0  0
    8.5287   -2.5217   22.8504 N   0  0  0  0  0  0  0  0  0  0  0  0
    8.7025   -3.5943   23.8560 C   0  0  0  0  0  0  0  0  0  0  0  0
    9.7445   -3.6059   24.2118 H   0  0  0  0  0  0  0  0  0  0  0  0
    8.5034   -4.5987   23.4416 H   0  0  0  0  0  0  0  0  0  0  0  0
    7.7973   -3.4437   25.0694 C   0  0  0  0  0  0  0  0  0  0  0  0
    6.9354   -4.4370   25.4969 N   0  0  0  0  0  0  0  0  0  0  0  0
    6.3116   -3.9492   26.5387 C   0  0  0  0  0  0  0  0  0  0  0  0
    5.5446   -4.4582   27.1178 H   0  0  0  0  0  0  0  0  0  0  0  0
    6.7382   -2.6902   26.8272 N   0  0  0  0  0  0  0  0  0  0  0  0
    6.3477   -2.0811   27.5274 H   0  0  0  0  0  0  0  0  0  0  0  0
    7.6979   -2.3578   25.8967 C   0  0  0  0  0  0  0  0  0  0  0  0
    8.2383   -1.4208   25.9072 H   0  0  0  0  0  0  0  0  0  0  0  0
    9.7226   -2.2004   22.0710 C   0  0  0  0  0  0  0  0  0  0  0  0
   10.5280   -2.0027   22.7874 H   0  0  0  0  0  0  0  0  0  0  0  0
   10.0511   -3.0563   21.4725 H   0  0  0  0  0  0  0  0  0  0  0  0
    9.6383   -1.0156   21.0924 C   0  0  0  0  0  0  0  0  0  0  0  0
   10.6221   -0.5178   21.0881 H   0  0  0  0  0  0  0  0  0  0  0  0
    9.4691   -1.4185   20.0857 H   0  0  0  0  0  0  0  0  0  0  0  0
    8.5446    0.0261   21.3302 C   0  0  0  0  0  0  0  0  0  0  0  0
    8.8027    0.9252   20.7605 H   0  0  0  0  0  0  0  0  0  0  0  0
    8.4986    0.3040   22.3985 H   0  0  0  0  0  0  0  0  0  0  0  0
    5.2791    0.7640   19.9723 C   0  0  0  0  0  0  0  0  0  0  0  0
    4.8038    0.7324   20.9515 H   0  0  0  0  0  0  0  0  0  0  0  0
    4.6749    1.3966   18.8806 C   0  0  0  0  0  0  0  0  0  0  0  0
    3.7131    1.8880   18.9785 H   0  0  0  0  0  0  0  0  0  0  0  0
  1  2  1  0
  2  3  2  0
  3  4  1  0
  4  5  1  0
  4  6  2  0
  6  7  1  0
  7  8  1  0
  8  9  1  0
  8 10  1  0
  8 11  1  0
 11 12  1  0
 11 13  1  0
 11 14  1  0
 14 15  1  0
 15 16  1  0
 15 17  1  0
 15 18  1  0
 18 19  1  0
 19 20  2  0
 20 21  1  0
 20 22  1  0
 22 23  1  0
 22 24  1  0
 24 25  1  0
 14 26  1  0
 26 27  1  0
 26 28  1  0
 26 29  1  0
 29 30  1  0
 29 31  1  0
 29 32  1  0
 32 33  1  0
 32 34  1  0
  6 35  1  0
 35 36  1  0
 35 37  2  0
 37 38  1  0
 37  2  1  0
 32  7  1  0
 24 18  2  0
M  END
>  <cnnaffinity>  (1) 
-4.78686

>  <filename>  (1) 
c1cncc(N2CCCN(Cc3c[nH]cn3)CC2)c1

$$$$
