
     RDKit          3D

 42 45  0  0  0  0  0  0  0  0999 V2000
    5.0431    1.7699   16.9969 H   0  0  0  0  0  0  0  0  0  0  0  0
    5.4520    1.2517   17.8611 C   0  0  0  0  0  0  0  0  0  0  0  0
    6.5982    0.5857   17.6538 N   0  0  0  0  0  0  0  0  0  0  0  0
    7.1290   -0.0504   18.7048 C   0  0  0  0  0  0  0  0  0  0  0  0
    8.0681   -0.5777   18.5364 H   0  0  0  0  0  0  0  0  0  0  0  0
    6.5749   -0.0695   19.9975 C   0  0  0  0  0  0  0  0  0  0  0  0
    7.3219   -0.7487   21.1218 C   0  0  0  0  0  0  0  0  0  0  0  0
    7.0390   -2.1964   21.3911 C   0  0  0  0  0  0  0  0  0  0  0  0
    7.8870   -3.1591   21.5293 N   0  0  0  0  0  0  0  0  0  0  0  0
    7.1603   -4.3003   21.8541 N   0  0  0  0  0  0  0  0  0  0  0  0
    5.9281   -3.9113   21.9030 C   0  0  0  0  0  0  0  0  0  0  0  0
    4.8288   -4.5763   22.2220 O   0  0  0  0  0  0  0  0  0  0  0  0
    4.9883   -5.9953   22.4790 C   0  0  0  0  0  0  0  0  0  0  0  0
    5.9571   -6.1869   22.9515 H   0  0  0  0  0  0  0  0  0  0  0  0
    4.9836   -6.5077   21.5132 H   0  0  0  0  0  0  0  0  0  0  0  0
    3.8880   -6.5702   23.3688 C   0  0  0  0  0  0  0  0  0  0  0  0
    2.9160   -6.1872   23.0359 H   0  0  0  0  0  0  0  0  0  0  0  0
    3.8911   -7.6627   23.1628 H   0  0  0  0  0  0  0  0  0  0  0  0
    4.0384   -6.3255   24.8053 N   0  0  0  0  0  0  0  0  0  0  0  0
    5.2540   -6.9015   25.3803 C   0  0  0  0  0  0  0  0  0  0  0  0
    5.3949   -7.9231   24.9884 H   0  0  0  0  0  0  0  0  0  0  0  0
    6.1436   -6.3198   25.1132 H   0  0  0  0  0  0  0  0  0  0  0  0
    5.0156   -6.9272   26.8933 C   0  0  0  0  0  0  0  0  0  0  0  0
    5.4672   -6.0508   27.3653 H   0  0  0  0  0  0  0  0  0  0  0  0
    5.4810   -7.8063   27.3526 H   0  0  0  0  0  0  0  0  0  0  0  0
    3.4793   -6.8958   27.0411 C   0  0  0  0  0  0  0  0  0  0  0  0
    3.0995   -7.7459   27.6146 H   0  0  0  0  0  0  0  0  0  0  0  0
    3.1570   -5.9884   27.5584 H   0  0  0  0  0  0  0  0  0  0  0  0
    2.9518   -6.9031   25.5993 C   0  0  0  0  0  0  0  0  0  0  0  0
    2.7240   -7.9418   25.2892 H   0  0  0  0  0  0  0  0  0  0  0  0
    2.0239   -6.3326   25.4799 H   0  0  0  0  0  0  0  0  0  0  0  0
    5.7500   -2.6190   21.5902 O   0  0  0  0  0  0  0  0  0  0  0  0
    8.7595   -0.3237   21.3364 C   0  0  0  0  0  0  0  0  0  0  0  0
    9.1811    0.4233   20.6634 H   0  0  0  0  0  0  0  0  0  0  0  0
    9.4485   -1.1131   21.6345 H   0  0  0  0  0  0  0  0  0  0  0  0
    7.7196    0.1074   22.3223 C   0  0  0  0  0  0  0  0  0  0  0  0
    7.7080   -0.3618   23.3036 H   0  0  0  0  0  0  0  0  0  0  0  0
    7.4045    1.1525   22.3128 H   0  0  0  0  0  0  0  0  0  0  0  0
    5.3610    0.6094   20.1802 C   0  0  0  0  0  0  0  0  0  0  0  0
    4.8934    0.6293   21.1673 H   0  0  0  0  0  0  0  0  0  0  0  0
    4.7896    1.2812   19.0944 C   0  0  0  0  0  0  0  0  0  0  0  0
    3.8635    1.8396   19.1858 H   0  0  0  0  0  0  0  0  0  0  0  0
  1  2  1  0
  2  3  2  0
  3  4  1  0
  4  5  1  0
  4  6  2  0
  6  7  1  0
  7  8  1  0
  8  9  2  0
  9 10  1  0
 10 11  2  0
 11 12  1  0
 12 13  1  0
 13 14  1  0
 13 15  1  0
 13 16  1  0
 16 17  1  0
 16 18  1  0
 16 19  1  0
 19 20  1  0
 20 21  1  0
 20 22  1  0
 20 23  1  0
 23 24  1  0
 23 25  1  0
 23 26  1  0
 26 27  1  0
 26 28  1  0
 26 29  1  0
 29 30  1  0
 29 31  1  0
 11 32  1  0
  7 33  1  0
 33 34  1  0
 33 35  1  0
 33 36  1  0
 36 37  1  0
 36 38  1  0
  6 39  1  0
 39 40  1  0
 39 41  2  0
 41 42  1  0
 41  2  1  0
 36  7  1  0
 32  8  1  0
 29 19  1  0
M  END
>  <cnnaffinity>  (1) 
-5.17127

>  <filename>  (1) 
c1cncc(C2(c3nnc(OCCN4CCCC4)o3)CC2)c1

$$$$
