
     RDKit          3D

 43 46  0  0  0  0  0  0  0  0999 V2000
    4.9724    1.8456   16.9303 H   0  0  0  0  0  0  0  0  0  0  0  0
    5.4110    1.3102   17.7701 C   0  0  0  0  0  0  0  0  0  0  0  0
    6.5461    0.6411   17.5183 N   0  0  0  0  0  0  0  0  0  0  0  0
    7.1231   -0.0034   18.5369 C   0  0  0  0  0  0  0  0  0  0  0  0
    8.0372   -0.5416   18.2903 H   0  0  0  0  0  0  0  0  0  0  0  0
    6.6229    0.0075   19.8556 C   0  0  0  0  0  0  0  0  0  0  0  0
    7.3694   -0.6180   20.9637 C   0  0  0  0  0  0  0  0  0  0  0  0
    8.1630   -1.6726   20.7645 N   0  0  0  0  0  0  0  0  0  0  0  0
    8.6670   -1.9155   21.9704 N   0  0  0  0  0  0  0  0  0  0  0  0
    8.2803   -1.0854   22.9479 C   0  0  0  0  0  0  0  0  0  0  0  0
    7.3839   -0.2186   22.3566 C   0  0  0  0  0  0  0  0  0  0  0  0
    6.7041    0.8601   22.9636 N   0  0  0  0  0  0  0  0  0  0  0  0
    6.7588    0.7712   23.9770 H   0  0  0  0  0  0  0  0  0  0  0  0
    7.2534    2.1515   22.5590 C   0  0  0  0  0  0  0  0  0  0  0  0
    7.4175    2.0879   21.4714 H   0  0  0  0  0  0  0  0  0  0  0  0
    6.2367    3.2574   22.8200 C   0  0  0  0  0  0  0  0  0  0  0  0
    5.3194    2.9858   22.2842 H   0  0  0  0  0  0  0  0  0  0  0  0
    6.0005    3.2674   23.8959 H   0  0  0  0  0  0  0  0  0  0  0  0
    6.7581    4.6303   22.3641 C   0  0  0  0  0  0  0  0  0  0  0  0
    6.8259    4.6481   21.2648 H   0  0  0  0  0  0  0  0  0  0  0  0
    6.0401    5.4100   22.6378 H   0  0  0  0  0  0  0  0  0  0  0  0
    8.1470    4.9446   22.9498 C   0  0  0  0  0  0  0  0  0  0  0  0
    8.5390    5.8730   22.5153 H   0  0  0  0  0  0  0  0  0  0  0  0
    8.0641    5.1171   24.0318 H   0  0  0  0  0  0  0  0  0  0  0  0
    9.1297    3.7925   22.6902 C   0  0  0  0  0  0  0  0  0  0  0  0
   10.1384    4.0248   23.0528 H   0  0  0  0  0  0  0  0  0  0  0  0
    9.2047    3.6479   21.6088 H   0  0  0  0  0  0  0  0  0  0  0  0
    8.6048    2.4604   23.2261 C   0  0  0  0  0  0  0  0  0  0  0  0
    8.4846    2.4984   24.3184 H   0  0  0  0  0  0  0  0  0  0  0  0
    9.3124    1.6482   23.0105 H   0  0  0  0  0  0  0  0  0  0  0  0
    9.0062   -1.4010   24.2237 C   0  0  0  0  0  0  0  0  0  0  0  0
    8.3112   -1.6717   25.0270 H   0  0  0  0  0  0  0  0  0  0  0  0
    9.5902   -0.5419   24.5727 H   0  0  0  0  0  0  0  0  0  0  0  0
    9.9405   -2.5780   23.8160 C   0  0  0  0  0  0  0  0  0  0  0  0
   10.9810   -2.2674   23.8118 H   0  0  0  0  0  0  0  0  0  0  0  0
    9.8485   -3.4134   24.5104 H   0  0  0  0  0  0  0  0  0  0  0  0
    9.5718   -2.9635   22.3588 C   0  0  0  0  0  0  0  0  0  0  0  0
   10.4450   -2.9312   21.7053 H   0  0  0  0  0  0  0  0  0  0  0  0
    9.0743   -3.9352   22.2717 H   0  0  0  0  0  0  0  0  0  0  0  0
    5.4145    0.6835   20.0911 C   0  0  0  0  0  0  0  0  0  0  0  0
    4.9887    0.7045   21.0964 H   0  0  0  0  0  0  0  0  0  0  0  0
    4.7945    1.3355   19.0262 C   0  0  0  0  0  0  0  0  0  0  0  0
    3.8592    1.8678   19.1514 H   0  0  0  0  0  0  0  0  0  0  0  0
  1  2  1  0
  2  3  2  0
  3  4  1  0
  4  5  1  0
  4  6  2  0
  6  7  1  0
  7  8  2  0
  8  9  1  0
  9 10  1  0
 10 11  2  0
 11 12  1  0
 12 13  1  0
 12 14  1  0
 14 15  1  0
 14 16  1  0
 16 17  1  0
 16 18  1  0
 16 19  1  0
 19 20  1  0
 19 21  1  0
 19 22  1  0
 22 23  1  0
 22 24  1  0
 22 25  1  0
 25 26  1  0
 25 27  1  0
 25 28  1  0
 28 29  1  0
 28 30  1  0
 10 31  1  0
 31 32  1  0
 31 33  1  0
 31 34  1  0
 34 35  1  0
 34 36  1  0
 34 37  1  0
 37 38  1  0
 37 39  1  0
  6 40  1  0
 40 41  1  0
 40 42  2  0
 42 43  1  0
 42  2  1  0
 11  7  1  0
 28 14  1  0
 37  9  1  0
M  END
>  <cnnaffinity>  (1) 
-5.61866

>  <filename>  (1) 
c1cncc(-c2nn3c(c2NC2CCCCC2)CCC3)c1

$$$$
