
     RDKit          3D

 40 43  0  0  0  0  0  0  0  0999 V2000
    5.0471    1.8692   16.7198 H   0  0  0  0  0  0  0  0  0  0  0  0
    5.5263    1.4071   17.5798 C   0  0  0  0  0  0  0  0  0  0  0  0
    6.7007    0.8038   17.3457 N   0  0  0  0  0  0  0  0  0  0  0  0
    7.3143    0.2233   18.3808 C   0  0  0  0  0  0  0  0  0  0  0  0
    8.2822   -0.2283   18.1715 H   0  0  0  0  0  0  0  0  0  0  0  0
    6.7750    0.1716   19.6787 C   0  0  0  0  0  0  0  0  0  0  0  0
    7.4184   -0.6490   20.7158 C   0  0  0  0  0  0  0  0  0  0  0  0
    8.6539   -1.1468   20.5553 N   0  0  0  0  0  0  0  0  0  0  0  0
    8.7982   -1.9268   21.6519 N   0  0  0  0  0  0  0  0  0  0  0  0
    9.8022   -2.7258   22.1680 C   0  0  0  0  0  0  0  0  0  0  0  0
   10.7692   -2.7353   21.7001 H   0  0  0  0  0  0  0  0  0  0  0  0
    9.2787   -3.3119   23.2756 C   0  0  0  0  0  0  0  0  0  0  0  0
    9.7409   -3.9952   23.9748 H   0  0  0  0  0  0  0  0  0  0  0  0
    7.9529   -2.9052   23.4319 N   0  0  0  0  0  0  0  0  0  0  0  0
    7.1874   -2.9971   24.6605 C   0  0  0  0  0  0  0  0  0  0  0  0
    7.3702   -3.9906   25.0959 H   0  0  0  0  0  0  0  0  0  0  0  0
    6.1276   -2.9327   24.3912 H   0  0  0  0  0  0  0  0  0  0  0  0
    7.4938   -1.9837   25.6412 N   0  0  0  0  0  0  0  0  0  0  0  0
    8.9298   -1.8384   25.9448 C   0  0  0  0  0  0  0  0  0  0  0  0
    9.4396   -1.2950   25.1200 H   0  0  0  0  0  0  0  0  0  0  0  0
    9.4168   -2.8237   26.0020 H   0  0  0  0  0  0  0  0  0  0  0  0
    9.0737   -1.0861   27.2678 C   0  0  0  0  0  0  0  0  0  0  0  0
    8.5901   -1.6832   28.0498 H   0  0  0  0  0  0  0  0  0  0  0  0
   10.1309   -0.9946   27.5414 H   0  0  0  0  0  0  0  0  0  0  0  0
    8.4027    0.2946   27.1751 C   0  0  0  0  0  0  0  0  0  0  0  0
    8.4061    0.7783   28.1603 H   0  0  0  0  0  0  0  0  0  0  0  0
    8.9977    0.9360   26.5055 H   0  0  0  0  0  0  0  0  0  0  0  0
    6.9620    0.1726   26.6406 C   0  0  0  0  0  0  0  0  0  0  0  0
    6.5247    1.1595   26.4555 H   0  0  0  0  0  0  0  0  0  0  0  0
    6.3332   -0.3201   27.3932 H   0  0  0  0  0  0  0  0  0  0  0  0
    6.8964   -0.6687   25.3614 C   0  0  0  0  0  0  0  0  0  0  0  0
    7.4233   -0.1621   24.5303 H   0  0  0  0  0  0  0  0  0  0  0  0
    5.8473   -0.7822   25.0420 H   0  0  0  0  0  0  0  0  0  0  0  0
    7.7126   -1.9687   22.4460 C   0  0  0  0  0  0  0  0  0  0  0  0
    6.7937   -1.0922   21.9105 C   0  0  0  0  0  0  0  0  0  0  0  0
    5.8888   -0.7150   22.3387 H   0  0  0  0  0  0  0  0  0  0  0  0
    5.5581    0.8381   19.9119 C   0  0  0  0  0  0  0  0  0  0  0  0
    5.1108    0.8737   20.9064 H   0  0  0  0  0  0  0  0  0  0  0  0
    4.9261    1.4620   18.8403 C   0  0  0  0  0  0  0  0  0  0  0  0
    3.9861    1.9853   18.9696 H   0  0  0  0  0  0  0  0  0  0  0  0
  1  2  1  0
  2  3  2  0
  3  4  1  0
  4  5  1  0
  4  6  2  0
  6  7  1  0
  7  8  2  0
  8  9  1  0
  9 10  1  0
 10 11  1  0
 10 12  2  0
 12 13  1  0
 12 14  1  0
 14 15  1  0
 15 16  1  0
 15 17  1  0
 15 18  1  0
 18 19  1  0
 19 20  1  0
 19 21  1  0
 19 22  1  0
 22 23  1  0
 22 24  1  0
 22 25  1  0
 25 26  1  0
 25 27  1  0
 25 28  1  0
 28 29  1  0
 28 30  1  0
 28 31  1  0
 31 32  1  0
 31 33  1  0
 14 34  1  0
 34 35  2  0
 35 36  1  0
  6 37  1  0
 37 38  1  0
 37 39  2  0
 39 40  1  0
 39  2  1  0
 35  7  1  0
 34  9  1  0
 31 18  1  0
M  END
>  <cnnaffinity>  (1) 
-5.12178

>  <filename>  (1) 
c1cncc(-c2cc3n(CN4CCCCC4)ccn3n2)c1

$$$$
