
     RDKit          3D

 32 36  0  0  0  0  0  0  0  0999 V2000
    4.9125    1.8163   16.9714 H   0  0  0  0  0  0  0  0  0  0  0  0
    5.3756    1.3055   17.8181 C   0  0  0  0  0  0  0  0  0  0  0  0
    6.5380    0.6853   17.5622 N   0  0  0  0  0  0  0  0  0  0  0  0
    7.1511    0.0765   18.5811 C   0  0  0  0  0  0  0  0  0  0  0  0
    8.1017   -0.3876   18.3285 H   0  0  0  0  0  0  0  0  0  0  0  0
    6.6667    0.0216   19.9090 C   0  0  0  0  0  0  0  0  0  0  0  0
    7.4283   -0.6928   20.9595 C   0  0  0  0  0  0  0  0  0  0  0  0
    8.3508   -1.7110   20.9085 C   0  0  0  0  0  0  0  0  0  0  0  0
    8.7732   -2.1168   20.0084 H   0  0  0  0  0  0  0  0  0  0  0  0
    8.7962   -2.1251   22.1369 N   0  0  0  0  0  0  0  0  0  0  0  0
    8.1745   -1.3181   22.9598 C   0  0  0  0  0  0  0  0  0  0  0  0
    8.2255   -0.9438   24.6543 S   0  0  0  0  0  0  0  0  0  0  0  0
    7.1104    0.3660   24.2910 C   0  0  0  0  0  0  0  0  0  0  0  0
    6.6274    1.2700   25.3256 C   0  0  0  0  0  0  0  0  0  0  0  0
    5.8133    2.2528   25.1651 N   0  0  0  0  0  0  0  0  0  0  0  0
    5.6749    2.7783   26.4372 C   0  0  0  0  0  0  0  0  0  0  0  0
    4.9159    3.8588   26.8928 C   0  0  0  0  0  0  0  0  0  0  0  0
    4.3242    4.4118   26.1726 H   0  0  0  0  0  0  0  0  0  0  0  0
    4.9681    4.1588   28.2518 C   0  0  0  0  0  0  0  0  0  0  0  0
    4.3863    4.9907   28.6295 H   0  0  0  0  0  0  0  0  0  0  0  0
    5.7622    3.3953   29.1321 C   0  0  0  0  0  0  0  0  0  0  0  0
    5.7737    3.6569   30.1825 H   0  0  0  0  0  0  0  0  0  0  0  0
    6.5275    2.3129   28.6848 C   0  0  0  0  0  0  0  0  0  0  0  0
    7.1405    1.7147   29.3501 H   0  0  0  0  0  0  0  0  0  0  0  0
    6.4595    2.0326   27.3252 C   0  0  0  0  0  0  0  0  0  0  0  0
    7.0801    1.0540   26.6060 O   0  0  0  0  0  0  0  0  0  0  0  0
    6.7353    0.5045   23.0575 N   0  0  0  0  0  0  0  0  0  0  0  0
    7.3322   -0.4469   22.3213 N   0  0  0  0  0  0  0  0  0  0  0  0
    5.4373    0.6673   20.1475 C   0  0  0  0  0  0  0  0  0  0  0  0
    5.0279    0.6660   21.1568 H   0  0  0  0  0  0  0  0  0  0  0  0
    4.7895    1.3143   19.0887 C   0  0  0  0  0  0  0  0  0  0  0  0
    3.8562    1.8500   19.2287 H   0  0  0  0  0  0  0  0  0  0  0  0
  1  2  1  0
  2  3  2  0
  3  4  1  0
  4  5  1  0
  4  6  2  0
  6  7  1  0
  7  8  2  0
  8  9  1  0
  8 10  1  0
 10 11  2  0
 11 12  1  0
 12 13  1  0
 13 14  1  0
 14 15  2  0
 15 16  1  0
 16 17  2  0
 17 18  1  0
 17 19  1  0
 19 20  1  0
 19 21  2  0
 21 22  1  0
 21 23  1  0
 23 24  1  0
 23 25  2  0
 25 26  1  0
 13 27  2  0
 27 28  1  0
  6 29  1  0
 29 30  1  0
 29 31  2  0
 31 32  1  0
 31  2  1  0
 28  7  1  0
 28 11  1  0
 26 14  1  0
 25 16  1  0
M  END
>  <cnnaffinity>  (1) 
-5.28275

>  <filename>  (1) 
c1cncc(-c2cnc3sc(-c4nc5ccccc5o4)nn23)c1

$$$$
