
     RDKit          3D

 36 39  0  0  0  0  0  0  0  0999 V2000
    5.0473    1.7468   16.6825 H   0  0  0  0  0  0  0  0  0  0  0  0
    5.4704    1.2278   17.5403 C   0  0  0  0  0  0  0  0  0  0  0  0
    6.6137    0.5583   17.3317 N   0  0  0  0  0  0  0  0  0  0  0  0
    7.1888   -0.0378   18.3804 C   0  0  0  0  0  0  0  0  0  0  0  0
    8.1029   -0.5885   18.1683 H   0  0  0  0  0  0  0  0  0  0  0  0
    6.6737    0.0212   19.6871 C   0  0  0  0  0  0  0  0  0  0  0  0
    7.4559   -0.4957   20.8221 C   0  0  0  0  0  0  0  0  0  0  0  0
    8.6520   -1.0704   20.6263 N   0  0  0  0  0  0  0  0  0  0  0  0
    9.0335   -1.3903   21.8776 N   0  0  0  0  0  0  0  0  0  0  0  0
   10.1054   -2.0863   22.4082 C   0  0  0  0  0  0  0  0  0  0  0  0
   10.8950   -2.4426   21.7690 H   0  0  0  0  0  0  0  0  0  0  0  0
    9.8562   -2.1701   23.7362 C   0  0  0  0  0  0  0  0  0  0  0  0
   10.3568   -2.6899   24.5367 H   0  0  0  0  0  0  0  0  0  0  0  0
    8.6834   -1.5062   24.0315 N   0  0  0  0  0  0  0  0  0  0  0  0
    8.0968   -1.5519   25.2982 N   0  0  0  0  0  0  0  0  0  0  0  0
    7.1353   -1.2394   25.1920 H   0  0  0  0  0  0  0  0  0  0  0  0
    8.7824   -0.6846   26.2919 C   0  0  0  0  0  0  0  0  0  0  0  0
    9.4554   -1.3161   26.8846 H   0  0  0  0  0  0  0  0  0  0  0  0
    9.4132    0.0526   25.7769 H   0  0  0  0  0  0  0  0  0  0  0  0
    7.8476    0.0655   27.2311 C   0  0  0  0  0  0  0  0  0  0  0  0
    8.0469    1.4367   27.4567 C   0  0  0  0  0  0  0  0  0  0  0  0
    8.8634    1.9669   26.9735 H   0  0  0  0  0  0  0  0  0  0  0  0
    7.2156    2.1218   28.3439 C   0  0  0  0  0  0  0  0  0  0  0  0
    7.3682    3.1865   28.5264 H   0  0  0  0  0  0  0  0  0  0  0  0
    6.1942    1.5478   28.9921 N   0  0  0  0  0  0  0  0  0  0  0  0
    5.9914    0.2408   28.7725 C   0  0  0  0  0  0  0  0  0  0  0  0
    5.1422   -0.2004   29.2988 H   0  0  0  0  0  0  0  0  0  0  0  0
    6.7842   -0.5424   27.9244 C   0  0  0  0  0  0  0  0  0  0  0  0
    6.6033   -1.6122   27.8467 H   0  0  0  0  0  0  0  0  0  0  0  0
    8.1462   -1.0416   22.8411 C   0  0  0  0  0  0  0  0  0  0  0  0
    7.0862   -0.4273   22.1848 C   0  0  0  0  0  0  0  0  0  0  0  0
    6.1841   -0.0053   22.5867 H   0  0  0  0  0  0  0  0  0  0  0  0
    5.4309    0.6465   19.8674 C   0  0  0  0  0  0  0  0  0  0  0  0
    4.9387    0.6329   20.8396 H   0  0  0  0  0  0  0  0  0  0  0  0
    4.8307    1.2756   18.7820 C   0  0  0  0  0  0  0  0  0  0  0  0
    3.8947    1.8106   18.8894 H   0  0  0  0  0  0  0  0  0  0  0  0
  1  2  1  0
  2  3  2  0
  3  4  1  0
  4  5  1  0
  4  6  2  0
  6  7  1  0
  7  8  2  0
  8  9  1  0
  9 10  1  0
 10 11  1  0
 10 12  2  0
 12 13  1  0
 12 14  1  0
 14 15  1  0
 15 16  1  0
 15 17  1  0
 17 18  1  0
 17 19  1  0
 17 20  1  0
 20 21  2  0
 21 22  1  0
 21 23  1  0
 23 24  1  0
 23 25  2  0
 25 26  1  0
 26 27  1  0
 26 28  2  0
 28 29  1  0
 14 30  1  0
 30 31  2  0
 31 32  1  0
  6 33  1  0
 33 34  1  0
 33 35  2  0
 35 36  1  0
 35  2  1  0
 31  7  1  0
 30  9  1  0
 28 20  1  0
M  END
>  <cnnaffinity>  (1) 
-4.95983

>  <filename>  (1) 
c1cncc(-c2cc3n(NCc4ccncc4)ccn3n2)c1

$$$$
