
     RDKit          3D

 39 41  0  0  0  0  0  0  0  0999 V2000
    4.9154    1.7773   16.9979 H   0  0  0  0  0  0  0  0  0  0  0  0
    5.4057    1.2943   17.8367 C   0  0  0  0  0  0  0  0  0  0  0  0
    6.5693    0.6784   17.5715 N   0  0  0  0  0  0  0  0  0  0  0  0
    7.1779    0.0702   18.5957 C   0  0  0  0  0  0  0  0  0  0  0  0
    8.1156   -0.4347   18.3717 H   0  0  0  0  0  0  0  0  0  0  0  0
    6.6553    0.0278   19.8928 C   0  0  0  0  0  0  0  0  0  0  0  0
    7.3430   -0.6843   20.9738 C   0  0  0  0  0  0  0  0  0  0  0  0
    6.7744   -1.5732   21.7457 N   0  0  0  0  0  0  0  0  0  0  0  0
    7.6980   -1.9778   22.6746 N   0  0  0  0  0  0  0  0  0  0  0  0
    8.7825   -1.2921   22.4467 C   0  0  0  0  0  0  0  0  0  0  0  0
    9.6929   -1.3458   23.0253 H   0  0  0  0  0  0  0  0  0  0  0  0
    8.6403   -0.4770   21.3583 N   0  0  0  0  0  0  0  0  0  0  0  0
    9.5750    0.5377   20.8787 C   0  0  0  0  0  0  0  0  0  0  0  0
    9.6926    0.3978   19.8065 H   0  0  0  0  0  0  0  0  0  0  0  0
   10.5493    0.3417   21.3370 H   0  0  0  0  0  0  0  0  0  0  0  0
    9.1595    1.9803   21.1699 C   0  0  0  0  0  0  0  0  0  0  0  0
    8.2106    2.1892   20.6604 H   0  0  0  0  0  0  0  0  0  0  0  0
    9.9060    2.6314   20.6980 H   0  0  0  0  0  0  0  0  0  0  0  0
    9.0657    2.3418   22.6610 C   0  0  0  0  0  0  0  0  0  0  0  0
    9.7535    1.6867   23.2179 H   0  0  0  0  0  0  0  0  0  0  0  0
    7.6564    2.1166   23.2338 C   0  0  0  0  0  0  0  0  0  0  0  0
    6.9460    2.7293   22.6602 H   0  0  0  0  0  0  0  0  0  0  0  0
    7.3370    1.0792   23.0910 H   0  0  0  0  0  0  0  0  0  0  0  0
    7.5588    2.5008   24.7115 C   0  0  0  0  0  0  0  0  0  0  0  0
    8.1829    1.8110   25.2948 H   0  0  0  0  0  0  0  0  0  0  0  0
    6.5313    2.3672   25.0699 H   0  0  0  0  0  0  0  0  0  0  0  0
    8.0290    3.9373   24.9581 C   0  0  0  0  0  0  0  0  0  0  0  0
    7.3331    4.6271   24.4634 H   0  0  0  0  0  0  0  0  0  0  0  0
    7.9965    4.1718   26.0276 H   0  0  0  0  0  0  0  0  0  0  0  0
    9.4347    4.1720   24.3998 C   0  0  0  0  0  0  0  0  0  0  0  0
    9.7366    5.2159   24.5404 H   0  0  0  0  0  0  0  0  0  0  0  0
   10.1479    3.5588   24.9626 H   0  0  0  0  0  0  0  0  0  0  0  0
    9.5293    3.7870   22.9224 C   0  0  0  0  0  0  0  0  0  0  0  0
   10.5596    3.9213   22.5655 H   0  0  0  0  0  0  0  0  0  0  0  0
    8.9063    4.4696   22.3284 H   0  0  0  0  0  0  0  0  0  0  0  0
    5.4316    0.6582   20.1525 C   0  0  0  0  0  0  0  0  0  0  0  0
    5.0016    0.6207   21.1620 H   0  0  0  0  0  0  0  0  0  0  0  0
    4.8027    1.3174   19.1026 C   0  0  0  0  0  0  0  0  0  0  0  0
    3.8681    1.8472   19.2599 H   0  0  0  0  0  0  0  0  0  0  0  0
  1  2  1  0
  2  3  2  0
  3  4  1  0
  4  5  1  0
  4  6  2  0
  6  7  1  0
  7  8  2  0
  8  9  1  0
  9 10  2  0
 10 11  1  0
 10 12  1  0
 12 13  1  0
 13 14  1  0
 13 15  1  0
 13 16  1  0
 16 17  1  0
 16 18  1  0
 16 19  1  0
 19 20  1  0
 19 21  1  0
 21 22  1  0
 21 23  1  0
 21 24  1  0
 24 25  1  0
 24 26  1  0
 24 27  1  0
 27 28  1  0
 27 29  1  0
 27 30  1  0
 30 31  1  0
 30 32  1  0
 30 33  1  0
 33 34  1  0
 33 35  1  0
  6 36  1  0
 36 37  1  0
 36 38  2  0
 38 39  1  0
 38  2  1  0
 12  7  1  0
 33 19  1  0
M  END
>  <cnnaffinity>  (1) 
-5.13065

>  <filename>  (1) 
c1cncc(-c2nncn2CCC2CCCCC2)c1

$$$$
