
     RDKit          3D

 25 27  0  0  0  0  0  0  0  0999 V2000
    8.9335   -5.2203   24.5682 H   0  0  0  0  0  0  0  0  0  0  0  0
    8.6639   -4.4158   23.8947 C   0  0  0  0  0  0  0  0  0  0  0  0
    7.3740   -4.2030   23.5017 N   0  0  0  0  0  0  0  0  0  0  0  0
    7.4813   -3.1615   22.7168 C   0  0  0  0  0  0  0  0  0  0  0  0
    6.6913   -2.6459   22.1864 H   0  0  0  0  0  0  0  0  0  0  0  0
    8.7820   -2.7726   22.6312 N   0  0  0  0  0  0  0  0  0  0  0  0
    9.2816   -1.7064   21.8815 C   0  0  0  0  0  0  0  0  0  0  0  0
    8.6386   -0.7644   21.0967 C   0  0  0  0  0  0  0  0  0  0  0  0
    7.2716   -0.6891   20.9478 O   0  0  0  0  0  0  0  0  0  0  0  0
    6.6846    0.0132   19.9153 C   0  0  0  0  0  0  0  0  0  0  0  0
    7.1871    0.0530   18.6020 C   0  0  0  0  0  0  0  0  0  0  0  0
    8.1266   -0.4378   18.3637 H   0  0  0  0  0  0  0  0  0  0  0  0
    6.5652    0.6690   17.5860 N   0  0  0  0  0  0  0  0  0  0  0  0
    5.4042    1.2901   17.8426 C   0  0  0  0  0  0  0  0  0  0  0  0
    4.9182    1.7807   16.9995 H   0  0  0  0  0  0  0  0  0  0  0  0
    4.8211    1.3016   19.1151 C   0  0  0  0  0  0  0  0  0  0  0  0
    3.8877    1.8310   19.2667 H   0  0  0  0  0  0  0  0  0  0  0  0
    5.4597    0.6431   20.1728 C   0  0  0  0  0  0  0  0  0  0  0  0
    5.0316    0.6107   21.1753 H   0  0  0  0  0  0  0  0  0  0  0  0
    9.6621    0.0751   20.6305 C   0  0  0  0  0  0  0  0  0  0  0  0
    9.5701    0.9411   19.9938 H   0  0  0  0  0  0  0  0  0  0  0  0
   10.8459   -0.3190   21.0767 N   0  0  0  0  0  0  0  0  0  0  0  0
   10.5982   -1.4002   21.8215 N   0  0  0  0  0  0  0  0  0  0  0  0
   11.3544   -1.8859   22.2772 H   0  0  0  0  0  0  0  0  0  0  0  0
    9.5506   -3.5857   23.3968 N   0  0  0  0  0  0  0  0  0  0  0  0
  1  2  1  0
  2  3  1  0
  3  4  2  0
  4  5  1  0
  4  6  1  0
  6  7  1  0
  7  8  2  0
  8  9  1  0
  9 10  1  0
 10 11  2  0
 11 12  1  0
 11 13  1  0
 13 14  2  0
 14 15  1  0
 14 16  1  0
 16 17  1  0
 16 18  2  0
 18 19  1  0
  8 20  1  0
 20 21  1  0
 20 22  2  0
 22 23  1  0
 23 24  1  0
  6 25  1  0
 25  2  2  0
 23  7  1  0
 18 10  1  0
M  END
>  <cnnaffinity>  (1) 
-4.93867

>  <filename>  (1) 
c1cncc(Oc2cn[nH]c2-n2cncn2)c1

$$$$
