
     RDKit          3D

 38 41  0  0  0  0  0  0  0  0999 V2000
    5.0204    1.7890   16.9888 H   0  0  0  0  0  0  0  0  0  0  0  0
    5.4373    1.2666   17.8484 C   0  0  0  0  0  0  0  0  0  0  0  0
    6.5912    0.6102   17.6411 N   0  0  0  0  0  0  0  0  0  0  0  0
    7.1262   -0.0246   18.6910 C   0  0  0  0  0  0  0  0  0  0  0  0
    8.0710   -0.5347   18.5082 H   0  0  0  0  0  0  0  0  0  0  0  0
    6.5708   -0.0650   19.9856 C   0  0  0  0  0  0  0  0  0  0  0  0
    7.3022   -0.7627   21.1142 C   0  0  0  0  0  0  0  0  0  0  0  0
    7.0543   -2.2236   21.3756 C   0  0  0  0  0  0  0  0  0  0  0  0
    7.8938   -3.1942   21.2299 N   0  0  0  0  0  0  0  0  0  0  0  0
    7.2471   -4.3641   21.6159 N   0  0  0  0  0  0  0  0  0  0  0  0
    6.0734   -3.9919   22.0273 C   0  0  0  0  0  0  0  0  0  0  0  0
    5.0720   -4.7669   22.5196 N   0  0  0  0  0  0  0  0  0  0  0  0
    5.0538   -6.2006   22.2142 C   0  0  0  0  0  0  0  0  0  0  0  0
    4.2295   -6.4225   21.5174 H   0  0  0  0  0  0  0  0  0  0  0  0
    5.9880   -6.4744   21.7166 H   0  0  0  0  0  0  0  0  0  0  0  0
    4.8823   -7.0058   23.5019 C   0  0  0  0  0  0  0  0  0  0  0  0
    4.9011   -8.0794   23.2874 H   0  0  0  0  0  0  0  0  0  0  0  0
    5.7416   -6.7726   24.1430 H   0  0  0  0  0  0  0  0  0  0  0  0
    3.6191   -6.5787   24.2581 C   0  0  0  0  0  0  0  0  0  0  0  0
    3.4757   -7.1856   25.1573 H   0  0  0  0  0  0  0  0  0  0  0  0
    2.7137   -6.7321   23.6451 H   0  0  0  0  0  0  0  0  0  0  0  0
    3.7895   -5.0931   24.6121 C   0  0  0  0  0  0  0  0  0  0  0  0
    2.9390   -4.7190   25.1955 H   0  0  0  0  0  0  0  0  0  0  0  0
    4.6912   -4.9763   25.2332 H   0  0  0  0  0  0  0  0  0  0  0  0
    3.9550   -4.2682   23.3281 C   0  0  0  0  0  0  0  0  0  0  0  0
    4.0807   -3.2066   23.5570 H   0  0  0  0  0  0  0  0  0  0  0  0
    3.0345   -4.3929   22.7415 H   0  0  0  0  0  0  0  0  0  0  0  0
    5.8601   -2.6573   21.8918 O   0  0  0  0  0  0  0  0  0  0  0  0
    8.7422   -0.3481   21.3207 C   0  0  0  0  0  0  0  0  0  0  0  0
    9.1636    0.3886   20.6430 H   0  0  0  0  0  0  0  0  0  0  0  0
    9.4113   -1.1523   21.6076 H   0  0  0  0  0  0  0  0  0  0  0  0
    7.7240    0.0890   22.3107 C   0  0  0  0  0  0  0  0  0  0  0  0
    7.4382    1.1385   22.3132 H   0  0  0  0  0  0  0  0  0  0  0  0
    7.7222   -0.3767   23.2891 H   0  0  0  0  0  0  0  0  0  0  0  0
    5.3661    0.6288   20.1711 C   0  0  0  0  0  0  0  0  0  0  0  0
    4.9076    0.6508   21.1636 H   0  0  0  0  0  0  0  0  0  0  0  0
    4.7880    1.2950   19.0881 C   0  0  0  0  0  0  0  0  0  0  0  0
    3.8571    1.8424   19.1869 H   0  0  0  0  0  0  0  0  0  0  0  0
  1  2  1  0
  2  3  2  0
  3  4  1  0
  4  5  1  0
  4  6  2  0
  6  7  1  0
  7  8  1  0
  8  9  2  0
  9 10  1  0
 10 11  2  0
 11 12  1  0
 12 13  1  0
 13 14  1  0
 13 15  1  0
 13 16  1  0
 16 17  1  0
 16 18  1  0
 16 19  1  0
 19 20  1  0
 19 21  1  0
 19 22  1  0
 22 23  1  0
 22 24  1  0
 22 25  1  0
 25 26  1  0
 25 27  1  0
 11 28  1  0
  7 29  1  0
 29 30  1  0
 29 31  1  0
 29 32  1  0
 32 33  1  0
 32 34  1  0
  6 35  1  0
 35 36  1  0
 35 37  2  0
 37 38  1  0
 37  2  1  0
 32  7  1  0
 28  8  1  0
 25 12  1  0
M  END
>  <cnnaffinity>  (1) 
-4.68663

>  <filename>  (1) 
c1cncc(C2(c3nnc(N4CCCCC4)o3)CC2)c1

$$$$
