
     RDKit          3D

 28 30  0  0  0  0  0  0  0  0999 V2000
    9.0645   -3.0122   22.1771 H   0  0  0  0  0  0  0  0  0  0  0  0
    8.4800   -2.1247   21.9814 C   0  0  0  0  0  0  0  0  0  0  0  0
    8.0204   -1.8496   20.7350 N   0  0  0  0  0  0  0  0  0  0  0  0
    7.3710   -0.7214   20.9142 C   0  0  0  0  0  0  0  0  0  0  0  0
    6.6424    0.0115   19.8922 C   0  0  0  0  0  0  0  0  0  0  0  0
    7.1710    0.0499   18.5951 C   0  0  0  0  0  0  0  0  0  0  0  0
    8.1215   -0.4376   18.3792 H   0  0  0  0  0  0  0  0  0  0  0  0
    6.5708    0.6785   17.5839 N   0  0  0  0  0  0  0  0  0  0  0  0
    5.4049    1.2919   17.8423 C   0  0  0  0  0  0  0  0  0  0  0  0
    4.9183    1.7764   17.0006 H   0  0  0  0  0  0  0  0  0  0  0  0
    4.8022    1.3135   19.1071 C   0  0  0  0  0  0  0  0  0  0  0  0
    3.8698    1.8454   19.2599 H   0  0  0  0  0  0  0  0  0  0  0  0
    5.4311    0.6638   20.1600 C   0  0  0  0  0  0  0  0  0  0  0  0
    4.9910    0.6334   21.1616 H   0  0  0  0  0  0  0  0  0  0  0  0
    7.4699   -0.3325   22.2298 N   0  0  0  0  0  0  0  0  0  0  0  0
    7.1049    0.8584   22.8225 N   0  0  0  0  0  0  0  0  0  0  0  0
    7.0561    1.6695   22.2366 H   0  0  0  0  0  0  0  0  0  0  0  0
    6.8414    1.0520   24.1656 C   0  0  0  0  0  0  0  0  0  0  0  0
    6.3978    0.0232   24.9866 C   0  0  0  0  0  0  0  0  0  0  0  0
    6.2513   -0.9649   24.5748 H   0  0  0  0  0  0  0  0  0  0  0  0
    6.1815    0.2928   26.3284 C   0  0  0  0  0  0  0  0  0  0  0  0
    5.8602   -0.5083   26.9842 H   0  0  0  0  0  0  0  0  0  0  0  0
    6.3418    1.4953   26.8985 N   0  0  0  0  0  0  0  0  0  0  0  0
    6.7386    2.4831   26.0849 C   0  0  0  0  0  0  0  0  0  0  0  0
    6.8563    3.4551   26.5570 H   0  0  0  0  0  0  0  0  0  0  0  0
    6.9862    2.3288   24.7251 C   0  0  0  0  0  0  0  0  0  0  0  0
    7.3056    3.1813   24.1354 H   0  0  0  0  0  0  0  0  0  0  0  0
    8.1985   -1.2394   22.9111 N   0  0  0  0  0  0  0  0  0  0  0  0
  1  2  1  0
  2  3  1  0
  3  4  2  0
  4  5  1  0
  5  6  2  0
  6  7  1  0
  6  8  1  0
  8  9  2  0
  9 10  1  0
  9 11  1  0
 11 12  1  0
 11 13  2  0
 13 14  1  0
  4 15  1  0
 15 16  1  0
 16 17  1  0
 16 18  1  0
 18 19  2  0
 19 20  1  0
 19 21  1  0
 21 22  1  0
 21 23  2  0
 23 24  1  0
 24 25  1  0
 24 26  2  0
 26 27  1  0
 15 28  1  0
 28  2  2  0
 13  5  1  0
 26 18  1  0
M  END
>  <cnnaffinity>  (1) 
-4.71128

>  <filename>  (1) 
c1cncc(-c2ncnn2Nc2ccncc2)c1

$$$$
