
     RDKit          3D

 43 44  0  0  0  0  0  0  0  0999 V2000
    1.2745   -2.6976   28.3378 C   0  0  0  0  0  0  0  0  0  0  0  0
    2.2299   -1.8206   28.6503 C   0  0  0  0  0  0  0  0  0  0  0  0
    1.9993   -0.3205   28.5609 C   0  0  0  0  0  0  0  0  0  0  0  0
    1.2031    0.0247   29.2335 H   0  0  0  0  0  0  0  0  0  0  0  0
    1.7132   -0.0256   27.5429 H   0  0  0  0  0  0  0  0  0  0  0  0
    2.9002    0.2455   28.8174 H   0  0  0  0  0  0  0  0  0  0  0  0
    3.6018   -2.3380   29.0912 C   0  0  0  0  0  0  0  0  0  0  0  0
    4.3051   -3.0274   28.0672 O   0  0  0  0  0  0  0  0  0  0  0  0
    4.9470   -2.1857   27.1234 C   0  0  0  0  0  0  0  0  0  0  0  0
    5.4054   -3.0881   25.9921 C   0  0  0  0  0  0  0  0  0  0  0  0
    6.1571   -2.3441   24.9509 N   0  0  0  0  0  4  0  0  0  0  0  0
    6.6477   -3.1484   23.8100 C   0  0  0  0  0  0  0  0  0  0  0  0
    7.3578   -2.2070   22.8837 C   0  0  0  0  0  0  0  0  0  0  0  0
    8.7314   -1.9770   23.0161 C   0  0  0  0  0  0  0  0  0  0  0  0
    9.4334   -1.1798   22.2021 N   0  0  0  0  0  0  0  0  0  0  0  0
    8.7786   -0.5673   21.2046 C   0  0  0  0  0  0  0  0  0  0  0  0
    7.3906   -0.6897   20.9806 C   0  0  0  0  0  0  0  0  0  0  0  0
    6.6650    0.0203   19.8687 C   0  0  0  0  0  0  0  0  0  0  0  0
    5.4395    0.6692   20.1113 C   0  0  0  0  0  0  0  0  0  0  0  0
    4.7936    1.3319   19.0667 C   0  0  0  0  0  0  0  0  0  0  0  0
    5.3888    1.3172   17.8017 C   0  0  0  0  0  0  0  0  0  0  0  0
    6.5452    0.6868   17.5315 N   0  0  0  0  0  0  0  0  0  0  0  0
    7.1578    0.0670   18.5466 C   0  0  0  0  0  0  0  0  0  0  0  0
    8.0971   -0.4312   18.2973 H   0  0  0  0  0  0  0  0  0  0  0  0
    4.9190    1.8327   16.9692 H   0  0  0  0  0  0  0  0  0  0  0  0
    3.8536    1.8633   19.2197 H   0  0  0  0  0  0  0  0  0  0  0  0
    5.0174    0.6694   21.1171 H   0  0  0  0  0  0  0  0  0  0  0  0
    6.6901   -1.5292   21.8571 C   0  0  0  0  0  0  0  0  0  0  0  0
    5.6225   -1.6786   21.7007 H   0  0  0  0  0  0  0  0  0  0  0  0
    9.3904    0.0498   20.5441 H   0  0  0  0  0  0  0  0  0  0  0  0
    9.2990   -2.4811   23.7985 H   0  0  0  0  0  0  0  0  0  0  0  0
    5.8055   -3.6285   23.2963 H   0  0  0  0  0  0  0  0  0  0  0  0
    7.3256   -3.9349   24.1607 H   0  0  0  0  0  0  0  0  0  0  0  0
    6.9878   -1.8518   25.3659 H   0  0  0  0  0  0  0  0  0  0  0  0
    5.5641   -1.5860   24.5177 H   0  0  0  0  0  0  0  0  0  0  0  0
    6.0077   -3.8920   26.4350 H   0  0  0  0  0  0  0  0  0  0  0  0
    4.5133   -3.5697   25.5741 H   0  0  0  0  0  0  0  0  0  0  0  0
    5.8135   -1.6765   27.5796 H   0  0  0  0  0  0  0  0  0  0  0  0
    4.2458   -1.4200   26.7562 H   0  0  0  0  0  0  0  0  0  0  0  0
    4.2123   -1.5169   29.5010 H   0  0  0  0  0  0  0  0  0  0  0  0
    3.4918   -3.0787   29.8929 H   0  0  0  0  0  0  0  0  0  0  0  0
    0.2778   -2.3836   28.0350 H   0  0  0  0  0  0  0  0  0  0  0  0
    1.4483   -3.7710   28.3781 H   0  0  0  0  0  0  0  0  0  0  0  0
  1  2  2  3
  2  3  1  0
  3  4  1  0
  3  5  1  0
  3  6  1  0
  2  7  1  0
  7  8  1  0
  8  9  1  0
  9 10  1  0
 10 11  1  0
 11 12  1  0
 12 13  1  0
 13 14  2  0
 14 15  1  0
 15 16  2  0
 16 17  1  0
 17 18  1  0
 18 19  2  0
 19 20  1  0
 20 21  2  0
 21 22  1  0
 22 23  2  0
 23 24  1  0
 21 25  1  0
 20 26  1  0
 19 27  1  0
 17 28  2  0
 28 29  1  0
 16 30  1  0
 14 31  1  0
 12 32  1  0
 12 33  1  0
 11 34  1  0
 11 35  1  0
 10 36  1  0
 10 37  1  0
  9 38  1  0
  9 39  1  0
  7 40  1  0
  7 41  1  0
  1 42  1  0
  1 43  1  0
 28 13  1  0
 23 18  1  0
M  CHG  1  11   1
M  END
>  <cnnaffinity>  (1) 
-4.74851

>  <filename>  (1) 
C=C(C)COCC[NH2+]Cc1cncc(-c2cccnc2)c1

$$$$
