
     RDKit          3D

 28 29  0  0  0  0  0  0  0  0999 V2000
    8.2834    3.9194   24.7822 H   0  0  0  0  0  0  0  0  0  0  0  0
    7.7617    3.0213   25.1022 C   0  0  0  0  0  0  0  0  0  0  0  0
    6.8797    3.1468   25.7261 H   0  0  0  0  0  0  0  0  0  0  0  0
    8.1768    1.8132   24.7377 C   0  0  0  0  0  0  0  0  0  0  0  0
    9.0377    1.6990   24.0768 H   0  0  0  0  0  0  0  0  0  0  0  0
    7.5008    0.5244   25.1391 C   0  0  0  0  0  0  0  0  0  0  0  0
    7.5420    0.3559   26.2202 H   0  0  0  0  0  0  0  0  0  0  0  0
    6.4370    0.5145   24.8577 H   0  0  0  0  0  0  0  0  0  0  0  0
    8.1579   -0.6083   24.5711 O   0  0  0  0  0  0  0  0  0  0  0  0
    8.0268   -0.8072   23.2614 C   0  0  0  0  0  0  0  0  0  0  0  0
    7.3172   -0.0900   22.3366 C   0  0  0  0  0  0  0  0  0  0  0  0
    6.7876    0.8051   22.6127 H   0  0  0  0  0  0  0  0  0  0  0  0
    7.3697   -0.5557   20.9975 C   0  0  0  0  0  0  0  0  0  0  0  0
    6.6187    0.1364   19.9389 C   0  0  0  0  0  0  0  0  0  0  0  0
    7.1430    0.0969   18.6424 C   0  0  0  0  0  0  0  0  0  0  0  0
    8.0700   -0.4520   18.4659 H   0  0  0  0  0  0  0  0  0  0  0  0
    6.5542    0.6850   17.5996 N   0  0  0  0  0  0  0  0  0  0  0  0
    5.3894    1.3130   17.8212 C   0  0  0  0  0  0  0  0  0  0  0  0
    4.9496    1.8034   16.9579 H   0  0  0  0  0  0  0  0  0  0  0  0
    4.7541    1.3560   19.0674 C   0  0  0  0  0  0  0  0  0  0  0  0
    3.8062    1.8703   19.1767 H   0  0  0  0  0  0  0  0  0  0  0  0
    5.3806    0.7511   20.1525 C   0  0  0  0  0  0  0  0  0  0  0  0
    4.9099    0.7171   21.1369 H   0  0  0  0  0  0  0  0  0  0  0  0
    8.0323   -1.6088   20.6122 N   0  0  0  0  0  0  0  0  0  0  0  0
    8.5372   -2.4236   21.5786 C   0  0  0  0  0  0  0  0  0  0  0  0
    8.8325   -3.5823   21.4132 O   0  0  0  0  0  0  0  0  0  0  0  0
    8.7083   -1.8806   22.8472 N   0  0  0  0  0  0  0  0  0  0  0  0
    9.1039   -2.5244   23.5034 H   0  0  0  0  0  0  0  0  0  0  0  0
  1  2  1  0
  2  3  1  0
  2  4  2  3
  4  5  1  0
  4  6  1  0
  6  7  1  0
  6  8  1  0
  6  9  1  0
  9 10  1  0
 10 11  2  0
 11 12  1  0
 11 13  1  0
 13 14  1  0
 14 15  2  0
 15 16  1  0
 15 17  1  0
 17 18  2  0
 18 19  1  0
 18 20  1  0
 20 21  1  0
 20 22  2  0
 22 23  1  0
 13 24  2  0
 24 25  1  0
 25 26  2  0
 25 27  1  0
 27 28  1  0
 27 10  1  0
 22 14  1  0
M  END
>  <cnnaffinity>  (1) 
-4.81157

>  <filename>  (1) 
C=CCOc1cc(-c2cccnc2)nc(=O)[nH]1

$$$$
