
     RDKit          3D

 26 27  0  0  0  0  0  0  0  0999 V2000
    2.5819   -5.0077   23.4125 H   0  0  0  0  0  0  0  0  0  0  0  0
    3.5087   -4.4908   23.6740 C   0  0  0  0  0  0  0  0  0  0  0  0
    3.7307   -4.4553   24.7433 H   0  0  0  0  0  0  0  0  0  0  0  0
    4.2955   -3.9171   22.7605 C   0  0  0  0  0  0  0  0  0  0  0  0
    4.0282   -3.9331   21.7138 H   0  0  0  0  0  0  0  0  0  0  0  0
    5.5726   -3.1747   23.0382 C   0  0  0  0  0  0  0  0  0  0  0  0
    6.1842   -3.2714   24.0726 O   0  0  0  0  0  0  0  0  0  0  0  0
    5.9617   -2.3646   21.9663 N   0  0  0  0  0  0  0  0  0  0  0  0
    5.3143   -2.1455   21.2321 H   0  0  0  0  0  0  0  0  0  0  0  0
    7.1702   -1.7291   21.9043 C   0  0  0  0  0  0  0  0  0  0  0  0
    8.1750   -1.9946   22.6790 N   0  0  0  0  0  0  0  0  0  0  0  0
    9.1504   -1.1524   22.1990 N   0  0  0  0  0  0  0  0  0  0  0  0
   10.0766   -1.0927   22.5757 H   0  0  0  0  0  0  0  0  0  0  0  0
    8.7836   -0.3859   21.1536 C   0  0  0  0  0  0  0  0  0  0  0  0
    9.4425    0.4413   20.5506 O   0  0  0  0  0  0  0  0  0  0  0  0
    7.4541   -0.7849   20.9259 N   0  0  0  0  0  0  0  0  0  0  0  0
    6.6723   -0.1645   19.8967 C   0  0  0  0  0  0  0  0  0  0  0  0
    7.1610   -0.0883   18.5731 C   0  0  0  0  0  0  0  0  0  0  0  0
    8.1061   -0.5742   18.3309 H   0  0  0  0  0  0  0  0  0  0  0  0
    6.5390    0.5722   17.5919 N   0  0  0  0  0  0  0  0  0  0  0  0
    5.4042    1.2237   17.9012 C   0  0  0  0  0  0  0  0  0  0  0  0
    4.9292    1.7629   17.0837 H   0  0  0  0  0  0  0  0  0  0  0  0
    4.8408    1.2142   19.1820 C   0  0  0  0  0  0  0  0  0  0  0  0
    3.9283    1.7660   19.3759 H   0  0  0  0  0  0  0  0  0  0  0  0
    5.4822    0.4962   20.2014 C   0  0  0  0  0  0  0  0  0  0  0  0
    5.1045    0.4630   21.2239 H   0  0  0  0  0  0  0  0  0  0  0  0
  1  2  1  0
  2  3  1  0
  2  4  2  3
  4  5  1  0
  4  6  1  0
  6  7  2  0
  6  8  1  0
  8  9  1  0
  8 10  1  0
 10 11  2  0
 11 12  1  0
 12 13  1  0
 12 14  1  0
 14 15  2  0
 14 16  1  0
 16 17  1  0
 17 18  2  0
 18 19  1  0
 18 20  1  0
 20 21  2  0
 21 22  1  0
 21 23  1  0
 23 24  1  0
 23 25  2  0
 25 26  1  0
 16 10  1  0
 25 17  1  0
M  END
>  <cnnaffinity>  (1) 
-4.44743

>  <filename>  (1) 
C=CC(=O)Nc1n[nH]c(=O)n1-c1cccnc1

$$$$
