
     RDKit          3D

 36 37  0  0  0  0  0  0  0  0999 V2000
    4.9605    1.7889   17.0393 H   0  0  0  0  0  0  0  0  0  0  0  0
    5.4318    1.2681   17.8669 C   0  0  0  0  0  0  0  0  0  0  0  0
    6.5932    0.6443   17.6040 N   0  0  0  0  0  0  0  0  0  0  0  0
    7.2064    0.0276   18.6137 C   0  0  0  0  0  0  0  0  0  0  0  0
    8.1602   -0.4559   18.4014 H   0  0  0  0  0  0  0  0  0  0  0  0
    6.6997   -0.0248   19.9349 C   0  0  0  0  0  0  0  0  0  0  0  0
    7.4946   -0.6745   20.8434 O   0  0  0  0  0  0  0  0  0  0  0  0
    7.0246   -0.9200   22.1733 C   0  0  2  0  0  0  0  0  0  0  0  0
    6.5150   -0.0191   22.5440 H   0  0  0  0  0  0  0  0  0  0  0  0
    8.1689   -1.2428   22.9831 N   0  0  0  0  0  0  0  0  0  0  0  0
    8.7456   -1.7805   22.3389 H   0  0  0  0  0  0  0  0  0  0  0  0
    8.9564   -0.1407   23.5119 C   0  0  0  0  0  0  0  0  0  0  0  0
    8.2681    0.5686   23.9984 H   0  0  0  0  0  0  0  0  0  0  0  0
    9.8956   -0.6819   24.5966 C   0  0  0  0  0  0  0  0  0  0  0  0
   10.5179   -1.4618   24.1369 H   0  0  0  0  0  0  0  0  0  0  0  0
    9.2957   -1.1802   25.3677 H   0  0  0  0  0  0  0  0  0  0  0  0
   10.7906    0.4195   25.1965 C   0  0  0  0  0  0  0  0  0  0  0  0
   11.4731   -0.0005   25.9468 H   0  0  0  0  0  0  0  0  0  0  0  0
   10.1590    1.1398   25.7387 H   0  0  0  0  0  0  0  0  0  0  0  0
   11.5789    1.1578   24.0988 C   0  0  0  0  0  0  0  0  0  0  0  0
   12.1810    1.9680   24.5306 H   0  0  0  0  0  0  0  0  0  0  0  0
   12.2976    0.4622   23.6407 H   0  0  0  0  0  0  0  0  0  0  0  0
   10.6442    1.7070   23.0064 C   0  0  0  0  0  0  0  0  0  0  0  0
   10.0093    2.4985   23.4305 H   0  0  0  0  0  0  0  0  0  0  0  0
   11.2190    2.1847   22.2028 H   0  0  0  0  0  0  0  0  0  0  0  0
    9.7471    0.6050   22.4253 C   0  0  0  0  0  0  0  0  0  0  0  0
   10.3584   -0.1444   21.9021 H   0  0  0  0  0  0  0  0  0  0  0  0
    9.0455    0.9961   21.6812 H   0  0  0  0  0  0  0  0  0  0  0  0
    6.1200   -2.1279   22.1549 C   0  0  0  0  0  0  0  0  0  0  0  0
    6.6958   -2.9759   21.7655 H   0  0  0  0  0  0  0  0  0  0  0  0
    5.7938   -2.3646   23.1684 H   0  0  0  0  0  0  0  0  0  0  0  0
    5.2468   -1.9536   21.5237 H   0  0  0  0  0  0  0  0  0  0  0  0
    5.4732    0.6093   20.1927 C   0  0  0  0  0  0  0  0  0  0  0  0
    5.0258    0.6061   21.1872 H   0  0  0  0  0  0  0  0  0  0  0  0
    4.8348    1.2719   19.1339 C   0  0  0  0  0  0  0  0  0  0  0  0
    3.8994    1.8076   19.2851 H   0  0  0  0  0  0  0  0  0  0  0  0
  1  2  1  0
  2  3  2  0
  3  4  1  0
  4  5  1  0
  4  6  2  0
  6  7  1  0
  7  8  1  0
  8  9  1  1
  8 10  1  0
 10 11  1  0
 10 12  1  0
 12 13  1  0
 12 14  1  0
 14 15  1  0
 14 16  1  0
 14 17  1  0
 17 18  1  0
 17 19  1  0
 17 20  1  0
 20 21  1  0
 20 22  1  0
 20 23  1  0
 23 24  1  0
 23 25  1  0
 23 26  1  0
 26 27  1  0
 26 28  1  0
  8 29  1  0
 29 30  1  0
 29 31  1  0
 29 32  1  0
  6 33  1  0
 33 34  1  0
 33 35  2  0
 35 36  1  0
 35  2  1  0
 26 12  1  0
M  END
>  <cnnaffinity>  (1) 
-4.79234

>  <filename>  (1) 
C[C@@H](NC1CCCCC1)Oc1cccnc1

$$$$
