
     RDKit          3D

 21 21  0  0  0  0  0  0  0  0999 V2000
    4.9484    1.7719   17.0019 H   0  0  0  0  0  0  0  0  0  0  0  0
    5.4095    1.2794   17.8573 C   0  0  0  0  0  0  0  0  0  0  0  0
    6.5719    0.6542   17.6294 N   0  0  0  0  0  0  0  0  0  0  0  0
    7.1600    0.0324   18.6550 C   0  0  0  0  0  0  0  0  0  0  0  0
    8.1191   -0.4251   18.4238 H   0  0  0  0  0  0  0  0  0  0  0  0
    6.6100   -0.0349   19.9403 C   0  0  0  0  0  0  0  0  0  0  0  0
    7.4247   -0.7314   20.9788 C   0  0  0  0  0  0  0  0  0  0  0  0
    8.6396   -0.8123   20.9141 O   0  0  0  0  0  0  0  0  0  0  0  0
    6.7381   -1.2817   22.0103 N   0  0  0  0  0  0  0  0  0  0  0  0
    5.7328   -1.3181   22.0158 H   0  0  0  0  0  0  0  0  0  0  0  0
    7.4068   -1.9295   23.1036 C   0  0  1  0  0  0  0  0  0  0  0  0
    8.2159   -1.2811   23.4653 H   0  0  0  0  0  0  0  0  0  0  0  0
    6.4507   -2.0331   24.1004 F   0  0  0  0  0  0  0  0  0  0  0  0
    7.9195   -3.3124   22.7560 C   0  0  0  0  0  0  0  0  0  0  0  0
    8.3965   -3.7626   23.6313 H   0  0  0  0  0  0  0  0  0  0  0  0
    8.6469   -3.2324   21.9443 H   0  0  0  0  0  0  0  0  0  0  0  0
    7.0865   -3.9499   22.4410 H   0  0  0  0  0  0  0  0  0  0  0  0
    5.3992    0.6358   20.1775 C   0  0  0  0  0  0  0  0  0  0  0  0
    4.9612    0.6712   21.1808 H   0  0  0  0  0  0  0  0  0  0  0  0
    4.7974    1.3079   19.1147 C   0  0  0  0  0  0  0  0  0  0  0  0
    3.8708    1.8501   19.2487 H   0  0  0  0  0  0  0  0  0  0  0  0
  1  2  1  0
  2  3  2  0
  3  4  1  0
  4  5  1  0
  4  6  2  0
  6  7  1  0
  7  8  2  0
  7  9  1  0
  9 10  1  0
  9 11  1  0
 11 12  1  1
 11 13  1  0
 11 14  1  0
 14 15  1  0
 14 16  1  0
 14 17  1  0
  6 18  1  0
 18 19  1  0
 18 20  2  0
 20 21  1  0
 20  2  1  0
M  END
>  <cnnaffinity>  (1) 
-3.76161

>  <filename>  (1) 
C[C@H](F)NC(=O)c1cccnc1

$$$$
