
     RDKit          3D

 38 40  0  0  0  0  0  0  0  0999 V2000
    4.9251    1.7820   16.9908 H   0  0  0  0  0  0  0  0  0  0  0  0
    5.4015    1.2924   17.8349 C   0  0  0  0  0  0  0  0  0  0  0  0
    6.5660    0.6759   17.5784 N   0  0  0  0  0  0  0  0  0  0  0  0
    7.1677    0.0607   18.6002 C   0  0  0  0  0  0  0  0  0  0  0  0
    8.1189   -0.4088   18.3521 H   0  0  0  0  0  0  0  0  0  0  0  0
    6.6488    0.0114   19.9019 C   0  0  0  0  0  0  0  0  0  0  0  0
    7.3471   -0.6839   20.9917 C   0  0  0  0  0  0  0  0  0  0  0  0
    7.0735   -0.5700   22.2741 N   0  0  0  0  0  0  0  0  0  0  0  0
    7.9500   -1.4194   22.8698 C   0  0  0  0  0  0  0  0  0  0  0  0
    7.9429   -1.6320   24.3451 C   0  0  0  0  0  0  0  0  0  0  0  0
    8.9211   -2.0197   24.6301 H   0  0  0  0  0  0  0  0  0  0  0  0
    7.8074   -0.6660   24.8366 H   0  0  0  0  0  0  0  0  0  0  0  0
    6.8126   -2.5672   24.7768 C   0  0  0  0  0  0  0  0  0  0  0  0
    6.8278   -2.6736   25.8776 H   0  0  0  0  0  0  0  0  0  0  0  0
    5.8634   -2.0868   24.5195 H   0  0  0  0  0  0  0  0  0  0  0  0
    6.9066   -3.8570   24.0902 N   0  0  0  0  0  0  0  0  0  0  0  0
    7.9399   -4.7419   24.6634 C   0  0  0  0  0  0  0  0  0  0  0  0
    8.4170   -5.3275   23.8657 H   0  0  0  0  0  0  0  0  0  0  0  0
    8.7435   -4.1642   25.1310 H   0  0  0  0  0  0  0  0  0  0  0  0
    7.2369   -5.6667   25.6869 C   0  0  0  0  0  0  0  0  0  0  0  0
    7.4774   -5.3889   26.7161 H   0  0  0  0  0  0  0  0  0  0  0  0
    7.5915   -6.6893   25.5758 H   0  0  0  0  0  0  0  0  0  0  0  0
    5.7328   -5.5025   25.3900 C   0  0  0  0  0  0  0  0  0  0  0  0
    5.2378   -4.9383   26.1894 H   0  0  0  0  0  0  0  0  0  0  0  0
    5.1957   -6.4494   25.2935 H   0  0  0  0  0  0  0  0  0  0  0  0
    5.6860   -4.6945   24.0824 C   0  0  1  0  0  0  0  0  0  0  0  0
    5.8082   -5.3910   23.2403 H   0  0  0  0  0  0  0  0  0  0  0  0
    4.3718   -3.9585   23.8581 C   0  0  0  0  0  0  0  0  0  0  0  0
    4.4365   -3.2905   22.9928 H   0  0  0  0  0  0  0  0  0  0  0  0
    3.5627   -4.6756   23.6795 H   0  0  0  0  0  0  0  0  0  0  0  0
    4.0894   -3.3598   24.7329 H   0  0  0  0  0  0  0  0  0  0  0  0
    8.7614   -2.0427   22.0471 N   0  0  0  0  0  0  0  0  0  0  0  0
    8.3579   -1.5605   20.8392 N   0  0  0  0  0  0  0  0  0  0  0  0
    8.7535   -1.9111   19.9826 H   0  0  0  0  0  0  0  0  0  0  0  0
    5.4273    0.6598   20.1551 C   0  0  0  0  0  0  0  0  0  0  0  0
    5.0028    0.6399   21.1641 H   0  0  0  0  0  0  0  0  0  0  0  0
    4.8000    1.3135   19.0984 C   0  0  0  0  0  0  0  0  0  0  0  0
    3.8698    1.8466   19.2499 H   0  0  0  0  0  0  0  0  0  0  0  0
  1  2  1  0
  2  3  2  0
  3  4  1  0
  4  5  1  0
  4  6  2  0
  6  7  1  0
  7  8  2  0
  8  9  1  0
  9 10  1  0
 10 11  1  0
 10 12  1  0
 10 13  1  0
 13 14  1  0
 13 15  1  0
 13 16  1  0
 16 17  1  0
 17 18  1  0
 17 19  1  0
 17 20  1  0
 20 21  1  0
 20 22  1  0
 20 23  1  0
 23 24  1  0
 23 25  1  0
 23 26  1  0
 26 27  1  6
 26 28  1  0
 28 29  1  0
 28 30  1  0
 28 31  1  0
  9 32  2  0
 32 33  1  0
 33 34  1  0
  6 35  1  0
 35 36  1  0
 35 37  2  0
 37 38  1  0
 37  2  1  0
 33  7  1  0
 26 16  1  0
M  END
>  <cnnaffinity>  (1) 
-5.11342

>  <filename>  (1) 
C[C@@H]1CCCN1CCc1n[nH]c(-c2cccnc2)n1

$$$$
