
     RDKit          3D

 27 28  0  0  0  0  0  0  0  0999 V2000
    6.6979    1.1349   22.9580 H   0  0  0  0  0  0  0  0  0  0  0  0
    7.6467    1.5001   22.5666 C   0  0  0  0  0  0  0  0  0  0  0  0
    8.0279    2.7581   22.8426 C   0  0  0  0  0  0  0  0  0  0  0  0
    9.6117    3.4906   22.5224 S   0  0  0  0  0  0  0  0  0  0  0  0
    9.0259    5.1358   22.7636 C   0  0  0  0  0  0  0  0  0  0  0  0
    9.8747    6.5121   22.5343 S   0  0  0  0  0  0  0  0  0  0  0  0
    7.7413    5.0595   23.2019 N   0  0  0  0  0  0  0  0  0  0  0  0
    7.2445    5.8716   23.5179 H   0  0  0  0  0  0  0  0  0  0  0  0
    7.1105    3.8352   23.3377 C   0  0  0  0  0  0  0  0  0  0  0  0
    5.9999    3.7334   23.7971 O   0  0  0  0  0  0  0  0  0  0  0  0
    8.5037    0.5432   21.7708 C   0  0  2  0  0  0  0  0  0  0  0  0
    8.8863    1.0804   20.8929 H   0  0  0  0  0  0  0  0  0  0  0  0
    7.5468   -0.8876   21.1227 S   0  0  0  0  0  0  0  0  0  0  0  0
    6.6368   -0.0559   19.8435 C   0  0  0  0  0  0  0  0  0  0  0  0
    7.1427    0.0099   18.5285 C   0  0  0  0  0  0  0  0  0  0  0  0
    8.0888   -0.4787   18.2905 H   0  0  0  0  0  0  0  0  0  0  0  0
    6.5414    0.6638   17.5257 N   0  0  0  0  0  0  0  0  0  0  0  0
    5.3907    1.2998   17.8024 C   0  0  0  0  0  0  0  0  0  0  0  0
    4.9300    1.8438   16.9803 H   0  0  0  0  0  0  0  0  0  0  0  0
    4.7969    1.2941   19.0687 C   0  0  0  0  0  0  0  0  0  0  0  0
    3.8753    1.8399   19.2367 H   0  0  0  0  0  0  0  0  0  0  0  0
    5.4279    0.6075   20.1097 C   0  0  0  0  0  0  0  0  0  0  0  0
    5.0042    0.6013   21.1154 H   0  0  0  0  0  0  0  0  0  0  0  0
    9.6973    0.0334   22.5806 C   0  0  0  0  0  0  0  0  0  0  0  0
   10.3252    0.8872   22.8568 H   0  0  0  0  0  0  0  0  0  0  0  0
    9.3708   -0.4612   23.5015 H   0  0  0  0  0  0  0  0  0  0  0  0
   10.2965   -0.6647   21.9885 H   0  0  0  0  0  0  0  0  0  0  0  0
  1  2  1  0
  2  3  2  3
  3  4  1  0
  4  5  1  0
  5  6  2  0
  5  7  1  0
  7  8  1  0
  7  9  1  0
  9 10  2  0
  2 11  1  0
 11 12  1  6
 11 13  1  0
 13 14  1  0
 14 15  2  0
 15 16  1  0
 15 17  1  0
 17 18  2  0
 18 19  1  0
 18 20  1  0
 20 21  1  0
 20 22  2  0
 22 23  1  0
 11 24  1  0
 24 25  1  0
 24 26  1  0
 24 27  1  0
  9  3  1  0
 22 14  1  0
M  END
>  <cnnaffinity>  (1) 
-4.83607

>  <filename>  (1) 
C[C@H](C=C1SC(=S)NC1=O)Sc1cccnc1

$$$$
