
     RDKit          3D

 35 37  0  0  0  0  0  0  0  0999 V2000
    5.0115    1.8482   16.9039 H   0  0  0  0  0  0  0  0  0  0  0  0
    5.4365    1.3362   17.7673 C   0  0  0  0  0  0  0  0  0  0  0  0
    6.5983    0.6971   17.5594 N   0  0  0  0  0  0  0  0  0  0  0  0
    7.1258    0.0293   18.5931 C   0  0  0  0  0  0  0  0  0  0  0  0
    8.0740   -0.4773   18.4000 H   0  0  0  0  0  0  0  0  0  0  0  0
    6.5479   -0.0343   19.8831 C   0  0  0  0  0  0  0  0  0  0  0  0
    7.1913   -0.7373   21.0204 C   0  0  0  0  0  0  0  0  0  0  0  0
    7.8495   -0.1654   22.0550 C   0  0  0  0  0  0  0  0  0  0  0  0
    7.8861    1.2715   22.5366 C   0  0  1  0  0  0  0  0  0  0  0  0
    7.2421    1.8640   21.8715 H   0  0  0  0  0  0  0  0  0  0  0  0
    7.2977    1.3996   23.9537 C   0  0  0  0  0  0  0  0  0  0  0  0
    8.0265    1.0941   25.1173 C   0  0  0  0  0  0  0  0  0  0  0  0
    9.0596    0.7519   25.0527 H   0  0  0  0  0  0  0  0  0  0  0  0
    7.4343    1.1949   26.3829 C   0  0  0  0  0  0  0  0  0  0  0  0
    8.0091    0.9444   27.2718 H   0  0  0  0  0  0  0  0  0  0  0  0
    6.1028    1.6062   26.5048 C   0  0  0  0  0  0  0  0  0  0  0  0
    5.6429    1.6923   27.4856 H   0  0  0  0  0  0  0  0  0  0  0  0
    5.3672    1.9168   25.3566 C   0  0  0  0  0  0  0  0  0  0  0  0
    4.3347    2.2459   25.4361 H   0  0  0  0  0  0  0  0  0  0  0  0
    5.9641    1.8104   24.0982 C   0  0  0  0  0  0  0  0  0  0  0  0
    5.3871    2.0507   23.2066 H   0  0  0  0  0  0  0  0  0  0  0  0
    9.2781    1.9139   22.4426 C   0  0  0  0  0  0  0  0  0  0  0  0
    9.6282    1.9253   21.4079 H   0  0  0  0  0  0  0  0  0  0  0  0
   10.0286    1.4064   23.0518 H   0  0  0  0  0  0  0  0  0  0  0  0
    9.2242    2.9492   22.7869 H   0  0  0  0  0  0  0  0  0  0  0  0
    8.5140   -1.2572   22.8401 C   0  0  0  0  0  0  0  0  0  0  0  0
    8.2125   -1.2521   23.8966 H   0  0  0  0  0  0  0  0  0  0  0  0
    9.6112   -1.1902   22.8103 H   0  0  0  0  0  0  0  0  0  0  0  0
    8.1002   -2.4722   22.2392 O   0  0  0  0  0  0  0  0  0  0  0  0
    7.2320   -2.2219   21.2140 C   0  0  0  0  0  0  0  0  0  0  0  0
    6.6308   -3.1004   20.6574 O   0  0  0  0  0  0  0  0  0  0  0  0
    5.3383    0.6498   20.0669 C   0  0  0  0  0  0  0  0  0  0  0  0
    4.8495    0.6297   21.0426 H   0  0  0  0  0  0  0  0  0  0  0  0
    4.7714    1.3415   18.9955 C   0  0  0  0  0  0  0  0  0  0  0  0
    3.8293    1.8692   19.0903 H   0  0  0  0  0  0  0  0  0  0  0  0
  1  2  1  0
  2  3  2  0
  3  4  1  0
  4  5  1  0
  4  6  2  0
  6  7  1  0
  7  8  2  0
  8  9  1  0
  9 10  1  6
  9 11  1  0
 11 12  2  0
 12 13  1  0
 12 14  1  0
 14 15  1  0
 14 16  2  0
 16 17  1  0
 16 18  1  0
 18 19  1  0
 18 20  2  0
 20 21  1  0
  9 22  1  0
 22 23  1  0
 22 24  1  0
 22 25  1  0
  8 26  1  0
 26 27  1  0
 26 28  1  0
 26 29  1  0
 29 30  1  0
 30 31  2  0
  6 32  1  0
 32 33  1  0
 32 34  2  0
 34 35  1  0
 34  2  1  0
 30  7  1  0
 20 11  1  0
M  END
>  <cnnaffinity>  (1) 
-4.89687

>  <filename>  (1) 
C[C@@H](C1=C(c2cccnc2)C(=O)OC1)c1ccccc1

$$$$
