
     RDKit          3D

 27 28  0  0  0  0  0  0  0  0999 V2000
    4.9885    1.7476   17.0306 H   0  0  0  0  0  0  0  0  0  0  0  0
    5.4556    1.2408   17.8752 C   0  0  0  0  0  0  0  0  0  0  0  0
    6.6203    0.6120   17.6290 N   0  0  0  0  0  0  0  0  0  0  0  0
    7.2439    0.0216   18.6555 C   0  0  0  0  0  0  0  0  0  0  0  0
    8.1912   -0.4751   18.4465 H   0  0  0  0  0  0  0  0  0  0  0  0
    6.7480    0.0121   19.9793 C   0  0  0  0  0  0  0  0  0  0  0  0
    7.5380   -0.5428   20.9467 O   0  0  0  0  0  0  0  0  0  0  0  0
    6.9682   -0.9427   22.1898 C   0  0  2  0  0  0  0  0  0  0  0  0
    6.3544   -0.1158   22.6035 H   0  0  0  0  0  0  0  0  0  0  0  0
    8.1317   -1.1881   22.9852 N   0  0  0  0  0  0  0  0  0  0  0  0
    8.9047   -0.6655   22.6015 H   0  0  0  0  0  0  0  0  0  0  0  0
    7.9766   -1.1748   24.3977 C   0  0  0  0  0  0  0  0  0  0  0  0
    7.4894   -0.3096   24.8790 H   0  0  0  0  0  0  0  0  0  0  0  0
    7.7108   -2.5115   25.0341 C   0  0  0  0  0  0  0  0  0  0  0  0
    7.6555   -3.3602   24.3525 H   0  0  0  0  0  0  0  0  0  0  0  0
    7.0519   -2.5467   25.8974 H   0  0  0  0  0  0  0  0  0  0  0  0
    9.0498   -1.8420   25.1893 C   0  0  0  0  0  0  0  0  0  0  0  0
    9.8887   -2.2653   24.6417 H   0  0  0  0  0  0  0  0  0  0  0  0
    9.2957   -1.4191   26.1591 H   0  0  0  0  0  0  0  0  0  0  0  0
    6.1315   -2.2032   22.0825 C   0  0  0  0  0  0  0  0  0  0  0  0
    5.2300   -2.0613   21.4812 H   0  0  0  0  0  0  0  0  0  0  0  0
    6.7453   -2.9895   21.6384 H   0  0  0  0  0  0  0  0  0  0  0  0
    5.8394   -2.5211   23.0846 H   0  0  0  0  0  0  0  0  0  0  0  0
    5.5027    0.6124   20.2085 C   0  0  0  0  0  0  0  0  0  0  0  0
    5.0418    0.5922   21.1910 H   0  0  0  0  0  0  0  0  0  0  0  0
    4.8667    1.2514   19.1365 C   0  0  0  0  0  0  0  0  0  0  0  0
    3.9262    1.7680   19.2827 H   0  0  0  0  0  0  0  0  0  0  0  0
  1  2  1  0
  2  3  2  0
  3  4  1  0
  4  5  1  0
  4  6  2  0
  6  7  1  0
  7  8  1  0
  8  9  1  1
  8 10  1  0
 10 11  1  0
 10 12  1  0
 12 13  1  0
 12 14  1  0
 14 15  1  0
 14 16  1  0
 14 17  1  0
 17 18  1  0
 17 19  1  0
  8 20  1  0
 20 21  1  0
 20 22  1  0
 20 23  1  0
  6 24  1  0
 24 25  1  0
 24 26  2  0
 26 27  1  0
 26  2  1  0
 17 12  1  0
M  END
>  <cnnaffinity>  (1) 
-3.95744

>  <filename>  (1) 
C[C@@H](NC1CC1)Oc1cccnc1

$$$$
