
     RDKit          3D

 41 44  0  0  0  0  0  0  0  0999 V2000
    4.9420    1.8193   16.9804 H   0  0  0  0  0  0  0  0  0  0  0  0
    5.4008    1.3007   17.8204 C   0  0  0  0  0  0  0  0  0  0  0  0
    6.5589    0.6700   17.5651 N   0  0  0  0  0  0  0  0  0  0  0  0
    7.1495    0.0208   18.5743 C   0  0  0  0  0  0  0  0  0  0  0  0
    8.1025   -0.4541   18.3406 H   0  0  0  0  0  0  0  0  0  0  0  0
    6.6250   -0.0282   19.8758 C   0  0  0  0  0  0  0  0  0  0  0  0
    7.3566   -0.7049   20.9473 C   0  0  0  0  0  0  0  0  0  0  0  0
    7.8397   -1.9319   20.7929 N   0  0  0  0  0  0  0  0  0  0  0  0
    8.4076   -2.1917   21.9804 N   0  0  0  0  0  0  0  0  0  0  0  0
    8.4080   -1.1690   22.8420 C   0  0  0  0  0  0  0  0  0  0  0  0
    7.6983   -0.1617   22.2210 C   0  0  0  0  0  0  0  0  0  0  0  0
    7.6315    1.2652   22.6927 C   0  0  1  0  0  0  0  0  0  0  0  0
    6.7662    1.7305   22.1971 H   0  0  0  0  0  0  0  0  0  0  0  0
    7.3572    1.2889   24.1987 C   0  0  0  0  0  0  0  0  0  0  0  0
    6.0538    1.0228   24.6542 C   0  0  0  0  0  0  0  0  0  0  0  0
    5.2707    0.8220   23.9243 H   0  0  0  0  0  0  0  0  0  0  0  0
    5.7441    1.0078   26.0184 C   0  0  0  0  0  0  0  0  0  0  0  0
    4.7219    0.8207   26.3395 H   0  0  0  0  0  0  0  0  0  0  0  0
    6.7527    1.2358   26.9602 C   0  0  0  0  0  0  0  0  0  0  0  0
    6.5310    1.2325   28.0242 H   0  0  0  0  0  0  0  0  0  0  0  0
    8.0581    1.4715   26.5225 C   0  0  0  0  0  0  0  0  0  0  0  0
    8.8405    1.6539   27.2443 H   0  0  0  0  0  0  0  0  0  0  0  0
    8.3599    1.4899   25.1577 C   0  0  0  0  0  0  0  0  0  0  0  0
    9.3883    1.6658   24.8480 H   0  0  0  0  0  0  0  0  0  0  0  0
    8.8906    2.0318   22.2524 C   0  0  0  0  0  0  0  0  0  0  0  0
    9.8065    1.5218   22.5797 H   0  0  0  0  0  0  0  0  0  0  0  0
    8.8943    3.0467   22.6576 H   0  0  0  0  0  0  0  0  0  0  0  0
    8.9302    2.0856   21.1590 H   0  0  0  0  0  0  0  0  0  0  0  0
    9.4048   -1.3992   23.9527 C   0  0  0  0  0  0  0  0  0  0  0  0
   10.1598   -0.6010   23.9528 H   0  0  0  0  0  0  0  0  0  0  0  0
    8.9086   -1.3591   24.9279 H   0  0  0  0  0  0  0  0  0  0  0  0
   10.0112   -2.7903   23.5976 C   0  0  0  0  0  0  0  0  0  0  0  0
   11.0988   -2.7723   23.5230 H   0  0  0  0  0  0  0  0  0  0  0  0
    9.7546   -3.5446   24.3448 H   0  0  0  0  0  0  0  0  0  0  0  0
    9.4404   -3.1617   22.2032 C   0  0  0  0  0  0  0  0  0  0  0  0
   10.1810   -3.0059   21.4107 H   0  0  0  0  0  0  0  0  0  0  0  0
    9.0132   -4.1635   22.1392 H   0  0  0  0  0  0  0  0  0  0  0  0
    5.4158    0.6336   20.1229 C   0  0  0  0  0  0  0  0  0  0  0  0
    4.9875    0.6376   21.1266 H   0  0  0  0  0  0  0  0  0  0  0  0
    4.7885    1.3067   19.0778 C   0  0  0  0  0  0  0  0  0  0  0  0
    3.8637    1.8495   19.2357 H   0  0  0  0  0  0  0  0  0  0  0  0
  1  2  1  0
  2  3  2  0
  3  4  1  0
  4  5  1  0
  4  6  2  0
  6  7  1  0
  7  8  2  0
  8  9  1  0
  9 10  1  0
 10 11  2  0
 11 12  1  0
 12 13  1  6
 12 14  1  0
 14 15  2  0
 15 16  1  0
 15 17  1  0
 17 18  1  0
 17 19  2  0
 19 20  1  0
 19 21  1  0
 21 22  1  0
 21 23  2  0
 23 24  1  0
 12 25  1  0
 25 26  1  0
 25 27  1  0
 25 28  1  0
 10 29  1  0
 29 30  1  0
 29 31  1  0
 29 32  1  0
 32 33  1  0
 32 34  1  0
 32 35  1  0
 35 36  1  0
 35 37  1  0
  6 38  1  0
 38 39  1  0
 38 40  2  0
 40 41  1  0
 40  2  1  0
 11  7  1  0
 23 14  1  0
 35  9  1  0
M  END
>  <cnnaffinity>  (1) 
-5.8911

>  <filename>  (1) 
C[C@H](c1ccccc1)c1c(-c2cccnc2)nn2c1CCC2

$$$$
