
     RDKit          3D

 41 43  0  0  0  0  0  0  0  0999 V2000
    5.2578    2.0155   16.7156 H   0  0  0  0  0  0  0  0  0  0  0  0
    5.5712    1.3941   17.5543 C   0  0  0  0  0  0  0  0  0  0  0  0
    6.6761    0.6575   17.3589 N   0  0  0  0  0  0  0  0  0  0  0  0
    7.0915   -0.1017   18.3819 C   0  0  0  0  0  0  0  0  0  0  0  0
    7.9927   -0.6891   18.2022 H   0  0  0  0  0  0  0  0  0  0  0  0
    6.4378   -0.2003   19.6312 C   0  0  0  0  0  0  0  0  0  0  0  0
    7.0048   -1.0421   20.7348 C   0  0  0  0  0  0  0  0  0  0  0  0
    6.2421   -1.9491   21.4959 C   0  0  0  0  0  0  0  0  0  0  0  0
    5.1835   -2.0834   21.2922 H   0  0  0  0  0  0  0  0  0  0  0  0
    6.7461   -2.7188   22.4676 N   0  0  0  0  0  0  0  0  0  0  0  0
    8.0431   -2.5761   22.7759 C   0  0  0  0  0  0  0  0  0  0  0  0
    8.3937   -3.1972   23.5955 H   0  0  0  0  0  0  0  0  0  0  0  0
    8.9108   -1.6854   22.1219 C   0  0  0  0  0  0  0  0  0  0  0  0
   10.3492   -1.4421   22.5431 C   0  0  0  0  0  0  0  0  0  0  0  0
   10.9144   -1.1907   21.6345 H   0  0  0  0  0  0  0  0  0  0  0  0
   10.8036   -2.3489   22.9581 H   0  0  0  0  0  0  0  0  0  0  0  0
   10.4787   -0.2916   23.5605 C   0  0  0  0  0  0  0  0  0  0  0  0
    9.8191    0.5398   23.2430 H   0  0  0  0  0  0  0  0  0  0  0  0
   10.0988   -0.6352   24.5340 H   0  0  0  0  0  0  0  0  0  0  0  0
   11.8507    0.1881   23.7752 N   0  0  0  0  0  0  0  0  0  0  0  0
   11.8863    1.3731   24.6472 C   0  0  0  0  0  0  0  0  0  0  0  0
   12.7887    1.3299   25.2706 H   0  0  0  0  0  0  0  0  0  0  0  0
   11.0221    1.3953   25.3231 H   0  0  0  0  0  0  0  0  0  0  0  0
   11.9916    2.5528   23.6819 C   0  0  0  0  0  0  0  0  0  0  0  0
   12.2297    3.5149   24.1418 H   0  0  0  0  0  0  0  0  0  0  0  0
   11.0370    2.6596   23.1509 H   0  0  0  0  0  0  0  0  0  0  0  0
   13.0433    2.0165   22.7108 C   0  0  0  0  0  0  0  0  0  0  0  0
   14.0540    2.1150   23.1254 H   0  0  0  0  0  0  0  0  0  0  0  0
   13.0221    2.5290   21.7484 H   0  0  0  0  0  0  0  0  0  0  0  0
   12.6056    0.5426   22.5488 C   0  0  1  0  0  0  0  0  0  0  0  0
   11.9324    0.5509   21.6727 H   0  0  0  0  0  0  0  0  0  0  0  0
   13.7090   -0.4791   22.2939 C   0  0  0  0  0  0  0  0  0  0  0  0
   13.2658   -1.4383   21.9993 H   0  0  0  0  0  0  0  0  0  0  0  0
   14.3579   -0.1433   21.4814 H   0  0  0  0  0  0  0  0  0  0  0  0
   14.3249   -0.6453   23.1866 H   0  0  0  0  0  0  0  0  0  0  0  0
    8.3593   -0.9463   21.0714 C   0  0  0  0  0  0  0  0  0  0  0  0
    8.9883   -0.2575   20.5141 H   0  0  0  0  0  0  0  0  0  0  0  0
    5.2730    0.5657   19.8000 C   0  0  0  0  0  0  0  0  0  0  0  0
    4.7335    0.5466   20.7491 H   0  0  0  0  0  0  0  0  0  0  0  0
    4.8462    1.3866   18.7502 C   0  0  0  0  0  0  0  0  0  0  0  0
    3.9773    2.0265   18.8474 H   0  0  0  0  0  0  0  0  0  0  0  0
  1  2  1  0
  2  3  2  0
  3  4  1  0
  4  5  1  0
  4  6  2  0
  6  7  1  0
  7  8  2  0
  8  9  1  0
  8 10  1  0
 10 11  2  0
 11 12  1  0
 11 13  1  0
 13 14  1  0
 14 15  1  0
 14 16  1  0
 14 17  1  0
 17 18  1  0
 17 19  1  0
 17 20  1  0
 20 21  1  0
 21 22  1  0
 21 23  1  0
 21 24  1  0
 24 25  1  0
 24 26  1  0
 24 27  1  0
 27 28  1  0
 27 29  1  0
 27 30  1  0
 30 31  1  6
 30 32  1  0
 32 33  1  0
 32 34  1  0
 32 35  1  0
 13 36  2  0
 36 37  1  0
  6 38  1  0
 38 39  1  0
 38 40  2  0
 40 41  1  0
 40  2  1  0
 36  7  1  0
 30 20  1  0
M  END
>  <cnnaffinity>  (1) 
-4.64609

>  <filename>  (1) 
C[C@@H]1CCCN1CCc1cncc(-c2cccnc2)c1

$$$$
