
     RDKit          3D

 43 45  0  0  0  0  0  0  0  0999 V2000
    5.1819    1.9735   16.9585 H   0  0  0  0  0  0  0  0  0  0  0  0
    5.6037    1.3704   17.7604 C   0  0  0  0  0  0  0  0  0  0  0  0
    6.7985    0.8045   17.5162 N   0  0  0  0  0  0  0  0  0  0  0  0
    7.3500    0.0730   18.4894 C   0  0  0  0  0  0  0  0  0  0  0  0
    8.3342   -0.3470   18.3041 H   0  0  0  0  0  0  0  0  0  0  0  0
    6.7131   -0.1817   19.7213 C   0  0  0  0  0  0  0  0  0  0  0  0
    7.3644   -0.9810   20.7051 N   0  0  0  0  0  0  0  0  0  0  0  0
    8.7450   -0.7877   20.7397 N   0  0  0  0  0  0  0  0  0  0  0  0
    9.4573   -1.4711   21.5683 C   0  0  0  0  0  0  0  0  0  0  0  0
   10.9121   -1.0796   21.6543 C   0  0  0  0  0  0  0  0  0  0  0  0
   11.3889   -1.5478   22.5208 H   0  0  0  0  0  0  0  0  0  0  0  0
   11.4474   -1.4654   20.7849 H   0  0  0  0  0  0  0  0  0  0  0  0
   11.1134    0.4358   21.7209 C   0  0  0  0  0  0  0  0  0  0  0  0
   12.1973    0.6776   21.7144 H   0  0  0  0  0  0  0  0  0  0  0  0
   10.6744    0.9056   20.8347 H   0  0  0  0  0  0  0  0  0  0  0  0
   10.4319    1.0031   22.8686 N   0  0  0  0  0  0  0  0  0  0  0  0
   10.1808    2.4488   22.7957 C   0  0  0  0  0  0  0  0  0  0  0  0
    9.2288    2.6644   22.2820 H   0  0  0  0  0  0  0  0  0  0  0  0
   10.9715    2.9824   22.2313 H   0  0  0  0  0  0  0  0  0  0  0  0
   10.1642    2.9231   24.2551 C   0  0  0  0  0  0  0  0  0  0  0  0
    9.1542    2.8299   24.6764 H   0  0  0  0  0  0  0  0  0  0  0  0
   10.4586    3.9746   24.3549 H   0  0  0  0  0  0  0  0  0  0  0  0
   11.1311    1.9541   24.9430 C   0  0  0  0  0  0  0  0  0  0  0  0
   12.1689    2.2811   24.8243 H   0  0  0  0  0  0  0  0  0  0  0  0
   10.9409    1.8262   26.0140 H   0  0  0  0  0  0  0  0  0  0  0  0
   10.9125    0.6276   24.2054 C   0  0  1  0  0  0  0  0  0  0  0  0
   11.8645    0.0718   24.1528 H   0  0  0  0  0  0  0  0  0  0  0  0
    9.8596   -0.2212   24.9095 C   0  0  0  0  0  0  0  0  0  0  0  0
    9.7038   -1.1525   24.3668 H   0  0  0  0  0  0  0  0  0  0  0  0
   10.1467   -0.4427   25.9455 H   0  0  0  0  0  0  0  0  0  0  0  0
    8.9058    0.3220   24.9145 H   0  0  0  0  0  0  0  0  0  0  0  0
    8.8644   -2.6421   22.3419 C   0  0  0  0  0  0  0  0  0  0  0  0
    9.4825   -2.9119   23.2079 H   0  0  0  0  0  0  0  0  0  0  0  0
    8.8369   -3.5273   21.6877 H   0  0  0  0  0  0  0  0  0  0  0  0
    7.4302   -2.2987   22.7727 C   0  0  0  0  0  0  0  0  0  0  0  0
    7.4162   -1.5068   23.5376 H   0  0  0  0  0  0  0  0  0  0  0  0
    6.8915   -3.1489   23.1903 H   0  0  0  0  0  0  0  0  0  0  0  0
    6.6239   -1.8112   21.5795 C   0  0  0  0  0  0  0  0  0  0  0  0
    5.4626   -2.1089   21.3847 O   0  0  0  0  0  0  0  0  0  0  0  0
    5.4636    0.3970   19.9622 C   0  0  0  0  0  0  0  0  0  0  0  0
    4.9498    0.2129   20.9018 H   0  0  0  0  0  0  0  0  0  0  0  0
    4.9113    1.2059   18.9637 C   0  0  0  0  0  0  0  0  0  0  0  0
    3.9615    1.7092   19.1153 H   0  0  0  0  0  0  0  0  0  0  0  0
  1  2  1  0
  2  3  2  0
  3  4  1  0
  4  5  1  0
  4  6  2  0
  6  7  1  0
  7  8  1  0
  8  9  2  0
  9 10  1  0
 10 11  1  0
 10 12  1  0
 10 13  1  0
 13 14  1  0
 13 15  1  0
 13 16  1  0
 16 17  1  0
 17 18  1  0
 17 19  1  0
 17 20  1  0
 20 21  1  0
 20 22  1  0
 20 23  1  0
 23 24  1  0
 23 25  1  0
 23 26  1  0
 26 27  1  6
 26 28  1  0
 28 29  1  0
 28 30  1  0
 28 31  1  0
  9 32  1  0
 32 33  1  0
 32 34  1  0
 32 35  1  0
 35 36  1  0
 35 37  1  0
 35 38  1  0
 38 39  2  0
  6 40  1  0
 40 41  1  0
 40 42  2  0
 42 43  1  0
 42  2  1  0
 38  7  1  0
 26 16  1  0
M  END
>  <cnnaffinity>  (1) 
-5.38777

>  <filename>  (1) 
C[C@@H]1CCCN1CCC1=NN(c2cccnc2)C(=O)CC1

$$$$
