
     RDKit          3D

 32 34  0  0  0  0  0  0  0  0999 V2000
    4.9186    1.7812   16.9966 H   0  0  0  0  0  0  0  0  0  0  0  0
    5.4008    1.2909   17.8432 C   0  0  0  0  0  0  0  0  0  0  0  0
    6.5677    0.6717   17.5920 N   0  0  0  0  0  0  0  0  0  0  0  0
    7.1778    0.0552   18.6089 C   0  0  0  0  0  0  0  0  0  0  0  0
    8.1206   -0.4359   18.3916 H   0  0  0  0  0  0  0  0  0  0  0  0
    6.6700   -0.0094   19.9288 C   0  0  0  0  0  0  0  0  0  0  0  0
    7.4229   -0.7269   20.8218 O   0  0  0  0  0  0  0  0  0  0  0  0
    7.0496   -0.7763   22.2130 C   0  0  2  0  0  0  0  0  0  0  0  0
    6.0115   -1.1120   22.3045 H   0  0  0  0  0  0  0  0  0  0  0  0
    7.1373    0.5591   22.8864 C   0  0  0  0  0  0  0  0  0  0  0  0
    6.3167    1.0770   23.8479 C   0  0  0  0  0  0  0  0  0  0  0  0
    5.4281    0.6208   24.2632 H   0  0  0  0  0  0  0  0  0  0  0  0
    6.8571    2.3408   24.2311 C   0  0  0  0  0  0  0  0  0  0  0  0
    6.4486    3.3286   25.1431 C   0  0  0  0  0  0  0  0  0  0  0  0
    5.5423    3.1643   25.7216 H   0  0  0  0  0  0  0  0  0  0  0  0
    7.2169    4.4783   25.2695 C   0  0  0  0  0  0  0  0  0  0  0  0
    6.9118    5.2530   25.9698 H   0  0  0  0  0  0  0  0  0  0  0  0
    8.3983    4.6534   24.4889 C   0  0  0  0  0  0  0  0  0  0  0  0
    8.9803    5.5665   24.6064 H   0  0  0  0  0  0  0  0  0  0  0  0
    8.8229    3.6898   23.5803 C   0  0  0  0  0  0  0  0  0  0  0  0
    9.7214    3.8097   22.9716 H   0  0  0  0  0  0  0  0  0  0  0  0
    8.0344    2.5329   23.4672 C   0  0  0  0  0  0  0  0  0  0  0  0
    8.1849    1.4265   22.6722 N   0  0  0  0  0  0  0  0  0  0  0  0
    8.9319    1.2929   22.0167 H   0  0  0  0  0  0  0  0  0  0  0  0
    7.9568   -1.7897   22.8943 C   0  0  0  0  0  0  0  0  0  0  0  0
    7.8465   -2.7713   22.4336 H   0  0  0  0  0  0  0  0  0  0  0  0
    8.9992   -1.4691   22.8207 H   0  0  0  0  0  0  0  0  0  0  0  0
    7.7010   -1.8653   23.9564 H   0  0  0  0  0  0  0  0  0  0  0  0
    5.4506    0.6410   20.1816 C   0  0  0  0  0  0  0  0  0  0  0  0
    5.0040    0.6348   21.1784 H   0  0  0  0  0  0  0  0  0  0  0  0
    4.8178    1.3014   19.1126 C   0  0  0  0  0  0  0  0  0  0  0  0
    3.8841    1.8347   19.2604 H   0  0  0  0  0  0  0  0  0  0  0  0
  1  2  1  0
  2  3  2  0
  3  4  1  0
  4  5  1  0
  4  6  2  0
  6  7  1  0
  7  8  1  0
  8  9  1  6
  8 10  1  0
 10 11  2  0
 11 12  1  0
 11 13  1  0
 13 14  2  0
 14 15  1  0
 14 16  1  0
 16 17  1  0
 16 18  2  0
 18 19  1  0
 18 20  1  0
 20 21  1  0
 20 22  2  0
 22 23  1  0
 23 24  1  0
  8 25  1  0
 25 26  1  0
 25 27  1  0
 25 28  1  0
  6 29  1  0
 29 30  1  0
 29 31  2  0
 31 32  1  0
 31  2  1  0
 23 10  1  0
 22 13  1  0
M  END
>  <cnnaffinity>  (1) 
-4.64646

>  <filename>  (1) 
C[C@H](Oc1cccnc1)c1cc2ccccc2[nH]1

$$$$
