
     RDKit          3D

 34 35  0  0  0  0  0  0  0  0999 V2000
    5.0308    1.7898   17.0538 H   0  0  0  0  0  0  0  0  0  0  0  0
    5.4866    1.3172   17.9217 C   0  0  0  0  0  0  0  0  0  0  0  0
    6.6485    0.6807   17.7098 N   0  0  0  0  0  0  0  0  0  0  0  0
    7.2167    0.0791   18.7576 C   0  0  0  0  0  0  0  0  0  0  0  0
    8.1524   -0.4452   18.5724 H   0  0  0  0  0  0  0  0  0  0  0  0
    6.6802    0.0892   20.0511 C   0  0  0  0  0  0  0  0  0  0  0  0
    7.4345   -0.7336   21.0411 C   0  0  0  0  0  0  0  0  0  0  0  0
    8.1340   -1.6672   20.6781 O   0  0  0  0  0  0  0  0  0  0  0  0
    7.3224   -0.4051   22.3509 N   0  0  0  0  0  0  0  0  0  0  0  0
    6.8591    0.4342   22.6225 H   0  0  0  0  0  0  0  0  0  0  0  0
    7.8232   -1.2747   23.3855 C   0  0  1  0  0  0  0  0  0  0  0  0
    8.8127   -1.6619   23.1086 H   0  0  0  0  0  0  0  0  0  0  0  0
    7.9416   -0.4078   24.5355 N   0  0  0  0  0  0  0  0  0  0  0  0
    7.2449    0.3026   24.6164 H   0  0  0  0  0  0  0  0  0  0  0  0
    8.5072   -0.8732   25.6934 C   0  0  0  0  0  0  0  0  0  0  0  0
    9.2863   -1.8112   25.6875 O   0  0  0  0  0  0  0  0  0  0  0  0
    8.1268   -0.1416   26.9956 C   0  0  0  0  0  0  0  0  0  0  0  0
    8.9521   -0.2434   28.1339 C   0  0  0  0  0  0  0  0  0  0  0  0
    9.8599   -0.8428   28.1146 H   0  0  0  0  0  0  0  0  0  0  0  0
    8.5961    0.4308   29.3124 C   0  0  0  0  0  0  0  0  0  0  0  0
    9.2064    0.3202   30.2062 H   0  0  0  0  0  0  0  0  0  0  0  0
    7.4722    1.1494   29.4522 N   0  0  0  0  0  0  0  0  0  0  0  0
    6.6652    1.2137   28.3869 C   0  0  0  0  0  0  0  0  0  0  0  0
    5.7389    1.7764   28.5039 H   0  0  0  0  0  0  0  0  0  0  0  0
    6.9395    0.6056   27.1594 C   0  0  0  0  0  0  0  0  0  0  0  0
    6.1776    0.6742   26.3871 H   0  0  0  0  0  0  0  0  0  0  0  0
    6.8887   -2.4551   23.6214 C   0  0  0  0  0  0  0  0  0  0  0  0
    5.9118   -2.0965   23.9586 H   0  0  0  0  0  0  0  0  0  0  0  0
    6.7522   -3.0111   22.6921 H   0  0  0  0  0  0  0  0  0  0  0  0
    7.3015   -3.1206   24.3815 H   0  0  0  0  0  0  0  0  0  0  0  0
    5.4666    0.7602   20.2635 C   0  0  0  0  0  0  0  0  0  0  0  0
    4.9853    0.7785   21.2441 H   0  0  0  0  0  0  0  0  0  0  0  0
    4.8601    1.3806   19.1725 C   0  0  0  0  0  0  0  0  0  0  0  0
    3.9269    1.9233   19.2827 H   0  0  0  0  0  0  0  0  0  0  0  0
  1  2  1  0
  2  3  2  0
  3  4  1  0
  4  5  1  0
  4  6  2  0
  6  7  1  0
  7  8  2  0
  7  9  1  0
  9 10  1  0
  9 11  1  0
 11 12  1  6
 11 13  1  0
 13 14  1  0
 13 15  1  0
 15 16  2  0
 15 17  1  0
 17 18  2  0
 18 19  1  0
 18 20  1  0
 20 21  1  0
 20 22  2  0
 22 23  1  0
 23 24  1  0
 23 25  2  0
 25 26  1  0
 11 27  1  0
 27 28  1  0
 27 29  1  0
 27 30  1  0
  6 31  1  0
 31 32  1  0
 31 33  2  0
 33 34  1  0
 33  2  1  0
 25 17  1  0
M  END
>  <cnnaffinity>  (1) 
-4.3918

>  <filename>  (1) 
C[C@H](NC(=O)c1ccncc1)NC(=O)c1cccnc1

$$$$
