
     RDKit          3D

 21 21  0  0  0  0  0  0  0  0999 V2000
    4.9462    1.7725   17.0016 H   0  0  0  0  0  0  0  0  0  0  0  0
    5.4086    1.2805   17.8565 C   0  0  0  0  0  0  0  0  0  0  0  0
    6.5712    0.6558   17.6251 N   0  0  0  0  0  0  0  0  0  0  0  0
    7.1610    0.0349   18.6503 C   0  0  0  0  0  0  0  0  0  0  0  0
    8.1191   -0.4257   18.4206 H   0  0  0  0  0  0  0  0  0  0  0  0
    6.6137   -0.0334   19.9372 C   0  0  0  0  0  0  0  0  0  0  0  0
    7.4281   -0.7332   20.9776 C   0  0  0  0  0  0  0  0  0  0  0  0
    8.6374   -0.8522   20.8907 O   0  0  0  0  0  0  0  0  0  0  0  0
    6.7332   -1.2292   22.0390 N   0  0  0  0  0  0  0  0  0  0  0  0
    5.7335   -1.3254   21.9768 H   0  0  0  0  0  0  0  0  0  0  0  0
    7.3877   -1.9002   23.1353 C   0  0  1  0  0  0  0  0  0  0  0  0
    8.3169   -1.3649   23.3410 H   0  0  0  0  0  0  0  0  0  0  0  0
    6.3785   -1.7102   24.6001 Cl  0  0  0  0  0  0  0  0  0  0  0  0
    7.6404   -3.3739   22.8665 C   0  0  0  0  0  0  0  0  0  0  0  0
    8.1549   -3.8223   23.7201 H   0  0  0  0  0  0  0  0  0  0  0  0
    6.6962   -3.9071   22.7099 H   0  0  0  0  0  0  0  0  0  0  0  0
    8.2677   -3.4650   21.9741 H   0  0  0  0  0  0  0  0  0  0  0  0
    5.4028    0.6371   20.1770 C   0  0  0  0  0  0  0  0  0  0  0  0
    4.9668    0.6674   21.1817 H   0  0  0  0  0  0  0  0  0  0  0  0
    4.7982    1.3085   19.1149 C   0  0  0  0  0  0  0  0  0  0  0  0
    3.8707    1.8497   19.2494 H   0  0  0  0  0  0  0  0  0  0  0  0
  1  2  1  0
  2  3  2  0
  3  4  1  0
  4  5  1  0
  4  6  2  0
  6  7  1  0
  7  8  2  0
  7  9  1  0
  9 10  1  0
  9 11  1  0
 11 12  1  1
 11 13  1  0
 11 14  1  0
 14 15  1  0
 14 16  1  0
 14 17  1  0
  6 18  1  0
 18 19  1  0
 18 20  2  0
 20 21  1  0
 20  2  1  0
M  END
>  <cnnaffinity>  (1) 
-3.81193

>  <filename>  (1) 
C[C@H](Cl)NC(=O)c1cccnc1

$$$$
