
     RDKit          3D

 40 42  0  0  0  0  0  0  0  0999 V2000
    4.9312    1.7957   16.9950 H   0  0  0  0  0  0  0  0  0  0  0  0
    5.3966    1.2902   17.8351 C   0  0  0  0  0  0  0  0  0  0  0  0
    6.5520    0.6610   17.5688 N   0  0  0  0  0  0  0  0  0  0  0  0
    7.1732    0.0459   18.5815 C   0  0  0  0  0  0  0  0  0  0  0  0
    8.1266   -0.4317   18.3579 H   0  0  0  0  0  0  0  0  0  0  0  0
    6.6524    0.0047   19.8920 C   0  0  0  0  0  0  0  0  0  0  0  0
    7.3264   -0.6715   20.9475 N   0  0  0  0  0  0  0  0  0  0  0  0
    6.7235   -1.6006   21.7913 C   0  0  0  0  0  0  0  0  0  0  0  0
    5.6726   -1.8245   21.7168 H   0  0  0  0  0  0  0  0  0  0  0  0
    7.6515   -2.0454   22.6696 C   0  0  0  0  0  0  0  0  0  0  0  0
    7.5433   -2.9553   23.8443 C   0  0  0  0  0  0  0  0  0  0  0  0
    8.2439   -3.7897   23.7295 H   0  0  0  0  0  0  0  0  0  0  0  0
    6.5380   -3.3807   23.8812 H   0  0  0  0  0  0  0  0  0  0  0  0
    7.8194   -2.2927   25.2002 C   0  0  0  0  0  0  0  0  0  0  0  0
    8.7889   -1.7575   25.1664 H   0  0  0  0  0  0  0  0  0  0  0  0
    7.9412   -3.0900   25.9475 H   0  0  0  0  0  0  0  0  0  0  0  0
    6.7515   -1.4160   25.6671 N   0  0  0  0  0  0  0  0  0  0  0  0
    6.6388   -0.1398   24.9516 C   0  0  0  0  0  0  0  0  0  0  0  0
    7.6259    0.2414   24.6311 H   0  0  0  0  0  0  0  0  0  0  0  0
    6.0532   -0.2593   24.0313 H   0  0  0  0  0  0  0  0  0  0  0  0
    5.9788    0.8171   25.9515 C   0  0  0  0  0  0  0  0  0  0  0  0
    6.2599    1.8604   25.7664 H   0  0  0  0  0  0  0  0  0  0  0  0
    4.8852    0.7654   25.8701 H   0  0  0  0  0  0  0  0  0  0  0  0
    6.4592    0.3116   27.3211 C   0  0  0  0  0  0  0  0  0  0  0  0
    5.7249    0.4778   28.1193 H   0  0  0  0  0  0  0  0  0  0  0  0
    7.3762    0.8240   27.6385 H   0  0  0  0  0  0  0  0  0  0  0  0
    6.7463   -1.1930   27.1237 C   0  0  1  0  0  0  0  0  0  0  0  0
    7.7373   -1.4257   27.5559 H   0  0  0  0  0  0  0  0  0  0  0  0
    5.7209   -2.0987   27.8073 C   0  0  0  0  0  0  0  0  0  0  0  0
    5.7109   -1.9227   28.8890 H   0  0  0  0  0  0  0  0  0  0  0  0
    5.9491   -3.1553   27.6298 H   0  0  0  0  0  0  0  0  0  0  0  0
    4.7174   -1.8991   27.4199 H   0  0  0  0  0  0  0  0  0  0  0  0
    8.8172   -1.3777   22.3389 N   0  0  0  0  0  0  0  0  0  0  0  0
    9.7349   -1.4052   22.7578 H   0  0  0  0  0  0  0  0  0  0  0  0
    8.6417   -0.4970   21.3235 C   0  0  0  0  0  0  0  0  0  0  0  0
    9.8200    0.5428   20.7871 S   0  0  0  0  0  0  0  0  0  0  0  0
    5.4407    0.6475   20.1546 C   0  0  0  0  0  0  0  0  0  0  0  0
    5.0371    0.6281   21.1681 H   0  0  0  0  0  0  0  0  0  0  0  0
    4.8067    1.3111   19.1034 C   0  0  0  0  0  0  0  0  0  0  0  0
    3.8774    1.8422   19.2575 H   0  0  0  0  0  0  0  0  0  0  0  0
  1  2  1  0
  2  3  2  0
  3  4  1  0
  4  5  1  0
  4  6  2  0
  6  7  1  0
  7  8  1  0
  8  9  1  0
  8 10  2  0
 10 11  1  0
 11 12  1  0
 11 13  1  0
 11 14  1  0
 14 15  1  0
 14 16  1  0
 14 17  1  0
 17 18  1  0
 18 19  1  0
 18 20  1  0
 18 21  1  0
 21 22  1  0
 21 23  1  0
 21 24  1  0
 24 25  1  0
 24 26  1  0
 24 27  1  0
 27 28  1  1
 27 29  1  0
 29 30  1  0
 29 31  1  0
 29 32  1  0
 10 33  1  0
 33 34  1  0
 33 35  1  0
 35 36  2  0
  6 37  1  0
 37 38  1  0
 37 39  2  0
 39 40  1  0
 39  2  1  0
 35  7  1  0
 27 17  1  0
M  END
>  <cnnaffinity>  (1) 
-5.18239

>  <filename>  (1) 
C[C@@H]1CCCN1CCc1cn(-c2cccnc2)c(=S)[nH]1

$$$$
