
     RDKit          3D

 40 41  0  0  0  0  0  0  0  0999 V2000
    5.0474    1.7061   16.8253 H   0  0  0  0  0  0  0  0  0  0  0  0
    5.4353    1.2769   17.7477 C   0  0  0  0  0  0  0  0  0  0  0  0
    6.6070    0.6314   17.6474 N   0  0  0  0  0  0  0  0  0  0  0  0
    7.1097    0.0951   18.7692 C   0  0  0  0  0  0  0  0  0  0  0  0
    8.0896   -0.3721   18.6633 H   0  0  0  0  0  0  0  0  0  0  0  0
    6.4644    0.1237   20.0165 C   0  0  0  0  0  0  0  0  0  0  0  0
    7.1245   -0.5003   21.2355 C   0  0  2  0  0  0  0  0  0  0  0  0
    6.6243   -0.1402   22.1462 H   0  0  0  0  0  0  0  0  0  0  0  0
    8.5131   -0.0725   21.2677 O   0  0  0  0  0  0  0  0  0  0  0  0
    8.7013    1.2347   21.5627 C   0  0  0  0  0  0  0  0  0  0  0  0
    7.8746    1.9924   21.9875 O   0  0  0  0  0  0  0  0  0  0  0  0
   10.0083    1.5291   21.2405 N   0  0  0  0  0  0  0  0  0  0  0  0
   10.5358    0.7011   21.0574 H   0  0  0  0  0  0  0  0  0  0  0  0
   10.6535    2.6380   21.7682 C   0  0  0  0  0  0  0  0  0  0  0  0
   10.0991    3.4203   22.5010 O   0  0  0  0  0  0  0  0  0  0  0  0
   12.1485    2.7002   21.3844 C   0  0  0  0  0  0  0  0  0  0  0  0
   12.2338    2.1933   20.4162 H   0  0  0  0  0  0  0  0  0  0  0  0
   12.9572    1.9225   22.4697 C   0  0  0  0  0  0  0  0  0  0  0  0
   12.5118    0.9364   22.6695 H   0  0  0  0  0  0  0  0  0  0  0  0
   13.9868    1.6945   22.1772 H   0  0  0  0  0  0  0  0  0  0  0  0
   13.0702    2.7188   23.7630 C   0  0  0  0  0  0  0  0  0  0  0  0
   12.0841    2.8059   24.2419 H   0  0  0  0  0  0  0  0  0  0  0  0
   13.7101    2.1235   24.4152 H   0  0  0  0  0  0  0  0  0  0  0  0
   13.6509    4.1286   23.5422 C   0  0  0  0  0  0  0  0  0  0  0  0
   13.7502    4.6875   24.4803 H   0  0  0  0  0  0  0  0  0  0  0  0
   14.6651    4.0593   23.1251 H   0  0  0  0  0  0  0  0  0  0  0  0
   12.7683    4.8987   22.5659 C   0  0  0  0  0  0  0  0  0  0  0  0
   11.7571    4.9663   22.9770 H   0  0  0  0  0  0  0  0  0  0  0  0
   13.1422    5.9181   22.4186 H   0  0  0  0  0  0  0  0  0  0  0  0
   12.6757    4.1556   21.2281 C   0  0  0  0  0  0  0  0  0  0  0  0
   13.6661    4.1254   20.7606 H   0  0  0  0  0  0  0  0  0  0  0  0
   12.0727    4.7316   20.5239 H   0  0  0  0  0  0  0  0  0  0  0  0
    7.1455   -2.0212   21.2438 C   0  0  0  0  0  0  0  0  0  0  0  0
    7.9109   -2.3942   21.9337 H   0  0  0  0  0  0  0  0  0  0  0  0
    7.3529   -2.4074   20.2455 H   0  0  0  0  0  0  0  0  0  0  0  0
    6.1830   -2.4311   21.5617 H   0  0  0  0  0  0  0  0  0  0  0  0
    5.2514    0.8183   20.0981 C   0  0  0  0  0  0  0  0  0  0  0  0
    4.7418    0.9227   21.0583 H   0  0  0  0  0  0  0  0  0  0  0  0
    4.7264    1.4025   18.9433 C   0  0  0  0  0  0  0  0  0  0  0  0
    3.8067    1.9753   18.9632 H   0  0  0  0  0  0  0  0  0  0  0  0
  1  2  1  0
  2  3  2  0
  3  4  1  0
  4  5  1  0
  4  6  2  0
  6  7  1  0
  7  8  1  1
  7  9  1  0
  9 10  1  0
 10 11  2  0
 10 12  1  0
 12 13  1  0
 12 14  1  0
 14 15  2  0
 14 16  1  0
 16 17  1  0
 16 18  1  0
 18 19  1  0
 18 20  1  0
 18 21  1  0
 21 22  1  0
 21 23  1  0
 21 24  1  0
 24 25  1  0
 24 26  1  0
 24 27  1  0
 27 28  1  0
 27 29  1  0
 27 30  1  0
 30 31  1  0
 30 32  1  0
  7 33  1  0
 33 34  1  0
 33 35  1  0
 33 36  1  0
  6 37  1  0
 37 38  1  0
 37 39  2  0
 39 40  1  0
 39  2  1  0
 30 16  1  0
M  END
>  <cnnaffinity>  (1) 
-5.10881

>  <filename>  (1) 
C[C@@H](OC(=O)NC(=O)C1CCCCC1)c1cccnc1

$$$$
