
     RDKit          3D

 32 33  0  0  0  0  0  0  0  0999 V2000
    4.8610    1.7142   16.7163 H   0  0  0  0  0  0  0  0  0  0  0  0
    5.3104    1.3335   17.6303 C   0  0  0  0  0  0  0  0  0  0  0  0
    6.5069    0.7501   17.4982 N   0  0  0  0  0  0  0  0  0  0  0  0
    7.0998    0.2754   18.6020 C   0  0  0  0  0  0  0  0  0  0  0  0
    8.1030   -0.1279   18.4635 H   0  0  0  0  0  0  0  0  0  0  0  0
    6.5121    0.3069   19.8902 C   0  0  0  0  0  0  0  0  0  0  0  0
    7.0437   -0.2506   21.0263 O   0  0  0  0  0  0  0  0  0  0  0  0
    8.2883   -0.9550   20.9520 C   0  0  2  0  0  0  0  0  0  0  0  0
    8.2904   -1.5655   20.0375 H   0  0  0  0  0  0  0  0  0  0  0  0
    8.2561   -1.8205   22.1015 N   0  0  0  0  0  0  0  0  0  0  0  0
    7.8208   -1.2671   22.8295 H   0  0  0  0  0  0  0  0  0  0  0  0
    9.5081   -2.4389   22.5034 C   0  0  0  0  0  0  0  0  0  0  0  0
   10.0088   -2.8588   21.6129 H   0  0  0  0  0  0  0  0  0  0  0  0
   10.2070   -1.7108   22.9585 H   0  0  0  0  0  0  0  0  0  0  0  0
    9.2924   -3.5674   23.4633 C   0  0  0  0  0  0  0  0  0  0  0  0
    8.2802   -4.5057   23.2267 C   0  0  0  0  0  0  0  0  0  0  0  0
    7.5743   -4.3663   22.4070 H   0  0  0  0  0  0  0  0  0  0  0  0
    8.1199   -5.6180   23.9551 N   0  0  0  0  0  0  0  0  0  0  0  0
    8.9527   -5.8117   24.9892 C   0  0  0  0  0  0  0  0  0  0  0  0
    8.8163   -6.7393   25.5407 H   0  0  0  0  0  0  0  0  0  0  0  0
    9.9603   -4.9094   25.3460 C   0  0  0  0  0  0  0  0  0  0  0  0
   10.5961   -5.1088   26.2037 H   0  0  0  0  0  0  0  0  0  0  0  0
   10.1393   -3.7710   24.5614 C   0  0  0  0  0  0  0  0  0  0  0  0
   10.9421   -3.0630   24.7762 H   0  0  0  0  0  0  0  0  0  0  0  0
    9.4520    0.0314   20.9612 C   0  0  0  0  0  0  0  0  0  0  0  0
    9.3601    0.7688   20.1609 H   0  0  0  0  0  0  0  0  0  0  0  0
    9.4293    0.5704   21.9164 H   0  0  0  0  0  0  0  0  0  0  0  0
   10.4097   -0.4925   20.8637 H   0  0  0  0  0  0  0  0  0  0  0  0
    5.2740    0.9575   20.0171 C   0  0  0  0  0  0  0  0  0  0  0  0
    4.8295    1.0556   21.0062 H   0  0  0  0  0  0  0  0  0  0  0  0
    4.6681    1.4694   18.8671 C   0  0  0  0  0  0  0  0  0  0  0  0
    3.7160    1.9855   18.9183 H   0  0  0  0  0  0  0  0  0  0  0  0
  1  2  1  0
  2  3  2  0
  3  4  1  0
  4  5  1  0
  4  6  2  0
  6  7  1  0
  7  8  1  0
  8  9  1  6
  8 10  1  0
 10 11  1  0
 10 12  1  0
 12 13  1  0
 12 14  1  0
 12 15  1  0
 15 16  2  0
 16 17  1  0
 16 18  1  0
 18 19  2  0
 19 20  1  0
 19 21  1  0
 21 22  1  0
 21 23  2  0
 23 24  1  0
  8 25  1  0
 25 26  1  0
 25 27  1  0
 25 28  1  0
  6 29  1  0
 29 30  1  0
 29 31  2  0
 31 32  1  0
 31  2  1  0
 23 15  1  0
M  END
>  <cnnaffinity>  (1) 
-4.50452

>  <filename>  (1) 
C[C@@H](NCc1cccnc1)Oc1cccnc1

$$$$
