
     RDKit          3D

 36 37  0  0  0  0  0  0  0  0999 V2000
    5.7244   -1.8529   21.8368 H   0  0  0  0  0  0  0  0  0  0  0  0
    6.8119   -1.7298   21.8925 C   0  0  0  0  0  0  0  0  0  0  0  0
    7.4221   -0.8392   21.0804 C   0  0  0  0  0  0  0  0  0  0  0  0
    6.6463   -0.1425   19.9922 C   0  0  0  0  0  0  0  0  0  0  0  0
    7.1930   -0.0669   18.6868 C   0  0  0  0  0  0  0  0  0  0  0  0
    8.1346   -0.5715   18.4804 H   0  0  0  0  0  0  0  0  0  0  0  0
    6.6485    0.5851   17.6503 N   0  0  0  0  0  0  0  0  0  0  0  0
    5.4962    1.2347   17.8781 C   0  0  0  0  0  0  0  0  0  0  0  0
    5.0816    1.7782   17.0272 H   0  0  0  0  0  0  0  0  0  0  0  0
    4.8458    1.2218   19.1142 C   0  0  0  0  0  0  0  0  0  0  0  0
    3.9143    1.7720   19.2214 H   0  0  0  0  0  0  0  0  0  0  0  0
    5.4163    0.5200   20.1828 C   0  0  0  0  0  0  0  0  0  0  0  0
    4.9391    0.5284   21.1630 H   0  0  0  0  0  0  0  0  0  0  0  0
    8.9132   -0.5096   21.1487 C   0  0  0  0  0  0  0  0  0  0  0  0
    9.5481   -1.3657   20.8726 H   0  0  0  0  0  0  0  0  0  0  0  0
    9.2306   -0.1627   22.1447 H   0  0  0  0  0  0  0  0  0  0  0  0
    9.1432    0.3066   20.4523 H   0  0  0  0  0  0  0  0  0  0  0  0
    7.4507   -2.5834   22.7842 N   0  0  0  0  0  0  0  0  0  0  0  0
    8.3466   -2.2505   23.1036 H   0  0  0  0  0  0  0  0  0  0  0  0
    6.7886   -3.5545   23.6763 C   0  0  0  0  0  0  0  0  0  0  0  0
    7.5970   -3.9919   24.2815 H   0  0  0  0  0  0  0  0  0  0  0  0
    5.7657   -2.9323   24.6615 C   0  0  0  0  0  0  0  0  0  0  0  0
    4.9668   -2.4767   24.0736 H   0  0  0  0  0  0  0  0  0  0  0  0
    6.2416   -2.1387   25.2501 H   0  0  0  0  0  0  0  0  0  0  0  0
    5.1085   -3.9889   25.5672 C   0  0  0  0  0  0  0  0  0  0  0  0
    4.3986   -3.5004   26.2513 H   0  0  0  0  0  0  0  0  0  0  0  0
    5.8786   -4.4828   26.1820 H   0  0  0  0  0  0  0  0  0  0  0  0
    4.3866   -5.0430   24.7094 C   0  0  0  0  0  0  0  0  0  0  0  0
    3.8627   -5.7674   25.3454 H   0  0  0  0  0  0  0  0  0  0  0  0
    3.6039   -4.5490   24.1128 H   0  0  0  0  0  0  0  0  0  0  0  0
    5.3638   -5.7404   23.7475 C   0  0  0  0  0  0  0  0  0  0  0  0
    4.8143   -6.4279   23.0870 H   0  0  0  0  0  0  0  0  0  0  0  0
    6.0606   -6.3691   24.3184 H   0  0  0  0  0  0  0  0  0  0  0  0
    6.1240   -4.7104   22.8810 C   0  0  0  0  0  0  0  0  0  0  0  0
    6.8812   -5.2055   22.2640 H   0  0  0  0  0  0  0  0  0  0  0  0
    5.4036   -4.2579   22.1889 H   0  0  0  0  0  0  0  0  0  0  0  0
  1  2  1  0
  2  3  2  3
  3  4  1  0
  4  5  2  0
  5  6  1  0
  5  7  1  0
  7  8  2  0
  8  9  1  0
  8 10  1  0
 10 11  1  0
 10 12  2  0
 12 13  1  0
  3 14  1  0
 14 15  1  0
 14 16  1  0
 14 17  1  0
  2 18  1  0
 18 19  1  0
 18 20  1  0
 20 21  1  0
 20 22  1  0
 22 23  1  0
 22 24  1  0
 22 25  1  0
 25 26  1  0
 25 27  1  0
 25 28  1  0
 28 29  1  0
 28 30  1  0
 28 31  1  0
 31 32  1  0
 31 33  1  0
 31 34  1  0
 34 35  1  0
 34 36  1  0
 12  4  1  0
 34 20  1  0
M  END
>  <cnnaffinity>  (1) 
-4.60245

>  <filename>  (1) 
CC(=CNC1CCCCC1)c1cccnc1

$$$$
