
     RDKit          3D

 18 18  0  0  0  0  0  0  0  0999 V2000
    5.6587   -1.7204   21.6434 H   0  0  0  0  0  0  0  0  0  0  0  0
    6.7220   -1.5461   21.7616 C   0  0  0  0  0  0  0  0  0  0  0  0
    7.4778   -2.4664   23.0146 Cl  0  0  0  0  0  0  0  0  0  0  0  0
    7.3992   -0.7081   20.9762 C   0  0  0  0  0  0  0  0  0  0  0  0
    6.6586    0.0064   19.9054 C   0  0  0  0  0  0  0  0  0  0  0  0
    7.1763    0.0686   18.5995 C   0  0  0  0  0  0  0  0  0  0  0  0
    8.1233   -0.4310   18.3827 H   0  0  0  0  0  0  0  0  0  0  0  0
    6.5681    0.6791   17.5774 N   0  0  0  0  0  0  0  0  0  0  0  0
    5.4030    1.2916   17.8420 C   0  0  0  0  0  0  0  0  0  0  0  0
    4.9069    1.7734   17.0041 H   0  0  0  0  0  0  0  0  0  0  0  0
    4.8059    1.3144   19.1094 C   0  0  0  0  0  0  0  0  0  0  0  0
    3.8686    1.8471   19.2662 H   0  0  0  0  0  0  0  0  0  0  0  0
    5.4374    0.6465   20.1566 C   0  0  0  0  0  0  0  0  0  0  0  0
    5.0108    0.6343   21.1585 H   0  0  0  0  0  0  0  0  0  0  0  0
    8.8823   -0.4986   21.0971 C   0  0  0  0  0  0  0  0  0  0  0  0
    9.4035   -1.3899   20.7368 H   0  0  0  0  0  0  0  0  0  0  0  0
    9.2116    0.3690   20.5208 H   0  0  0  0  0  0  0  0  0  0  0  0
    9.1471   -0.3368   22.1442 H   0  0  0  0  0  0  0  0  0  0  0  0
  1  2  1  0
  2  3  1  0
  2  4  2  3
  4  5  1  0
  5  6  2  0
  6  7  1  0
  6  8  1  0
  8  9  2  0
  9 10  1  0
  9 11  1  0
 11 12  1  0
 11 13  2  0
 13 14  1  0
  4 15  1  0
 15 16  1  0
 15 17  1  0
 15 18  1  0
 13  5  1  0
M  END
>  <cnnaffinity>  (1) 
-3.76462

>  <filename>  (1) 
CC(=CCl)c1cccnc1

$$$$
