
     RDKit          3D

 31 32  0  0  0  0  0  0  0  0999 V2000
    5.6781   -1.7642   21.5893 H   0  0  0  0  0  0  0  0  0  0  0  0
    6.7418   -1.5870   21.7447 C   0  0  0  0  0  0  0  0  0  0  0  0
    7.4010   -0.7163   20.9784 C   0  0  0  0  0  0  0  0  0  0  0  0
    6.6506   -0.0020   19.9066 C   0  0  0  0  0  0  0  0  0  0  0  0
    7.1661    0.0689   18.6003 C   0  0  0  0  0  0  0  0  0  0  0  0
    8.1119   -0.4210   18.3797 H   0  0  0  0  0  0  0  0  0  0  0  0
    6.5627    0.6774   17.5739 N   0  0  0  0  0  0  0  0  0  0  0  0
    5.3996    1.2951   17.8338 C   0  0  0  0  0  0  0  0  0  0  0  0
    4.9147    1.7842   16.9913 H   0  0  0  0  0  0  0  0  0  0  0  0
    4.8041    1.3146   19.1015 C   0  0  0  0  0  0  0  0  0  0  0  0
    3.8715    1.8463   19.2537 H   0  0  0  0  0  0  0  0  0  0  0  0
    5.4259    0.6429   20.1525 C   0  0  0  0  0  0  0  0  0  0  0  0
    5.0078    0.6349   21.1617 H   0  0  0  0  0  0  0  0  0  0  0  0
    8.8774   -0.4393   21.1533 C   0  0  0  0  0  0  0  0  0  0  0  0
    9.1044   -0.1566   22.1937 H   0  0  0  0  0  0  0  0  0  0  0  0
    9.1857    0.3904   20.5097 H   0  0  0  0  0  0  0  0  0  0  0  0
    9.4816   -1.3213   20.8942 H   0  0  0  0  0  0  0  0  0  0  0  0
    7.2955   -2.3485   22.7780 N   0  0  0  0  0  0  0  0  0  0  0  0
    8.2874   -2.2779   22.9270 H   0  0  0  0  0  0  0  0  0  0  0  0
    6.5549   -3.2496   23.5202 C   0  0  0  0  0  0  0  0  0  0  0  0
    5.4166   -3.5486   23.2091 O   0  0  0  0  0  0  0  0  0  0  0  0
    7.2387   -3.8623   24.7502 C   0  0  0  0  0  0  0  0  0  0  0  0
    8.2810   -3.2525   25.4756 C   0  0  0  0  0  0  0  0  0  0  0  0
    8.6810   -2.2826   25.1955 H   0  0  0  0  0  0  0  0  0  0  0  0
    8.7928   -3.8852   26.6140 C   0  0  0  0  0  0  0  0  0  0  0  0
    9.6057   -3.4216   27.1627 H   0  0  0  0  0  0  0  0  0  0  0  0
    8.3472   -5.0555   27.0869 N   0  0  0  0  0  0  0  0  0  0  0  0
    7.3456   -5.6333   26.4110 C   0  0  0  0  0  0  0  0  0  0  0  0
    6.9860   -6.5788   26.8051 H   0  0  0  0  0  0  0  0  0  0  0  0
    6.7641   -5.0858   25.2648 C   0  0  0  0  0  0  0  0  0  0  0  0
    5.9375   -5.6016   24.7911 H   0  0  0  0  0  0  0  0  0  0  0  0
  1  2  1  0
  2  3  2  3
  3  4  1  0
  4  5  2  0
  5  6  1  0
  5  7  1  0
  7  8  2  0
  8  9  1  0
  8 10  1  0
 10 11  1  0
 10 12  2  0
 12 13  1  0
  3 14  1  0
 14 15  1  0
 14 16  1  0
 14 17  1  0
  2 18  1  0
 18 19  1  0
 18 20  1  0
 20 21  2  0
 20 22  1  0
 22 23  2  0
 23 24  1  0
 23 25  1  0
 25 26  1  0
 25 27  2  0
 27 28  1  0
 28 29  1  0
 28 30  2  0
 30 31  1  0
 12  4  1  0
 30 22  1  0
M  END
>  <cnnaffinity>  (1) 
-4.72481

>  <filename>  (1) 
CC(=CNC(=O)c1ccncc1)c1cccnc1

$$$$
