
     RDKit          3D

 29 30  0  0  0  0  0  0  0  0999 V2000
    5.6813   -1.7638   21.5978 H   0  0  0  0  0  0  0  0  0  0  0  0
    6.7442   -1.5903   21.7534 C   0  0  0  0  0  0  0  0  0  0  0  0
    7.4030   -0.7174   20.9809 C   0  0  0  0  0  0  0  0  0  0  0  0
    6.6512   -0.0048   19.9091 C   0  0  0  0  0  0  0  0  0  0  0  0
    7.1651    0.0695   18.6011 C   0  0  0  0  0  0  0  0  0  0  0  0
    8.1100   -0.4196   18.3795 H   0  0  0  0  0  0  0  0  0  0  0  0
    6.5628    0.6766   17.5718 N   0  0  0  0  0  0  0  0  0  0  0  0
    5.3999    1.2954   17.8331 C   0  0  0  0  0  0  0  0  0  0  0  0
    4.9156    1.7848   16.9904 H   0  0  0  0  0  0  0  0  0  0  0  0
    4.8039    1.3146   19.1009 C   0  0  0  0  0  0  0  0  0  0  0  0
    3.8711    1.8464   19.2532 H   0  0  0  0  0  0  0  0  0  0  0  0
    5.4254    0.6414   20.1531 C   0  0  0  0  0  0  0  0  0  0  0  0
    5.0081    0.6340   21.1630 H   0  0  0  0  0  0  0  0  0  0  0  0
    8.8784   -0.4407   21.1539 C   0  0  0  0  0  0  0  0  0  0  0  0
    9.1077   -0.1505   22.1910 H   0  0  0  0  0  0  0  0  0  0  0  0
    9.4827   -1.3235   20.8995 H   0  0  0  0  0  0  0  0  0  0  0  0
    9.1865    0.3855   20.5056 H   0  0  0  0  0  0  0  0  0  0  0  0
    7.3101   -2.3606   22.7739 N   0  0  0  0  0  0  0  0  0  0  0  0
    8.2980   -2.2647   22.9388 H   0  0  0  0  0  0  0  0  0  0  0  0
    6.5772   -3.2192   23.5664 C   0  0  0  0  0  0  0  0  0  0  0  0
    5.3750   -3.3634   23.3981 O   0  0  0  0  0  0  0  0  0  0  0  0
    7.2714   -4.0089   24.6418 C   0  0  0  0  0  0  0  0  0  0  0  0
    8.6246   -3.9358   24.8960 O   0  0  0  0  0  0  0  0  0  0  0  0
    8.8811   -4.7883   25.9210 C   0  0  0  0  0  0  0  0  0  0  0  0
    9.9125   -4.8460   26.2485 H   0  0  0  0  0  0  0  0  0  0  0  0
    7.7438   -5.4047   26.3272 C   0  0  0  0  0  0  0  0  0  0  0  0
    7.6629   -6.1323   27.1250 H   0  0  0  0  0  0  0  0  0  0  0  0
    6.6986   -4.9034   25.4997 C   0  0  0  0  0  0  0  0  0  0  0  0
    5.6474   -5.1696   25.5354 H   0  0  0  0  0  0  0  0  0  0  0  0
  1  2  1  0
  2  3  2  3
  3  4  1  0
  4  5  2  0
  5  6  1  0
  5  7  1  0
  7  8  2  0
  8  9  1  0
  8 10  1  0
 10 11  1  0
 10 12  2  0
 12 13  1  0
  3 14  1  0
 14 15  1  0
 14 16  1  0
 14 17  1  0
  2 18  1  0
 18 19  1  0
 18 20  1  0
 20 21  2  0
 20 22  1  0
 22 23  1  0
 23 24  1  0
 24 25  1  0
 24 26  2  0
 26 27  1  0
 26 28  1  0
 28 29  1  0
 12  4  1  0
 28 22  2  0
M  END
>  <cnnaffinity>  (1) 
-4.3663

>  <filename>  (1) 
CC(=CNC(=O)c1ccco1)c1cccnc1

$$$$
