
     RDKit          3D

 33 35  0  0  0  0  0  0  0  0999 V2000
    5.6736   -1.8043   21.4811 H   0  0  0  0  0  0  0  0  0  0  0  0
    6.7226   -1.5886   21.7263 C   0  0  0  0  0  0  0  0  0  0  0  0
    7.3904   -0.6997   20.9674 C   0  0  0  0  0  0  0  0  0  0  0  0
    6.6594    0.0145   19.9000 C   0  0  0  0  0  0  0  0  0  0  0  0
    7.1742    0.0747   18.5937 C   0  0  0  0  0  0  0  0  0  0  0  0
    8.1173   -0.4246   18.3796 H   0  0  0  0  0  0  0  0  0  0  0  0
    6.5649    0.6790   17.5679 N   0  0  0  0  0  0  0  0  0  0  0  0
    5.4016    1.2941   17.8380 C   0  0  0  0  0  0  0  0  0  0  0  0
    4.9098    1.7779   16.9988 H   0  0  0  0  0  0  0  0  0  0  0  0
    4.8034    1.3155   19.1065 C   0  0  0  0  0  0  0  0  0  0  0  0
    3.8689    1.8467   19.2618 H   0  0  0  0  0  0  0  0  0  0  0  0
    5.4318    0.6444   20.1535 C   0  0  0  0  0  0  0  0  0  0  0  0
    5.0127    0.6240   21.1641 H   0  0  0  0  0  0  0  0  0  0  0  0
    8.8661   -0.4548   21.1251 C   0  0  0  0  0  0  0  0  0  0  0  0
    9.2230    0.3301   20.4571 H   0  0  0  0  0  0  0  0  0  0  0  0
    9.0960   -0.1601   22.1538 H   0  0  0  0  0  0  0  0  0  0  0  0
    9.4140   -1.3825   20.9287 H   0  0  0  0  0  0  0  0  0  0  0  0
    7.3138   -2.3795   22.8111 C   0  0  0  0  0  0  0  0  0  0  0  0
    7.7442   -1.7884   23.9833 C   0  0  0  0  0  0  0  0  0  0  0  0
    7.6136   -0.7151   24.0990 H   0  0  0  0  0  0  0  0  0  0  0  0
    8.3071   -2.4436   25.0345 N   0  0  0  0  0  0  0  0  0  0  0  0
    8.4613   -3.7463   24.9063 C   0  0  0  0  0  0  0  0  0  0  0  0
    8.9069   -4.2849   25.7395 H   0  0  0  0  0  0  0  0  0  0  0  0
    8.0765   -4.5018   23.7555 C   0  0  0  0  0  0  0  0  0  0  0  0
    8.2572   -5.9170   23.6640 C   0  0  0  0  0  0  0  0  0  0  0  0
    8.7012   -6.4510   24.5026 H   0  0  0  0  0  0  0  0  0  0  0  0
    7.8672   -6.5872   22.5277 C   0  0  0  0  0  0  0  0  0  0  0  0
    8.0001   -7.6637   22.4570 H   0  0  0  0  0  0  0  0  0  0  0  0
    7.2900   -5.8879   21.4354 C   0  0  0  0  0  0  0  0  0  0  0  0
    6.9893   -6.4246   20.5443 H   0  0  0  0  0  0  0  0  0  0  0  0
    7.1054   -4.5226   21.5009 C   0  0  0  0  0  0  0  0  0  0  0  0
    6.6766   -3.9675   20.6715 H   0  0  0  0  0  0  0  0  0  0  0  0
    7.4819   -3.7979   22.6681 C   0  0  0  0  0  0  0  0  0  0  0  0
  1  2  1  0
  2  3  2  3
  3  4  1  0
  4  5  2  0
  5  6  1  0
  5  7  1  0
  7  8  2  0
  8  9  1  0
  8 10  1  0
 10 11  1  0
 10 12  2  0
 12 13  1  0
  3 14  1  0
 14 15  1  0
 14 16  1  0
 14 17  1  0
  2 18  1  0
 18 19  2  0
 19 20  1  0
 19 21  1  0
 21 22  2  0
 22 23  1  0
 22 24  1  0
 24 25  2  0
 25 26  1  0
 25 27  1  0
 27 28  1  0
 27 29  2  0
 29 30  1  0
 29 31  1  0
 31 32  1  0
 31 33  2  0
 12  4  1  0
 33 18  1  0
 33 24  1  0
M  END
>  <cnnaffinity>  (1) 
-5.27833

>  <filename>  (1) 
CC(=Cc1cncc2ccccc12)c1cccnc1

$$$$
