
     RDKit          3D

 31 32  0  0  0  0  0  0  0  0999 V2000
    5.6752   -1.7650   21.5985 H   0  0  0  0  0  0  0  0  0  0  0  0
    6.7412   -1.5905   21.7518 C   0  0  0  0  0  0  0  0  0  0  0  0
    7.4005   -0.7196   20.9813 C   0  0  0  0  0  0  0  0  0  0  0  0
    6.6488   -0.0024   19.9069 C   0  0  0  0  0  0  0  0  0  0  0  0
    7.1640    0.0685   18.6006 C   0  0  0  0  0  0  0  0  0  0  0  0
    8.1105   -0.4190   18.3786 H   0  0  0  0  0  0  0  0  0  0  0  0
    6.5607    0.6769   17.5750 N   0  0  0  0  0  0  0  0  0  0  0  0
    5.3983    1.2958   17.8324 C   0  0  0  0  0  0  0  0  0  0  0  0
    4.9172    1.7865   16.9885 H   0  0  0  0  0  0  0  0  0  0  0  0
    4.8038    1.3141   19.0999 C   0  0  0  0  0  0  0  0  0  0  0  0
    3.8722    1.8460   19.2508 H   0  0  0  0  0  0  0  0  0  0  0  0
    5.4237    0.6421   20.1517 C   0  0  0  0  0  0  0  0  0  0  0  0
    5.0075    0.6353   21.1611 H   0  0  0  0  0  0  0  0  0  0  0  0
    8.8787   -0.4412   21.1551 C   0  0  0  0  0  0  0  0  0  0  0  0
    9.4878   -1.3233   20.9025 H   0  0  0  0  0  0  0  0  0  0  0  0
    9.1863    0.3862   20.5067 H   0  0  0  0  0  0  0  0  0  0  0  0
    9.1094   -0.1506   22.1937 H   0  0  0  0  0  0  0  0  0  0  0  0
    7.3042   -2.3620   22.7737 N   0  0  0  0  0  0  0  0  0  0  0  0
    8.2951   -2.2874   22.9583 H   0  0  0  0  0  0  0  0  0  0  0  0
    6.5746   -3.2240   23.5726 C   0  0  0  0  0  0  0  0  0  0  0  0
    5.3740   -3.3701   23.4111 O   0  0  0  0  0  0  0  0  0  0  0  0
    7.3362   -4.0207   24.6719 C   0  0  0  0  0  0  0  0  0  0  0  0
    8.6728   -3.8711   24.8258 N   0  0  0  0  0  0  0  0  0  0  0  0
    9.2845   -4.5837   25.7833 C   0  0  0  0  0  0  0  0  0  0  0  0
   10.3577   -4.4279   25.8746 H   0  0  0  0  0  0  0  0  0  0  0  0
    8.6165   -5.4768   26.6278 C   0  0  0  0  0  0  0  0  0  0  0  0
    9.1722   -6.0198   27.3839 H   0  0  0  0  0  0  0  0  0  0  0  0
    7.2375   -5.6463   26.4738 C   0  0  0  0  0  0  0  0  0  0  0  0
    6.6880   -6.3389   27.1165 H   0  0  0  0  0  0  0  0  0  0  0  0
    6.5946   -4.9059   25.4821 C   0  0  0  0  0  0  0  0  0  0  0  0
    5.5272   -5.0024   25.3278 H   0  0  0  0  0  0  0  0  0  0  0  0
  1  2  1  0
  2  3  2  3
  3  4  1  0
  4  5  2  0
  5  6  1  0
  5  7  1  0
  7  8  2  0
  8  9  1  0
  8 10  1  0
 10 11  1  0
 10 12  2  0
 12 13  1  0
  3 14  1  0
 14 15  1  0
 14 16  1  0
 14 17  1  0
  2 18  1  0
 18 19  1  0
 18 20  1  0
 20 21  2  0
 20 22  1  0
 22 23  2  0
 23 24  1  0
 24 25  1  0
 24 26  2  0
 26 27  1  0
 26 28  1  0
 28 29  1  0
 28 30  2  0
 30 31  1  0
 12  4  1  0
 30 22  1  0
M  END
>  <cnnaffinity>  (1) 
-4.61208

>  <filename>  (1) 
CC(=CNC(=O)c1ccccn1)c1cccnc1

$$$$
