
     RDKit          3D

 32 33  0  0  0  0  0  0  0  0999 V2000
    4.9188    1.7992   16.9842 H   0  0  0  0  0  0  0  0  0  0  0  0
    5.3946    1.2992   17.8270 C   0  0  0  0  0  0  0  0  0  0  0  0
    6.5537    0.6729   17.5674 N   0  0  0  0  0  0  0  0  0  0  0  0
    7.1641    0.0643   18.5931 C   0  0  0  0  0  0  0  0  0  0  0  0
    8.1088   -0.4261   18.3483 H   0  0  0  0  0  0  0  0  0  0  0  0
    6.6721    0.0461   19.9170 C   0  0  0  0  0  0  0  0  0  0  0  0
    7.3673   -0.6933   21.0186 C   0  0  0  0  0  0  0  0  0  0  0  0
    7.7372   -0.1160   22.2657 C   0  0  0  0  0  0  0  0  0  0  0  0
    7.5459    1.3759   22.4918 C   0  0  0  0  0  0  0  0  0  0  0  0
    6.8232    1.9250   23.4028 N   0  0  0  0  0  0  0  0  0  0  0  0
    6.1357    1.1537   24.3116 N   0  0  0  0  0  0  0  0  0  0  0  0
    6.0526    0.1437   24.2698 H   0  0  0  0  0  0  0  0  0  0  0  0
    5.4500    1.6522   25.3779 C   0  0  0  0  0  0  0  0  0  0  0  0
    4.6081    0.6141   26.3595 S   0  0  0  0  0  0  0  0  0  0  0  0
    5.4951    2.9612   25.5909 N   0  0  0  0  0  0  0  0  0  0  0  0
    4.9893    3.2704   26.4004 H   0  0  0  0  0  0  0  0  0  0  0  0
    6.0326    3.5216   24.9479 H   0  0  0  0  0  0  0  0  0  0  0  0
    8.1750    2.3486   21.5142 C   0  0  0  0  0  0  0  0  0  0  0  0
    8.8758    1.8499   20.8377 H   0  0  0  0  0  0  0  0  0  0  0  0
    8.6764    3.1624   22.0508 H   0  0  0  0  0  0  0  0  0  0  0  0
    7.3537    2.7792   20.9324 H   0  0  0  0  0  0  0  0  0  0  0  0
    8.3369   -0.8388   23.2379 N   0  0  0  0  0  0  0  0  0  0  0  0
    8.6287   -2.1219   23.0028 C   0  0  0  0  0  0  0  0  0  0  0  0
    9.1296   -2.6477   23.8152 H   0  0  0  0  0  0  0  0  0  0  0  0
    8.2845   -2.7779   21.8188 C   0  0  0  0  0  0  0  0  0  0  0  0
    8.5194   -3.8281   21.7012 H   0  0  0  0  0  0  0  0  0  0  0  0
    7.6082   -2.0571   20.8380 C   0  0  0  0  0  0  0  0  0  0  0  0
    7.1822   -2.5103   19.9501 H   0  0  0  0  0  0  0  0  0  0  0  0
    5.4473    0.6821   20.1533 C   0  0  0  0  0  0  0  0  0  0  0  0
    5.0138    0.6483   21.1523 H   0  0  0  0  0  0  0  0  0  0  0  0
    4.8029    1.3231   19.0936 C   0  0  0  0  0  0  0  0  0  0  0  0
    3.8673    1.8471   19.2384 H   0  0  0  0  0  0  0  0  0  0  0  0
  1  2  1  0
  2  3  2  0
  3  4  1  0
  4  5  1  0
  4  6  2  0
  6  7  1  0
  7  8  2  0
  8  9  1  0
  9 10  2  3
 10 11  1  0
 11 12  1  0
 11 13  1  0
 13 14  2  0
 13 15  1  0
 15 16  1  0
 15 17  1  0
  9 18  1  0
 18 19  1  0
 18 20  1  0
 18 21  1  0
  8 22  1  0
 22 23  2  0
 23 24  1  0
 23 25  1  0
 25 26  1  0
 25 27  2  0
 27 28  1  0
  6 29  1  0
 29 30  1  0
 29 31  2  0
 31 32  1  0
 31  2  1  0
 27  7  1  0
M  END
>  <cnnaffinity>  (1) 
-4.7733

>  <filename>  (1) 
CC(=NNC(N)=S)c1ncccc1-c1cccnc1

$$$$
