
     RDKit          3D

 36 38  0  0  0  0  0  0  0  0999 V2000
    5.0240    1.8079   16.8766 H   0  0  0  0  0  0  0  0  0  0  0  0
    5.4411    1.2999   17.7421 C   0  0  0  0  0  0  0  0  0  0  0  0
    6.6042    0.6539   17.5528 N   0  0  0  0  0  0  0  0  0  0  0  0
    7.1486    0.0312   18.6035 C   0  0  0  0  0  0  0  0  0  0  0  0
    8.0993   -0.4649   18.4053 H   0  0  0  0  0  0  0  0  0  0  0  0
    6.5743    0.0072   19.8883 C   0  0  0  0  0  0  0  0  0  0  0  0
    7.2213   -0.6103   21.0445 C   0  0  0  0  0  0  0  0  0  0  0  0
    7.0544   -0.3623   22.3669 C   0  0  0  0  0  0  0  0  0  0  0  0
    6.3858    0.3108   22.8807 H   0  0  0  0  0  0  0  0  0  0  0  0
    7.9824   -1.1215   23.0656 N   0  0  0  0  0  0  0  0  0  0  0  0
    8.1602   -1.1658   24.4861 C   0  0  0  0  0  0  0  0  0  0  0  0
    8.4513   -0.0081   25.2190 C   0  0  0  0  0  0  0  0  0  0  0  0
    8.4755    0.9513   24.7157 H   0  0  0  0  0  0  0  0  0  0  0  0
    8.7484   -0.1233   26.5826 C   0  0  0  0  0  0  0  0  0  0  0  0
    9.0082    0.7638   27.1568 H   0  0  0  0  0  0  0  0  0  0  0  0
    8.7332   -1.3743   27.2051 C   0  0  0  0  0  0  0  0  0  0  0  0
    9.0231   -1.4434   28.2457 H   0  0  0  0  0  0  0  0  0  0  0  0
    8.3716   -2.5105   26.4686 C   0  0  0  0  0  0  0  0  0  0  0  0
    8.2907   -3.7712   27.0786 N   0  0  0  0  0  0  0  0  0  0  0  0
    8.9286   -3.9895   27.8193 H   0  0  0  0  0  0  0  0  0  0  0  0
    7.4573   -4.7902   26.7048 C   0  0  0  0  0  0  0  0  0  0  0  0
    6.6041   -4.6922   25.8449 O   0  0  0  0  0  0  0  0  0  0  0  0
    7.6870   -6.0314   27.5184 C   0  0  0  0  0  0  0  0  0  0  0  0
    7.1660   -6.8502   27.0346 H   0  0  0  0  0  0  0  0  0  0  0  0
    7.2716   -5.8615   28.5140 H   0  0  0  0  0  0  0  0  0  0  0  0
    8.7498   -6.2642   27.6157 H   0  0  0  0  0  0  0  0  0  0  0  0
    8.1097   -2.4082   25.1046 C   0  0  0  0  0  0  0  0  0  0  0  0
    7.9113   -3.3077   24.5365 H   0  0  0  0  0  0  0  0  0  0  0  0
    8.7590   -1.8346   22.1867 C   0  0  0  0  0  0  0  0  0  0  0  0
   10.0614   -2.8181   22.4764 S   0  0  0  0  0  0  0  0  0  0  0  0
    8.2615   -1.5263   20.9602 N   0  0  0  0  0  0  0  0  0  0  0  0
    8.6163   -2.0310   20.1663 H   0  0  0  0  0  0  0  0  0  0  0  0
    5.3507    0.6764   20.0533 C   0  0  0  0  0  0  0  0  0  0  0  0
    4.8675    0.6729   21.0264 H   0  0  0  0  0  0  0  0  0  0  0  0
    4.7770    1.3288   18.9689 C   0  0  0  0  0  0  0  0  0  0  0  0
    3.8435    1.8676   19.0635 H   0  0  0  0  0  0  0  0  0  0  0  0
  1  2  1  0
  2  3  2  0
  3  4  1  0
  4  5  1  0
  4  6  2  0
  6  7  1  0
  7  8  2  0
  8  9  1  0
  8 10  1  0
 10 11  1  0
 11 12  2  0
 12 13  1  0
 12 14  1  0
 14 15  1  0
 14 16  2  0
 16 17  1  0
 16 18  1  0
 18 19  1  0
 19 20  1  0
 19 21  1  0
 21 22  2  0
 21 23  1  0
 23 24  1  0
 23 25  1  0
 23 26  1  0
 18 27  2  0
 27 28  1  0
 10 29  1  0
 29 30  2  0
 29 31  1  0
 31 32  1  0
  6 33  1  0
 33 34  1  0
 33 35  2  0
 35 36  1  0
 35  2  1  0
 31  7  1  0
 27 11  1  0
M  END
>  <cnnaffinity>  (1) 
-5.38728

>  <filename>  (1) 
CC(=O)Nc1cccc(-n2cc(-c3cccnc3)[nH]c2=S)c1

$$$$
