
     RDKit          3D

 22 22  0  0  0  0  0  0  0  0999 V2000
    4.9148    1.7307   16.9960 H   0  0  0  0  0  0  0  0  0  0  0  0
    5.4528    1.2548   17.8109 C   0  0  0  0  0  0  0  0  0  0  0  0
    6.5859    0.6251   17.4655 N   0  0  0  0  0  0  0  0  0  0  0  0
    7.2744    0.0313   18.4403 C   0  0  0  0  0  0  0  0  0  0  0  0
    8.1730   -0.5047   18.1456 H   0  0  0  0  0  0  0  0  0  0  0  0
    6.9052    0.0787   19.7979 C   0  0  0  0  0  0  0  0  0  0  0  0
    7.8583   -0.5695   20.7555 C   0  0  0  0  0  0  0  0  0  0  0  0
    8.6860   -1.3630   20.3465 O   0  0  0  0  0  0  0  0  0  0  0  0
    7.8128   -0.2433   22.2898 C   0  0  0  0  0  0  0  0  0  0  0  0
    7.3724    1.0809   22.4506 F   0  0  0  0  0  0  0  0  0  0  0  0
    6.8526   -1.1785   23.0385 C   0  0  0  0  0  0  0  0  0  0  0  0
    7.3843   -2.0852   23.3595 H   0  0  0  0  0  0  0  0  0  0  0  0
    6.4600   -0.6587   23.9215 H   0  0  0  0  0  0  0  0  0  0  0  0
    6.0207   -1.4953   22.4065 H   0  0  0  0  0  0  0  0  0  0  0  0
    9.2013   -0.3141   22.9139 C   0  0  0  0  0  0  0  0  0  0  0  0
    9.5750   -1.3425   22.8526 H   0  0  0  0  0  0  0  0  0  0  0  0
    9.8952    0.3569   22.4022 H   0  0  0  0  0  0  0  0  0  0  0  0
    9.1265   -0.0090   23.9621 H   0  0  0  0  0  0  0  0  0  0  0  0
    5.6924    0.7031   20.1396 C   0  0  0  0  0  0  0  0  0  0  0  0
    5.3243    0.7339   21.1681 H   0  0  0  0  0  0  0  0  0  0  0  0
    4.9547    1.2973   19.1162 C   0  0  0  0  0  0  0  0  0  0  0  0
    4.0129    1.8006   19.3115 H   0  0  0  0  0  0  0  0  0  0  0  0
  1  2  1  0
  2  3  2  0
  3  4  1  0
  4  5  1  0
  4  6  2  0
  6  7  1  0
  7  8  2  0
  7  9  1  0
  9 10  1  0
  9 11  1  0
 11 12  1  0
 11 13  1  0
 11 14  1  0
  9 15  1  0
 15 16  1  0
 15 17  1  0
 15 18  1  0
  6 19  1  0
 19 20  1  0
 19 21  2  0
 21 22  1  0
 21  2  1  0
M  END
>  <cnnaffinity>  (1) 
-3.4677

>  <filename>  (1) 
CC(C)(F)C(=O)c1cccnc1

$$$$
