
     RDKit          3D

 35 36  0  0  0  0  0  0  0  0999 V2000
    5.0438    1.7673   16.8129 H   0  0  0  0  0  0  0  0  0  0  0  0
    5.4285    1.3652   17.7483 C   0  0  0  0  0  0  0  0  0  0  0  0
    6.6173    0.7493   17.6790 N   0  0  0  0  0  0  0  0  0  0  0  0
    7.1210    0.2674   18.8199 C   0  0  0  0  0  0  0  0  0  0  0  0
    8.1194   -0.1618   18.7486 H   0  0  0  0  0  0  0  0  0  0  0  0
    6.4562    0.3039   20.0523 C   0  0  0  0  0  0  0  0  0  0  0  0
    7.0723   -0.3584   21.2549 C   0  0  0  0  0  0  0  0  0  0  0  0
    7.3176    0.3017   22.2432 O   0  0  0  0  0  0  0  0  0  0  0  0
    7.4285   -1.9266   21.2333 C   0  0  0  0  0  0  0  0  0  0  0  0
    7.3409   -2.4972   22.6076 N   0  0  0  0  0  0  0  0  0  0  0  0
    7.0962   -1.8790   23.3624 H   0  0  0  0  0  0  0  0  0  0  0  0
    7.6359   -3.7838   22.9448 C   0  0  0  0  0  0  0  0  0  0  0  0
    7.9104   -4.6407   22.1151 O   0  0  0  0  0  0  0  0  0  0  0  0
    7.5756   -4.1107   24.4465 C   0  0  0  0  0  0  0  0  0  0  0  0
    7.6661   -3.1530   25.4795 C   0  0  0  0  0  0  0  0  0  0  0  0
    7.9054   -2.1037   25.3093 H   0  0  0  0  0  0  0  0  0  0  0  0
    7.5231   -3.5679   26.8069 C   0  0  0  0  0  0  0  0  0  0  0  0
    7.5599   -2.8242   27.5985 H   0  0  0  0  0  0  0  0  0  0  0  0
    7.3452   -4.8398   27.1809 N   0  0  0  0  0  0  0  0  0  0  0  0
    7.3264   -5.7625   26.2092 C   0  0  0  0  0  0  0  0  0  0  0  0
    7.2114   -6.7968   26.5251 H   0  0  0  0  0  0  0  0  0  0  0  0
    7.4521   -5.4558   24.8503 C   0  0  0  0  0  0  0  0  0  0  0  0
    7.4847   -6.2497   24.1116 H   0  0  0  0  0  0  0  0  0  0  0  0
    6.4358   -2.7190   20.3593 C   0  0  0  0  0  0  0  0  0  0  0  0
    6.4643   -2.4335   19.3046 H   0  0  0  0  0  0  0  0  0  0  0  0
    6.6658   -3.7838   20.4279 H   0  0  0  0  0  0  0  0  0  0  0  0
    5.4258   -2.5594   20.7409 H   0  0  0  0  0  0  0  0  0  0  0  0
    8.8881   -2.0882   20.7596 C   0  0  0  0  0  0  0  0  0  0  0  0
    9.1327   -3.1526   20.7497 H   0  0  0  0  0  0  0  0  0  0  0  0
    9.0644   -1.6806   19.7593 H   0  0  0  0  0  0  0  0  0  0  0  0
    9.5736   -1.5926   21.4527 H   0  0  0  0  0  0  0  0  0  0  0  0
    5.2345    0.9991   20.1225 C   0  0  0  0  0  0  0  0  0  0  0  0
    4.7102    1.1258   21.0721 H   0  0  0  0  0  0  0  0  0  0  0  0
    4.7130    1.5232   18.9408 C   0  0  0  0  0  0  0  0  0  0  0  0
    3.7784    2.0751   18.9277 H   0  0  0  0  0  0  0  0  0  0  0  0
  1  2  1  0
  2  3  2  0
  3  4  1  0
  4  5  1  0
  4  6  2  0
  6  7  1  0
  7  8  2  0
  7  9  1  0
  9 10  1  0
 10 11  1  0
 10 12  1  0
 12 13  2  0
 12 14  1  0
 14 15  2  0
 15 16  1  0
 15 17  1  0
 17 18  1  0
 17 19  2  0
 19 20  1  0
 20 21  1  0
 20 22  2  0
 22 23  1  0
  9 24  1  0
 24 25  1  0
 24 26  1  0
 24 27  1  0
  9 28  1  0
 28 29  1  0
 28 30  1  0
 28 31  1  0
  6 32  1  0
 32 33  1  0
 32 34  2  0
 34 35  1  0
 34  2  1  0
 22 14  1  0
M  END
>  <cnnaffinity>  (1) 
-4.73161

>  <filename>  (1) 
CC(C)(NC(=O)c1ccncc1)C(=O)c1cccnc1

$$$$
