
     RDKit          3D

 34 35  0  0  0  0  0  0  0  0999 V2000
    4.9566    1.6772   16.8916 H   0  0  0  0  0  0  0  0  0  0  0  0
    5.4923    1.2016   17.7119 C   0  0  0  0  0  0  0  0  0  0  0  0
    6.6211    0.5511   17.3854 N   0  0  0  0  0  0  0  0  0  0  0  0
    7.3185   -0.0119   18.3735 C   0  0  0  0  0  0  0  0  0  0  0  0
    8.2131   -0.5567   18.0784 H   0  0  0  0  0  0  0  0  0  0  0  0
    6.9615    0.0695   19.7334 C   0  0  0  0  0  0  0  0  0  0  0  0
    7.9573   -0.4565   20.7332 C   0  0  0  0  0  0  0  0  0  0  0  0
    8.8261   -1.2185   20.3492 O   0  0  0  0  0  0  0  0  0  0  0  0
    7.8702   -0.0752   22.2719 C   0  0  0  0  0  0  0  0  0  0  0  0
    7.4677    1.3538   22.4385 N   0  0  0  0  0  0  0  0  0  0  0  0
    8.2241    1.9547   22.1121 H   0  0  0  0  0  0  0  0  0  0  0  0
    7.0950    1.8603   23.7118 C   0  0  0  0  0  0  0  0  0  0  0  0
    5.7579    1.7807   24.1084 C   0  0  0  0  0  0  0  0  0  0  0  0
    5.0925    1.2048   23.4736 H   0  0  0  0  0  0  0  0  0  0  0  0
    5.3151    2.4387   25.2620 C   0  0  0  0  0  0  0  0  0  0  0  0
    4.2743    2.3684   25.5584 H   0  0  0  0  0  0  0  0  0  0  0  0
    6.2210    3.1678   26.0420 C   0  0  0  0  0  0  0  0  0  0  0  0
    5.8770    3.6923   26.9299 H   0  0  0  0  0  0  0  0  0  0  0  0
    7.5674    3.2326   25.6670 C   0  0  0  0  0  0  0  0  0  0  0  0
    8.2740    3.7865   26.2835 H   0  0  0  0  0  0  0  0  0  0  0  0
    8.0039    2.5780   24.5097 C   0  0  0  0  0  0  0  0  0  0  0  0
    9.0481    2.6058   24.2068 H   0  0  0  0  0  0  0  0  0  0  0  0
    9.2383   -0.2398   22.9337 C   0  0  0  0  0  0  0  0  0  0  0  0
    9.1829    0.0687   23.9799 H   0  0  0  0  0  0  0  0  0  0  0  0
    9.5786   -1.2756   22.8911 H   0  0  0  0  0  0  0  0  0  0  0  0
    9.9730    0.3867   22.4216 H   0  0  0  0  0  0  0  0  0  0  0  0
    6.8623   -1.0507   22.9028 C   0  0  0  0  0  0  0  0  0  0  0  0
    5.9537   -1.1460   22.3038 H   0  0  0  0  0  0  0  0  0  0  0  0
    6.5967   -0.7637   23.9230 H   0  0  0  0  0  0  0  0  0  0  0  0
    7.2840   -2.0577   22.9676 H   0  0  0  0  0  0  0  0  0  0  0  0
    5.7460    0.7035   20.0510 C   0  0  0  0  0  0  0  0  0  0  0  0
    5.3873    0.7919   21.0768 H   0  0  0  0  0  0  0  0  0  0  0  0
    5.0039    1.2720   19.0184 C   0  0  0  0  0  0  0  0  0  0  0  0
    4.0733    1.7914   19.2223 H   0  0  0  0  0  0  0  0  0  0  0  0
  1  2  1  0
  2  3  2  0
  3  4  1  0
  4  5  1  0
  4  6  2  0
  6  7  1  0
  7  8  2  0
  7  9  1  0
  9 10  1  0
 10 11  1  0
 10 12  1  0
 12 13  2  0
 13 14  1  0
 13 15  1  0
 15 16  1  0
 15 17  2  0
 17 18  1  0
 17 19  1  0
 19 20  1  0
 19 21  2  0
 21 22  1  0
  9 23  1  0
 23 24  1  0
 23 25  1  0
 23 26  1  0
  9 27  1  0
 27 28  1  0
 27 29  1  0
 27 30  1  0
  6 31  1  0
 31 32  1  0
 31 33  2  0
 33 34  1  0
 33  2  1  0
 21 12  1  0
M  END
>  <cnnaffinity>  (1) 
-4.12714

>  <filename>  (1) 
CC(C)(Nc1ccccc1)C(=O)c1cccnc1

$$$$
