
     RDKit          3D

 40 42  0  0  0  0  0  0  0  0999 V2000
    5.1910    1.8164   16.8439 H   0  0  0  0  0  0  0  0  0  0  0  0
    5.5947    1.3471   17.7384 C   0  0  0  0  0  0  0  0  0  0  0  0
    6.7524    0.6871   17.5853 N   0  0  0  0  0  0  0  0  0  0  0  0
    7.2705    0.0955   18.6679 C   0  0  0  0  0  0  0  0  0  0  0  0
    8.2050   -0.4413   18.5040 H   0  0  0  0  0  0  0  0  0  0  0  0
    6.6588    0.1080   19.9238 C   0  0  0  0  0  0  0  0  0  0  0  0
    7.2266   -0.6778   21.0516 C   0  0  0  0  0  0  0  0  0  0  0  0
    6.5146   -1.3593   21.7748 O   0  0  0  0  0  0  0  0  0  0  0  0
    8.5705   -0.5613   21.2201 N   0  0  0  0  0  0  0  0  0  0  0  0
    9.0570    0.0569   20.6008 H   0  0  0  0  0  0  0  0  0  0  0  0
    9.3676   -1.3284   22.1959 C   0  0  0  0  0  0  0  0  0  0  0  0
   10.8547   -0.8842   22.1431 C   0  0  0  0  0  0  0  0  0  0  0  0
   11.8592   -1.8347   22.0948 C   0  0  0  0  0  0  0  0  0  0  0  0
   11.6073   -2.8809   22.0191 H   0  0  0  0  0  0  0  0  0  0  0  0
   13.2402   -1.5305   22.1804 C   0  0  0  0  0  0  0  0  0  0  0  0
   13.9602   -2.3438   22.1348 H   0  0  0  0  0  0  0  0  0  0  0  0
   13.6426   -0.2446   22.3889 C   0  0  0  0  0  0  0  0  0  0  0  0
   14.6905    0.0190   22.5139 H   0  0  0  0  0  0  0  0  0  0  0  0
   12.6684    0.7959   22.4645 C   0  0  0  0  0  0  0  0  0  0  0  0
   13.0948    2.1288   22.7288 C   0  0  0  0  0  0  0  0  0  0  0  0
   14.1576    2.2933   22.8891 H   0  0  0  0  0  0  0  0  0  0  0  0
   12.1937    3.1613   22.7922 C   0  0  0  0  0  0  0  0  0  0  0  0
   12.5264    4.1747   23.0032 H   0  0  0  0  0  0  0  0  0  0  0  0
   10.8144    2.9034   22.5767 C   0  0  0  0  0  0  0  0  0  0  0  0
   10.1065    3.7263   22.6140 H   0  0  0  0  0  0  0  0  0  0  0  0
   10.3657    1.6221   22.3318 C   0  0  0  0  0  0  0  0  0  0  0  0
    9.3044    1.4576   22.1870 H   0  0  0  0  0  0  0  0  0  0  0  0
   11.2702    0.5035   22.2973 C   0  0  0  0  0  0  0  0  0  0  0  0
    9.1884   -2.8112   21.7940 C   0  0  0  0  0  0  0  0  0  0  0  0
    9.6495   -2.9655   20.8141 H   0  0  0  0  0  0  0  0  0  0  0  0
    8.1252   -3.0414   21.7064 H   0  0  0  0  0  0  0  0  0  0  0  0
    9.6444   -3.4838   22.5277 H   0  0  0  0  0  0  0  0  0  0  0  0
    8.8314   -1.1411   23.6306 C   0  0  0  0  0  0  0  0  0  0  0  0
    7.7766   -1.4154   23.6707 H   0  0  0  0  0  0  0  0  0  0  0  0
    8.9397   -0.1056   23.9704 H   0  0  0  0  0  0  0  0  0  0  0  0
    9.3989   -1.7817   24.3151 H   0  0  0  0  0  0  0  0  0  0  0  0
    5.4294    0.7728   20.0649 C   0  0  0  0  0  0  0  0  0  0  0  0
    4.9080    0.7720   21.0247 H   0  0  0  0  0  0  0  0  0  0  0  0
    4.9004    1.4191   18.9523 C   0  0  0  0  0  0  0  0  0  0  0  0
    3.9713    1.9769   19.0081 H   0  0  0  0  0  0  0  0  0  0  0  0
  1  2  1  0
  2  3  2  0
  3  4  1  0
  4  5  1  0
  4  6  2  0
  6  7  1  0
  7  8  2  0
  7  9  1  0
  9 10  1  0
  9 11  1  0
 11 12  1  0
 12 13  2  0
 13 14  1  0
 13 15  1  0
 15 16  1  0
 15 17  2  0
 17 18  1  0
 17 19  1  0
 19 20  2  0
 20 21  1  0
 20 22  1  0
 22 23  1  0
 22 24  2  0
 24 25  1  0
 24 26  1  0
 26 27  1  0
 26 28  2  0
 11 29  1  0
 29 30  1  0
 29 31  1  0
 29 32  1  0
 11 33  1  0
 33 34  1  0
 33 35  1  0
 33 36  1  0
  6 37  1  0
 37 38  1  0
 37 39  2  0
 39 40  1  0
 39  2  1  0
 28 12  1  0
 28 19  1  0
M  END
>  <cnnaffinity>  (1) 
-5.81279

>  <filename>  (1) 
CC(C)(NC(=O)c1cccnc1)c1cccc2ccccc12

$$$$
