
     RDKit          3D

 37 38  0  0  0  0  0  0  0  0999 V2000
    4.9245    1.8003   16.9061 H   0  0  0  0  0  0  0  0  0  0  0  0
    5.3921    1.2907   17.7454 C   0  0  0  0  0  0  0  0  0  0  0  0
    6.5504    0.6682   17.4858 N   0  0  0  0  0  0  0  0  0  0  0  0
    7.1618    0.0597   18.5040 C   0  0  0  0  0  0  0  0  0  0  0  0
    8.1171   -0.4114   18.2798 H   0  0  0  0  0  0  0  0  0  0  0  0
    6.6511    0.0092   19.8035 C   0  0  0  0  0  0  0  0  0  0  0  0
    7.5400   -0.6815   20.7810 C   0  0  0  0  0  0  0  0  0  0  0  0
    8.7522   -0.7150   20.6360 O   0  0  0  0  0  0  0  0  0  0  0  0
    6.8984   -1.3041   21.8012 N   0  0  0  0  0  0  0  0  0  0  0  0
    5.9057   -1.1501   21.8451 H   0  0  0  0  0  0  0  0  0  0  0  0
    7.5447   -1.7730   23.0360 C   0  0  0  0  0  0  0  0  0  0  0  0
    8.5427   -2.8959   22.7508 C   0  0  0  0  0  0  0  0  0  0  0  0
    9.4262   -2.5109   22.2378 H   0  0  0  0  0  0  0  0  0  0  0  0
    8.8185   -3.3745   23.7070 H   0  0  0  0  0  0  0  0  0  0  0  0
    8.0684   -3.6534   22.1157 H   0  0  0  0  0  0  0  0  0  0  0  0
    8.2158   -0.5839   23.7482 C   0  0  0  0  0  0  0  0  0  0  0  0
    8.9801   -0.1468   23.0994 H   0  0  0  0  0  0  0  0  0  0  0  0
    8.6867   -0.8822   24.6904 H   0  0  0  0  0  0  0  0  0  0  0  0
    7.4757    0.1952   23.9747 H   0  0  0  0  0  0  0  0  0  0  0  0
    6.3880   -2.3372   23.8935 C   0  0  0  0  0  0  0  0  0  0  0  0
    5.7117   -1.4955   24.0027 H   0  0  0  0  0  0  0  0  0  0  0  0
    5.8875   -3.1363   23.3294 H   0  0  0  0  0  0  0  0  0  0  0  0
    6.6425   -2.7588   25.2901 C   0  0  0  0  0  0  0  0  0  0  0  0
    6.3460   -1.8575   26.3445 C   0  0  0  0  0  0  0  0  0  0  0  0
    6.0652   -0.8331   26.1177 H   0  0  0  0  0  0  0  0  0  0  0  0
    6.4293   -2.4248   27.6357 C   0  0  0  0  0  0  0  0  0  0  0  0
    5.6149   -2.2760   28.3654 H   0  0  0  0  0  0  0  0  0  0  0  0
    7.2335   -4.0599   27.6094 C   0  0  0  0  0  0  0  0  0  0  0  0
    8.3937   -4.0435   27.8540 H   0  0  0  0  0  0  0  0  0  0  0  0
    6.9394   -3.9884   27.4535 C   0  0  0  0  0  0  0  0  0  0  0  0
    6.6335   -4.9830   28.2122 H   0  0  0  0  0  0  0  0  0  0  0  0
    7.0666   -4.0985   25.7028 C   0  0  0  0  0  0  0  0  0  0  0  0
    5.8787   -5.3114   25.1809 Cl  0  0  0  0  0  0  0  0  0  0  0  0
    5.4309    0.6574   20.0676 C   0  0  0  0  0  0  0  0  0  0  0  0
    4.9940    0.6951   21.0711 H   0  0  0  0  0  0  0  0  0  0  0  0
    4.7988    1.3135   19.0126 C   0  0  0  0  0  0  0  0  0  0  0  0
    3.8672    1.8491   19.1562 H   0  0  0  0  0  0  0  0  0  0  0  0
  1  2  1  0
  2  3  2  0
  3  4  1  0
  4  5  1  0
  4  6  2  0
  6  7  1  0
  7  8  2  0
  7  9  1  0
  9 10  1  0
  9 11  1  0
 11 12  1  0
 12 13  1  0
 12 14  1  0
 12 15  1  0
 11 16  1  0
 16 17  1  0
 16 18  1  0
 16 19  1  0
 11 20  1  0
 20 21  1  0
 20 22  1  0
 20 23  1  0
 23 24  2  0
 24 25  1  0
 24 26  1  0
 26 27  1  0
 26 28  2  0
 28 29  1  0
 28 30  1  0
 30 31  1  0
 30 32  2  0
 32 33  1  0
  6 34  1  0
 34 35  1  0
 34 36  2  0
 36 37  1  0
 36  2  1  0
 32 23  1  0
M  END
>  <cnnaffinity>  (1) 
-5.05708

>  <filename>  (1) 
CC(C)(Cc1ccccc1Cl)NC(=O)c1cccnc1

$$$$
