
     RDKit          3D

 34 35  0  0  0  0  0  0  0  0999 V2000
    4.9008    1.8167   17.0162 H   0  0  0  0  0  0  0  0  0  0  0  0
    5.4105    1.2930   17.8187 C   0  0  0  0  0  0  0  0  0  0  0  0
    6.5717    0.6632   17.5659 N   0  0  0  0  0  0  0  0  0  0  0  0
    7.1853    0.0328   18.5908 C   0  0  0  0  0  0  0  0  0  0  0  0
    8.1340   -0.4597   18.3953 H   0  0  0  0  0  0  0  0  0  0  0  0
    6.6659    0.0029   19.9065 C   0  0  0  0  0  0  0  0  0  0  0  0
    7.3490   -0.7216   21.0746 C   0  0  0  0  0  0  0  0  0  0  0  0
    7.4079    0.1847   22.3513 C   0  0  0  0  0  0  0  0  0  0  0  0
    6.9783   -0.1885   23.4420 O   0  0  0  0  0  0  0  0  0  0  0  0
    8.0273    1.4221   22.2595 N   0  0  0  0  0  0  0  0  0  0  0  0
    8.1958    1.8103   21.3357 H   0  0  0  0  0  0  0  0  0  0  0  0
    8.3244    2.2207   23.3501 C   0  0  0  0  0  0  0  0  0  0  0  0
    8.6906    1.6605   24.5777 C   0  0  0  0  0  0  0  0  0  0  0  0
    8.7404    0.5751   24.6452 H   0  0  0  0  0  0  0  0  0  0  0  0
    9.0027    2.4914   25.6703 C   0  0  0  0  0  0  0  0  0  0  0  0
    9.2900    2.0368   26.6140 H   0  0  0  0  0  0  0  0  0  0  0  0
    8.9297    3.8905   25.5192 C   0  0  0  0  0  0  0  0  0  0  0  0
    9.2905    5.1482   26.9055 Br  0  0  0  0  0  0  0  0  0  0  0  0
    8.5694    4.4304   24.2909 C   0  0  0  0  0  0  0  0  0  0  0  0
    8.5185    5.5112   24.2102 H   0  0  0  0  0  0  0  0  0  0  0  0
    8.2767    3.6040   23.2042 C   0  0  0  0  0  0  0  0  0  0  0  0
    7.9949    4.0345   22.2491 H   0  0  0  0  0  0  0  0  0  0  0  0
    6.5477   -2.0246   21.3002 C   0  0  0  0  0  0  0  0  0  0  0  0
    6.5233   -2.6292   20.3846 H   0  0  0  0  0  0  0  0  0  0  0  0
    6.9996   -2.6261   22.0974 H   0  0  0  0  0  0  0  0  0  0  0  0
    5.5155   -1.7873   21.5781 H   0  0  0  0  0  0  0  0  0  0  0  0
    8.8031   -1.1262   20.7327 C   0  0  0  0  0  0  0  0  0  0  0  0
    9.2798   -1.5904   21.6062 H   0  0  0  0  0  0  0  0  0  0  0  0
    8.8224   -1.8464   19.9153 H   0  0  0  0  0  0  0  0  0  0  0  0
    9.3954   -0.2550   20.4273 H   0  0  0  0  0  0  0  0  0  0  0  0
    5.4518    0.6478   20.1442 C   0  0  0  0  0  0  0  0  0  0  0  0
    5.0161    0.6380   21.1411 H   0  0  0  0  0  0  0  0  0  0  0  0
    4.8294    1.2982   19.0858 C   0  0  0  0  0  0  0  0  0  0  0  0
    3.9000    1.8226   19.2413 H   0  0  0  0  0  0  0  0  0  0  0  0
  1  2  1  0
  2  3  2  0
  3  4  1  0
  4  5  1  0
  4  6  2  0
  6  7  1  0
  7  8  1  0
  8  9  2  0
  8 10  1  0
 10 11  1  0
 10 12  1  0
 12 13  2  0
 13 14  1  0
 13 15  1  0
 15 16  1  0
 15 17  2  0
 17 18  1  0
 17 19  1  0
 19 20  1  0
 19 21  2  0
 21 22  1  0
  7 23  1  0
 23 24  1  0
 23 25  1  0
 23 26  1  0
  7 27  1  0
 27 28  1  0
 27 29  1  0
 27 30  1  0
  6 31  1  0
 31 32  1  0
 31 33  2  0
 33 34  1  0
 33  2  1  0
 21 12  1  0
M  END
>  <cnnaffinity>  (1) 
-4.87187

>  <filename>  (1) 
CC(C)(C(=O)Nc1ccc(Br)cc1)c1cccnc1

$$$$
