
     RDKit          3D

 42 44  0  0  0  0  0  0  0  0999 V2000
    5.2393    1.7950   17.0282 H   0  0  0  0  0  0  0  0  0  0  0  0
    5.5833    1.2245   17.8913 C   0  0  0  0  0  0  0  0  0  0  0  0
    6.6759    0.4656   17.7131 N   0  0  0  0  0  0  0  0  0  0  0  0
    7.1323   -0.2408   18.7453 C   0  0  0  0  0  0  0  0  0  0  0  0
    8.0043   -0.8740   18.5674 H   0  0  0  0  0  0  0  0  0  0  0  0
    6.5237   -0.1836   19.9934 C   0  0  0  0  0  0  0  0  0  0  0  0
    7.3737   -1.0647   21.2503 S   0  0  0  0  0  0  0  0  0  0  0  0
    8.1084   -2.1387   20.5903 O   0  0  0  0  0  0  0  0  0  0  0  0
    6.3950   -1.3892   22.2819 O   0  0  0  0  0  0  0  0  0  0  0  0
    8.7791    0.1251   21.9995 C   0  0  0  0  0  0  0  0  0  0  0  0
    8.4327    1.4820   22.4747 N   0  0  0  0  0  0  0  0  0  0  0  0
    7.4817    1.6003   23.5921 C   0  0  0  0  0  0  0  0  0  0  0  0
    7.8320    0.9733   24.4220 H   0  0  0  0  0  0  0  0  0  0  0  0
    6.4843    1.1980   23.3232 H   0  0  0  0  0  0  0  0  0  0  0  0
    7.3146    3.0209   24.1293 C   0  0  0  0  0  0  0  0  0  0  0  0
    6.6246    3.2340   25.3322 C   0  0  0  0  0  0  0  0  0  0  0  0
    6.2620    2.3799   25.8994 H   0  0  0  0  0  0  0  0  0  0  0  0
    6.3956    4.5260   25.8133 C   0  0  0  0  0  0  0  0  0  0  0  0
    5.8598    4.6687   26.7464 H   0  0  0  0  0  0  0  0  0  0  0  0
    6.8457    5.6330   25.0869 C   0  0  0  0  0  0  0  0  0  0  0  0
    6.6546    6.6435   25.4411 H   0  0  0  0  0  0  0  0  0  0  0  0
    7.5471    5.4279   23.8984 C   0  0  0  0  0  0  0  0  0  0  0  0
    7.8996    6.2731   23.3131 H   0  0  0  0  0  0  0  0  0  0  0  0
    7.8008    4.1336   23.4251 C   0  0  0  0  0  0  0  0  0  0  0  0
    8.6155    3.9094   22.1774 C   0  0  0  0  0  0  0  0  0  0  0  0
    9.6838    3.9284   22.4320 H   0  0  0  0  0  0  0  0  0  0  0  0
    8.4335    4.7285   21.4740 H   0  0  0  0  0  0  0  0  0  0  0  0
    8.2908    2.5791   21.5086 C   0  0  0  0  0  0  0  0  0  0  0  0
    7.2761    2.6083   21.0771 H   0  0  0  0  0  0  0  0  0  0  0  0
    8.9799    2.4364   20.6805 H   0  0  0  0  0  0  0  0  0  0  0  0
    9.3322   -0.6978   23.1817 C   0  0  0  0  0  0  0  0  0  0  0  0
   10.1238   -0.1281   23.6850 H   0  0  0  0  0  0  0  0  0  0  0  0
    8.5422   -0.9386   23.8975 H   0  0  0  0  0  0  0  0  0  0  0  0
    9.7511   -1.6451   22.8284 H   0  0  0  0  0  0  0  0  0  0  0  0
    9.8535    0.2145   20.8990 C   0  0  0  0  0  0  0  0  0  0  0  0
   10.6727    0.8652   21.2313 H   0  0  0  0  0  0  0  0  0  0  0  0
    9.4449    0.6162   19.9702 H   0  0  0  0  0  0  0  0  0  0  0  0
   10.2573   -0.7720   20.6663 H   0  0  0  0  0  0  0  0  0  0  0  0
    5.3713    0.5733   20.2020 C   0  0  0  0  0  0  0  0  0  0  0  0
    4.8429    0.5972   21.1613 H   0  0  0  0  0  0  0  0  0  0  0  0
    4.8998    1.2983   19.1095 C   0  0  0  0  0  0  0  0  0  0  0  0
    4.0143    1.9199   19.1743 H   0  0  0  0  0  0  0  0  0  0  0  0
  1  2  1  0
  2  3  2  0
  3  4  1  0
  4  5  1  0
  4  6  2  0
  6  7  1  0
  7  8  2  0
  7  9  2  0
  7 10  1  0
 10 11  1  0
 11 12  1  0
 12 13  1  0
 12 14  1  0
 12 15  1  0
 15 16  2  0
 16 17  1  0
 16 18  1  0
 18 19  1  0
 18 20  2  0
 20 21  1  0
 20 22  1  0
 22 23  1  0
 22 24  2  0
 24 25  1  0
 25 26  1  0
 25 27  1  0
 25 28  1  0
 28 29  1  0
 28 30  1  0
 10 31  1  0
 31 32  1  0
 31 33  1  0
 31 34  1  0
 10 35  1  0
 35 36  1  0
 35 37  1  0
 35 38  1  0
  6 39  1  0
 39 40  1  0
 39 41  2  0
 41 42  1  0
 41  2  1  0
 28 11  1  0
 24 15  1  0
M  END
>  <cnnaffinity>  (1) 
-5.19072

>  <filename>  (1) 
CC(C)(N1CCc2ccccc2C1)S(=O)(=O)c1cccnc1

$$$$
