
     RDKit          3D

 30 31  0  0  0  0  0  0  0  0999 V2000
    4.9282    1.8041   16.9982 H   0  0  0  0  0  0  0  0  0  0  0  0
    5.3954    1.2844   17.8306 C   0  0  0  0  0  0  0  0  0  0  0  0
    6.5505    0.6551   17.5579 N   0  0  0  0  0  0  0  0  0  0  0  0
    7.1834    0.0451   18.5681 C   0  0  0  0  0  0  0  0  0  0  0  0
    8.1377   -0.4246   18.3432 H   0  0  0  0  0  0  0  0  0  0  0  0
    6.6883    0.0067   19.8928 C   0  0  0  0  0  0  0  0  0  0  0  0
    7.3627   -0.6598   20.9572 N   0  0  0  0  0  0  0  0  0  0  0  0
    6.7204   -1.4630   21.9278 C   0  0  0  0  0  0  0  0  0  0  0  0
    5.6641   -1.6613   21.9354 H   0  0  0  0  0  0  0  0  0  0  0  0
    7.6804   -1.9654   22.7287 C   0  0  0  0  0  0  0  0  0  0  0  0
    7.6125   -2.9131   23.7147 N   0  0  0  0  0  0  0  0  0  0  0  0
    6.6872   -2.9754   24.1158 H   0  0  0  0  0  0  0  0  0  0  0  0
    8.6800   -3.1923   24.6620 C   0  0  0  0  0  0  0  0  0  0  0  0
    9.5955   -3.4450   24.1067 H   0  0  0  0  0  0  0  0  0  0  0  0
    8.2446   -4.4031   25.4775 C   0  0  0  0  0  0  0  0  0  0  0  0
    7.9223   -5.2231   24.8322 H   0  0  0  0  0  0  0  0  0  0  0  0
    7.4103   -4.1273   26.1353 H   0  0  0  0  0  0  0  0  0  0  0  0
    9.0658   -4.7520   26.1102 H   0  0  0  0  0  0  0  0  0  0  0  0
    9.0033   -2.0345   25.6126 C   0  0  0  0  0  0  0  0  0  0  0  0
    8.0959   -1.6471   26.0906 H   0  0  0  0  0  0  0  0  0  0  0  0
    9.6580   -2.3952   26.4113 H   0  0  0  0  0  0  0  0  0  0  0  0
    9.5138   -1.2023   25.1242 H   0  0  0  0  0  0  0  0  0  0  0  0
    8.8877   -1.4752   22.3104 N   0  0  0  0  0  0  0  0  0  0  0  0
    9.7997   -1.7043   22.6462 H   0  0  0  0  0  0  0  0  0  0  0  0
    8.7464   -0.6892   21.1963 C   0  0  0  0  0  0  0  0  0  0  0  0
    9.6568   -0.1732   20.5844 O   0  0  0  0  0  0  0  0  0  0  0  0
    5.4673    0.6489   20.1504 C   0  0  0  0  0  0  0  0  0  0  0  0
    5.0673    0.6456   21.1665 H   0  0  0  0  0  0  0  0  0  0  0  0
    4.8101    1.3049   19.1029 C   0  0  0  0  0  0  0  0  0  0  0  0
    3.8747    1.8396   19.2627 H   0  0  0  0  0  0  0  0  0  0  0  0
  1  2  1  0
  2  3  2  0
  3  4  1  0
  4  5  1  0
  4  6  2  0
  6  7  1  0
  7  8  1  0
  8  9  1  0
  8 10  2  0
 10 11  1  0
 11 12  1  0
 11 13  1  0
 13 14  1  0
 13 15  1  0
 15 16  1  0
 15 17  1  0
 15 18  1  0
 13 19  1  0
 19 20  1  0
 19 21  1  0
 19 22  1  0
 10 23  1  0
 23 24  1  0
 23 25  1  0
 25 26  2  0
  6 27  1  0
 27 28  1  0
 27 29  2  0
 29 30  1  0
 29  2  1  0
 25  7  1  0
M  END
>  <cnnaffinity>  (1) 
-4.76591

>  <filename>  (1) 
CC(C)Nc1cn(-c2cccnc2)c(=O)[nH]1

$$$$
