
     RDKit          3D

 30 30  0  0  0  0  0  0  0  0999 V2000
    4.9973    1.6715   17.0733 H   0  0  0  0  0  0  0  0  0  0  0  0
    5.4990    1.2126   17.9233 C   0  0  0  0  0  0  0  0  0  0  0  0
    6.6699    0.6092   17.6712 N   0  0  0  0  0  0  0  0  0  0  0  0
    7.3126    0.0659   18.7036 C   0  0  0  0  0  0  0  0  0  0  0  0
    8.2681   -0.3935   18.4762 H   0  0  0  0  0  0  0  0  0  0  0  0
    6.8238    0.0433   20.0205 C   0  0  0  0  0  0  0  0  0  0  0  0
    7.7279   -0.6474   21.0248 C   0  0  0  0  0  0  0  0  0  0  0  0
    8.9290   -0.5769   20.8639 O   0  0  0  0  0  0  0  0  0  0  0  0
    7.1086   -1.5424   22.2346 C   0  0  0  0  0  0  0  0  0  0  0  0
    6.8164   -0.7534   23.4831 N   0  0  0  0  0  0  0  0  0  0  0  0
    6.1389    0.0056   23.4203 H   0  0  0  0  0  0  0  0  0  0  0  0
    6.0906   -1.3415   24.8715 S   0  0  0  0  0  0  0  0  0  0  0  0
    5.5161   -2.6667   24.7434 O   0  0  0  0  0  0  0  0  0  0  0  0
    5.2943   -0.1693   25.1912 O   0  0  0  0  0  0  0  0  0  0  0  0
    7.3999   -1.4860   26.0204 C   0  0  0  0  0  0  0  0  0  0  0  0
    7.8296   -0.5049   26.2109 H   0  0  0  0  0  0  0  0  0  0  0  0
    6.9389   -1.9064   26.9115 H   0  0  0  0  0  0  0  0  0  0  0  0
    8.1343   -2.1718   25.6091 H   0  0  0  0  0  0  0  0  0  0  0  0
    5.8588   -2.2692   21.7325 C   0  0  0  0  0  0  0  0  0  0  0  0
    6.1227   -2.9059   20.8833 H   0  0  0  0  0  0  0  0  0  0  0  0
    5.4292   -2.8816   22.5268 H   0  0  0  0  0  0  0  0  0  0  0  0
    5.0970   -1.5754   21.3793 H   0  0  0  0  0  0  0  0  0  0  0  0
    8.1518   -2.5819   22.6468 C   0  0  0  0  0  0  0  0  0  0  0  0
    8.4885   -3.1519   21.7777 H   0  0  0  0  0  0  0  0  0  0  0  0
    7.7311   -3.2865   23.3682 H   0  0  0  0  0  0  0  0  0  0  0  0
    9.0240   -2.1022   23.0909 H   0  0  0  0  0  0  0  0  0  0  0  0
    5.5964    0.6827   20.2686 C   0  0  0  0  0  0  0  0  0  0  0  0
    5.1608    0.7277   21.2701 H   0  0  0  0  0  0  0  0  0  0  0  0
    4.9270    1.2787   19.1957 C   0  0  0  0  0  0  0  0  0  0  0  0
    3.9803    1.7854   19.3394 H   0  0  0  0  0  0  0  0  0  0  0  0
  1  2  1  0
  2  3  2  0
  3  4  1  0
  4  5  1  0
  4  6  2  0
  6  7  1  0
  7  8  2  0
  7  9  1  0
  9 10  1  0
 10 11  1  0
 10 12  1  0
 12 13  2  0
 12 14  2  0
 12 15  1  0
 15 16  1  0
 15 17  1  0
 15 18  1  0
  9 19  1  0
 19 20  1  0
 19 21  1  0
 19 22  1  0
  9 23  1  0
 23 24  1  0
 23 25  1  0
 23 26  1  0
  6 27  1  0
 27 28  1  0
 27 29  2  0
 29 30  1  0
 29  2  1  0
M  END
>  <cnnaffinity>  (1) 
-4.52617

>  <filename>  (1) 
CC(C)(NS(C)(=O)=O)C(=O)c1cccnc1

$$$$
