
     RDKit          3D

 40 42  0  0  0  0  0  0  0  0999 V2000
    4.9178    1.8020   16.9783 H   0  0  0  0  0  0  0  0  0  0  0  0
    5.3925    1.2948   17.8157 C   0  0  0  0  0  0  0  0  0  0  0  0
    6.5490    0.6762   17.5500 N   0  0  0  0  0  0  0  0  0  0  0  0
    7.1672    0.0636   18.5726 C   0  0  0  0  0  0  0  0  0  0  0  0
    8.1145   -0.4119   18.3230 H   0  0  0  0  0  0  0  0  0  0  0  0
    6.6796    0.0247   19.8950 C   0  0  0  0  0  0  0  0  0  0  0  0
    7.3651   -0.7164   21.0631 C   0  0  0  0  0  0  0  0  0  0  0  0
    7.3953    0.1622   22.3828 C   0  0  0  0  0  0  0  0  0  0  0  0
    7.0166   -0.2631   23.4585 O   0  0  0  0  0  0  0  0  0  0  0  0
    7.9291    1.4299   22.2472 N   0  0  0  0  0  0  0  0  0  0  0  0
    8.1047    1.7544   21.3127 H   0  0  0  0  0  0  0  0  0  0  0  0
    7.9467    2.3887   23.2940 C   0  0  0  0  0  0  0  0  0  0  0  0
    8.5517    2.0295   24.4758 C   0  0  0  0  0  0  0  0  0  0  0  0
    8.9546    1.0247   24.5484 H   0  0  0  0  0  0  0  0  0  0  0  0
    8.6121    2.9355   25.5668 C   0  0  0  0  0  0  0  0  0  0  0  0
    9.0797    2.6039   26.4905 H   0  0  0  0  0  0  0  0  0  0  0  0
    8.0577    4.1887   25.4551 C   0  0  0  0  0  0  0  0  0  0  0  0
    8.0888    4.8854   26.2885 H   0  0  0  0  0  0  0  0  0  0  0  0
    7.4205    4.6051   24.2446 C   0  0  0  0  0  0  0  0  0  0  0  0
    6.8402    5.9052   24.1237 C   0  0  0  0  0  0  0  0  0  0  0  0
    6.9075    6.5765   24.9764 H   0  0  0  0  0  0  0  0  0  0  0  0
    6.2151    6.2988   22.9662 C   0  0  0  0  0  0  0  0  0  0  0  0
    5.7769    7.2904   22.8745 H   0  0  0  0  0  0  0  0  0  0  0  0
    6.1281    5.4001   21.8678 C   0  0  0  0  0  0  0  0  0  0  0  0
    5.6282    5.7365   20.9668 H   0  0  0  0  0  0  0  0  0  0  0  0
    6.6679    4.1328   21.9494 C   0  0  0  0  0  0  0  0  0  0  0  0
    6.5538    3.4412   21.1147 H   0  0  0  0  0  0  0  0  0  0  0  0
    7.3525    3.6976   23.1308 C   0  0  0  0  0  0  0  0  0  0  0  0
    6.5572   -2.0169   21.3168 C   0  0  0  0  0  0  0  0  0  0  0  0
    5.5258   -1.7977   21.6089 H   0  0  0  0  0  0  0  0  0  0  0  0
    6.5163   -2.6251   20.4062 H   0  0  0  0  0  0  0  0  0  0  0  0
    7.0083   -2.6144   22.1151 H   0  0  0  0  0  0  0  0  0  0  0  0
    8.8294   -1.1146   20.7474 C   0  0  0  0  0  0  0  0  0  0  0  0
    8.8767   -1.8542   19.9468 H   0  0  0  0  0  0  0  0  0  0  0  0
    9.2922   -1.5721   21.6289 H   0  0  0  0  0  0  0  0  0  0  0  0
    9.4427   -0.2629   20.4316 H   0  0  0  0  0  0  0  0  0  0  0  0
    5.4480    0.6542   20.1336 C   0  0  0  0  0  0  0  0  0  0  0  0
    5.0208    0.6367   21.1414 H   0  0  0  0  0  0  0  0  0  0  0  0
    4.8034    1.3081   19.0842 C   0  0  0  0  0  0  0  0  0  0  0  0
    3.8744    1.8378   19.2423 H   0  0  0  0  0  0  0  0  0  0  0  0
  1  2  1  0
  2  3  2  0
  3  4  1  0
  4  5  1  0
  4  6  2  0
  6  7  1  0
  7  8  1  0
  8  9  2  0
  8 10  1  0
 10 11  1  0
 10 12  1  0
 12 13  2  0
 13 14  1  0
 13 15  1  0
 15 16  1  0
 15 17  2  0
 17 18  1  0
 17 19  1  0
 19 20  2  0
 20 21  1  0
 20 22  1  0
 22 23  1  0
 22 24  2  0
 24 25  1  0
 24 26  1  0
 26 27  1  0
 26 28  2  0
  7 29  1  0
 29 30  1  0
 29 31  1  0
 29 32  1  0
  7 33  1  0
 33 34  1  0
 33 35  1  0
 33 36  1  0
  6 37  1  0
 37 38  1  0
 37 39  2  0
 39 40  1  0
 39  2  1  0
 28 12  1  0
 28 19  1  0
M  END
>  <cnnaffinity>  (1) 
-4.9659

>  <filename>  (1) 
CC(C)(C(=O)Nc1cccc2ccccc12)c1cccnc1

$$$$
