
     RDKit          3D

 35 36  0  0  0  0  0  0  0  0999 V2000
    4.9292    1.8102   16.9651 H   0  0  0  0  0  0  0  0  0  0  0  0
    5.3994    1.2979   17.8025 C   0  0  0  0  0  0  0  0  0  0  0  0
    6.5538    0.6716   17.5424 N   0  0  0  0  0  0  0  0  0  0  0  0
    7.1768    0.0678   18.5666 C   0  0  0  0  0  0  0  0  0  0  0  0
    8.1132   -0.4175   18.3002 H   0  0  0  0  0  0  0  0  0  0  0  0
    6.6991    0.0515   19.8956 C   0  0  0  0  0  0  0  0  0  0  0  0
    7.3797   -0.6938   21.0706 C   0  0  0  0  0  0  0  0  0  0  0  0
    7.3923    0.1482   22.4133 C   0  0  0  0  0  0  0  0  0  0  0  0
    6.9821   -0.3046   23.4534 O   0  0  0  0  0  0  0  0  0  0  0  0
    7.9228    1.4336   22.3349 N   0  0  0  0  0  0  0  0  0  0  0  0
    8.0150    1.8283   21.4227 H   0  0  0  0  0  0  0  0  0  0  0  0
    8.0207    2.3002   23.4190 C   0  0  0  0  0  0  0  0  0  0  0  0
    8.0761    1.9095   24.5588 O   0  0  0  0  0  0  0  0  0  0  0  0
    8.1346    3.8072   23.0927 C   0  0  0  0  0  0  0  0  0  0  0  0
    7.6091    4.4428   21.9460 C   0  0  0  0  0  0  0  0  0  0  0  0
    6.9337    3.9529   21.2482 H   0  0  0  0  0  0  0  0  0  0  0  0
    7.8556    5.8076   21.7385 C   0  0  0  0  0  0  0  0  0  0  0  0
    7.5280    6.2818   20.8164 H   0  0  0  0  0  0  0  0  0  0  0  0
    8.4756    6.5979   22.6230 N   0  0  0  0  0  0  0  0  0  0  0  0
    8.8748    6.0268   23.7673 C   0  0  0  0  0  0  0  0  0  0  0  0
    9.2837    6.7056   24.5124 H   0  0  0  0  0  0  0  0  0  0  0  0
    8.7481    4.6622   24.0417 C   0  0  0  0  0  0  0  0  0  0  0  0
    9.0945    4.2910   25.0034 H   0  0  0  0  0  0  0  0  0  0  0  0
    8.8391   -1.0947   20.7610 C   0  0  0  0  0  0  0  0  0  0  0  0
    8.8685   -1.8163   19.9455 H   0  0  0  0  0  0  0  0  0  0  0  0
    9.4659   -0.2470   20.4718 H   0  0  0  0  0  0  0  0  0  0  0  0
    9.3062   -1.5755   21.6261 H   0  0  0  0  0  0  0  0  0  0  0  0
    6.5695   -1.9976   21.3107 C   0  0  0  0  0  0  0  0  0  0  0  0
    6.5527   -2.5978   20.3968 H   0  0  0  0  0  0  0  0  0  0  0  0
    5.5343   -1.7794   21.5945 H   0  0  0  0  0  0  0  0  0  0  0  0
    7.0104   -2.5938   22.1164 H   0  0  0  0  0  0  0  0  0  0  0  0
    5.4604    0.6781   20.1215 C   0  0  0  0  0  0  0  0  0  0  0  0
    5.0174    0.6640   21.1202 H   0  0  0  0  0  0  0  0  0  0  0  0
    4.8046    1.3199   19.0681 C   0  0  0  0  0  0  0  0  0  0  0  0
    3.8592    1.8360   19.2133 H   0  0  0  0  0  0  0  0  0  0  0  0
  1  2  1  0
  2  3  2  0
  3  4  1  0
  4  5  1  0
  4  6  2  0
  6  7  1  0
  7  8  1  0
  8  9  2  0
  8 10  1  0
 10 11  1  0
 10 12  1  0
 12 13  2  0
 12 14  1  0
 14 15  2  0
 15 16  1  0
 15 17  1  0
 17 18  1  0
 17 19  2  0
 19 20  1  0
 20 21  1  0
 20 22  2  0
 22 23  1  0
  7 24  1  0
 24 25  1  0
 24 26  1  0
 24 27  1  0
  7 28  1  0
 28 29  1  0
 28 30  1  0
 28 31  1  0
  6 32  1  0
 32 33  1  0
 32 34  2  0
 34 35  1  0
 34  2  1  0
 22 14  1  0
M  END
>  <cnnaffinity>  (1) 
-4.97914

>  <filename>  (1) 
CC(C)(C(=O)NC(=O)c1ccncc1)c1cccnc1

$$$$
