
     RDKit          3D

 27 27  0  0  0  0  0  0  0  0999 V2000
    4.9110    1.7739   17.0036 H   0  0  0  0  0  0  0  0  0  0  0  0
    5.4001    1.2916   17.8456 C   0  0  0  0  0  0  0  0  0  0  0  0
    6.5684    0.6797   17.5754 N   0  0  0  0  0  0  0  0  0  0  0  0
    7.1821    0.0682   18.5916 C   0  0  0  0  0  0  0  0  0  0  0  0
    8.1284   -0.4278   18.3790 H   0  0  0  0  0  0  0  0  0  0  0  0
    6.6575    0.0075   19.8993 C   0  0  0  0  0  0  0  0  0  0  0  0
    7.4041   -0.6753   20.9711 C   0  0  0  0  0  0  0  0  0  0  0  0
    9.0003   -0.3831   21.1765 S   0  0  0  0  0  0  0  0  0  0  0  0
    6.6171   -1.6751   21.8537 C   0  0  0  0  0  0  0  0  0  0  0  0
    5.4986   -2.0224   21.5190 O   0  0  0  0  0  0  0  0  0  0  0  0
    7.3061   -2.2829   23.0524 C   0  0  0  0  0  0  0  0  0  0  0  0
    6.5201   -2.5642   23.7593 H   0  0  0  0  0  0  0  0  0  0  0  0
    7.9304   -1.5252   23.5374 H   0  0  0  0  0  0  0  0  0  0  0  0
    8.1523   -3.5198   22.6841 C   0  0  0  0  0  0  0  0  0  0  0  0
    8.8582   -3.2396   21.8894 H   0  0  0  0  0  0  0  0  0  0  0  0
    7.2833   -4.6635   22.1597 C   0  0  0  0  0  0  0  0  0  0  0  0
    6.7560   -4.3865   21.2440 H   0  0  0  0  0  0  0  0  0  0  0  0
    6.5303   -4.9516   22.9052 H   0  0  0  0  0  0  0  0  0  0  0  0
    7.8926   -5.5479   21.9459 H   0  0  0  0  0  0  0  0  0  0  0  0
    8.9669   -3.9703   23.8939 C   0  0  0  0  0  0  0  0  0  0  0  0
    8.3098   -4.2579   24.7240 H   0  0  0  0  0  0  0  0  0  0  0  0
    9.5878   -4.8356   23.6471 H   0  0  0  0  0  0  0  0  0  0  0  0
    9.6292   -3.1729   24.2450 H   0  0  0  0  0  0  0  0  0  0  0  0
    5.4354    0.6476   20.1589 C   0  0  0  0  0  0  0  0  0  0  0  0
    5.0045    0.6216   21.1606 H   0  0  0  0  0  0  0  0  0  0  0  0
    4.8029    1.3146   19.1101 C   0  0  0  0  0  0  0  0  0  0  0  0
    3.8715    1.8464   19.2639 H   0  0  0  0  0  0  0  0  0  0  0  0
  1  2  1  0
  2  3  2  0
  3  4  1  0
  4  5  1  0
  4  6  2  0
  6  7  1  0
  7  8  2  0
  7  9  1  0
  9 10  2  0
  9 11  1  0
 11 12  1  0
 11 13  1  0
 11 14  1  0
 14 15  1  0
 14 16  1  0
 16 17  1  0
 16 18  1  0
 16 19  1  0
 14 20  1  0
 20 21  1  0
 20 22  1  0
 20 23  1  0
  6 24  1  0
 24 25  1  0
 24 26  2  0
 26 27  1  0
 26  2  1  0
M  END
>  <cnnaffinity>  (1) 
-4.18784

>  <filename>  (1) 
CC(C)CC(=O)C(=S)c1cccnc1

$$$$
