
     RDKit          3D

 37 39  0  0  0  0  0  0  0  0999 V2000
    4.9300    1.8105   16.9684 H   0  0  0  0  0  0  0  0  0  0  0  0
    5.3860    1.3089   17.8144 C   0  0  0  0  0  0  0  0  0  0  0  0
    6.5531    0.6919   17.5639 N   0  0  0  0  0  0  0  0  0  0  0  0
    7.1568    0.1029   18.6022 C   0  0  0  0  0  0  0  0  0  0  0  0
    8.1045   -0.3908   18.3825 H   0  0  0  0  0  0  0  0  0  0  0  0
    6.6490    0.0861   19.9217 C   0  0  0  0  0  0  0  0  0  0  0  0
    7.3429   -0.6147   21.0320 C   0  0  0  0  0  0  0  0  0  0  0  0
    7.7073   -1.9968   20.9806 C   0  0  0  0  0  0  0  0  0  0  0  0
    7.4328   -2.6352   20.1559 H   0  0  0  0  0  0  0  0  0  0  0  0
    8.2904   -2.5255   22.0178 N   0  0  0  0  0  0  0  0  0  0  0  0
    8.4151   -1.3621   23.1992 S   0  0  0  0  0  0  0  0  0  0  0  0
    7.6410   -0.1204   22.2898 C   0  0  0  0  0  0  0  0  0  0  0  0
    7.3512    1.2011   22.8589 C   0  0  0  0  0  0  0  0  0  0  0  0
    7.5213    2.3443   22.0674 C   0  0  0  0  0  0  0  0  0  0  0  0
    7.8444    2.2140   21.0362 H   0  0  0  0  0  0  0  0  0  0  0  0
    7.2378    3.6151   22.5614 C   0  0  0  0  0  0  0  0  0  0  0  0
    7.3624    4.4816   21.9209 H   0  0  0  0  0  0  0  0  0  0  0  0
    6.7806    3.7509   23.8826 C   0  0  0  0  0  0  0  0  0  0  0  0
    6.4976    4.9191   24.5096 O   0  0  0  0  0  0  0  0  0  0  0  0
    6.5043    6.1505   23.7899 C   0  0  0  0  0  0  0  0  0  0  0  0
    7.4170    6.2011   23.1788 H   0  0  0  0  0  0  0  0  0  0  0  0
    6.5521    7.2330   24.8492 C   0  0  0  0  0  0  0  0  0  0  0  0
    7.4340    7.1272   25.4844 H   0  0  0  0  0  0  0  0  0  0  0  0
    6.5730    8.2209   24.3827 H   0  0  0  0  0  0  0  0  0  0  0  0
    5.6666    7.1646   25.4868 H   0  0  0  0  0  0  0  0  0  0  0  0
    5.2714    6.2774   22.9061 C   0  0  0  0  0  0  0  0  0  0  0  0
    5.2788    7.2540   22.4135 H   0  0  0  0  0  0  0  0  0  0  0  0
    5.2269    5.5068   22.1316 H   0  0  0  0  0  0  0  0  0  0  0  0
    4.3630    6.1944   23.5116 H   0  0  0  0  0  0  0  0  0  0  0  0
    6.6087    2.6144   24.6906 C   0  0  0  0  0  0  0  0  0  0  0  0
    6.2503    2.7755   25.7044 H   0  0  0  0  0  0  0  0  0  0  0  0
    6.8896    1.3542   24.1875 C   0  0  0  0  0  0  0  0  0  0  0  0
    6.7310    0.4734   24.8051 H   0  0  0  0  0  0  0  0  0  0  0  0
    5.4107    0.7144   20.1410 C   0  0  0  0  0  0  0  0  0  0  0  0
    4.9845    0.7058   21.1457 H   0  0  0  0  0  0  0  0  0  0  0  0
    4.7705    1.3362   19.0697 C   0  0  0  0  0  0  0  0  0  0  0  0
    3.8230    1.8507   19.1965 H   0  0  0  0  0  0  0  0  0  0  0  0
  1  2  1  0
  2  3  2  0
  3  4  1  0
  4  5  1  0
  4  6  2  0
  6  7  1  0
  7  8  1  0
  8  9  1  0
  8 10  2  0
 10 11  1  0
 11 12  1  0
 12 13  1  0
 13 14  2  0
 14 15  1  0
 14 16  1  0
 16 17  1  0
 16 18  2  0
 18 19  1  0
 19 20  1  0
 20 21  1  0
 20 22  1  0
 22 23  1  0
 22 24  1  0
 22 25  1  0
 20 26  1  0
 26 27  1  0
 26 28  1  0
 26 29  1  0
 18 30  1  0
 30 31  1  0
 30 32  2  0
 32 33  1  0
  6 34  1  0
 34 35  1  0
 34 36  2  0
 36 37  1  0
 36  2  1  0
 12  7  2  0
 32 13  1  0
M  END
>  <cnnaffinity>  (1) 
-5.23581

>  <filename>  (1) 
CC(C)Oc1ccc(-c2sncc2-c2cccnc2)cc1

$$$$
