
     RDKit          3D

 45 46  0  0  0  0  0  0  0  0999 V2000
    8.8323   -1.1216   20.7486 C   0  0  0  0  0  0  0  0  0  0  0  0
    7.3700   -0.7268   21.0684 C   0  0  0  0  0  0  0  0  0  0  0  0
    6.5528   -2.0161   21.3216 C   0  0  0  0  0  0  0  0  0  0  0  0
    6.5179   -2.6104   20.4036 H   0  0  0  0  0  0  0  0  0  0  0  0
    5.5211   -1.7898   21.6097 H   0  0  0  0  0  0  0  0  0  0  0  0
    7.0019   -2.6176   22.1163 H   0  0  0  0  0  0  0  0  0  0  0  0
    7.4106    0.1496   22.3777 C   0  0  0  0  0  0  0  0  0  0  0  0
    7.0407   -0.2602   23.4676 O   0  0  0  0  0  0  0  0  0  0  0  0
    7.9573    1.3937   22.2307 N   0  0  0  0  0  0  0  0  0  0  0  0
    7.7825    2.4166   23.2509 C   0  0  0  0  0  0  0  0  0  0  0  0
    6.3279    2.8833   23.4180 C   0  0  0  0  0  0  0  0  0  0  0  0
    6.1608    3.9198   24.5333 C   0  0  0  0  0  0  0  0  0  0  0  0
    4.7029    4.3763   24.7098 C   0  0  0  0  0  0  0  0  0  0  0  0
    4.5575    5.3991   25.8132 C   0  0  0  0  0  0  0  0  0  0  0  0
    4.3551    5.0092   27.1436 C   0  0  0  0  0  0  0  0  0  0  0  0
    4.3015    5.9907   28.1398 C   0  0  0  0  0  0  0  0  0  0  0  0
    4.4449    7.2997   27.8969 N   0  0  0  0  0  0  0  0  0  0  0  0
    4.6487    7.6706   26.6262 C   0  0  0  0  0  0  0  0  0  0  0  0
    4.7185    6.7675   25.5595 C   0  0  0  0  0  0  0  0  0  0  0  0
    4.9055    7.1368   24.5547 H   0  0  0  0  0  0  0  0  0  0  0  0
    4.7650    8.7419   26.4539 H   0  0  0  0  0  0  0  0  0  0  0  0
    4.1389    5.7132   29.1826 H   0  0  0  0  0  0  0  0  0  0  0  0
    4.2500    3.9626   27.4158 H   0  0  0  0  0  0  0  0  0  0  0  0
    4.3366    4.7972   23.7634 H   0  0  0  0  0  0  0  0  0  0  0  0
    4.0717    3.5044   24.9283 H   0  0  0  0  0  0  0  0  0  0  0  0
    6.7877    4.8010   24.3304 H   0  0  0  0  0  0  0  0  0  0  0  0
    6.5211    3.5098   25.4891 H   0  0  0  0  0  0  0  0  0  0  0  0
    5.9589    3.3008   22.4696 H   0  0  0  0  0  0  0  0  0  0  0  0
    5.7020    2.0062   23.6385 H   0  0  0  0  0  0  0  0  0  0  0  0
    8.4324    3.2625   22.9937 H   0  0  0  0  0  0  0  0  0  0  0  0
    8.1335    2.0030   24.2054 H   0  0  0  0  0  0  0  0  0  0  0  0
    8.1163    1.6762   21.2803 H   0  0  0  0  0  0  0  0  0  0  0  0
    6.6875    0.0227   19.8966 C   0  0  0  0  0  0  0  0  0  0  0  0
    5.4532    0.6547   20.1246 C   0  0  0  0  0  0  0  0  0  0  0  0
    4.8030    1.3111   19.0764 C   0  0  0  0  0  0  0  0  0  0  0  0
    5.3951    1.2959   17.8075 C   0  0  0  0  0  0  0  0  0  0  0  0
    6.5511    0.6718   17.5462 N   0  0  0  0  0  0  0  0  0  0  0  0
    7.1713    0.0624   18.5704 C   0  0  0  0  0  0  0  0  0  0  0  0
    8.1133   -0.4128   18.3075 H   0  0  0  0  0  0  0  0  0  0  0  0
    4.9225    1.8103   16.9704 H   0  0  0  0  0  0  0  0  0  0  0  0
    3.8668    1.8405   19.2316 H   0  0  0  0  0  0  0  0  0  0  0  0
    5.0102    0.6300   21.1230 H   0  0  0  0  0  0  0  0  0  0  0  0
    8.8694   -1.8473   19.9380 H   0  0  0  0  0  0  0  0  0  0  0  0
    9.2928   -1.5906   21.6217 H   0  0  0  0  0  0  0  0  0  0  0  0
    9.4513   -0.2687   20.4497 H   0  0  0  0  0  0  0  0  0  0  0  0
  1  2  1  0
  2  3  1  0
  3  4  1  0
  3  5  1  0
  3  6  1  0
  2  7  1  0
  7  8  2  0
  7  9  1  0
  9 10  1  0
 10 11  1  0
 11 12  1  0
 12 13  1  0
 13 14  1  0
 14 15  2  0
 15 16  1  0
 16 17  2  0
 17 18  1  0
 18 19  2  0
 19 20  1  0
 18 21  1  0
 16 22  1  0
 15 23  1  0
 13 24  1  0
 13 25  1  0
 12 26  1  0
 12 27  1  0
 11 28  1  0
 11 29  1  0
 10 30  1  0
 10 31  1  0
  9 32  1  0
  2 33  1  0
 33 34  2  0
 34 35  1  0
 35 36  2  0
 36 37  1  0
 37 38  2  0
 38 39  1  0
 36 40  1  0
 35 41  1  0
 34 42  1  0
  1 43  1  0
  1 44  1  0
  1 45  1  0
 19 14  1  0
 38 33  1  0
M  END
>  <cnnaffinity>  (1) 
-4.50424

>  <filename>  (1) 
CC(C)(C(=O)NCCCCc1ccncc1)c1cccnc1

$$$$
