
     RDKit          3D

 34 35  0  0  0  0  0  0  0  0999 V2000
    4.9917    1.7717   17.0248 H   0  0  0  0  0  0  0  0  0  0  0  0
    5.4247    1.2548   17.8765 C   0  0  0  0  0  0  0  0  0  0  0  0
    6.5838    0.6198   17.6520 N   0  0  0  0  0  0  0  0  0  0  0  0
    7.1562    0.0053   18.6888 C   0  0  0  0  0  0  0  0  0  0  0  0
    8.1204   -0.4679   18.5065 H   0  0  0  0  0  0  0  0  0  0  0  0
    6.5865   -0.0487   19.9651 C   0  0  0  0  0  0  0  0  0  0  0  0
    7.4077   -0.7625   20.9784 C   0  0  0  0  0  0  0  0  0  0  0  0
    8.6273   -0.8216   20.8797 O   0  0  0  0  0  0  0  0  0  0  0  0
    6.7367   -1.3478   21.9886 N   0  0  0  0  0  0  0  0  0  0  0  0
    5.7385   -1.3845   22.0032 H   0  0  0  0  0  0  0  0  0  0  0  0
    7.3735   -1.8627   23.1715 C   0  0  0  0  0  0  0  0  0  0  0  0
    8.2616   -2.4478   22.8913 H   0  0  0  0  0  0  0  0  0  0  0  0
    6.3345   -2.6907   23.7564 N   0  0  0  0  0  0  0  0  0  0  0  0
    6.2082   -2.6432   24.7508 H   0  0  0  0  0  0  0  0  0  0  0  0
    6.0797   -3.9508   23.2915 C   0  0  0  0  0  0  0  0  0  0  0  0
    6.6438   -4.4443   22.3298 O   0  0  0  0  0  0  0  0  0  0  0  0
    5.0396   -4.7051   24.0557 C   0  0  0  0  0  0  0  0  0  0  0  0
    5.0135   -6.0828   23.8058 C   0  0  0  0  0  0  0  0  0  0  0  0
    5.7427   -6.5255   23.1278 H   0  0  0  0  0  0  0  0  0  0  0  0
    4.1255   -6.9160   24.3513 N   0  0  0  0  0  0  0  0  0  0  0  0
    3.2041   -6.3950   25.1697 C   0  0  0  0  0  0  0  0  0  0  0  0
    2.4781   -7.0943   25.5774 H   0  0  0  0  0  0  0  0  0  0  0  0
    3.1361   -5.0354   25.4901 C   0  0  0  0  0  0  0  0  0  0  0  0
    2.3569   -4.6731   26.1528 H   0  0  0  0  0  0  0  0  0  0  0  0
    4.0731   -4.1699   24.9288 C   0  0  0  0  0  0  0  0  0  0  0  0
    4.0146   -3.1010   25.1494 H   0  0  0  0  0  0  0  0  0  0  0  0
    7.7923   -0.7505   24.1194 C   0  0  0  0  0  0  0  0  0  0  0  0
    8.4888   -0.0781   23.6110 H   0  0  0  0  0  0  0  0  0  0  0  0
    6.9162   -0.1735   24.4319 H   0  0  0  0  0  0  0  0  0  0  0  0
    8.2942   -1.1462   25.0062 H   0  0  0  0  0  0  0  0  0  0  0  0
    5.3772    0.6258   20.1957 C   0  0  0  0  0  0  0  0  0  0  0  0
    4.9193    0.6822   21.1881 H   0  0  0  0  0  0  0  0  0  0  0  0
    4.7874    1.2891   19.1219 C   0  0  0  0  0  0  0  0  0  0  0  0
    3.8682    1.8517   19.2421 H   0  0  0  0  0  0  0  0  0  0  0  0
  1  2  1  0
  2  3  2  0
  3  4  1  0
  4  5  1  0
  4  6  2  0
  6  7  1  0
  7  8  2  0
  7  9  1  0
  9 10  1  0
  9 11  1  0
 11 12  1  0
 11 13  1  0
 13 14  1  0
 13 15  1  0
 15 16  2  0
 15 17  1  0
 17 18  2  0
 18 19  1  0
 18 20  1  0
 20 21  2  0
 21 22  1  0
 21 23  1  0
 23 24  1  0
 23 25  2  0
 25 26  1  0
 11 27  1  0
 27 28  1  0
 27 29  1  0
 27 30  1  0
  6 31  1  0
 31 32  1  0
 31 33  2  0
 33 34  1  0
 33  2  1  0
 25 17  1  0
M  END
>  <cnnaffinity>  (1) 
-4.89051

>  <filename>  (1) 
CC(NC(=O)c1cccnc1)NC(=O)c1cccnc1

$$$$
