
     RDKit          3D

 35 37  0  0  0  0  0  0  0  0999 V2000
    7.2181   -2.9325   23.1814 C   0  0  0  0  0  0  0  0  0  0  0  0
    7.3958   -1.4251   23.3410 C   0  0  0  0  0  0  0  0  0  0  0  0
    6.8112   -0.7126   22.1924 O   0  0  0  0  0  0  0  0  0  0  0  0
    7.4270   -0.7295   20.9796 C   0  0  0  0  0  0  0  0  0  0  0  0
    8.4887   -1.2668   20.7598 O   0  0  0  0  0  0  0  0  0  0  0  0
    6.6457    0.0076   19.9389 C   0  0  0  0  0  0  0  0  0  0  0  0
    5.4237    0.6587   20.1773 C   0  0  0  0  0  0  0  0  0  0  0  0
    4.8025    1.3101   19.1129 C   0  0  0  0  0  0  0  0  0  0  0  0
    5.4118    1.2841   17.8506 C   0  0  0  0  0  0  0  0  0  0  0  0
    6.5756    0.6623   17.6102 N   0  0  0  0  0  0  0  0  0  0  0  0
    7.1735    0.0509   18.6398 C   0  0  0  0  0  0  0  0  0  0  0  0
    8.1175   -0.4316   18.4022 H   0  0  0  0  0  0  0  0  0  0  0  0
    4.9283    1.7716   17.0022 H   0  0  0  0  0  0  0  0  0  0  0  0
    3.8693    1.8465   19.2580 H   0  0  0  0  0  0  0  0  0  0  0  0
    4.9857    0.6420   21.1782 H   0  0  0  0  0  0  0  0  0  0  0  0
    6.7626   -0.8737   24.6408 C   0  0  0  0  0  0  0  0  0  0  0  0
    5.9880   -1.6700   25.3715 N   0  0  0  0  0  0  0  0  0  0  0  0
    5.4188   -1.1933   26.5113 C   0  0  0  0  0  0  0  0  0  0  0  0
    5.6293    0.0693   26.9946 C   0  0  0  0  0  0  0  0  0  0  0  0
    6.4785    0.9514   26.2720 C   0  0  0  0  0  0  0  0  0  0  0  0
    6.7290    2.2762   26.7249 C   0  0  0  0  0  0  0  0  0  0  0  0
    7.5421    3.1189   26.0050 C   0  0  0  0  0  0  0  0  0  0  0  0
    8.1436    2.6696   24.7960 C   0  0  0  0  0  0  0  0  0  0  0  0
    7.9207    1.3895   24.3304 C   0  0  0  0  0  0  0  0  0  0  0  0
    7.0723    0.4872   25.0571 C   0  0  0  0  0  0  0  0  0  0  0  0
    8.3846    1.0687   23.3979 H   0  0  0  0  0  0  0  0  0  0  0  0
    8.7802    3.3475   24.2341 H   0  0  0  0  0  0  0  0  0  0  0  0
    7.7250    4.1307   26.3555 H   0  0  0  0  0  0  0  0  0  0  0  0
    6.2541    2.5978   27.6512 H   0  0  0  0  0  0  0  0  0  0  0  0
    5.1608    0.4003   27.9186 H   0  0  0  0  0  0  0  0  0  0  0  0
    4.7726   -1.8904   27.0323 H   0  0  0  0  0  0  0  0  0  0  0  0
    8.4717   -1.1970   23.3567 H   0  0  0  0  0  0  0  0  0  0  0  0
    6.1519   -3.1707   23.1424 H   0  0  0  0  0  0  0  0  0  0  0  0
    7.6328   -3.4322   24.0637 H   0  0  0  0  0  0  0  0  0  0  0  0
    7.7286   -3.2902   22.2869 H   0  0  0  0  0  0  0  0  0  0  0  0
  1  2  1  0
  2  3  1  0
  3  4  1  0
  4  5  2  0
  4  6  1  0
  6  7  2  0
  7  8  1  0
  8  9  2  0
  9 10  1  0
 10 11  2  0
 11 12  1  0
  9 13  1  0
  8 14  1  0
  7 15  1  0
  2 16  1  0
 16 17  2  0
 17 18  1  0
 18 19  2  0
 19 20  1  0
 20 21  2  0
 21 22  1  0
 22 23  2  0
 23 24  1  0
 24 25  2  0
 24 26  1  0
 23 27  1  0
 22 28  1  0
 21 29  1  0
 19 30  1  0
 18 31  1  0
  2 32  1  0
  1 33  1  0
  1 34  1  0
  1 35  1  0
 11  6  1  0
 25 16  1  0
 25 20  1  0
M  END
>  <cnnaffinity>  (1) 
-4.9159

>  <filename>  (1) 
CC(OC(=O)c1cccnc1)c1nccc2ccccc12

$$$$
