
     RDKit          3D

 42 45  0  0  0  0  0  0  0  0999 V2000
   14.2568   -1.7890   22.0306 C   0  0  0  0  0  0  0  0  0  0  0  0
   13.2458   -0.7564   22.4578 C   0  0  0  0  0  0  0  0  0  0  0  0
   13.4975    0.0345   23.6024 C   0  0  0  0  0  0  0  0  0  0  0  0
   12.5323    0.8728   24.1579 C   0  0  0  0  0  0  0  0  0  0  0  0
   11.3039    0.9637   23.4980 C   0  0  0  0  0  0  0  0  0  0  0  0
   10.0016    1.6130   23.8472 C   0  0  0  0  0  0  0  0  0  0  0  0
    9.6158    2.0743   24.8939 O   0  0  0  0  0  0  0  0  0  0  0  0
    9.2153    1.5611   22.6961 N   0  0  0  0  0  0  0  0  0  0  0  0
    7.7595    1.6523   22.7183 C   0  0  0  0  0  0  0  0  0  0  0  0
    7.1148    0.3416   23.1551 C   0  0  0  0  0  0  0  0  0  0  0  0
    6.7593    0.1509   24.5042 C   0  0  0  0  0  0  0  0  0  0  0  0
    6.2950   -1.0808   24.9776 C   0  0  0  0  0  0  0  0  0  0  0  0
    6.1732   -2.1604   24.0978 C   0  0  0  0  0  0  0  0  0  0  0  0
    6.5093   -1.9957   22.7517 C   0  0  0  0  0  0  0  0  0  0  0  0
    6.9537   -0.7554   22.2814 C   0  0  0  0  0  0  0  0  0  0  0  0
    7.2948   -0.7350   20.9429 O   0  0  0  0  0  0  0  0  0  0  0  0
    6.6205   -0.0006   20.0029 C   0  0  0  0  0  0  0  0  0  0  0  0
    5.3870    0.6285   20.1990 C   0  0  0  0  0  0  0  0  0  0  0  0
    4.8161    1.3002   19.1063 C   0  0  0  0  0  0  0  0  0  0  0  0
    5.4780    1.2999   17.8753 C   0  0  0  0  0  0  0  0  0  0  0  0
    6.6569    0.6849   17.6785 N   0  0  0  0  0  0  0  0  0  0  0  0
    7.2144    0.0650   18.7264 C   0  0  0  0  0  0  0  0  0  0  0  0
    8.1737   -0.4203   18.5648 H   0  0  0  0  0  0  0  0  0  0  0  0
    5.0499    1.7999   17.0079 H   0  0  0  0  0  0  0  0  0  0  0  0
    3.8734    1.8297   19.1988 H   0  0  0  0  0  0  0  0  0  0  0  0
    4.9095    0.6007   21.1798 H   0  0  0  0  0  0  0  0  0  0  0  0
    6.4220   -2.8019   22.0310 H   0  0  0  0  0  0  0  0  0  0  0  0
    5.8008   -3.1191   24.4522 H   0  0  0  0  0  0  0  0  0  0  0  0
    6.0289   -1.1951   26.0253 H   0  0  0  0  0  0  0  0  0  0  0  0
    6.8669    0.9812   25.1996 H   0  0  0  0  0  0  0  0  0  0  0  0
    7.4743    2.4618   23.3954 H   0  0  0  0  0  0  0  0  0  0  0  0
    7.4403    1.9395   21.7143 H   0  0  0  0  0  0  0  0  0  0  0  0
    9.8796    0.8963   21.6678 C   0  0  0  0  0  0  0  0  0  0  0  0
    9.4870    0.8485   20.5312 O   0  0  0  0  0  0  0  0  0  0  0  0
   11.1404    0.3675   22.2472 C   0  0  0  0  0  0  0  0  0  0  0  0
   12.0623   -0.5432   21.7361 C   0  0  0  0  0  0  0  0  0  0  0  0
   11.8966   -1.0355   20.7757 H   0  0  0  0  0  0  0  0  0  0  0  0
   12.7537    1.4075   25.0746 H   0  0  0  0  0  0  0  0  0  0  0  0
   14.4776   -0.0380   24.0609 H   0  0  0  0  0  0  0  0  0  0  0  0
   14.9872   -1.9623   22.8260 H   0  0  0  0  0  0  0  0  0  0  0  0
   13.8014   -2.7622   21.8241 H   0  0  0  0  0  0  0  0  0  0  0  0
   14.7884   -1.4740   21.1289 H   0  0  0  0  0  0  0  0  0  0  0  0
  1  2  1  0
  2  3  2  0
  3  4  1  0
  4  5  2  0
  5  6  1  0
  6  7  2  0
  6  8  1  0
  8  9  1  0
  9 10  1  0
 10 11  2  0
 11 12  1  0
 12 13  2  0
 13 14  1  0
 14 15  2  0
 15 16  1  0
 16 17  1  0
 17 18  2  0
 18 19  1  0
 19 20  2  0
 20 21  1  0
 21 22  2  0
 22 23  1  0
 20 24  1  0
 19 25  1  0
 18 26  1  0
 14 27  1  0
 13 28  1  0
 12 29  1  0
 11 30  1  0
  9 31  1  0
  9 32  1  0
  8 33  1  0
 33 34  2  0
 33 35  1  0
 35 36  2  0
 36 37  1  0
  4 38  1  0
  3 39  1  0
  1 40  1  0
  1 41  1  0
  1 42  1  0
 36  2  1  0
 35  5  1  0
 15 10  1  0
 22 17  1  0
M  END
>  <cnnaffinity>  (1) 
-5.70538

>  <filename>  (1) 
Cc1ccc2c(c1)C(=O)N(Cc1ccccc1Oc1cccnc1)C2=O

$$$$
