
     RDKit          3D

 32 34  0  0  0  0  0  0  0  0999 V2000
    4.9179    1.8045   16.9653 H   0  0  0  0  0  0  0  0  0  0  0  0
    5.3899    1.3061   17.8125 C   0  0  0  0  0  0  0  0  0  0  0  0
    6.5548    0.6872   17.5587 N   0  0  0  0  0  0  0  0  0  0  0  0
    7.1700    0.0754   18.5798 C   0  0  0  0  0  0  0  0  0  0  0  0
    8.1052   -0.4189   18.3228 H   0  0  0  0  0  0  0  0  0  0  0  0
    6.6699    0.0263   19.8950 C   0  0  0  0  0  0  0  0  0  0  0  0
    7.3421   -0.6937   20.9821 C   0  0  0  0  0  0  0  0  0  0  0  0
    6.8202   -1.2332   22.1008 C   0  0  0  0  0  0  0  0  0  0  0  0
    5.8042   -1.2937   22.4084 H   0  0  0  0  0  0  0  0  0  0  0  0
    7.8324   -1.8319   22.8333 N   0  0  0  0  0  0  0  0  0  0  0  0
    7.6243   -2.4823   24.0863 C   0  0  0  0  0  0  0  0  0  0  0  0
    8.4678   -2.2053   25.1648 C   0  0  0  0  0  0  0  0  0  0  0  0
    9.2784   -1.4935   25.0298 H   0  0  0  0  0  0  0  0  0  0  0  0
    8.2685   -2.8752   26.3744 C   0  0  0  0  0  0  0  0  0  0  0  0
    8.9393   -2.6774   27.2045 H   0  0  0  0  0  0  0  0  0  0  0  0
    7.2346   -3.8132   26.5315 C   0  0  0  0  0  0  0  0  0  0  0  0
    7.0062   -4.5297   27.8432 C   0  0  0  0  0  0  0  0  0  0  0  0
    6.2737   -3.9999   28.4629 H   0  0  0  0  0  0  0  0  0  0  0  0
    7.9332   -4.6286   28.4174 H   0  0  0  0  0  0  0  0  0  0  0  0
    6.5952   -5.5352   27.7030 H   0  0  0  0  0  0  0  0  0  0  0  0
    6.3874   -4.0510   25.4391 C   0  0  0  0  0  0  0  0  0  0  0  0
    5.5718   -4.7580   25.5572 H   0  0  0  0  0  0  0  0  0  0  0  0
    6.5684   -3.3905   24.2240 C   0  0  0  0  0  0  0  0  0  0  0  0
    5.9075   -3.5781   23.3807 H   0  0  0  0  0  0  0  0  0  0  0  0
    9.0252   -1.6827   22.1608 C   0  0  0  0  0  0  0  0  0  0  0  0
   10.5742   -2.1784   22.4908 S   0  0  0  0  0  0  0  0  0  0  0  0
    8.6905   -0.9971   21.0336 N   0  0  0  0  0  0  0  0  0  0  0  0
    9.4292   -0.7226   20.4091 H   0  0  0  0  0  0  0  0  0  0  0  0
    5.4402    0.6698   20.1316 C   0  0  0  0  0  0  0  0  0  0  0  0
    5.0097    0.6639   21.1323 H   0  0  0  0  0  0  0  0  0  0  0  0
    4.7966    1.3238   19.0792 C   0  0  0  0  0  0  0  0  0  0  0  0
    3.8623    1.8530   19.2278 H   0  0  0  0  0  0  0  0  0  0  0  0
  1  2  1  0
  2  3  2  0
  3  4  1  0
  4  5  1  0
  4  6  2  0
  6  7  1  0
  7  8  2  0
  8  9  1  0
  8 10  1  0
 10 11  1  0
 11 12  2  0
 12 13  1  0
 12 14  1  0
 14 15  1  0
 14 16  2  0
 16 17  1  0
 17 18  1  0
 17 19  1  0
 17 20  1  0
 16 21  1  0
 21 22  1  0
 21 23  2  0
 23 24  1  0
 10 25  1  0
 25 26  2  0
 25 27  1  0
 27 28  1  0
  6 29  1  0
 29 30  1  0
 29 31  2  0
 31 32  1  0
 31  2  1  0
 27  7  1  0
 23 11  1  0
M  END
>  <cnnaffinity>  (1) 
-5.49296

>  <filename>  (1) 
Cc1ccc(-n2cc(-c3cccnc3)[nH]c2=S)cc1

$$$$
