
     RDKit          3D

 30 32  0  0  0  0  0  0  0  0999 V2000
    4.9138    1.7747   17.0039 H   0  0  0  0  0  0  0  0  0  0  0  0
    5.4041    1.2919   17.8450 C   0  0  0  0  0  0  0  0  0  0  0  0
    6.5715    0.6809   17.5835 N   0  0  0  0  0  0  0  0  0  0  0  0
    7.1752    0.0545   18.5963 C   0  0  0  0  0  0  0  0  0  0  0  0
    8.1229   -0.4363   18.3769 H   0  0  0  0  0  0  0  0  0  0  0  0
    6.6526    0.0104   19.8950 C   0  0  0  0  0  0  0  0  0  0  0  0
    7.3747   -0.7465   20.9050 C   0  0  0  0  0  0  0  0  0  0  0  0
    7.9470   -1.8884   20.6758 N   0  0  0  0  0  0  0  0  0  0  0  0
    8.4300   -2.2569   21.9018 N   0  0  0  0  0  0  0  0  0  0  0  0
    8.9388   -3.1073   22.0626 H   0  0  0  0  0  0  0  0  0  0  0  0
    8.2083   -1.3570   22.8953 C   0  0  0  0  0  0  0  0  0  0  0  0
    8.5589   -1.4177   24.0573 O   0  0  0  0  0  0  0  0  0  0  0  0
    7.4977   -0.3356   22.2302 N   0  0  0  0  0  0  0  0  0  0  0  0
    7.1338    0.9172   22.8482 C   0  0  0  0  0  0  0  0  0  0  0  0
    7.4078    2.1720   22.2614 C   0  0  0  0  0  0  0  0  0  0  0  0
    7.9029    2.1954   21.2906 H   0  0  0  0  0  0  0  0  0  0  0  0
    7.0821    3.3479   22.8194 N   0  0  0  0  0  0  0  0  0  0  0  0
    6.4676    3.3465   24.0114 C   0  0  0  0  0  0  0  0  0  0  0  0
    6.1153    4.6705   24.6365 C   0  0  0  0  0  0  0  0  0  0  0  0
    6.6897    4.8245   25.5571 H   0  0  0  0  0  0  0  0  0  0  0  0
    5.0549    4.7031   24.9104 H   0  0  0  0  0  0  0  0  0  0  0  0
    6.3243    5.4972   23.9557 H   0  0  0  0  0  0  0  0  0  0  0  0
    6.1642    2.1460   24.6804 C   0  0  0  0  0  0  0  0  0  0  0  0
    5.6786    2.1834   25.6525 H   0  0  0  0  0  0  0  0  0  0  0  0
    6.5000    0.9238   24.0979 C   0  0  0  0  0  0  0  0  0  0  0  0
    6.2785   -0.0106   24.6091 H   0  0  0  0  0  0  0  0  0  0  0  0
    5.4330    0.6516   20.1565 C   0  0  0  0  0  0  0  0  0  0  0  0
    5.0082    0.6330   21.1628 H   0  0  0  0  0  0  0  0  0  0  0  0
    4.8022    1.3110   19.1089 C   0  0  0  0  0  0  0  0  0  0  0  0
    3.8721    1.8448   19.2632 H   0  0  0  0  0  0  0  0  0  0  0  0
  1  2  1  0
  2  3  2  0
  3  4  1  0
  4  5  1  0
  4  6  2  0
  6  7  1  0
  7  8  2  0
  8  9  1  0
  9 10  1  0
  9 11  1  0
 11 12  2  0
 11 13  1  0
 13 14  1  0
 14 15  2  0
 15 16  1  0
 15 17  1  0
 17 18  2  0
 18 19  1  0
 19 20  1  0
 19 21  1  0
 19 22  1  0
 18 23  1  0
 23 24  1  0
 23 25  2  0
 25 26  1  0
  6 27  1  0
 27 28  1  0
 27 29  2  0
 29 30  1  0
 29  2  1  0
 13  7  1  0
 25 14  1  0
M  END
>  <cnnaffinity>  (1) 
-5.08576

>  <filename>  (1) 
Cc1ccc(-n2c(-c3cccnc3)n[nH]c2=O)cn1

$$$$
