
     RDKit          3D

 31 33  0  0  0  0  0  0  0  0999 V2000
    4.9193    1.7996   16.9710 H   0  0  0  0  0  0  0  0  0  0  0  0
    5.3932    1.3023   17.8186 C   0  0  0  0  0  0  0  0  0  0  0  0
    6.5588    0.6837   17.5690 N   0  0  0  0  0  0  0  0  0  0  0  0
    7.1737    0.0707   18.5913 C   0  0  0  0  0  0  0  0  0  0  0  0
    8.1088   -0.4220   18.3305 H   0  0  0  0  0  0  0  0  0  0  0  0
    6.6706    0.0209   19.9078 C   0  0  0  0  0  0  0  0  0  0  0  0
    7.3265   -0.7032   21.0080 C   0  0  0  0  0  0  0  0  0  0  0  0
    6.7888   -1.2568   22.1121 C   0  0  0  0  0  0  0  0  0  0  0  0
    5.7619   -1.3320   22.3843 H   0  0  0  0  0  0  0  0  0  0  0  0
    7.7937   -1.8693   22.8526 N   0  0  0  0  0  0  0  0  0  0  0  0
    7.6030   -2.5315   24.0926 C   0  0  0  0  0  0  0  0  0  0  0  0
    6.4992   -3.2756   24.1788 N   0  0  0  0  0  0  0  0  0  0  0  0
    6.2739   -3.9291   25.3276 C   0  0  0  0  0  0  0  0  0  0  0  0
    5.0335   -4.7805   25.4432 C   0  0  0  0  0  0  0  0  0  0  0  0
    5.2931   -5.7919   25.7771 H   0  0  0  0  0  0  0  0  0  0  0  0
    4.4918   -4.8430   24.4964 H   0  0  0  0  0  0  0  0  0  0  0  0
    4.3629   -4.3699   26.2077 H   0  0  0  0  0  0  0  0  0  0  0  0
    7.1393   -3.8286   26.4255 C   0  0  0  0  0  0  0  0  0  0  0  0
    6.8999   -4.3831   27.3224 H   0  0  0  0  0  0  0  0  0  0  0  0
    8.2719   -3.0195   26.3336 C   0  0  0  0  0  0  0  0  0  0  0  0
    8.9596   -2.9249   27.1729 H   0  0  0  0  0  0  0  0  0  0  0  0
    8.5091   -2.3450   25.1382 C   0  0  0  0  0  0  0  0  0  0  0  0
    9.3624   -1.7002   24.9812 H   0  0  0  0  0  0  0  0  0  0  0  0
    8.9917   -1.7169   22.1911 C   0  0  0  0  0  0  0  0  0  0  0  0
   10.5221   -2.2401   22.5300 S   0  0  0  0  0  0  0  0  0  0  0  0
    8.6731   -1.0127   21.0749 N   0  0  0  0  0  0  0  0  0  0  0  0
    9.4105   -0.7512   20.4442 H   0  0  0  0  0  0  0  0  0  0  0  0
    5.4414    0.6670   20.1369 C   0  0  0  0  0  0  0  0  0  0  0  0
    5.0105    0.6621   21.1369 H   0  0  0  0  0  0  0  0  0  0  0  0
    4.7991    1.3213   19.0843 C   0  0  0  0  0  0  0  0  0  0  0  0
    3.8651    1.8504   19.2327 H   0  0  0  0  0  0  0  0  0  0  0  0
  1  2  1  0
  2  3  2  0
  3  4  1  0
  4  5  1  0
  4  6  2  0
  6  7  1  0
  7  8  2  0
  8  9  1  0
  8 10  1  0
 10 11  1  0
 11 12  2  0
 12 13  1  0
 13 14  1  0
 14 15  1  0
 14 16  1  0
 14 17  1  0
 13 18  2  0
 18 19  1  0
 18 20  1  0
 20 21  1  0
 20 22  2  0
 22 23  1  0
 10 24  1  0
 24 25  2  0
 24 26  1  0
 26 27  1  0
  6 28  1  0
 28 29  1  0
 28 30  2  0
 30 31  1  0
 30  2  1  0
 26  7  1  0
 22 11  1  0
M  END
>  <cnnaffinity>  (1) 
-5.61788

>  <filename>  (1) 
Cc1cccc(-n2cc(-c3cccnc3)[nH]c2=S)n1

$$$$
