
     RDKit          3D

 36 38  0  0  0  0  0  0  0  0999 V2000
    7.5643    1.4694   22.4570 C   0  0  0  0  0  0  0  0  0  0  0  0
    7.7484   -0.0129   22.1648 C   0  0  0  0  0  0  0  0  0  0  0  0
    8.3450   -0.8608   23.0964 C   0  0  0  0  0  0  0  0  0  0  0  0
    8.4202   -2.1807   22.9929 N   0  0  0  0  0  0  0  0  0  0  0  0
    7.9271   -2.6758   21.8665 C   0  0  0  0  0  0  0  0  0  0  0  0
    7.9212   -4.0055   21.6750 N   0  0  0  0  0  0  0  0  0  0  0  0
    8.6039   -4.9227   22.5621 C   0  0  0  0  0  0  0  0  0  0  0  0
    7.7508   -5.2268   23.7589 C   0  0  0  0  0  0  0  0  0  0  0  0
    6.4672   -5.7454   23.5576 C   0  0  0  0  0  0  0  0  0  0  0  0
    5.6230   -6.0771   24.5345 N   0  0  0  0  0  0  0  0  0  0  0  0
    6.0344   -5.8742   25.7907 C   0  0  0  0  0  0  0  0  0  0  0  0
    7.2646   -5.3211   26.1252 C   0  0  0  0  0  0  0  0  0  0  0  0
    8.1231   -4.9811   25.0836 C   0  0  0  0  0  0  0  0  0  0  0  0
    9.6246   -4.2180   25.4964 Cl  0  0  0  0  0  0  0  0  0  0  0  0
    7.5277   -5.1283   27.1536 H   0  0  0  0  0  0  0  0  0  0  0  0
    5.3232   -6.1379   26.5651 H   0  0  0  0  0  0  0  0  0  0  0  0
    6.1046   -5.9151   22.5465 H   0  0  0  0  0  0  0  0  0  0  0  0
    8.8168   -5.8457   22.0098 H   0  0  0  0  0  0  0  0  0  0  0  0
    9.5561   -4.5093   22.9086 H   0  0  0  0  0  0  0  0  0  0  0  0
    7.8101   -4.1257   20.6858 H   0  0  0  0  0  0  0  0  0  0  0  0
    7.4641   -2.0045   20.8170 N   0  0  0  0  0  0  0  0  0  0  0  0
    7.3039   -0.6995   21.0078 C   0  0  0  0  0  0  0  0  0  0  0  0
    6.5999   -0.0108   19.9222 C   0  0  0  0  0  0  0  0  0  0  0  0
    5.3933    0.6779   20.1129 C   0  0  0  0  0  0  0  0  0  0  0  0
    4.8295    1.3313   19.0210 C   0  0  0  0  0  0  0  0  0  0  0  0
    5.4885    1.2691   17.7885 C   0  0  0  0  0  0  0  0  0  0  0  0
    6.6102    0.5578   17.5826 N   0  0  0  0  0  0  0  0  0  0  0  0
    7.1260   -0.0956   18.6295 C   0  0  0  0  0  0  0  0  0  0  0  0
    8.0025   -0.7106   18.4192 H   0  0  0  0  0  0  0  0  0  0  0  0
    5.0827    1.7879   16.9228 H   0  0  0  0  0  0  0  0  0  0  0  0
    3.8952    1.8736   19.1086 H   0  0  0  0  0  0  0  0  0  0  0  0
    4.8971    0.6819   21.0869 H   0  0  0  0  0  0  0  0  0  0  0  0
    8.7983   -0.4455   23.9977 H   0  0  0  0  0  0  0  0  0  0  0  0
    8.2810    1.8309   23.2046 H   0  0  0  0  0  0  0  0  0  0  0  0
    7.6733    2.0789   21.5513 H   0  0  0  0  0  0  0  0  0  0  0  0
    6.5639    1.6660   22.8700 H   0  0  0  0  0  0  0  0  0  0  0  0
  1  2  1  0
  2  3  2  0
  3  4  1  0
  4  5  2  0
  5  6  1  0
  6  7  1  0
  7  8  1  0
  8  9  2  0
  9 10  1  0
 10 11  2  0
 11 12  1  0
 12 13  2  0
 13 14  1  0
 12 15  1  0
 11 16  1  0
  9 17  1  0
  7 18  1  0
  7 19  1  0
  6 20  1  0
  5 21  1  0
 21 22  2  0
 22 23  1  0
 23 24  2  0
 24 25  1  0
 25 26  2  0
 26 27  1  0
 27 28  2  0
 28 29  1  0
 26 30  1  0
 25 31  1  0
 24 32  1  0
  3 33  1  0
  1 34  1  0
  1 35  1  0
  1 36  1  0
 22  2  1  0
 28 23  1  0
 13  8  1  0
M  END
>  <cnnaffinity>  (1) 
-5.85043

>  <filename>  (1) 
Cc1cnc(NCc2cnccc2Cl)nc1-c1cccnc1

$$$$
