
     RDKit          3D

 40 41  0  0  0  0  0  0  0  0999 V2000
   -0.2774   -7.7247   21.8619 C   0  0  0  0  0  0  0  0  0  0  0  0
    0.8900   -7.0442   22.5435 C   0  0  0  0  0  0  0  0  0  0  0  0
    2.1394   -7.6780   22.6049 C   0  0  0  0  0  0  0  0  0  0  0  0
    3.2332   -7.0594   23.2134 C   0  0  0  0  0  0  0  0  0  0  0  0
    3.1227   -5.7887   23.7961 C   0  0  0  0  0  0  0  0  0  0  0  0
    4.3514   -5.1521   24.4332 C   0  0  0  0  0  0  0  0  0  0  0  0
    5.4337   -4.6603   23.4353 C   0  0  0  0  0  0  0  0  0  0  0  0
    4.8039   -3.6087   22.5022 C   0  0  0  0  0  0  0  0  0  0  0  0
    5.6218   -2.7202   21.5972 C   0  0  0  0  0  0  0  0  0  0  0  0
    5.5949   -2.7886   20.3882 O   0  0  0  0  0  0  0  0  0  0  0  0
    6.3237   -1.7197   22.2064 N   0  0  0  0  0  0  0  0  0  0  0  0
    7.4102   -0.9153   21.2977 S   0  0  0  0  0  0  0  0  0  0  0  0
    7.9156    0.0857   22.2110 O   0  0  0  0  0  0  0  0  0  0  0  0
    8.2580   -1.8968   20.6635 O   0  0  0  0  0  0  0  0  0  0  0  0
    6.4379   -0.1750   20.0696 C   0  0  0  0  0  0  0  0  0  0  0  0
    5.2507    0.5497   20.2506 C   0  0  0  0  0  0  0  0  0  0  0  0
    4.8017    1.2592   19.1378 C   0  0  0  0  0  0  0  0  0  0  0  0
    5.5201    1.1998   17.9404 C   0  0  0  0  0  0  0  0  0  0  0  0
    6.6365    0.4775   17.7885 N   0  0  0  0  0  0  0  0  0  0  0  0
    7.0807   -0.2052   18.8379 C   0  0  0  0  0  0  0  0  0  0  0  0
    7.9825   -0.7945   18.6696 H   0  0  0  0  0  0  0  0  0  0  0  0
    5.1813    1.7450   17.0606 H   0  0  0  0  0  0  0  0  0  0  0  0
    3.9007    1.8582   19.1680 H   0  0  0  0  0  0  0  0  0  0  0  0
    4.6714    0.5785   21.1803 H   0  0  0  0  0  0  0  0  0  0  0  0
    6.2942   -1.4450   23.1690 H   0  0  0  0  0  0  0  0  0  0  0  0
    4.0785   -4.1039   21.8540 H   0  0  0  0  0  0  0  0  0  0  0  0
    4.2137   -2.9512   23.1403 H   0  0  0  0  0  0  0  0  0  0  0  0
    6.2852   -4.2463   23.9992 H   0  0  0  0  0  0  0  0  0  0  0  0
    5.8165   -5.5103   22.8550 H   0  0  0  0  0  0  0  0  0  0  0  0
    4.0402   -4.2855   25.0293 H   0  0  0  0  0  0  0  0  0  0  0  0
    4.7955   -5.8608   25.1458 H   0  0  0  0  0  0  0  0  0  0  0  0
    1.8660   -5.1565   23.7477 C   0  0  0  0  0  0  0  0  0  0  0  0
    0.7696   -5.7733   23.1270 C   0  0  0  0  0  0  0  0  0  0  0  0
   -0.1969   -5.2722   23.1011 H   0  0  0  0  0  0  0  0  0  0  0  0
    1.7334   -4.1767   24.2052 H   0  0  0  0  0  0  0  0  0  0  0  0
    4.1968   -7.5633   23.2414 H   0  0  0  0  0  0  0  0  0  0  0  0
    2.2528   -8.6710   22.1773 H   0  0  0  0  0  0  0  0  0  0  0  0
   -0.2014   -8.8150   21.9385 H   0  0  0  0  0  0  0  0  0  0  0  0
   -0.3165   -7.4803   20.7932 H   0  0  0  0  0  0  0  0  0  0  0  0
   -1.2378   -7.4318   22.2998 H   0  0  0  0  0  0  0  0  0  0  0  0
  1  2  1  0
  2  3  2  0
  3  4  1  0
  4  5  2  0
  5  6  1  0
  6  7  1  0
  7  8  1  0
  8  9  1  0
  9 10  2  0
  9 11  1  0
 11 12  1  0
 12 13  2  0
 12 14  2  0
 12 15  1  0
 15 16  2  0
 16 17  1  0
 17 18  2  0
 18 19  1  0
 19 20  2  0
 20 21  1  0
 18 22  1  0
 17 23  1  0
 16 24  1  0
 11 25  1  0
  8 26  1  0
  8 27  1  0
  7 28  1  0
  7 29  1  0
  6 30  1  0
  6 31  1  0
  5 32  1  0
 32 33  2  0
 33 34  1  0
 32 35  1  0
  4 36  1  0
  3 37  1  0
  1 38  1  0
  1 39  1  0
  1 40  1  0
 33  2  1  0
 20 15  1  0
M  END
>  <cnnaffinity>  (1) 
-5.44165

>  <filename>  (1) 
Cc1ccc(CCCC(=O)NS(=O)(=O)c2cccnc2)cc1

$$$$
