
     RDKit          3D

 32 34  0  0  0  0  0  0  0  0999 V2000
    5.1327    1.7021   17.0170 H   0  0  0  0  0  0  0  0  0  0  0  0
    5.5280    1.2151   17.9047 C   0  0  0  0  0  0  0  0  0  0  0  0
    6.6831    0.5554   17.7377 N   0  0  0  0  0  0  0  0  0  0  0  0
    7.2039   -0.0484   18.8064 C   0  0  0  0  0  0  0  0  0  0  0  0
    8.1376   -0.5849   18.6540 H   0  0  0  0  0  0  0  0  0  0  0  0
    6.6156   -0.0183   20.0826 C   0  0  0  0  0  0  0  0  0  0  0  0
    7.3400   -0.7078   21.1469 C   0  0  0  0  0  0  0  0  0  0  0  0
    8.4581   -1.4366   20.8539 N   0  0  0  0  0  0  0  0  0  0  0  0
    8.8024   -1.9198   22.0253 C   0  0  0  0  0  0  0  0  0  0  0  0
    9.6548   -2.5376   22.2827 H   0  0  0  0  0  0  0  0  0  0  0  0
    7.9403   -1.4992   22.9777 N   0  0  0  0  0  0  0  0  0  0  0  0
    7.9784   -1.8651   24.3234 N   0  0  0  0  0  0  0  0  0  0  0  0
    8.7691   -1.4605   24.8046 H   0  0  0  0  0  0  0  0  0  0  0  0
    6.8310   -1.7169   25.1449 C   0  0  0  0  0  0  0  0  0  0  0  0
    6.9906   -1.1282   26.4085 C   0  0  0  0  0  0  0  0  0  0  0  0
    7.9858   -0.8375   26.7359 H   0  0  0  0  0  0  0  0  0  0  0  0
    5.8879   -0.9363   27.2415 C   0  0  0  0  0  0  0  0  0  0  0  0
    6.0149   -0.4675   28.2165 H   0  0  0  0  0  0  0  0  0  0  0  0
    4.6025   -1.3290   26.8316 C   0  0  0  0  0  0  0  0  0  0  0  0
    3.3758   -0.9588   27.6278 C   0  0  0  0  0  0  0  0  0  0  0  0
    3.5202   -1.1109   28.7018 H   0  0  0  0  0  0  0  0  0  0  0  0
    2.5007   -1.5381   27.3205 H   0  0  0  0  0  0  0  0  0  0  0  0
    3.1267    0.0989   27.4786 H   0  0  0  0  0  0  0  0  0  0  0  0
    4.4852   -2.0203   25.6179 C   0  0  0  0  0  0  0  0  0  0  0  0
    3.5077   -2.3747   25.3145 H   0  0  0  0  0  0  0  0  0  0  0  0
    5.5843   -2.2110   24.7725 C   0  0  0  0  0  0  0  0  0  0  0  0
    5.4970   -2.6675   23.7939 H   0  0  0  0  0  0  0  0  0  0  0  0
    6.9932   -0.7131   22.4205 N   0  0  0  0  0  0  0  0  0  0  0  0
    5.3936    0.6607   20.2451 C   0  0  0  0  0  0  0  0  0  0  0  0
    4.8989    0.7031   21.2180 H   0  0  0  0  0  0  0  0  0  0  0  0
    4.8452    1.2855   19.1254 C   0  0  0  0  0  0  0  0  0  0  0  0
    3.9097    1.8355   19.1763 H   0  0  0  0  0  0  0  0  0  0  0  0
  1  2  1  0
  2  3  2  0
  3  4  1  0
  4  5  1  0
  4  6  2  0
  6  7  1  0
  7  8  1  0
  8  9  2  0
  9 10  1  0
  9 11  1  0
 11 12  1  0
 12 13  1  0
 12 14  1  0
 14 15  2  0
 15 16  1  0
 15 17  1  0
 17 18  1  0
 17 19  2  0
 19 20  1  0
 20 21  1  0
 20 22  1  0
 20 23  1  0
 19 24  1  0
 24 25  1  0
 24 26  2  0
 26 27  1  0
 11 28  1  0
  6 29  1  0
 29 30  1  0
 29 31  2  0
 31 32  1  0
 31  2  1  0
 28  7  2  0
 26 14  1  0
M  END
>  <cnnaffinity>  (1) 
-4.5452

>  <filename>  (1) 
Cc1ccc(Nn2cnc(-c3cccnc3)n2)cc1

$$$$
