
     RDKit          3D

 38 40  0  0  0  0  0  0  0  0999 V2000
    4.8937    1.7906   16.9853 H   0  0  0  0  0  0  0  0  0  0  0  0
    5.4047    1.2689   17.7926 C   0  0  0  0  0  0  0  0  0  0  0  0
    6.5741    0.6858   17.4838 N   0  0  0  0  0  0  0  0  0  0  0  0
    7.2489    0.0712   18.4647 C   0  0  0  0  0  0  0  0  0  0  0  0
    8.1969   -0.3871   18.1948 H   0  0  0  0  0  0  0  0  0  0  0  0
    6.7835   -0.0014   19.7970 C   0  0  0  0  0  0  0  0  0  0  0  0
    7.5244   -0.6043   20.8694 N   0  0  0  0  0  0  0  0  0  0  0  0
    8.8575   -0.3323   21.1585 C   0  0  0  0  0  0  0  0  0  0  0  0
    9.6276    0.2539   20.4391 O   0  0  0  0  0  0  0  0  0  0  0  0
    9.1137   -0.8741   22.4446 N   0  0  0  0  0  0  0  0  0  0  0  0
   10.0636   -0.5531   23.4605 N   0  0  0  0  0  0  0  0  0  0  0  0
   10.9689   -0.2438   23.1273 H   0  0  0  0  0  0  0  0  0  0  0  0
    9.9080    0.6592   24.6703 S   0  0  0  0  0  0  0  0  0  0  0  0
   11.2369    1.2349   24.6054 O   0  0  0  0  0  0  0  0  0  0  0  0
    9.3417    0.0781   25.8606 O   0  0  0  0  0  0  0  0  0  0  0  0
    8.7400    1.7608   23.9217 C   0  0  0  0  0  0  0  0  0  0  0  0
    9.1740    2.5420   22.8450 C   0  0  0  0  0  0  0  0  0  0  0  0
   10.2203    2.6039   22.5390 H   0  0  0  0  0  0  0  0  0  0  0  0
    8.2285    3.2594   22.1245 C   0  0  0  0  0  0  0  0  0  0  0  0
    8.5466    3.9008   21.3138 H   0  0  0  0  0  0  0  0  0  0  0  0
    6.8654    3.2235   22.4365 C   0  0  0  0  0  0  0  0  0  0  0  0
    5.8962    4.0018   21.5944 C   0  0  0  0  0  0  0  0  0  0  0  0
    5.0157    4.3047   22.1598 H   0  0  0  0  0  0  0  0  0  0  0  0
    6.3701    4.8978   21.1829 H   0  0  0  0  0  0  0  0  0  0  0  0
    5.5504    3.4112   20.7449 H   0  0  0  0  0  0  0  0  0  0  0  0
    6.4632    2.4610   23.5419 C   0  0  0  0  0  0  0  0  0  0  0  0
    5.4176    2.4331   23.8310 H   0  0  0  0  0  0  0  0  0  0  0  0
    7.3897    1.7384   24.2985 C   0  0  0  0  0  0  0  0  0  0  0  0
    7.0605    1.1787   25.1749 H   0  0  0  0  0  0  0  0  0  0  0  0
    7.9601   -1.5696   22.9625 C   0  0  0  0  0  0  0  0  0  0  0  0
    8.1666   -2.6142   23.2003 H   0  0  0  0  0  0  0  0  0  0  0  0
    7.5622   -1.0719   23.8566 H   0  0  0  0  0  0  0  0  0  0  0  0
    6.9937   -1.4679   21.8240 C   0  0  0  0  0  0  0  0  0  0  0  0
    5.9623   -2.0761   21.7196 O   0  0  0  0  0  0  0  0  0  0  0  0
    5.5423    0.5636   20.0892 C   0  0  0  0  0  0  0  0  0  0  0  0
    5.1475    0.4852   21.1006 H   0  0  0  0  0  0  0  0  0  0  0  0
    4.8520    1.2333   19.0765 C   0  0  0  0  0  0  0  0  0  0  0  0
    3.9175    1.7510   19.2738 H   0  0  0  0  0  0  0  0  0  0  0  0
  1  2  1  0
  2  3  2  0
  3  4  1  0
  4  5  1  0
  4  6  2  0
  6  7  1  0
  7  8  1  0
  8  9  2  0
  8 10  1  0
 10 11  1  0
 11 12  1  0
 11 13  1  0
 13 14  2  0
 13 15  2  0
 13 16  1  0
 16 17  2  0
 17 18  1  0
 17 19  1  0
 19 20  1  0
 19 21  2  0
 21 22  1  0
 22 23  1  0
 22 24  1  0
 22 25  1  0
 21 26  1  0
 26 27  1  0
 26 28  2  0
 28 29  1  0
 10 30  1  0
 30 31  1  0
 30 32  1  0
 30 33  1  0
 33 34  2  0
  6 35  1  0
 35 36  1  0
 35 37  2  0
 37 38  1  0
 37  2  1  0
 33  7  1  0
 28 16  1  0
M  END
>  <cnnaffinity>  (1) 
-5.28673

>  <filename>  (1) 
Cc1ccc(S(=O)(=O)NN2CC(=O)N(c3cccnc3)C2=O)cc1

$$$$
