
     RDKit          3D

 34 36  0  0  0  0  0  0  0  0999 V2000
    4.8265    1.9977   16.6009 H   0  0  0  0  0  0  0  0  0  0  0  0
    5.3230    1.5087   17.4365 C   0  0  0  0  0  0  0  0  0  0  0  0
    6.4664    0.8664   17.1510 N   0  0  0  0  0  0  0  0  0  0  0  0
    7.1190    0.2726   18.1609 C   0  0  0  0  0  0  0  0  0  0  0  0
    8.0384   -0.2462   17.8830 H   0  0  0  0  0  0  0  0  0  0  0  0
    6.6800    0.2817   19.4974 C   0  0  0  0  0  0  0  0  0  0  0  0
    7.3937   -0.4057   20.6166 C   0  0  0  0  0  0  0  0  0  0  0  0
    8.7887   -0.2901   20.8936 C   0  0  0  0  0  0  0  0  0  0  0  0
    9.4331    0.3444   20.3021 H   0  0  0  0  0  0  0  0  0  0  0  0
    9.3760   -0.9090   21.9107 N   0  0  0  0  0  0  0  0  0  0  0  0
    8.6535   -1.6973   22.7414 N   0  0  0  0  0  0  0  0  0  0  0  0
    7.3339   -1.8087   22.5650 C   0  0  0  0  0  0  0  0  0  0  0  0
    6.5369   -2.5381   23.4283 N   0  0  0  0  0  0  0  0  0  0  0  0
    5.6021   -2.1718   23.5059 H   0  0  0  0  0  0  0  0  0  0  0  0
    6.8983   -3.5378   24.3321 C   0  0  0  0  0  0  0  0  0  0  0  0
    6.1682   -3.6762   25.5222 C   0  0  0  0  0  0  0  0  0  0  0  0
    5.3059   -3.0380   25.6957 H   0  0  0  0  0  0  0  0  0  0  0  0
    6.5681   -4.6084   26.4824 C   0  0  0  0  0  0  0  0  0  0  0  0
    6.0197   -4.7030   27.4182 H   0  0  0  0  0  0  0  0  0  0  0  0
    7.6781   -5.4380   26.2646 C   0  0  0  0  0  0  0  0  0  0  0  0
    8.2257   -6.3364   27.3393 C   0  0  0  0  0  0  0  0  0  0  0  0
    8.8060   -7.1291   26.8693 H   0  0  0  0  0  0  0  0  0  0  0  0
    7.4410   -6.7898   27.9515 H   0  0  0  0  0  0  0  0  0  0  0  0
    8.9102   -5.8089   28.0158 H   0  0  0  0  0  0  0  0  0  0  0  0
    8.3123   -5.3769   25.0130 C   0  0  0  0  0  0  0  0  0  0  0  0
    9.1199   -6.0754   24.7949 H   0  0  0  0  0  0  0  0  0  0  0  0
    7.9388   -4.4343   24.0523 C   0  0  0  0  0  0  0  0  0  0  0  0
    8.4381   -4.3586   23.0900 H   0  0  0  0  0  0  0  0  0  0  0  0
    6.6708   -1.1734   21.5028 C   0  0  0  0  0  0  0  0  0  0  0  0
    5.6054   -1.3412   21.3882 H   0  0  0  0  0  0  0  0  0  0  0  0
    5.4712    0.9463   19.7613 C   0  0  0  0  0  0  0  0  0  0  0  0
    5.1026    0.9949   20.7855 H   0  0  0  0  0  0  0  0  0  0  0  0
    4.7811    1.5672   18.7228 C   0  0  0  0  0  0  0  0  0  0  0  0
    3.8416    2.0796   18.8955 H   0  0  0  0  0  0  0  0  0  0  0  0
  1  2  1  0
  2  3  2  0
  3  4  1  0
  4  5  1  0
  4  6  2  0
  6  7  1  0
  7  8  2  0
  8  9  1  0
  8 10  1  0
 10 11  2  0
 11 12  1  0
 12 13  1  0
 13 14  1  0
 13 15  1  0
 15 16  2  0
 16 17  1  0
 16 18  1  0
 18 19  1  0
 18 20  2  0
 20 21  1  0
 21 22  1  0
 21 23  1  0
 21 24  1  0
 20 25  1  0
 25 26  1  0
 25 27  2  0
 27 28  1  0
 12 29  2  0
 29 30  1  0
  6 31  1  0
 31 32  1  0
 31 33  2  0
 33 34  1  0
 33  2  1  0
 29  7  1  0
 27 15  1  0
M  END
>  <cnnaffinity>  (1) 
-4.93452

>  <filename>  (1) 
Cc1ccc(Nc2cc(-c3cccnc3)cnn2)cc1

$$$$
