
     RDKit          3D

 41 44  0  0  0  0  0  0  0  0999 V2000
    5.2773    1.5921   17.0385 H   0  0  0  0  0  0  0  0  0  0  0  0
    5.8425    1.1891   17.8796 C   0  0  0  0  0  0  0  0  0  0  0  0
    7.0231    0.6235   17.5873 N   0  0  0  0  0  0  0  0  0  0  0  0
    7.7371    0.1127   18.5968 C   0  0  0  0  0  0  0  0  0  0  0  0
    8.6985   -0.3183   18.3227 H   0  0  0  0  0  0  0  0  0  0  0  0
    7.3049    0.0964   19.9339 C   0  0  0  0  0  0  0  0  0  0  0  0
    8.0916   -0.6231   20.9525 C   0  0  0  0  0  0  0  0  0  0  0  0
    9.4251   -0.5410   20.9920 N   0  0  0  0  0  0  0  0  0  0  0  0
    9.7455   -1.3379   22.0149 N   0  0  0  0  0  0  0  0  0  0  0  0
    8.7035   -1.9556   22.5882 C   0  0  0  0  0  0  0  0  0  0  0  0
    7.5717   -1.5191   21.9468 C   0  0  0  0  0  0  0  0  0  0  0  0
    6.1751   -2.0558   22.1688 C   0  0  0  0  0  0  0  0  0  0  0  0
    5.4889   -1.3067   21.7687 H   0  0  0  0  0  0  0  0  0  0  0  0
    5.9673   -2.1880   23.2397 H   0  0  0  0  0  0  0  0  0  0  0  0
    5.8734   -3.3104   21.3836 C   0  0  0  0  0  0  0  0  0  0  0  0
    5.7398   -3.1174   20.0081 C   0  0  0  0  0  0  0  0  0  0  0  0
    5.7951   -2.1023   19.6120 H   0  0  0  0  0  0  0  0  0  0  0  0
    5.5653   -4.1873   19.1532 C   0  0  0  0  0  0  0  0  0  0  0  0
    5.4096   -3.9304   18.1156 H   0  0  0  0  0  0  0  0  0  0  0  0
    5.5759   -5.5067   19.6369 C   0  0  0  0  0  0  0  0  0  0  0  0
    5.6587   -6.6773   18.6941 C   0  0  0  0  0  0  0  0  0  0  0  0
    5.1259   -7.5502   19.0755 H   0  0  0  0  0  0  0  0  0  0  0  0
    5.2595   -6.4691   17.7049 H   0  0  0  0  0  0  0  0  0  0  0  0
    6.7079   -6.9316   18.5286 H   0  0  0  0  0  0  0  0  0  0  0  0
    5.5815   -5.6890   21.0304 C   0  0  0  0  0  0  0  0  0  0  0  0
    5.4715   -6.6937   21.4360 H   0  0  0  0  0  0  0  0  0  0  0  0
    5.7241   -4.6017   21.9033 C   0  0  0  0  0  0  0  0  0  0  0  0
    5.7115   -4.7603   22.9841 H   0  0  0  0  0  0  0  0  0  0  0  0
    9.1650   -2.9361   23.6132 C   0  0  0  0  0  0  0  0  0  0  0  0
    8.6221   -2.8075   24.5519 H   0  0  0  0  0  0  0  0  0  0  0  0
    8.9808   -3.9617   23.2829 H   0  0  0  0  0  0  0  0  0  0  0  0
   10.6717   -2.6070   23.7307 C   0  0  0  0  0  0  0  0  0  0  0  0
   11.2989   -3.4961   23.8180 H   0  0  0  0  0  0  0  0  0  0  0  0
   10.8096   -2.0012   24.6278 H   0  0  0  0  0  0  0  0  0  0  0  0
   11.0458   -1.7699   22.4725 C   0  0  0  0  0  0  0  0  0  0  0  0
   11.5379   -2.3609   21.6947 H   0  0  0  0  0  0  0  0  0  0  0  0
   11.6892   -0.9153   22.6923 H   0  0  0  0  0  0  0  0  0  0  0  0
    6.0826    0.7263   20.2233 C   0  0  0  0  0  0  0  0  0  0  0  0
    5.7230    0.7954   21.2520 H   0  0  0  0  0  0  0  0  0  0  0  0
    5.3393    1.2761   19.1803 C   0  0  0  0  0  0  0  0  0  0  0  0
    4.3880    1.7648   19.3610 H   0  0  0  0  0  0  0  0  0  0  0  0
  1  2  1  0
  2  3  2  0
  3  4  1  0
  4  5  1  0
  4  6  2  0
  6  7  1  0
  7  8  2  0
  8  9  1  0
  9 10  1  0
 10 11  2  0
 11 12  1  0
 12 13  1  0
 12 14  1  0
 12 15  1  0
 15 16  2  0
 16 17  1  0
 16 18  1  0
 18 19  1  0
 18 20  2  0
 20 21  1  0
 21 22  1  0
 21 23  1  0
 21 24  1  0
 20 25  1  0
 25 26  1  0
 25 27  2  0
 27 28  1  0
 10 29  1  0
 29 30  1  0
 29 31  1  0
 29 32  1  0
 32 33  1  0
 32 34  1  0
 32 35  1  0
 35 36  1  0
 35 37  1  0
  6 38  1  0
 38 39  1  0
 38 40  2  0
 40 41  1  0
 40  2  1  0
 11  7  1  0
 27 15  1  0
 35  9  1  0
M  END
>  <cnnaffinity>  (1) 
-5.64908

>  <filename>  (1) 
Cc1ccc(Cc2c(-c3cccnc3)nn3c2CCC3)cc1

$$$$
