
     RDKit          3D

 28 29  0  0  0  0  0  0  0  0999 V2000
    4.9774    1.7821   17.0093 H   0  0  0  0  0  0  0  0  0  0  0  0
    5.4026    1.2681   17.8676 C   0  0  0  0  0  0  0  0  0  0  0  0
    6.5583    0.6318   17.6343 N   0  0  0  0  0  0  0  0  0  0  0  0
    7.1416    0.0245   18.6662 C   0  0  0  0  0  0  0  0  0  0  0  0
    8.1034   -0.4424   18.4594 H   0  0  0  0  0  0  0  0  0  0  0  0
    6.6028   -0.0199   19.9602 C   0  0  0  0  0  0  0  0  0  0  0  0
    7.4229   -0.6807   21.0116 C   0  0  0  0  0  0  0  0  0  0  0  0
    9.0405   -0.3790   21.1302 S   0  0  0  0  0  0  0  0  0  0  0  0
    6.7174   -1.5022   21.8241 N   0  0  0  0  0  0  0  0  0  0  0  0
    5.7169   -1.3744   21.7796 H   0  0  0  0  0  0  0  0  0  0  0  0
    7.2170   -2.5223   22.6794 C   0  0  0  0  0  0  0  0  0  0  0  0
    8.2462   -3.3548   22.2273 C   0  0  0  0  0  0  0  0  0  0  0  0
    8.6519   -3.1852   21.2352 H   0  0  0  0  0  0  0  0  0  0  0  0
    8.7400   -4.3464   23.0687 C   0  0  0  0  0  0  0  0  0  0  0  0
    9.4760   -5.0446   22.7215 H   0  0  0  0  0  0  0  0  0  0  0  0
    8.2909   -4.5232   24.3808 C   0  0  0  0  0  0  0  0  0  0  0  0
    8.9583   -5.5831   25.2401 C   0  0  0  0  0  0  0  0  0  0  0  0
    9.8072   -5.1908   25.8154 H   0  0  0  0  0  0  0  0  0  0  0  0
    9.3673   -6.3905   24.6213 H   0  0  0  0  0  0  0  0  0  0  0  0
    8.2665   -6.0432   25.9509 H   0  0  0  0  0  0  0  0  0  0  0  0
    7.2342   -3.7003   24.8109 C   0  0  0  0  0  0  0  0  0  0  0  0
    6.8359   -3.8460   25.8154 H   0  0  0  0  0  0  0  0  0  0  0  0
    6.6880   -2.7147   23.9631 C   0  0  0  0  0  0  0  0  0  0  0  0
    5.8714   -2.0754   24.2953 H   0  0  0  0  0  0  0  0  0  0  0  0
    5.3778    0.6311   20.1900 C   0  0  0  0  0  0  0  0  0  0  0  0
    4.9237    0.6843   21.1839 H   0  0  0  0  0  0  0  0  0  0  0  0
    4.7751    1.2943   19.1181 C   0  0  0  0  0  0  0  0  0  0  0  0
    3.8559    1.8614   19.2344 H   0  0  0  0  0  0  0  0  0  0  0  0
  1  2  1  0
  2  3  2  0
  3  4  1  0
  4  5  1  0
  4  6  2  0
  6  7  1  0
  7  8  2  0
  7  9  1  0
  9 10  1  0
  9 11  1  0
 11 12  2  0
 12 13  1  0
 12 14  1  0
 14 15  1  0
 14 16  2  0
 16 17  1  0
 17 18  1  0
 17 19  1  0
 17 20  1  0
 16 21  1  0
 21 22  1  0
 21 23  2  0
 23 24  1  0
  6 25  1  0
 25 26  1  0
 25 27  2  0
 27 28  1  0
 27  2  1  0
 23 11  1  0
M  END
>  <cnnaffinity>  (1) 
-4.54811

>  <filename>  (1) 
Cc1ccc(NC(=S)c2cccnc2)cc1

$$$$
