
     RDKit          3D

 34 37  0  0  0  0  0  0  0  0999 V2000
    5.1000    1.7568   17.2207 H   0  0  0  0  0  0  0  0  0  0  0  0
    5.6210    1.1443   17.9569 C   0  0  0  0  0  0  0  0  0  0  0  0
    6.8034    0.6332   17.5826 N   0  0  0  0  0  0  0  0  0  0  0  0
    7.4815   -0.0969   18.4723 C   0  0  0  0  0  0  0  0  0  0  0  0
    8.4172   -0.5281   18.1162 H   0  0  0  0  0  0  0  0  0  0  0  0
    7.0227   -0.3366   19.7740 C   0  0  0  0  0  0  0  0  0  0  0  0
    7.9032   -1.0267   20.7208 C   0  0  0  0  0  0  0  0  0  0  0  0
    9.2147   -1.0558   20.7525 N   0  0  0  0  0  0  0  0  0  0  0  0
    9.6146   -1.7049   21.9072 N   0  0  0  0  0  0  0  0  0  0  0  0
    8.5188   -2.0463   22.5309 C   0  0  0  0  0  0  0  0  0  0  0  0
    8.0280   -2.8767   23.9957 S   0  0  0  0  0  0  0  0  0  0  0  0
    6.3721   -2.6327   23.4608 C   0  0  0  0  0  0  0  0  0  0  0  0
    5.2575   -3.1047   24.0706 N   0  0  0  0  0  0  0  0  0  0  0  0
    4.4717   -2.8330   23.4963 H   0  0  0  0  0  0  0  0  0  0  0  0
    5.0313   -3.4320   25.4204 C   0  0  0  0  0  0  0  0  0  0  0  0
    5.5332   -2.6682   26.4773 C   0  0  0  0  0  0  0  0  0  0  0  0
    6.0875   -1.7605   26.2562 H   0  0  0  0  0  0  0  0  0  0  0  0
    5.2662   -3.0553   27.7979 C   0  0  0  0  0  0  0  0  0  0  0  0
    5.6341   -2.4266   28.6118 H   0  0  0  0  0  0  0  0  0  0  0  0
    4.5284   -4.2185   28.0837 C   0  0  0  0  0  0  0  0  0  0  0  0
    4.2658   -4.6846   29.4994 C   0  0  0  0  0  0  0  0  0  0  0  0
    3.2084   -4.9426   29.6318 H   0  0  0  0  0  0  0  0  0  0  0  0
    4.8484   -5.5814   29.7482 H   0  0  0  0  0  0  0  0  0  0  0  0
    4.5091   -3.9239   30.2479 H   0  0  0  0  0  0  0  0  0  0  0  0
    4.0042   -4.9546   27.0010 C   0  0  0  0  0  0  0  0  0  0  0  0
    3.3958   -5.8408   27.1914 H   0  0  0  0  0  0  0  0  0  0  0  0
    4.2357   -4.5504   25.6846 C   0  0  0  0  0  0  0  0  0  0  0  0
    3.8022   -5.0698   24.8340 H   0  0  0  0  0  0  0  0  0  0  0  0
    6.1910   -2.0598   22.3030 N   0  0  0  0  0  0  0  0  0  0  0  0
    7.4161   -1.6724   21.8349 N   0  0  0  0  0  0  0  0  0  0  0  0
    5.7504    0.1403   20.1371 C   0  0  0  0  0  0  0  0  0  0  0  0
    5.3326   -0.0991   21.1169 H   0  0  0  0  0  0  0  0  0  0  0  0
    5.0485    0.9065   19.2126 C   0  0  0  0  0  0  0  0  0  0  0  0
    4.0805    1.3275   19.4611 H   0  0  0  0  0  0  0  0  0  0  0  0
  1  2  1  0
  2  3  2  0
  3  4  1  0
  4  5  1  0
  4  6  2  0
  6  7  1  0
  7  8  2  0
  8  9  1  0
  9 10  2  0
 10 11  1  0
 11 12  1  0
 12 13  1  0
 13 14  1  0
 13 15  1  0
 15 16  2  0
 16 17  1  0
 16 18  1  0
 18 19  1  0
 18 20  2  0
 20 21  1  0
 21 22  1  0
 21 23  1  0
 21 24  1  0
 20 25  1  0
 25 26  1  0
 25 27  2  0
 27 28  1  0
 12 29  2  0
 29 30  1  0
  6 31  1  0
 31 32  1  0
 31 33  2  0
 33 34  1  0
 33  2  1  0
 30  7  1  0
 30 10  1  0
 27 15  1  0
M  END
>  <cnnaffinity>  (1) 
-5.23653

>  <filename>  (1) 
Cc1ccc(Nc2nn3c(-c4cccnc4)nnc3s2)cc1

$$$$
