
     RDKit          3D

 32 34  0  0  0  0  0  0  0  0999 V2000
    9.0616   -3.0081   22.1743 H   0  0  0  0  0  0  0  0  0  0  0  0
    8.4794   -2.1249   21.9792 C   0  0  0  0  0  0  0  0  0  0  0  0
    8.0211   -1.8510   20.7338 N   0  0  0  0  0  0  0  0  0  0  0  0
    7.3712   -0.7242   20.9110 C   0  0  0  0  0  0  0  0  0  0  0  0
    6.6429    0.0100   19.8905 C   0  0  0  0  0  0  0  0  0  0  0  0
    7.1710    0.0501   18.5946 C   0  0  0  0  0  0  0  0  0  0  0  0
    8.1212   -0.4367   18.3793 H   0  0  0  0  0  0  0  0  0  0  0  0
    6.5725    0.6785   17.5800 N   0  0  0  0  0  0  0  0  0  0  0  0
    5.4061    1.2919   17.8422 C   0  0  0  0  0  0  0  0  0  0  0  0
    4.9181    1.7755   17.0012 H   0  0  0  0  0  0  0  0  0  0  0  0
    4.8007    1.3135   19.1064 C   0  0  0  0  0  0  0  0  0  0  0  0
    3.8696    1.8453   19.2614 H   0  0  0  0  0  0  0  0  0  0  0  0
    5.4318    0.6640   20.1614 C   0  0  0  0  0  0  0  0  0  0  0  0
    4.9915    0.6329   21.1639 H   0  0  0  0  0  0  0  0  0  0  0  0
    7.4740   -0.3322   22.2264 N   0  0  0  0  0  0  0  0  0  0  0  0
    7.1065    0.8560   22.8128 N   0  0  0  0  0  0  0  0  0  0  0  0
    7.0573    1.6632   22.2199 H   0  0  0  0  0  0  0  0  0  0  0  0
    6.8394    1.0527   24.1710 C   0  0  0  0  0  0  0  0  0  0  0  0
    6.3862    0.0129   24.9869 C   0  0  0  0  0  0  0  0  0  0  0  0
    6.2427   -0.9656   24.5479 H   0  0  0  0  0  0  0  0  0  0  0  0
    6.1540    0.2361   26.3433 C   0  0  0  0  0  0  0  0  0  0  0  0
    5.8358   -0.5955   26.9646 H   0  0  0  0  0  0  0  0  0  0  0  0
    6.3383    1.4965   26.9236 C   0  0  0  0  0  0  0  0  0  0  0  0
    6.1060    1.7078   28.3956 C   0  0  0  0  0  0  0  0  0  0  0  0
    5.3425    1.0284   28.7885 H   0  0  0  0  0  0  0  0  0  0  0  0
    7.0268    1.5261   28.9604 H   0  0  0  0  0  0  0  0  0  0  0  0
    5.7836    2.7307   28.6121 H   0  0  0  0  0  0  0  0  0  0  0  0
    6.7637    2.5429   26.0927 C   0  0  0  0  0  0  0  0  0  0  0  0
    6.9086    3.5288   26.5312 H   0  0  0  0  0  0  0  0  0  0  0  0
    7.0022    2.3345   24.7295 C   0  0  0  0  0  0  0  0  0  0  0  0
    7.3333    3.1704   24.1167 H   0  0  0  0  0  0  0  0  0  0  0  0
    8.2006   -1.2372   22.9094 N   0  0  0  0  0  0  0  0  0  0  0  0
  1  2  1  0
  2  3  1  0
  3  4  2  0
  4  5  1  0
  5  6  2  0
  6  7  1  0
  6  8  1  0
  8  9  2  0
  9 10  1  0
  9 11  1  0
 11 12  1  0
 11 13  2  0
 13 14  1  0
  4 15  1  0
 15 16  1  0
 16 17  1  0
 16 18  1  0
 18 19  2  0
 19 20  1  0
 19 21  1  0
 21 22  1  0
 21 23  2  0
 23 24  1  0
 24 25  1  0
 24 26  1  0
 24 27  1  0
 23 28  1  0
 28 29  1  0
 28 30  2  0
 30 31  1  0
 15 32  1  0
 32  2  2  0
 13  5  1  0
 30 18  1  0
M  END
>  <cnnaffinity>  (1) 
-4.74015

>  <filename>  (1) 
Cc1ccc(Nn2ncnc2-c2cccnc2)cc1

$$$$
