
     RDKit          3D

 29 31  0  0  0  0  0  0  0  0999 V2000
    4.9151    1.7759   17.0015 H   0  0  0  0  0  0  0  0  0  0  0  0
    5.4057    1.2929   17.8413 C   0  0  0  0  0  0  0  0  0  0  0  0
    6.5725    0.6801   17.5768 N   0  0  0  0  0  0  0  0  0  0  0  0
    7.1729    0.0587   18.5946 C   0  0  0  0  0  0  0  0  0  0  0  0
    8.1195   -0.4367   18.3801 H   0  0  0  0  0  0  0  0  0  0  0  0
    6.6499    0.0212   19.8933 C   0  0  0  0  0  0  0  0  0  0  0  0
    7.3726   -0.7273   20.9200 C   0  0  0  0  0  0  0  0  0  0  0  0
    7.9341   -1.8893   20.7321 N   0  0  0  0  0  0  0  0  0  0  0  0
    8.4308   -2.3191   21.9360 N   0  0  0  0  0  0  0  0  0  0  0  0
    8.1741   -1.3891   22.8097 C   0  0  0  0  0  0  0  0  0  0  0  0
    8.4563   -1.3996   23.8513 H   0  0  0  0  0  0  0  0  0  0  0  0
    7.4985   -0.3317   22.2418 N   0  0  0  0  0  0  0  0  0  0  0  0
    7.1636    0.9224   22.8618 C   0  0  0  0  0  0  0  0  0  0  0  0
    6.5982    0.9831   24.1491 C   0  0  0  0  0  0  0  0  0  0  0  0
    6.4079    0.0537   24.6805 H   0  0  0  0  0  0  0  0  0  0  0  0
    6.2752    2.1225   24.7772 N   0  0  0  0  0  0  0  0  0  0  0  0
    6.5012    3.2796   24.1397 C   0  0  0  0  0  0  0  0  0  0  0  0
    6.1500    4.5576   24.8454 C   0  0  0  0  0  0  0  0  0  0  0  0
    7.0538    5.1257   25.0835 H   0  0  0  0  0  0  0  0  0  0  0  0
    5.6118    4.3656   25.7731 H   0  0  0  0  0  0  0  0  0  0  0  0
    5.5340    5.2021   24.2124 H   0  0  0  0  0  0  0  0  0  0  0  0
    7.0661    3.3200   22.8515 C   0  0  0  0  0  0  0  0  0  0  0  0
    7.2370    4.2779   22.3707 H   0  0  0  0  0  0  0  0  0  0  0  0
    7.4100    2.1362   22.2064 C   0  0  0  0  0  0  0  0  0  0  0  0
    7.8437    2.1492   21.2059 H   0  0  0  0  0  0  0  0  0  0  0  0
    5.4264    0.6523   20.1542 C   0  0  0  0  0  0  0  0  0  0  0  0
    5.0050    0.6342   21.1626 H   0  0  0  0  0  0  0  0  0  0  0  0
    4.7984    1.3122   19.1044 C   0  0  0  0  0  0  0  0  0  0  0  0
    3.8680    1.8462   19.2618 H   0  0  0  0  0  0  0  0  0  0  0  0
  1  2  1  0
  2  3  2  0
  3  4  1  0
  4  5  1  0
  4  6  2  0
  6  7  1  0
  7  8  2  0
  8  9  1  0
  9 10  2  0
 10 11  1  0
 10 12  1  0
 12 13  1  0
 13 14  2  0
 14 15  1  0
 14 16  1  0
 16 17  2  0
 17 18  1  0
 18 19  1  0
 18 20  1  0
 18 21  1  0
 17 22  1  0
 22 23  1  0
 22 24  2  0
 24 25  1  0
  6 26  1  0
 26 27  1  0
 26 28  2  0
 28 29  1  0
 28  2  1  0
 12  7  1  0
 24 13  1  0
M  END
>  <cnnaffinity>  (1) 
-5.01911

>  <filename>  (1) 
Cc1ccc(-n2cnnc2-c2cccnc2)cn1

$$$$
