
     RDKit          3D

 31 33  0  0  0  0  0  0  0  0999 V2000
    4.9318    1.7940   16.9876 H   0  0  0  0  0  0  0  0  0  0  0  0
    5.4010    1.2957   17.8343 C   0  0  0  0  0  0  0  0  0  0  0  0
    6.5653    0.6772   17.5797 N   0  0  0  0  0  0  0  0  0  0  0  0
    7.1612    0.0489   18.5960 C   0  0  0  0  0  0  0  0  0  0  0  0
    8.1084   -0.4377   18.3647 H   0  0  0  0  0  0  0  0  0  0  0  0
    6.6409    0.0142   19.8980 C   0  0  0  0  0  0  0  0  0  0  0  0
    7.3784   -0.7101   20.9258 C   0  0  0  0  0  0  0  0  0  0  0  0
    7.9586   -1.8478   20.6957 N   0  0  0  0  0  0  0  0  0  0  0  0
    8.4409   -2.2242   21.9167 N   0  0  0  0  0  0  0  0  0  0  0  0
    8.9530   -3.0710   22.0929 H   0  0  0  0  0  0  0  0  0  0  0  0
    8.2077   -1.3337   22.9108 C   0  0  0  0  0  0  0  0  0  0  0  0
    8.5601   -1.4344   24.0723 O   0  0  0  0  0  0  0  0  0  0  0  0
    7.5000   -0.3225   22.2502 N   0  0  0  0  0  0  0  0  0  0  0  0
    7.1444    0.9165   22.8526 C   0  0  0  0  0  0  0  0  0  0  0  0
    6.4888    0.9098   24.0844 C   0  0  0  0  0  0  0  0  0  0  0  0
    6.2925   -0.0417   24.5707 H   0  0  0  0  0  0  0  0  0  0  0  0
    6.1320    2.1221   24.6778 C   0  0  0  0  0  0  0  0  0  0  0  0
    5.6438    2.1235   25.6479 H   0  0  0  0  0  0  0  0  0  0  0  0
    6.4183    3.3519   24.0639 C   0  0  0  0  0  0  0  0  0  0  0  0
    6.0583    4.6625   24.7316 C   0  0  0  0  0  0  0  0  0  0  0  0
    5.1732    4.5712   25.3711 H   0  0  0  0  0  0  0  0  0  0  0  0
    5.8528    5.4531   24.0014 H   0  0  0  0  0  0  0  0  0  0  0  0
    6.8730    5.0267   25.3703 H   0  0  0  0  0  0  0  0  0  0  0  0
    7.0803    3.3270   22.8258 C   0  0  0  0  0  0  0  0  0  0  0  0
    7.2968    4.2697   22.3322 H   0  0  0  0  0  0  0  0  0  0  0  0
    7.4493    2.1251   22.2193 C   0  0  0  0  0  0  0  0  0  0  0  0
    7.9303    2.1128   21.2449 H   0  0  0  0  0  0  0  0  0  0  0  0
    5.4187    0.6513   20.1489 C   0  0  0  0  0  0  0  0  0  0  0  0
    5.0053    0.6487   21.1605 H   0  0  0  0  0  0  0  0  0  0  0  0
    4.7937    1.3093   19.0957 C   0  0  0  0  0  0  0  0  0  0  0  0
    3.8663    1.8457   19.2418 H   0  0  0  0  0  0  0  0  0  0  0  0
  1  2  1  0
  2  3  2  0
  3  4  1  0
  4  5  1  0
  4  6  2  0
  6  7  1  0
  7  8  2  0
  8  9  1  0
  9 10  1  0
  9 11  1  0
 11 12  2  0
 11 13  1  0
 13 14  1  0
 14 15  2  0
 15 16  1  0
 15 17  1  0
 17 18  1  0
 17 19  2  0
 19 20  1  0
 20 21  1  0
 20 22  1  0
 20 23  1  0
 19 24  1  0
 24 25  1  0
 24 26  2  0
 26 27  1  0
  6 28  1  0
 28 29  1  0
 28 30  2  0
 30 31  1  0
 30  2  1  0
 13  7  1  0
 26 14  1  0
M  END
>  <cnnaffinity>  (1) 
-4.94652

>  <filename>  (1) 
Cc1ccc(-n2c(-c3cccnc3)n[nH]c2=O)cc1

$$$$
