
     RDKit          3D

 35 37  0  0  0  0  0  0  0  0999 V2000
    4.9630    1.8367   16.9831 H   0  0  0  0  0  0  0  0  0  0  0  0
    5.4131    1.3059   17.8218 C   0  0  0  0  0  0  0  0  0  0  0  0
    6.5496    0.6398   17.5679 N   0  0  0  0  0  0  0  0  0  0  0  0
    7.1326   -0.0133   18.5799 C   0  0  0  0  0  0  0  0  0  0  0  0
    8.0474   -0.5509   18.3410 H   0  0  0  0  0  0  0  0  0  0  0  0
    6.6295   -0.0379   19.8970 C   0  0  0  0  0  0  0  0  0  0  0  0
    7.2740   -0.7588   20.9504 N   0  0  0  0  0  0  0  0  0  0  0  0
    6.6874   -1.6909   21.7723 C   0  0  0  0  0  0  0  0  0  0  0  0
    5.6547   -2.0034   21.6717 H   0  0  0  0  0  0  0  0  0  0  0  0
    7.5392   -2.1618   22.6344 N   0  0  0  0  0  0  0  0  0  0  0  0
    8.7379   -1.5326   22.4116 N   0  0  0  0  0  0  0  0  0  0  0  0
    8.5760   -0.6849   21.4309 C   0  0  0  0  0  0  0  0  0  0  0  0
    9.6709    0.1974   20.8546 C   0  0  0  0  0  0  0  0  0  0  0  0
    9.2489    0.7934   20.0394 H   0  0  0  0  0  0  0  0  0  0  0  0
   10.4071   -0.4877   20.4179 H   0  0  0  0  0  0  0  0  0  0  0  0
   10.4052    1.0894   21.7450 N   0  0  0  0  0  0  0  0  0  0  0  0
   11.1438    0.6363   22.2679 H   0  0  0  0  0  0  0  0  0  0  0  0
    9.7899    2.0774   22.5138 C   0  0  0  0  0  0  0  0  0  0  0  0
   10.5839    2.7425   23.4658 C   0  0  0  0  0  0  0  0  0  0  0  0
   11.6260    2.4455   23.5834 H   0  0  0  0  0  0  0  0  0  0  0  0
   10.0431    3.7414   24.2688 C   0  0  0  0  0  0  0  0  0  0  0  0
   10.6783    4.2810   24.9612 H   0  0  0  0  0  0  0  0  0  0  0  0
    8.6781    4.0725   24.2116 C   0  0  0  0  0  0  0  0  0  0  0  0
    8.0874    5.0470   25.2063 C   0  0  0  0  0  0  0  0  0  0  0  0
    7.0024    4.9195   25.2976 H   0  0  0  0  0  0  0  0  0  0  0  0
    8.5219    4.8937   26.2035 H   0  0  0  0  0  0  0  0  0  0  0  0
    8.2808    6.0914   24.9331 H   0  0  0  0  0  0  0  0  0  0  0  0
    7.9018    3.4109   23.2506 C   0  0  0  0  0  0  0  0  0  0  0  0
    6.8372    3.6197   23.2123 H   0  0  0  0  0  0  0  0  0  0  0  0
    8.4387    2.4456   22.3864 C   0  0  0  0  0  0  0  0  0  0  0  0
    7.8053    1.9697   21.6402 H   0  0  0  0  0  0  0  0  0  0  0  0
    5.4366    0.6506   20.1445 C   0  0  0  0  0  0  0  0  0  0  0  0
    5.0084    0.6561   21.1469 H   0  0  0  0  0  0  0  0  0  0  0  0
    4.8207    1.3287   19.0876 C   0  0  0  0  0  0  0  0  0  0  0  0
    3.8942    1.8721   19.2300 H   0  0  0  0  0  0  0  0  0  0  0  0
  1  2  1  0
  2  3  2  0
  3  4  1  0
  4  5  1  0
  4  6  2  0
  6  7  1  0
  7  8  1  0
  8  9  1  0
  8 10  2  0
 10 11  1  0
 11 12  2  0
 12 13  1  0
 13 14  1  0
 13 15  1  0
 13 16  1  0
 16 17  1  0
 16 18  1  0
 18 19  2  0
 19 20  1  0
 19 21  1  0
 21 22  1  0
 21 23  2  0
 23 24  1  0
 24 25  1  0
 24 26  1  0
 24 27  1  0
 23 28  1  0
 28 29  1  0
 28 30  2  0
 30 31  1  0
  6 32  1  0
 32 33  1  0
 32 34  2  0
 34 35  1  0
 34  2  1  0
 12  7  1  0
 30 18  1  0
M  END
>  <cnnaffinity>  (1) 
-4.98456

>  <filename>  (1) 
Cc1ccc(NCc2nncn2-c2cccnc2)cc1

$$$$
