
     RDKit          3D

 36 38  0  0  0  0  0  0  0  0999 V2000
    5.0862    1.7222   16.8816 H   0  0  0  0  0  0  0  0  0  0  0  0
    5.4849    1.2725   17.7912 C   0  0  0  0  0  0  0  0  0  0  0  0
    6.6368    0.5952   17.6697 N   0  0  0  0  0  0  0  0  0  0  0  0
    7.1534    0.0545   18.7825 C   0  0  0  0  0  0  0  0  0  0  0  0
    8.0945   -0.4752   18.6437 H   0  0  0  0  0  0  0  0  0  0  0  0
    6.5734    0.1468   20.0662 C   0  0  0  0  0  0  0  0  0  0  0  0
    7.2105   -0.5484   21.2180 C   0  0  0  0  0  0  0  0  0  0  0  0
    7.6650   -1.8454   21.2769 C   0  0  0  0  0  0  0  0  0  0  0  0
    7.5522   -2.5563   20.4771 H   0  0  0  0  0  0  0  0  0  0  0  0
    8.1557   -2.0151   22.5857 C   0  0  0  0  0  0  0  0  0  0  0  0
    8.6252   -2.8916   23.0132 H   0  0  0  0  0  0  0  0  0  0  0  0
    8.0020   -0.9162   23.3073 N   0  0  0  0  0  0  0  0  0  0  0  0
    7.4835   -0.0285   22.4641 N   0  0  0  0  0  0  0  0  0  0  0  0
    6.9996    1.1748   23.0109 N   0  0  0  0  0  0  0  0  0  0  0  0
    7.5496    1.9492   22.6601 H   0  0  0  0  0  0  0  0  0  0  0  0
    7.4345    1.4614   24.6342 S   0  0  0  0  0  0  0  0  0  0  0  0
    8.8350    1.1571   24.8536 O   0  0  0  0  0  0  0  0  0  0  0  0
    6.9634    2.8254   24.7586 O   0  0  0  0  0  0  0  0  0  0  0  0
    6.4134    0.2958   25.4883 C   0  0  0  0  0  0  0  0  0  0  0  0
    6.9713   -0.4289   26.5485 C   0  0  0  0  0  0  0  0  0  0  0  0
    8.0053   -0.2671   26.8533 H   0  0  0  0  0  0  0  0  0  0  0  0
    6.1901   -1.3822   27.2003 C   0  0  0  0  0  0  0  0  0  0  0  0
    6.6028   -1.9232   28.0417 H   0  0  0  0  0  0  0  0  0  0  0  0
    4.8716   -1.6575   26.7992 C   0  0  0  0  0  0  0  0  0  0  0  0
    4.0837   -2.7839   27.4277 C   0  0  0  0  0  0  0  0  0  0  0  0
    3.0232   -2.7368   27.1599 H   0  0  0  0  0  0  0  0  0  0  0  0
    4.1529   -2.7710   28.5213 H   0  0  0  0  0  0  0  0  0  0  0  0
    4.4664   -3.7540   27.0868 H   0  0  0  0  0  0  0  0  0  0  0  0
    4.3204   -0.8633   25.7839 C   0  0  0  0  0  0  0  0  0  0  0  0
    3.2780   -0.9848   25.5079 H   0  0  0  0  0  0  0  0  0  0  0  0
    5.0790    0.1000   25.1174 C   0  0  0  0  0  0  0  0  0  0  0  0
    4.6309    0.6382   24.2835 H   0  0  0  0  0  0  0  0  0  0  0  0
    5.3545    0.8420   20.1552 C   0  0  0  0  0  0  0  0  0  0  0  0
    4.8471    0.9172   21.1160 H   0  0  0  0  0  0  0  0  0  0  0  0
    4.8055    1.4116   19.0043 C   0  0  0  0  0  0  0  0  0  0  0  0
    3.8731    1.9657   19.0310 H   0  0  0  0  0  0  0  0  0  0  0  0
  1  2  1  0
  2  3  2  0
  3  4  1  0
  4  5  1  0
  4  6  2  0
  6  7  1  0
  7  8  2  0
  8  9  1  0
  8 10  1  0
 10 11  1  0
 10 12  2  0
 12 13  1  0
 13 14  1  0
 14 15  1  0
 14 16  1  0
 16 17  2  0
 16 18  2  0
 16 19  1  0
 19 20  2  0
 20 21  1  0
 20 22  1  0
 22 23  1  0
 22 24  2  0
 24 25  1  0
 25 26  1  0
 25 27  1  0
 25 28  1  0
 24 29  1  0
 29 30  1  0
 29 31  2  0
 31 32  1  0
  6 33  1  0
 33 34  1  0
 33 35  2  0
 35 36  1  0
 35  2  1  0
 13  7  1  0
 31 19  1  0
M  END
>  <cnnaffinity>  (1) 
-4.82711

>  <filename>  (1) 
Cc1ccc(S(=O)(=O)Nn2nccc2-c2cccnc2)cc1

$$$$
