
     RDKit          3D

 41 43  0  0  0  0  0  0  0  0999 V2000
    5.9600   -1.8656   21.0880 H   0  0  0  0  0  0  0  0  0  0  0  0
    6.6546   -1.6057   21.7045 O   0  0  0  0  0  0  0  0  0  0  0  0
    7.4861   -0.7377   20.9498 C   0  0  1  0  0  0  0  0  0  0  0  0
    8.2446   -1.3491   20.4262 H   0  0  0  0  0  0  0  0  0  0  0  0
    6.6563   -0.0426   19.8742 C   0  0  0  0  0  0  0  0  0  0  0  0
    7.1349   -0.0364   18.5556 C   0  0  0  0  0  0  0  0  0  0  0  0
    8.0347   -0.5979   18.3035 H   0  0  0  0  0  0  0  0  0  0  0  0
    6.5568    0.6106   17.5304 N   0  0  0  0  0  0  0  0  0  0  0  0
    5.4306    1.2843   17.7939 C   0  0  0  0  0  0  0  0  0  0  0  0
    4.9862    1.8164   16.9535 H   0  0  0  0  0  0  0  0  0  0  0  0
    4.8213    1.3027   19.0528 C   0  0  0  0  0  0  0  0  0  0  0  0
    3.8885    1.8425   19.1892 H   0  0  0  0  0  0  0  0  0  0  0  0
    5.4324    0.6130   20.1063 C   0  0  0  0  0  0  0  0  0  0  0  0
    4.9537    0.5755   21.0873 H   0  0  0  0  0  0  0  0  0  0  0  0
    8.2819    0.2112   21.9041 C   0  0  0  0  0  0  0  0  0  0  0  0
    9.2329    1.1014   21.0554 C   0  0  0  0  0  0  0  0  0  0  0  0
    9.7557    0.4581   20.3350 H   0  0  0  0  0  0  0  0  0  0  0  0
    8.5965    1.7708   20.4573 H   0  0  0  0  0  0  0  0  0  0  0  0
   10.2532    1.9524   21.7940 C   0  0  0  0  0  0  0  0  0  0  0  0
    9.8739    3.2110   22.2811 C   0  0  0  0  0  0  0  0  0  0  0  0
    8.8523    3.5580   22.1429 H   0  0  0  0  0  0  0  0  0  0  0  0
   10.7958    4.0827   22.8560 C   0  0  0  0  0  0  0  0  0  0  0  0
   10.4836    5.0852   23.1376 H   0  0  0  0  0  0  0  0  0  0  0  0
   12.1383    3.7131   23.0087 C   0  0  0  0  0  0  0  0  0  0  0  0
   13.1241    4.7010   23.5845 C   0  0  0  0  0  0  0  0  0  0  0  0
   14.1261    4.2762   23.6524 H   0  0  0  0  0  0  0  0  0  0  0  0
   13.1940    5.6038   22.9646 H   0  0  0  0  0  0  0  0  0  0  0  0
   12.8342    5.0197   24.5929 H   0  0  0  0  0  0  0  0  0  0  0  0
   12.5199    2.4338   22.5816 C   0  0  0  0  0  0  0  0  0  0  0  0
   13.5506    2.1108   22.7233 H   0  0  0  0  0  0  0  0  0  0  0  0
   11.5947    1.5675   21.9771 C   0  0  0  0  0  0  0  0  0  0  0  0
   11.9375    0.5906   21.6378 H   0  0  0  0  0  0  0  0  0  0  0  0
    8.9896   -0.5326   23.0833 C   0  0  0  0  0  0  0  0  0  0  0  0
   10.0815   -0.4443   23.0989 H   0  0  0  0  0  0  0  0  0  0  0  0
    8.7364   -1.5929   23.1455 H   0  0  0  0  0  0  0  0  0  0  0  0
    8.2361    0.3554   24.1021 C   0  0  0  0  0  0  0  0  0  0  0  0
    8.8815    1.0542   24.6427 H   0  0  0  0  0  0  0  0  0  0  0  0
    7.6375   -0.1920   24.8376 H   0  0  0  0  0  0  0  0  0  0  0  0
    7.4297    1.0034   22.9511 C   0  0  0  0  0  0  0  0  0  0  0  0
    6.3670    0.7465   22.9541 H   0  0  0  0  0  0  0  0  0  0  0  0
    7.4950    2.0953   22.8912 H   0  0  0  0  0  0  0  0  0  0  0  0
  1  2  1  0
  2  3  1  0
  3  4  1  6
  3  5  1  0
  5  6  2  0
  6  7  1  0
  6  8  1  0
  8  9  2  0
  9 10  1  0
  9 11  1  0
 11 12  1  0
 11 13  2  0
 13 14  1  0
  3 15  1  0
 15 16  1  0
 16 17  1  0
 16 18  1  0
 16 19  1  0
 19 20  2  0
 20 21  1  0
 20 22  1  0
 22 23  1  0
 22 24  2  0
 24 25  1  0
 25 26  1  0
 25 27  1  0
 25 28  1  0
 24 29  1  0
 29 30  1  0
 29 31  2  0
 31 32  1  0
 15 33  1  0
 33 34  1  0
 33 35  1  0
 33 36  1  0
 36 37  1  0
 36 38  1  0
 36 39  1  0
 39 40  1  0
 39 41  1  0
 13  5  1  0
 39 15  1  0
 31 19  1  0
M  END
>  <cnnaffinity>  (1) 
-5.08895

>  <filename>  (1) 
Cc1ccc(CC2([C@@H](O)c3cccnc3)CCC2)cc1

$$$$
