
     RDKit          3D

 29 30  0  0  0  0  0  0  0  0999 V2000
    5.0725    1.7815   16.9930 H   0  0  0  0  0  0  0  0  0  0  0  0
    5.5231    1.2669   17.8441 C   0  0  0  0  0  0  0  0  0  0  0  0
    6.6868    0.6333   17.6221 N   0  0  0  0  0  0  0  0  0  0  0  0
    7.2501   -0.0015   18.6556 C   0  0  0  0  0  0  0  0  0  0  0  0
    8.1842   -0.5172   18.4400 H   0  0  0  0  0  0  0  0  0  0  0  0
    6.6906   -0.0533   19.9331 C   0  0  0  0  0  0  0  0  0  0  0  0
    7.3192   -0.8574   21.0222 C   0  0  0  0  0  0  0  0  0  0  0  0
    6.6666   -1.4870   21.8312 O   0  0  0  0  0  0  0  0  0  0  0  0
    8.7090   -0.7829   21.0011 N   0  0  0  0  0  0  0  0  0  0  0  0
    9.0442    0.0575   20.5470 H   0  0  0  0  0  0  0  0  0  0  0  0
    9.5702   -1.2674   21.9988 N   0  0  0  0  0  0  0  0  0  0  0  0
    9.8688   -2.2291   21.8307 H   0  0  0  0  0  0  0  0  0  0  0  0
    9.2346   -1.0823   23.3542 C   0  0  0  0  0  0  0  0  0  0  0  0
    8.5731    0.0563   23.8675 C   0  0  0  0  0  0  0  0  0  0  0  0
    8.2208    0.8320   23.1929 H   0  0  0  0  0  0  0  0  0  0  0  0
    8.3079    0.2621   25.1702 N   0  0  0  0  0  0  0  0  0  0  0  0
    8.6606   -0.6916   26.0450 C   0  0  0  0  0  0  0  0  0  0  0  0
    8.3466   -0.4615   27.5014 C   0  0  0  0  0  0  0  0  0  0  0  0
    7.7435    0.4421   27.6283 H   0  0  0  0  0  0  0  0  0  0  0  0
    9.2637   -0.3632   28.0989 H   0  0  0  0  0  0  0  0  0  0  0  0
    7.7894   -1.3188   27.8939 H   0  0  0  0  0  0  0  0  0  0  0  0
    9.2999   -1.8783   25.6241 C   0  0  0  0  0  0  0  0  0  0  0  0
    9.5459   -2.6375   26.3596 H   0  0  0  0  0  0  0  0  0  0  0  0
    9.6193   -2.0705   24.2810 C   0  0  0  0  0  0  0  0  0  0  0  0
   10.1463   -2.9747   23.9483 H   0  0  0  0  0  0  0  0  0  0  0  0
    5.4825    0.6181   20.1610 C   0  0  0  0  0  0  0  0  0  0  0  0
    5.0360    0.6135   21.1570 H   0  0  0  0  0  0  0  0  0  0  0  0
    4.8935    1.2912   19.0946 C   0  0  0  0  0  0  0  0  0  0  0  0
    3.9642    1.8367   19.2244 H   0  0  0  0  0  0  0  0  0  0  0  0
  1  2  1  0
  2  3  2  0
  3  4  1  0
  4  5  1  0
  4  6  2  0
  6  7  1  0
  7  8  2  0
  7  9  1  0
  9 10  1  0
  9 11  1  0
 11 12  1  0
 11 13  1  0
 13 14  2  0
 14 15  1  0
 14 16  1  0
 16 17  2  0
 17 18  1  0
 18 19  1  0
 18 20  1  0
 18 21  1  0
 17 22  1  0
 22 23  1  0
 22 24  2  0
 24 25  1  0
  6 26  1  0
 26 27  1  0
 26 28  2  0
 28 29  1  0
 28  2  1  0
 24 13  1  0
M  END
>  <cnnaffinity>  (1) 
-4.49717

>  <filename>  (1) 
Cc1ccc(NNC(=O)c2cccnc2)cn1

$$$$
