
     RDKit          3D

 31 33  0  0  0  0  0  0  0  0999 V2000
    4.9333    1.8112   16.9639 H   0  0  0  0  0  0  0  0  0  0  0  0
    5.4026    1.3100   17.8054 C   0  0  0  0  0  0  0  0  0  0  0  0
    6.5624    0.6871   17.5490 N   0  0  0  0  0  0  0  0  0  0  0  0
    7.1743    0.0715   18.5671 C   0  0  0  0  0  0  0  0  0  0  0  0
    8.1074   -0.4248   18.3064 H   0  0  0  0  0  0  0  0  0  0  0  0
    6.6697    0.0256   19.8826 C   0  0  0  0  0  0  0  0  0  0  0  0
    7.3492   -0.7050   20.9650 C   0  0  0  0  0  0  0  0  0  0  0  0
    6.8394   -1.2545   22.0877 C   0  0  0  0  0  0  0  0  0  0  0  0
    5.8366   -1.3346   22.4459 H   0  0  0  0  0  0  0  0  0  0  0  0
    7.8601   -1.8429   22.8209 N   0  0  0  0  0  0  0  0  0  0  0  0
    7.6432   -2.4892   24.0818 C   0  0  0  0  0  0  0  0  0  0  0  0
    6.5784   -3.3875   24.2714 C   0  0  0  0  0  0  0  0  0  0  0  0
    5.8882   -3.5903   23.4552 H   0  0  0  0  0  0  0  0  0  0  0  0
    6.3608   -4.0483   25.4124 N   0  0  0  0  0  0  0  0  0  0  0  0
    7.1902   -3.8334   26.4469 C   0  0  0  0  0  0  0  0  0  0  0  0
    6.9072   -4.6355   27.6832 C   0  0  0  0  0  0  0  0  0  0  0  0
    7.8235   -4.9789   28.1720 H   0  0  0  0  0  0  0  0  0  0  0  0
    6.3344   -4.0484   28.4048 H   0  0  0  0  0  0  0  0  0  0  0  0
    6.3078   -5.5079   27.4153 H   0  0  0  0  0  0  0  0  0  0  0  0
    8.2546   -2.9135   26.3712 C   0  0  0  0  0  0  0  0  0  0  0  0
    8.8984   -2.7590   27.2353 H   0  0  0  0  0  0  0  0  0  0  0  0
    8.4859   -2.2380   25.1702 C   0  0  0  0  0  0  0  0  0  0  0  0
    9.3022   -1.5283   25.0560 H   0  0  0  0  0  0  0  0  0  0  0  0
    9.0539   -1.6761   22.1393 C   0  0  0  0  0  0  0  0  0  0  0  0
   10.6119   -2.1456   22.4818 S   0  0  0  0  0  0  0  0  0  0  0  0
    8.7065   -1.0029   21.0096 N   0  0  0  0  0  0  0  0  0  0  0  0
    9.4650   -0.7232   20.4098 H   0  0  0  0  0  0  0  0  0  0  0  0
    5.4435    0.6783   20.1208 C   0  0  0  0  0  0  0  0  0  0  0  0
    5.0115    0.6842   21.1222 H   0  0  0  0  0  0  0  0  0  0  0  0
    4.8037    1.3285   19.0674 C   0  0  0  0  0  0  0  0  0  0  0  0
    3.8655    1.8524   19.2093 H   0  0  0  0  0  0  0  0  0  0  0  0
  1  2  1  0
  2  3  2  0
  3  4  1  0
  4  5  1  0
  4  6  2  0
  6  7  1  0
  7  8  2  0
  8  9  1  0
  8 10  1  0
 10 11  1  0
 11 12  2  0
 12 13  1  0
 12 14  1  0
 14 15  2  0
 15 16  1  0
 16 17  1  0
 16 18  1  0
 16 19  1  0
 15 20  1  0
 20 21  1  0
 20 22  2  0
 22 23  1  0
 10 24  1  0
 24 25  2  0
 24 26  1  0
 26 27  1  0
  6 28  1  0
 28 29  1  0
 28 30  2  0
 30 31  1  0
 30  2  1  0
 26  7  1  0
 22 11  1  0
M  END
>  <cnnaffinity>  (1) 
-5.52676

>  <filename>  (1) 
Cc1ccc(-n2cc(-c3cccnc3)[nH]c2=S)cn1

$$$$
