
     RDKit          3D

 37 39  0  0  0  0  0  0  0  0999 V2000
    4.9220    1.7794   16.9974 H   0  0  0  0  0  0  0  0  0  0  0  0
    5.4037    1.2942   17.8401 C   0  0  0  0  0  0  0  0  0  0  0  0
    6.5682    0.6773   17.5794 N   0  0  0  0  0  0  0  0  0  0  0  0
    7.1642    0.0521   18.5965 C   0  0  0  0  0  0  0  0  0  0  0  0
    8.1108   -0.4348   18.3763 H   0  0  0  0  0  0  0  0  0  0  0  0
    6.6498    0.0186   19.9000 C   0  0  0  0  0  0  0  0  0  0  0  0
    7.4020   -0.7268   20.9105 C   0  0  0  0  0  0  0  0  0  0  0  0
    7.8675   -1.9428   20.7429 N   0  0  0  0  0  0  0  0  0  0  0  0
    8.4583   -2.2756   21.9317 C   0  0  0  0  0  0  0  0  0  0  0  0
    8.9390   -3.2320   22.0732 H   0  0  0  0  0  0  0  0  0  0  0  0
    8.3782   -1.2403   22.8191 C   0  0  0  0  0  0  0  0  0  0  0  0
    8.7474   -1.1207   23.8286 H   0  0  0  0  0  0  0  0  0  0  0  0
    7.6992   -0.2394   22.1556 N   0  0  0  0  0  0  0  0  0  0  0  0
    7.4268    1.0760   22.7185 C   0  0  0  0  0  0  0  0  0  0  0  0
    7.1308    1.7624   21.9244 H   0  0  0  0  0  0  0  0  0  0  0  0
    8.3590    1.4778   23.1217 H   0  0  0  0  0  0  0  0  0  0  0  0
    6.3697    1.0428   23.8251 C   0  0  0  0  0  0  0  0  0  0  0  0
    5.4810    0.5272   23.4555 H   0  0  0  0  0  0  0  0  0  0  0  0
    6.7489    0.4440   24.6601 H   0  0  0  0  0  0  0  0  0  0  0  0
    5.9988    2.4227   24.2930 C   0  0  0  0  0  0  0  0  0  0  0  0
    6.7093    3.0410   25.3310 C   0  0  0  0  0  0  0  0  0  0  0  0
    7.5092    2.4983   25.8314 H   0  0  0  0  0  0  0  0  0  0  0  0
    6.4021    4.3429   25.7258 C   0  0  0  0  0  0  0  0  0  0  0  0
    6.9491    4.8040   26.5445 H   0  0  0  0  0  0  0  0  0  0  0  0
    5.3822    5.0636   25.0882 C   0  0  0  0  0  0  0  0  0  0  0  0
    5.0287    6.4536   25.5380 C   0  0  0  0  0  0  0  0  0  0  0  0
    5.8928    6.9777   25.9541 H   0  0  0  0  0  0  0  0  0  0  0  0
    4.6350    7.0579   24.7167 H   0  0  0  0  0  0  0  0  0  0  0  0
    4.2609    6.4228   26.3164 H   0  0  0  0  0  0  0  0  0  0  0  0
    4.6833    4.4514   24.0376 C   0  0  0  0  0  0  0  0  0  0  0  0
    3.8910    5.0004   23.5338 H   0  0  0  0  0  0  0  0  0  0  0  0
    4.9916    3.1499   23.6424 C   0  0  0  0  0  0  0  0  0  0  0  0
    4.4477    2.6967   22.8140 H   0  0  0  0  0  0  0  0  0  0  0  0
    5.4321    0.6652   20.1572 C   0  0  0  0  0  0  0  0  0  0  0  0
    4.9895    0.6376   21.1601 H   0  0  0  0  0  0  0  0  0  0  0  0
    4.7961    1.3141   19.1033 C   0  0  0  0  0  0  0  0  0  0  0  0
    3.8644    1.8490   19.2580 H   0  0  0  0  0  0  0  0  0  0  0  0
  1  2  1  0
  2  3  2  0
  3  4  1  0
  4  5  1  0
  4  6  2  0
  6  7  1  0
  7  8  2  0
  8  9  1  0
  9 10  1  0
  9 11  2  0
 11 12  1  0
 11 13  1  0
 13 14  1  0
 14 15  1  0
 14 16  1  0
 14 17  1  0
 17 18  1  0
 17 19  1  0
 17 20  1  0
 20 21  2  0
 21 22  1  0
 21 23  1  0
 23 24  1  0
 23 25  2  0
 25 26  1  0
 26 27  1  0
 26 28  1  0
 26 29  1  0
 25 30  1  0
 30 31  1  0
 30 32  2  0
 32 33  1  0
  6 34  1  0
 34 35  1  0
 34 36  2  0
 36 37  1  0
 36  2  1  0
 13  7  1  0
 32 20  1  0
M  END
>  <cnnaffinity>  (1) 
-4.86354

>  <filename>  (1) 
Cc1ccc(CCn2ccnc2-c2cccnc2)cc1

$$$$
