
     RDKit          3D

 26 27  0  0  0  0  0  0  0  0999 V2000
    5.0102    1.7121   16.8798 H   0  0  0  0  0  0  0  0  0  0  0  0
    5.4566    1.2382   17.7544 C   0  0  0  0  0  0  0  0  0  0  0  0
    6.6170    0.5903   17.5629 N   0  0  0  0  0  0  0  0  0  0  0  0
    7.1901   -0.0154   18.6140 C   0  0  0  0  0  0  0  0  0  0  0  0
    8.1362   -0.5256   18.4181 H   0  0  0  0  0  0  0  0  0  0  0  0
    6.6450   -0.0004   19.9226 C   0  0  0  0  0  0  0  0  0  0  0  0
    7.2391   -0.6478   21.0469 N   0  0  0  0  0  0  0  0  0  0  0  0
    7.9737   -1.3239   20.9450 H   0  0  0  0  0  0  0  0  0  0  0  0
    7.4281   -0.1282   22.2847 C   0  0  0  0  0  0  0  0  0  0  0  0
    6.8891    0.9449   22.7103 N   0  0  0  0  0  0  0  0  0  0  0  0
    7.2459    1.4186   23.9153 C   0  0  0  0  0  0  0  0  0  0  0  0
    7.9945    0.9751   24.8957 N   0  0  0  0  0  0  0  0  0  0  0  0
    7.9360    1.9309   25.9050 N   0  0  0  0  0  0  0  0  0  0  0  0
    7.1715    2.8653   25.4677 C   0  0  0  0  0  0  0  0  0  0  0  0
    6.7268    4.1279   26.1223 C   0  0  0  0  0  0  0  0  0  0  0  0
    5.7209    4.3631   25.7755 H   0  0  0  0  0  0  0  0  0  0  0  0
    6.7216    4.0350   27.2083 H   0  0  0  0  0  0  0  0  0  0  0  0
    7.3757    4.9614   25.8384 H   0  0  0  0  0  0  0  0  0  0  0  0
    6.7092    2.6297   24.2242 O   0  0  0  0  0  0  0  0  0  0  0  0
    8.2383   -0.9783   22.9737 N   0  0  0  0  0  0  0  0  0  0  0  0
    8.3027   -0.6729   23.9373 H   0  0  0  0  0  0  0  0  0  0  0  0
    7.7974   -1.8739   22.8806 H   0  0  0  0  0  0  0  0  0  0  0  0
    5.4357    0.6837   20.1005 C   0  0  0  0  0  0  0  0  0  0  0  0
    5.0132    0.7317   21.1001 H   0  0  0  0  0  0  0  0  0  0  0  0
    4.8283    1.2969   19.0001 C   0  0  0  0  0  0  0  0  0  0  0  0
    3.8887    1.8240   19.1075 H   0  0  0  0  0  0  0  0  0  0  0  0
  1  2  1  0
  2  3  2  0
  3  4  1  0
  4  5  1  0
  4  6  2  0
  6  7  1  0
  7  8  1  0
  7  9  1  0
  9 10  2  3
 10 11  1  0
 11 12  2  0
 12 13  1  0
 13 14  2  0
 14 15  1  0
 15 16  1  0
 15 17  1  0
 15 18  1  0
 14 19  1  0
  9 20  1  0
 20 21  1  0
 20 22  1  0
  6 23  1  0
 23 24  1  0
 23 25  2  0
 25 26  1  0
 25  2  1  0
 19 11  1  0
M  END
>  <cnnaffinity>  (1) 
-4.39622

>  <filename>  (1) 
Cc1nnc(N=C(N)Nc2cccnc2)o1

$$$$
