
     RDKit          3D

 39 40  0  0  0  0  0  0  0  0999 V2000
    6.8491   -1.2742   26.6221 C   0  0  0  0  0  0  0  0  0  0  0  0
    5.7522   -2.0751   25.9177 C   0  0  0  0  0  0  0  0  0  0  0  0
    6.3283   -2.7881   24.7175 C   0  0  0  0  0  0  0  0  0  0  0  0
    6.7677   -4.1237   24.6965 C   0  0  0  0  0  0  0  0  0  0  0  0
    7.3023   -4.7248   23.6177 N   0  0  0  0  0  0  0  0  0  0  0  0
    7.3890   -4.0205   22.4895 C   0  0  0  0  0  0  0  0  0  0  0  0
    6.9961   -2.6806   22.3998 C   0  0  0  0  0  0  0  0  0  0  0  0
    6.8902   -2.0527   21.0515 C   0  0  0  0  0  0  0  0  0  0  0  0
    6.4011   -2.6718   20.1231 O   0  0  0  0  0  0  0  0  0  0  0  0
    7.3254   -0.7319   20.9141 N   0  0  0  0  0  0  0  0  0  0  0  0
    6.6827    0.0221   19.8723 C   0  0  0  0  0  0  0  0  0  0  0  0
    5.4644    0.6602   20.1310 C   0  0  0  0  0  0  0  0  0  0  0  0
    4.8207    1.3248   19.0822 C   0  0  0  0  0  0  0  0  0  0  0  0
    5.4217    1.3186   17.8188 C   0  0  0  0  0  0  0  0  0  0  0  0
    6.5802    0.6959   17.5499 N   0  0  0  0  0  0  0  0  0  0  0  0
    7.1856    0.0575   18.5613 C   0  0  0  0  0  0  0  0  0  0  0  0
    8.1166   -0.4711   18.3424 H   0  0  0  0  0  0  0  0  0  0  0  0
    4.9477    1.8234   16.9808 H   0  0  0  0  0  0  0  0  0  0  0  0
    3.8774    1.8357   19.2314 H   0  0  0  0  0  0  0  0  0  0  0  0
    5.0452    0.6435   21.1390 H   0  0  0  0  0  0  0  0  0  0  0  0
    8.3546   -0.0627   21.7408 C   0  0  0  0  0  0  0  0  0  0  0  0
    9.6316    0.1488   20.9236 C   0  0  0  0  0  0  0  0  0  0  0  0
   10.4298    0.5719   21.5483 H   0  0  0  0  0  0  0  0  0  0  0  0
    9.9934   -0.7949   20.5024 H   0  0  0  0  0  0  0  0  0  0  0  0
    9.4403    0.8509   20.1038 H   0  0  0  0  0  0  0  0  0  0  0  0
    7.8625    1.2748   22.3112 C   0  0  0  0  0  0  0  0  0  0  0  0
    7.6603    1.9909   21.5037 H   0  0  0  0  0  0  0  0  0  0  0  0
    6.9478    1.1696   22.9064 H   0  0  0  0  0  0  0  0  0  0  0  0
    8.6243    1.7214   22.9628 H   0  0  0  0  0  0  0  0  0  0  0  0
    8.5878   -0.7350   22.5751 H   0  0  0  0  0  0  0  0  0  0  0  0
    6.5175   -2.0566   23.5503 C   0  0  0  0  0  0  0  0  0  0  0  0
    6.2533   -0.9954   23.5511 H   0  0  0  0  0  0  0  0  0  0  0  0
    7.7956   -4.5370   21.6202 H   0  0  0  0  0  0  0  0  0  0  0  0
    6.6452   -4.7462   25.5788 H   0  0  0  0  0  0  0  0  0  0  0  0
    5.2677   -2.7767   26.6037 H   0  0  0  0  0  0  0  0  0  0  0  0
    4.9576   -1.3954   25.5750 H   0  0  0  0  0  0  0  0  0  0  0  0
    7.6472   -1.9470   26.9505 H   0  0  0  0  0  0  0  0  0  0  0  0
    6.4805   -0.7181   27.4898 H   0  0  0  0  0  0  0  0  0  0  0  0
    7.2878   -0.5578   25.9178 H   0  0  0  0  0  0  0  0  0  0  0  0
  1  2  1  0
  2  3  1  0
  3  4  2  0
  4  5  1  0
  5  6  2  0
  6  7  1  0
  7  8  1  0
  8  9  2  0
  8 10  1  0
 10 11  1  0
 11 12  2  0
 12 13  1  0
 13 14  2  0
 14 15  1  0
 15 16  2  0
 16 17  1  0
 14 18  1  0
 13 19  1  0
 12 20  1  0
 10 21  1  0
 21 22  1  0
 22 23  1  0
 22 24  1  0
 22 25  1  0
 21 26  1  0
 26 27  1  0
 26 28  1  0
 26 29  1  0
 21 30  1  0
  7 31  2  0
 31 32  1  0
  6 33  1  0
  4 34  1  0
  2 35  1  0
  2 36  1  0
  1 37  1  0
  1 38  1  0
  1 39  1  0
 31  3  1  0
 16 11  1  0
M  END
>  <cnnaffinity>  (1) 
-5.05361

>  <filename>  (1) 
CCc1cncc(C(=O)N(c2cccnc2)C(C)C)c1

$$$$
