
     RDKit          3D

 25 26  0  0  0  0  0  0  0  0999 V2000
    4.9509    1.8497   16.9989 H   0  0  0  0  0  0  0  0  0  0  0  0
    5.4271    1.3083   17.8128 C   0  0  0  0  0  0  0  0  0  0  0  0
    6.5853    0.6912   17.5286 N   0  0  0  0  0  0  0  0  0  0  0  0
    7.1920    0.0294   18.5222 C   0  0  0  0  0  0  0  0  0  0  0  0
    8.1313   -0.4630   18.2788 H   0  0  0  0  0  0  0  0  0  0  0  0
    6.6722   -0.0674   19.8252 C   0  0  0  0  0  0  0  0  0  0  0  0
    7.3999   -0.7467   20.8517 N   0  0  0  0  0  0  0  0  0  0  0  0
    8.6651   -0.3591   21.2888 C   0  0  0  0  0  0  0  0  0  0  0  0
    9.2483    0.3758   20.7545 H   0  0  0  0  0  0  0  0  0  0  0  0
    8.9821   -1.0966   22.3727 C   0  0  0  0  0  0  0  0  0  0  0  0
   10.2881   -1.2863   23.0688 C   0  0  0  0  0  0  0  0  0  0  0  0
   10.8863   -0.3732   22.9729 H   0  0  0  0  0  0  0  0  0  0  0  0
   10.1339   -1.4617   24.1397 H   0  0  0  0  0  0  0  0  0  0  0  0
   11.0324   -2.4631   22.4295 C   0  0  0  0  0  0  0  0  0  0  0  0
   12.0514   -2.5788   22.7966 H   0  0  0  0  0  0  0  0  0  0  0  0
   10.4927   -3.3992   22.5972 H   0  0  0  0  0  0  0  0  0  0  0  0
   11.0925   -2.3067   21.3498 H   0  0  0  0  0  0  0  0  0  0  0  0
    7.9051   -1.9453   22.5717 N   0  0  0  0  0  0  0  0  0  0  0  0
    7.8119   -2.6664   23.2702 H   0  0  0  0  0  0  0  0  0  0  0  0
    6.9454   -1.8015   21.6191 C   0  0  0  0  0  0  0  0  0  0  0  0
    5.6113   -2.7768   21.4198 S   0  0  0  0  0  0  0  0  0  0  0  0
    5.4554    0.5648   20.1107 C   0  0  0  0  0  0  0  0  0  0  0  0
    5.0407    0.5286   21.1196 H   0  0  0  0  0  0  0  0  0  0  0  0
    4.8316    1.2735   19.0778 C   0  0  0  0  0  0  0  0  0  0  0  0
    3.9091    1.8141   19.2524 H   0  0  0  0  0  0  0  0  0  0  0  0
  1  2  1  0
  2  3  2  0
  3  4  1  0
  4  5  1  0
  4  6  2  0
  6  7  1  0
  7  8  1  0
  8  9  1  0
  8 10  2  0
 10 11  1  0
 11 12  1  0
 11 13  1  0
 11 14  1  0
 14 15  1  0
 14 16  1  0
 14 17  1  0
 10 18  1  0
 18 19  1  0
 18 20  1  0
 20 21  2  0
  6 22  1  0
 22 23  1  0
 22 24  2  0
 24 25  1  0
 24  2  1  0
 20  7  1  0
M  END
>  <cnnaffinity>  (1) 
-4.69526

>  <filename>  (1) 
CCc1cn(-c2cccnc2)c(=S)[nH]1

$$$$
