
     RDKit          3D

 35 37  0  0  0  0  0  0  0  0999 V2000
    4.9340    1.7994   16.9954 H   0  0  0  0  0  0  0  0  0  0  0  0
    5.3973    1.2896   17.8333 C   0  0  0  0  0  0  0  0  0  0  0  0
    6.5514    0.6589   17.5648 N   0  0  0  0  0  0  0  0  0  0  0  0
    7.1719    0.0431   18.5779 C   0  0  0  0  0  0  0  0  0  0  0  0
    8.1253   -0.4338   18.3549 H   0  0  0  0  0  0  0  0  0  0  0  0
    6.6520    0.0015   19.8877 C   0  0  0  0  0  0  0  0  0  0  0  0
    7.3328   -0.6804   20.9432 N   0  0  0  0  0  0  0  0  0  0  0  0
    6.7331   -1.6010   21.7912 C   0  0  0  0  0  0  0  0  0  0  0  0
    5.6842   -1.8377   21.6875 H   0  0  0  0  0  0  0  0  0  0  0  0
    7.6743   -2.0620   22.6516 C   0  0  0  0  0  0  0  0  0  0  0  0
    7.5647   -3.0067   23.7655 C   0  0  0  0  0  0  0  0  0  0  0  0
    8.6711   -3.6797   24.3163 C   0  0  0  0  0  0  0  0  0  0  0  0
    9.6696   -3.4986   23.9282 H   0  0  0  0  0  0  0  0  0  0  0  0
    8.4936   -4.5963   25.3521 C   0  0  0  0  0  0  0  0  0  0  0  0
    9.3565   -5.1045   25.7822 H   0  0  0  0  0  0  0  0  0  0  0  0
    7.2130   -4.8758   25.8629 C   0  0  0  0  0  0  0  0  0  0  0  0
    7.0288   -5.8281   27.0212 C   0  0  0  0  0  0  0  0  0  0  0  0
    6.0568   -6.3324   26.9302 H   0  0  0  0  0  0  0  0  0  0  0  0
    7.7907   -6.6162   26.9626 H   0  0  0  0  0  0  0  0  0  0  0  0
    7.1286   -5.0951   28.3680 C   0  0  0  0  0  0  0  0  0  0  0  0
    6.3588   -4.3186   28.4450 H   0  0  0  0  0  0  0  0  0  0  0  0
    7.0123   -5.7752   29.2180 H   0  0  0  0  0  0  0  0  0  0  0  0
    8.1021   -4.6004   28.4492 H   0  0  0  0  0  0  0  0  0  0  0  0
    6.1153   -4.1858   25.3255 C   0  0  0  0  0  0  0  0  0  0  0  0
    5.1198   -4.3736   25.7235 H   0  0  0  0  0  0  0  0  0  0  0  0
    6.2888   -3.2664   24.2959 C   0  0  0  0  0  0  0  0  0  0  0  0
    5.4338   -2.7297   23.8987 H   0  0  0  0  0  0  0  0  0  0  0  0
    8.8466   -1.4110   22.2963 N   0  0  0  0  0  0  0  0  0  0  0  0
    9.7467   -1.3976   22.7424 H   0  0  0  0  0  0  0  0  0  0  0  0
    8.6526   -0.5126   21.3027 C   0  0  0  0  0  0  0  0  0  0  0  0
    9.8127    0.5509   20.7870 S   0  0  0  0  0  0  0  0  0  0  0  0
    5.4412    0.6478   20.1533 C   0  0  0  0  0  0  0  0  0  0  0  0
    5.0406    0.6337   21.1703 H   0  0  0  0  0  0  0  0  0  0  0  0
    4.8046    1.3118   19.1020 C   0  0  0  0  0  0  0  0  0  0  0  0
    3.8734    1.8467   19.2564 H   0  0  0  0  0  0  0  0  0  0  0  0
  1  2  1  0
  2  3  2  0
  3  4  1  0
  4  5  1  0
  4  6  2  0
  6  7  1  0
  7  8  1  0
  8  9  1  0
  8 10  2  0
 10 11  1  0
 11 12  2  0
 12 13  1  0
 12 14  1  0
 14 15  1  0
 14 16  2  0
 16 17  1  0
 17 18  1  0
 17 19  1  0
 17 20  1  0
 20 21  1  0
 20 22  1  0
 20 23  1  0
 16 24  1  0
 24 25  1  0
 24 26  2  0
 26 27  1  0
 10 28  1  0
 28 29  1  0
 28 30  1  0
 30 31  2  0
  6 32  1  0
 32 33  1  0
 32 34  2  0
 34 35  1  0
 34  2  1  0
 30  7  1  0
 26 11  1  0
M  END
>  <cnnaffinity>  (1) 
-5.54622

>  <filename>  (1) 
CCc1ccc(-c2cn(-c3cccnc3)c(=S)[nH]2)cc1

$$$$
