
     RDKit          3D

 34 36  0  0  0  0  0  0  0  0999 V2000
    4.9326    1.7949   16.9868 H   0  0  0  0  0  0  0  0  0  0  0  0
    5.4008    1.2958   17.8336 C   0  0  0  0  0  0  0  0  0  0  0  0
    6.5653    0.6770   17.5791 N   0  0  0  0  0  0  0  0  0  0  0  0
    7.1606    0.0488   18.5961 C   0  0  0  0  0  0  0  0  0  0  0  0
    8.1079   -0.4378   18.3644 H   0  0  0  0  0  0  0  0  0  0  0  0
    6.6404    0.0149   19.8983 C   0  0  0  0  0  0  0  0  0  0  0  0
    7.3785   -0.7067   20.9274 C   0  0  0  0  0  0  0  0  0  0  0  0
    7.9591   -1.8449   20.6978 N   0  0  0  0  0  0  0  0  0  0  0  0
    8.4416   -2.2208   21.9191 N   0  0  0  0  0  0  0  0  0  0  0  0
    8.9536   -3.0667   22.0967 H   0  0  0  0  0  0  0  0  0  0  0  0
    8.2083   -1.3295   22.9121 C   0  0  0  0  0  0  0  0  0  0  0  0
    8.5618   -1.4317   24.0741 O   0  0  0  0  0  0  0  0  0  0  0  0
    7.5014   -0.3182   22.2514 N   0  0  0  0  0  0  0  0  0  0  0  0
    7.1462    0.9207   22.8525 C   0  0  0  0  0  0  0  0  0  0  0  0
    6.4893    0.9136   24.0845 C   0  0  0  0  0  0  0  0  0  0  0  0
    6.2966   -0.0375   24.5719 H   0  0  0  0  0  0  0  0  0  0  0  0
    6.1252    2.1248   24.6715 C   0  0  0  0  0  0  0  0  0  0  0  0
    5.6466    2.1253   25.6464 H   0  0  0  0  0  0  0  0  0  0  0  0
    6.3997    3.3541   24.0493 C   0  0  0  0  0  0  0  0  0  0  0  0
    6.0584    4.6688   24.7272 C   0  0  0  0  0  0  0  0  0  0  0  0
    5.1455    4.5566   25.3288 H   0  0  0  0  0  0  0  0  0  0  0  0
    5.8175    5.4284   23.9704 H   0  0  0  0  0  0  0  0  0  0  0  0
    7.2045    5.1770   25.6204 C   0  0  0  0  0  0  0  0  0  0  0  0
    8.1166    5.3257   25.0312 H   0  0  0  0  0  0  0  0  0  0  0  0
    7.4400    4.4454   26.4018 H   0  0  0  0  0  0  0  0  0  0  0  0
    6.9586    6.1272   26.1091 H   0  0  0  0  0  0  0  0  0  0  0  0
    7.0736    3.3290   22.8165 C   0  0  0  0  0  0  0  0  0  0  0  0
    7.2998    4.2704   22.3251 H   0  0  0  0  0  0  0  0  0  0  0  0
    7.4499    2.1286   22.2157 C   0  0  0  0  0  0  0  0  0  0  0  0
    7.9320    2.1142   21.2425 H   0  0  0  0  0  0  0  0  0  0  0  0
    5.4176    0.6512   20.1484 C   0  0  0  0  0  0  0  0  0  0  0  0
    5.0051    0.6491   21.1601 H   0  0  0  0  0  0  0  0  0  0  0  0
    4.7933    1.3090   19.0947 C   0  0  0  0  0  0  0  0  0  0  0  0
    3.8660    1.8457   19.2407 H   0  0  0  0  0  0  0  0  0  0  0  0
  1  2  1  0
  2  3  2  0
  3  4  1  0
  4  5  1  0
  4  6  2  0
  6  7  1  0
  7  8  2  0
  8  9  1  0
  9 10  1  0
  9 11  1  0
 11 12  2  0
 11 13  1  0
 13 14  1  0
 14 15  2  0
 15 16  1  0
 15 17  1  0
 17 18  1  0
 17 19  2  0
 19 20  1  0
 20 21  1  0
 20 22  1  0
 20 23  1  0
 23 24  1  0
 23 25  1  0
 23 26  1  0
 19 27  1  0
 27 28  1  0
 27 29  2  0
 29 30  1  0
  6 31  1  0
 31 32  1  0
 31 33  2  0
 33 34  1  0
 33  2  1  0
 13  7  1  0
 29 14  1  0
M  END
>  <cnnaffinity>  (1) 
-5.11205

>  <filename>  (1) 
CCc1ccc(-n2c(-c3cccnc3)n[nH]c2=O)cc1

$$$$
