
     RDKit          3D

 34 35  0  0  0  0  0  0  0  0999 V2000
    4.9272    1.7816   16.9971 H   0  0  0  0  0  0  0  0  0  0  0  0
    5.4052    1.2905   17.8449 C   0  0  0  0  0  0  0  0  0  0  0  0
    6.5713    0.6711   17.6010 N   0  0  0  0  0  0  0  0  0  0  0  0
    7.1803    0.0573   18.6263 C   0  0  0  0  0  0  0  0  0  0  0  0
    8.1215   -0.4376   18.4012 H   0  0  0  0  0  0  0  0  0  0  0  0
    6.6587    0.0149   19.9351 C   0  0  0  0  0  0  0  0  0  0  0  0
    7.3708   -0.6890   20.8736 O   0  0  0  0  0  0  0  0  0  0  0  0
    7.3275   -0.3329   22.1973 C   0  0  0  0  0  0  0  0  0  0  0  0
    7.2744   -1.2352   23.2770 C   0  0  0  0  0  0  0  0  0  0  0  0
    7.1872   -2.3097   23.2414 H   0  0  0  0  0  0  0  0  0  0  0  0
    7.3681   -0.5970   24.4417 N   0  0  0  0  0  0  0  0  0  0  0  0
    7.4788    0.6895   24.1018 N   0  0  0  0  0  0  0  0  0  0  0  0
    7.6192    1.3764   24.8261 H   0  0  0  0  0  0  0  0  0  0  0  0
    7.4690    0.9198   22.7647 C   0  0  0  0  0  0  0  0  0  0  0  0
    7.7771    2.2323   22.1319 C   0  0  0  0  0  0  0  0  0  0  0  0
    7.7166    3.0491   22.8681 H   0  0  0  0  0  0  0  0  0  0  0  0
    7.0200    2.4480   21.3713 H   0  0  0  0  0  0  0  0  0  0  0  0
    9.1656    2.2162   21.4783 C   0  0  0  0  0  0  0  0  0  0  0  0
    9.2541    3.1226   20.8849 H   0  0  0  0  0  0  0  0  0  0  0  0
    9.2319    1.3856   20.7620 H   0  0  0  0  0  0  0  0  0  0  0  0
   10.3142    2.1248   22.4820 C   0  0  0  0  0  0  0  0  0  0  0  0
   10.2472    1.1876   23.0513 H   0  0  0  0  0  0  0  0  0  0  0  0
   10.2181    2.9313   23.2244 H   0  0  0  0  0  0  0  0  0  0  0  0
   11.6895    2.1948   21.8255 C   0  0  0  0  0  0  0  0  0  0  0  0
   11.7756    3.1321   21.2586 H   0  0  0  0  0  0  0  0  0  0  0  0
   11.7738    1.3843   21.0888 H   0  0  0  0  0  0  0  0  0  0  0  0
   12.8197    2.0927   22.8477 C   0  0  0  0  0  0  0  0  0  0  0  0
   12.7657    2.9088   23.5776 H   0  0  0  0  0  0  0  0  0  0  0  0
   12.7674    1.1473   23.4012 H   0  0  0  0  0  0  0  0  0  0  0  0
   13.8053    2.1419   22.3818 H   0  0  0  0  0  0  0  0  0  0  0  0
    5.4296    0.6377   20.1776 C   0  0  0  0  0  0  0  0  0  0  0  0
    4.9997    0.6229   21.1794 H   0  0  0  0  0  0  0  0  0  0  0  0
    4.8101    1.3027   19.1092 C   0  0  0  0  0  0  0  0  0  0  0  0
    3.8812    1.8376   19.2552 H   0  0  0  0  0  0  0  0  0  0  0  0
  1  2  1  0
  2  3  2  0
  3  4  1  0
  4  5  1  0
  4  6  2  0
  6  7  1  0
  7  8  1  0
  8  9  1  0
  9 10  1  0
  9 11  2  0
 11 12  1  0
 12 13  1  0
 12 14  1  0
 14 15  1  0
 15 16  1  0
 15 17  1  0
 15 18  1  0
 18 19  1  0
 18 20  1  0
 18 21  1  0
 21 22  1  0
 21 23  1  0
 21 24  1  0
 24 25  1  0
 24 26  1  0
 24 27  1  0
 27 28  1  0
 27 29  1  0
 27 30  1  0
  6 31  1  0
 31 32  1  0
 31 33  2  0
 33 34  1  0
 33  2  1  0
 14  8  2  0
M  END
>  <cnnaffinity>  (1) 
-5.33026

>  <filename>  (1) 
CCCCCc1[nH]ncc1Oc1cccnc1

$$$$
