
     RDKit          3D

 42 43  0  0  0  0  0  0  0  0999 V2000
    4.9160    1.7757   17.0011 H   0  0  0  0  0  0  0  0  0  0  0  0
    5.4057    1.2901   17.8423 C   0  0  0  0  0  0  0  0  0  0  0  0
    6.5718    0.6749   17.5875 N   0  0  0  0  0  0  0  0  0  0  0  0
    7.1728    0.0483   18.6028 C   0  0  0  0  0  0  0  0  0  0  0  0
    8.1193   -0.4346   18.3797 H   0  0  0  0  0  0  0  0  0  0  0  0
    6.6569    0.0047   19.9053 C   0  0  0  0  0  0  0  0  0  0  0  0
    7.3962   -0.6836   20.9611 C   0  0  0  0  0  0  0  0  0  0  0  0
    7.9254   -1.9390   20.8022 N   0  0  0  0  0  0  0  0  0  0  0  0
    8.5304   -2.2175   21.9259 C   0  0  0  0  0  0  0  0  0  0  0  0
    9.0554   -3.1392   22.1454 H   0  0  0  0  0  0  0  0  0  0  0  0
    8.4347   -1.1865   22.8036 N   0  0  0  0  0  0  0  0  0  0  0  0
    8.8744   -1.1312   23.7044 H   0  0  0  0  0  0  0  0  0  0  0  0
    7.7052   -0.1878   22.2064 C   0  0  0  0  0  0  0  0  0  0  0  0
    7.5476    1.1875   22.7579 C   0  0  0  0  0  0  0  0  0  0  0  0
    6.4886    1.4676   22.6919 H   0  0  0  0  0  0  0  0  0  0  0  0
    7.7963    1.1862   23.8266 H   0  0  0  0  0  0  0  0  0  0  0  0
    8.3896    2.2231   21.9885 C   0  0  0  0  0  0  0  0  0  0  0  0
    8.2290    3.2085   22.4436 H   0  0  0  0  0  0  0  0  0  0  0  0
    8.0114    2.2811   20.9598 H   0  0  0  0  0  0  0  0  0  0  0  0
    9.8915    1.9266   21.9582 C   0  0  0  0  0  0  0  0  0  0  0  0
   10.3671    2.6399   21.2759 H   0  0  0  0  0  0  0  0  0  0  0  0
   10.0675    0.9365   21.5149 H   0  0  0  0  0  0  0  0  0  0  0  0
   10.5673    1.9919   23.3294 C   0  0  0  0  0  0  0  0  0  0  0  0
   10.4352    2.9988   23.7485 H   0  0  0  0  0  0  0  0  0  0  0  0
   10.0602    1.3134   24.0264 H   0  0  0  0  0  0  0  0  0  0  0  0
   12.0536    1.6277   23.3106 C   0  0  0  0  0  0  0  0  0  0  0  0
   12.1559    0.5912   22.9575 H   0  0  0  0  0  0  0  0  0  0  0  0
   12.4395    1.6358   24.3401 H   0  0  0  0  0  0  0  0  0  0  0  0
   12.9431    2.5357   22.4611 C   0  0  0  0  0  0  0  0  0  0  0  0
   12.6390    2.4721   21.4080 H   0  0  0  0  0  0  0  0  0  0  0  0
   13.9695    2.1493   22.5080 H   0  0  0  0  0  0  0  0  0  0  0  0
   12.9450    3.9997   22.8896 C   0  0  0  0  0  0  0  0  0  0  0  0
   11.9530    4.4379   22.7479 H   0  0  0  0  0  0  0  0  0  0  0  0
   13.1503    4.0606   23.9616 H   0  0  0  0  0  0  0  0  0  0  0  0
   13.9685    4.8332   22.1400 C   0  0  0  0  0  0  0  0  0  0  0  0
   13.7831    4.8079   21.0611 H   0  0  0  0  0  0  0  0  0  0  0  0
   14.9686    4.4350   22.3141 H   0  0  0  0  0  0  0  0  0  0  0  0
   13.9591    5.8773   22.4665 H   0  0  0  0  0  0  0  0  0  0  0  0
    5.4411    0.6597   20.1585 C   0  0  0  0  0  0  0  0  0  0  0  0
    4.9982    0.6328   21.1591 H   0  0  0  0  0  0  0  0  0  0  0  0
    4.8031    1.3115   19.1064 C   0  0  0  0  0  0  0  0  0  0  0  0
    3.8705    1.8442   19.2623 H   0  0  0  0  0  0  0  0  0  0  0  0
  1  2  1  0
  2  3  2  0
  3  4  1  0
  4  5  1  0
  4  6  2  0
  6  7  1  0
  7  8  1  0
  8  9  2  0
  9 10  1  0
  9 11  1  0
 11 12  1  0
 11 13  1  0
 13 14  1  0
 14 15  1  0
 14 16  1  0
 14 17  1  0
 17 18  1  0
 17 19  1  0
 17 20  1  0
 20 21  1  0
 20 22  1  0
 20 23  1  0
 23 24  1  0
 23 25  1  0
 23 26  1  0
 26 27  1  0
 26 28  1  0
 26 29  1  0
 29 30  1  0
 29 31  1  0
 29 32  1  0
 32 33  1  0
 32 34  1  0
 32 35  1  0
 35 36  1  0
 35 37  1  0
 35 38  1  0
  6 39  1  0
 39 40  1  0
 39 41  2  0
 41 42  1  0
 41  2  1  0
 13  7  2  0
M  END
>  <cnnaffinity>  (1) 
-5.9289

>  <filename>  (1) 
CCCCCCCCc1[nH]cnc1-c1cccnc1

$$$$
