
     RDKit          3D

 42 42  0  0  0  0  0  0  0  0999 V2000
    4.9568    1.7902   17.0237 H   0  0  0  0  0  0  0  0  0  0  0  0
    5.4135    1.2751   17.8621 C   0  0  0  0  0  0  0  0  0  0  0  0
    6.5761    0.6508   17.5966 N   0  0  0  0  0  0  0  0  0  0  0  0
    7.1814    0.0392   18.6127 C   0  0  0  0  0  0  0  0  0  0  0  0
    8.1375   -0.4454   18.4198 H   0  0  0  0  0  0  0  0  0  0  0  0
    6.6738   -0.0142   19.9325 C   0  0  0  0  0  0  0  0  0  0  0  0
    7.4764   -0.6674   20.8161 O   0  0  0  0  0  0  0  0  0  0  0  0
    7.0428   -0.9316   22.1529 C   0  0  1  0  0  0  0  0  0  0  0  0
    6.5577   -0.0242   22.5383 H   0  0  0  0  0  0  0  0  0  0  0  0
    6.0964   -2.1173   22.1544 C   0  0  0  0  0  0  0  0  0  0  0  0
    5.7748   -2.3148   23.1811 H   0  0  0  0  0  0  0  0  0  0  0  0
    5.2221   -1.9150   21.5329 H   0  0  0  0  0  0  0  0  0  0  0  0
    6.6056   -3.0131   21.7810 H   0  0  0  0  0  0  0  0  0  0  0  0
    8.2706   -1.2541   22.9945 C   0  0  0  0  0  0  0  0  0  0  0  0
    8.6588   -2.2176   22.6384 H   0  0  0  0  0  0  0  0  0  0  0  0
    7.9193   -1.4048   24.0265 H   0  0  0  0  0  0  0  0  0  0  0  0
    9.3900   -0.2132   22.9758 C   0  0  0  0  0  0  0  0  0  0  0  0
    9.7050   -0.0638   21.9344 H   0  0  0  0  0  0  0  0  0  0  0  0
   10.2588   -0.6244   23.5109 H   0  0  0  0  0  0  0  0  0  0  0  0
    8.9959    1.1318   23.6016 C   0  0  0  0  0  0  0  0  0  0  0  0
    8.2056    1.5984   22.9906 H   0  0  0  0  0  0  0  0  0  0  0  0
    8.5478    0.9586   24.5920 H   0  0  0  0  0  0  0  0  0  0  0  0
   10.1796    2.0970   23.7502 C   0  0  0  0  0  0  0  0  0  0  0  0
   10.9863    1.5913   24.3063 H   0  0  0  0  0  0  0  0  0  0  0  0
    9.8802    2.9519   24.3719 H   0  0  0  0  0  0  0  0  0  0  0  0
   10.7304    2.6061   22.4110 C   0  0  0  0  0  0  0  0  0  0  0  0
   11.0368    1.7486   21.7942 H   0  0  0  0  0  0  0  0  0  0  0  0
    9.9129    3.0924   21.8536 H   0  0  0  0  0  0  0  0  0  0  0  0
   11.9076    3.5843   22.5512 C   0  0  0  0  0  0  0  0  0  0  0  0
   12.3743    3.7310   21.5657 H   0  0  0  0  0  0  0  0  0  0  0  0
   12.6858    3.1323   23.1883 H   0  0  0  0  0  0  0  0  0  0  0  0
   11.5222    4.9563   23.1241 C   0  0  0  0  0  0  0  0  0  0  0  0
   11.0935    4.8313   24.1282 H   0  0  0  0  0  0  0  0  0  0  0  0
   10.7120    5.3814   22.5120 H   0  0  0  0  0  0  0  0  0  0  0  0
   12.7055    5.9280   23.1750 C   0  0  0  0  0  0  0  0  0  0  0  0
   13.5214    5.5393   23.7957 H   0  0  0  0  0  0  0  0  0  0  0  0
   12.4248    6.9046   23.5834 H   0  0  0  0  0  0  0  0  0  0  0  0
   13.1186    6.0950   22.1727 H   0  0  0  0  0  0  0  0  0  0  0  0
    5.4484    0.6234   20.1928 C   0  0  0  0  0  0  0  0  0  0  0  0
    5.0054    0.6199   21.1908 H   0  0  0  0  0  0  0  0  0  0  0  0
    4.8160    1.2850   19.1264 C   0  0  0  0  0  0  0  0  0  0  0  0
    3.8817    1.8264   19.2665 H   0  0  0  0  0  0  0  0  0  0  0  0
  1  2  1  0
  2  3  2  0
  3  4  1  0
  4  5  1  0
  4  6  2  0
  6  7  1  0
  7  8  1  0
  8  9  1  1
  8 10  1  0
 10 11  1  0
 10 12  1  0
 10 13  1  0
  8 14  1  0
 14 15  1  0
 14 16  1  0
 14 17  1  0
 17 18  1  0
 17 19  1  0
 17 20  1  0
 20 21  1  0
 20 22  1  0
 20 23  1  0
 23 24  1  0
 23 25  1  0
 23 26  1  0
 26 27  1  0
 26 28  1  0
 26 29  1  0
 29 30  1  0
 29 31  1  0
 29 32  1  0
 32 33  1  0
 32 34  1  0
 32 35  1  0
 35 36  1  0
 35 37  1  0
 35 38  1  0
  6 39  1  0
 39 40  1  0
 39 41  2  0
 41 42  1  0
 41  2  1  0
M  END
>  <cnnaffinity>  (1) 
-4.72912

>  <filename>  (1) 
CCCCCCCC[C@H](C)Oc1cccnc1

$$$$
