
     RDKit          3D

 43 44  0  0  0  0  0  0  0  0999 V2000
    5.2526    1.7609   16.8404 H   0  0  0  0  0  0  0  0  0  0  0  0
    5.6357    1.2301   17.7094 C   0  0  0  0  0  0  0  0  0  0  0  0
    6.8129    0.6011   17.5480 N   0  0  0  0  0  0  0  0  0  0  0  0
    7.3283   -0.0460   18.6023 C   0  0  0  0  0  0  0  0  0  0  0  0
    8.2689   -0.5758   18.4563 H   0  0  0  0  0  0  0  0  0  0  0  0
    6.7101   -0.0738   19.8637 C   0  0  0  0  0  0  0  0  0  0  0  0
    7.3312   -0.7761   20.8746 O   0  0  0  0  0  0  0  0  0  0  0  0
    7.5233   -0.2178   22.1153 C   0  0  0  0  0  0  0  0  0  0  0  0
    7.1702    1.0427   22.6592 C   0  0  0  0  0  0  0  0  0  0  0  0
    6.7044    1.8962   22.1875 H   0  0  0  0  0  0  0  0  0  0  0  0
    7.5195    1.1149   23.9415 N   0  0  0  0  0  0  0  0  0  0  0  0
    8.0837   -0.0677   24.2043 N   0  0  0  0  0  0  0  0  0  0  0  0
    8.3971   -0.2395   25.1473 H   0  0  0  0  0  0  0  0  0  0  0  0
    8.1264   -0.9250   23.1441 C   0  0  0  0  0  0  0  0  0  0  0  0
    8.5625   -2.3653   23.2177 C   0  0  0  0  0  0  0  0  0  0  0  0
    9.4158   -2.4699   23.8993 H   0  0  0  0  0  0  0  0  0  0  0  0
    8.9364   -2.6600   22.2287 H   0  0  0  0  0  0  0  0  0  0  0  0
    7.4314   -3.3282   23.6465 C   0  0  0  0  0  0  0  0  0  0  0  0
    7.7860   -4.3662   23.5659 H   0  0  0  0  0  0  0  0  0  0  0  0
    7.2175   -3.1743   24.7127 H   0  0  0  0  0  0  0  0  0  0  0  0
    6.1381   -3.1321   22.8468 C   0  0  0  0  0  0  0  0  0  0  0  0
    5.8895   -2.0637   22.8527 H   0  0  0  0  0  0  0  0  0  0  0  0
    6.3103   -3.3673   21.7913 H   0  0  0  0  0  0  0  0  0  0  0  0
    4.9320   -3.9020   23.3948 C   0  0  0  0  0  0  0  0  0  0  0  0
    4.0419   -3.6095   22.8274 H   0  0  0  0  0  0  0  0  0  0  0  0
    4.7429   -3.5447   24.4121 H   0  0  0  0  0  0  0  0  0  0  0  0
    5.0068   -5.4316   23.4364 C   0  0  0  0  0  0  0  0  0  0  0  0
    5.9788   -5.7494   23.8356 H   0  0  0  0  0  0  0  0  0  0  0  0
    4.2701   -5.7881   24.1721 H   0  0  0  0  0  0  0  0  0  0  0  0
    4.7580   -6.1336   22.0984 C   0  0  0  0  0  0  0  0  0  0  0  0
    3.8399   -5.7284   21.6536 H   0  0  0  0  0  0  0  0  0  0  0  0
    4.5441   -7.1826   22.3165 H   0  0  0  0  0  0  0  0  0  0  0  0
    5.9339   -6.0574   21.1168 C   0  0  0  0  0  0  0  0  0  0  0  0
    6.6499   -6.8426   21.3983 H   0  0  0  0  0  0  0  0  0  0  0  0
    6.4746   -5.1175   21.2519 H   0  0  0  0  0  0  0  0  0  0  0  0
    5.6004   -6.1493   19.6307 C   0  0  0  0  0  0  0  0  0  0  0  0
    5.1347   -5.2293   19.2608 H   0  0  0  0  0  0  0  0  0  0  0  0
    6.5213   -6.2708   19.0632 H   0  0  0  0  0  0  0  0  0  0  0  0
    4.9593   -7.0033   19.3770 H   0  0  0  0  0  0  0  0  0  0  0  0
    5.4636    0.5422   20.0152 C   0  0  0  0  0  0  0  0  0  0  0  0
    4.9550    0.4999   20.9770 H   0  0  0  0  0  0  0  0  0  0  0  0
    4.9226    1.2114   18.9115 C   0  0  0  0  0  0  0  0  0  0  0  0
    3.9727    1.7310   18.9793 H   0  0  0  0  0  0  0  0  0  0  0  0
  1  2  1  0
  2  3  2  0
  3  4  1  0
  4  5  1  0
  4  6  2  0
  6  7  1  0
  7  8  1  0
  8  9  1  0
  9 10  1  0
  9 11  2  0
 11 12  1  0
 12 13  1  0
 12 14  1  0
 14 15  1  0
 15 16  1  0
 15 17  1  0
 15 18  1  0
 18 19  1  0
 18 20  1  0
 18 21  1  0
 21 22  1  0
 21 23  1  0
 21 24  1  0
 24 25  1  0
 24 26  1  0
 24 27  1  0
 27 28  1  0
 27 29  1  0
 27 30  1  0
 30 31  1  0
 30 32  1  0
 30 33  1  0
 33 34  1  0
 33 35  1  0
 33 36  1  0
 36 37  1  0
 36 38  1  0
 36 39  1  0
  6 40  1  0
 40 41  1  0
 40 42  2  0
 42 43  1  0
 42  2  1  0
 14  8  2  0
M  END
>  <cnnaffinity>  (1) 
-5.41157

>  <filename>  (1) 
CCCCCCCCc1[nH]ncc1Oc1cccnc1

$$$$
