
     RDKit          3D

 31 31  0  0  0  0  0  0  0  0999 V2000
    5.6629   -1.7623   21.6159 H   0  0  0  0  0  0  0  0  0  0  0  0
    6.7317   -1.5988   21.7555 C   0  0  0  0  0  0  0  0  0  0  0  0
    7.4019   -0.7302   20.9871 C   0  0  0  0  0  0  0  0  0  0  0  0
    6.6483   -0.0091   19.9133 C   0  0  0  0  0  0  0  0  0  0  0  0
    7.1606    0.0628   18.6015 C   0  0  0  0  0  0  0  0  0  0  0  0
    8.1116   -0.4182   18.3750 H   0  0  0  0  0  0  0  0  0  0  0  0
    6.5591    0.6760   17.5735 N   0  0  0  0  0  0  0  0  0  0  0  0
    5.3960    1.2956   17.8309 C   0  0  0  0  0  0  0  0  0  0  0  0
    4.9260    1.7941   16.9857 H   0  0  0  0  0  0  0  0  0  0  0  0
    4.7992    1.3112   19.0965 C   0  0  0  0  0  0  0  0  0  0  0  0
    3.8699    1.8478   19.2417 H   0  0  0  0  0  0  0  0  0  0  0  0
    5.4218    0.6407   20.1495 C   0  0  0  0  0  0  0  0  0  0  0  0
    5.0020    0.6404   21.1549 H   0  0  0  0  0  0  0  0  0  0  0  0
    8.8862   -0.4521   21.1596 C   0  0  0  0  0  0  0  0  0  0  0  0
    9.1864    0.3767   20.5115 H   0  0  0  0  0  0  0  0  0  0  0  0
    9.5093   -1.3228   20.9084 H   0  0  0  0  0  0  0  0  0  0  0  0
    9.1319   -0.1615   22.1927 H   0  0  0  0  0  0  0  0  0  0  0  0
    7.3004   -2.3771   22.7668 N   0  0  0  0  0  0  0  0  0  0  0  0
    8.2858   -2.2879   22.9448 H   0  0  0  0  0  0  0  0  0  0  0  0
    6.5623   -3.2258   23.5678 C   0  0  0  0  0  0  0  0  0  0  0  0
    5.3617   -3.3761   23.4362 O   0  0  0  0  0  0  0  0  0  0  0  0
    7.3368   -3.9522   24.6506 C   0  0  0  0  0  0  0  0  0  0  0  0
    8.3096   -4.3046   24.2822 H   0  0  0  0  0  0  0  0  0  0  0  0
    6.7349   -4.8370   24.8788 H   0  0  0  0  0  0  0  0  0  0  0  0
    7.5239   -3.1199   25.9327 C   0  0  0  0  0  0  0  0  0  0  0  0
    6.5389   -2.7858   26.2898 H   0  0  0  0  0  0  0  0  0  0  0  0
    8.0941   -2.2061   25.7071 H   0  0  0  0  0  0  0  0  0  0  0  0
    8.2286   -3.9040   27.0386 C   0  0  0  0  0  0  0  0  0  0  0  0
    9.2263   -4.2372   26.7280 H   0  0  0  0  0  0  0  0  0  0  0  0
    8.3471   -3.2767   27.9218 H   0  0  0  0  0  0  0  0  0  0  0  0
    7.6600   -4.7924   27.3406 H   0  0  0  0  0  0  0  0  0  0  0  0
  1  2  1  0
  2  3  2  3
  3  4  1  0
  4  5  2  0
  5  6  1  0
  5  7  1  0
  7  8  2  0
  8  9  1  0
  8 10  1  0
 10 11  1  0
 10 12  2  0
 12 13  1  0
  3 14  1  0
 14 15  1  0
 14 16  1  0
 14 17  1  0
  2 18  1  0
 18 19  1  0
 18 20  1  0
 20 21  2  0
 20 22  1  0
 22 23  1  0
 22 24  1  0
 22 25  1  0
 25 26  1  0
 25 27  1  0
 25 28  1  0
 28 29  1  0
 28 30  1  0
 28 31  1  0
 12  4  1  0
M  END
>  <cnnaffinity>  (1) 
-4.66729

>  <filename>  (1) 
CCCC(=O)NC=C(C)c1cccnc1

$$$$
