
     RDKit          3D

 47 49  0  0  0  0  0  0  0  0999 V2000
    5.0497    1.7651   17.0098 H   0  0  0  0  0  0  0  0  0  0  0  0
    5.4517    1.2286   17.8675 C   0  0  0  0  0  0  0  0  0  0  0  0
    6.6006    0.5680   17.6625 N   0  0  0  0  0  0  0  0  0  0  0  0
    7.1333   -0.0687   18.7131 C   0  0  0  0  0  0  0  0  0  0  0  0
    8.0870   -0.5642   18.5287 H   0  0  0  0  0  0  0  0  0  0  0  0
    6.5680   -0.1213   20.0040 C   0  0  0  0  0  0  0  0  0  0  0  0
    7.3407   -0.7783   21.1393 C   0  0  0  0  0  0  0  0  0  0  0  0
    7.1739   -2.2403   21.4716 C   0  0  0  0  0  0  0  0  0  0  0  0
    8.0602   -3.1789   21.3494 N   0  0  0  0  0  0  0  0  0  0  0  0
    7.5212   -4.3269   21.9115 N   0  0  0  0  0  0  0  0  0  0  0  0
    6.3531   -3.9986   22.3567 C   0  0  0  0  0  0  0  0  0  0  0  0
    5.3269   -4.8509   23.0413 C   0  0  0  0  0  0  0  0  0  0  0  0
    5.8133   -5.7889   23.3286 H   0  0  0  0  0  0  0  0  0  0  0  0
    5.0093   -4.3431   23.9641 H   0  0  0  0  0  0  0  0  0  0  0  0
    4.1173   -5.1231   22.1251 C   0  0  0  0  0  0  0  0  0  0  0  0
    3.6676   -4.1557   21.8729 H   0  0  0  0  0  0  0  0  0  0  0  0
    4.4995   -5.5553   21.1877 H   0  0  0  0  0  0  0  0  0  0  0  0
    3.0437   -6.0803   22.6621 C   0  0  0  0  0  0  0  0  0  0  0  0
    3.5220   -7.0481   22.8888 H   0  0  0  0  0  0  0  0  0  0  0  0
    2.3278   -6.2729   21.8480 H   0  0  0  0  0  0  0  0  0  0  0  0
    2.2693   -5.5903   23.8943 C   0  0  0  0  0  0  0  0  0  0  0  0
    2.9819   -5.3856   24.7067 H   0  0  0  0  0  0  0  0  0  0  0  0
    1.7828   -4.6259   23.6645 H   0  0  0  0  0  0  0  0  0  0  0  0
    1.2110   -6.5741   24.4337 C   0  0  0  0  0  0  0  0  0  0  0  0
    0.9012   -6.2194   25.4275 H   0  0  0  0  0  0  0  0  0  0  0  0
    1.6721   -7.5626   24.6013 H   0  0  0  0  0  0  0  0  0  0  0  0
   -0.0589   -6.7462   23.5833 C   0  0  0  0  0  0  0  0  0  0  0  0
    0.1936   -7.1172   22.5774 H   0  0  0  0  0  0  0  0  0  0  0  0
   -0.5280   -5.7602   23.4355 H   0  0  0  0  0  0  0  0  0  0  0  0
   -1.0838   -7.6940   24.2288 C   0  0  0  0  0  0  0  0  0  0  0  0
   -1.3163   -7.3342   25.2435 H   0  0  0  0  0  0  0  0  0  0  0  0
   -0.6242   -8.6862   24.3529 H   0  0  0  0  0  0  0  0  0  0  0  0
   -2.3881   -7.8358   23.4365 C   0  0  0  0  0  0  0  0  0  0  0  0
   -2.8903   -6.8666   23.3192 H   0  0  0  0  0  0  0  0  0  0  0  0
   -3.0915   -8.5102   23.9401 H   0  0  0  0  0  0  0  0  0  0  0  0
   -2.2063   -8.2421   22.4334 H   0  0  0  0  0  0  0  0  0  0  0  0
    6.0494   -2.7011   22.0835 O   0  0  0  0  0  0  0  0  0  0  0  0
    8.7654   -0.2809   21.3161 C   0  0  0  0  0  0  0  0  0  0  0  0
    9.5044   -1.0239   21.6118 H   0  0  0  0  0  0  0  0  0  0  0  0
    9.1385    0.4566   20.6063 H   0  0  0  0  0  0  0  0  0  0  0  0
    7.7158    0.1308   22.3049 C   0  0  0  0  0  0  0  0  0  0  0  0
    7.3402    1.1520   22.2630 H   0  0  0  0  0  0  0  0  0  0  0  0
    7.7243   -0.2910   23.3065 H   0  0  0  0  0  0  0  0  0  0  0  0
    5.3595    0.5751   20.1858 C   0  0  0  0  0  0  0  0  0  0  0  0
    4.8823    0.6136   21.1681 H   0  0  0  0  0  0  0  0  0  0  0  0
    4.7946    1.2568   19.1010 C   0  0  0  0  0  0  0  0  0  0  0  0
    3.8857    1.8438   19.1971 H   0  0  0  0  0  0  0  0  0  0  0  0
  1  2  1  0
  2  3  2  0
  3  4  1  0
  4  5  1  0
  4  6  2  0
  6  7  1  0
  7  8  1  0
  8  9  2  0
  9 10  1  0
 10 11  2  0
 11 12  1  0
 12 13  1  0
 12 14  1  0
 12 15  1  0
 15 16  1  0
 15 17  1  0
 15 18  1  0
 18 19  1  0
 18 20  1  0
 18 21  1  0
 21 22  1  0
 21 23  1  0
 21 24  1  0
 24 25  1  0
 24 26  1  0
 24 27  1  0
 27 28  1  0
 27 29  1  0
 27 30  1  0
 30 31  1  0
 30 32  1  0
 30 33  1  0
 33 34  1  0
 33 35  1  0
 33 36  1  0
 11 37  1  0
  7 38  1  0
 38 39  1  0
 38 40  1  0
 38 41  1  0
 41 42  1  0
 41 43  1  0
  6 44  1  0
 44 45  1  0
 44 46  2  0
 46 47  1  0
 46  2  1  0
 41  7  1  0
 37  8  1  0
M  END
>  <cnnaffinity>  (1) 
-5.37738

>  <filename>  (1) 
CCCCCCCCc1nnc(C2(c3cccnc3)CC2)o1

$$$$
