
     RDKit          3D

 31 32  0  0  0  0  0  0  0  0999 V2000
    5.0774    1.8333   17.0334 H   0  0  0  0  0  0  0  0  0  0  0  0
    5.5714    1.2919   17.8377 C   0  0  0  0  0  0  0  0  0  0  0  0
    6.7302    0.6915   17.5239 N   0  0  0  0  0  0  0  0  0  0  0  0
    7.3757    0.0355   18.4995 C   0  0  0  0  0  0  0  0  0  0  0  0
    8.3133   -0.4505   18.2374 H   0  0  0  0  0  0  0  0  0  0  0  0
    6.8937   -0.0572   19.8183 C   0  0  0  0  0  0  0  0  0  0  0  0
    7.5688   -0.8062   20.8537 N   0  0  0  0  0  0  0  0  0  0  0  0
    8.7075   -0.5115   21.5941 C   0  0  0  0  0  0  0  0  0  0  0  0
    9.4957    0.5804   21.2961 N   0  0  0  0  0  0  0  0  0  0  0  0
    9.0761    1.3353   20.7875 H   0  0  0  0  0  0  0  0  0  0  0  0
   10.7972    0.7045   21.7488 C   0  0  0  0  0  0  0  0  0  0  0  0
   11.3399   -0.1309   22.4337 O   0  0  0  0  0  0  0  0  0  0  0  0
   11.5225    1.9618   21.2890 C   0  0  0  0  0  0  0  0  0  0  0  0
   12.5570    1.6370   21.1919 H   0  0  0  0  0  0  0  0  0  0  0  0
   11.1860    2.2346   20.2844 H   0  0  0  0  0  0  0  0  0  0  0  0
   11.4890    3.2325   22.1677 C   0  0  0  0  0  0  0  0  0  0  0  0
   11.8028    3.0233   23.2005 H   0  0  0  0  0  0  0  0  0  0  0  0
   10.4581    3.6030   22.2388 H   0  0  0  0  0  0  0  0  0  0  0  0
   12.3909    4.3136   21.5423 C   0  0  0  0  0  0  0  0  0  0  0  0
   13.4576    4.1352   21.7368 H   0  0  0  0  0  0  0  0  0  0  0  0
   12.1414    5.3183   21.8992 H   0  0  0  0  0  0  0  0  0  0  0  0
   12.2640    4.3325   20.4520 H   0  0  0  0  0  0  0  0  0  0  0  0
    8.9076   -1.3388   22.5710 N   0  0  0  0  0  0  0  0  0  0  0  0
    7.8480   -2.1948   22.4540 N   0  0  0  0  0  0  0  0  0  0  0  0
    7.6306   -2.9221   23.1208 H   0  0  0  0  0  0  0  0  0  0  0  0
    7.0028   -1.9270   21.4550 C   0  0  0  0  0  0  0  0  0  0  0  0
    5.6302   -2.7998   21.1114 S   0  0  0  0  0  0  0  0  0  0  0  0
    5.6563    0.5175   20.1168 C   0  0  0  0  0  0  0  0  0  0  0  0
    5.2392    0.3857   21.1163 H   0  0  0  0  0  0  0  0  0  0  0  0
    4.9972    1.2313   19.1122 C   0  0  0  0  0  0  0  0  0  0  0  0
    4.0569    1.7336   19.3092 H   0  0  0  0  0  0  0  0  0  0  0  0
  1  2  1  0
  2  3  2  0
  3  4  1  0
  4  5  1  0
  4  6  2  0
  6  7  1  0
  7  8  1  0
  8  9  1  0
  9 10  1  0
  9 11  1  0
 11 12  2  0
 11 13  1  0
 13 14  1  0
 13 15  1  0
 13 16  1  0
 16 17  1  0
 16 18  1  0
 16 19  1  0
 19 20  1  0
 19 21  1  0
 19 22  1  0
  8 23  2  0
 23 24  1  0
 24 25  1  0
 24 26  1  0
 26 27  2  0
  6 28  1  0
 28 29  1  0
 28 30  2  0
 30 31  1  0
 30  2  1  0
 26  7  1  0
M  END
>  <cnnaffinity>  (1) 
-5.1747

>  <filename>  (1) 
CCCC(=O)Nc1n[nH]c(=S)n1-c1cccnc1

$$$$
