
     RDKit          3D

 36 37  0  0  0  0  0  0  0  0999 V2000
    4.9313    1.7860   16.9882 H   0  0  0  0  0  0  0  0  0  0  0  0
    5.4002    1.2937   17.8335 C   0  0  0  0  0  0  0  0  0  0  0  0
    6.5612    0.6737   17.5808 N   0  0  0  0  0  0  0  0  0  0  0  0
    7.1636    0.0582   18.5975 C   0  0  0  0  0  0  0  0  0  0  0  0
    8.1092   -0.4304   18.3780 H   0  0  0  0  0  0  0  0  0  0  0  0
    6.6467    0.0222   19.9023 C   0  0  0  0  0  0  0  0  0  0  0  0
    7.4079   -0.7084   20.9085 C   0  0  0  0  0  0  0  0  0  0  0  0
    8.3788   -1.5602   20.6736 N   0  0  0  0  0  0  0  0  0  0  0  0
    8.7904   -1.9931   21.8989 C   0  0  0  0  0  0  0  0  0  0  0  0
    9.5635   -2.7427   22.0000 H   0  0  0  0  0  0  0  0  0  0  0  0
    8.0834   -1.3921   22.9045 C   0  0  0  0  0  0  0  0  0  0  0  0
    8.0919   -1.6010   24.3725 C   0  0  0  0  0  0  0  0  0  0  0  0
    9.1181   -1.8578   24.6651 H   0  0  0  0  0  0  0  0  0  0  0  0
    7.8540   -0.6709   24.9111 H   0  0  0  0  0  0  0  0  0  0  0  0
    7.1249   -2.7147   24.7979 C   0  0  0  0  0  0  0  0  0  0  0  0
    6.1235   -2.4865   24.4121 H   0  0  0  0  0  0  0  0  0  0  0  0
    7.4192   -3.6540   24.3118 H   0  0  0  0  0  0  0  0  0  0  0  0
    7.0575   -2.9106   26.3092 C   0  0  0  0  0  0  0  0  0  0  0  0
    6.6927   -1.9779   26.7630 H   0  0  0  0  0  0  0  0  0  0  0  0
    6.2994   -3.6713   26.5412 H   0  0  0  0  0  0  0  0  0  0  0  0
    8.3936   -3.2895   26.9653 C   0  0  0  0  0  0  0  0  0  0  0  0
    9.0958   -2.4464   26.8932 H   0  0  0  0  0  0  0  0  0  0  0  0
    8.2086   -3.4351   28.0315 H   0  0  0  0  0  0  0  0  0  0  0  0
    9.0635   -4.5650   26.4401 C   0  0  0  0  0  0  0  0  0  0  0  0
    9.3404   -4.4358   25.3859 H   0  0  0  0  0  0  0  0  0  0  0  0
   10.0102   -4.7067   26.9782 H   0  0  0  0  0  0  0  0  0  0  0  0
    8.1978   -5.8171   26.6014 C   0  0  0  0  0  0  0  0  0  0  0  0
    7.8557   -5.9310   27.6375 H   0  0  0  0  0  0  0  0  0  0  0  0
    7.2983   -5.7764   25.9758 H   0  0  0  0  0  0  0  0  0  0  0  0
    8.7462   -6.7257   26.3312 H   0  0  0  0  0  0  0  0  0  0  0  0
    7.1853   -0.5794   22.2444 N   0  0  0  0  0  0  0  0  0  0  0  0
    6.5032    0.0345   22.6536 H   0  0  0  0  0  0  0  0  0  0  0  0
    5.4222    0.6680   20.1585 C   0  0  0  0  0  0  0  0  0  0  0  0
    4.9672    0.6518   21.1548 H   0  0  0  0  0  0  0  0  0  0  0  0
    4.7991    1.3164   19.0960 C   0  0  0  0  0  0  0  0  0  0  0  0
    3.8684    1.8460   19.2469 H   0  0  0  0  0  0  0  0  0  0  0  0
  1  2  1  0
  2  3  2  0
  3  4  1  0
  4  5  1  0
  4  6  2  0
  6  7  1  0
  7  8  2  0
  8  9  1  0
  9 10  1  0
  9 11  2  0
 11 12  1  0
 12 13  1  0
 12 14  1  0
 12 15  1  0
 15 16  1  0
 15 17  1  0
 15 18  1  0
 18 19  1  0
 18 20  1  0
 18 21  1  0
 21 22  1  0
 21 23  1  0
 21 24  1  0
 24 25  1  0
 24 26  1  0
 24 27  1  0
 27 28  1  0
 27 29  1  0
 27 30  1  0
 11 31  1  0
 31 32  1  0
  6 33  1  0
 33 34  1  0
 33 35  2  0
 35 36  1  0
 35  2  1  0
 31  7  1  0
M  END
>  <cnnaffinity>  (1) 
-5.23858

>  <filename>  (1) 
CCCCCCc1cnc(-c2cccnc2)[nH]1

$$$$
