
     RDKit          3D

 37 38  0  0  0  0  0  0  0  0999 V2000
    4.9550    1.8018   16.9387 H   0  0  0  0  0  0  0  0  0  0  0  0
    5.4163    1.2856   17.7792 C   0  0  0  0  0  0  0  0  0  0  0  0
    6.5663    0.6380   17.5258 N   0  0  0  0  0  0  0  0  0  0  0  0
    7.1672    0.0239   18.5495 C   0  0  0  0  0  0  0  0  0  0  0  0
    8.0982   -0.4893   18.3218 H   0  0  0  0  0  0  0  0  0  0  0  0
    6.6697    0.0281   19.8778 C   0  0  0  0  0  0  0  0  0  0  0  0
    7.3476   -0.6327   20.9326 N   0  0  0  0  0  0  0  0  0  0  0  0
    7.4153   -0.2964   22.2997 C   0  0  0  0  0  0  0  0  0  0  0  0
    6.8412    0.6364   22.8406 O   0  0  0  0  0  0  0  0  0  0  0  0
    8.3030   -1.3111   22.8858 C   0  0  0  0  0  0  0  0  0  0  0  0
    8.6432   -1.3191   24.3522 C   0  0  0  0  0  0  0  0  0  0  0  0
    8.9875   -0.3183   24.6420 H   0  0  0  0  0  0  0  0  0  0  0  0
    9.4899   -1.9911   24.5571 H   0  0  0  0  0  0  0  0  0  0  0  0
    7.4423   -1.6797   25.2413 C   0  0  0  0  0  0  0  0  0  0  0  0
    6.6343   -0.9766   24.9984 H   0  0  0  0  0  0  0  0  0  0  0  0
    7.6982   -1.4988   26.2954 H   0  0  0  0  0  0  0  0  0  0  0  0
    6.9624   -3.1223   25.0499 C   0  0  0  0  0  0  0  0  0  0  0  0
    6.7648   -3.2795   23.9803 H   0  0  0  0  0  0  0  0  0  0  0  0
    7.7798   -3.8136   25.3099 H   0  0  0  0  0  0  0  0  0  0  0  0
    5.7037   -3.5084   25.8383 C   0  0  0  0  0  0  0  0  0  0  0  0
    5.4109   -4.5239   25.5303 H   0  0  0  0  0  0  0  0  0  0  0  0
    4.8686   -2.8573   25.5377 H   0  0  0  0  0  0  0  0  0  0  0  0
    5.8435   -3.4974   27.3676 C   0  0  0  0  0  0  0  0  0  0  0  0
    6.0999   -2.4870   27.7202 H   0  0  0  0  0  0  0  0  0  0  0  0
    4.8619   -3.7262   27.8049 H   0  0  0  0  0  0  0  0  0  0  0  0
    6.8786   -4.4985   27.8897 C   0  0  0  0  0  0  0  0  0  0  0  0
    7.9011   -4.1359   27.7219 H   0  0  0  0  0  0  0  0  0  0  0  0
    6.7784   -5.4656   27.3816 H   0  0  0  0  0  0  0  0  0  0  0  0
    6.7445   -4.6712   28.9634 H   0  0  0  0  0  0  0  0  0  0  0  0
    8.6535   -2.1534   21.8894 C   0  0  0  0  0  0  0  0  0  0  0  0
    9.2194   -3.0754   21.9561 H   0  0  0  0  0  0  0  0  0  0  0  0
    8.2091   -1.7020   20.6432 N   0  0  0  0  0  0  0  0  0  0  0  0
    7.7555   -2.3965   20.0449 H   0  0  0  0  0  0  0  0  0  0  0  0
    5.4622    0.6977   20.1275 C   0  0  0  0  0  0  0  0  0  0  0  0
    5.0593    0.7277   21.1382 H   0  0  0  0  0  0  0  0  0  0  0  0
    4.8266    1.3186   19.0477 C   0  0  0  0  0  0  0  0  0  0  0  0
    3.8877    1.8440   19.1845 H   0  0  0  0  0  0  0  0  0  0  0  0
  1  2  1  0
  2  3  2  0
  3  4  1  0
  4  5  1  0
  4  6  2  0
  6  7  1  0
  7  8  1  0
  8  9  2  0
  8 10  1  0
 10 11  1  0
 11 12  1  0
 11 13  1  0
 11 14  1  0
 14 15  1  0
 14 16  1  0
 14 17  1  0
 17 18  1  0
 17 19  1  0
 17 20  1  0
 20 21  1  0
 20 22  1  0
 20 23  1  0
 23 24  1  0
 23 25  1  0
 23 26  1  0
 26 27  1  0
 26 28  1  0
 26 29  1  0
 10 30  2  0
 30 31  1  0
 30 32  1  0
 32 33  1  0
  6 34  1  0
 34 35  1  0
 34 36  2  0
 36 37  1  0
 36  2  1  0
 32  7  1  0
M  END
>  <cnnaffinity>  (1) 
-5.16154

>  <filename>  (1) 
CCCCCCc1c[nH]n(-c2cccnc2)c1=O

$$$$
