
     RDKit          3D

 43 44  0  0  0  0  0  0  0  0999 V2000
    4.9386    1.7986   16.9455 H   0  0  0  0  0  0  0  0  0  0  0  0
    5.4087    1.2881   17.7858 C   0  0  0  0  0  0  0  0  0  0  0  0
    6.5613    0.6462   17.5268 N   0  0  0  0  0  0  0  0  0  0  0  0
    7.1713    0.0350   18.5481 C   0  0  0  0  0  0  0  0  0  0  0  0
    8.1048   -0.4699   18.3109 H   0  0  0  0  0  0  0  0  0  0  0  0
    6.6809    0.0380   19.8762 C   0  0  0  0  0  0  0  0  0  0  0  0
    7.3699   -0.6056   20.9322 N   0  0  0  0  0  0  0  0  0  0  0  0
    7.4524   -0.2550   22.2955 C   0  0  0  0  0  0  0  0  0  0  0  0
    6.9485    0.7319   22.8100 O   0  0  0  0  0  0  0  0  0  0  0  0
    8.2647   -1.3102   22.9059 C   0  0  0  0  0  0  0  0  0  0  0  0
    8.7545   -1.2590   24.3305 C   0  0  0  0  0  0  0  0  0  0  0  0
    8.6446   -2.2366   24.8213 H   0  0  0  0  0  0  0  0  0  0  0  0
    8.1290   -0.5672   24.9096 H   0  0  0  0  0  0  0  0  0  0  0  0
   10.2297   -0.8166   24.4285 C   0  0  0  0  0  0  0  0  0  0  0  0
   10.5566   -0.8717   25.4756 H   0  0  0  0  0  0  0  0  0  0  0  0
   10.8287   -1.5491   23.8739 H   0  0  0  0  0  0  0  0  0  0  0  0
   10.5267    0.5899   23.8883 C   0  0  0  0  0  0  0  0  0  0  0  0
   11.6188    0.7278   23.8627 H   0  0  0  0  0  0  0  0  0  0  0  0
   10.1825    0.6560   22.8438 H   0  0  0  0  0  0  0  0  0  0  0  0
    9.8842    1.7214   24.7050 C   0  0  0  0  0  0  0  0  0  0  0  0
   10.1774    1.6172   25.7622 H   0  0  0  0  0  0  0  0  0  0  0  0
    8.7906    1.6126   24.6726 H   0  0  0  0  0  0  0  0  0  0  0  0
   10.2762    3.1188   24.2080 C   0  0  0  0  0  0  0  0  0  0  0  0
   11.3589    3.2550   24.3541 H   0  0  0  0  0  0  0  0  0  0  0  0
   10.1193    3.1720   23.1177 H   0  0  0  0  0  0  0  0  0  0  0  0
    9.5318    4.2787   24.8921 C   0  0  0  0  0  0  0  0  0  0  0  0
    8.4591    4.2353   24.6392 H   0  0  0  0  0  0  0  0  0  0  0  0
    9.5845    4.1619   25.9888 H   0  0  0  0  0  0  0  0  0  0  0  0
   10.0838    5.6597   24.4967 C   0  0  0  0  0  0  0  0  0  0  0  0
   11.1802    5.6640   24.5873 H   0  0  0  0  0  0  0  0  0  0  0  0
    9.8749    5.8436   23.4323 H   0  0  0  0  0  0  0  0  0  0  0  0
    9.5212    6.8029   25.3418 C   0  0  0  0  0  0  0  0  0  0  0  0
    8.4255    6.8025   25.3353 H   0  0  0  0  0  0  0  0  0  0  0  0
    9.8552    7.7769   24.9697 H   0  0  0  0  0  0  0  0  0  0  0  0
    9.8441    6.7136   26.3860 H   0  0  0  0  0  0  0  0  0  0  0  0
    8.5973   -2.1676   21.9125 C   0  0  0  0  0  0  0  0  0  0  0  0
    9.1575   -3.0907   21.9739 H   0  0  0  0  0  0  0  0  0  0  0  0
    8.1887   -1.7061   20.6698 N   0  0  0  0  0  0  0  0  0  0  0  0
    7.7712   -2.3674   20.0164 H   0  0  0  0  0  0  0  0  0  0  0  0
    5.4707    0.6973   20.1303 C   0  0  0  0  0  0  0  0  0  0  0  0
    5.0722    0.7193   21.1420 H   0  0  0  0  0  0  0  0  0  0  0  0
    4.8247    1.3183   19.0554 C   0  0  0  0  0  0  0  0  0  0  0  0
    3.8846    1.8388   19.1989 H   0  0  0  0  0  0  0  0  0  0  0  0
  1  2  1  0
  2  3  2  0
  3  4  1  0
  4  5  1  0
  4  6  2  0
  6  7  1  0
  7  8  1  0
  8  9  2  0
  8 10  1  0
 10 11  1  0
 11 12  1  0
 11 13  1  0
 11 14  1  0
 14 15  1  0
 14 16  1  0
 14 17  1  0
 17 18  1  0
 17 19  1  0
 17 20  1  0
 20 21  1  0
 20 22  1  0
 20 23  1  0
 23 24  1  0
 23 25  1  0
 23 26  1  0
 26 27  1  0
 26 28  1  0
 26 29  1  0
 29 30  1  0
 29 31  1  0
 29 32  1  0
 32 33  1  0
 32 34  1  0
 32 35  1  0
 10 36  2  0
 36 37  1  0
 36 38  1  0
 38 39  1  0
  6 40  1  0
 40 41  1  0
 40 42  2  0
 42 43  1  0
 42  2  1  0
 38  7  1  0
M  END
>  <cnnaffinity>  (1) 
-5.56991

>  <filename>  (1) 
CCCCCCCCc1c[nH]n(-c2cccnc2)c1=O

$$$$
