
     RDKit          3D

 34 35  0  0  0  0  0  0  0  0999 V2000
    4.9526    1.7626   16.8968 H   0  0  0  0  0  0  0  0  0  0  0  0
    5.4293    1.2828   17.7474 C   0  0  0  0  0  0  0  0  0  0  0  0
    6.5802    0.6351   17.4987 N   0  0  0  0  0  0  0  0  0  0  0  0
    7.1844    0.0286   18.5255 C   0  0  0  0  0  0  0  0  0  0  0  0
    8.1087   -0.5036   18.3105 H   0  0  0  0  0  0  0  0  0  0  0  0
    6.6834    0.0566   19.8475 C   0  0  0  0  0  0  0  0  0  0  0  0
    7.3570   -0.5785   20.9120 N   0  0  0  0  0  0  0  0  0  0  0  0
    7.3575   -0.2281   22.2745 C   0  0  0  0  0  0  0  0  0  0  0  0
    6.8058    0.7423   22.7673 O   0  0  0  0  0  0  0  0  0  0  0  0
    8.1427   -1.2914   22.9098 C   0  0  0  0  0  0  0  0  0  0  0  0
    8.6243   -1.1873   24.3214 C   0  0  0  0  0  0  0  0  0  0  0  0
    8.9271   -2.1799   24.6982 H   0  0  0  0  0  0  0  0  0  0  0  0
    7.7956   -0.8419   24.9498 H   0  0  0  0  0  0  0  0  0  0  0  0
    9.7877   -0.1759   24.4110 C   0  0  0  0  0  0  0  0  0  0  0  0
   10.1257   -0.1321   25.4545 H   0  0  0  0  0  0  0  0  0  0  0  0
    9.4009    0.8251   24.1660 H   0  0  0  0  0  0  0  0  0  0  0  0
   10.9683   -0.4993   23.4779 C   0  0  0  0  0  0  0  0  0  0  0  0
   10.6948   -0.2285   22.4453 H   0  0  0  0  0  0  0  0  0  0  0  0
   11.1117   -1.5887   23.4407 H   0  0  0  0  0  0  0  0  0  0  0  0
   12.2646    0.1953   23.8981 C   0  0  0  0  0  0  0  0  0  0  0  0
   12.5551   -0.1831   24.8904 H   0  0  0  0  0  0  0  0  0  0  0  0
   12.0605    1.2673   24.0291 H   0  0  0  0  0  0  0  0  0  0  0  0
   13.4310    0.0237   22.9215 C   0  0  0  0  0  0  0  0  0  0  0  0
   13.6968   -1.0299   22.7674 H   0  0  0  0  0  0  0  0  0  0  0  0
   13.1821    0.4454   21.9436 H   0  0  0  0  0  0  0  0  0  0  0  0
   14.3199    0.5545   23.2856 H   0  0  0  0  0  0  0  0  0  0  0  0
    8.5157   -2.1556   21.9483 C   0  0  0  0  0  0  0  0  0  0  0  0
    9.1005   -3.0623   22.0498 H   0  0  0  0  0  0  0  0  0  0  0  0
    8.1443   -1.7175   20.6732 N   0  0  0  0  0  0  0  0  0  0  0  0
    7.6644   -2.4065   20.0908 H   0  0  0  0  0  0  0  0  0  0  0  0
    5.4816    0.7300   20.0940 C   0  0  0  0  0  0  0  0  0  0  0  0
    5.0883    0.7663   21.1087 H   0  0  0  0  0  0  0  0  0  0  0  0
    4.8408    1.3419   19.0167 C   0  0  0  0  0  0  0  0  0  0  0  0
    3.9033    1.8674   19.1550 H   0  0  0  0  0  0  0  0  0  0  0  0
  1  2  1  0
  2  3  2  0
  3  4  1  0
  4  5  1  0
  4  6  2  0
  6  7  1  0
  7  8  1  0
  8  9  2  0
  8 10  1  0
 10 11  1  0
 11 12  1  0
 11 13  1  0
 11 14  1  0
 14 15  1  0
 14 16  1  0
 14 17  1  0
 17 18  1  0
 17 19  1  0
 17 20  1  0
 20 21  1  0
 20 22  1  0
 20 23  1  0
 23 24  1  0
 23 25  1  0
 23 26  1  0
 10 27  2  0
 27 28  1  0
 27 29  1  0
 29 30  1  0
  6 31  1  0
 31 32  1  0
 31 33  2  0
 33 34  1  0
 33  2  1  0
 29  7  1  0
M  END
>  <cnnaffinity>  (1) 
-4.95258

>  <filename>  (1) 
CCCCCc1c[nH]n(-c2cccnc2)c1=O

$$$$
