
     RDKit          3D

 44 46  0  0  0  0  0  0  0  0999 V2000
    5.2386    1.7917   16.8524 H   0  0  0  0  0  0  0  0  0  0  0  0
    5.6211    1.3006   17.7444 C   0  0  0  0  0  0  0  0  0  0  0  0
    6.7915    0.6552   17.6097 N   0  0  0  0  0  0  0  0  0  0  0  0
    7.2689    0.0144   18.6845 C   0  0  0  0  0  0  0  0  0  0  0  0
    8.2285   -0.4854   18.5635 H   0  0  0  0  0  0  0  0  0  0  0  0
    6.5929   -0.0665   19.9272 C   0  0  0  0  0  0  0  0  0  0  0  0
    7.0225   -0.9511   21.0247 C   0  0  0  0  0  0  0  0  0  0  0  0
    6.3062   -1.8263   21.8129 C   0  0  0  0  0  0  0  0  0  0  0  0
    5.2499   -2.0310   21.7230 H   0  0  0  0  0  0  0  0  0  0  0  0
    7.0783   -2.5112   22.7170 N   0  0  0  0  0  0  0  0  0  0  0  0
    8.2751   -2.0421   22.4794 C   0  0  0  0  0  0  0  0  0  0  0  0
    9.8572   -2.2350   23.1394 S   0  0  0  0  0  0  0  0  0  0  0  0
   10.4267   -1.1435   21.8728 C   0  0  0  0  0  0  0  0  0  0  0  0
   11.8795   -0.8166   21.7659 C   0  0  0  0  0  0  0  0  0  0  0  0
   12.1679   -0.9102   20.7110 H   0  0  0  0  0  0  0  0  0  0  0  0
   12.4399   -1.5750   22.3159 H   0  0  0  0  0  0  0  0  0  0  0  0
   12.2729    0.5675   22.3216 C   0  0  0  0  0  0  0  0  0  0  0  0
   13.3658    0.6512   22.2399 H   0  0  0  0  0  0  0  0  0  0  0  0
   12.0388    0.6027   23.3976 H   0  0  0  0  0  0  0  0  0  0  0  0
   11.6327    1.7628   21.6112 C   0  0  0  0  0  0  0  0  0  0  0  0
   11.7965    1.6753   20.5296 H   0  0  0  0  0  0  0  0  0  0  0  0
   10.5440    1.7349   21.7286 H   0  0  0  0  0  0  0  0  0  0  0  0
   12.1797    3.1174   22.0666 C   0  0  0  0  0  0  0  0  0  0  0  0
   11.6160    3.9027   21.5457 H   0  0  0  0  0  0  0  0  0  0  0  0
   13.2167    3.2292   21.7259 H   0  0  0  0  0  0  0  0  0  0  0  0
   12.2028    3.3929   23.5763 C   0  0  0  0  0  0  0  0  0  0  0  0
   11.1811    3.4055   23.9827 H   0  0  0  0  0  0  0  0  0  0  0  0
   12.7253    2.5755   24.0990 H   0  0  0  0  0  0  0  0  0  0  0  0
   12.9272    4.7167   23.8856 C   0  0  0  0  0  0  0  0  0  0  0  0
   12.9073    4.9115   24.9662 H   0  0  0  0  0  0  0  0  0  0  0  0
   13.9868    4.5908   23.6149 H   0  0  0  0  0  0  0  0  0  0  0  0
   12.3765    5.9543   23.1537 C   0  0  0  0  0  0  0  0  0  0  0  0
   12.6304    5.8876   22.0847 H   0  0  0  0  0  0  0  0  0  0  0  0
   12.9022    6.8453   23.5254 H   0  0  0  0  0  0  0  0  0  0  0  0
   10.8612    6.1413   23.3110 C   0  0  0  0  0  0  0  0  0  0  0  0
   10.5109    7.0832   22.8732 H   0  0  0  0  0  0  0  0  0  0  0  0
   10.3168    5.3269   22.8151 H   0  0  0  0  0  0  0  0  0  0  0  0
   10.5709    6.1359   24.3703 H   0  0  0  0  0  0  0  0  0  0  0  0
    9.5212   -0.6382   21.0983 N   0  0  0  0  0  0  0  0  0  0  0  0
    8.3205   -1.1405   21.4612 N   0  0  0  0  0  0  0  0  0  0  0  0
    5.3968    0.6688   20.0517 C   0  0  0  0  0  0  0  0  0  0  0  0
    4.8741    0.7101   21.0106 H   0  0  0  0  0  0  0  0  0  0  0  0
    4.9040    1.3570   18.9463 C   0  0  0  0  0  0  0  0  0  0  0  0
    3.9801    1.9258   18.9915 H   0  0  0  0  0  0  0  0  0  0  0  0
  1  2  1  0
  2  3  2  0
  3  4  1  0
  4  5  1  0
  4  6  2  0
  6  7  1  0
  7  8  2  0
  8  9  1  0
  8 10  1  0
 10 11  2  0
 11 12  1  0
 12 13  1  0
 13 14  1  0
 14 15  1  0
 14 16  1  0
 14 17  1  0
 17 18  1  0
 17 19  1  0
 17 20  1  0
 20 21  1  0
 20 22  1  0
 20 23  1  0
 23 24  1  0
 23 25  1  0
 23 26  1  0
 26 27  1  0
 26 28  1  0
 26 29  1  0
 29 30  1  0
 29 31  1  0
 29 32  1  0
 32 33  1  0
 32 34  1  0
 32 35  1  0
 35 36  1  0
 35 37  1  0
 35 38  1  0
 13 39  2  0
 39 40  1  0
  6 41  1  0
 41 42  1  0
 41 43  2  0
 43 44  1  0
 43  2  1  0
 40  7  1  0
 40 11  1  0
M  END
>  <cnnaffinity>  (1) 
-5.48946

>  <filename>  (1) 
CCCCCCCCc1nn2c(-c3cccnc3)cnc2s1

$$$$
