
     RDKit          3D

 42 43  0  0  0  0  0  0  0  0999 V2000
    4.9229    1.7878   16.9960 H   0  0  0  0  0  0  0  0  0  0  0  0
    5.4019    1.2937   17.8395 C   0  0  0  0  0  0  0  0  0  0  0  0
    6.5624    0.6715   17.5790 N   0  0  0  0  0  0  0  0  0  0  0  0
    7.1829    0.0629   18.5974 C   0  0  0  0  0  0  0  0  0  0  0  0
    8.1215   -0.4396   18.3654 H   0  0  0  0  0  0  0  0  0  0  0  0
    6.6777    0.0248   19.9119 C   0  0  0  0  0  0  0  0  0  0  0  0
    7.3636   -0.6561   20.9702 N   0  0  0  0  0  0  0  0  0  0  0  0
    8.6119   -0.3575   21.5003 C   0  0  0  0  0  0  0  0  0  0  0  0
    9.4437    0.7928   21.0584 C   0  0  0  0  0  0  0  0  0  0  0  0
    9.5385    0.7548   19.9720 H   0  0  0  0  0  0  0  0  0  0  0  0
   10.4451    0.6526   21.4782 H   0  0  0  0  0  0  0  0  0  0  0  0
    8.8742    2.1552   21.4906 C   0  0  0  0  0  0  0  0  0  0  0  0
    9.5605    2.9271   21.1382 H   0  0  0  0  0  0  0  0  0  0  0  0
    7.9198    2.3301   20.9721 H   0  0  0  0  0  0  0  0  0  0  0  0
    8.6872    2.2808   23.0137 C   0  0  0  0  0  0  0  0  0  0  0  0
    8.9543    3.2933   23.3460 H   0  0  0  0  0  0  0  0  0  0  0  0
    9.3998    1.6110   23.5191 H   0  0  0  0  0  0  0  0  0  0  0  0
    7.2587    1.9828   23.4880 C   0  0  0  0  0  0  0  0  0  0  0  0
    6.5984    2.7705   23.1021 H   0  0  0  0  0  0  0  0  0  0  0  0
    6.8920    1.0507   23.0279 H   0  0  0  0  0  0  0  0  0  0  0  0
    7.1200    1.8935   25.0096 C   0  0  0  0  0  0  0  0  0  0  0  0
    7.6875    2.7099   25.4840 H   0  0  0  0  0  0  0  0  0  0  0  0
    6.0714    2.0602   25.2892 H   0  0  0  0  0  0  0  0  0  0  0  0
    7.5901    0.5517   25.5841 C   0  0  0  0  0  0  0  0  0  0  0  0
    8.6172    0.3442   25.2503 H   0  0  0  0  0  0  0  0  0  0  0  0
    6.9712   -0.2493   25.1489 H   0  0  0  0  0  0  0  0  0  0  0  0
    7.5210    0.4689   27.1140 C   0  0  0  0  0  0  0  0  0  0  0  0
    8.0516   -0.4316   27.4484 H   0  0  0  0  0  0  0  0  0  0  0  0
    8.0731    1.3165   27.5456 H   0  0  0  0  0  0  0  0  0  0  0  0
    6.0912    0.4487   27.6631 C   0  0  0  0  0  0  0  0  0  0  0  0
    5.5070   -0.3587   27.2044 H   0  0  0  0  0  0  0  0  0  0  0  0
    6.0804    0.2920   28.7468 H   0  0  0  0  0  0  0  0  0  0  0  0
    5.5599    1.3856   27.4597 H   0  0  0  0  0  0  0  0  0  0  0  0
    8.9207   -1.1586   22.4759 N   0  0  0  0  0  0  0  0  0  0  0  0
    7.8358   -1.9766   22.5757 N   0  0  0  0  0  0  0  0  0  0  0  0
    7.7598   -2.7098   23.2555 H   0  0  0  0  0  0  0  0  0  0  0  0
    6.8611   -1.7346   21.6838 C   0  0  0  0  0  0  0  0  0  0  0  0
    5.4685   -2.6233   21.5190 S   0  0  0  0  0  0  0  0  0  0  0  0
    5.4560    0.6458   20.1659 C   0  0  0  0  0  0  0  0  0  0  0  0
    5.0281    0.5943   21.1702 H   0  0  0  0  0  0  0  0  0  0  0  0
    4.8188    1.3071   19.1109 C   0  0  0  0  0  0  0  0  0  0  0  0
    3.8853    1.8316   19.2600 H   0  0  0  0  0  0  0  0  0  0  0  0
  1  2  1  0
  2  3  2  0
  3  4  1  0
  4  5  1  0
  4  6  2  0
  6  7  1  0
  7  8  1  0
  8  9  1  0
  9 10  1  0
  9 11  1  0
  9 12  1  0
 12 13  1  0
 12 14  1  0
 12 15  1  0
 15 16  1  0
 15 17  1  0
 15 18  1  0
 18 19  1  0
 18 20  1  0
 18 21  1  0
 21 22  1  0
 21 23  1  0
 21 24  1  0
 24 25  1  0
 24 26  1  0
 24 27  1  0
 27 28  1  0
 27 29  1  0
 27 30  1  0
 30 31  1  0
 30 32  1  0
 30 33  1  0
  8 34  2  0
 34 35  1  0
 35 36  1  0
 35 37  1  0
 37 38  2  0
  6 39  1  0
 39 40  1  0
 39 41  2  0
 41 42  1  0
 41  2  1  0
 37  7  1  0
M  END
>  <cnnaffinity>  (1) 
-5.54368

>  <filename>  (1) 
CCCCCCCCc1n[nH]c(=S)n1-c1cccnc1

$$$$
