
     RDKit          3D

 40 41  0  0  0  0  0  0  0  0999 V2000
    5.0439    1.7970   16.9510 H   0  0  0  0  0  0  0  0  0  0  0  0
    5.4797    1.2897   17.8068 C   0  0  0  0  0  0  0  0  0  0  0  0
    6.6316    0.6359   17.5757 N   0  0  0  0  0  0  0  0  0  0  0  0
    7.1829   -0.0113   18.6033 C   0  0  0  0  0  0  0  0  0  0  0  0
    8.1005   -0.5669   18.4061 H   0  0  0  0  0  0  0  0  0  0  0  0
    6.6529   -0.0101   19.9011 C   0  0  0  0  0  0  0  0  0  0  0  0
    7.3907   -0.7216   20.9563 C   0  0  0  0  0  0  0  0  0  0  0  0
    7.8878   -1.9715   20.6988 N   0  0  0  0  0  0  0  0  0  0  0  0
    8.4818   -2.5262   21.6765 N   0  0  0  0  0  0  0  0  0  0  0  0
    8.4888   -1.5179   23.0373 S   0  0  0  0  0  0  0  0  0  0  0  0
    7.6977   -0.2484   22.2113 C   0  0  0  0  0  0  0  0  0  0  0  0
    7.6046    1.1793   22.6585 C   0  0  0  0  0  0  0  0  0  0  0  0
    7.9032    1.2722   23.7093 H   0  0  0  0  0  0  0  0  0  0  0  0
    6.5596    1.5138   22.6082 H   0  0  0  0  0  0  0  0  0  0  0  0
    8.4317    2.1307   21.7663 C   0  0  0  0  0  0  0  0  0  0  0  0
    8.1241    2.0099   20.7204 H   0  0  0  0  0  0  0  0  0  0  0  0
    9.4860    1.8223   21.7919 H   0  0  0  0  0  0  0  0  0  0  0  0
    8.2965    3.6087   22.1641 C   0  0  0  0  0  0  0  0  0  0  0  0
    8.2904    4.2447   21.2761 H   0  0  0  0  0  0  0  0  0  0  0  0
    7.3129    3.7709   22.6256 H   0  0  0  0  0  0  0  0  0  0  0  0
    9.4145    4.1385   23.0651 C   0  0  0  0  0  0  0  0  0  0  0  0
   10.3693    3.9228   22.5630 H   0  0  0  0  0  0  0  0  0  0  0  0
    9.3326    5.2333   23.1249 H   0  0  0  0  0  0  0  0  0  0  0  0
    9.4953    3.5576   24.4780 C   0  0  0  0  0  0  0  0  0  0  0  0
    9.6624    2.4753   24.4138 H   0  0  0  0  0  0  0  0  0  0  0  0
   10.4060    3.9581   24.9323 H   0  0  0  0  0  0  0  0  0  0  0  0
    8.2885    3.8244   25.3919 C   0  0  0  0  0  0  0  0  0  0  0  0
    8.4196    3.2691   26.3319 H   0  0  0  0  0  0  0  0  0  0  0  0
    7.3898    3.3900   24.9351 H   0  0  0  0  0  0  0  0  0  0  0  0
    8.0223    5.2989   25.7276 C   0  0  0  0  0  0  0  0  0  0  0  0
    7.0823    5.3696   26.2901 H   0  0  0  0  0  0  0  0  0  0  0  0
    7.8506    5.8682   24.8030 H   0  0  0  0  0  0  0  0  0  0  0  0
    9.1390    5.9556   26.5407 C   0  0  0  0  0  0  0  0  0  0  0  0
    9.2805    5.4501   27.5031 H   0  0  0  0  0  0  0  0  0  0  0  0
   10.0990    5.9260   26.0130 H   0  0  0  0  0  0  0  0  0  0  0  0
    8.9127    7.0060   26.7459 H   0  0  0  0  0  0  0  0  0  0  0  0
    5.4498    0.6767   20.1288 C   0  0  0  0  0  0  0  0  0  0  0  0
    4.9994    0.6843   21.1225 H   0  0  0  0  0  0  0  0  0  0  0  0
    4.8474    1.3272   19.0537 C   0  0  0  0  0  0  0  0  0  0  0  0
    3.9129    1.8653   19.1713 H   0  0  0  0  0  0  0  0  0  0  0  0
  1  2  1  0
  2  3  2  0
  3  4  1  0
  4  5  1  0
  4  6  2  0
  6  7  1  0
  7  8  1  0
  8  9  2  0
  9 10  1  0
 10 11  1  0
 11 12  1  0
 12 13  1  0
 12 14  1  0
 12 15  1  0
 15 16  1  0
 15 17  1  0
 15 18  1  0
 18 19  1  0
 18 20  1  0
 18 21  1  0
 21 22  1  0
 21 23  1  0
 21 24  1  0
 24 25  1  0
 24 26  1  0
 24 27  1  0
 27 28  1  0
 27 29  1  0
 27 30  1  0
 30 31  1  0
 30 32  1  0
 30 33  1  0
 33 34  1  0
 33 35  1  0
 33 36  1  0
  6 37  1  0
 37 38  1  0
 37 39  2  0
 39 40  1  0
 39  2  1  0
 11  7  2  0
M  END
>  <cnnaffinity>  (1) 
-5.23994

>  <filename>  (1) 
CCCCCCCCc1snnc1-c1cccnc1

$$$$
