
     RDKit          3D

 35 36  0  0  0  0  0  0  0  0999 V2000
    4.9981    1.8067   16.9230 H   0  0  0  0  0  0  0  0  0  0  0  0
    5.4248    1.3039   17.7911 C   0  0  0  0  0  0  0  0  0  0  0  0
    6.5867    0.6614   17.5901 N   0  0  0  0  0  0  0  0  0  0  0  0
    7.1373    0.0429   18.6374 C   0  0  0  0  0  0  0  0  0  0  0  0
    8.0874   -0.4588   18.4627 H   0  0  0  0  0  0  0  0  0  0  0  0
    6.5631    0.0111   19.9183 C   0  0  0  0  0  0  0  0  0  0  0  0
    7.2916   -0.7166   20.9584 C   0  0  0  0  0  0  0  0  0  0  0  0
    8.5444   -1.1109   20.8382 N   0  0  0  0  0  0  0  0  0  0  0  0
    8.8171   -1.6859   22.0412 C   0  0  0  0  0  0  0  0  0  0  0  0
   10.2025   -2.1501   22.3657 C   0  0  0  0  0  0  0  0  0  0  0  0
   10.5433   -2.7311   21.5108 H   0  0  0  0  0  0  0  0  0  0  0  0
   10.1695   -2.8318   23.2255 H   0  0  0  0  0  0  0  0  0  0  0  0
   11.1621   -0.9560   22.5631 C   0  0  0  0  0  0  0  0  0  0  0  0
   12.1828   -1.3302   22.7100 H   0  0  0  0  0  0  0  0  0  0  0  0
   11.2032   -0.4189   21.6055 H   0  0  0  0  0  0  0  0  0  0  0  0
   10.7508    0.0282   23.6785 C   0  0  0  0  0  0  0  0  0  0  0  0
   11.4606    0.8662   23.6509 H   0  0  0  0  0  0  0  0  0  0  0  0
    9.7595    0.4480   23.4382 H   0  0  0  0  0  0  0  0  0  0  0  0
   10.7358   -0.6072   25.0795 C   0  0  0  0  0  0  0  0  0  0  0  0
   11.7676   -0.8439   25.3697 H   0  0  0  0  0  0  0  0  0  0  0  0
   10.1955   -1.5635   25.0096 H   0  0  0  0  0  0  0  0  0  0  0  0
   10.1919    0.1857   26.2803 C   0  0  0  0  0  0  0  0  0  0  0  0
   10.2797   -0.4822   27.1503 H   0  0  0  0  0  0  0  0  0  0  0  0
   10.8724    1.0148   26.5042 H   0  0  0  0  0  0  0  0  0  0  0  0
    8.7680    0.7393   26.2367 C   0  0  0  0  0  0  0  0  0  0  0  0
    8.0098   -0.0449   26.1166 H   0  0  0  0  0  0  0  0  0  0  0  0
    8.6379    1.4812   25.4380 H   0  0  0  0  0  0  0  0  0  0  0  0
    8.5755    1.2384   27.1936 H   0  0  0  0  0  0  0  0  0  0  0  0
    7.8007   -1.7127   22.8767 N   0  0  0  0  0  0  0  0  0  0  0  0
    6.8290   -1.0724   22.1695 N   0  0  0  0  0  0  0  0  0  0  0  0
    5.8994   -0.9744   22.5520 H   0  0  0  0  0  0  0  0  0  0  0  0
    5.3578    0.6991   20.1220 C   0  0  0  0  0  0  0  0  0  0  0  0
    4.8941    0.7584   21.1086 H   0  0  0  0  0  0  0  0  0  0  0  0
    4.7789    1.3440   19.0320 C   0  0  0  0  0  0  0  0  0  0  0  0
    3.8455    1.8859   19.1289 H   0  0  0  0  0  0  0  0  0  0  0  0
  1  2  1  0
  2  3  2  0
  3  4  1  0
  4  5  1  0
  4  6  2  0
  6  7  1  0
  7  8  2  0
  8  9  1  0
  9 10  1  0
 10 11  1  0
 10 12  1  0
 10 13  1  0
 13 14  1  0
 13 15  1  0
 13 16  1  0
 16 17  1  0
 16 18  1  0
 16 19  1  0
 19 20  1  0
 19 21  1  0
 19 22  1  0
 22 23  1  0
 22 24  1  0
 22 25  1  0
 25 26  1  0
 25 27  1  0
 25 28  1  0
  9 29  2  0
 29 30  1  0
 30 31  1  0
  6 32  1  0
 32 33  1  0
 32 34  2  0
 34 35  1  0
 34  2  1  0
 30  7  1  0
M  END
>  <cnnaffinity>  (1) 
-5.0184

>  <filename>  (1) 
CCCCCCc1n[nH]c(-c2cccnc2)n1

$$$$
