
     RDKit          3D

 41 42  0  0  0  0  0  0  0  0999 V2000
    4.9205    1.8222   16.9661 H   0  0  0  0  0  0  0  0  0  0  0  0
    5.3856    1.3098   17.8066 C   0  0  0  0  0  0  0  0  0  0  0  0
    6.5420    0.6853   17.5391 N   0  0  0  0  0  0  0  0  0  0  0  0
    7.1575    0.0723   18.5570 C   0  0  0  0  0  0  0  0  0  0  0  0
    8.0973   -0.4186   18.3094 H   0  0  0  0  0  0  0  0  0  0  0  0
    6.6656    0.0206   19.8779 C   0  0  0  0  0  0  0  0  0  0  0  0
    7.3930   -0.6987   20.9686 C   0  0  0  0  0  0  0  0  0  0  0  0
    8.7877   -0.5918   21.1542 C   0  0  0  0  0  0  0  0  0  0  0  0
    9.3896    0.0468   20.5083 H   0  0  0  0  0  0  0  0  0  0  0  0
    9.4592   -1.2256   22.1217 N   0  0  0  0  0  0  0  0  0  0  0  0
    8.7702   -2.0001   22.9721 C   0  0  0  0  0  0  0  0  0  0  0  0
    9.3779   -2.4912   23.7357 H   0  0  0  0  0  0  0  0  0  0  0  0
    7.3750   -2.1772   22.9029 C   0  0  0  0  0  0  0  0  0  0  0  0
    6.6402   -3.1216   23.8202 C   0  0  0  0  0  0  0  0  0  0  0  0
    5.6170   -2.7514   23.9819 H   0  0  0  0  0  0  0  0  0  0  0  0
    7.1218   -3.1359   24.8083 H   0  0  0  0  0  0  0  0  0  0  0  0
    6.5765   -4.5423   23.2356 C   0  0  0  0  0  0  0  0  0  0  0  0
    6.1532   -4.4952   22.2228 H   0  0  0  0  0  0  0  0  0  0  0  0
    7.6021   -4.9266   23.1214 H   0  0  0  0  0  0  0  0  0  0  0  0
    5.7673   -5.5066   24.1001 C   0  0  0  0  0  0  0  0  0  0  0  0
    4.7477   -5.1147   24.2491 H   0  0  0  0  0  0  0  0  0  0  0  0
    5.6411   -6.4576   23.5604 H   0  0  0  0  0  0  0  0  0  0  0  0
    6.4202   -5.7702   25.4658 C   0  0  0  0  0  0  0  0  0  0  0  0
    7.4684   -6.0711   25.3103 H   0  0  0  0  0  0  0  0  0  0  0  0
    6.4526   -4.8441   26.0612 H   0  0  0  0  0  0  0  0  0  0  0  0
    5.6897   -6.8586   26.2480 C   0  0  0  0  0  0  0  0  0  0  0  0
    6.2990   -7.1976   27.0974 H   0  0  0  0  0  0  0  0  0  0  0  0
    5.5823   -7.7128   25.5700 H   0  0  0  0  0  0  0  0  0  0  0  0
    4.2938   -6.4603   26.7357 C   0  0  0  0  0  0  0  0  0  0  0  0
    4.3499   -5.5180   27.3029 H   0  0  0  0  0  0  0  0  0  0  0  0
    3.6670   -6.2549   25.8587 H   0  0  0  0  0  0  0  0  0  0  0  0
    3.6333   -7.6030   27.5028 C   0  0  0  0  0  0  0  0  0  0  0  0
    3.4950   -8.4192   26.7876 H   0  0  0  0  0  0  0  0  0  0  0  0
    2.6522   -7.3518   27.9144 H   0  0  0  0  0  0  0  0  0  0  0  0
    4.2473   -7.9798   28.3295 H   0  0  0  0  0  0  0  0  0  0  0  0
    6.7002   -1.5192   21.8671 C   0  0  0  0  0  0  0  0  0  0  0  0
    5.6273   -1.6538   21.7226 H   0  0  0  0  0  0  0  0  0  0  0  0
    5.4412    0.6631   20.1242 C   0  0  0  0  0  0  0  0  0  0  0  0
    5.0229    0.6549   21.1320 H   0  0  0  0  0  0  0  0  0  0  0  0
    4.7952    1.3242   19.0756 C   0  0  0  0  0  0  0  0  0  0  0  0
    3.8598    1.8533   19.2255 H   0  0  0  0  0  0  0  0  0  0  0  0
  1  2  1  0
  2  3  2  0
  3  4  1  0
  4  5  1  0
  4  6  2  0
  6  7  1  0
  7  8  2  0
  8  9  1  0
  8 10  1  0
 10 11  2  0
 11 12  1  0
 11 13  1  0
 13 14  1  0
 14 15  1  0
 14 16  1  0
 14 17  1  0
 17 18  1  0
 17 19  1  0
 17 20  1  0
 20 21  1  0
 20 22  1  0
 20 23  1  0
 23 24  1  0
 23 25  1  0
 23 26  1  0
 26 27  1  0
 26 28  1  0
 26 29  1  0
 29 30  1  0
 29 31  1  0
 29 32  1  0
 32 33  1  0
 32 34  1  0
 32 35  1  0
 13 36  2  0
 36 37  1  0
  6 38  1  0
 38 39  1  0
 38 40  2  0
 40 41  1  0
 40  2  1  0
 36  7  1  0
M  END
>  <cnnaffinity>  (1) 
-5.26103

>  <filename>  (1) 
CCCCCCCc1cncc(-c2cccnc2)c1

$$$$
