
     RDKit          3D

 34 35  0  0  0  0  0  0  0  0999 V2000
    5.0081    1.7676   16.9911 H   0  0  0  0  0  0  0  0  0  0  0  0
    5.4541    1.2677   17.8478 C   0  0  0  0  0  0  0  0  0  0  0  0
    6.6140    0.6209   17.6305 N   0  0  0  0  0  0  0  0  0  0  0  0
    7.1614   -0.0095   18.6766 C   0  0  0  0  0  0  0  0  0  0  0  0
    8.0870   -0.5500   18.4771 H   0  0  0  0  0  0  0  0  0  0  0  0
    6.6164   -0.0403   19.9823 C   0  0  0  0  0  0  0  0  0  0  0  0
    7.2509   -0.7857   20.9962 N   0  0  0  0  0  0  0  0  0  0  0  0
    8.1998   -1.0545   20.7288 H   0  0  0  0  0  0  0  0  0  0  0  0
    7.1741   -0.3497   22.3227 N   0  0  0  0  0  0  0  0  0  0  0  0
    6.5493   -0.8967   22.9000 H   0  0  0  0  0  0  0  0  0  0  0  0
    7.3710    0.9476   22.7875 C   0  0  0  0  0  0  0  0  0  0  0  0
    7.7071    1.8790   22.0793 O   0  0  0  0  0  0  0  0  0  0  0  0
    7.0979    1.1143   24.2630 C   0  0  0  0  0  0  0  0  0  0  0  0
    6.5769    2.3521   24.6921 C   0  0  0  0  0  0  0  0  0  0  0  0
    6.3541    3.1142   23.9444 H   0  0  0  0  0  0  0  0  0  0  0  0
    6.3380    2.6048   26.0340 C   0  0  0  0  0  0  0  0  0  0  0  0
    5.9163    3.5532   26.3516 H   0  0  0  0  0  0  0  0  0  0  0  0
    6.6474    1.6270   26.9995 C   0  0  0  0  0  0  0  0  0  0  0  0
    6.3970    1.9821   28.2864 O   0  0  0  0  0  0  0  0  0  0  0  0
    6.6758    1.0924   29.3620 C   0  0  0  0  0  0  0  0  0  0  0  0
    7.7427    0.8268   29.3637 H   0  0  0  0  0  0  0  0  0  0  0  0
    6.0928    0.1680   29.2418 H   0  0  0  0  0  0  0  0  0  0  0  0
    6.2946    1.8105   30.6391 C   0  0  0  0  0  0  0  0  0  0  0  0
    5.2325    2.0755   30.6147 H   0  0  0  0  0  0  0  0  0  0  0  0
    6.8936    2.7200   30.7532 H   0  0  0  0  0  0  0  0  0  0  0  0
    6.4764    1.1583   31.4986 H   0  0  0  0  0  0  0  0  0  0  0  0
    7.1699    0.3911   26.5867 C   0  0  0  0  0  0  0  0  0  0  0  0
    7.3936   -0.3739   27.3218 H   0  0  0  0  0  0  0  0  0  0  0  0
    7.3887    0.1386   25.2288 C   0  0  0  0  0  0  0  0  0  0  0  0
    7.8017   -0.8289   24.9447 H   0  0  0  0  0  0  0  0  0  0  0  0
    5.3931    0.6215   20.1769 C   0  0  0  0  0  0  0  0  0  0  0  0
    4.8976    0.6008   21.1463 H   0  0  0  0  0  0  0  0  0  0  0  0
    4.8143    1.2857   19.0911 C   0  0  0  0  0  0  0  0  0  0  0  0
    3.8679    1.8073   19.2014 H   0  0  0  0  0  0  0  0  0  0  0  0
  1  2  1  0
  2  3  2  0
  3  4  1  0
  4  5  1  0
  4  6  2  0
  6  7  1  0
  7  8  1  0
  7  9  1  0
  9 10  1  0
  9 11  1  0
 11 12  2  0
 11 13  1  0
 13 14  2  0
 14 15  1  0
 14 16  1  0
 16 17  1  0
 16 18  2  0
 18 19  1  0
 19 20  1  0
 20 21  1  0
 20 22  1  0
 20 23  1  0
 23 24  1  0
 23 25  1  0
 23 26  1  0
 18 27  1  0
 27 28  1  0
 27 29  2  0
 29 30  1  0
  6 31  1  0
 31 32  1  0
 31 33  2  0
 33 34  1  0
 33  2  1  0
 29 13  1  0
M  END
>  <cnnaffinity>  (1) 
-4.57395

>  <filename>  (1) 
CCOc1ccc(C(=O)NNc2cccnc2)cc1

$$$$
