
     RDKit          3D

 29 31  0  0  0  0  0  0  0  0999 V2000
    5.0629    1.8097   17.2780 H   0  0  0  0  0  0  0  0  0  0  0  0
    5.4957    1.1410   18.0180 C   0  0  0  0  0  0  0  0  0  0  0  0
    6.5949    0.4748   17.6239 N   0  0  0  0  0  0  0  0  0  0  0  0
    7.1892   -0.2978   18.5377 C   0  0  0  0  0  0  0  0  0  0  0  0
    8.0653   -0.8617   18.2104 H   0  0  0  0  0  0  0  0  0  0  0  0
    6.7591   -0.4285   19.8805 C   0  0  0  0  0  0  0  0  0  0  0  0
    7.6608   -1.0444   20.8731 C   0  0  0  0  0  0  0  0  0  0  0  0
    9.0263   -0.9177   21.0363 C   0  0  0  0  0  0  0  0  0  0  0  0
    9.6931   -0.3906   20.3704 H   0  0  0  0  0  0  0  0  0  0  0  0
    9.4975   -1.4965   22.1872 N   0  0  0  0  0  0  0  0  0  0  0  0
    8.4158   -1.9789   22.7404 C   0  0  0  0  0  0  0  0  0  0  0  0
    7.9574   -2.7982   24.2118 S   0  0  0  0  0  0  0  0  0  0  0  0
    6.2809   -2.6407   23.6977 C   0  0  0  0  0  0  0  0  0  0  0  0
    4.9512   -3.1204   24.8352 S   0  0  0  0  0  0  0  0  0  0  0  0
    3.7353   -3.3812   24.0832 O   0  0  0  0  0  0  0  0  0  0  0  0
    5.5087   -4.1205   25.7378 O   0  0  0  0  0  0  0  0  0  0  0  0
    4.6468   -1.7501   25.9720 C   0  0  0  0  0  0  0  0  0  0  0  0
    3.9032   -2.2260   26.6154 H   0  0  0  0  0  0  0  0  0  0  0  0
    5.5785   -1.7136   26.5347 H   0  0  0  0  0  0  0  0  0  0  0  0
    4.1821   -0.3891   25.4816 C   0  0  0  0  0  0  0  0  0  0  0  0
    3.2346   -0.4424   24.9421 H   0  0  0  0  0  0  0  0  0  0  0  0
    4.9223    0.1072   24.8512 H   0  0  0  0  0  0  0  0  0  0  0  0
    4.0178    0.2453   26.3566 H   0  0  0  0  0  0  0  0  0  0  0  0
    6.0933   -2.1365   22.5177 N   0  0  0  0  0  0  0  0  0  0  0  0
    7.2790   -1.7438   22.0101 N   0  0  0  0  0  0  0  0  0  0  0  0
    5.5348    0.1779   20.2292 C   0  0  0  0  0  0  0  0  0  0  0  0
    5.0952    0.0024   21.2140 H   0  0  0  0  0  0  0  0  0  0  0  0
    4.9204    1.0078   19.2884 C   0  0  0  0  0  0  0  0  0  0  0  0
    4.0254    1.5770   19.5256 H   0  0  0  0  0  0  0  0  0  0  0  0
  1  2  1  0
  2  3  2  0
  3  4  1  0
  4  5  1  0
  4  6  2  0
  6  7  1  0
  7  8  2  0
  8  9  1  0
  8 10  1  0
 10 11  2  0
 11 12  1  0
 12 13  1  0
 13 14  1  0
 14 15  2  0
 14 16  2  0
 14 17  1  0
 17 18  1  0
 17 19  1  0
 17 20  1  0
 20 21  1  0
 20 22  1  0
 20 23  1  0
 13 24  2  0
 24 25  1  0
  6 26  1  0
 26 27  1  0
 26 28  2  0
 28 29  1  0
 28  2  1  0
 25  7  1  0
 25 11  1  0
M  END
>  <cnnaffinity>  (1) 
-5.04482

>  <filename>  (1) 
CCS(=O)(=O)c1nn2c(-c3cccnc3)cnc2s1

$$$$
