
     RDKit          3D

 28 29  0  0  0  0  0  0  0  0999 V2000
    4.9786    1.8363   16.9571 H   0  0  0  0  0  0  0  0  0  0  0  0
    5.4248    1.3079   17.7997 C   0  0  0  0  0  0  0  0  0  0  0  0
    6.5778    0.6684   17.5616 N   0  0  0  0  0  0  0  0  0  0  0  0
    7.1518    0.0307   18.5940 C   0  0  0  0  0  0  0  0  0  0  0  0
    8.0938   -0.4681   18.3613 H   0  0  0  0  0  0  0  0  0  0  0  0
    6.6197   -0.0147   19.8955 C   0  0  0  0  0  0  0  0  0  0  0  0
    7.3617   -0.7014   21.0303 C   0  0  2  0  0  0  0  0  0  0  0  0
    8.2381   -1.2208   20.6275 H   0  0  0  0  0  0  0  0  0  0  0  0
    6.3766   -2.0520   21.7218 Cl  0  0  0  0  0  0  0  0  0  0  0  0
    7.7836    0.2447   22.1792 C   0  0  0  0  0  0  0  0  0  0  0  0
    8.2290   -0.3612   22.9785 H   0  0  0  0  0  0  0  0  0  0  0  0
    6.8857    0.6939   22.6165 H   0  0  0  0  0  0  0  0  0  0  0  0
    8.7744    1.3183   21.7119 C   0  0  2  0  0  0  0  0  0  0  0  0
    8.3069    1.9238   20.9230 H   0  0  0  0  0  0  0  0  0  0  0  0
   10.0448    0.6958   21.1334 C   0  0  0  0  0  0  0  0  0  0  0  0
    9.8934    0.3502   20.1099 H   0  0  0  0  0  0  0  0  0  0  0  0
   10.3805   -0.1588   21.7564 H   0  0  0  0  0  0  0  0  0  0  0  0
   11.0092    1.7199   21.1185 O   0  0  0  0  0  0  0  0  0  0  0  0
   10.7981    2.5535   22.2490 C   0  0  0  0  0  0  0  0  0  0  0  0
   10.9425    3.5884   21.9234 H   0  0  0  0  0  0  0  0  0  0  0  0
   11.5421    2.3232   23.0303 H   0  0  0  0  0  0  0  0  0  0  0  0
    9.3601    2.2847   22.7607 C   0  0  0  0  0  0  0  0  0  0  0  0
    9.4046    1.8336   23.7569 H   0  0  0  0  0  0  0  0  0  0  0  0
    8.7726    3.2068   22.8563 H   0  0  0  0  0  0  0  0  0  0  0  0
    5.4078    0.6584   20.1145 C   0  0  0  0  0  0  0  0  0  0  0  0
    4.9592    0.6689   21.1071 H   0  0  0  0  0  0  0  0  0  0  0  0
    4.7992    1.3204   19.0472 C   0  0  0  0  0  0  0  0  0  0  0  0
    3.8666    1.8653   19.1817 H   0  0  0  0  0  0  0  0  0  0  0  0
  1  2  1  0
  2  3  2  0
  3  4  1  0
  4  5  1  0
  4  6  2  0
  6  7  1  0
  7  8  1  6
  7  9  1  0
  7 10  1  0
 10 11  1  0
 10 12  1  0
 10 13  1  0
 13 14  1  6
 13 15  1  0
 15 16  1  0
 15 17  1  0
 15 18  1  0
 18 19  1  0
 19 20  1  0
 19 21  1  0
 19 22  1  0
 22 23  1  0
 22 24  1  0
  6 25  1  0
 25 26  1  0
 25 27  2  0
 27 28  1  0
 27  2  1  0
 22 13  1  0
M  END
>  <cnnaffinity>  (1) 
-4.61724

>  <filename>  (1) 
Cl[C@H](C[C@H]1CCOC1)c1cccnc1

$$$$
