
     RDKit          3D

 30 32  0  0  0  0  0  0  0  0999 V2000
    8.7582    0.1698   20.2471 H   0  0  0  0  0  0  0  0  0  0  0  0
    8.2447   -0.5951   20.8240 C   0  0  0  0  0  0  0  0  0  0  0  0
    6.9731   -0.8138   20.4463 C   0  0  0  0  0  0  0  0  0  0  0  0
    5.9405   -1.9890   21.2042 Cl  0  0  0  0  0  0  0  0  0  0  0  0
    6.3011   -0.0129   19.3961 C   0  0  0  0  0  0  0  0  0  0  0  0
    6.9185    0.1252   18.1455 C   0  0  0  0  0  0  0  0  0  0  0  0
    7.8428   -0.4166   17.9471 H   0  0  0  0  0  0  0  0  0  0  0  0
    6.4443    0.8830   17.1517 N   0  0  0  0  0  0  0  0  0  0  0  0
    5.3191    1.5743   17.3939 C   0  0  0  0  0  0  0  0  0  0  0  0
    4.9704    2.2138   16.5850 H   0  0  0  0  0  0  0  0  0  0  0  0
    4.6033    1.4880   18.5945 C   0  0  0  0  0  0  0  0  0  0  0  0
    3.7084    2.0892   18.7218 H   0  0  0  0  0  0  0  0  0  0  0  0
    5.0929    0.6705   19.6140 C   0  0  0  0  0  0  0  0  0  0  0  0
    4.5783    0.5836   20.5713 H   0  0  0  0  0  0  0  0  0  0  0  0
    9.0168   -1.1495   21.9426 C   0  0  0  0  0  0  0  0  0  0  0  0
    8.9186   -2.4791   22.3034 C   0  0  0  0  0  0  0  0  0  0  0  0
    8.3474   -3.1729   21.6937 H   0  0  0  0  0  0  0  0  0  0  0  0
    9.4834   -3.0200   23.4088 N   0  0  0  0  0  0  0  0  0  0  0  0
   10.2008   -2.2349   24.1866 C   0  0  0  0  0  0  0  0  0  0  0  0
   10.6040   -2.7065   25.0753 H   0  0  0  0  0  0  0  0  0  0  0  0
   10.4614   -0.8595   23.9220 C   0  0  0  0  0  0  0  0  0  0  0  0
   11.2606   -0.0353   24.7753 C   0  0  0  0  0  0  0  0  0  0  0  0
   11.7386   -0.4684   25.6496 H   0  0  0  0  0  0  0  0  0  0  0  0
   11.4244    1.2992   24.4942 C   0  0  0  0  0  0  0  0  0  0  0  0
   12.0177    1.9249   25.1568 H   0  0  0  0  0  0  0  0  0  0  0  0
   10.8453    1.8595   23.3256 C   0  0  0  0  0  0  0  0  0  0  0  0
   10.9252    2.9278   23.1382 H   0  0  0  0  0  0  0  0  0  0  0  0
   10.1314    1.0640   22.4543 C   0  0  0  0  0  0  0  0  0  0  0  0
    9.7115    1.4971   21.5536 H   0  0  0  0  0  0  0  0  0  0  0  0
    9.8774   -0.3064   22.7406 C   0  0  0  0  0  0  0  0  0  0  0  0
  1  2  1  0
  2  3  2  3
  3  4  1  0
  3  5  1  0
  5  6  2  0
  6  7  1  0
  6  8  1  0
  8  9  2  0
  9 10  1  0
  9 11  1  0
 11 12  1  0
 11 13  2  0
 13 14  1  0
  2 15  1  0
 15 16  2  0
 16 17  1  0
 16 18  1  0
 18 19  2  0
 19 20  1  0
 19 21  1  0
 21 22  2  0
 22 23  1  0
 22 24  1  0
 24 25  1  0
 24 26  2  0
 26 27  1  0
 26 28  1  0
 28 29  1  0
 28 30  2  0
 13  5  1  0
 30 15  1  0
 30 21  1  0
M  END
>  <cnnaffinity>  (1) 
-5.2646

>  <filename>  (1) 
ClC(=Cc1cncc2ccccc12)c1cccnc1

$$$$
