
     RDKit          3D

 39 41  0  0  0  0  0  0  0  0999 V2000
    4.9913    1.9241   16.6487 H   0  0  0  0  0  0  0  0  0  0  0  0
    5.4181    1.4453   17.5261 C   0  0  0  0  0  0  0  0  0  0  0  0
    6.5997    0.8317   17.3478 N   0  0  0  0  0  0  0  0  0  0  0  0
    7.1619    0.2408   18.4139 C   0  0  0  0  0  0  0  0  0  0  0  0
    8.1274   -0.2374   18.2388 H   0  0  0  0  0  0  0  0  0  0  0  0
    6.5775    0.1906   19.7119 C   0  0  0  0  0  0  0  0  0  0  0  0
    7.2039   -0.4667   20.8054 N   0  0  0  0  0  0  0  0  0  0  0  0
    6.4431   -1.3212   21.7206 C   0  0  0  0  0  0  0  0  0  0  0  0
    6.5391   -0.9952   22.7722 H   0  0  0  0  0  0  0  0  0  0  0  0
    5.3870   -1.2692   21.4434 H   0  0  0  0  0  0  0  0  0  0  0  0
    6.8796   -2.8051   21.6722 C   0  0  0  0  0  0  0  0  0  0  0  0
    7.0323   -3.1120   20.6258 H   0  0  0  0  0  0  0  0  0  0  0  0
    6.0842   -3.4083   22.1280 H   0  0  0  0  0  0  0  0  0  0  0  0
    8.1069   -3.1476   22.4402 N   0  0  0  0  0  0  0  0  0  0  0  0
    7.7893   -2.9086   23.7815 O   0  0  0  0  0  0  0  0  0  0  0  0
    8.2391   -3.8634   24.7068 C   0  0  0  0  0  0  0  0  0  0  0  0
    9.2747   -4.7773   24.5151 C   0  0  0  0  0  0  0  0  0  0  0  0
    9.7223   -4.8426   23.5353 H   0  0  0  0  0  0  0  0  0  0  0  0
    9.6853   -5.5875   25.5896 C   0  0  0  0  0  0  0  0  0  0  0  0
   10.5066   -6.2928   25.4602 H   0  0  0  0  0  0  0  0  0  0  0  0
    9.0189   -5.5017   26.8171 C   0  0  0  0  0  0  0  0  0  0  0  0
    9.3064   -6.0517   27.6990 H   0  0  0  0  0  0  0  0  0  0  0  0
    7.9215   -4.6440   26.9383 C   0  0  0  0  0  0  0  0  0  0  0  0
    6.9668   -4.7290   28.3871 Cl  0  0  0  0  0  0  0  0  0  0  0  0
    7.5585   -3.7733   25.9136 C   0  0  0  0  0  0  0  0  0  0  0  0
    6.7728   -3.0379   26.0373 H   0  0  0  0  0  0  0  0  0  0  0  0
    9.3088   -2.3421   22.0937 C   0  0  0  0  0  0  0  0  0  0  0  0
    9.5727   -2.5931   21.0535 H   0  0  0  0  0  0  0  0  0  0  0  0
   10.1096   -2.7096   22.7480 H   0  0  0  0  0  0  0  0  0  0  0  0
    9.1894   -0.8239   22.3228 C   0  0  0  0  0  0  0  0  0  0  0  0
   10.1957   -0.4144   22.4613 H   0  0  0  0  0  0  0  0  0  0  0  0
    8.6652   -0.6980   23.2783 H   0  0  0  0  0  0  0  0  0  0  0  0
    8.5140    0.0227   21.2328 C   0  0  0  0  0  0  0  0  0  0  0  0
    9.1660    0.0871   20.3450 H   0  0  0  0  0  0  0  0  0  0  0  0
    8.4286    1.0551   21.6241 H   0  0  0  0  0  0  0  0  0  0  0  0
    5.3355    0.8452   19.8596 C   0  0  0  0  0  0  0  0  0  0  0  0
    4.8714    0.8748   20.8456 H   0  0  0  0  0  0  0  0  0  0  0  0
    4.7536    1.4813   18.7574 C   0  0  0  0  0  0  0  0  0  0  0  0
    3.8017    1.9973   18.8428 H   0  0  0  0  0  0  0  0  0  0  0  0
  1  2  1  0
  2  3  2  0
  3  4  1  0
  4  5  1  0
  4  6  2  0
  6  7  1  0
  7  8  1  0
  8  9  1  0
  8 10  1  0
  8 11  1  0
 11 12  1  0
 11 13  1  0
 11 14  1  0
 14 15  1  0
 15 16  1  0
 16 17  2  0
 17 18  1  0
 17 19  1  0
 19 20  1  0
 19 21  2  0
 21 22  1  0
 21 23  1  0
 23 24  1  0
 23 25  2  0
 25 26  1  0
 14 27  1  0
 27 28  1  0
 27 29  1  0
 27 30  1  0
 30 31  1  0
 30 32  1  0
 30 33  1  0
 33 34  1  0
 33 35  1  0
  6 36  1  0
 36 37  1  0
 36 38  2  0
 38 39  1  0
 38  2  1  0
 33  7  1  0
 25 16  1  0
M  END
>  <cnnaffinity>  (1) 
-4.78886

>  <filename>  (1) 
Clc1cccc(ON2CCCN(c3cccnc3)CC2)c1

$$$$
