
     RDKit          3D

 25 26  0  0  0  0  0  0  0  0999 V2000
    5.6839   -1.4215   21.8572 H   0  0  0  0  0  0  0  0  0  0  0  0
    6.7629   -1.4557   21.8951 C   0  0  0  0  0  0  0  0  0  0  0  0
    7.4418   -0.8440   20.8629 C   0  0  0  0  0  0  0  0  0  0  0  0
    9.3516   -0.9112   20.7880 Br  0  0  0  0  0  0  0  0  0  0  0  0
    6.7093   -0.0854   19.8298 C   0  0  0  0  0  0  0  0  0  0  0  0
    7.2628    0.0749   18.5481 C   0  0  0  0  0  0  0  0  0  0  0  0
    8.2223   -0.3828   18.3346 H   0  0  0  0  0  0  0  0  0  0  0  0
    6.6608    0.7452   17.5482 N   0  0  0  0  0  0  0  0  0  0  0  0
    5.4699    1.3222   17.7944 C   0  0  0  0  0  0  0  0  0  0  0  0
    4.9660    1.8648   16.9986 H   0  0  0  0  0  0  0  0  0  0  0  0
    4.8602    1.2444   19.0521 C   0  0  0  0  0  0  0  0  0  0  0  0
    3.9116    1.7481   19.2083 H   0  0  0  0  0  0  0  0  0  0  0  0
    5.4781    0.5352   20.0856 C   0  0  0  0  0  0  0  0  0  0  0  0
    5.0208    0.4908   21.0740 H   0  0  0  0  0  0  0  0  0  0  0  0
    7.3445   -2.1302   23.0578 C   0  0  0  0  0  0  0  0  0  0  0  0
    6.5640   -2.1780   24.2213 C   0  0  0  0  0  0  0  0  0  0  0  0
    5.5828   -1.7180   24.2643 H   0  0  0  0  0  0  0  0  0  0  0  0
    7.0447   -2.7790   25.3793 C   0  0  0  0  0  0  0  0  0  0  0  0
    6.4389   -2.8042   26.2785 H   0  0  0  0  0  0  0  0  0  0  0  0
    8.3279   -3.3228   25.4014 C   0  0  0  0  0  0  0  0  0  0  0  0
    8.6912   -3.7493   26.3287 H   0  0  0  0  0  0  0  0  0  0  0  0
    9.1295   -3.2907   24.2527 C   0  0  0  0  0  0  0  0  0  0  0  0
   10.7406   -3.9711   24.2839 Cl  0  0  0  0  0  0  0  0  0  0  0  0
    8.6331   -2.7023   23.0799 C   0  0  0  0  0  0  0  0  0  0  0  0
    9.2681   -2.7004   22.2010 H   0  0  0  0  0  0  0  0  0  0  0  0
  1  2  1  0
  2  3  2  3
  3  4  1  0
  3  5  1  0
  5  6  2  0
  6  7  1  0
  6  8  1  0
  8  9  2  0
  9 10  1  0
  9 11  1  0
 11 12  1  0
 11 13  2  0
 13 14  1  0
  2 15  1  0
 15 16  2  0
 16 17  1  0
 16 18  1  0
 18 19  1  0
 18 20  2  0
 20 21  1  0
 20 22  1  0
 22 23  1  0
 22 24  2  0
 24 25  1  0
 13  5  1  0
 24 15  1  0
M  END
>  <cnnaffinity>  (1) 
-4.28702

>  <filename>  (1) 
Clc1cccc(C=C(Br)c2cccnc2)c1

$$$$
