
     RDKit          3D

 31 33  0  0  0  0  0  0  0  0999 V2000
    4.9347    1.7794   16.9908 H   0  0  0  0  0  0  0  0  0  0  0  0
    5.4034    1.2889   17.8404 C   0  0  0  0  0  0  0  0  0  0  0  0
    6.5656    0.6684   17.5959 N   0  0  0  0  0  0  0  0  0  0  0  0
    7.1616    0.0592   18.6238 C   0  0  0  0  0  0  0  0  0  0  0  0
    8.1072   -0.4155   18.3781 H   0  0  0  0  0  0  0  0  0  0  0  0
    6.6414    0.0148   19.9288 C   0  0  0  0  0  0  0  0  0  0  0  0
    7.3678   -0.6976   20.9894 C   0  0  0  0  0  0  0  0  0  0  0  0
    6.9502   -0.6757   22.2565 N   0  0  0  0  0  0  0  0  0  0  0  0
    7.8342   -1.4037   22.9463 N   0  0  0  0  0  0  0  0  0  0  0  0
    7.6092   -1.7043   24.3574 C   0  0  0  0  0  0  0  0  0  0  0  0
    7.1473   -0.8238   24.8098 H   0  0  0  0  0  0  0  0  0  0  0  0
    8.5923   -1.8405   24.8105 H   0  0  0  0  0  0  0  0  0  0  0  0
    6.7597   -2.9394   24.5591 C   0  0  0  0  0  0  0  0  0  0  0  0
    7.3408   -4.2070   24.6245 C   0  0  0  0  0  0  0  0  0  0  0  0
    8.4239   -4.3156   24.5861 H   0  0  0  0  0  0  0  0  0  0  0  0
    6.5342   -5.3375   24.7328 C   0  0  0  0  0  0  0  0  0  0  0  0
    7.0185   -6.2954   24.8121 H   0  0  0  0  0  0  0  0  0  0  0  0
    5.1402   -5.2402   24.7627 C   0  0  0  0  0  0  0  0  0  0  0  0
    4.5015   -6.1149   24.8583 H   0  0  0  0  0  0  0  0  0  0  0  0
    4.5697   -3.9691   24.6903 C   0  0  0  0  0  0  0  0  0  0  0  0
    2.8395   -3.7971   24.7218 Cl  0  0  0  0  0  0  0  0  0  0  0  0
    5.3698   -2.8280   24.6176 C   0  0  0  0  0  0  0  0  0  0  0  0
    4.9150   -1.8486   24.6480 H   0  0  0  0  0  0  0  0  0  0  0  0
    8.7924   -1.9285   22.1466 C   0  0  0  0  0  0  0  0  0  0  0  0
    9.5675   -2.5651   22.5570 H   0  0  0  0  0  0  0  0  0  0  0  0
    8.5367   -1.4864   20.8731 C   0  0  0  0  0  0  0  0  0  0  0  0
    9.1057   -1.6792   19.9768 H   0  0  0  0  0  0  0  0  0  0  0  0
    5.4168    0.6640   20.1684 C   0  0  0  0  0  0  0  0  0  0  0  0
    4.9916    0.6446   21.1749 H   0  0  0  0  0  0  0  0  0  0  0  0
    4.7993    1.3136   19.1014 C   0  0  0  0  0  0  0  0  0  0  0  0
    3.8705    1.8459   19.2448 H   0  0  0  0  0  0  0  0  0  0  0  0
  1  2  1  0
  2  3  2  0
  3  4  1  0
  4  5  1  0
  4  6  2  0
  6  7  1  0
  7  8  2  0
  8  9  1  0
  9 10  1  0
 10 11  1  0
 10 12  1  0
 10 13  1  0
 13 14  2  0
 14 15  1  0
 14 16  1  0
 16 17  1  0
 16 18  2  0
 18 19  1  0
 18 20  1  0
 20 21  1  0
 20 22  2  0
 22 23  1  0
  9 24  1  0
 24 25  1  0
 24 26  2  0
 26 27  1  0
  6 28  1  0
 28 29  1  0
 28 30  2  0
 30 31  1  0
 30  2  1  0
 26  7  1  0
 22 13  1  0
M  END
>  <cnnaffinity>  (1) 
-4.84479

>  <filename>  (1) 
Clc1cccc(Cn2ccc(-c3cccnc3)n2)c1

$$$$
