
     RDKit          3D

 33 35  0  0  0  0  0  0  0  0999 V2000
    5.0132    1.7709   16.9280 H   0  0  0  0  0  0  0  0  0  0  0  0
    5.4622    1.2977   17.7975 C   0  0  0  0  0  0  0  0  0  0  0  0
    6.6240    0.6593   17.5829 N   0  0  0  0  0  0  0  0  0  0  0  0
    7.1970    0.0715   18.6404 C   0  0  0  0  0  0  0  0  0  0  0  0
    8.1206   -0.4735   18.4343 H   0  0  0  0  0  0  0  0  0  0  0  0
    6.6769    0.0874   19.9422 C   0  0  0  0  0  0  0  0  0  0  0  0
    7.3913   -0.6188   21.0784 C   0  0  0  0  0  0  0  0  0  0  0  0
    6.7440   -1.4139   21.4646 H   0  0  0  0  0  0  0  0  0  0  0  0
    8.2969   -1.1152   20.7133 H   0  0  0  0  0  0  0  0  0  0  0  0
    7.7349    0.2349   22.2129 N   0  0  0  0  0  0  0  0  0  0  0  0
    6.9783    0.4273   23.3364 C   0  0  0  0  0  0  0  0  0  0  0  0
    6.1463   -0.2173   23.6019 H   0  0  0  0  0  0  0  0  0  0  0  0
    7.4328    1.4156   24.0495 N   0  0  0  0  0  0  0  0  0  0  0  0
    8.5415    1.8995   23.4016 N   0  0  0  0  0  0  0  0  0  0  0  0
    8.7277    1.1806   22.3250 C   0  0  0  0  0  0  0  0  0  0  0  0
    9.9073    1.3264   21.4080 C   0  0  0  0  0  0  0  0  0  0  0  0
   10.2085    2.3777   21.4491 H   0  0  0  0  0  0  0  0  0  0  0  0
    9.5668    1.1254   20.3863 H   0  0  0  0  0  0  0  0  0  0  0  0
   11.1115    0.4491   21.7489 C   0  0  0  0  0  0  0  0  0  0  0  0
   11.2658   -0.8006   21.1399 C   0  0  0  0  0  0  0  0  0  0  0  0
   10.4659   -1.1617   20.5034 H   0  0  0  0  0  0  0  0  0  0  0  0
   12.4268   -1.5562   21.2967 C   0  0  0  0  0  0  0  0  0  0  0  0
   12.5819   -2.4451   20.7049 H   0  0  0  0  0  0  0  0  0  0  0  0
   13.4311   -1.1237   22.1605 C   0  0  0  0  0  0  0  0  0  0  0  0
   14.3372   -1.7132   22.2742 H   0  0  0  0  0  0  0  0  0  0  0  0
   13.2673    0.0663   22.8684 C   0  0  0  0  0  0  0  0  0  0  0  0
   14.0080    0.4023   23.5884 H   0  0  0  0  0  0  0  0  0  0  0  0
   12.1296    0.8488   22.6375 C   0  0  0  0  0  0  0  0  0  0  0  0
   11.9881    2.3411   23.5161 Cl  0  0  0  0  0  0  0  0  0  0  0  0
    5.4409    0.7243   20.1316 C   0  0  0  0  0  0  0  0  0  0  0  0
    4.9702    0.7225   21.1179 H   0  0  0  0  0  0  0  0  0  0  0  0
    4.8284    1.3446   19.0430 C   0  0  0  0  0  0  0  0  0  0  0  0
    3.8769    1.8576   19.1454 H   0  0  0  0  0  0  0  0  0  0  0  0
  1  2  1  0
  2  3  2  0
  3  4  1  0
  4  5  1  0
  4  6  2  0
  6  7  1  0
  7  8  1  0
  7  9  1  0
  7 10  1  0
 10 11  1  0
 11 12  1  0
 11 13  2  0
 13 14  1  0
 14 15  2  0
 15 16  1  0
 16 17  1  0
 16 18  1  0
 16 19  1  0
 19 20  2  0
 20 21  1  0
 20 22  1  0
 22 23  1  0
 22 24  2  0
 24 25  1  0
 24 26  1  0
 26 27  1  0
 26 28  2  0
 28 29  1  0
  6 30  1  0
 30 31  1  0
 30 32  2  0
 32 33  1  0
 32  2  1  0
 15 10  1  0
 28 19  1  0
M  END
>  <cnnaffinity>  (1) 
-5.79325

>  <filename>  (1) 
Clc1ccccc1Cc1nncn1Cc1cccnc1

$$$$
