
     RDKit          3D

 35 38  0  0  0  0  0  0  0  0999 V2000
    5.0153    1.8566   16.8758 H   0  0  0  0  0  0  0  0  0  0  0  0
    5.4358    1.2946   17.7104 C   0  0  0  0  0  0  0  0  0  0  0  0
    6.5761    0.6273   17.4765 N   0  0  0  0  0  0  0  0  0  0  0  0
    7.1450   -0.0196   18.5009 C   0  0  0  0  0  0  0  0  0  0  0  0
    8.0675   -0.5479   18.2714 H   0  0  0  0  0  0  0  0  0  0  0  0
    6.6188   -0.0339   19.8051 C   0  0  0  0  0  0  0  0  0  0  0  0
    7.3779   -0.6437   20.9143 C   0  0  0  0  0  0  0  0  0  0  0  0
    8.5696   -1.2261   20.6981 N   0  0  0  0  0  0  0  0  0  0  0  0
    8.9474   -1.5990   21.9369 N   0  0  0  0  0  0  0  0  0  0  0  0
   10.0524   -2.2292   22.4866 C   0  0  0  0  0  0  0  0  0  0  0  0
   10.8517   -2.5893   21.8617 H   0  0  0  0  0  0  0  0  0  0  0  0
    9.8359   -2.2425   23.8245 C   0  0  0  0  0  0  0  0  0  0  0  0
   10.4571   -2.6346   24.6158 H   0  0  0  0  0  0  0  0  0  0  0  0
    8.6072   -1.6493   24.1138 N   0  0  0  0  0  0  0  0  0  0  0  0
    8.2240   -0.9965   25.3696 C   0  0  0  0  0  0  0  0  0  0  0  0
    8.7153   -1.5253   26.1940 H   0  0  0  0  0  0  0  0  0  0  0  0
    7.1444   -1.1196   25.5005 H   0  0  0  0  0  0  0  0  0  0  0  0
    8.6267    0.4718   25.3474 C   0  0  0  0  0  0  0  0  0  0  0  0
    7.7065    1.5122   25.1506 C   0  0  0  0  0  0  0  0  0  0  0  0
    6.6395    1.2868   25.1074 H   0  0  0  0  0  0  0  0  0  0  0  0
    8.1397    2.8307   24.9472 C   0  0  0  0  0  0  0  0  0  0  0  0
    7.4277    3.6385   24.8116 H   0  0  0  0  0  0  0  0  0  0  0  0
    9.5113    3.0977   24.9140 C   0  0  0  0  0  0  0  0  0  0  0  0
   10.1013    4.7168   24.6495 Cl  0  0  0  0  0  0  0  0  0  0  0  0
   10.4442    2.0742   25.0945 C   0  0  0  0  0  0  0  0  0  0  0  0
   11.5025    2.2976   25.0125 H   0  0  0  0  0  0  0  0  0  0  0  0
    9.9968    0.7780   25.3321 C   0  0  0  0  0  0  0  0  0  0  0  0
   10.7216   -0.0219   25.4858 H   0  0  0  0  0  0  0  0  0  0  0  0
    8.0697   -1.2597   22.9038 C   0  0  0  0  0  0  0  0  0  0  0  0
    7.0009   -0.6442   22.2769 C   0  0  0  0  0  0  0  0  0  0  0  0
    6.0840   -0.2708   22.6965 H   0  0  0  0  0  0  0  0  0  0  0  0
    5.3961    0.6241   20.0148 C   0  0  0  0  0  0  0  0  0  0  0  0
    4.9207    0.6185   20.9956 H   0  0  0  0  0  0  0  0  0  0  0  0
    4.8002    1.3034   18.9550 C   0  0  0  0  0  0  0  0  0  0  0  0
    3.8795    1.8607   19.0899 H   0  0  0  0  0  0  0  0  0  0  0  0
  1  2  1  0
  2  3  2  0
  3  4  1  0
  4  5  1  0
  4  6  2  0
  6  7  1  0
  7  8  2  0
  8  9  1  0
  9 10  1  0
 10 11  1  0
 10 12  2  0
 12 13  1  0
 12 14  1  0
 14 15  1  0
 15 16  1  0
 15 17  1  0
 15 18  1  0
 18 19  2  0
 19 20  1  0
 19 21  1  0
 21 22  1  0
 21 23  2  0
 23 24  1  0
 23 25  1  0
 25 26  1  0
 25 27  2  0
 27 28  1  0
 14 29  1  0
 29 30  2  0
 30 31  1  0
  6 32  1  0
 32 33  1  0
 32 34  2  0
 34 35  1  0
 34  2  1  0
 30  7  1  0
 29  9  1  0
 27 18  1  0
M  END
>  <cnnaffinity>  (1) 
-5.68217

>  <filename>  (1) 
Clc1ccc(Cn2ccn3nc(-c4cccnc4)cc23)cc1

$$$$
