
     RDKit          3D

 25 26  0  0  0  0  0  0  0  0999 V2000
    5.6807   -1.4041   21.8798 H   0  0  0  0  0  0  0  0  0  0  0  0
    6.7581   -1.4590   21.9088 C   0  0  0  0  0  0  0  0  0  0  0  0
    7.4360   -0.8605   20.8653 C   0  0  0  0  0  0  0  0  0  0  0  0
    9.3440   -0.9458   20.7658 Br  0  0  0  0  0  0  0  0  0  0  0  0
    6.7085   -0.0932   19.8321 C   0  0  0  0  0  0  0  0  0  0  0  0
    7.2680    0.0723   18.5524 C   0  0  0  0  0  0  0  0  0  0  0  0
    8.2270   -0.3849   18.3381 H   0  0  0  0  0  0  0  0  0  0  0  0
    6.6691    0.7462   17.5519 N   0  0  0  0  0  0  0  0  0  0  0  0
    5.4781    1.3218   17.7953 C   0  0  0  0  0  0  0  0  0  0  0  0
    4.9767    1.8665   16.9982 H   0  0  0  0  0  0  0  0  0  0  0  0
    4.8647    1.2408   19.0503 C   0  0  0  0  0  0  0  0  0  0  0  0
    3.9171    1.7434   19.2066 H   0  0  0  0  0  0  0  0  0  0  0  0
    5.4780    0.5274   20.0844 C   0  0  0  0  0  0  0  0  0  0  0  0
    5.0166    0.4764   21.0700 H   0  0  0  0  0  0  0  0  0  0  0  0
    7.3419   -2.1342   23.0721 C   0  0  0  0  0  0  0  0  0  0  0  0
    6.5666   -2.1773   24.2395 C   0  0  0  0  0  0  0  0  0  0  0  0
    5.5766   -1.7364   24.2878 H   0  0  0  0  0  0  0  0  0  0  0  0
    7.0664   -2.7349   25.4078 C   0  0  0  0  0  0  0  0  0  0  0  0
    6.1064   -2.6959   26.8605 Cl  0  0  0  0  0  0  0  0  0  0  0  0
    8.3474   -3.2876   25.4196 C   0  0  0  0  0  0  0  0  0  0  0  0
    8.7143   -3.7106   26.3475 H   0  0  0  0  0  0  0  0  0  0  0  0
    9.1422   -3.2718   24.2642 C   0  0  0  0  0  0  0  0  0  0  0  0
   10.7525   -3.9529   24.2814 Cl  0  0  0  0  0  0  0  0  0  0  0  0
    8.6365   -2.6887   23.0938 C   0  0  0  0  0  0  0  0  0  0  0  0
    9.2674   -2.6706   22.2107 H   0  0  0  0  0  0  0  0  0  0  0  0
  1  2  1  0
  2  3  2  3
  3  4  1  0
  3  5  1  0
  5  6  2  0
  6  7  1  0
  6  8  1  0
  8  9  2  0
  9 10  1  0
  9 11  1  0
 11 12  1  0
 11 13  2  0
 13 14  1  0
  2 15  1  0
 15 16  2  0
 16 17  1  0
 16 18  1  0
 18 19  1  0
 18 20  2  0
 20 21  1  0
 20 22  1  0
 22 23  1  0
 22 24  2  0
 24 25  1  0
 13  5  1  0
 24 15  1  0
M  END
>  <cnnaffinity>  (1) 
-4.68563

>  <filename>  (1) 
Clc1cc(Cl)cc(C=C(Br)c2cccnc2)c1

$$$$
