
     RDKit          3D

 34 37  0  0  0  0  0  0  0  0999 V2000
    5.0957    1.8199   16.8876 H   0  0  0  0  0  0  0  0  0  0  0  0
    5.4850    1.2919   17.7545 C   0  0  0  0  0  0  0  0  0  0  0  0
    6.6150    0.5925   17.5645 N   0  0  0  0  0  0  0  0  0  0  0  0
    7.1190   -0.0647   18.6136 C   0  0  0  0  0  0  0  0  0  0  0  0
    8.0123   -0.6605   18.4241 H   0  0  0  0  0  0  0  0  0  0  0  0
    6.5669   -0.0139   19.9056 C   0  0  0  0  0  0  0  0  0  0  0  0
    7.2471   -0.6915   21.0040 C   0  0  0  0  0  0  0  0  0  0  0  0
    7.8415   -1.9178   20.8081 N   0  0  0  0  0  0  0  0  0  0  0  0
    8.2967   -2.2357   21.9877 C   0  0  0  0  0  0  0  0  0  0  0  0
    9.0644   -3.6200   22.7146 S   0  0  0  0  0  0  0  0  0  0  0  0
    9.2336   -2.7470   24.2234 C   0  0  0  0  0  0  0  0  0  0  0  0
    9.7055   -3.2176   25.0717 H   0  0  0  0  0  0  0  0  0  0  0  0
    8.7133   -1.5117   24.1575 C   0  0  0  0  0  0  0  0  0  0  0  0
    8.7560   -0.7308   24.9014 H   0  0  0  0  0  0  0  0  0  0  0  0
    8.1242   -1.2539   22.9249 N   0  0  0  0  0  0  0  0  0  0  0  0
    7.4063   -0.2462   22.3141 C   0  0  0  0  0  0  0  0  0  0  0  0
    7.0941    1.0251   23.0426 C   0  0  0  0  0  0  0  0  0  0  0  0
    6.4100    0.7966   23.8700 H   0  0  0  0  0  0  0  0  0  0  0  0
    6.5706    1.7145   22.3706 H   0  0  0  0  0  0  0  0  0  0  0  0
    8.3610    1.6947   23.5722 C   0  0  0  0  0  0  0  0  0  0  0  0
    8.6523    1.7711   24.9423 C   0  0  0  0  0  0  0  0  0  0  0  0
    7.9048    1.4501   25.6630 H   0  0  0  0  0  0  0  0  0  0  0  0
    9.8950    2.2096   25.4029 C   0  0  0  0  0  0  0  0  0  0  0  0
   10.1115    2.1301   26.4580 H   0  0  0  0  0  0  0  0  0  0  0  0
   10.8432    2.6931   24.4946 C   0  0  0  0  0  0  0  0  0  0  0  0
   11.7957    3.0863   24.8317 H   0  0  0  0  0  0  0  0  0  0  0  0
   10.5603    2.6862   23.1302 C   0  0  0  0  0  0  0  0  0  0  0  0
   11.2601    3.0750   22.3977 H   0  0  0  0  0  0  0  0  0  0  0  0
    9.3498    2.1504   22.6872 C   0  0  0  0  0  0  0  0  0  0  0  0
    9.1037    2.0148   20.9781 Cl  0  0  0  0  0  0  0  0  0  0  0  0
    5.3634    0.6914   20.0759 C   0  0  0  0  0  0  0  0  0  0  0  0
    4.8658    0.7061   21.0472 H   0  0  0  0  0  0  0  0  0  0  0  0
    4.8112    1.3448   18.9780 C   0  0  0  0  0  0  0  0  0  0  0  0
    3.8795    1.8893   19.0599 H   0  0  0  0  0  0  0  0  0  0  0  0
  1  2  1  0
  2  3  2  0
  3  4  1  0
  4  5  1  0
  4  6  2  0
  6  7  1  0
  7  8  1  0
  8  9  2  0
  9 10  1  0
 10 11  1  0
 11 12  1  0
 11 13  2  0
 13 14  1  0
 13 15  1  0
 15 16  1  0
 16 17  1  0
 17 18  1  0
 17 19  1  0
 17 20  1  0
 20 21  2  0
 21 22  1  0
 21 23  1  0
 23 24  1  0
 23 25  2  0
 25 26  1  0
 25 27  1  0
 27 28  1  0
 27 29  2  0
 29 30  1  0
  6 31  1  0
 31 32  1  0
 31 33  2  0
 33 34  1  0
 33  2  1  0
 16  7  2  0
 29 20  1  0
 15  9  1  0
M  END
>  <cnnaffinity>  (1) 
-6.18467

>  <filename>  (1) 
Clc1ccccc1Cc1c(-c2cccnc2)nc2sccn12

$$$$
