
     RDKit          3D

 30 32  0  0  0  0  0  0  0  0999 V2000
    8.7468   -3.2127   22.0852 H   0  0  0  0  0  0  0  0  0  0  0  0
    8.3239   -2.2346   21.9065 C   0  0  0  0  0  0  0  0  0  0  0  0
    8.2522   -1.2660   22.8584 N   0  0  0  0  0  0  0  0  0  0  0  0
    7.6589   -0.2756   22.2272 C   0  0  0  0  0  0  0  0  0  0  0  0
    7.3832    1.0605   22.8537 C   0  0  0  0  0  0  0  0  0  0  0  0
    6.5892    0.9366   23.5975 H   0  0  0  0  0  0  0  0  0  0  0  0
    7.0280    1.7592   22.0941 H   0  0  0  0  0  0  0  0  0  0  0  0
    8.6262    1.6521   23.4915 C   0  0  0  0  0  0  0  0  0  0  0  0
    8.8875    1.5543   24.8625 C   0  0  0  0  0  0  0  0  0  0  0  0
    8.1441    1.1396   25.5363 H   0  0  0  0  0  0  0  0  0  0  0  0
   10.1073    1.9842   25.3883 C   0  0  0  0  0  0  0  0  0  0  0  0
   10.3081    1.8672   26.4389 H   0  0  0  0  0  0  0  0  0  0  0  0
   11.0746    2.5427   24.5532 C   0  0  0  0  0  0  0  0  0  0  0  0
   12.0201    2.8693   24.9578 H   0  0  0  0  0  0  0  0  0  0  0  0
   10.8422    2.6648   23.1915 C   0  0  0  0  0  0  0  0  0  0  0  0
   11.6016    3.0704   22.5300 H   0  0  0  0  0  0  0  0  0  0  0  0
    9.6218    2.2228   22.6821 C   0  0  0  0  0  0  0  0  0  0  0  0
    9.3508    2.3808   20.9874 Cl  0  0  0  0  0  0  0  0  0  0  0  0
    7.3650   -0.6583   20.9389 N   0  0  0  0  0  0  0  0  0  0  0  0
    6.6549    0.0128   19.9006 C   0  0  0  0  0  0  0  0  0  0  0  0
    7.1633   -0.0015   18.5887 C   0  0  0  0  0  0  0  0  0  0  0  0
    8.0875   -0.5365   18.3741 H   0  0  0  0  0  0  0  0  0  0  0  0
    6.5747    0.6309   17.5688 N   0  0  0  0  0  0  0  0  0  0  0  0
    5.4263    1.2901   17.8124 C   0  0  0  0  0  0  0  0  0  0  0  0
    4.9924    1.8333   16.9742 H   0  0  0  0  0  0  0  0  0  0  0  0
    4.8091    1.3018   19.0654 C   0  0  0  0  0  0  0  0  0  0  0  0
    3.8767    1.8381   19.2041 H   0  0  0  0  0  0  0  0  0  0  0  0
    5.4334    0.6562   20.1384 C   0  0  0  0  0  0  0  0  0  0  0  0
    4.9839    0.6363   21.1318 H   0  0  0  0  0  0  0  0  0  0  0  0
    7.8238   -1.9154   20.7340 N   0  0  0  0  0  0  0  0  0  0  0  0
  1  2  1  0
  2  3  1  0
  3  4  2  0
  4  5  1  0
  5  6  1  0
  5  7  1  0
  5  8  1  0
  8  9  2  0
  9 10  1  0
  9 11  1  0
 11 12  1  0
 11 13  2  0
 13 14  1  0
 13 15  1  0
 15 16  1  0
 15 17  2  0
 17 18  1  0
  4 19  1  0
 19 20  1  0
 20 21  2  0
 21 22  1  0
 21 23  1  0
 23 24  2  0
 24 25  1  0
 24 26  1  0
 26 27  1  0
 26 28  2  0
 28 29  1  0
 19 30  1  0
 30  2  2  0
 17  8  1  0
 28 20  1  0
M  END
>  <cnnaffinity>  (1) 
-4.92423

>  <filename>  (1) 
Clc1ccccc1Cc1ncnn1-c1cccnc1

$$$$
