
     RDKit          3D

 36 39  0  0  0  0  0  0  0  0999 V2000
    7.5952   -6.6551   22.9155 Cl  0  0  0  0  0  0  0  0  0  0  0  0
    6.6467   -5.8813   24.1589 C   0  0  0  0  0  0  0  0  0  0  0  0
    7.0714   -6.0390   25.4819 C   0  0  0  0  0  0  0  0  0  0  0  0
    6.4067   -5.3669   26.5049 C   0  0  0  0  0  0  0  0  0  0  0  0
    5.3521   -4.5009   26.2099 C   0  0  0  0  0  0  0  0  0  0  0  0
    4.9237   -4.3674   24.8868 C   0  0  0  0  0  0  0  0  0  0  0  0
    5.5184   -5.1026   23.8523 C   0  0  0  0  0  0  0  0  0  0  0  0
    5.0368   -4.8930   22.4282 C   0  0  0  0  0  0  0  0  0  0  0  0
    5.9021   -3.8440   21.8091 C   0  0  0  0  0  0  0  0  0  0  0  0
    5.7462   -2.5610   21.7391 N   0  0  0  0  0  0  0  0  0  0  0  0
    6.9785   -2.1543   21.2676 C   0  0  0  0  0  0  0  0  0  0  0  0
    7.3565   -0.7166   21.0408 C   0  0  0  0  0  0  0  0  0  0  0  0
    6.6471    0.0070   19.9186 C   0  0  0  0  0  0  0  0  0  0  0  0
    5.4206    0.6398   20.1491 C   0  0  0  0  0  0  0  0  0  0  0  0
    4.7984    1.2972   19.0881 C   0  0  0  0  0  0  0  0  0  0  0  0
    5.4157    1.2882   17.8337 C   0  0  0  0  0  0  0  0  0  0  0  0
    6.5747    0.6615   17.5773 N   0  0  0  0  0  0  0  0  0  0  0  0
    7.1689    0.0480   18.6095 C   0  0  0  0  0  0  0  0  0  0  0  0
    8.1126   -0.4568   18.3905 H   0  0  0  0  0  0  0  0  0  0  0  0
    4.9606    1.8022   16.9921 H   0  0  0  0  0  0  0  0  0  0  0  0
    3.8652    1.8293   19.2239 H   0  0  0  0  0  0  0  0  0  0  0  0
    4.9816    0.6182   21.1504 H   0  0  0  0  0  0  0  0  0  0  0  0
    7.7375    0.0815   22.2837 C   0  0  0  0  0  0  0  0  0  0  0  0
    8.7909   -0.3333   21.3021 C   0  0  0  0  0  0  0  0  0  0  0  0
    9.4655   -1.1364   21.5902 H   0  0  0  0  0  0  0  0  0  0  0  0
    9.2128    0.4406   20.6626 H   0  0  0  0  0  0  0  0  0  0  0  0
    7.6887   -0.4203   23.2488 H   0  0  0  0  0  0  0  0  0  0  0  0
    7.4634    1.1347   22.3193 H   0  0  0  0  0  0  0  0  0  0  0  0
    7.8072   -3.1371   21.0358 N   0  0  0  0  0  0  0  0  0  0  0  0
    7.0914   -4.2586   21.3698 O   0  0  0  0  0  0  0  0  0  0  0  0
    3.9955   -4.5677   22.4076 H   0  0  0  0  0  0  0  0  0  0  0  0
    5.1214   -5.8093   21.8404 H   0  0  0  0  0  0  0  0  0  0  0  0
    4.1259   -3.6695   24.6447 H   0  0  0  0  0  0  0  0  0  0  0  0
    4.8758   -3.9303   26.9997 H   0  0  0  0  0  0  0  0  0  0  0  0
    6.7323   -5.5112   27.5294 H   0  0  0  0  0  0  0  0  0  0  0  0
    7.9129   -6.6902   25.6906 H   0  0  0  0  0  0  0  0  0  0  0  0
  1  2  1  0
  2  3  2  0
  3  4  1  0
  4  5  2  0
  5  6  1  0
  6  7  2  0
  7  8  1  0
  8  9  1  0
  9 10  2  0
 10 11  1  0
 11 12  1  0
 12 13  1  0
 13 14  2  0
 14 15  1  0
 15 16  2  0
 16 17  1  0
 17 18  2  0
 18 19  1  0
 16 20  1  0
 15 21  1  0
 14 22  1  0
 12 23  1  0
 23 24  1  0
 24 25  1  0
 24 26  1  0
 23 27  1  0
 23 28  1  0
 11 29  2  0
 29 30  1  0
  8 31  1  0
  8 32  1  0
  6 33  1  0
  5 34  1  0
  4 35  1  0
  3 36  1  0
  7  2  1  0
 30  9  1  0
 24 12  1  0
 18 13  1  0
M  END
>  <cnnaffinity>  (1) 
-5.59079

>  <filename>  (1) 
Clc1ccccc1Cc1nc(C2(c3cccnc3)CC2)no1

$$$$
