
     RDKit          3D

 41 43  0  0  0  0  0  0  0  0999 V2000
    4.9263    1.8302   16.9275 H   0  0  0  0  0  0  0  0  0  0  0  0
    5.3918    1.3161   17.7664 C   0  0  0  0  0  0  0  0  0  0  0  0
    6.5600    0.7003   17.5215 N   0  0  0  0  0  0  0  0  0  0  0  0
    7.1675    0.0974   18.5560 C   0  0  0  0  0  0  0  0  0  0  0  0
    8.1176   -0.3838   18.3269 H   0  0  0  0  0  0  0  0  0  0  0  0
    6.6590    0.0475   19.8831 C   0  0  0  0  0  0  0  0  0  0  0  0
    7.3399   -0.5484   20.9691 N   0  0  0  0  0  0  0  0  0  0  0  0
    8.7600   -0.3217   21.1907 C   0  0  0  0  0  0  0  0  0  0  0  0
    8.9298   -0.0903   22.2499 H   0  0  0  0  0  0  0  0  0  0  0  0
    9.0576    0.5732   20.6336 H   0  0  0  0  0  0  0  0  0  0  0  0
    9.6885   -1.4816   20.7605 C   0  0  0  0  0  0  0  0  0  0  0  0
    9.3617   -1.8018   19.7613 H   0  0  0  0  0  0  0  0  0  0  0  0
   10.6957   -1.0558   20.6435 H   0  0  0  0  0  0  0  0  0  0  0  0
    9.8051   -2.6579   21.6227 N   0  0  0  0  0  0  0  0  0  0  0  0
   10.8449   -2.5753   22.6501 C   0  0  0  0  0  0  0  0  0  0  0  0
   10.9705   -3.5667   23.1042 H   0  0  0  0  0  0  0  0  0  0  0  0
   11.7974   -2.3459   22.1525 H   0  0  0  0  0  0  0  0  0  0  0  0
   10.5982   -1.5709   23.7626 C   0  0  0  0  0  0  0  0  0  0  0  0
   11.1248   -0.2687   23.7094 C   0  0  0  0  0  0  0  0  0  0  0  0
   11.6652    0.0602   22.8255 H   0  0  0  0  0  0  0  0  0  0  0  0
   10.9077    0.6322   24.7556 C   0  0  0  0  0  0  0  0  0  0  0  0
   11.3279    1.6327   24.7022 H   0  0  0  0  0  0  0  0  0  0  0  0
   10.1329    0.2605   25.8569 C   0  0  0  0  0  0  0  0  0  0  0  0
    9.9172    0.9607   26.6534 H   0  0  0  0  0  0  0  0  0  0  0  0
    9.6128   -1.0336   25.9105 C   0  0  0  0  0  0  0  0  0  0  0  0
    8.6527   -1.5215   27.2772 Cl  0  0  0  0  0  0  0  0  0  0  0  0
    9.8484   -1.9523   24.8860 C   0  0  0  0  0  0  0  0  0  0  0  0
    9.4253   -2.9530   24.9567 H   0  0  0  0  0  0  0  0  0  0  0  0
    8.5716   -3.3471   21.9948 C   0  0  0  0  0  0  0  0  0  0  0  0
    8.1606   -3.8555   21.1078 H   0  0  0  0  0  0  0  0  0  0  0  0
    8.8323   -4.1587   22.6926 H   0  0  0  0  0  0  0  0  0  0  0  0
    7.4678   -2.4933   22.6316 C   0  0  0  0  0  0  0  0  0  0  0  0
    6.7642   -3.1696   23.1340 H   0  0  0  0  0  0  0  0  0  0  0  0
    7.8834   -1.8599   23.4174 H   0  0  0  0  0  0  0  0  0  0  0  0
    6.6500   -1.6252   21.6719 C   0  0  0  0  0  0  0  0  0  0  0  0
    5.8554   -1.1810   22.2693 H   0  0  0  0  0  0  0  0  0  0  0  0
    6.1520   -2.2775   20.9361 H   0  0  0  0  0  0  0  0  0  0  0  0
    5.4045    0.6476   20.0875 C   0  0  0  0  0  0  0  0  0  0  0  0
    4.9660    0.6248   21.0891 H   0  0  0  0  0  0  0  0  0  0  0  0
    4.7786    1.3061   19.0261 C   0  0  0  0  0  0  0  0  0  0  0  0
    3.8339    1.8146   19.1660 H   0  0  0  0  0  0  0  0  0  0  0  0
  1  2  1  0
  2  3  2  0
  3  4  1  0
  4  5  1  0
  4  6  2  0
  6  7  1  0
  7  8  1  0
  8  9  1  0
  8 10  1  0
  8 11  1  0
 11 12  1  0
 11 13  1  0
 11 14  1  0
 14 15  1  0
 15 16  1  0
 15 17  1  0
 15 18  1  0
 18 19  2  0
 19 20  1  0
 19 21  1  0
 21 22  1  0
 21 23  2  0
 23 24  1  0
 23 25  1  0
 25 26  1  0
 25 27  2  0
 27 28  1  0
 14 29  1  0
 29 30  1  0
 29 31  1  0
 29 32  1  0
 32 33  1  0
 32 34  1  0
 32 35  1  0
 35 36  1  0
 35 37  1  0
  6 38  1  0
 38 39  1  0
 38 40  2  0
 40 41  1  0
 40  2  1  0
 35  7  1  0
 27 18  1  0
M  END
>  <cnnaffinity>  (1) 
-5.36077

>  <filename>  (1) 
Clc1cccc(CN2CCCN(c3cccnc3)CC2)c1

$$$$
