
     RDKit          3D

 30 32  0  0  0  0  0  0  0  0999 V2000
    4.9792    1.8298   16.7391 H   0  0  0  0  0  0  0  0  0  0  0  0
    5.3939    1.3484   17.6209 C   0  0  0  0  0  0  0  0  0  0  0  0
    6.5607    0.7089   17.4476 N   0  0  0  0  0  0  0  0  0  0  0  0
    7.1162    0.1425   18.5286 C   0  0  0  0  0  0  0  0  0  0  0  0
    8.0671   -0.3584   18.3573 H   0  0  0  0  0  0  0  0  0  0  0  0
    6.5617    0.1744   19.8267 C   0  0  0  0  0  0  0  0  0  0  0  0
    7.2842   -0.3993   20.9931 C   0  0  0  0  0  0  0  0  0  0  0  0
    6.7441   -0.0682   22.6206 S   0  0  0  0  0  0  0  0  0  0  0  0
    8.0010   -1.0081   23.3088 C   0  0  0  0  0  0  0  0  0  0  0  0
    8.1495   -1.1215   24.3748 H   0  0  0  0  0  0  0  0  0  0  0  0
    8.7879   -1.5640   22.3502 C   0  0  0  0  0  0  0  0  0  0  0  0
    9.8610   -2.3959   22.6647 N   0  0  0  0  0  0  0  0  0  0  0  0
   10.5058   -2.5514   21.9084 H   0  0  0  0  0  0  0  0  0  0  0  0
    9.7600   -3.4874   23.5479 C   0  0  0  0  0  0  0  0  0  0  0  0
    8.5425   -4.1218   23.8135 C   0  0  0  0  0  0  0  0  0  0  0  0
    7.6356   -3.6823   23.4148 H   0  0  0  0  0  0  0  0  0  0  0  0
    8.5022   -5.2887   24.5745 C   0  0  0  0  0  0  0  0  0  0  0  0
    7.5648   -5.8056   24.7495 H   0  0  0  0  0  0  0  0  0  0  0  0
    9.6884   -5.8054   25.0944 C   0  0  0  0  0  0  0  0  0  0  0  0
    9.6529   -7.3102   25.9457 Cl  0  0  0  0  0  0  0  0  0  0  0  0
   10.9095   -5.1566   24.8947 C   0  0  0  0  0  0  0  0  0  0  0  0
   11.8191   -5.5863   25.3003 H   0  0  0  0  0  0  0  0  0  0  0  0
   10.9347   -4.0017   24.1069 C   0  0  0  0  0  0  0  0  0  0  0  0
   11.8658   -3.5209   23.8456 H   0  0  0  0  0  0  0  0  0  0  0  0
    8.4075   -1.1840   21.0236 C   0  0  0  0  0  0  0  0  0  0  0  0
    8.9889   -1.4604   20.1493 H   0  0  0  0  0  0  0  0  0  0  0  0
    5.3106    0.8138   19.9665 C   0  0  0  0  0  0  0  0  0  0  0  0
    4.8114    0.8498   20.9366 H   0  0  0  0  0  0  0  0  0  0  0  0
    4.7279    1.4124   18.8504 C   0  0  0  0  0  0  0  0  0  0  0  0
    3.7862    1.9436   18.9287 H   0  0  0  0  0  0  0  0  0  0  0  0
  1  2  1  0
  2  3  2  0
  3  4  1  0
  4  5  1  0
  4  6  2  0
  6  7  1  0
  7  8  1  0
  8  9  1  0
  9 10  1  0
  9 11  2  0
 11 12  1  0
 12 13  1  0
 12 14  1  0
 14 15  2  0
 15 16  1  0
 15 17  1  0
 17 18  1  0
 17 19  2  0
 19 20  1  0
 19 21  1  0
 21 22  1  0
 21 23  2  0
 23 24  1  0
 11 25  1  0
 25 26  1  0
  6 27  1  0
 27 28  1  0
 27 29  2  0
 29 30  1  0
 29  2  1  0
 25  7  2  0
 23 14  1  0
M  END
>  <cnnaffinity>  (1) 
-5.43798

>  <filename>  (1) 
Clc1ccc(Nc2csc(-c3cccnc3)c2)cc1

$$$$
