
     RDKit          3D

 29 31  0  0  0  0  0  0  0  0999 V2000
    5.0378    1.8335   16.9498 H   0  0  0  0  0  0  0  0  0  0  0  0
    5.4666    1.3182   17.8095 C   0  0  0  0  0  0  0  0  0  0  0  0
    6.6233    0.6719   17.5979 N   0  0  0  0  0  0  0  0  0  0  0  0
    7.1650    0.0291   18.6345 C   0  0  0  0  0  0  0  0  0  0  0  0
    8.0870   -0.5194   18.4449 H   0  0  0  0  0  0  0  0  0  0  0  0
    6.6146    0.0197   19.9264 C   0  0  0  0  0  0  0  0  0  0  0  0
    7.3293   -0.6863   20.9880 C   0  0  0  0  0  0  0  0  0  0  0  0
    7.8860   -1.9040   20.6973 N   0  0  0  0  0  0  0  0  0  0  0  0
    8.4643   -2.4810   21.6710 N   0  0  0  0  0  0  0  0  0  0  0  0
    8.3859   -1.5325   23.0725 S   0  0  0  0  0  0  0  0  0  0  0  0
    7.5458   -0.2678   22.2914 C   0  0  0  0  0  0  0  0  0  0  0  0
    7.2706    1.0426   22.9924 C   0  0  0  0  0  0  0  0  0  0  0  0
    6.7202    1.7048   22.3149 H   0  0  0  0  0  0  0  0  0  0  0  0
    6.6138    0.8610   23.8533 H   0  0  0  0  0  0  0  0  0  0  0  0
    8.5603    1.7274   23.4513 C   0  0  0  0  0  0  0  0  0  0  0  0
    9.0592    1.5899   24.7552 C   0  0  0  0  0  0  0  0  0  0  0  0
    8.4382    1.1081   25.5051 H   0  0  0  0  0  0  0  0  0  0  0  0
   10.3418    2.0280   25.0984 C   0  0  0  0  0  0  0  0  0  0  0  0
   10.7391    1.8157   26.0877 H   0  0  0  0  0  0  0  0  0  0  0  0
   11.1219    2.7034   24.1583 C   0  0  0  0  0  0  0  0  0  0  0  0
   12.1198    3.0411   24.4152 H   0  0  0  0  0  0  0  0  0  0  0  0
   10.6297    2.9340   22.8722 C   0  0  0  0  0  0  0  0  0  0  0  0
   11.1909    3.4853   22.1211 H   0  0  0  0  0  0  0  0  0  0  0  0
    9.3746    2.4131   22.5341 C   0  0  0  0  0  0  0  0  0  0  0  0
    8.8253    2.5904   20.9001 Cl  0  0  0  0  0  0  0  0  0  0  0  0
    5.3961    0.6764   20.1269 C   0  0  0  0  0  0  0  0  0  0  0  0
    4.9148    0.6631   21.1076 H   0  0  0  0  0  0  0  0  0  0  0  0
    4.8084    1.3311   19.0435 C   0  0  0  0  0  0  0  0  0  0  0  0
    3.8643    1.8490   19.1402 H   0  0  0  0  0  0  0  0  0  0  0  0
  1  2  1  0
  2  3  2  0
  3  4  1  0
  4  5  1  0
  4  6  2  0
  6  7  1  0
  7  8  1  0
  8  9  2  0
  9 10  1  0
 10 11  1  0
 11 12  1  0
 12 13  1  0
 12 14  1  0
 12 15  1  0
 15 16  2  0
 16 17  1  0
 16 18  1  0
 18 19  1  0
 18 20  2  0
 20 21  1  0
 20 22  1  0
 22 23  1  0
 22 24  2  0
 24 25  1  0
  6 26  1  0
 26 27  1  0
 26 28  2  0
 28 29  1  0
 28  2  1  0
 11  7  2  0
 24 15  1  0
M  END
>  <cnnaffinity>  (1) 
-4.96464

>  <filename>  (1) 
Clc1ccccc1Cc1snnc1-c1cccnc1

$$$$
