
     RDKit          3D

 29 31  0  0  0  0  0  0  0  0999 V2000
    4.9145    1.7796   16.9993 H   0  0  0  0  0  0  0  0  0  0  0  0
    5.4043    1.2905   17.8422 C   0  0  0  0  0  0  0  0  0  0  0  0
    6.5652    0.6714   17.5838 N   0  0  0  0  0  0  0  0  0  0  0  0
    7.1860    0.0563   18.5984 C   0  0  0  0  0  0  0  0  0  0  0  0
    8.1279   -0.4369   18.3681 H   0  0  0  0  0  0  0  0  0  0  0  0
    6.6873    0.0157   19.9136 C   0  0  0  0  0  0  0  0  0  0  0  0
    7.2853   -0.6853   20.9408 O   0  0  0  0  0  0  0  0  0  0  0  0
    8.6506   -0.7692   21.0840 C   0  0  0  0  0  0  0  0  0  0  0  0
    9.6722    0.0767   20.6219 C   0  0  0  0  0  0  0  0  0  0  0  0
    9.5639    0.9441   19.9940 H   0  0  0  0  0  0  0  0  0  0  0  0
   10.8588   -0.3126   21.0688 N   0  0  0  0  0  0  0  0  0  0  0  0
   10.5968   -1.3849   21.8147 N   0  0  0  0  0  0  0  0  0  0  0  0
   11.3669   -1.8770   22.2375 H   0  0  0  0  0  0  0  0  0  0  0  0
    9.2775   -1.7201   21.8672 C   0  0  0  0  0  0  0  0  0  0  0  0
    8.7412   -2.8476   22.6342 C   0  0  0  0  0  0  0  0  0  0  0  0
    9.3664   -3.3011   23.8114 C   0  0  0  0  0  0  0  0  0  0  0  0
   10.2719   -2.8151   24.1731 H   0  0  0  0  0  0  0  0  0  0  0  0
    8.8105   -4.3556   24.5301 C   0  0  0  0  0  0  0  0  0  0  0  0
    9.2975   -4.7007   25.4384 H   0  0  0  0  0  0  0  0  0  0  0  0
    7.6332   -4.9752   24.0925 C   0  0  0  0  0  0  0  0  0  0  0  0
    7.1957   -5.7949   24.6490 H   0  0  0  0  0  0  0  0  0  0  0  0
    7.0220   -4.5196   22.9199 C   0  0  0  0  0  0  0  0  0  0  0  0
    5.5612   -5.2808   22.3641 Cl  0  0  0  0  0  0  0  0  0  0  0  0
    7.5594   -3.4673   22.1880 C   0  0  0  0  0  0  0  0  0  0  0  0
    7.0762   -3.1188   21.2803 H   0  0  0  0  0  0  0  0  0  0  0  0
    5.4598    0.6428   20.1721 C   0  0  0  0  0  0  0  0  0  0  0  0
    5.0279    0.6152   21.1729 H   0  0  0  0  0  0  0  0  0  0  0  0
    4.8199    1.3018   19.1148 C   0  0  0  0  0  0  0  0  0  0  0  0
    3.8848    1.8336   19.2670 H   0  0  0  0  0  0  0  0  0  0  0  0
  1  2  1  0
  2  3  2  0
  3  4  1  0
  4  5  1  0
  4  6  2  0
  6  7  1  0
  7  8  1  0
  8  9  1  0
  9 10  1  0
  9 11  2  0
 11 12  1  0
 12 13  1  0
 12 14  1  0
 14 15  1  0
 15 16  2  0
 16 17  1  0
 16 18  1  0
 18 19  1  0
 18 20  2  0
 20 21  1  0
 20 22  1  0
 22 23  1  0
 22 24  2  0
 24 25  1  0
  6 26  1  0
 26 27  1  0
 26 28  2  0
 28 29  1  0
 28  2  1  0
 14  8  2  0
 24 15  1  0
M  END
>  <cnnaffinity>  (1) 
-5.48383

>  <filename>  (1) 
Clc1cccc(-c2[nH]ncc2Oc2cccnc2)c1

$$$$
