
     RDKit          3D

 30 32  0  0  0  0  0  0  0  0999 V2000
    4.9124    1.7887   16.9886 H   0  0  0  0  0  0  0  0  0  0  0  0
    5.3982    1.2992   17.8303 C   0  0  0  0  0  0  0  0  0  0  0  0
    6.5579    0.6797   17.5618 N   0  0  0  0  0  0  0  0  0  0  0  0
    7.1700    0.0650   18.5804 C   0  0  0  0  0  0  0  0  0  0  0  0
    8.1136   -0.4256   18.3602 H   0  0  0  0  0  0  0  0  0  0  0  0
    6.6557    0.0109   19.8955 C   0  0  0  0  0  0  0  0  0  0  0  0
    7.3180   -0.6908   20.9493 N   0  0  0  0  0  0  0  0  0  0  0  0
    6.7747   -1.6021   21.8201 C   0  0  0  0  0  0  0  0  0  0  0  0
    5.7273   -1.8781   21.7940 H   0  0  0  0  0  0  0  0  0  0  0  0
    7.6788   -2.0864   22.6245 N   0  0  0  0  0  0  0  0  0  0  0  0
    8.8662   -1.4788   22.3096 N   0  0  0  0  0  0  0  0  0  0  0  0
    8.6400   -0.6382   21.3399 C   0  0  0  0  0  0  0  0  0  0  0  0
    9.6783    0.2139   20.6810 C   0  0  0  0  0  0  0  0  0  0  0  0
   10.1049   -0.4346   19.9093 H   0  0  0  0  0  0  0  0  0  0  0  0
    9.1951    1.0685   20.1968 H   0  0  0  0  0  0  0  0  0  0  0  0
   10.7205    0.7117   21.6587 C   0  0  0  0  0  0  0  0  0  0  0  0
   10.4635    1.8887   22.3772 C   0  0  0  0  0  0  0  0  0  0  0  0
    9.5546    2.4429   22.1576 H   0  0  0  0  0  0  0  0  0  0  0  0
   11.3388    2.3465   23.3640 C   0  0  0  0  0  0  0  0  0  0  0  0
   11.1277    3.2732   23.8902 H   0  0  0  0  0  0  0  0  0  0  0  0
   12.4887    1.6075   23.6559 C   0  0  0  0  0  0  0  0  0  0  0  0
   13.1861    1.9511   24.4084 H   0  0  0  0  0  0  0  0  0  0  0  0
   12.7568    0.4157   22.9831 C   0  0  0  0  0  0  0  0  0  0  0  0
   13.6388   -0.1783   23.2023 H   0  0  0  0  0  0  0  0  0  0  0  0
   11.8686   -0.0231   21.9972 C   0  0  0  0  0  0  0  0  0  0  0  0
   12.2115   -1.5377   21.2173 Cl  0  0  0  0  0  0  0  0  0  0  0  0
    5.4375    0.6479   20.1598 C   0  0  0  0  0  0  0  0  0  0  0  0
    5.0225    0.6283   21.1721 H   0  0  0  0  0  0  0  0  0  0  0  0
    4.8084    1.3120   19.1016 C   0  0  0  0  0  0  0  0  0  0  0  0
    3.8759    1.8421   19.2592 H   0  0  0  0  0  0  0  0  0  0  0  0
  1  2  1  0
  2  3  2  0
  3  4  1  0
  4  5  1  0
  4  6  2  0
  6  7  1  0
  7  8  1  0
  8  9  1  0
  8 10  2  0
 10 11  1  0
 11 12  2  0
 12 13  1  0
 13 14  1  0
 13 15  1  0
 13 16  1  0
 16 17  2  0
 17 18  1  0
 17 19  1  0
 19 20  1  0
 19 21  2  0
 21 22  1  0
 21 23  1  0
 23 24  1  0
 23 25  2  0
 25 26  1  0
  6 27  1  0
 27 28  1  0
 27 29  2  0
 29 30  1  0
 29  2  1  0
 12  7  1  0
 25 16  1  0
M  END
>  <cnnaffinity>  (1) 
-5.57553

>  <filename>  (1) 
Clc1ccccc1Cc1nncn1-c1cccnc1

$$$$
