
     RDKit          3D

 41 44  0  0  0  0  0  0  0  0999 V2000
    4.9848    1.8260   16.9469 H   0  0  0  0  0  0  0  0  0  0  0  0
    5.4428    1.3634   17.8182 C   0  0  0  0  0  0  0  0  0  0  0  0
    6.6034    0.7357   17.5972 N   0  0  0  0  0  0  0  0  0  0  0  0
    7.2001    0.1588   18.6471 C   0  0  0  0  0  0  0  0  0  0  0  0
    8.1480   -0.3230   18.4191 H   0  0  0  0  0  0  0  0  0  0  0  0
    6.6990    0.1472   19.9642 C   0  0  0  0  0  0  0  0  0  0  0  0
    7.5366   -0.4246   21.1336 C   0  0  2  0  0  0  0  0  0  0  0  0
    8.2728    0.8309   21.7255 C   0  0  0  0  0  0  0  0  0  0  0  0
    8.8768    1.2442   20.9053 H   0  0  0  0  0  0  0  0  0  0  0  0
    7.5221    1.5979   21.9403 H   0  0  0  0  0  0  0  0  0  0  0  0
    9.1726    0.6662   22.9380 C   0  0  0  0  0  0  0  0  0  0  0  0
   10.5313    0.3239   22.7798 C   0  0  0  0  0  0  0  0  0  0  0  0
   10.9335    0.2242   21.7729 H   0  0  0  0  0  0  0  0  0  0  0  0
   11.3854    0.1265   23.8684 C   0  0  0  0  0  0  0  0  0  0  0  0
   12.4123   -0.1821   23.6956 H   0  0  0  0  0  0  0  0  0  0  0  0
   10.9049    0.3088   25.1675 C   0  0  0  0  0  0  0  0  0  0  0  0
   11.5572    0.1774   26.0278 H   0  0  0  0  0  0  0  0  0  0  0  0
    9.5769    0.6832   25.3645 C   0  0  0  0  0  0  0  0  0  0  0  0
    9.1759    0.8393   26.3609 H   0  0  0  0  0  0  0  0  0  0  0  0
    8.7359    0.8816   24.2610 C   0  0  0  0  0  0  0  0  0  0  0  0
    7.1168    1.4423   24.6036 Cl  0  0  0  0  0  0  0  0  0  0  0  0
    8.5574   -1.5454   20.7263 C   0  0  0  0  0  0  0  0  0  0  0  0
    9.5674   -1.2715   21.0476 H   0  0  0  0  0  0  0  0  0  0  0  0
    8.6106   -1.6735   19.6503 H   0  0  0  0  0  0  0  0  0  0  0  0
    8.1260   -2.8154   21.4957 C   0  0  2  0  0  0  0  0  0  0  0  0
    8.9277   -3.5555   21.5432 H   0  0  0  0  0  0  0  0  0  0  0  0
    6.7760   -3.3803   21.0007 C   0  0  0  0  0  0  0  0  0  0  0  0
    6.6991   -3.6100   19.9340 H   0  0  0  0  0  0  0  0  0  0  0  0
    6.5679   -4.3275   21.5150 H   0  0  0  0  0  0  0  0  0  0  0  0
    5.7794   -2.2704   21.4315 C   0  0  0  0  0  0  0  0  0  0  0  0
    4.9970   -2.6766   22.0805 H   0  0  0  0  0  0  0  0  0  0  0  0
    5.3060   -1.8116   20.5612 H   0  0  0  0  0  0  0  0  0  0  0  0
    6.6793   -1.2366   22.1739 C   0  0  1  0  0  0  0  0  0  0  0  0
    6.1420   -0.5869   22.8667 H   0  0  0  0  0  0  0  0  0  0  0  0
    7.6963   -2.1882   22.8311 C   0  0  0  0  0  0  0  0  0  0  0  0
    8.5186   -1.6960   23.3520 H   0  0  0  0  0  0  0  0  0  0  0  0
    7.2373   -2.9003   23.5294 H   0  0  0  0  0  0  0  0  0  0  0  0
    5.4674    0.8068   20.1636 C   0  0  0  0  0  0  0  0  0  0  0  0
    4.9934    0.8433   21.1482 H   0  0  0  0  0  0  0  0  0  0  0  0
    4.8309    1.4183   19.0745 C   0  0  0  0  0  0  0  0  0  0  0  0
    3.8841    1.9353   19.1784 H   0  0  0  0  0  0  0  0  0  0  0  0
  1  2  1  0
  2  3  2  0
  3  4  1  0
  4  5  1  0
  4  6  2  0
  6  7  1  0
  7  8  1  1
  8  9  1  0
  8 10  1  0
  8 11  1  0
 11 12  2  0
 12 13  1  0
 12 14  1  0
 14 15  1  0
 14 16  2  0
 16 17  1  0
 16 18  1  0
 18 19  1  0
 18 20  2  0
 20 21  1  0
  7 22  1  0
 22 23  1  0
 22 24  1  0
 22 25  1  0
 25 26  1  1
 25 27  1  0
 27 28  1  0
 27 29  1  0
 27 30  1  0
 30 31  1  0
 30 32  1  0
 30 33  1  0
 33 34  1  1
 33 35  1  0
 35 36  1  0
 35 37  1  0
  6 38  1  0
 38 39  1  0
 38 40  2  0
 40 41  1  0
 40  2  1  0
 33  7  1  0
 20 11  1  0
 35 25  1  0
M  END
>  <cnnaffinity>  (1) 
-5.62554

>  <filename>  (1) 
Clc1ccccc1C[C@@]1(c2cccnc2)C[C@@H]2CC[C@H]1C2

$$$$
