
     RDKit          3D

 32 34  0  0  0  0  0  0  0  0999 V2000
   10.3340   -3.5321   25.2017 Cl  0  0  0  0  0  0  0  0  0  0  0  0
    9.1677   -2.2264   25.3535 C   0  0  0  0  0  0  0  0  0  0  0  0
    9.0519   -1.5350   26.5662 C   0  0  0  0  0  0  0  0  0  0  0  0
    8.0744   -0.5460   26.7361 C   0  0  0  0  0  0  0  0  0  0  0  0
    7.9659    0.4859   28.3443 Br  0  0  0  0  0  0  0  0  0  0  0  0
    7.1864   -0.2849   25.6884 C   0  0  0  0  0  0  0  0  0  0  0  0
    7.3150   -0.9446   24.4638 C   0  0  0  0  0  0  0  0  0  0  0  0
    8.3441   -1.8834   24.2725 C   0  0  0  0  0  0  0  0  0  0  0  0
    8.6325   -2.5000   22.9238 C   0  0  0  0  0  0  0  0  0  0  0  0
    9.2843   -1.4950   22.0619 N   0  0  0  0  0  0  0  0  0  0  0  0
   10.6188   -1.1693   21.9863 C   0  0  0  0  0  0  0  0  0  0  0  0
   10.8060   -0.2366   21.0853 N   0  0  0  0  0  0  0  0  0  0  0  0
    9.5795    0.0632   20.5373 N   0  0  0  0  0  0  0  0  0  0  0  0
    8.6908   -0.6937   21.1244 C   0  0  0  0  0  0  0  0  0  0  0  0
    7.3198   -0.6908   20.9200 N   0  0  0  0  0  0  0  0  0  0  0  0
    6.6925   -0.0222   19.8550 C   0  0  0  0  0  0  0  0  0  0  0  0
    5.4588    0.5583   20.1131 C   0  0  0  0  0  0  0  0  0  0  0  0
    4.8301    1.2528   19.0780 C   0  0  0  0  0  0  0  0  0  0  0  0
    5.4266    1.3259   17.8126 C   0  0  0  0  0  0  0  0  0  0  0  0
    6.6027    0.7353   17.5331 N   0  0  0  0  0  0  0  0  0  0  0  0
    7.2230    0.0808   18.5414 C   0  0  0  0  0  0  0  0  0  0  0  0
    8.1726   -0.4027   18.3310 H   0  0  0  0  0  0  0  0  0  0  0  0
    4.9275    1.8828   17.0287 H   0  0  0  0  0  0  0  0  0  0  0  0
    3.8890    1.7537   19.2544 H   0  0  0  0  0  0  0  0  0  0  0  0
    5.0223    0.4796   21.1065 H   0  0  0  0  0  0  0  0  0  0  0  0
    6.7606   -0.8900   21.7435 H   0  0  0  0  0  0  0  0  0  0  0  0
   11.4034   -1.6261   22.5837 H   0  0  0  0  0  0  0  0  0  0  0  0
    9.2969   -3.3694   23.0336 H   0  0  0  0  0  0  0  0  0  0  0  0
    7.7030   -2.8505   22.4618 H   0  0  0  0  0  0  0  0  0  0  0  0
    6.6241   -0.7075   23.6581 H   0  0  0  0  0  0  0  0  0  0  0  0
    6.4145    0.4663   25.8011 H   0  0  0  0  0  0  0  0  0  0  0  0
    9.7452   -1.7716   27.3639 H   0  0  0  0  0  0  0  0  0  0  0  0
  1  2  1  0
  2  3  2  0
  3  4  1  0
  4  5  1  0
  4  6  2  0
  6  7  1  0
  7  8  2  0
  8  9  1  0
  9 10  1  0
 10 11  1  0
 11 12  2  0
 12 13  1  0
 13 14  2  0
 14 15  1  0
 15 16  1  0
 16 17  2  0
 17 18  1  0
 18 19  2  0
 19 20  1  0
 20 21  2  0
 21 22  1  0
 19 23  1  0
 18 24  1  0
 17 25  1  0
 15 26  1  0
 11 27  1  0
  9 28  1  0
  9 29  1  0
  7 30  1  0
  6 31  1  0
  3 32  1  0
  8  2  1  0
 14 10  1  0
 21 16  1  0
M  END
>  <cnnaffinity>  (1) 
-5.11498

>  <filename>  (1) 
Clc1cc(Br)ccc1Cn1cnnc1Nc1cccnc1

$$$$
