
     RDKit          3D

 30 32  0  0  0  0  0  0  0  0999 V2000
    4.9211    1.7812   16.9948 H   0  0  0  0  0  0  0  0  0  0  0  0
    5.4024    1.2959   17.8371 C   0  0  0  0  0  0  0  0  0  0  0  0
    6.5681    0.6825   17.5742 N   0  0  0  0  0  0  0  0  0  0  0  0
    7.1647    0.0605   18.5918 C   0  0  0  0  0  0  0  0  0  0  0  0
    8.1106   -0.4316   18.3795 H   0  0  0  0  0  0  0  0  0  0  0  0
    6.6435    0.0185   19.8926 C   0  0  0  0  0  0  0  0  0  0  0  0
    7.3809   -0.7373   20.9018 C   0  0  0  0  0  0  0  0  0  0  0  0
    7.8091   -1.9656   20.7718 N   0  0  0  0  0  0  0  0  0  0  0  0
    8.4348   -2.3170   21.9393 N   0  0  0  0  0  0  0  0  0  0  0  0
    8.3841   -1.2814   22.7268 C   0  0  0  0  0  0  0  0  0  0  0  0
    8.8251   -1.2227   23.7128 H   0  0  0  0  0  0  0  0  0  0  0  0
    7.7240   -0.2415   22.1331 N   0  0  0  0  0  0  0  0  0  0  0  0
    7.6310    1.1204   22.6668 C   0  0  0  0  0  0  0  0  0  0  0  0
    6.9783    1.7123   22.0234 H   0  0  0  0  0  0  0  0  0  0  0  0
    8.6191    1.5921   22.6074 H   0  0  0  0  0  0  0  0  0  0  0  0
    7.1208    1.1496   24.0901 C   0  0  0  0  0  0  0  0  0  0  0  0
    8.0100    1.2730   25.1664 C   0  0  0  0  0  0  0  0  0  0  0  0
    9.0746    1.3751   24.9711 H   0  0  0  0  0  0  0  0  0  0  0  0
    7.5510    1.2523   26.4818 C   0  0  0  0  0  0  0  0  0  0  0  0
    8.2434    1.3464   27.3124 H   0  0  0  0  0  0  0  0  0  0  0  0
    6.1848    1.1078   26.7419 C   0  0  0  0  0  0  0  0  0  0  0  0
    5.6556    1.0934   28.3878 Cl  0  0  0  0  0  0  0  0  0  0  0  0
    5.2830    0.9775   25.6743 C   0  0  0  0  0  0  0  0  0  0  0  0
    3.5834    0.7897   25.9384 Cl  0  0  0  0  0  0  0  0  0  0  0  0
    5.7561    0.9996   24.3595 C   0  0  0  0  0  0  0  0  0  0  0  0
    5.0416    0.8801   23.5498 H   0  0  0  0  0  0  0  0  0  0  0  0
    5.4289    0.6650   20.1554 C   0  0  0  0  0  0  0  0  0  0  0  0
    4.9888    0.6320   21.1595 H   0  0  0  0  0  0  0  0  0  0  0  0
    4.7943    1.3141   19.1001 C   0  0  0  0  0  0  0  0  0  0  0  0
    3.8637    1.8491   19.2570 H   0  0  0  0  0  0  0  0  0  0  0  0
  1  2  1  0
  2  3  2  0
  3  4  1  0
  4  5  1  0
  4  6  2  0
  6  7  1  0
  7  8  2  0
  8  9  1  0
  9 10  2  0
 10 11  1  0
 10 12  1  0
 12 13  1  0
 13 14  1  0
 13 15  1  0
 13 16  1  0
 16 17  2  0
 17 18  1  0
 17 19  1  0
 19 20  1  0
 19 21  2  0
 21 22  1  0
 21 23  1  0
 23 24  1  0
 23 25  2  0
 25 26  1  0
  6 27  1  0
 27 28  1  0
 27 29  2  0
 29 30  1  0
 29  2  1  0
 12  7  1  0
 25 16  1  0
M  END
>  <cnnaffinity>  (1) 
-5.40026

>  <filename>  (1) 
Clc1ccc(Cn2cnnc2-c2cccnc2)cc1Cl

$$$$
