
     RDKit          3D

 28 30  0  0  0  0  0  0  0  0999 V2000
    4.9089    1.7716   17.0066 H   0  0  0  0  0  0  0  0  0  0  0  0
    5.4041    1.2902   17.8471 C   0  0  0  0  0  0  0  0  0  0  0  0
    6.5730    0.6801   17.5875 N   0  0  0  0  0  0  0  0  0  0  0  0
    7.1793    0.0511   18.6003 C   0  0  0  0  0  0  0  0  0  0  0  0
    8.1286   -0.4378   18.3803 H   0  0  0  0  0  0  0  0  0  0  0  0
    6.6582    0.0013   19.9034 C   0  0  0  0  0  0  0  0  0  0  0  0
    7.3714   -0.7097   20.9588 C   0  0  0  0  0  0  0  0  0  0  0  0
    7.9804   -1.9184   20.7563 N   0  0  0  0  0  0  0  0  0  0  0  0
    8.4307   -2.2884   21.9244 C   0  0  0  0  0  0  0  0  0  0  0  0
    8.9665   -3.2066   22.1219 H   0  0  0  0  0  0  0  0  0  0  0  0
    8.1575   -1.3732   22.8852 N   0  0  0  0  0  0  0  0  0  0  0  0
    8.4444   -1.4094   23.8527 H   0  0  0  0  0  0  0  0  0  0  0  0
    7.4977   -0.3309   22.2831 C   0  0  0  0  0  0  0  0  0  0  0  0
    7.1267    0.9075   22.9594 C   0  0  0  0  0  0  0  0  0  0  0  0
    7.2986    2.1432   22.3138 C   0  0  0  0  0  0  0  0  0  0  0  0
    7.7175    2.1758   21.3107 H   0  0  0  0  0  0  0  0  0  0  0  0
    6.9376    3.3239   22.9531 C   0  0  0  0  0  0  0  0  0  0  0  0
    7.0713    4.2722   22.4464 H   0  0  0  0  0  0  0  0  0  0  0  0
    6.4084    3.2920   24.2500 C   0  0  0  0  0  0  0  0  0  0  0  0
    5.9785    4.7850   25.0097 Cl  0  0  0  0  0  0  0  0  0  0  0  0
    6.2439    2.0592   24.9051 C   0  0  0  0  0  0  0  0  0  0  0  0
    5.6055    1.9666   26.5111 Cl  0  0  0  0  0  0  0  0  0  0  0  0
    6.6060    0.8769   24.2608 C   0  0  0  0  0  0  0  0  0  0  0  0
    6.4687   -0.0754   24.7645 H   0  0  0  0  0  0  0  0  0  0  0  0
    5.4372    0.6480   20.1548 C   0  0  0  0  0  0  0  0  0  0  0  0
    5.0087    0.6321   21.1560 H   0  0  0  0  0  0  0  0  0  0  0  0
    4.8030    1.3114   19.1110 C   0  0  0  0  0  0  0  0  0  0  0  0
    3.8708    1.8457   19.2668 H   0  0  0  0  0  0  0  0  0  0  0  0
  1  2  1  0
  2  3  2  0
  3  4  1  0
  4  5  1  0
  4  6  2  0
  6  7  1  0
  7  8  1  0
  8  9  2  0
  9 10  1  0
  9 11  1  0
 11 12  1  0
 11 13  1  0
 13 14  1  0
 14 15  2  0
 15 16  1  0
 15 17  1  0
 17 18  1  0
 17 19  2  0
 19 20  1  0
 19 21  1  0
 21 22  1  0
 21 23  2  0
 23 24  1  0
  6 25  1  0
 25 26  1  0
 25 27  2  0
 27 28  1  0
 27  2  1  0
 13  7  2  0
 23 14  1  0
M  END
>  <cnnaffinity>  (1) 
-5.43741

>  <filename>  (1) 
Clc1ccc(-c2[nH]cnc2-c2cccnc2)cc1Cl

$$$$
