
     RDKit          3D

 38 41  0  0  0  0  0  0  0  0999 V2000
    4.9778    2.1007   16.8835 H   0  0  0  0  0  0  0  0  0  0  0  0
    5.3025    1.3934   17.6453 C   0  0  0  0  0  0  0  0  0  0  0  0
    6.3334    0.6049   17.3078 N   0  0  0  0  0  0  0  0  0  0  0  0
    6.7676   -0.2520   18.2398 C   0  0  0  0  0  0  0  0  0  0  0  0
    7.6142   -0.8770   17.9465 H   0  0  0  0  0  0  0  0  0  0  0  0
    6.2336   -0.3862   19.5402 C   0  0  0  0  0  0  0  0  0  0  0  0
    6.9313   -1.2223   20.5498 C   0  0  0  0  0  0  0  0  0  0  0  0
    8.2959   -0.9994   20.9529 C   0  0  0  0  0  0  0  0  0  0  0  0
    9.2932   -0.0482   20.3303 C   0  0  0  0  0  0  0  0  0  0  0  0
    8.7628    0.8497   19.9981 H   0  0  0  0  0  0  0  0  0  0  0  0
    9.6835   -0.5100   19.4134 H   0  0  0  0  0  0  0  0  0  0  0  0
   10.4376    0.3458   21.2322 C   0  0  0  0  0  0  0  0  0  0  0  0
   10.3407    1.5008   22.0172 C   0  0  0  0  0  0  0  0  0  0  0  0
    9.4759    2.1519   21.9217 H   0  0  0  0  0  0  0  0  0  0  0  0
   11.3448    1.8290   22.9254 C   0  0  0  0  0  0  0  0  0  0  0  0
   11.2959    2.7251   23.5356 H   0  0  0  0  0  0  0  0  0  0  0  0
   12.4552    0.9930   23.0558 C   0  0  0  0  0  0  0  0  0  0  0  0
   13.6203    1.3740   24.2464 Cl  0  0  0  0  0  0  0  0  0  0  0  0
   12.5958   -0.1361   22.2413 C   0  0  0  0  0  0  0  0  0  0  0  0
   14.0000   -1.1451   22.3101 Cl  0  0  0  0  0  0  0  0  0  0  0  0
   11.5841   -0.4537   21.3353 C   0  0  0  0  0  0  0  0  0  0  0  0
   11.7192   -1.3436   20.7294 H   0  0  0  0  0  0  0  0  0  0  0  0
    8.6586   -1.8169   21.9305 N   0  0  0  0  0  0  0  0  0  0  0  0
    7.5845   -2.5541   22.1500 N   0  0  0  0  0  0  0  0  0  0  0  0
    6.5306   -2.2987   21.3491 C   0  0  0  0  0  0  0  0  0  0  0  0
    5.4953   -3.3731   21.6103 C   0  0  0  0  0  0  0  0  0  0  0  0
    4.4858   -2.9757   21.7417 H   0  0  0  0  0  0  0  0  0  0  0  0
    5.4756   -4.1034   20.7906 H   0  0  0  0  0  0  0  0  0  0  0  0
    5.9819   -4.0291   22.9378 C   0  0  0  0  0  0  0  0  0  0  0  0
    5.3934   -3.6325   23.7684 H   0  0  0  0  0  0  0  0  0  0  0  0
    5.8751   -5.1149   22.9161 H   0  0  0  0  0  0  0  0  0  0  0  0
    7.4610   -3.6066   23.1277 C   0  0  0  0  0  0  0  0  0  0  0  0
    8.1884   -4.3914   22.9085 H   0  0  0  0  0  0  0  0  0  0  0  0
    7.6937   -3.2274   24.1306 H   0  0  0  0  0  0  0  0  0  0  0  0
    5.1178    0.4153   19.8412 C   0  0  0  0  0  0  0  0  0  0  0  0
    4.6570    0.3612   20.8307 H   0  0  0  0  0  0  0  0  0  0  0  0
    4.6570    1.3261   18.8848 C   0  0  0  0  0  0  0  0  0  0  0  0
    3.8394    2.0098   19.0932 H   0  0  0  0  0  0  0  0  0  0  0  0
  1  2  1  0
  2  3  2  0
  3  4  1  0
  4  5  1  0
  4  6  2  0
  6  7  1  0
  7  8  1  0
  8  9  1  0
  9 10  1  0
  9 11  1  0
  9 12  1  0
 12 13  2  0
 13 14  1  0
 13 15  1  0
 15 16  1  0
 15 17  2  0
 17 18  1  0
 17 19  1  0
 19 20  1  0
 19 21  2  0
 21 22  1  0
  8 23  2  0
 23 24  1  0
 24 25  1  0
 25 26  1  0
 26 27  1  0
 26 28  1  0
 26 29  1  0
 29 30  1  0
 29 31  1  0
 29 32  1  0
 32 33  1  0
 32 34  1  0
  6 35  1  0
 35 36  1  0
 35 37  2  0
 37 38  1  0
 37  2  1  0
 25  7  2  0
 21 12  1  0
 32 24  1  0
M  END
>  <cnnaffinity>  (1) 
-6.01334

>  <filename>  (1) 
Clc1ccc(Cc2nn3c(c2-c2cccnc2)CCC3)cc1Cl

$$$$
