
     RDKit          3D

 31 33  0  0  0  0  0  0  0  0999 V2000
    4.9386    1.7806   16.9892 H   0  0  0  0  0  0  0  0  0  0  0  0
    5.4012    1.2891   17.8407 C   0  0  0  0  0  0  0  0  0  0  0  0
    6.5634    0.6683   17.5985 N   0  0  0  0  0  0  0  0  0  0  0  0
    7.1599    0.0587   18.6250 C   0  0  0  0  0  0  0  0  0  0  0  0
    8.1069   -0.4152   18.3794 H   0  0  0  0  0  0  0  0  0  0  0  0
    6.6404    0.0148   19.9298 C   0  0  0  0  0  0  0  0  0  0  0  0
    7.3708   -0.6983   20.9879 C   0  0  0  0  0  0  0  0  0  0  0  0
    6.9560   -0.6743   22.2548 N   0  0  0  0  0  0  0  0  0  0  0  0
    7.8364   -1.4059   22.9448 N   0  0  0  0  0  0  0  0  0  0  0  0
    7.6089   -1.7045   24.3562 C   0  0  0  0  0  0  0  0  0  0  0  0
    8.5927   -1.8415   24.8096 H   0  0  0  0  0  0  0  0  0  0  0  0
    7.1474   -0.8203   24.8027 H   0  0  0  0  0  0  0  0  0  0  0  0
    6.7578   -2.9373   24.5583 C   0  0  0  0  0  0  0  0  0  0  0  0
    7.3336   -4.2051   24.6256 C   0  0  0  0  0  0  0  0  0  0  0  0
    8.4145   -4.3223   24.5895 H   0  0  0  0  0  0  0  0  0  0  0  0
    6.5318   -5.3348   24.7337 C   0  0  0  0  0  0  0  0  0  0  0  0
    6.9928   -6.3019   24.8166 H   0  0  0  0  0  0  0  0  0  0  0  0
    5.1372   -5.2312   24.7604 C   0  0  0  0  0  0  0  0  0  0  0  0
    4.1894   -6.6751   24.9077 Cl  0  0  0  0  0  0  0  0  0  0  0  0
    4.5487   -3.9583   24.6915 C   0  0  0  0  0  0  0  0  0  0  0  0
    2.8306   -3.7343   24.7175 Cl  0  0  0  0  0  0  0  0  0  0  0  0
    5.3704   -2.8289   24.6244 C   0  0  0  0  0  0  0  0  0  0  0  0
    4.9124   -1.8500   24.6609 H   0  0  0  0  0  0  0  0  0  0  0  0
    8.7956   -1.9297   22.1467 C   0  0  0  0  0  0  0  0  0  0  0  0
    9.5683   -2.5654   22.5620 H   0  0  0  0  0  0  0  0  0  0  0  0
    8.5382   -1.4888   20.8722 C   0  0  0  0  0  0  0  0  0  0  0  0
    9.1045   -1.6804   19.9749 H   0  0  0  0  0  0  0  0  0  0  0  0
    5.4152    0.6647   20.1691 C   0  0  0  0  0  0  0  0  0  0  0  0
    4.9890    0.6475   21.1746 H   0  0  0  0  0  0  0  0  0  0  0  0
    4.7987    1.3138   19.1017 C   0  0  0  0  0  0  0  0  0  0  0  0
    3.8705    1.8461   19.2408 H   0  0  0  0  0  0  0  0  0  0  0  0
  1  2  1  0
  2  3  2  0
  3  4  1  0
  4  5  1  0
  4  6  2  0
  6  7  1  0
  7  8  2  0
  8  9  1  0
  9 10  1  0
 10 11  1  0
 10 12  1  0
 10 13  1  0
 13 14  2  0
 14 15  1  0
 14 16  1  0
 16 17  1  0
 16 18  2  0
 18 19  1  0
 18 20  1  0
 20 21  1  0
 20 22  2  0
 22 23  1  0
  9 24  1  0
 24 25  1  0
 24 26  2  0
 26 27  1  0
  6 28  1  0
 28 29  1  0
 28 30  2  0
 30 31  1  0
 30  2  1  0
 26  7  1  0
 22 13  1  0
M  END
>  <cnnaffinity>  (1) 
-5.16714

>  <filename>  (1) 
Clc1ccc(Cn2ccc(-c3cccnc3)n2)cc1Cl

$$$$
