
     RDKit          3D

 32 34  0  0  0  0  0  0  0  0999 V2000
    4.9120    1.8092   16.9794 H   0  0  0  0  0  0  0  0  0  0  0  0
    5.3861    1.3039   17.8209 C   0  0  0  0  0  0  0  0  0  0  0  0
    6.5475    0.6868   17.5573 N   0  0  0  0  0  0  0  0  0  0  0  0
    7.1631    0.0685   18.5719 C   0  0  0  0  0  0  0  0  0  0  0  0
    8.1051   -0.4198   18.3263 H   0  0  0  0  0  0  0  0  0  0  0  0
    6.6627    0.0077   19.8915 C   0  0  0  0  0  0  0  0  0  0  0  0
    7.3860   -0.7099   20.9820 C   0  0  0  0  0  0  0  0  0  0  0  0
    8.7711   -0.6255   21.1606 C   0  0  0  0  0  0  0  0  0  0  0  0
    9.3790    0.0120   20.5116 H   0  0  0  0  0  0  0  0  0  0  0  0
    9.4268   -1.2734   22.1123 N   0  0  0  0  0  0  0  0  0  0  0  0
    8.6992   -2.0295   22.9404 C   0  0  0  0  0  0  0  0  0  0  0  0
    9.4171   -2.7267   24.0485 C   0  0  0  0  0  0  0  0  0  0  0  0
   10.4663   -2.8308   23.7512 H   0  0  0  0  0  0  0  0  0  0  0  0
    8.9590   -3.7163   24.1653 H   0  0  0  0  0  0  0  0  0  0  0  0
    9.2764   -1.9231   25.3265 C   0  0  0  0  0  0  0  0  0  0  0  0
    8.2222   -2.2045   26.2136 C   0  0  0  0  0  0  0  0  0  0  0  0
    7.5338   -3.0109   25.9596 H   0  0  0  0  0  0  0  0  0  0  0  0
    8.0428   -1.4660   27.3860 C   0  0  0  0  0  0  0  0  0  0  0  0
    7.1782   -1.6744   28.0096 H   0  0  0  0  0  0  0  0  0  0  0  0
    8.9483   -0.4511   27.7192 C   0  0  0  0  0  0  0  0  0  0  0  0
    8.8418    0.1122   28.6448 H   0  0  0  0  0  0  0  0  0  0  0  0
    9.9897   -0.1493   26.8347 C   0  0  0  0  0  0  0  0  0  0  0  0
   10.7622    0.5836   27.0169 H   0  0  0  0  0  0  0  0  0  0  0  0
   10.1044   -0.8283   25.6273 C   0  0  0  0  0  0  0  0  0  0  0  0
   11.3682   -0.2674   24.5624 Cl  0  0  0  0  0  0  0  0  0  0  0  0
    7.3755   -2.2016   22.8682 N   0  0  0  0  0  0  0  0  0  0  0  0
    6.7415   -1.5388   21.9075 C   0  0  0  0  0  0  0  0  0  0  0  0
    5.6620   -1.7011   21.8537 H   0  0  0  0  0  0  0  0  0  0  0  0
    5.4424    0.6505   20.1364 C   0  0  0  0  0  0  0  0  0  0  0  0
    5.0218    0.6454   21.1414 H   0  0  0  0  0  0  0  0  0  0  0  0
    4.7985    1.3151   19.0884 C   0  0  0  0  0  0  0  0  0  0  0  0
    3.8680    1.8470   19.2406 H   0  0  0  0  0  0  0  0  0  0  0  0
  1  2  1  0
  2  3  2  0
  3  4  1  0
  4  5  1  0
  4  6  2  0
  6  7  1  0
  7  8  2  0
  8  9  1  0
  8 10  1  0
 10 11  2  0
 11 12  1  0
 12 13  1  0
 12 14  1  0
 12 15  1  0
 15 16  2  0
 16 17  1  0
 16 18  1  0
 18 19  1  0
 18 20  2  0
 20 21  1  0
 20 22  1  0
 22 23  1  0
 22 24  2  0
 24 25  1  0
 11 26  1  0
 26 27  2  0
 27 28  1  0
  6 29  1  0
 29 30  1  0
 29 31  2  0
 31 32  1  0
 31  2  1  0
 27  7  1  0
 24 15  1  0
M  END
>  <cnnaffinity>  (1) 
-5.54822

>  <filename>  (1) 
Clc1ccccc1Cc1ncc(-c2cccnc2)cn1

$$$$
