
     RDKit          3D

 34 36  0  0  0  0  0  0  0  0999 V2000
    4.9206    1.7784   16.9988 H   0  0  0  0  0  0  0  0  0  0  0  0
    5.4042    1.2935   17.8409 C   0  0  0  0  0  0  0  0  0  0  0  0
    6.5696    0.6770   17.5802 N   0  0  0  0  0  0  0  0  0  0  0  0
    7.1653    0.0515   18.5980 C   0  0  0  0  0  0  0  0  0  0  0  0
    8.1125   -0.4358   18.3773 H   0  0  0  0  0  0  0  0  0  0  0  0
    6.6492    0.0186   19.9007 C   0  0  0  0  0  0  0  0  0  0  0  0
    7.3984   -0.7262   20.9122 C   0  0  0  0  0  0  0  0  0  0  0  0
    7.8665   -1.9404   20.7410 N   0  0  0  0  0  0  0  0  0  0  0  0
    8.4577   -2.2748   21.9295 C   0  0  0  0  0  0  0  0  0  0  0  0
    8.9398   -3.2301   22.0738 H   0  0  0  0  0  0  0  0  0  0  0  0
    8.3758   -1.2401   22.8177 C   0  0  0  0  0  0  0  0  0  0  0  0
    8.7469   -1.1248   23.8262 H   0  0  0  0  0  0  0  0  0  0  0  0
    7.6946   -0.2382   22.1577 N   0  0  0  0  0  0  0  0  0  0  0  0
    7.4240    1.0797   22.7222 C   0  0  0  0  0  0  0  0  0  0  0  0
    8.3581    1.4788   23.1248 H   0  0  0  0  0  0  0  0  0  0  0  0
    7.1278    1.7659   21.9275 H   0  0  0  0  0  0  0  0  0  0  0  0
    6.3670    1.0480   23.8294 C   0  0  0  0  0  0  0  0  0  0  0  0
    6.7458    0.4482   24.6633 H   0  0  0  0  0  0  0  0  0  0  0  0
    5.4795    0.5313   23.4588 H   0  0  0  0  0  0  0  0  0  0  0  0
    5.9960    2.4308   24.2974 C   0  0  0  0  0  0  0  0  0  0  0  0
    4.9851    3.1549   23.6476 C   0  0  0  0  0  0  0  0  0  0  0  0
    4.4437    2.6976   22.8199 H   0  0  0  0  0  0  0  0  0  0  0  0
    4.6761    4.4570   24.0468 C   0  0  0  0  0  0  0  0  0  0  0  0
    3.8865    5.0050   23.5410 H   0  0  0  0  0  0  0  0  0  0  0  0
    5.3803    5.0610   25.0934 C   0  0  0  0  0  0  0  0  0  0  0  0
    5.1491    6.0711   25.4163 H   0  0  0  0  0  0  0  0  0  0  0  0
    6.4013    4.3426   25.7208 C   0  0  0  0  0  0  0  0  0  0  0  0
    7.2927    5.0826   27.0185 Cl  0  0  0  0  0  0  0  0  0  0  0  0
    6.7193    3.0408   25.3324 C   0  0  0  0  0  0  0  0  0  0  0  0
    7.5261    2.5105   25.8330 H   0  0  0  0  0  0  0  0  0  0  0  0
    5.4319    0.6650   20.1577 C   0  0  0  0  0  0  0  0  0  0  0  0
    4.9905    0.6368   21.1599 H   0  0  0  0  0  0  0  0  0  0  0  0
    4.7969    1.3138   19.1041 C   0  0  0  0  0  0  0  0  0  0  0  0
    3.8653    1.8484   19.2596 H   0  0  0  0  0  0  0  0  0  0  0  0
  1  2  1  0
  2  3  2  0
  3  4  1  0
  4  5  1  0
  4  6  2  0
  6  7  1  0
  7  8  2  0
  8  9  1  0
  9 10  1  0
  9 11  2  0
 11 12  1  0
 11 13  1  0
 13 14  1  0
 14 15  1  0
 14 16  1  0
 14 17  1  0
 17 18  1  0
 17 19  1  0
 17 20  1  0
 20 21  2  0
 21 22  1  0
 21 23  1  0
 23 24  1  0
 23 25  2  0
 25 26  1  0
 25 27  1  0
 27 28  1  0
 27 29  2  0
 29 30  1  0
  6 31  1  0
 31 32  1  0
 31 33  2  0
 33 34  1  0
 33  2  1  0
 13  7  1  0
 29 20  1  0
M  END
>  <cnnaffinity>  (1) 
-5.13686

>  <filename>  (1) 
Clc1cccc(CCn2ccnc2-c2cccnc2)c1

$$$$
