
     RDKit          3D

 38 41  0  0  0  0  0  0  0  0999 V2000
    4.9538    1.8013   16.9766 H   0  0  0  0  0  0  0  0  0  0  0  0
    5.4011    1.2979   17.8330 C   0  0  0  0  0  0  0  0  0  0  0  0
    6.5562    0.6605   17.5955 N   0  0  0  0  0  0  0  0  0  0  0  0
    7.1338    0.0261   18.6225 C   0  0  0  0  0  0  0  0  0  0  0  0
    8.0923   -0.4441   18.3995 H   0  0  0  0  0  0  0  0  0  0  0  0
    6.5900   -0.0349   19.9159 C   0  0  0  0  0  0  0  0  0  0  0  0
    7.2911   -0.7600   20.9828 C   0  0  0  0  0  0  0  0  0  0  0  0
    6.6500   -1.5311   21.8630 N   0  0  0  0  0  0  0  0  0  0  0  0
    7.6325   -1.9844   22.6472 N   0  0  0  0  0  0  0  0  0  0  0  0
    8.8526   -1.5485   22.3311 C   0  0  0  0  0  0  0  0  0  0  0  0
    8.6853   -0.7073   21.2533 C   0  0  0  0  0  0  0  0  0  0  0  0
    9.7805    0.0741   20.5960 C   0  0  0  0  0  0  0  0  0  0  0  0
   10.2781   -0.6079   19.9074 H   0  0  0  0  0  0  0  0  0  0  0  0
    9.3508    0.8916   20.0075 H   0  0  0  0  0  0  0  0  0  0  0  0
   10.7815    0.6317   21.5850 C   0  0  0  0  0  0  0  0  0  0  0  0
   10.4033    1.7353   22.3668 C   0  0  0  0  0  0  0  0  0  0  0  0
    9.4052    2.1427   22.2162 H   0  0  0  0  0  0  0  0  0  0  0  0
   11.2558    2.2939   23.3227 C   0  0  0  0  0  0  0  0  0  0  0  0
   10.9129    3.1349   23.9187 H   0  0  0  0  0  0  0  0  0  0  0  0
   12.5335    1.7553   23.5087 C   0  0  0  0  0  0  0  0  0  0  0  0
   13.2139    2.1766   24.2421 H   0  0  0  0  0  0  0  0  0  0  0  0
   12.9361    0.6493   22.7572 C   0  0  0  0  0  0  0  0  0  0  0  0
   13.9289    0.2241   22.8679 H   0  0  0  0  0  0  0  0  0  0  0  0
   12.0455    0.0721   21.8445 C   0  0  0  0  0  0  0  0  0  0  0  0
   12.5553   -1.4211   21.0860 Cl  0  0  0  0  0  0  0  0  0  0  0  0
    9.8807   -2.0291   23.3128 C   0  0  0  0  0  0  0  0  0  0  0  0
   10.6825   -2.5857   22.8166 H   0  0  0  0  0  0  0  0  0  0  0  0
   10.3509   -1.1703   23.8057 H   0  0  0  0  0  0  0  0  0  0  0  0
    9.0323   -2.8978   24.2917 C   0  0  0  0  0  0  0  0  0  0  0  0
    9.3492   -3.9417   24.2587 H   0  0  0  0  0  0  0  0  0  0  0  0
    9.1392   -2.5443   25.3182 H   0  0  0  0  0  0  0  0  0  0  0  0
    7.5359   -2.7899   23.8408 C   0  0  0  0  0  0  0  0  0  0  0  0
    6.8967   -2.2831   24.5732 H   0  0  0  0  0  0  0  0  0  0  0  0
    7.0870   -3.7545   23.5870 H   0  0  0  0  0  0  0  0  0  0  0  0
    5.3862    0.6474   20.1493 C   0  0  0  0  0  0  0  0  0  0  0  0
    4.9485    0.6489   21.1482 H   0  0  0  0  0  0  0  0  0  0  0  0
    4.7857    1.3267   19.0894 C   0  0  0  0  0  0  0  0  0  0  0  0
    3.8581    1.8732   19.2160 H   0  0  0  0  0  0  0  0  0  0  0  0
  1  2  1  0
  2  3  2  0
  3  4  1  0
  4  5  1  0
  4  6  2  0
  6  7  1  0
  7  8  2  0
  8  9  1  0
  9 10  1  0
 10 11  2  0
 11 12  1  0
 12 13  1  0
 12 14  1  0
 12 15  1  0
 15 16  2  0
 16 17  1  0
 16 18  1  0
 18 19  1  0
 18 20  2  0
 20 21  1  0
 20 22  1  0
 22 23  1  0
 22 24  2  0
 24 25  1  0
 10 26  1  0
 26 27  1  0
 26 28  1  0
 26 29  1  0
 29 30  1  0
 29 31  1  0
 29 32  1  0
 32 33  1  0
 32 34  1  0
  6 35  1  0
 35 36  1  0
 35 37  2  0
 37 38  1  0
 37  2  1  0
 11  7  1  0
 24 15  1  0
 32  9  1  0
M  END
>  <cnnaffinity>  (1) 
-6.33998

>  <filename>  (1) 
Clc1ccccc1Cc1c(-c2cccnc2)nn2c1CCC2

$$$$
