
     RDKit          3D

 23 25  0  0  0  0  0  0  0  0999 V2000
    4.9266    1.7858   16.9964 H   0  0  0  0  0  0  0  0  0  0  0  0
    5.4048    1.2940   17.8394 C   0  0  0  0  0  0  0  0  0  0  0  0
    6.5707    0.6786   17.5814 N   0  0  0  0  0  0  0  0  0  0  0  0
    7.1672    0.0475   18.5962 C   0  0  0  0  0  0  0  0  0  0  0  0
    8.1156   -0.4392   18.3762 H   0  0  0  0  0  0  0  0  0  0  0  0
    6.6448    0.0092   19.9014 C   0  0  0  0  0  0  0  0  0  0  0  0
    7.3623   -0.6884   20.9703 C   0  0  0  0  0  0  0  0  0  0  0  0
    7.8162   -1.9571   20.7323 N   0  0  0  0  0  0  0  0  0  0  0  0
    8.3379   -2.5353   21.7366 N   0  0  0  0  0  0  0  0  0  0  0  0
    8.3311   -1.5339   23.1050 S   0  0  0  0  0  0  0  0  0  0  0  0
    7.5993   -0.2361   22.2652 C   0  0  0  0  0  0  0  0  0  0  0  0
    7.3616    1.0931   22.8097 C   0  0  0  0  0  0  0  0  0  0  0  0
    7.1317    1.3569   24.5172 S   0  0  0  0  0  0  0  0  0  0  0  0
    7.0160    3.0592   24.2558 C   0  0  0  0  0  0  0  0  0  0  0  0
    6.7796    4.1159   25.5845 Cl  0  0  0  0  0  0  0  0  0  0  0  0
    7.1431    3.4260   22.9510 C   0  0  0  0  0  0  0  0  0  0  0  0
    7.0927    4.4593   22.6141 H   0  0  0  0  0  0  0  0  0  0  0  0
    7.3501    2.2872   22.1231 C   0  0  0  0  0  0  0  0  0  0  0  0
    7.4849    2.3480   21.0509 H   0  0  0  0  0  0  0  0  0  0  0  0
    5.4214    0.6429   20.1540 C   0  0  0  0  0  0  0  0  0  0  0  0
    5.0028    0.6365   21.1623 H   0  0  0  0  0  0  0  0  0  0  0  0
    4.7987    1.3070   19.0994 C   0  0  0  0  0  0  0  0  0  0  0  0
    3.8726    1.8433   19.2512 H   0  0  0  0  0  0  0  0  0  0  0  0
  1  2  1  0
  2  3  2  0
  3  4  1  0
  4  5  1  0
  4  6  2  0
  6  7  1  0
  7  8  1  0
  8  9  2  0
  9 10  1  0
 10 11  1  0
 11 12  1  0
 12 13  1  0
 13 14  1  0
 14 15  1  0
 14 16  2  0
 16 17  1  0
 16 18  1  0
 18 19  1  0
  6 20  1  0
 20 21  1  0
 20 22  2  0
 22 23  1  0
 22  2  1  0
 11  7  2  0
 18 12  2  0
M  END
>  <cnnaffinity>  (1) 
-4.85359

>  <filename>  (1) 
Clc1ccc(-c2snnc2-c2cccnc2)s1

$$$$
