
     RDKit          3D

 25 26  0  0  0  0  0  0  0  0999 V2000
    4.9546    1.8471   16.9964 H   0  0  0  0  0  0  0  0  0  0  0  0
    5.3909    1.2829   17.8135 C   0  0  0  0  0  0  0  0  0  0  0  0
    6.5433    0.6481   17.5432 N   0  0  0  0  0  0  0  0  0  0  0  0
    7.1490   -0.0019   18.5444 C   0  0  0  0  0  0  0  0  0  0  0  0
    8.0947   -0.4812   18.2951 H   0  0  0  0  0  0  0  0  0  0  0  0
    6.6491   -0.0590   19.8628 C   0  0  0  0  0  0  0  0  0  0  0  0
    7.5601   -0.9026   21.1494 S   0  0  0  0  0  0  0  0  0  0  0  0
    8.6277    0.4721   21.7656 C   0  0  0  0  0  0  0  0  0  0  0  0
    9.1605    0.9104   20.9126 H   0  0  0  0  0  0  0  0  0  0  0  0
    9.3809    0.0129   22.4180 H   0  0  0  0  0  0  0  0  0  0  0  0
    7.8490    1.5666   22.4588 C   0  0  0  0  0  0  0  0  0  0  0  0
    7.6253    2.7503   21.7458 C   0  0  0  0  0  0  0  0  0  0  0  0
    8.1248    2.8443   20.7915 H   0  0  0  0  0  0  0  0  0  0  0  0
    6.8161    3.7666   22.2477 C   0  0  0  0  0  0  0  0  0  0  0  0
    6.5893    4.6588   21.6635 H   0  0  0  0  0  0  0  0  0  0  0  0
    6.2565    3.6364   23.5203 C   0  0  0  0  0  0  0  0  0  0  0  0
    5.2819    4.9334   24.1228 Cl  0  0  0  0  0  0  0  0  0  0  0  0
    6.4988    2.4717   24.2699 C   0  0  0  0  0  0  0  0  0  0  0  0
    5.8334    2.2621   25.8533 Cl  0  0  0  0  0  0  0  0  0  0  0  0
    7.2821    1.4424   23.7345 C   0  0  0  0  0  0  0  0  0  0  0  0
    7.4059    0.5434   24.3272 H   0  0  0  0  0  0  0  0  0  0  0  0
    5.4276    0.5921   20.1188 C   0  0  0  0  0  0  0  0  0  0  0  0
    5.0162    0.5878   21.1259 H   0  0  0  0  0  0  0  0  0  0  0  0
    4.7854    1.2675   19.0745 C   0  0  0  0  0  0  0  0  0  0  0  0
    3.8596    1.8184   19.2259 H   0  0  0  0  0  0  0  0  0  0  0  0
  1  2  1  0
  2  3  2  0
  3  4  1  0
  4  5  1  0
  4  6  2  0
  6  7  1  0
  7  8  1  0
  8  9  1  0
  8 10  1  0
  8 11  1  0
 11 12  2  0
 12 13  1  0
 12 14  1  0
 14 15  1  0
 14 16  2  0
 16 17  1  0
 16 18  1  0
 18 19  1  0
 18 20  2  0
 20 21  1  0
  6 22  1  0
 22 23  1  0
 22 24  2  0
 24 25  1  0
 24  2  1  0
 20 11  1  0
M  END
>  <cnnaffinity>  (1) 
-4.74653

>  <filename>  (1) 
Clc1ccc(CSc2cccnc2)cc1Cl

$$$$
