
     RDKit          3D

 35 38  0  0  0  0  0  0  0  0999 V2000
    4.9922    1.7638   16.9696 H   0  0  0  0  0  0  0  0  0  0  0  0
    5.4730    1.2741   17.8118 C   0  0  0  0  0  0  0  0  0  0  0  0
    6.6391    0.6613   17.5586 N   0  0  0  0  0  0  0  0  0  0  0  0
    7.2560    0.0570   18.5834 C   0  0  0  0  0  0  0  0  0  0  0  0
    8.1942   -0.4350   18.3396 H   0  0  0  0  0  0  0  0  0  0  0  0
    6.7629    0.0097   19.9236 C   0  0  0  0  0  0  0  0  0  0  0  0
    7.4277   -0.6400   20.9421 N   0  0  0  0  0  0  0  0  0  0  0  0
    8.7820   -1.1862   20.8092 C   0  0  0  0  0  0  0  0  0  0  0  0
    9.5058   -0.4002   20.5476 H   0  0  0  0  0  0  0  0  0  0  0  0
    8.8222   -1.9426   20.0269 H   0  0  0  0  0  0  0  0  0  0  0  0
    9.0888   -1.8064   22.1615 C   0  0  1  0  0  0  0  0  0  0  0  0
    9.6832   -2.7124   22.2025 H   0  0  0  0  0  0  0  0  0  0  0  0
    9.1630   -0.8443   23.3107 C   0  0  1  0  0  0  0  0  0  0  0  0
    9.7092   -1.0996   24.2180 H   0  0  0  0  0  0  0  0  0  0  0  0
    9.1795    0.5218   22.9769 O   0  0  0  0  0  0  0  0  0  0  0  0
   10.3791    1.1126   22.6872 C   0  0  0  0  0  0  0  0  0  0  0  0
   10.3418    2.4913   22.4164 C   0  0  0  0  0  0  0  0  0  0  0  0
    9.3758    2.9664   22.2828 H   0  0  0  0  0  0  0  0  0  0  0  0
   11.5355    3.2067   22.3342 C   0  0  0  0  0  0  0  0  0  0  0  0
   11.5140    4.2794   22.1434 H   0  0  0  0  0  0  0  0  0  0  0  0
   12.7713    2.5732   22.5004 C   0  0  0  0  0  0  0  0  0  0  0  0
   13.7023    3.1317   22.5465 H   0  0  0  0  0  0  0  0  0  0  0  0
   12.7892    1.1889   22.6425 C   0  0  0  0  0  0  0  0  0  0  0  0
   14.3043    0.3536   22.8161 Cl  0  0  0  0  0  0  0  0  0  0  0  0
   11.6121    0.4454   22.7019 C   0  0  0  0  0  0  0  0  0  0  0  0
   11.6766   -0.6296   22.7778 H   0  0  0  0  0  0  0  0  0  0  0  0
    7.8942   -1.5861   23.0438 C   0  0  1  0  0  0  0  0  0  0  0  0
    7.5684   -2.3192   23.7672 H   0  0  0  0  0  0  0  0  0  0  0  0
    6.8336   -0.8485   22.2594 C   0  0  0  0  0  0  0  0  0  0  0  0
    6.5717    0.1015   22.7482 H   0  0  0  0  0  0  0  0  0  0  0  0
    5.9284   -1.4613   22.1754 H   0  0  0  0  0  0  0  0  0  0  0  0
    5.5239    0.6565   20.1469 C   0  0  0  0  0  0  0  0  0  0  0  0
    5.0828    0.6553   21.1434 H   0  0  0  0  0  0  0  0  0  0  0  0
    4.8838    1.2900   19.0807 C   0  0  0  0  0  0  0  0  0  0  0  0
    3.9388    1.8021   19.2285 H   0  0  0  0  0  0  0  0  0  0  0  0
  1  2  1  0
  2  3  2  0
  3  4  1  0
  4  5  1  0
  4  6  2  0
  6  7  1  0
  7  8  1  0
  8  9  1  0
  8 10  1  0
  8 11  1  0
 11 12  1  6
 11 13  1  0
 13 14  1  1
 13 15  1  0
 15 16  1  0
 16 17  2  0
 17 18  1  0
 17 19  1  0
 19 20  1  0
 19 21  2  0
 21 22  1  0
 21 23  1  0
 23 24  1  0
 23 25  2  0
 25 26  1  0
 13 27  1  0
 27 28  1  1
 27 29  1  0
 29 30  1  0
 29 31  1  0
  6 32  1  0
 32 33  1  0
 32 34  2  0
 34 35  1  0
 34  2  1  0
 29  7  1  0
 27 11  1  0
 25 16  1  0
M  END
>  <cnnaffinity>  (1) 
-5.06246

>  <filename>  (1) 
Clc1cccc(O[C@@H]2[C@@H]3CN(c4cccnc4)C[C@@H]32)c1

$$$$
