
     RDKit          3D

 33 35  0  0  0  0  0  0  0  0999 V2000
    5.0383    1.8037   17.0523 H   0  0  0  0  0  0  0  0  0  0  0  0
    5.4941    1.2701   17.8817 C   0  0  0  0  0  0  0  0  0  0  0  0
    6.6471    0.6323   17.6129 N   0  0  0  0  0  0  0  0  0  0  0  0
    7.2163   -0.0366   18.6281 C   0  0  0  0  0  0  0  0  0  0  0  0
    8.1476   -0.5539   18.4052 H   0  0  0  0  0  0  0  0  0  0  0  0
    6.6803   -0.1279   19.9457 C   0  0  0  0  0  0  0  0  0  0  0  0
    7.2590   -0.8904   20.9301 N   0  0  0  0  0  0  0  0  0  0  0  0
    6.8576   -1.1163   22.3091 C   0  0  0  0  0  0  0  0  0  0  0  0
    5.9697   -1.7488   22.4119 H   0  0  0  0  0  0  0  0  0  0  0  0
    6.7180   -0.1864   22.8830 H   0  0  0  0  0  0  0  0  0  0  0  0
    8.2102   -1.8244   22.5275 C   0  0  0  0  0  0  0  0  0  0  0  0
    8.7945   -1.4693   23.3767 H   0  0  0  0  0  0  0  0  0  0  0  0
    8.1049   -2.9108   22.5814 H   0  0  0  0  0  0  0  0  0  0  0  0
    8.6324   -1.3414   21.1171 C   0  0  2  0  0  0  0  0  0  0  0  0
    8.8729   -2.1671   20.4277 H   0  0  0  0  0  0  0  0  0  0  0  0
    9.7353   -0.2687   20.9779 C   0  0  0  0  0  0  0  0  0  0  0  0
    9.7353    0.0418   19.9278 H   0  0  0  0  0  0  0  0  0  0  0  0
   10.6853   -0.7763   21.1710 H   0  0  0  0  0  0  0  0  0  0  0  0
    9.6315    0.9672   21.8515 C   0  0  0  0  0  0  0  0  0  0  0  0
   10.2573    0.9968   23.1100 C   0  0  0  0  0  0  0  0  0  0  0  0
   10.8362    0.1363   23.4400 H   0  0  0  0  0  0  0  0  0  0  0  0
   10.1568    2.1191   23.9371 C   0  0  0  0  0  0  0  0  0  0  0  0
   10.6307    2.1095   24.9126 H   0  0  0  0  0  0  0  0  0  0  0  0
    9.4424    3.2401   23.5105 C   0  0  0  0  0  0  0  0  0  0  0  0
    9.3703    4.1305   24.1265 H   0  0  0  0  0  0  0  0  0  0  0  0
    8.8201    3.2187   22.2617 C   0  0  0  0  0  0  0  0  0  0  0  0
    7.8809    4.6122   21.7884 Cl  0  0  0  0  0  0  0  0  0  0  0  0
    8.9175    2.1032   21.4218 C   0  0  0  0  0  0  0  0  0  0  0  0
    8.4389    2.1325   20.4451 H   0  0  0  0  0  0  0  0  0  0  0  0
    5.4835    0.5693   20.1960 C   0  0  0  0  0  0  0  0  0  0  0  0
    5.0528    0.5461   21.2013 H   0  0  0  0  0  0  0  0  0  0  0  0
    4.8857    1.2671   19.1443 C   0  0  0  0  0  0  0  0  0  0  0  0
    3.9563    1.8132   19.3024 H   0  0  0  0  0  0  0  0  0  0  0  0
  1  2  1  0
  2  3  2  0
  3  4  1  0
  4  5  1  0
  4  6  2  0
  6  7  1  0
  7  8  1  0
  8  9  1  0
  8 10  1  0
  8 11  1  0
 11 12  1  0
 11 13  1  0
 11 14  1  0
 14 15  1  6
 14 16  1  0
 16 17  1  0
 16 18  1  0
 16 19  1  0
 19 20  2  0
 20 21  1  0
 20 22  1  0
 22 23  1  0
 22 24  2  0
 24 25  1  0
 24 26  1  0
 26 27  1  0
 26 28  2  0
 28 29  1  0
  6 30  1  0
 30 31  1  0
 30 32  2  0
 32 33  1  0
 32  2  1  0
 14  7  1  0
 28 19  1  0
M  END
>  <cnnaffinity>  (1) 
-4.80201

>  <filename>  (1) 
Clc1cccc(C[C@H]2CCN2c2cccnc2)c1

$$$$
