
     RDKit          3D

 24 26  0  0  0  0  0  0  0  0999 V2000
    4.9521    1.8093   16.9738 H   0  0  0  0  0  0  0  0  0  0  0  0
    5.3987    1.2968   17.8223 C   0  0  0  0  0  0  0  0  0  0  0  0
    6.5595    0.6725   17.5755 N   0  0  0  0  0  0  0  0  0  0  0  0
    7.1575    0.0604   18.5962 C   0  0  0  0  0  0  0  0  0  0  0  0
    8.1145   -0.3966   18.3471 H   0  0  0  0  0  0  0  0  0  0  0  0
    6.6397    0.0115   19.8931 C   0  0  0  0  0  0  0  0  0  0  0  0
    7.3747   -0.6972   20.9443 C   0  0  0  0  0  0  0  0  0  0  0  0
    7.1427   -0.5968   22.2252 N   0  0  0  0  0  0  0  0  0  0  0  0
    8.0544   -1.4335   22.7867 C   0  0  0  0  0  0  0  0  0  0  0  0
    8.0992   -1.6071   24.2236 C   0  0  0  0  0  0  0  0  0  0  0  0
    6.9142   -0.7396   25.1306 S   0  0  0  0  0  0  0  0  0  0  0  0
    7.4688   -1.4876   26.5663 C   0  0  0  0  0  0  0  0  0  0  0  0
    6.6035   -1.1689   28.0084 Cl  0  0  0  0  0  0  0  0  0  0  0  0
    8.5342   -2.3240   26.3898 C   0  0  0  0  0  0  0  0  0  0  0  0
    9.0239   -2.8252   27.2210 H   0  0  0  0  0  0  0  0  0  0  0  0
    8.8944   -2.4043   25.0114 C   0  0  0  0  0  0  0  0  0  0  0  0
    9.6914   -3.0288   24.6126 H   0  0  0  0  0  0  0  0  0  0  0  0
    8.8374   -2.0597   21.9267 N   0  0  0  0  0  0  0  0  0  0  0  0
    8.3920   -1.5639   20.7515 N   0  0  0  0  0  0  0  0  0  0  0  0
    8.7729   -1.8838   19.8790 H   0  0  0  0  0  0  0  0  0  0  0  0
    5.4182    0.6678   20.1440 C   0  0  0  0  0  0  0  0  0  0  0  0
    4.9889    0.6723   21.1492 H   0  0  0  0  0  0  0  0  0  0  0  0
    4.7890    1.3157   19.0818 C   0  0  0  0  0  0  0  0  0  0  0  0
    3.8548    1.8531   19.2092 H   0  0  0  0  0  0  0  0  0  0  0  0
  1  2  1  0
  2  3  2  0
  3  4  1  0
  4  5  1  0
  4  6  2  0
  6  7  1  0
  7  8  2  0
  8  9  1  0
  9 10  1  0
 10 11  1  0
 11 12  1  0
 12 13  1  0
 12 14  2  0
 14 15  1  0
 14 16  1  0
 16 17  1  0
  9 18  2  0
 18 19  1  0
 19 20  1  0
  6 21  1  0
 21 22  1  0
 21 23  2  0
 23 24  1  0
 23  2  1  0
 19  7  1  0
 16 10  2  0
M  END
>  <cnnaffinity>  (1) 
-5.04886

>  <filename>  (1) 
Clc1ccc(-c2n[nH]c(-c3cccnc3)n2)s1

$$$$
