
     RDKit          3D

 31 33  0  0  0  0  0  0  0  0999 V2000
    5.0505    1.7749   16.9442 H   0  0  0  0  0  0  0  0  0  0  0  0
    5.4560    1.3010   17.8347 C   0  0  0  0  0  0  0  0  0  0  0  0
    6.6230    0.6569   17.6677 N   0  0  0  0  0  0  0  0  0  0  0  0
    7.1539    0.0542   18.7366 C   0  0  0  0  0  0  0  0  0  0  0  0
    8.1066   -0.4617   18.5947 H   0  0  0  0  0  0  0  0  0  0  0  0
    6.5615    0.0651   20.0186 C   0  0  0  0  0  0  0  0  0  0  0  0
    7.1686   -0.6669   21.0846 N   0  0  0  0  0  0  0  0  0  0  0  0
    7.6078   -0.2349   22.3276 C   0  0  0  0  0  0  0  0  0  0  0  0
    7.3287    1.0804   22.9946 C   0  0  0  0  0  0  0  0  0  0  0  0
    6.6501    0.8657   23.8310 H   0  0  0  0  0  0  0  0  0  0  0  0
    6.8251    1.7692   22.3171 H   0  0  0  0  0  0  0  0  0  0  0  0
    8.6032    1.6971   23.5370 C   0  0  0  0  0  0  0  0  0  0  0  0
    8.9492    1.5182   24.8820 C   0  0  0  0  0  0  0  0  0  0  0  0
    8.2129    1.0634   25.5410 H   0  0  0  0  0  0  0  0  0  0  0  0
   10.2135    1.8612   25.3621 C   0  0  0  0  0  0  0  0  0  0  0  0
   10.4663    1.6538   26.3952 H   0  0  0  0  0  0  0  0  0  0  0  0
   11.1456    2.4489   24.5017 C   0  0  0  0  0  0  0  0  0  0  0  0
   12.1392    2.6858   24.8708 H   0  0  0  0  0  0  0  0  0  0  0  0
   10.8023    2.7103   23.1726 C   0  0  0  0  0  0  0  0  0  0  0  0
   11.4989    3.1977   22.4996 H   0  0  0  0  0  0  0  0  0  0  0  0
    9.5431    2.3185   22.7015 C   0  0  0  0  0  0  0  0  0  0  0  0
    9.1573    2.5301   21.0253 Cl  0  0  0  0  0  0  0  0  0  0  0  0
    8.2417   -1.1900   22.9653 N   0  0  0  0  0  0  0  0  0  0  0  0
    8.2005   -2.2903   22.1545 C   0  0  0  0  0  0  0  0  0  0  0  0
    8.6530   -3.2251   22.4656 H   0  0  0  0  0  0  0  0  0  0  0  0
    7.5349   -1.9996   21.0016 C   0  0  0  0  0  0  0  0  0  0  0  0
    7.1959   -2.6054   20.1769 H   0  0  0  0  0  0  0  0  0  0  0  0
    5.3551    0.7639   20.1863 C   0  0  0  0  0  0  0  0  0  0  0  0
    4.8788    0.8099   21.1690 H   0  0  0  0  0  0  0  0  0  0  0  0
    4.7877    1.3786   19.0623 C   0  0  0  0  0  0  0  0  0  0  0  0
    3.8580    1.9344   19.1347 H   0  0  0  0  0  0  0  0  0  0  0  0
  1  2  1  0
  2  3  2  0
  3  4  1  0
  4  5  1  0
  4  6  2  0
  6  7  1  0
  7  8  1  0
  8  9  1  0
  9 10  1  0
  9 11  1  0
  9 12  1  0
 12 13  2  0
 13 14  1  0
 13 15  1  0
 15 16  1  0
 15 17  2  0
 17 18  1  0
 17 19  1  0
 19 20  1  0
 19 21  2  0
 21 22  1  0
  8 23  2  0
 23 24  1  0
 24 25  1  0
 24 26  2  0
 26 27  1  0
  6 28  1  0
 28 29  1  0
 28 30  2  0
 30 31  1  0
 30  2  1  0
 26  7  1  0
 21 12  1  0
M  END
>  <cnnaffinity>  (1) 
-5.48589

>  <filename>  (1) 
Clc1ccccc1Cc1nccn1-c1cccnc1

$$$$
