
     RDKit          3D

 32 34  0  0  0  0  0  0  0  0999 V2000
    4.9269    1.7810   16.9974 H   0  0  0  0  0  0  0  0  0  0  0  0
    5.4034    1.2881   17.8451 C   0  0  0  0  0  0  0  0  0  0  0  0
    6.5694    0.6696   17.6015 N   0  0  0  0  0  0  0  0  0  0  0  0
    7.1787    0.0557   18.6258 C   0  0  0  0  0  0  0  0  0  0  0  0
    8.1222   -0.4362   18.4095 H   0  0  0  0  0  0  0  0  0  0  0  0
    6.6554    0.0095   19.9332 C   0  0  0  0  0  0  0  0  0  0  0  0
    7.3761   -0.6968   20.8649 O   0  0  0  0  0  0  0  0  0  0  0  0
    7.2466   -0.4269   22.2008 C   0  0  0  0  0  0  0  0  0  0  0  0
    7.1648   -1.3923   23.2236 C   0  0  0  0  0  0  0  0  0  0  0  0
    7.1543   -2.4671   23.1245 H   0  0  0  0  0  0  0  0  0  0  0  0
    7.1279   -0.8134   24.4219 N   0  0  0  0  0  0  0  0  0  0  0  0
    7.1898    0.4975   24.1607 N   0  0  0  0  0  0  0  0  0  0  0  0
    7.2174    1.1428   24.9377 H   0  0  0  0  0  0  0  0  0  0  0  0
    7.2826    0.8001   22.8379 C   0  0  0  0  0  0  0  0  0  0  0  0
    7.4974    2.1922   22.3284 C   0  0  0  0  0  0  0  0  0  0  0  0
    6.6634    2.8383   22.6374 H   0  0  0  0  0  0  0  0  0  0  0  0
    7.4871    2.1634   21.2356 H   0  0  0  0  0  0  0  0  0  0  0  0
    8.8139    2.7711   22.8174 C   0  0  0  0  0  0  0  0  0  0  0  0
    8.8352    3.6022   23.9428 C   0  0  0  0  0  0  0  0  0  0  0  0
    7.8868    3.8518   24.4142 H   0  0  0  0  0  0  0  0  0  0  0  0
   10.0311    4.1114   24.4502 C   0  0  0  0  0  0  0  0  0  0  0  0
   10.0101    4.7746   25.3079 H   0  0  0  0  0  0  0  0  0  0  0  0
   11.2398    3.7745   23.8348 C   0  0  0  0  0  0  0  0  0  0  0  0
   12.1753    4.1763   24.2076 H   0  0  0  0  0  0  0  0  0  0  0  0
   11.2563    2.9208   22.7300 C   0  0  0  0  0  0  0  0  0  0  0  0
   12.1828    2.6413   22.2350 H   0  0  0  0  0  0  0  0  0  0  0  0
   10.0458    2.4211   22.2411 C   0  0  0  0  0  0  0  0  0  0  0  0
   10.1097    1.3163   20.9005 Cl  0  0  0  0  0  0  0  0  0  0  0  0
    5.4288    0.6373   20.1787 C   0  0  0  0  0  0  0  0  0  0  0  0
    5.0103    0.6283   21.1857 H   0  0  0  0  0  0  0  0  0  0  0  0
    4.8084    1.3002   19.1103 C   0  0  0  0  0  0  0  0  0  0  0  0
    3.8809    1.8373   19.2541 H   0  0  0  0  0  0  0  0  0  0  0  0
  1  2  1  0
  2  3  2  0
  3  4  1  0
  4  5  1  0
  4  6  2  0
  6  7  1  0
  7  8  1  0
  8  9  1  0
  9 10  1  0
  9 11  2  0
 11 12  1  0
 12 13  1  0
 12 14  1  0
 14 15  1  0
 15 16  1  0
 15 17  1  0
 15 18  1  0
 18 19  2  0
 19 20  1  0
 19 21  1  0
 21 22  1  0
 21 23  2  0
 23 24  1  0
 23 25  1  0
 25 26  1  0
 25 27  2  0
 27 28  1  0
  6 29  1  0
 29 30  1  0
 29 31  2  0
 31 32  1  0
 31  2  1  0
 14  8  2  0
 27 18  1  0
M  END
>  <cnnaffinity>  (1) 
-5.24261

>  <filename>  (1) 
Clc1ccccc1Cc1[nH]ncc1Oc1cccnc1

$$$$
