
     RDKit          3D

 38 41  0  0  0  0  0  0  0  0999 V2000
    4.9266    1.8612   16.9380 H   0  0  0  0  0  0  0  0  0  0  0  0
    5.3969    1.3260   17.7615 C   0  0  0  0  0  0  0  0  0  0  0  0
    6.5335    0.6777   17.4632 N   0  0  0  0  0  0  0  0  0  0  0  0
    7.1230    0.0056   18.4620 C   0  0  0  0  0  0  0  0  0  0  0  0
    8.0466   -0.5199   18.2156 H   0  0  0  0  0  0  0  0  0  0  0  0
    6.6330   -0.0820   19.7768 C   0  0  0  0  0  0  0  0  0  0  0  0
    7.3215   -0.8969   20.8057 C   0  0  0  0  0  0  0  0  0  0  0  0
    8.6349   -0.7537   21.3615 C   0  0  0  0  0  0  0  0  0  0  0  0
    9.7669    0.0384   20.7669 C   0  0  0  0  0  0  0  0  0  0  0  0
    9.3634    0.8020   20.0914 H   0  0  0  0  0  0  0  0  0  0  0  0
   10.3170   -0.6810   20.1535 H   0  0  0  0  0  0  0  0  0  0  0  0
   10.7217    0.6538   21.7647 C   0  0  0  0  0  0  0  0  0  0  0  0
   11.9599    0.0455   22.0228 C   0  0  0  0  0  0  0  0  0  0  0  0
   12.2419   -0.8301   21.4403 H   0  0  0  0  0  0  0  0  0  0  0  0
   12.8332    0.5485   22.9906 C   0  0  0  0  0  0  0  0  0  0  0  0
   13.7902    0.0661   23.1700 H   0  0  0  0  0  0  0  0  0  0  0  0
   12.4690    1.6810   23.7216 C   0  0  0  0  0  0  0  0  0  0  0  0
   13.1340    2.0593   24.4885 H   0  0  0  0  0  0  0  0  0  0  0  0
   11.2525    2.3214   23.4727 C   0  0  0  0  0  0  0  0  0  0  0  0
   10.9543    3.2131   24.0147 H   0  0  0  0  0  0  0  0  0  0  0  0
   10.3985    1.8082   22.4922 C   0  0  0  0  0  0  0  0  0  0  0  0
    8.9071    2.6536   22.1760 Cl  0  0  0  0  0  0  0  0  0  0  0  0
    8.8442   -1.6020   22.3646 N   0  0  0  0  0  0  0  0  0  0  0  0
    7.7003   -2.2835   22.4417 N   0  0  0  0  0  0  0  0  0  0  0  0
    6.7905   -1.9608   21.5159 C   0  0  0  0  0  0  0  0  0  0  0  0
    5.7592   -3.0429   21.4372 C   0  0  0  0  0  0  0  0  0  0  0  0
    4.7564   -2.6495   21.4124 H   0  0  0  0  0  0  0  0  0  0  0  0
    5.9298   -3.6455   20.5361 H   0  0  0  0  0  0  0  0  0  0  0  0
    5.9752   -3.8185   22.7480 C   0  0  0  0  0  0  0  0  0  0  0  0
    5.2890   -3.4196   23.4992 H   0  0  0  0  0  0  0  0  0  0  0  0
    5.7696   -4.8835   22.6360 H   0  0  0  0  0  0  0  0  0  0  0  0
    7.4308   -3.5109   23.1637 C   0  0  0  0  0  0  0  0  0  0  0  0
    8.1233   -4.2829   22.8186 H   0  0  0  0  0  0  0  0  0  0  0  0
    7.5372   -3.3493   24.2382 H   0  0  0  0  0  0  0  0  0  0  0  0
    5.4466    0.6103   20.0640 C   0  0  0  0  0  0  0  0  0  0  0  0
    5.0488    0.6114   21.0807 H   0  0  0  0  0  0  0  0  0  0  0  0
    4.8208    1.3265   19.0368 C   0  0  0  0  0  0  0  0  0  0  0  0
    3.9065    1.8852   19.2091 H   0  0  0  0  0  0  0  0  0  0  0  0
  1  2  1  0
  2  3  2  0
  3  4  1  0
  4  5  1  0
  4  6  2  0
  6  7  1  0
  7  8  1  0
  8  9  1  0
  9 10  1  0
  9 11  1  0
  9 12  1  0
 12 13  2  0
 13 14  1  0
 13 15  1  0
 15 16  1  0
 15 17  2  0
 17 18  1  0
 17 19  1  0
 19 20  1  0
 19 21  2  0
 21 22  1  0
  8 23  2  0
 23 24  1  0
 24 25  1  0
 25 26  1  0
 26 27  1  0
 26 28  1  0
 26 29  1  0
 29 30  1  0
 29 31  1  0
 29 32  1  0
 32 33  1  0
 32 34  1  0
  6 35  1  0
 35 36  1  0
 35 37  2  0
 37 38  1  0
 37  2  1  0
 25  7  2  0
 21 12  1  0
 32 24  1  0
M  END
>  <cnnaffinity>  (1) 
-5.84653

>  <filename>  (1) 
Clc1ccccc1Cc1nn2c(c1-c1cccnc1)CCC2

$$$$
