
     RDKit          3D

 35 37  0  0  0  0  0  0  0  0999 V2000
    8.3035    1.0771   23.6957 H   0  0  0  0  0  0  0  0  0  0  0  0
    8.0025    0.9327   22.6535 C   0  0  0  0  0  0  0  0  0  0  0  0
    7.8376   -0.3316   22.2389 C   0  0  0  0  0  0  0  0  0  0  0  0
    7.3025   -0.8655   20.9644 C   0  0  0  0  0  0  0  0  0  0  0  0
    6.6033   -0.0700   19.9219 C   0  0  0  0  0  0  0  0  0  0  0  0
    7.1417   -0.0868   18.6333 C   0  0  0  0  0  0  0  0  0  0  0  0
    8.0371   -0.6692   18.4188 H   0  0  0  0  0  0  0  0  0  0  0  0
    6.6205    0.5889   17.6053 N   0  0  0  0  0  0  0  0  0  0  0  0
    5.4995    1.2934   17.8310 C   0  0  0  0  0  0  0  0  0  0  0  0
    5.0994    1.8359   16.9769 H   0  0  0  0  0  0  0  0  0  0  0  0
    4.8501    1.3332   19.0688 C   0  0  0  0  0  0  0  0  0  0  0  0
    3.9342    1.9042   19.1805 H   0  0  0  0  0  0  0  0  0  0  0  0
    5.4123    0.6349   20.1399 C   0  0  0  0  0  0  0  0  0  0  0  0
    4.9407    0.6371   21.1238 H   0  0  0  0  0  0  0  0  0  0  0  0
    7.4798   -2.1224   20.7971 N   0  0  0  0  0  0  0  0  0  0  0  0
    8.0917   -2.6999   21.9979 C   0  0  0  0  0  0  0  0  0  0  0  0
    9.0356   -3.1694   21.7043 H   0  0  0  0  0  0  0  0  0  0  0  0
    7.4329   -3.4867   22.3792 H   0  0  0  0  0  0  0  0  0  0  0  0
    8.2953   -1.5571   23.0207 C   0  0  0  0  0  0  0  0  0  0  0  0
    7.6867   -1.7019   23.9210 H   0  0  0  0  0  0  0  0  0  0  0  0
    9.3420   -1.4573   23.3315 H   0  0  0  0  0  0  0  0  0  0  0  0
    7.8592    2.1979   21.8244 C   0  0  0  0  0  0  0  0  0  0  0  0
    6.7941    2.4255   21.6962 H   0  0  0  0  0  0  0  0  0  0  0  0
    8.2455    2.0152   20.8133 H   0  0  0  0  0  0  0  0  0  0  0  0
    8.5483    3.4041   22.4551 C   0  0  0  0  0  0  0  0  0  0  0  0
    7.8209    4.4097   23.1072 C   0  0  0  0  0  0  0  0  0  0  0  0
    6.7328    4.4042   23.0671 H   0  0  0  0  0  0  0  0  0  0  0  0
    8.4609    5.4393   23.8039 C   0  0  0  0  0  0  0  0  0  0  0  0
    7.9115    6.1678   24.3944 H   0  0  0  0  0  0  0  0  0  0  0  0
    9.8555    5.5174   23.8143 C   0  0  0  0  0  0  0  0  0  0  0  0
   10.6107    6.7772   24.7370 Cl  0  0  0  0  0  0  0  0  0  0  0  0
   10.6005    4.5565   23.1134 C   0  0  0  0  0  0  0  0  0  0  0  0
   12.3241    4.6653   23.0023 Cl  0  0  0  0  0  0  0  0  0  0  0  0
    9.9466    3.4987   22.4687 C   0  0  0  0  0  0  0  0  0  0  0  0
   10.5506    2.7450   21.9734 H   0  0  0  0  0  0  0  0  0  0  0  0
  1  2  1  0
  2  3  2  3
  3  4  1  0
  4  5  1  0
  5  6  2  0
  6  7  1  0
  6  8  1  0
  8  9  2  0
  9 10  1  0
  9 11  1  0
 11 12  1  0
 11 13  2  0
 13 14  1  0
  4 15  2  0
 15 16  1  0
 16 17  1  0
 16 18  1  0
 16 19  1  0
 19 20  1  0
 19 21  1  0
  2 22  1  0
 22 23  1  0
 22 24  1  0
 22 25  1  0
 25 26  2  0
 26 27  1  0
 26 28  1  0
 28 29  1  0
 28 30  2  0
 30 31  1  0
 30 32  1  0
 32 33  1  0
 32 34  2  0
 34 35  1  0
 19  3  1  0
 34 25  1  0
 13  5  1  0
M  END
>  <cnnaffinity>  (1) 
-5.67002

>  <filename>  (1) 
Clc1ccc(CC=C2CCN=C2c2cccnc2)cc1Cl

$$$$
