
     RDKit          3D

 31 33  0  0  0  0  0  0  0  0999 V2000
    4.9408    1.8360   16.9503 H   0  0  0  0  0  0  0  0  0  0  0  0
    5.3993    1.3226   17.7920 C   0  0  0  0  0  0  0  0  0  0  0  0
    6.5593    0.6948   17.5386 N   0  0  0  0  0  0  0  0  0  0  0  0
    7.1390    0.0537   18.5602 C   0  0  0  0  0  0  0  0  0  0  0  0
    8.0848   -0.4418   18.3413 H   0  0  0  0  0  0  0  0  0  0  0  0
    6.5999   -0.0279   19.8611 C   0  0  0  0  0  0  0  0  0  0  0  0
    7.3016   -0.7753   20.9388 C   0  0  0  0  0  0  0  0  0  0  0  0
    6.6249   -1.5926   21.8648 C   0  0  0  0  0  0  0  0  0  0  0  0
    5.5492   -1.7369   21.7887 H   0  0  0  0  0  0  0  0  0  0  0  0
    7.2409   -2.2616   22.8519 N   0  0  0  0  0  0  0  0  0  0  0  0
    8.5678   -2.1251   22.9821 C   0  0  0  0  0  0  0  0  0  0  0  0
    9.0513   -2.6709   23.7929 H   0  0  0  0  0  0  0  0  0  0  0  0
    9.3319   -1.3149   22.1230 C   0  0  0  0  0  0  0  0  0  0  0  0
   10.6957   -1.2683   22.3058 O   0  0  0  0  0  0  0  0  0  0  0  0
   11.4186   -0.0928   22.3175 C   0  0  0  0  0  0  0  0  0  0  0  0
   12.8104   -0.2570   22.2963 C   0  0  0  0  0  0  0  0  0  0  0  0
   13.1915   -1.2673   22.1972 H   0  0  0  0  0  0  0  0  0  0  0  0
   13.6481    0.8517   22.4178 C   0  0  0  0  0  0  0  0  0  0  0  0
   14.7295    0.7317   22.3628 H   0  0  0  0  0  0  0  0  0  0  0  0
   13.1062    2.1361   22.5606 C   0  0  0  0  0  0  0  0  0  0  0  0
   13.7399    3.0115   22.6684 H   0  0  0  0  0  0  0  0  0  0  0  0
   11.7215    2.2786   22.5666 C   0  0  0  0  0  0  0  0  0  0  0  0
   11.0200    3.8565   22.7564 Cl  0  0  0  0  0  0  0  0  0  0  0  0
   10.8610    1.1818   22.4623 C   0  0  0  0  0  0  0  0  0  0  0  0
    9.7918    1.3418   22.5202 H   0  0  0  0  0  0  0  0  0  0  0  0
    8.6936   -0.6578   21.0750 C   0  0  0  0  0  0  0  0  0  0  0  0
    9.2717   -0.0228   20.4080 H   0  0  0  0  0  0  0  0  0  0  0  0
    5.3935    0.6454   20.1010 C   0  0  0  0  0  0  0  0  0  0  0  0
    4.9681    0.6596   21.1058 H   0  0  0  0  0  0  0  0  0  0  0  0
    4.7848    1.3299   19.0488 C   0  0  0  0  0  0  0  0  0  0  0  0
    3.8568    1.8713   19.1904 H   0  0  0  0  0  0  0  0  0  0  0  0
  1  2  1  0
  2  3  2  0
  3  4  1  0
  4  5  1  0
  4  6  2  0
  6  7  1  0
  7  8  2  0
  8  9  1  0
  8 10  1  0
 10 11  2  0
 11 12  1  0
 11 13  1  0
 13 14  1  0
 14 15  1  0
 15 16  2  0
 16 17  1  0
 16 18  1  0
 18 19  1  0
 18 20  2  0
 20 21  1  0
 20 22  1  0
 22 23  1  0
 22 24  2  0
 24 25  1  0
 13 26  2  0
 26 27  1  0
  6 28  1  0
 28 29  1  0
 28 30  2  0
 30 31  1  0
 30  2  1  0
 26  7  1  0
 24 15  1  0
M  END
>  <cnnaffinity>  (1) 
-5.06859

>  <filename>  (1) 
Clc1cccc(Oc2cncc(-c3cccnc3)c2)c1

$$$$
