
     RDKit          3D

 27 29  0  0  0  0  0  0  0  0999 V2000
    4.9199    1.7781   16.9984 H   0  0  0  0  0  0  0  0  0  0  0  0
    5.4060    1.2933   17.8398 C   0  0  0  0  0  0  0  0  0  0  0  0
    6.5713    0.6794   17.5776 N   0  0  0  0  0  0  0  0  0  0  0  0
    7.1704    0.0595   18.5965 C   0  0  0  0  0  0  0  0  0  0  0  0
    8.1170   -0.4354   18.3820 H   0  0  0  0  0  0  0  0  0  0  0  0
    6.6500    0.0214   19.8990 C   0  0  0  0  0  0  0  0  0  0  0  0
    7.3896   -0.7107   20.9238 C   0  0  0  0  0  0  0  0  0  0  0  0
    8.0361   -1.8311   20.7269 N   0  0  0  0  0  0  0  0  0  0  0  0
    8.5412   -2.2472   21.9322 N   0  0  0  0  0  0  0  0  0  0  0  0
    8.2067   -1.3521   22.8158 C   0  0  0  0  0  0  0  0  0  0  0  0
    8.4750   -1.3553   23.8640 H   0  0  0  0  0  0  0  0  0  0  0  0
    7.4666   -0.3449   22.2518 N   0  0  0  0  0  0  0  0  0  0  0  0
    7.0254    0.8555   22.8898 C   0  0  0  0  0  0  0  0  0  0  0  0
    6.1266    0.7568   23.9593 C   0  0  0  0  0  0  0  0  0  0  0  0
    5.8089   -0.2308   24.2734 H   0  0  0  0  0  0  0  0  0  0  0  0
    5.6343    1.8892   24.6070 C   0  0  0  0  0  0  0  0  0  0  0  0
    4.9385    1.8038   25.4359 H   0  0  0  0  0  0  0  0  0  0  0  0
    6.0590    3.1483   24.1781 C   0  0  0  0  0  0  0  0  0  0  0  0
    5.4595    4.5683   24.9749 Cl  0  0  0  0  0  0  0  0  0  0  0  0
    6.9657    3.2877   23.1280 C   0  0  0  0  0  0  0  0  0  0  0  0
    7.2945    4.2728   22.8081 H   0  0  0  0  0  0  0  0  0  0  0  0
    7.4556    2.1405   22.4944 C   0  0  0  0  0  0  0  0  0  0  0  0
    8.6118    2.3409   21.2196 Cl  0  0  0  0  0  0  0  0  0  0  0  0
    5.4305    0.6615   20.1598 C   0  0  0  0  0  0  0  0  0  0  0  0
    4.9980    0.6366   21.1647 H   0  0  0  0  0  0  0  0  0  0  0  0
    4.8011    1.3126   19.1046 C   0  0  0  0  0  0  0  0  0  0  0  0
    3.8691    1.8460   19.2579 H   0  0  0  0  0  0  0  0  0  0  0  0
  1  2  1  0
  2  3  2  0
  3  4  1  0
  4  5  1  0
  4  6  2  0
  6  7  1  0
  7  8  2  0
  8  9  1  0
  9 10  2  0
 10 11  1  0
 10 12  1  0
 12 13  1  0
 13 14  2  0
 14 15  1  0
 14 16  1  0
 16 17  1  0
 16 18  2  0
 18 19  1  0
 18 20  1  0
 20 21  1  0
 20 22  2  0
 22 23  1  0
  6 24  1  0
 24 25  1  0
 24 26  2  0
 26 27  1  0
 26  2  1  0
 12  7  1  0
 22 13  1  0
M  END
>  <cnnaffinity>  (1) 
-4.92653

>  <filename>  (1) 
Clc1ccc(-n2cnnc2-c2cccnc2)c(Cl)c1

$$$$
