
     RDKit          3D

 32 34  0  0  0  0  0  0  0  0999 V2000
    4.9634    1.8344   16.9829 H   0  0  0  0  0  0  0  0  0  0  0  0
    5.4134    1.3056   17.8224 C   0  0  0  0  0  0  0  0  0  0  0  0
    6.5505    0.6403   17.5686 N   0  0  0  0  0  0  0  0  0  0  0  0
    7.1328   -0.0122   18.5818 C   0  0  0  0  0  0  0  0  0  0  0  0
    8.0478   -0.5507   18.3456 H   0  0  0  0  0  0  0  0  0  0  0  0
    6.6276   -0.0359   19.8986 C   0  0  0  0  0  0  0  0  0  0  0  0
    7.2738   -0.7555   20.9513 N   0  0  0  0  0  0  0  0  0  0  0  0
    6.6864   -1.6830   21.7761 C   0  0  0  0  0  0  0  0  0  0  0  0
    5.6549   -1.9982   21.6743 H   0  0  0  0  0  0  0  0  0  0  0  0
    7.5374   -2.1506   22.6425 N   0  0  0  0  0  0  0  0  0  0  0  0
    8.7361   -1.5232   22.4167 N   0  0  0  0  0  0  0  0  0  0  0  0
    8.5748   -0.6798   21.4305 C   0  0  0  0  0  0  0  0  0  0  0  0
    9.6737    0.1956   20.8520 C   0  0  0  0  0  0  0  0  0  0  0  0
    9.2563    0.8017   20.0416 H   0  0  0  0  0  0  0  0  0  0  0  0
   10.3957   -0.4970   20.4037 H   0  0  0  0  0  0  0  0  0  0  0  0
   10.4175    1.0745   21.7458 N   0  0  0  0  0  0  0  0  0  0  0  0
   11.1657    0.6154   22.2494 H   0  0  0  0  0  0  0  0  0  0  0  0
    9.8115    2.0740   22.5074 C   0  0  0  0  0  0  0  0  0  0  0  0
    8.4559    2.4351   22.3765 C   0  0  0  0  0  0  0  0  0  0  0  0
    7.8212    1.9351   21.6481 H   0  0  0  0  0  0  0  0  0  0  0  0
    7.9092    3.4093   23.2220 C   0  0  0  0  0  0  0  0  0  0  0  0
    6.8507    3.6287   23.1971 H   0  0  0  0  0  0  0  0  0  0  0  0
    8.7128    4.0774   24.1438 C   0  0  0  0  0  0  0  0  0  0  0  0
    7.9982    5.2487   25.2169 Cl  0  0  0  0  0  0  0  0  0  0  0  0
   10.0696    3.7643   24.2519 C   0  0  0  0  0  0  0  0  0  0  0  0
   10.6871    4.3148   24.9485 H   0  0  0  0  0  0  0  0  0  0  0  0
   10.6064    2.7521   23.4523 C   0  0  0  0  0  0  0  0  0  0  0  0
   11.6511    2.4671   23.5653 H   0  0  0  0  0  0  0  0  0  0  0  0
    5.4336    0.6507   20.1456 C   0  0  0  0  0  0  0  0  0  0  0  0
    5.0037    0.6567   21.1478 H   0  0  0  0  0  0  0  0  0  0  0  0
    4.8191    1.3293   19.0881 C   0  0  0  0  0  0  0  0  0  0  0  0
    3.8928    1.8732   19.2295 H   0  0  0  0  0  0  0  0  0  0  0  0
  1  2  1  0
  2  3  2  0
  3  4  1  0
  4  5  1  0
  4  6  2  0
  6  7  1  0
  7  8  1  0
  8  9  1  0
  8 10  2  0
 10 11  1  0
 11 12  2  0
 12 13  1  0
 13 14  1  0
 13 15  1  0
 13 16  1  0
 16 17  1  0
 16 18  1  0
 18 19  2  0
 19 20  1  0
 19 21  1  0
 21 22  1  0
 21 23  2  0
 23 24  1  0
 23 25  1  0
 25 26  1  0
 25 27  2  0
 27 28  1  0
  6 29  1  0
 29 30  1  0
 29 31  2  0
 31 32  1  0
 31  2  1  0
 12  7  1  0
 27 18  1  0
M  END
>  <cnnaffinity>  (1) 
-5.0689

>  <filename>  (1) 
Clc1ccc(NCc2nncn2-c2cccnc2)cc1

$$$$
