
     RDKit          3D

 35 38  0  0  0  0  0  0  0  0999 V2000
    4.9256    1.7875   16.9912 H   0  0  0  0  0  0  0  0  0  0  0  0
    5.4027    1.2925   17.8302 C   0  0  0  0  0  0  0  0  0  0  0  0
    6.5636    0.6783   17.5599 N   0  0  0  0  0  0  0  0  0  0  0  0
    7.1759    0.0574   18.5744 C   0  0  0  0  0  0  0  0  0  0  0  0
    8.1241   -0.4260   18.3501 H   0  0  0  0  0  0  0  0  0  0  0  0
    6.6600    0.0062   19.8832 C   0  0  0  0  0  0  0  0  0  0  0  0
    7.3842   -0.6972   20.9537 C   0  0  0  0  0  0  0  0  0  0  0  0
    8.4841   -1.4261   20.7028 N   0  0  0  0  0  0  0  0  0  0  0  0
    8.8254   -1.8837   21.9314 N   0  0  0  0  0  0  0  0  0  0  0  0
    9.8387   -2.6668   22.4823 C   0  0  0  0  0  0  0  0  0  0  0  0
   10.6345   -3.0354   21.8706 H   0  0  0  0  0  0  0  0  0  0  0  0
    9.6051   -2.7107   23.8202 C   0  0  0  0  0  0  0  0  0  0  0  0
   10.1258   -3.2222   24.6205 H   0  0  0  0  0  0  0  0  0  0  0  0
    8.4771   -1.9407   24.0985 N   0  0  0  0  0  0  0  0  0  0  0  0
    7.7625   -1.7660   25.3483 C   0  0  0  0  0  0  0  0  0  0  0  0
    7.3734   -0.7434   25.3585 H   0  0  0  0  0  0  0  0  0  0  0  0
    8.4723   -1.8470   26.1748 H   0  0  0  0  0  0  0  0  0  0  0  0
    6.6011   -2.7393   25.5095 C   0  0  0  0  0  0  0  0  0  0  0  0
    5.3075   -2.3796   25.1019 C   0  0  0  0  0  0  0  0  0  0  0  0
    5.1487   -1.3612   24.7618 H   0  0  0  0  0  0  0  0  0  0  0  0
    4.2368   -3.2766   25.1548 C   0  0  0  0  0  0  0  0  0  0  0  0
    3.2489   -2.9667   24.8227 H   0  0  0  0  0  0  0  0  0  0  0  0
    4.4478   -4.5659   25.6529 C   0  0  0  0  0  0  0  0  0  0  0  0
    3.6248   -5.2715   25.7253 H   0  0  0  0  0  0  0  0  0  0  0  0
    5.7213   -4.9525   26.0767 C   0  0  0  0  0  0  0  0  0  0  0  0
    5.9225   -5.9432   26.4728 H   0  0  0  0  0  0  0  0  0  0  0  0
    6.7764   -4.0408   25.9985 C   0  0  0  0  0  0  0  0  0  0  0  0
    8.3503   -4.5713   26.5289 Cl  0  0  0  0  0  0  0  0  0  0  0  0
    7.9965   -1.4601   22.9089 C   0  0  0  0  0  0  0  0  0  0  0  0
    7.0211   -0.6807   22.3232 C   0  0  0  0  0  0  0  0  0  0  0  0
    6.2095   -0.1578   22.7955 H   0  0  0  0  0  0  0  0  0  0  0  0
    5.4390    0.6528   20.1438 C   0  0  0  0  0  0  0  0  0  0  0  0
    4.9999    0.6418   21.1470 H   0  0  0  0  0  0  0  0  0  0  0  0
    4.8062    1.3097   19.0957 C   0  0  0  0  0  0  0  0  0  0  0  0
    3.8773    1.8396   19.2530 H   0  0  0  0  0  0  0  0  0  0  0  0
  1  2  1  0
  2  3  2  0
  3  4  1  0
  4  5  1  0
  4  6  2  0
  6  7  1  0
  7  8  2  0
  8  9  1  0
  9 10  1  0
 10 11  1  0
 10 12  2  0
 12 13  1  0
 12 14  1  0
 14 15  1  0
 15 16  1  0
 15 17  1  0
 15 18  1  0
 18 19  2  0
 19 20  1  0
 19 21  1  0
 21 22  1  0
 21 23  2  0
 23 24  1  0
 23 25  1  0
 25 26  1  0
 25 27  2  0
 27 28  1  0
 14 29  1  0
 29 30  2  0
 30 31  1  0
  6 32  1  0
 32 33  1  0
 32 34  2  0
 34 35  1  0
 34  2  1  0
 30  7  1  0
 29  9  1  0
 27 18  1  0
M  END
>  <cnnaffinity>  (1) 
-5.74647

>  <filename>  (1) 
Clc1ccccc1Cn1ccn2nc(-c3cccnc3)cc12

$$$$
