
     RDKit          3D

 33 35  0  0  0  0  0  0  0  0999 V2000
    4.9233    1.8263   16.9697 H   0  0  0  0  0  0  0  0  0  0  0  0
    5.3787    1.3101   17.8148 C   0  0  0  0  0  0  0  0  0  0  0  0
    6.5360    0.6793   17.5635 N   0  0  0  0  0  0  0  0  0  0  0  0
    7.1360    0.0514   18.5815 C   0  0  0  0  0  0  0  0  0  0  0  0
    8.0917   -0.4161   18.3482 H   0  0  0  0  0  0  0  0  0  0  0  0
    6.6245   -0.0149   19.8925 C   0  0  0  0  0  0  0  0  0  0  0  0
    7.4187   -0.7147   20.9957 C   0  0  0  0  0  0  0  0  0  0  0  0
    6.8105   -0.8287   21.8997 H   0  0  0  0  0  0  0  0  0  0  0  0
    7.7028   -1.7275   20.6955 H   0  0  0  0  0  0  0  0  0  0  0  0
    8.7075   -0.0187   21.3411 C   0  0  0  0  0  0  0  0  0  0  0  0
    9.8818   -0.3402   20.8671 N   0  0  0  0  0  0  0  0  0  0  0  0
   10.7912    0.5687   21.3445 N   0  0  0  0  0  0  0  0  0  0  0  0
   10.1321    1.4085   22.0906 C   0  0  0  0  0  0  0  0  0  0  0  0
   10.5605    2.2435   22.6313 H   0  0  0  0  0  0  0  0  0  0  0  0
    8.8030    1.0980   22.1245 N   0  0  0  0  0  0  0  0  0  0  0  0
    7.7626    1.7204   22.9455 C   0  0  0  0  0  0  0  0  0  0  0  0
    6.8578    1.8282   22.3343 H   0  0  0  0  0  0  0  0  0  0  0  0
    8.1093    2.7312   23.1972 H   0  0  0  0  0  0  0  0  0  0  0  0
    7.4504    0.9364   24.2131 C   0  0  0  0  0  0  0  0  0  0  0  0
    6.1875    0.3559   24.4143 C   0  0  0  0  0  0  0  0  0  0  0  0
    5.3946    0.4905   23.6771 H   0  0  0  0  0  0  0  0  0  0  0  0
    5.9275   -0.3969   25.5593 C   0  0  0  0  0  0  0  0  0  0  0  0
    4.9684   -0.8747   25.7283 H   0  0  0  0  0  0  0  0  0  0  0  0
    6.9220   -0.5877   26.5213 C   0  0  0  0  0  0  0  0  0  0  0  0
    6.4895   -1.5059   27.9171 Cl  0  0  0  0  0  0  0  0  0  0  0  0
    8.2004   -0.0418   26.3243 C   0  0  0  0  0  0  0  0  0  0  0  0
    9.5023   -0.3889   27.4134 Cl  0  0  0  0  0  0  0  0  0  0  0  0
    8.4461    0.7415   25.1884 C   0  0  0  0  0  0  0  0  0  0  0  0
    9.4317    1.1879   25.0637 H   0  0  0  0  0  0  0  0  0  0  0  0
    5.4118    0.6480   20.1250 C   0  0  0  0  0  0  0  0  0  0  0  0
    4.9678    0.6513   21.1210 H   0  0  0  0  0  0  0  0  0  0  0  0
    4.7746    1.3223   19.0750 C   0  0  0  0  0  0  0  0  0  0  0  0
    3.8464    1.8690   19.2173 H   0  0  0  0  0  0  0  0  0  0  0  0
  1  2  1  0
  2  3  2  0
  3  4  1  0
  4  5  1  0
  4  6  2  0
  6  7  1  0
  7  8  1  0
  7  9  1  0
  7 10  1  0
 10 11  2  0
 11 12  1  0
 12 13  2  0
 13 14  1  0
 13 15  1  0
 15 16  1  0
 16 17  1  0
 16 18  1  0
 16 19  1  0
 19 20  2  0
 20 21  1  0
 20 22  1  0
 22 23  1  0
 22 24  2  0
 24 25  1  0
 24 26  1  0
 26 27  1  0
 26 28  2  0
 28 29  1  0
  6 30  1  0
 30 31  1  0
 30 32  2  0
 32 33  1  0
 32  2  1  0
 15 10  1  0
 28 19  1  0
M  END
>  <cnnaffinity>  (1) 
-5.42918

>  <filename>  (1) 
Clc1ccc(Cn2cnnc2Cc2cccnc2)cc1Cl

$$$$
