
     RDKit          3D

 25 26  0  0  0  0  0  0  0  0999 V2000
    5.6785   -1.4043   21.8760 H   0  0  0  0  0  0  0  0  0  0  0  0
    6.7584   -1.4287   21.9129 C   0  0  0  0  0  0  0  0  0  0  0  0
    7.4355   -0.8509   20.8618 C   0  0  0  0  0  0  0  0  0  0  0  0
    9.3445   -0.9414   20.7583 Br  0  0  0  0  0  0  0  0  0  0  0  0
    6.7058   -0.1010   19.8270 C   0  0  0  0  0  0  0  0  0  0  0  0
    7.2692    0.0646   18.5513 C   0  0  0  0  0  0  0  0  0  0  0  0
    8.2291   -0.3888   18.3386 H   0  0  0  0  0  0  0  0  0  0  0  0
    6.6706    0.7440   17.5551 N   0  0  0  0  0  0  0  0  0  0  0  0
    5.4795    1.3224   17.7946 C   0  0  0  0  0  0  0  0  0  0  0  0
    4.9794    1.8686   16.9971 H   0  0  0  0  0  0  0  0  0  0  0  0
    4.8672    1.2392   19.0493 C   0  0  0  0  0  0  0  0  0  0  0  0
    3.9212    1.7416   19.2083 H   0  0  0  0  0  0  0  0  0  0  0  0
    5.4772    0.5194   20.0802 C   0  0  0  0  0  0  0  0  0  0  0  0
    5.0169    0.4663   21.0655 H   0  0  0  0  0  0  0  0  0  0  0  0
    7.3460   -2.0839   23.0851 C   0  0  0  0  0  0  0  0  0  0  0  0
    6.5528   -2.1750   24.2365 C   0  0  0  0  0  0  0  0  0  0  0  0
    5.5532   -1.7641   24.2664 H   0  0  0  0  0  0  0  0  0  0  0  0
    7.0437   -2.7790   25.3906 C   0  0  0  0  0  0  0  0  0  0  0  0
    6.4283   -2.8354   26.2847 H   0  0  0  0  0  0  0  0  0  0  0  0
    8.3348   -3.3055   25.4194 C   0  0  0  0  0  0  0  0  0  0  0  0
    8.8966   -4.0401   26.8997 Cl  0  0  0  0  0  0  0  0  0  0  0  0
    9.1496   -3.2219   24.2784 C   0  0  0  0  0  0  0  0  0  0  0  0
   10.7711   -3.8879   24.2602 Cl  0  0  0  0  0  0  0  0  0  0  0  0
    8.6441   -2.6144   23.1178 C   0  0  0  0  0  0  0  0  0  0  0  0
    9.2820   -2.5857   22.2444 H   0  0  0  0  0  0  0  0  0  0  0  0
  1  2  1  0
  2  3  2  3
  3  4  1  0
  3  5  1  0
  5  6  2  0
  6  7  1  0
  6  8  1  0
  8  9  2  0
  9 10  1  0
  9 11  1  0
 11 12  1  0
 11 13  2  0
 13 14  1  0
  2 15  1  0
 15 16  2  0
 16 17  1  0
 16 18  1  0
 18 19  1  0
 18 20  2  0
 20 21  1  0
 20 22  1  0
 22 23  1  0
 22 24  2  0
 24 25  1  0
 13  5  1  0
 24 15  1  0
M  END
>  <cnnaffinity>  (1) 
-4.7179

>  <filename>  (1) 
Clc1ccc(C=C(Br)c2cccnc2)cc1Cl

$$$$
