
     RDKit          3D

 41 43  0  0  0  0  0  0  0  0999 V2000
    4.8944    1.8739   16.7962 H   0  0  0  0  0  0  0  0  0  0  0  0
    5.3358    1.3854   17.6615 C   0  0  0  0  0  0  0  0  0  0  0  0
    6.5171    0.7780   17.4586 N   0  0  0  0  0  0  0  0  0  0  0  0
    7.0991    0.1830   18.5123 C   0  0  0  0  0  0  0  0  0  0  0  0
    8.0472   -0.3191   18.3180 H   0  0  0  0  0  0  0  0  0  0  0  0
    6.5488    0.1418   19.8220 C   0  0  0  0  0  0  0  0  0  0  0  0
    7.2307   -0.4543   20.9083 N   0  0  0  0  0  0  0  0  0  0  0  0
    6.5622   -1.3325   21.8571 C   0  0  0  0  0  0  0  0  0  0  0  0
    5.5675   -1.5660   21.4649 H   0  0  0  0  0  0  0  0  0  0  0  0
    6.4215   -0.8255   22.8284 H   0  0  0  0  0  0  0  0  0  0  0  0
    7.2808   -2.6707   22.1281 C   0  0  0  0  0  0  0  0  0  0  0  0
    7.4235   -3.1992   21.1657 H   0  0  0  0  0  0  0  0  0  0  0  0
    6.5817   -3.2697   22.7236 H   0  0  0  0  0  0  0  0  0  0  0  0
    8.5343   -2.5410   22.8855 N   0  0  0  0  0  0  0  0  0  0  0  0
    8.7468   -3.6333   23.8543 C   0  0  0  0  0  0  0  0  0  0  0  0
    8.6616   -4.6349   23.3929 H   0  0  0  0  0  0  0  0  0  0  0  0
    9.7680   -3.5550   24.2525 H   0  0  0  0  0  0  0  0  0  0  0  0
    7.7981   -3.5183   25.0418 C   0  0  0  0  0  0  0  0  0  0  0  0
    6.8635   -4.5010   25.4053 C   0  0  0  0  0  0  0  0  0  0  0  0
    6.8233   -5.4531   24.8776 H   0  0  0  0  0  0  0  0  0  0  0  0
    5.9691   -4.2751   26.4593 C   0  0  0  0  0  0  0  0  0  0  0  0
    5.2217   -5.0167   26.7321 H   0  0  0  0  0  0  0  0  0  0  0  0
    6.0095   -3.0732   27.1745 C   0  0  0  0  0  0  0  0  0  0  0  0
    4.8735   -2.8150   28.4566 Cl  0  0  0  0  0  0  0  0  0  0  0  0
    6.9686   -2.1013   26.8457 C   0  0  0  0  0  0  0  0  0  0  0  0
    7.0622   -0.5835   27.6753 Cl  0  0  0  0  0  0  0  0  0  0  0  0
    7.8599   -2.3395   25.7994 C   0  0  0  0  0  0  0  0  0  0  0  0
    8.6036   -1.5852   25.5582 H   0  0  0  0  0  0  0  0  0  0  0  0
    9.7208   -2.2190   22.0960 C   0  0  0  0  0  0  0  0  0  0  0  0
   10.0656   -3.0775   21.5110 H   0  0  0  0  0  0  0  0  0  0  0  0
   10.5233   -2.0047   22.8082 H   0  0  0  0  0  0  0  0  0  0  0  0
    9.6327   -1.0567   21.0924 C   0  0  0  0  0  0  0  0  0  0  0  0
    9.4466   -1.4793   20.0970 H   0  0  0  0  0  0  0  0  0  0  0  0
   10.6224   -0.5722   21.0613 H   0  0  0  0  0  0  0  0  0  0  0  0
    8.5550    0.0003   21.3219 C   0  0  0  0  0  0  0  0  0  0  0  0
    8.8127    0.8894   20.7372 H   0  0  0  0  0  0  0  0  0  0  0  0
    8.5206    0.3068   22.3814 H   0  0  0  0  0  0  0  0  0  0  0  0
    5.2870    0.7463   19.9860 C   0  0  0  0  0  0  0  0  0  0  0  0
    4.8237    0.7183   20.9710 H   0  0  0  0  0  0  0  0  0  0  0  0
    4.6822    1.3874   18.8993 C   0  0  0  0  0  0  0  0  0  0  0  0
    3.7249    1.8870   19.0039 H   0  0  0  0  0  0  0  0  0  0  0  0
  1  2  1  0
  2  3  2  0
  3  4  1  0
  4  5  1  0
  4  6  2  0
  6  7  1  0
  7  8  1  0
  8  9  1  0
  8 10  1  0
  8 11  1  0
 11 12  1  0
 11 13  1  0
 11 14  1  0
 14 15  1  0
 15 16  1  0
 15 17  1  0
 15 18  1  0
 18 19  2  0
 19 20  1  0
 19 21  1  0
 21 22  1  0
 21 23  2  0
 23 24  1  0
 23 25  1  0
 25 26  1  0
 25 27  2  0
 27 28  1  0
 14 29  1  0
 29 30  1  0
 29 31  1  0
 29 32  1  0
 32 33  1  0
 32 34  1  0
 32 35  1  0
 35 36  1  0
 35 37  1  0
  6 38  1  0
 38 39  1  0
 38 40  2  0
 40 41  1  0
 40  2  1  0
 35  7  1  0
 27 18  1  0
M  END
>  <cnnaffinity>  (1) 
-5.51121

>  <filename>  (1) 
Clc1ccc(CN2CCCN(c3cccnc3)CC2)cc1Cl

$$$$
