
     RDKit          3D

 34 36  0  0  0  0  0  0  0  0999 V2000
    4.9184    1.7939   16.9857 H   0  0  0  0  0  0  0  0  0  0  0  0
    5.3973    1.2978   17.8263 C   0  0  0  0  0  0  0  0  0  0  0  0
    6.5570    0.6793   17.5607 N   0  0  0  0  0  0  0  0  0  0  0  0
    7.1597    0.0574   18.5806 C   0  0  0  0  0  0  0  0  0  0  0  0
    8.1102   -0.4250   18.3476 H   0  0  0  0  0  0  0  0  0  0  0  0
    6.6486    0.0043   19.8859 C   0  0  0  0  0  0  0  0  0  0  0  0
    7.3742   -0.6915   21.0178 C   0  0  0  0  0  0  0  0  0  0  0  0
    8.2684   -1.2042   20.6502 H   0  0  0  0  0  0  0  0  0  0  0  0
    6.7372   -1.4412   21.4968 H   0  0  0  0  0  0  0  0  0  0  0  0
    7.7776    0.2113   22.0892 N   0  0  0  0  0  0  0  0  0  0  0  0
    7.0204    0.3318   23.1948 N   0  0  0  0  0  0  0  0  0  0  0  0
    7.5853    1.3019   23.9006 C   0  0  0  0  0  0  0  0  0  0  0  0
    7.1662    1.5887   24.8579 H   0  0  0  0  0  0  0  0  0  0  0  0
    8.7062    1.8306   23.2421 C   0  0  0  0  0  0  0  0  0  0  0  0
    9.3910    2.5989   23.5690 H   0  0  0  0  0  0  0  0  0  0  0  0
    8.7899    1.1162   22.0665 C   0  0  0  0  0  0  0  0  0  0  0  0
    9.8352    1.2449   21.0007 C   0  0  0  0  0  0  0  0  0  0  0  0
    9.9310    2.3097   20.7693 H   0  0  0  0  0  0  0  0  0  0  0  0
    9.5266    0.7342   20.0799 H   0  0  0  0  0  0  0  0  0  0  0  0
   11.1769    0.7154   21.4761 C   0  0  0  0  0  0  0  0  0  0  0  0
   11.4209   -0.6621   21.4297 C   0  0  0  0  0  0  0  0  0  0  0  0
   10.6557   -1.3102   21.0060 H   0  0  0  0  0  0  0  0  0  0  0  0
   12.6088   -1.2124   21.9090 C   0  0  0  0  0  0  0  0  0  0  0  0
   12.7704   -2.2844   21.8430 H   0  0  0  0  0  0  0  0  0  0  0  0
   13.5829   -0.3779   22.4643 C   0  0  0  0  0  0  0  0  0  0  0  0
   14.5165   -0.7943   22.8286 H   0  0  0  0  0  0  0  0  0  0  0  0
   13.3606    0.9970   22.5515 C   0  0  0  0  0  0  0  0  0  0  0  0
   14.1003    1.6739   22.9713 H   0  0  0  0  0  0  0  0  0  0  0  0
   12.1653    1.5276   22.0572 C   0  0  0  0  0  0  0  0  0  0  0  0
   11.9370    3.2545   22.1976 Cl  0  0  0  0  0  0  0  0  0  0  0  0
    5.4349    0.6464   20.1466 C   0  0  0  0  0  0  0  0  0  0  0  0
    5.0230    0.6316   21.1586 H   0  0  0  0  0  0  0  0  0  0  0  0
    4.8041    1.3098   19.0934 C   0  0  0  0  0  0  0  0  0  0  0  0
    3.8767    1.8421   19.2479 H   0  0  0  0  0  0  0  0  0  0  0  0
  1  2  1  0
  2  3  2  0
  3  4  1  0
  4  5  1  0
  4  6  2  0
  6  7  1  0
  7  8  1  0
  7  9  1  0
  7 10  1  0
 10 11  1  0
 11 12  2  0
 12 13  1  0
 12 14  1  0
 14 15  1  0
 14 16  2  0
 16 17  1  0
 17 18  1  0
 17 19  1  0
 17 20  1  0
 20 21  2  0
 21 22  1  0
 21 23  1  0
 23 24  1  0
 23 25  2  0
 25 26  1  0
 25 27  1  0
 27 28  1  0
 27 29  2  0
 29 30  1  0
  6 31  1  0
 31 32  1  0
 31 33  2  0
 33 34  1  0
 33  2  1  0
 16 10  1  0
 29 20  1  0
M  END
>  <cnnaffinity>  (1) 
-5.73768

>  <filename>  (1) 
Clc1ccccc1Cc1ccnn1Cc1cccnc1

$$$$
