
     RDKit          3D

 31 33  0  0  0  0  0  0  0  0999 V2000
    4.9618    1.8756   16.7445 H   0  0  0  0  0  0  0  0  0  0  0  0
    5.3460    1.4121   17.6494 C   0  0  0  0  0  0  0  0  0  0  0  0
    6.5124    0.7600   17.5157 N   0  0  0  0  0  0  0  0  0  0  0  0
    7.0107    0.1764   18.6109 C   0  0  0  0  0  0  0  0  0  0  0  0
    7.9644   -0.3356   18.4870 H   0  0  0  0  0  0  0  0  0  0  0  0
    6.3993    0.1968   19.8813 C   0  0  0  0  0  0  0  0  0  0  0  0
    7.0499   -0.4585   21.0316 C   0  0  0  0  0  0  0  0  0  0  0  0
    6.7717   -0.3258   22.4180 C   0  0  0  0  0  0  0  0  0  0  0  0
    6.0065    0.2630   22.9065 H   0  0  0  0  0  0  0  0  0  0  0  0
    7.6144   -1.0273   23.1581 N   0  0  0  0  0  0  0  0  0  0  0  0
    8.4302   -1.6350   22.2877 N   0  0  0  0  0  0  0  0  0  0  0  0
    9.6258   -2.3040   22.7745 C   0  0  0  0  0  0  0  0  0  0  0  0
    9.7997   -3.1730   22.1377 H   0  0  0  0  0  0  0  0  0  0  0  0
    9.3830   -2.6730   23.7744 H   0  0  0  0  0  0  0  0  0  0  0  0
   10.8455   -1.4042   22.7744 C   0  0  0  0  0  0  0  0  0  0  0  0
   10.9371   -0.2871   23.6187 C   0  0  0  0  0  0  0  0  0  0  0  0
   10.1131   -0.0118   24.2735 H   0  0  0  0  0  0  0  0  0  0  0  0
   12.0815    0.5038   23.5915 C   0  0  0  0  0  0  0  0  0  0  0  0
   12.1423    1.4245   24.1615 H   0  0  0  0  0  0  0  0  0  0  0  0
   13.1579    0.1654   22.7598 C   0  0  0  0  0  0  0  0  0  0  0  0
   14.5951    1.1039   22.8566 Cl  0  0  0  0  0  0  0  0  0  0  0  0
   13.0537   -0.9234   21.8829 C   0  0  0  0  0  0  0  0  0  0  0  0
   14.3219   -1.3809   20.7936 Cl  0  0  0  0  0  0  0  0  0  0  0  0
   11.8721   -1.6529   21.8597 C   0  0  0  0  0  0  0  0  0  0  0  0
   11.7638   -2.4032   21.0911 H   0  0  0  0  0  0  0  0  0  0  0  0
    8.1290   -1.3214   21.0060 C   0  0  0  0  0  0  0  0  0  0  0  0
    8.6818   -1.7551   20.1827 H   0  0  0  0  0  0  0  0  0  0  0  0
    5.1754    0.8801   19.9910 C   0  0  0  0  0  0  0  0  0  0  0  0
    4.6539    0.9348   20.9472 H   0  0  0  0  0  0  0  0  0  0  0  0
    4.6430    1.4927   18.8559 C   0  0  0  0  0  0  0  0  0  0  0  0
    3.7039    2.0326   18.8900 H   0  0  0  0  0  0  0  0  0  0  0  0
  1  2  1  0
  2  3  2  0
  3  4  1  0
  4  5  1  0
  4  6  2  0
  6  7  1  0
  7  8  1  0
  8  9  1  0
  8 10  2  0
 10 11  1  0
 11 12  1  0
 12 13  1  0
 12 14  1  0
 12 15  1  0
 15 16  2  0
 16 17  1  0
 16 18  1  0
 18 19  1  0
 18 20  2  0
 20 21  1  0
 20 22  1  0
 22 23  1  0
 22 24  2  0
 24 25  1  0
 11 26  1  0
 26 27  1  0
  6 28  1  0
 28 29  1  0
 28 30  2  0
 30 31  1  0
 30  2  1  0
 26  7  2  0
 24 15  1  0
M  END
>  <cnnaffinity>  (1) 
-5.75605

>  <filename>  (1) 
Clc1ccc(Cn2cc(-c3cccnc3)cn2)cc1Cl

$$$$
