
     RDKit          3D

 35 37  0  0  0  0  0  0  0  0999 V2000
    8.3835    1.1078   23.7166 H   0  0  0  0  0  0  0  0  0  0  0  0
    8.0661    0.9773   22.6760 C   0  0  0  0  0  0  0  0  0  0  0  0
    7.8763   -0.2787   22.2460 C   0  0  0  0  0  0  0  0  0  0  0  0
    7.3302   -0.8099   20.9742 C   0  0  0  0  0  0  0  0  0  0  0  0
    6.6244   -0.0197   19.9322 C   0  0  0  0  0  0  0  0  0  0  0  0
    7.1497   -0.0448   18.6375 C   0  0  0  0  0  0  0  0  0  0  0  0
    8.0487   -0.6204   18.4232 H   0  0  0  0  0  0  0  0  0  0  0  0
    6.6160    0.6157   17.6064 N   0  0  0  0  0  0  0  0  0  0  0  0
    5.4863    1.3060   17.8336 C   0  0  0  0  0  0  0  0  0  0  0  0
    5.0692    1.8284   16.9751 H   0  0  0  0  0  0  0  0  0  0  0  0
    4.8430    1.3441   19.0749 C   0  0  0  0  0  0  0  0  0  0  0  0
    3.9164    1.8983   19.1849 H   0  0  0  0  0  0  0  0  0  0  0  0
    5.4217    0.6674   20.1509 C   0  0  0  0  0  0  0  0  0  0  0  0
    4.9445    0.6661   21.1326 H   0  0  0  0  0  0  0  0  0  0  0  0
    7.4922   -2.0723   20.8117 N   0  0  0  0  0  0  0  0  0  0  0  0
    8.0970   -2.6529   22.0149 C   0  0  0  0  0  0  0  0  0  0  0  0
    7.4303   -3.4270   22.4107 H   0  0  0  0  0  0  0  0  0  0  0  0
    9.0397   -3.1296   21.7271 H   0  0  0  0  0  0  0  0  0  0  0  0
    8.3093   -1.5086   23.0293 C   0  0  0  0  0  0  0  0  0  0  0  0
    9.3518   -1.4227   23.3523 H   0  0  0  0  0  0  0  0  0  0  0  0
    7.6920   -1.6356   23.9248 H   0  0  0  0  0  0  0  0  0  0  0  0
    7.9096    2.2492   21.8665 C   0  0  0  0  0  0  0  0  0  0  0  0
    8.2741    2.0687   20.8425 H   0  0  0  0  0  0  0  0  0  0  0  0
    6.8388    2.4576   21.7424 H   0  0  0  0  0  0  0  0  0  0  0  0
    8.5958    3.4612   22.5034 C   0  0  0  0  0  0  0  0  0  0  0  0
    7.8545    4.4771   23.1274 C   0  0  0  0  0  0  0  0  0  0  0  0
    6.7867    4.3371   23.2539 H   0  0  0  0  0  0  0  0  0  0  0  0
    8.4758    5.6157   23.6582 C   0  0  0  0  0  0  0  0  0  0  0  0
    7.8859    6.3677   24.1788 H   0  0  0  0  0  0  0  0  0  0  0  0
    9.8596    5.7804   23.5278 C   0  0  0  0  0  0  0  0  0  0  0  0
   10.3657    6.6673   23.8964 H   0  0  0  0  0  0  0  0  0  0  0  0
   10.6078    4.7532   22.9460 C   0  0  0  0  0  0  0  0  0  0  0  0
   12.3312    4.9424   22.7553 Cl  0  0  0  0  0  0  0  0  0  0  0  0
    9.9958    3.5836   22.4804 C   0  0  0  0  0  0  0  0  0  0  0  0
   10.6020    2.7861   22.0641 H   0  0  0  0  0  0  0  0  0  0  0  0
  1  2  1  0
  2  3  2  3
  3  4  1  0
  4  5  1  0
  5  6  2  0
  6  7  1  0
  6  8  1  0
  8  9  2  0
  9 10  1  0
  9 11  1  0
 11 12  1  0
 11 13  2  0
 13 14  1  0
  4 15  2  0
 15 16  1  0
 16 17  1  0
 16 18  1  0
 16 19  1  0
 19 20  1  0
 19 21  1  0
  2 22  1  0
 22 23  1  0
 22 24  1  0
 22 25  1  0
 25 26  2  0
 26 27  1  0
 26 28  1  0
 28 29  1  0
 28 30  2  0
 30 31  1  0
 30 32  1  0
 32 33  1  0
 32 34  2  0
 34 35  1  0
 19  3  1  0
 34 25  1  0
 13  5  1  0
M  END
>  <cnnaffinity>  (1) 
-5.60287

>  <filename>  (1) 
Clc1cccc(CC=C2CCN=C2c2cccnc2)c1

$$$$
