
     RDKit          3D

 36 39  0  0  0  0  0  0  0  0999 V2000
    4.9669    1.7891   16.9669 H   0  0  0  0  0  0  0  0  0  0  0  0
    5.4159    1.2986   17.8281 C   0  0  0  0  0  0  0  0  0  0  0  0
    6.5806    0.6710   17.6063 N   0  0  0  0  0  0  0  0  0  0  0  0
    7.1587    0.0732   18.6591 C   0  0  0  0  0  0  0  0  0  0  0  0
    8.1047   -0.4296   18.4575 H   0  0  0  0  0  0  0  0  0  0  0  0
    6.6216    0.0621   19.9607 C   0  0  0  0  0  0  0  0  0  0  0  0
    7.3449   -0.6337   21.0882 C   0  0  0  0  0  0  0  0  0  0  0  0
    8.3856    0.1666   21.8154 C   0  0  0  0  0  0  0  0  0  0  0  0
    9.6508    0.2830   21.5861 N   0  0  0  0  0  0  0  0  0  0  0  0
   10.1555    1.1636   22.5423 N   0  0  0  0  0  0  0  0  0  0  0  0
    9.1531    1.5034   23.2844 C   0  0  0  0  0  0  0  0  0  0  0  0
    9.0978    2.4436   24.4431 C   0  0  0  0  0  0  0  0  0  0  0  0
   10.0386    2.3663   24.9996 H   0  0  0  0  0  0  0  0  0  0  0  0
    8.2908    2.1333   25.1095 H   0  0  0  0  0  0  0  0  0  0  0  0
    8.8977    3.8670   23.9628 C   0  0  0  0  0  0  0  0  0  0  0  0
   10.0286    4.6476   23.6809 C   0  0  0  0  0  0  0  0  0  0  0  0
   11.0114    4.2186   23.8529 H   0  0  0  0  0  0  0  0  0  0  0  0
    9.9164    5.9339   23.1565 C   0  0  0  0  0  0  0  0  0  0  0  0
   10.8078    6.5171   22.9453 H   0  0  0  0  0  0  0  0  0  0  0  0
    8.6495    6.4558   22.8882 C   0  0  0  0  0  0  0  0  0  0  0  0
    8.5463    7.4422   22.4590 H   0  0  0  0  0  0  0  0  0  0  0  0
    7.5033    5.6991   23.1395 C   0  0  0  0  0  0  0  0  0  0  0  0
    6.5166    6.0896   22.9118 H   0  0  0  0  0  0  0  0  0  0  0  0
    7.6351    4.4129   23.6701 C   0  0  0  0  0  0  0  0  0  0  0  0
    6.1779    3.4909   23.9203 Cl  0  0  0  0  0  0  0  0  0  0  0  0
    7.9995    0.9222   22.8827 O   0  0  0  0  0  0  0  0  0  0  0  0
    6.5971   -1.6615   21.9203 C   0  0  0  0  0  0  0  0  0  0  0  0
    6.8404   -1.7157   22.9783 H   0  0  0  0  0  0  0  0  0  0  0  0
    5.5447   -1.8351   21.6867 H   0  0  0  0  0  0  0  0  0  0  0  0
    7.5968   -2.1114   20.8929 C   0  0  0  0  0  0  0  0  0  0  0  0
    7.1080   -2.5334   20.0248 H   0  0  0  0  0  0  0  0  0  0  0  0
    8.5894   -2.4996   21.1379 H   0  0  0  0  0  0  0  0  0  0  0  0
    5.4040    0.7205   20.1652 C   0  0  0  0  0  0  0  0  0  0  0  0
    4.9590    0.7434   21.1629 H   0  0  0  0  0  0  0  0  0  0  0  0
    4.7907    1.3448   19.0774 C   0  0  0  0  0  0  0  0  0  0  0  0
    3.8514    1.8716   19.1873 H   0  0  0  0  0  0  0  0  0  0  0  0
  1  2  1  0
  2  3  2  0
  3  4  1  0
  4  5  1  0
  4  6  2  0
  6  7  1  0
  7  8  1  0
  8  9  2  0
  9 10  1  0
 10 11  2  0
 11 12  1  0
 12 13  1  0
 12 14  1  0
 12 15  1  0
 15 16  2  0
 16 17  1  0
 16 18  1  0
 18 19  1  0
 18 20  2  0
 20 21  1  0
 20 22  1  0
 22 23  1  0
 22 24  2  0
 24 25  1  0
 11 26  1  0
  7 27  1  0
 27 28  1  0
 27 29  1  0
 27 30  1  0
 30 31  1  0
 30 32  1  0
  6 33  1  0
 33 34  1  0
 33 35  2  0
 35 36  1  0
 35  2  1  0
 30  7  1  0
 26  8  1  0
 24 15  1  0
M  END
>  <cnnaffinity>  (1) 
-5.66265

>  <filename>  (1) 
Clc1ccccc1Cc1nnc(C2(c3cccnc3)CC2)o1

$$$$
