
     RDKit          3D

 38 40  0  0  0  0  0  0  0  0999 V2000
    4.9163    1.7889   16.9875 H   0  0  0  0  0  0  0  0  0  0  0  0
    5.3975    1.2978   17.8282 C   0  0  0  0  0  0  0  0  0  0  0  0
    6.5591    0.6811   17.5634 N   0  0  0  0  0  0  0  0  0  0  0  0
    7.1568    0.0591   18.5881 C   0  0  0  0  0  0  0  0  0  0  0  0
    8.1130   -0.4167   18.3676 H   0  0  0  0  0  0  0  0  0  0  0  0
    6.6309   -0.0216   19.8819 C   0  0  0  0  0  0  0  0  0  0  0  0
    7.3981   -0.7001   20.9947 C   0  0  0  0  0  0  0  0  0  0  0  0
    6.6971   -1.0866   21.7422 H   0  0  0  0  0  0  0  0  0  0  0  0
    7.9638   -1.5572   20.6035 H   0  0  0  0  0  0  0  0  0  0  0  0
    8.3387    0.1648   21.7200 N   0  0  0  0  0  0  0  0  0  0  0  0
    7.6863    1.2620   22.3341 N   0  0  0  0  0  0  0  0  0  0  0  0
    8.0725    1.3729   23.7354 C   0  0  0  0  0  0  0  0  0  0  0  0
    9.1654    1.5115   23.8198 H   0  0  0  0  0  0  0  0  0  0  0  0
    7.8663    0.4138   24.2089 H   0  0  0  0  0  0  0  0  0  0  0  0
    7.3580    2.4937   24.4702 C   0  0  0  0  0  0  0  0  0  0  0  0
    7.3236    2.5017   25.8735 C   0  0  0  0  0  0  0  0  0  0  0  0
    7.7805    1.6789   26.4236 H   0  0  0  0  0  0  0  0  0  0  0  0
    6.7110    3.5489   26.5650 C   0  0  0  0  0  0  0  0  0  0  0  0
    6.6902    3.5416   27.6533 H   0  0  0  0  0  0  0  0  0  0  0  0
    6.1284    4.6062   25.8550 C   0  0  0  0  0  0  0  0  0  0  0  0
    5.6450    5.4255   26.3827 H   0  0  0  0  0  0  0  0  0  0  0  0
    6.1623    4.6047   24.4589 C   0  0  0  0  0  0  0  0  0  0  0  0
    5.7115    5.4205   23.8918 H   0  0  0  0  0  0  0  0  0  0  0  0
    6.7706    3.5558   23.7574 C   0  0  0  0  0  0  0  0  0  0  0  0
    6.7701    3.5329   22.2389 C   0  0  0  0  0  0  0  0  0  0  0  0
    6.9637    4.5396   21.8499 H   0  0  0  0  0  0  0  0  0  0  0  0
    5.7687    3.2677   21.8786 H   0  0  0  0  0  0  0  0  0  0  0  0
    7.7893    2.5606   21.6562 C   0  0  0  0  0  0  0  0  0  0  0  0
    7.6112    2.4162   20.5877 H   0  0  0  0  0  0  0  0  0  0  0  0
    8.8034    2.9891   21.7671 H   0  0  0  0  0  0  0  0  0  0  0  0
    9.5555    0.4869   20.9904 C   0  0  0  0  0  0  0  0  0  0  0  0
   10.2237    1.0847   21.6192 H   0  0  0  0  0  0  0  0  0  0  0  0
    9.3673    1.0563   20.0731 H   0  0  0  0  0  0  0  0  0  0  0  0
   10.0712   -0.4383   20.7244 H   0  0  0  0  0  0  0  0  0  0  0  0
    5.4220    0.6401   20.1464 C   0  0  0  0  0  0  0  0  0  0  0  0
    5.0194    0.6431   21.1642 H   0  0  0  0  0  0  0  0  0  0  0  0
    4.8009    1.3155   19.0945 C   0  0  0  0  0  0  0  0  0  0  0  0
    3.8693    1.8487   19.2473 H   0  0  0  0  0  0  0  0  0  0  0  0
  1  2  1  0
  2  3  2  0
  3  4  1  0
  4  5  1  0
  4  6  2  0
  6  7  1  0
  7  8  1  0
  7  9  1  0
  7 10  1  0
 10 11  1  0
 11 12  1  0
 12 13  1  0
 12 14  1  0
 12 15  1  0
 15 16  2  0
 16 17  1  0
 16 18  1  0
 18 19  1  0
 18 20  2  0
 20 21  1  0
 20 22  1  0
 22 23  1  0
 22 24  2  0
 24 25  1  0
 25 26  1  0
 25 27  1  0
 25 28  1  0
 28 29  1  0
 28 30  1  0
 10 31  1  0
 31 32  1  0
 31 33  1  0
 31 34  1  0
  6 35  1  0
 35 36  1  0
 35 37  2  0
 37 38  1  0
 37  2  1  0
 28 11  1  0
 24 15  1  0
M  END
>  <cnnaffinity>  (1) 
-4.47532

>  <filename>  (1) 
CN(Cc1cccnc1)N1CCc2ccccc2C1

$$$$
