
     RDKit          3D

 45 47  0  0  0  0  0  0  0  0999 V2000
    4.8258    1.7908   16.6887 H   0  0  0  0  0  0  0  0  0  0  0  0
    5.3386    1.3882   17.5564 C   0  0  0  0  0  0  0  0  0  0  0  0
    6.4546    0.6825   17.3004 N   0  0  0  0  0  0  0  0  0  0  0  0
    7.1222    0.1837   18.3514 C   0  0  0  0  0  0  0  0  0  0  0  0
    8.0266   -0.3807   18.1221 H   0  0  0  0  0  0  0  0  0  0  0  0
    6.7403    0.3562   19.7099 C   0  0  0  0  0  0  0  0  0  0  0  0
    7.5011   -0.1779   20.7607 N   0  0  0  0  0  0  0  0  0  0  0  0
    7.5567    0.4222   22.0893 C   0  0  0  0  0  0  0  0  0  0  0  0
    7.0549    1.3950   22.0780 H   0  0  0  0  0  0  0  0  0  0  0  0
    8.6090    0.6219   22.3397 H   0  0  0  0  0  0  0  0  0  0  0  0
    6.9588   -0.4711   23.1996 C   0  0  0  0  0  0  0  0  0  0  0  0
    5.9050   -0.2289   23.3361 H   0  0  0  0  0  0  0  0  0  0  0  0
    7.4613   -0.2183   24.1475 H   0  0  0  0  0  0  0  0  0  0  0  0
    7.0751   -1.9183   22.9238 N   0  0  0  0  0  0  0  0  0  0  0  0
    6.9565   -2.6894   24.0680 N   0  0  0  0  0  0  0  0  0  0  0  0
    6.1704   -3.9150   23.9480 C   0  0  0  0  0  0  0  0  0  0  0  0
    5.1308   -3.6938   23.6802 H   0  0  0  0  0  0  0  0  0  0  0  0
    6.5829   -4.5705   23.1612 H   0  0  0  0  0  0  0  0  0  0  0  0
    6.3372   -4.5246   25.3404 C   0  0  0  0  0  0  0  0  0  0  0  0
    6.0508   -5.5793   25.4120 H   0  0  0  0  0  0  0  0  0  0  0  0
    5.7191   -3.9672   26.0515 H   0  0  0  0  0  0  0  0  0  0  0  0
    7.8300   -4.2723   25.6675 C   0  0  1  0  0  0  0  0  0  0  0  0
    7.9612   -4.1004   26.7482 H   0  0  0  0  0  0  0  0  0  0  0  0
    8.7568   -5.3710   25.3064 N   0  0  0  0  0  0  0  0  0  0  0  0
    8.7207   -6.4644   26.2630 C   0  0  0  0  0  0  0  0  0  0  0  0
    7.7079   -6.8834   26.3924 H   0  0  0  0  0  0  0  0  0  0  0  0
    9.3869   -7.2689   25.9286 H   0  0  0  0  0  0  0  0  0  0  0  0
    9.0947   -6.1339   27.2381 H   0  0  0  0  0  0  0  0  0  0  0  0
    8.6920   -5.8721   23.9366 C   0  0  0  0  0  0  0  0  0  0  0  0
    8.9465   -5.0806   23.2197 H   0  0  0  0  0  0  0  0  0  0  0  0
    7.7125   -6.2964   23.6498 H   0  0  0  0  0  0  0  0  0  0  0  0
    9.4403   -6.6659   23.8294 H   0  0  0  0  0  0  0  0  0  0  0  0
    8.1313   -2.9543   24.9082 C   0  0  0  0  0  0  0  0  0  0  0  0
    9.0473   -3.0687   24.3154 H   0  0  0  0  0  0  0  0  0  0  0  0
    8.2947   -2.1185   25.6006 H   0  0  0  0  0  0  0  0  0  0  0  0
    8.1664   -2.2585   22.0110 C   0  0  0  0  0  0  0  0  0  0  0  0
    9.1524   -1.9814   22.4246 H   0  0  0  0  0  0  0  0  0  0  0  0
    8.1682   -3.3410   21.8414 H   0  0  0  0  0  0  0  0  0  0  0  0
    7.9672   -1.5646   20.6513 C   0  0  0  0  0  0  0  0  0  0  0  0
    8.9057   -1.6113   20.0740 H   0  0  0  0  0  0  0  0  0  0  0  0
    7.2125   -2.1280   20.0900 H   0  0  0  0  0  0  0  0  0  0  0  0
    5.5540    1.0862   19.9381 C   0  0  0  0  0  0  0  0  0  0  0  0
    5.1995    1.2179   20.9591 H   0  0  0  0  0  0  0  0  0  0  0  0
    4.8482    1.6051   18.8480 C   0  0  0  0  0  0  0  0  0  0  0  0
    3.9438    2.1931   18.9966 H   0  0  0  0  0  0  0  0  0  0  0  0
  1  2  1  0
  2  3  2  0
  3  4  1  0
  4  5  1  0
  4  6  2  0
  6  7  1  0
  7  8  1  0
  8  9  1  0
  8 10  1  0
  8 11  1  0
 11 12  1  0
 11 13  1  0
 11 14  1  0
 14 15  1  0
 15 16  1  0
 16 17  1  0
 16 18  1  0
 16 19  1  0
 19 20  1  0
 19 21  1  0
 19 22  1  0
 22 23  1  1
 22 24  1  0
 24 25  1  0
 25 26  1  0
 25 27  1  0
 25 28  1  0
 24 29  1  0
 29 30  1  0
 29 31  1  0
 29 32  1  0
 22 33  1  0
 33 34  1  0
 33 35  1  0
 14 36  1  0
 36 37  1  0
 36 38  1  0
 36 39  1  0
 39 40  1  0
 39 41  1  0
  6 42  1  0
 42 43  1  0
 42 44  2  0
 44 45  1  0
 44  2  1  0
 39  7  1  0
 33 15  1  0
M  END
>  <cnnaffinity>  (1) 
-4.63167

>  <filename>  (1) 
CN(C)[C@@H]1CCN(N2CCN(c3cccnc3)CC2)C1

$$$$
