
     RDKit          3D

 30 31  0  0  0  0  0  0  0  0999 V2000
    4.9719    1.8067   16.9646 H   0  0  0  0  0  0  0  0  0  0  0  0
    5.4251    1.2965   17.8113 C   0  0  0  0  0  0  0  0  0  0  0  0
    6.5873    0.6669   17.5827 N   0  0  0  0  0  0  0  0  0  0  0  0
    7.1643    0.0547   18.6256 C   0  0  0  0  0  0  0  0  0  0  0  0
    8.1079   -0.4531   18.4090 H   0  0  0  0  0  0  0  0  0  0  0  0
    6.6187    0.0203   19.9186 C   0  0  0  0  0  0  0  0  0  0  0  0
    7.3937   -0.6255   21.0534 C   0  0  0  0  0  0  0  0  0  0  0  0
    6.7107   -0.8540   21.8839 H   0  0  0  0  0  0  0  0  0  0  0  0
    7.7877   -1.6000   20.7283 H   0  0  0  0  0  0  0  0  0  0  0  0
    8.5000    0.1894   21.5447 N   0  0  0  0  0  0  0  0  0  0  0  0
    8.2314    1.4447   22.1002 C   0  0  0  0  0  0  0  0  0  0  0  0
    9.0032    2.5793   21.7799 C   0  0  0  0  0  0  0  0  0  0  0  0
    9.8192    2.5119   21.0660 H   0  0  0  0  0  0  0  0  0  0  0  0
    8.6913    3.8131   22.3399 C   0  0  0  0  0  0  0  0  0  0  0  0
    9.3034    4.6762   22.1031 H   0  0  0  0  0  0  0  0  0  0  0  0
    7.6002    3.9681   23.2160 C   0  0  0  0  0  0  0  0  0  0  0  0
    7.3459    5.3095   23.6890 C   0  0  0  0  0  0  0  0  0  0  0  0
    7.2529    6.4201   24.0105 N   0  0  0  0  0  0  0  0  0  0  0  0
    6.8463    2.8342   23.5746 C   0  0  0  0  0  0  0  0  0  0  0  0
    6.0112    2.9026   24.2783 H   0  0  0  0  0  0  0  0  0  0  0  0
    7.1626    1.5957   23.0188 C   0  0  0  0  0  0  0  0  0  0  0  0
    6.5930    0.7153   23.3068 H   0  0  0  0  0  0  0  0  0  0  0  0
    9.8321   -0.2541   21.1900 C   0  0  0  0  0  0  0  0  0  0  0  0
   10.0077   -0.2297   20.1056 H   0  0  0  0  0  0  0  0  0  0  0  0
    9.9481   -1.2961   21.5179 H   0  0  0  0  0  0  0  0  0  0  0  0
   10.6152    0.3272   21.6866 H   0  0  0  0  0  0  0  0  0  0  0  0
    5.4002    0.6797   20.1318 C   0  0  0  0  0  0  0  0  0  0  0  0
    4.9462    0.7063   21.1260 H   0  0  0  0  0  0  0  0  0  0  0  0
    4.7911    1.3249   19.0557 C   0  0  0  0  0  0  0  0  0  0  0  0
    3.8469    1.8439   19.1750 H   0  0  0  0  0  0  0  0  0  0  0  0
  1  2  1  0
  2  3  2  0
  3  4  1  0
  4  5  1  0
  4  6  2  0
  6  7  1  0
  7  8  1  0
  7  9  1  0
  7 10  1  0
 10 11  1  0
 11 12  2  0
 12 13  1  0
 12 14  1  0
 14 15  1  0
 14 16  2  0
 16 17  1  0
 17 18  3  0
 16 19  1  0
 19 20  1  0
 19 21  2  0
 21 22  1  0
 10 23  1  0
 23 24  1  0
 23 25  1  0
 23 26  1  0
  6 27  1  0
 27 28  1  0
 27 29  2  0
 29 30  1  0
 29  2  1  0
 21 11  1  0
M  END
>  <cnnaffinity>  (1) 
-4.01608

>  <filename>  (1) 
CN(Cc1cccnc1)c1ccc(C#N)cc1

$$$$
