
     RDKit          3D

 39 40  0  0  0  0  0  0  0  0999 V2000
    4.9066    1.5743   17.0699 H   0  0  0  0  0  0  0  0  0  0  0  0
    5.5032    1.1883   17.8916 C   0  0  0  0  0  0  0  0  0  0  0  0
    6.6445    0.5643   17.5590 N   0  0  0  0  0  0  0  0  0  0  0  0
    7.3949    0.0754   18.5554 C   0  0  0  0  0  0  0  0  0  0  0  0
    8.2994   -0.4510   18.2530 H   0  0  0  0  0  0  0  0  0  0  0  0
    7.0887    0.1877   19.9423 C   0  0  0  0  0  0  0  0  0  0  0  0
    7.9141   -0.4067   20.9221 N   0  0  0  0  0  0  0  0  0  0  0  0
    7.8937    0.0849   22.3006 C   0  0  0  0  0  0  0  0  0  0  0  0
    7.8224    1.1769   22.2691 H   0  0  0  0  0  0  0  0  0  0  0  0
    8.8600   -0.1487   22.7545 H   0  0  0  0  0  0  0  0  0  0  0  0
    6.7760   -0.5007   23.1935 C   0  0  0  0  0  0  0  0  0  0  0  0
    6.5612    0.2097   23.9964 H   0  0  0  0  0  0  0  0  0  0  0  0
    5.8930   -0.5773   22.5506 H   0  0  0  0  0  0  0  0  0  0  0  0
    7.1160   -1.8128   23.7996 N   0  0  0  0  0  0  0  0  0  0  0  0
    6.1840   -2.2716   25.1345 S   0  0  0  0  0  0  0  0  0  0  0  0
    5.4973   -3.5091   24.8289 O   0  0  0  0  0  0  0  0  0  0  0  0
    5.4854   -1.1116   25.6353 O   0  0  0  0  0  0  0  0  0  0  0  0
    7.3588   -2.6333   26.2446 N   0  0  0  0  0  0  0  0  0  0  0  0
    8.1240   -3.8543   26.0501 C   0  0  0  0  0  0  0  0  0  0  0  0
    8.6684   -4.0580   26.9810 H   0  0  0  0  0  0  0  0  0  0  0  0
    7.4502   -4.6989   25.8718 H   0  0  0  0  0  0  0  0  0  0  0  0
    8.8735   -3.7872   25.2429 H   0  0  0  0  0  0  0  0  0  0  0  0
    8.0574   -1.4884   26.8124 C   0  0  0  0  0  0  0  0  0  0  0  0
    7.3276   -0.7739   27.2059 H   0  0  0  0  0  0  0  0  0  0  0  0
    8.6602   -1.8448   27.6563 H   0  0  0  0  0  0  0  0  0  0  0  0
    8.7289   -0.9916   26.0942 H   0  0  0  0  0  0  0  0  0  0  0  0
    7.3358   -2.9209   22.8480 C   0  0  0  0  0  0  0  0  0  0  0  0
    6.4160   -3.1431   22.2748 H   0  0  0  0  0  0  0  0  0  0  0  0
    7.5590   -3.8246   23.4211 H   0  0  0  0  0  0  0  0  0  0  0  0
    8.5149   -2.6852   21.9028 C   0  0  0  0  0  0  0  0  0  0  0  0
    9.3795   -2.2890   22.4500 H   0  0  0  0  0  0  0  0  0  0  0  0
    8.8095   -3.6603   21.4988 H   0  0  0  0  0  0  0  0  0  0  0  0
    8.2164   -1.8185   20.6825 C   0  0  0  0  0  0  0  0  0  0  0  0
    9.0733   -1.8697   19.9915 H   0  0  0  0  0  0  0  0  0  0  0  0
    7.3594   -2.2684   20.1464 H   0  0  0  0  0  0  0  0  0  0  0  0
    5.8958    0.8660   20.2525 C   0  0  0  0  0  0  0  0  0  0  0  0
    5.6155    1.0076   21.2928 H   0  0  0  0  0  0  0  0  0  0  0  0
    5.0851    1.3405   19.2172 C   0  0  0  0  0  0  0  0  0  0  0  0
    4.1419    1.8246   19.4387 H   0  0  0  0  0  0  0  0  0  0  0  0
  1  2  1  0
  2  3  2  0
  3  4  1  0
  4  5  1  0
  4  6  2  0
  6  7  1  0
  7  8  1  0
  8  9  1  0
  8 10  1  0
  8 11  1  0
 11 12  1  0
 11 13  1  0
 11 14  1  0
 14 15  1  0
 15 16  2  0
 15 17  2  0
 15 18  1  0
 18 19  1  0
 19 20  1  0
 19 21  1  0
 19 22  1  0
 18 23  1  0
 23 24  1  0
 23 25  1  0
 23 26  1  0
 14 27  1  0
 27 28  1  0
 27 29  1  0
 27 30  1  0
 30 31  1  0
 30 32  1  0
 30 33  1  0
 33 34  1  0
 33 35  1  0
  6 36  1  0
 36 37  1  0
 36 38  2  0
 38 39  1  0
 38  2  1  0
 33  7  1  0
M  END
>  <cnnaffinity>  (1) 
-4.69199

>  <filename>  (1) 
CN(C)S(=O)(=O)N1CCCN(c2cccnc2)CC1

$$$$
