
     RDKit          3D

 31 32  0  0  0  0  0  0  0  0999 V2000
    5.0308    1.7824   17.0588 H   0  0  0  0  0  0  0  0  0  0  0  0
    5.4767    1.2555   17.9008 C   0  0  0  0  0  0  0  0  0  0  0  0
    6.6368    0.6226   17.6621 N   0  0  0  0  0  0  0  0  0  0  0  0
    7.2073   -0.0210   18.6868 C   0  0  0  0  0  0  0  0  0  0  0  0
    8.1606   -0.5144   18.4954 H   0  0  0  0  0  0  0  0  0  0  0  0
    6.6537   -0.0959   19.9785 C   0  0  0  0  0  0  0  0  0  0  0  0
    7.3081   -0.8125   21.0301 N   0  0  0  0  0  0  0  0  0  0  0  0
    6.6253   -1.8511   21.6483 C   0  0  0  0  0  0  0  0  0  0  0  0
    5.5582   -2.2529   21.2841 O   0  0  0  0  0  0  0  0  0  0  0  0
    7.3787   -2.3493   22.6793 O   0  0  0  0  0  0  0  0  0  0  0  0
    6.8827   -3.3191   23.4792 C   0  0  0  0  0  0  0  0  0  0  0  0
    5.6505   -3.7370   23.2981 N   0  0  0  0  0  0  0  0  0  0  0  0
    5.1895   -4.6966   24.0896 C   0  0  0  0  0  0  0  0  0  0  0  0
    4.1645   -5.0050   23.8890 H   0  0  0  0  0  0  0  0  0  0  0  0
    5.9458   -5.2869   25.0999 C   0  0  0  0  0  0  0  0  0  0  0  0
    5.4996   -6.0671   25.7025 H   0  0  0  0  0  0  0  0  0  0  0  0
    7.2525   -4.8426   25.2963 C   0  0  0  0  0  0  0  0  0  0  0  0
    7.8722   -5.2822   26.0825 H   0  0  0  0  0  0  0  0  0  0  0  0
    7.7368   -3.8265   24.4688 C   0  0  0  0  0  0  0  0  0  0  0  0
    9.1205   -3.2616   24.5821 C   0  0  0  0  0  0  0  0  0  0  0  0
    9.8365   -3.4570   23.4620 F   0  0  0  0  0  0  0  0  0  0  0  0
    9.8077   -3.8403   25.5896 F   0  0  0  0  0  0  0  0  0  0  0  0
    9.1129   -1.9390   24.8288 F   0  0  0  0  0  0  0  0  0  0  0  0
    8.7282   -0.5446   21.2701 C   0  0  0  0  0  0  0  0  0  0  0  0
    9.3666   -1.3245   20.8353 H   0  0  0  0  0  0  0  0  0  0  0  0
    8.9798    0.4141   20.8061 H   0  0  0  0  0  0  0  0  0  0  0  0
    8.9159   -0.4744   22.3433 H   0  0  0  0  0  0  0  0  0  0  0  0
    5.4405    0.5654   20.2135 C   0  0  0  0  0  0  0  0  0  0  0  0
    4.9932    0.5257   21.2048 H   0  0  0  0  0  0  0  0  0  0  0  0
    4.8583    1.2605   19.1535 C   0  0  0  0  0  0  0  0  0  0  0  0
    3.9364    1.8093   19.2944 H   0  0  0  0  0  0  0  0  0  0  0  0
  1  2  1  0
  2  3  2  0
  3  4  1  0
  4  5  1  0
  4  6  2  0
  6  7  1  0
  7  8  1  0
  8  9  2  0
  8 10  1  0
 10 11  1  0
 11 12  2  0
 12 13  1  0
 13 14  1  0
 13 15  2  0
 15 16  1  0
 15 17  1  0
 17 18  1  0
 17 19  2  0
 19 20  1  0
 20 21  1  0
 20 22  1  0
 20 23  1  0
  7 24  1  0
 24 25  1  0
 24 26  1  0
 24 27  1  0
  6 28  1  0
 28 29  1  0
 28 30  2  0
 30 31  1  0
 30  2  1  0
 19 11  1  0
M  END
>  <cnnaffinity>  (1) 
-5.17771

>  <filename>  (1) 
CN(C(=O)Oc1ncccc1C(F)(F)F)c1cccnc1

$$$$
