
     RDKit          3D

 39 41  0  0  0  0  0  0  0  0999 V2000
    4.9165    1.7907   16.9855 H   0  0  0  0  0  0  0  0  0  0  0  0
    5.3946    1.2969   17.8274 C   0  0  0  0  0  0  0  0  0  0  0  0
    6.5479    0.6736   17.5625 N   0  0  0  0  0  0  0  0  0  0  0  0
    7.1586    0.0649   18.5912 C   0  0  0  0  0  0  0  0  0  0  0  0
    8.1045   -0.4048   18.3333 H   0  0  0  0  0  0  0  0  0  0  0  0
    6.6655    0.0108   19.9126 C   0  0  0  0  0  0  0  0  0  0  0  0
    7.3528   -0.8480   20.9879 C   0  0  2  0  0  0  0  0  0  0  0  0
    6.7004   -2.2558   20.8296 C   0  0  0  0  0  0  0  0  0  0  0  0
    5.6128   -2.1111   20.8459 H   0  0  0  0  0  0  0  0  0  0  0  0
    6.8714   -2.5684   19.7945 H   0  0  0  0  0  0  0  0  0  0  0  0
    7.0867   -3.2909   21.7904 N   0  0  0  0  0  0  0  0  0  0  0  0
    5.9587   -3.8570   22.5065 C   0  0  0  0  0  0  0  0  0  0  0  0
    6.3252   -4.5288   23.2863 H   0  0  0  0  0  0  0  0  0  0  0  0
    5.2736   -4.4208   21.8452 H   0  0  0  0  0  0  0  0  0  0  0  0
    5.3877   -3.0598   22.9929 H   0  0  0  0  0  0  0  0  0  0  0  0
    7.9190   -4.3336   21.2210 C   0  0  0  0  0  0  0  0  0  0  0  0
    8.2903   -4.9951   22.0101 H   0  0  0  0  0  0  0  0  0  0  0  0
    7.3838   -4.9507   20.4731 H   0  0  0  0  0  0  0  0  0  0  0  0
    8.7915   -3.8836   20.7442 H   0  0  0  0  0  0  0  0  0  0  0  0
    7.1995   -0.2920   22.4497 C   0  0  0  0  0  0  0  0  0  0  0  0
    6.6732   -1.0125   23.0846 H   0  0  0  0  0  0  0  0  0  0  0  0
    6.6354    0.6452   22.4781 H   0  0  0  0  0  0  0  0  0  0  0  0
    8.6403   -0.0730   22.9536 C   0  0  2  0  0  0  0  0  0  0  0  0
    8.7189   -0.0060   24.0405 H   0  0  0  0  0  0  0  0  0  0  0  0
    9.2193    1.1436   22.2078 C   0  0  0  0  0  0  0  0  0  0  0  0
    8.5554    2.0143   22.1955 H   0  0  0  0  0  0  0  0  0  0  0  0
   10.1671    1.4701   22.6503 H   0  0  0  0  0  0  0  0  0  0  0  0
    9.4661    0.5593   20.7944 C   0  0  0  0  0  0  0  0  0  0  0  0
    8.9967    1.1380   19.9969 H   0  0  0  0  0  0  0  0  0  0  0  0
   10.5433    0.5313   20.6729 H   0  0  0  0  0  0  0  0  0  0  0  0
    8.9160   -0.8863   20.8782 C   0  0  1  0  0  0  0  0  0  0  0  0
    9.2875   -1.5439   20.0798 H   0  0  0  0  0  0  0  0  0  0  0  0
    9.3844   -1.2435   22.2947 C   0  0  0  0  0  0  0  0  0  0  0  0
   10.4779   -1.1757   22.3969 H   0  0  0  0  0  0  0  0  0  0  0  0
    9.0405   -2.2214   22.6372 H   0  0  0  0  0  0  0  0  0  0  0  0
    5.4417    0.6539   20.1512 C   0  0  0  0  0  0  0  0  0  0  0  0
    4.9909    0.6357   21.1489 H   0  0  0  0  0  0  0  0  0  0  0  0
    4.8060    1.3147   19.0971 C   0  0  0  0  0  0  0  0  0  0  0  0
    3.8761    1.8436   19.2536 H   0  0  0  0  0  0  0  0  0  0  0  0
  1  2  1  0
  2  3  2  0
  3  4  1  0
  4  5  1  0
  4  6  2  0
  6  7  1  0
  7  8  1  1
  8  9  1  0
  8 10  1  0
  8 11  1  0
 11 12  1  0
 12 13  1  0
 12 14  1  0
 12 15  1  0
 11 16  1  0
 16 17  1  0
 16 18  1  0
 16 19  1  0
  7 20  1  0
 20 21  1  0
 20 22  1  0
 20 23  1  0
 23 24  1  1
 23 25  1  0
 25 26  1  0
 25 27  1  0
 25 28  1  0
 28 29  1  0
 28 30  1  0
 28 31  1  0
 31 32  1  6
 31 33  1  0
 33 34  1  0
 33 35  1  0
  6 36  1  0
 36 37  1  0
 36 38  2  0
 38 39  1  0
 38  2  1  0
 31  7  1  0
 33 23  1  0
M  END
>  <cnnaffinity>  (1) 
-4.823

>  <filename>  (1) 
CN(C)C[C@@]1(c2cccnc2)C[C@@H]2CC[C@H]1C2

$$$$
