
     RDKit          3D

 35 37  0  0  0  0  0  0  0  0999 V2000
    4.9477    1.7835   17.0057 H   0  0  0  0  0  0  0  0  0  0  0  0
    5.4151    1.2861   17.8517 C   0  0  0  0  0  0  0  0  0  0  0  0
    6.5767    0.6653   17.5991 N   0  0  0  0  0  0  0  0  0  0  0  0
    7.1829    0.0433   18.6202 C   0  0  0  0  0  0  0  0  0  0  0  0
    8.1351   -0.4300   18.3807 H   0  0  0  0  0  0  0  0  0  0  0  0
    6.6583   -0.0294   19.9343 C   0  0  0  0  0  0  0  0  0  0  0  0
    7.3317   -0.7422   20.9996 N   0  0  0  0  0  0  0  0  0  0  0  0
    6.6602   -1.7741   21.6476 C   0  0  0  0  0  0  0  0  0  0  0  0
    5.5335   -2.1246   21.3840 O   0  0  0  0  0  0  0  0  0  0  0  0
    7.4352   -2.3591   22.6230 O   0  0  0  0  0  0  0  0  0  0  0  0
    7.0193   -3.5260   23.2749 C   0  0  0  0  0  0  0  0  0  0  0  0
    6.3958   -4.5376   22.5792 C   0  0  0  0  0  0  0  0  0  0  0  0
    6.1651   -4.3869   21.5317 H   0  0  0  0  0  0  0  0  0  0  0  0
    6.0169   -5.7325   23.2394 C   0  0  0  0  0  0  0  0  0  0  0  0
    5.5292   -6.5190   22.6690 H   0  0  0  0  0  0  0  0  0  0  0  0
    6.2480   -5.8891   24.5821 C   0  0  0  0  0  0  0  0  0  0  0  0
    5.8770   -6.7475   25.1309 H   0  0  0  0  0  0  0  0  0  0  0  0
    6.9575   -4.9046   25.3216 C   0  0  0  0  0  0  0  0  0  0  0  0
    7.2888   -5.1245   26.6924 C   0  0  0  0  0  0  0  0  0  0  0  0
    7.0111   -6.0705   27.1496 H   0  0  0  0  0  0  0  0  0  0  0  0
    7.9498   -4.1629   27.4134 C   0  0  0  0  0  0  0  0  0  0  0  0
    8.1761   -4.3452   28.4584 H   0  0  0  0  0  0  0  0  0  0  0  0
    8.3161   -2.9391   26.7967 C   0  0  0  0  0  0  0  0  0  0  0  0
    8.8281   -2.1828   27.3872 H   0  0  0  0  0  0  0  0  0  0  0  0
    8.0270   -2.7051   25.4694 C   0  0  0  0  0  0  0  0  0  0  0  0
    8.3094   -1.7704   24.9942 H   0  0  0  0  0  0  0  0  0  0  0  0
    7.3501   -3.6826   24.6772 C   0  0  0  0  0  0  0  0  0  0  0  0
    8.7615   -0.4557   21.2000 C   0  0  0  0  0  0  0  0  0  0  0  0
    8.9686    0.5066   20.7246 H   0  0  0  0  0  0  0  0  0  0  0  0
    9.4096   -1.2146   20.7435 H   0  0  0  0  0  0  0  0  0  0  0  0
    9.0218   -0.3693   22.2585 H   0  0  0  0  0  0  0  0  0  0  0  0
    5.4429    0.6290   20.1737 C   0  0  0  0  0  0  0  0  0  0  0  0
    5.0116    0.5968   21.1714 H   0  0  0  0  0  0  0  0  0  0  0  0
    4.8194    1.3042   19.1170 C   0  0  0  0  0  0  0  0  0  0  0  0
    3.8870    1.8377   19.2594 H   0  0  0  0  0  0  0  0  0  0  0  0
  1  2  1  0
  2  3  2  0
  3  4  1  0
  4  5  1  0
  4  6  2  0
  6  7  1  0
  7  8  1  0
  8  9  2  0
  8 10  1  0
 10 11  1  0
 11 12  2  0
 12 13  1  0
 12 14  1  0
 14 15  1  0
 14 16  2  0
 16 17  1  0
 16 18  1  0
 18 19  2  0
 19 20  1  0
 19 21  1  0
 21 22  1  0
 21 23  2  0
 23 24  1  0
 23 25  1  0
 25 26  1  0
 25 27  2  0
  7 28  1  0
 28 29  1  0
 28 30  1  0
 28 31  1  0
  6 32  1  0
 32 33  1  0
 32 34  2  0
 34 35  1  0
 34  2  1  0
 27 11  1  0
 27 18  1  0
M  END
>  <cnnaffinity>  (1) 
-5.05381

>  <filename>  (1) 
CN(C(=O)Oc1cccc2ccccc12)c1cccnc1

$$$$
