
     RDKit          3D

 32 33  0  0  0  0  0  0  0  0999 V2000
    4.9266    1.7885   16.9872 H   0  0  0  0  0  0  0  0  0  0  0  0
    5.4043    1.2932   17.8305 C   0  0  0  0  0  0  0  0  0  0  0  0
    6.5663    0.6775   17.5771 N   0  0  0  0  0  0  0  0  0  0  0  0
    7.1830    0.0646   18.5971 C   0  0  0  0  0  0  0  0  0  0  0  0
    8.1295   -0.4144   18.3577 H   0  0  0  0  0  0  0  0  0  0  0  0
    6.6627   -0.0022   19.9094 C   0  0  0  0  0  0  0  0  0  0  0  0
    7.3279   -0.6645   20.9782 N   0  0  0  0  0  0  0  0  0  0  0  0
    6.5664   -1.5240   21.8227 C   0  0  0  0  0  0  0  0  0  0  0  0
    5.7731   -2.3231   21.3681 O   0  0  0  0  0  0  0  0  0  0  0  0
    6.7991   -1.3658   23.3137 C   0  0  0  0  0  0  0  0  0  0  0  0
    6.4206   -2.4166   24.1676 C   0  0  0  0  0  0  0  0  0  0  0  0
    5.9993   -3.3283   23.7534 H   0  0  0  0  0  0  0  0  0  0  0  0
    6.5567   -2.2714   25.5492 C   0  0  0  0  0  0  0  0  0  0  0  0
    6.2609   -3.0903   26.1990 H   0  0  0  0  0  0  0  0  0  0  0  0
    7.0535   -1.0884   26.1020 C   0  0  0  0  0  0  0  0  0  0  0  0
    7.1710   -0.9606   27.1738 H   0  0  0  0  0  0  0  0  0  0  0  0
    7.4097   -0.0429   25.2487 C   0  0  0  0  0  0  0  0  0  0  0  0
    7.8950    1.0947   25.8884 O   0  0  0  0  0  0  0  0  0  0  0  0
    8.2877    2.1928   25.2115 C   0  0  0  0  0  0  0  0  0  0  0  0
    7.2969    2.7496   24.4919 F   0  0  0  0  0  0  0  0  0  0  0  0
    9.2941    1.9575   24.3501 F   0  0  0  0  0  0  0  0  0  0  0  0
    8.7010    3.0699   26.1199 F   0  0  0  0  0  0  0  0  0  0  0  0
    7.2871   -0.1611   23.8637 C   0  0  0  0  0  0  0  0  0  0  0  0
    7.5527    0.6862   23.2367 H   0  0  0  0  0  0  0  0  0  0  0  0
    8.7896   -0.7234   20.9916 C   0  0  0  0  0  0  0  0  0  0  0  0
    9.1910   -1.5023   20.3230 H   0  0  0  0  0  0  0  0  0  0  0  0
    9.1537   -0.9192   22.0063 H   0  0  0  0  0  0  0  0  0  0  0  0
    9.1941    0.2371   20.6572 H   0  0  0  0  0  0  0  0  0  0  0  0
    5.4402    0.6449   20.1506 C   0  0  0  0  0  0  0  0  0  0  0  0
    5.0084    0.6263   21.1547 H   0  0  0  0  0  0  0  0  0  0  0  0
    4.8122    1.3099   19.0980 C   0  0  0  0  0  0  0  0  0  0  0  0
    3.8814    1.8395   19.2507 H   0  0  0  0  0  0  0  0  0  0  0  0
  1  2  1  0
  2  3  2  0
  3  4  1  0
  4  5  1  0
  4  6  2  0
  6  7  1  0
  7  8  1  0
  8  9  2  0
  8 10  1  0
 10 11  2  0
 11 12  1  0
 11 13  1  0
 13 14  1  0
 13 15  2  0
 15 16  1  0
 15 17  1  0
 17 18  1  0
 18 19  1  0
 19 20  1  0
 19 21  1  0
 19 22  1  0
 17 23  2  0
 23 24  1  0
  7 25  1  0
 25 26  1  0
 25 27  1  0
 25 28  1  0
  6 29  1  0
 29 30  1  0
 29 31  2  0
 31 32  1  0
 31  2  1  0
 23 10  1  0
M  END
>  <cnnaffinity>  (1) 
-4.81765

>  <filename>  (1) 
CN(C(=O)c1cccc(OC(F)(F)F)c1)c1cccnc1

$$$$
