
     RDKit          3D

 36 38  0  0  0  0  0  0  0  0999 V2000
    4.9513    1.8591   16.9370 H   0  0  0  0  0  0  0  0  0  0  0  0
    5.4123    1.3315   17.7710 C   0  0  0  0  0  0  0  0  0  0  0  0
    6.5769    0.7095   17.5204 N   0  0  0  0  0  0  0  0  0  0  0  0
    7.1725    0.0736   18.5373 C   0  0  0  0  0  0  0  0  0  0  0  0
    8.1180   -0.4005   18.2789 H   0  0  0  0  0  0  0  0  0  0  0  0
    6.6601    0.0095   19.8530 C   0  0  0  0  0  0  0  0  0  0  0  0
    7.3697   -0.6794   20.9579 C   0  0  0  0  0  0  0  0  0  0  0  0
    7.6256   -0.2785   22.2610 C   0  0  0  0  0  0  0  0  0  0  0  0
    7.2765    1.0380   22.9168 C   0  0  0  0  0  0  0  0  0  0  0  0
    6.3297    0.9460   23.4749 H   0  0  0  0  0  0  0  0  0  0  0  0
    7.0985    1.7826   22.1247 H   0  0  0  0  0  0  0  0  0  0  0  0
    8.3037    1.5395   23.8164 N   0  0  0  0  0  0  0  0  0  0  0  0
    9.4277    2.1725   23.2793 C   0  0  0  0  0  0  0  0  0  0  0  0
    9.8226    1.9769   21.9344 C   0  0  0  0  0  0  0  0  0  0  0  0
    9.2349    1.3185   21.3030 H   0  0  0  0  0  0  0  0  0  0  0  0
   10.9768    2.5910   21.4383 C   0  0  0  0  0  0  0  0  0  0  0  0
   11.2934    2.4004   20.4160 H   0  0  0  0  0  0  0  0  0  0  0  0
   11.7156    3.4709   22.2356 C   0  0  0  0  0  0  0  0  0  0  0  0
   12.5975    3.9659   21.8379 H   0  0  0  0  0  0  0  0  0  0  0  0
   11.3234    3.6945   23.5566 C   0  0  0  0  0  0  0  0  0  0  0  0
   11.8796    4.3781   24.1943 H   0  0  0  0  0  0  0  0  0  0  0  0
   10.2063    3.0372   24.0751 C   0  0  0  0  0  0  0  0  0  0  0  0
    9.9375    3.1507   25.1162 H   0  0  0  0  0  0  0  0  0  0  0  0
    8.2733    1.2138   25.2338 C   0  0  0  0  0  0  0  0  0  0  0  0
    7.5049    0.4611   25.4508 H   0  0  0  0  0  0  0  0  0  0  0  0
    8.0600    2.0970   25.8556 H   0  0  0  0  0  0  0  0  0  0  0  0
    9.2444    0.8147   25.5653 H   0  0  0  0  0  0  0  0  0  0  0  0
    8.3570   -1.3423   22.8312 C   0  0  0  0  0  0  0  0  0  0  0  0
    8.7657   -1.4280   23.8308 H   0  0  0  0  0  0  0  0  0  0  0  0
    8.5358   -2.3389   21.9687 N   0  0  0  0  0  0  0  0  0  0  0  0
    7.9429   -1.9065   20.8412 N   0  0  0  0  0  0  0  0  0  0  0  0
    7.8648   -2.5246   20.0459 H   0  0  0  0  0  0  0  0  0  0  0  0
    5.4305    0.6492   20.0795 C   0  0  0  0  0  0  0  0  0  0  0  0
    4.9691    0.6117   21.0667 H   0  0  0  0  0  0  0  0  0  0  0  0
    4.7996    1.3136   19.0267 C   0  0  0  0  0  0  0  0  0  0  0  0
    3.8558    1.8264   19.1662 H   0  0  0  0  0  0  0  0  0  0  0  0
  1  2  1  0
  2  3  2  0
  3  4  1  0
  4  5  1  0
  4  6  2  0
  6  7  1  0
  7  8  2  0
  8  9  1  0
  9 10  1  0
  9 11  1  0
  9 12  1  0
 12 13  1  0
 13 14  2  0
 14 15  1  0
 14 16  1  0
 16 17  1  0
 16 18  2  0
 18 19  1  0
 18 20  1  0
 20 21  1  0
 20 22  2  0
 22 23  1  0
 12 24  1  0
 24 25  1  0
 24 26  1  0
 24 27  1  0
  8 28  1  0
 28 29  1  0
 28 30  2  0
 30 31  1  0
 31 32  1  0
  6 33  1  0
 33 34  1  0
 33 35  2  0
 35 36  1  0
 35  2  1  0
 31  7  1  0
 22 13  1  0
M  END
>  <cnnaffinity>  (1) 
-5.31336

>  <filename>  (1) 
CN(Cc1cn[nH]c1-c1cccnc1)c1ccccc1

$$$$
