
     RDKit          3D

 34 36  0  0  0  0  0  0  0  0999 V2000
    5.1150    1.8039   17.0853 H   0  0  0  0  0  0  0  0  0  0  0  0
    5.5225    1.2430   17.9253 C   0  0  0  0  0  0  0  0  0  0  0  0
    6.6767    0.5957   17.6989 N   0  0  0  0  0  0  0  0  0  0  0  0
    7.2133   -0.0900   18.7169 C   0  0  0  0  0  0  0  0  0  0  0  0
    8.1682   -0.5791   18.5207 H   0  0  0  0  0  0  0  0  0  0  0  0
    6.6207   -0.2120   19.9965 C   0  0  0  0  0  0  0  0  0  0  0  0
    7.2707   -0.9427   21.0583 N   0  0  0  0  0  0  0  0  0  0  0  0
    6.6115   -1.9545   21.7524 C   0  0  0  0  0  0  0  0  0  0  0  0
    5.5445   -2.4321   21.4606 O   0  0  0  0  0  0  0  0  0  0  0  0
    7.3728   -2.3753   22.8428 O   0  0  0  0  0  0  0  0  0  0  0  0
    6.9015   -3.2292   23.8460 C   0  0  0  0  0  0  0  0  0  0  0  0
    5.6807   -3.0356   24.4639 C   0  0  0  0  0  0  0  0  0  0  0  0
    5.1088   -2.1438   24.2639 H   0  0  0  0  0  0  0  0  0  0  0  0
    5.1184   -3.8900   25.3632 N   0  0  0  0  0  0  0  0  0  0  0  0
    5.8280   -4.9292   25.7381 C   0  0  0  0  0  0  0  0  0  0  0  0
    5.3570   -5.6325   26.4229 H   0  0  0  0  0  0  0  0  0  0  0  0
    7.1795   -5.1532   25.3338 C   0  0  0  0  0  0  0  0  0  0  0  0
    7.9603   -6.1842   25.9326 C   0  0  0  0  0  0  0  0  0  0  0  0
    7.4756   -6.8616   26.6297 H   0  0  0  0  0  0  0  0  0  0  0  0
    9.3062   -6.2697   25.6574 C   0  0  0  0  0  0  0  0  0  0  0  0
    9.9341   -6.9924   26.1706 H   0  0  0  0  0  0  0  0  0  0  0  0
    9.9071   -5.3784   24.7302 C   0  0  0  0  0  0  0  0  0  0  0  0
   10.9788   -5.4594   24.5590 H   0  0  0  0  0  0  0  0  0  0  0  0
    9.1534   -4.4150   24.0813 C   0  0  0  0  0  0  0  0  0  0  0  0
    9.5965   -3.7268   23.3670 H   0  0  0  0  0  0  0  0  0  0  0  0
    7.7648   -4.2605   24.3762 C   0  0  0  0  0  0  0  0  0  0  0  0
    8.6894   -0.6461   21.3029 C   0  0  0  0  0  0  0  0  0  0  0  0
    8.9307    0.3040   20.8193 H   0  0  0  0  0  0  0  0  0  0  0  0
    9.3418   -1.4314   20.9005 H   0  0  0  0  0  0  0  0  0  0  0  0
    8.8818   -0.5489   22.3736 H   0  0  0  0  0  0  0  0  0  0  0  0
    5.4181    0.4776   20.2123 C   0  0  0  0  0  0  0  0  0  0  0  0
    4.9407    0.4294   21.1893 H   0  0  0  0  0  0  0  0  0  0  0  0
    4.8657    1.2209   19.1601 C   0  0  0  0  0  0  0  0  0  0  0  0
    3.9506    1.7911   19.2887 H   0  0  0  0  0  0  0  0  0  0  0  0
  1  2  1  0
  2  3  2  0
  3  4  1  0
  4  5  1  0
  4  6  2  0
  6  7  1  0
  7  8  1  0
  8  9  2  0
  8 10  1  0
 10 11  1  0
 11 12  2  0
 12 13  1  0
 12 14  1  0
 14 15  2  0
 15 16  1  0
 15 17  1  0
 17 18  2  0
 18 19  1  0
 18 20  1  0
 20 21  1  0
 20 22  2  0
 22 23  1  0
 22 24  1  0
 24 25  1  0
 24 26  2  0
  7 27  1  0
 27 28  1  0
 27 29  1  0
 27 30  1  0
  6 31  1  0
 31 32  1  0
 31 33  2  0
 33 34  1  0
 33  2  1  0
 26 11  1  0
 26 17  1  0
M  END
>  <cnnaffinity>  (1) 
-5.20061

>  <filename>  (1) 
CN(C(=O)Oc1cncc2ccccc12)c1cccnc1

$$$$
