
     RDKit          3D

 33 35  0  0  0  0  0  0  0  0999 V2000
    4.9686    1.8295   16.9458 H   0  0  0  0  0  0  0  0  0  0  0  0
    5.4143    1.2986   17.7814 C   0  0  0  0  0  0  0  0  0  0  0  0
    6.5658    0.6609   17.5262 N   0  0  0  0  0  0  0  0  0  0  0  0
    7.1472    0.0086   18.5369 C   0  0  0  0  0  0  0  0  0  0  0  0
    8.0987   -0.4722   18.3123 H   0  0  0  0  0  0  0  0  0  0  0  0
    6.6186   -0.0444   19.8411 C   0  0  0  0  0  0  0  0  0  0  0  0
    7.3816   -0.6779   20.9329 C   0  0  0  0  0  0  0  0  0  0  0  0
    8.4898   -1.3965   20.6922 N   0  0  0  0  0  0  0  0  0  0  0  0
    8.9291   -1.6930   21.9372 N   0  0  0  0  0  0  0  0  0  0  0  0
   10.0657   -2.2901   22.4670 C   0  0  0  0  0  0  0  0  0  0  0  0
   10.8007   -2.7167   21.8099 H   0  0  0  0  0  0  0  0  0  0  0  0
    9.9735   -2.1393   23.8130 C   0  0  0  0  0  0  0  0  0  0  0  0
   10.6639   -2.4638   24.5797 H   0  0  0  0  0  0  0  0  0  0  0  0
    8.7869   -1.4574   24.1213 N   0  0  0  0  0  0  0  0  0  0  0  0
    8.2426   -1.0082   25.3921 C   0  0  0  0  0  0  0  0  0  0  0  0
    9.0571   -0.7054   26.0642 H   0  0  0  0  0  0  0  0  0  0  0  0
    7.6611   -0.1047   25.1744 H   0  0  0  0  0  0  0  0  0  0  0  0
    7.4002   -1.9544   26.1006 N   0  0  0  0  0  0  0  0  0  0  0  0
    8.1181   -3.1467   26.5280 C   0  0  0  0  0  0  0  0  0  0  0  0
    9.0159   -2.8532   27.0828 H   0  0  0  0  0  0  0  0  0  0  0  0
    8.4318   -3.8098   25.7005 H   0  0  0  0  0  0  0  0  0  0  0  0
    7.5044   -3.7356   27.2191 H   0  0  0  0  0  0  0  0  0  0  0  0
    6.1292   -2.2319   25.4429 C   0  0  0  0  0  0  0  0  0  0  0  0
    5.5977   -1.2915   25.2505 H   0  0  0  0  0  0  0  0  0  0  0  0
    5.4853   -2.8224   26.1055 H   0  0  0  0  0  0  0  0  0  0  0  0
    6.2199   -2.7723   24.4825 H   0  0  0  0  0  0  0  0  0  0  0  0
    8.1575   -1.1943   22.9196 C   0  0  0  0  0  0  0  0  0  0  0  0
    7.1010   -0.5378   22.3188 C   0  0  0  0  0  0  0  0  0  0  0  0
    6.2546   -0.0500   22.7659 H   0  0  0  0  0  0  0  0  0  0  0  0
    5.4023    0.6223   20.0817 C   0  0  0  0  0  0  0  0  0  0  0  0
    4.9533    0.6496   21.0771 H   0  0  0  0  0  0  0  0  0  0  0  0
    4.7932    1.3032   19.0337 C   0  0  0  0  0  0  0  0  0  0  0  0
    3.8726    1.8563   19.1800 H   0  0  0  0  0  0  0  0  0  0  0  0
  1  2  1  0
  2  3  2  0
  3  4  1  0
  4  5  1  0
  4  6  2  0
  6  7  1  0
  7  8  2  0
  8  9  1  0
  9 10  1  0
 10 11  1  0
 10 12  2  0
 12 13  1  0
 12 14  1  0
 14 15  1  0
 15 16  1  0
 15 17  1  0
 15 18  1  0
 18 19  1  0
 19 20  1  0
 19 21  1  0
 19 22  1  0
 18 23  1  0
 23 24  1  0
 23 25  1  0
 23 26  1  0
 14 27  1  0
 27 28  2  0
 28 29  1  0
  6 30  1  0
 30 31  1  0
 30 32  2  0
 32 33  1  0
 32  2  1  0
 28  7  1  0
 27  9  1  0
M  END
>  <cnnaffinity>  (1) 
-5.05982

>  <filename>  (1) 
CN(C)Cn1ccn2nc(-c3cccnc3)cc12

$$$$
