
     RDKit          3D

 26 26  0  0  0  0  0  0  0  0999 V2000
    4.9939    1.7562   17.0143 H   0  0  0  0  0  0  0  0  0  0  0  0
    5.4666    1.2750   17.8668 C   0  0  0  0  0  0  0  0  0  0  0  0
    6.6284    0.6554   17.6171 N   0  0  0  0  0  0  0  0  0  0  0  0
    7.2346    0.0493   18.6416 C   0  0  0  0  0  0  0  0  0  0  0  0
    8.1654   -0.4547   18.3823 H   0  0  0  0  0  0  0  0  0  0  0  0
    6.7193    0.0201   19.9409 C   0  0  0  0  0  0  0  0  0  0  0  0
    7.3937   -0.7578   21.0095 C   0  0  0  0  0  0  0  0  0  0  0  0
    6.7794   -1.1936   21.9675 O   0  0  0  0  0  0  0  0  0  0  0  0
    8.7393   -0.9849   20.8134 N   0  0  0  0  0  0  0  0  0  0  0  0
    9.1911   -0.1677   20.4335 H   0  0  0  0  0  0  0  0  0  0  0  0
    9.4918   -1.5673   21.9064 C   0  0  0  0  0  0  0  0  0  0  0  0
   10.3402   -2.1338   21.4952 H   0  0  0  0  0  0  0  0  0  0  0  0
    8.8453   -2.2822   22.4237 H   0  0  0  0  0  0  0  0  0  0  0  0
    9.9685   -0.5999   22.8443 N   0  0  0  0  0  0  0  0  0  0  0  0
    9.0142   -0.0045   23.7605 C   0  0  0  0  0  0  0  0  0  0  0  0
    8.3953    0.7956   23.3199 H   0  0  0  0  0  0  0  0  0  0  0  0
    9.5535    0.4261   24.6144 H   0  0  0  0  0  0  0  0  0  0  0  0
    8.3355   -0.7662   24.1598 H   0  0  0  0  0  0  0  0  0  0  0  0
   11.0586    0.2553   22.4377 C   0  0  0  0  0  0  0  0  0  0  0  0
   10.7621    1.1147   21.8078 H   0  0  0  0  0  0  0  0  0  0  0  0
   11.5531    0.6605   23.3304 H   0  0  0  0  0  0  0  0  0  0  0  0
   11.8125   -0.3217   21.8894 H   0  0  0  0  0  0  0  0  0  0  0  0
    5.4873    0.6556   20.1870 C   0  0  0  0  0  0  0  0  0  0  0  0
    5.0330    0.6255   21.1797 H   0  0  0  0  0  0  0  0  0  0  0  0
    4.8595    1.3014   19.1267 C   0  0  0  0  0  0  0  0  0  0  0  0
    3.9082    1.8078   19.2534 H   0  0  0  0  0  0  0  0  0  0  0  0
  1  2  1  0
  2  3  2  0
  3  4  1  0
  4  5  1  0
  4  6  2  0
  6  7  1  0
  7  8  2  0
  7  9  1  0
  9 10  1  0
  9 11  1  0
 11 12  1  0
 11 13  1  0
 11 14  1  0
 14 15  1  0
 15 16  1  0
 15 17  1  0
 15 18  1  0
 14 19  1  0
 19 20  1  0
 19 21  1  0
 19 22  1  0
  6 23  1  0
 23 24  1  0
 23 25  2  0
 25 26  1  0
 25  2  1  0
M  END
>  <cnnaffinity>  (1) 
-3.84859

>  <filename>  (1) 
CN(C)CNC(=O)c1cccnc1

$$$$
