
     RDKit          3D

 29 30  0  0  0  0  0  0  0  0999 V2000
    6.9094   -1.9230   26.4274 H   0  0  0  0  0  0  0  0  0  0  0  0
    6.9360   -2.1847   25.3648 C   0  0  0  0  0  0  0  0  0  0  0  0
    7.0223   -1.1809   24.5094 N   0  0  0  0  0  0  0  0  0  0  0  0
    7.0686   -1.5063   23.2052 C   0  0  0  0  0  0  0  0  0  0  0  0
    7.1641   -0.4530   22.3043 N   0  0  0  0  0  0  0  0  0  0  0  0
    7.4455   -0.6360   20.9393 N   0  0  0  0  0  0  0  0  0  0  0  0
    7.9268   -1.5072   20.7136 H   0  0  0  0  0  0  0  0  0  0  0  0
    6.6622   -0.0172   19.9480 C   0  0  0  0  0  0  0  0  0  0  0  0
    7.1628    0.0342   18.6271 C   0  0  0  0  0  0  0  0  0  0  0  0
    8.1182   -0.4395   18.3992 H   0  0  0  0  0  0  0  0  0  0  0  0
    6.5665    0.6538   17.6044 N   0  0  0  0  0  0  0  0  0  0  0  0
    5.4045    1.2831   17.8509 C   0  0  0  0  0  0  0  0  0  0  0  0
    4.9500    1.7883   17.0021 H   0  0  0  0  0  0  0  0  0  0  0  0
    4.8078    1.2928   19.1146 C   0  0  0  0  0  0  0  0  0  0  0  0
    3.8783    1.8327   19.2572 H   0  0  0  0  0  0  0  0  0  0  0  0
    5.4340    0.6306   20.1782 C   0  0  0  0  0  0  0  0  0  0  0  0
    4.9959    0.6209   21.1752 H   0  0  0  0  0  0  0  0  0  0  0  0
    7.2991    0.9171   22.8000 C   0  0  0  0  0  0  0  0  0  0  0  0
    7.4616    1.5561   21.9251 H   0  0  0  0  0  0  0  0  0  0  0  0
    6.3822    1.2187   23.3270 H   0  0  0  0  0  0  0  0  0  0  0  0
    8.1467    1.0207   23.4930 H   0  0  0  0  0  0  0  0  0  0  0  0
    7.0627   -2.7553   22.7151 N   0  0  0  0  0  0  0  0  0  0  0  0
    6.9446   -3.7599   23.5877 C   0  0  0  0  0  0  0  0  0  0  0  0
    6.8831   -5.2391   23.0617 C   0  0  0  0  0  0  0  0  0  0  0  0
    6.9494   -5.3365   21.7318 F   0  0  0  0  0  0  0  0  0  0  0  0
    7.8954   -5.9751   23.5688 F   0  0  0  0  0  0  0  0  0  0  0  0
    5.7401   -5.8436   23.4526 F   0  0  0  0  0  0  0  0  0  0  0  0
    6.8859   -3.5189   24.9633 C   0  0  0  0  0  0  0  0  0  0  0  0
    6.8070   -4.3114   25.6882 H   0  0  0  0  0  0  0  0  0  0  0  0
  1  2  1  0
  2  3  2  0
  3  4  1  0
  4  5  1  0
  5  6  1  0
  6  7  1  0
  6  8  1  0
  8  9  2  0
  9 10  1  0
  9 11  1  0
 11 12  2  0
 12 13  1  0
 12 14  1  0
 14 15  1  0
 14 16  2  0
 16 17  1  0
  5 18  1  0
 18 19  1  0
 18 20  1  0
 18 21  1  0
  4 22  2  0
 22 23  1  0
 23 24  1  0
 24 25  1  0
 24 26  1  0
 24 27  1  0
 23 28  2  0
 28 29  1  0
 28  2  1  0
 16  8  1  0
M  END
>  <cnnaffinity>  (1) 
-4.97316

>  <filename>  (1) 
CN(Nc1cccnc1)c1nccc(C(F)(F)F)n1

$$$$
