
     RDKit          3D

 31 32  0  0  0  0  0  0  0  0999 V2000
    5.0088    1.9315   16.9437 H   0  0  0  0  0  0  0  0  0  0  0  0
    5.4389    1.3594   17.7621 C   0  0  0  0  0  0  0  0  0  0  0  0
    6.6063    0.7454   17.5021 N   0  0  0  0  0  0  0  0  0  0  0  0
    7.1722    0.0441   18.4914 C   0  0  0  0  0  0  0  0  0  0  0  0
    8.1237   -0.4385   18.2513 H   0  0  0  0  0  0  0  0  0  0  0  0
    6.6083   -0.1249   19.7758 C   0  0  0  0  0  0  0  0  0  0  0  0
    7.3203   -0.8593   20.7576 N   0  0  0  0  0  0  0  0  0  0  0  0
    8.6120   -0.4555   21.1290 N   0  0  0  0  0  0  0  0  0  0  0  0
    9.2830   -0.6176   20.3784 H   0  0  0  0  0  0  0  0  0  0  0  0
    8.6982    0.9093   21.6694 C   0  0  0  0  0  0  0  0  0  0  0  0
    8.3633    1.6549   20.9311 H   0  0  0  0  0  0  0  0  0  0  0  0
    7.9816    0.9692   22.5012 H   0  0  0  0  0  0  0  0  0  0  0  0
   10.0840    1.2250   22.1986 C   0  0  0  0  0  0  0  0  0  0  0  0
   10.9637    2.1258   21.5745 C   0  0  0  0  0  0  0  0  0  0  0  0
   10.6712    2.7132   20.7108 H   0  0  0  0  0  0  0  0  0  0  0  0
   12.2543    2.3231   22.0784 C   0  0  0  0  0  0  0  0  0  0  0  0
   12.9021    3.0147   21.5566 H   0  0  0  0  0  0  0  0  0  0  0  0
   12.6880    1.6709   23.2336 C   0  0  0  0  0  0  0  0  0  0  0  0
   13.6877    1.8070   23.6427 H   0  0  0  0  0  0  0  0  0  0  0  0
   11.7936    0.8123   23.8746 C   0  0  0  0  0  0  0  0  0  0  0  0
   12.3074   -0.0089   25.3111 Cl  0  0  0  0  0  0  0  0  0  0  0  0
   10.5126    0.5826   23.3724 C   0  0  0  0  0  0  0  0  0  0  0  0
    9.8492   -0.1124   23.8836 H   0  0  0  0  0  0  0  0  0  0  0  0
    6.6899   -1.7744   21.6843 C   0  0  0  0  0  0  0  0  0  0  0  0
    6.1026   -1.2708   22.4632 H   0  0  0  0  0  0  0  0  0  0  0  0
    7.4888   -2.3315   22.1820 H   0  0  0  0  0  0  0  0  0  0  0  0
    6.0533   -2.4992   21.1665 H   0  0  0  0  0  0  0  0  0  0  0  0
    5.3682    0.5068   20.0198 C   0  0  0  0  0  0  0  0  0  0  0  0
    4.9083    0.4355   21.0065 H   0  0  0  0  0  0  0  0  0  0  0  0
    4.7891    1.2721   18.9987 C   0  0  0  0  0  0  0  0  0  0  0  0
    3.8568    1.8131   19.1474 H   0  0  0  0  0  0  0  0  0  0  0  0
  1  2  1  0
  2  3  2  0
  3  4  1  0
  4  5  1  0
  4  6  2  0
  6  7  1  0
  7  8  1  0
  8  9  1  0
  8 10  1  0
 10 11  1  0
 10 12  1  0
 10 13  1  0
 13 14  2  0
 14 15  1  0
 14 16  1  0
 16 17  1  0
 16 18  2  0
 18 19  1  0
 18 20  1  0
 20 21  1  0
 20 22  2  0
 22 23  1  0
  7 24  1  0
 24 25  1  0
 24 26  1  0
 24 27  1  0
  6 28  1  0
 28 29  1  0
 28 30  2  0
 30 31  1  0
 30  2  1  0
 22 13  1  0
M  END
>  <cnnaffinity>  (1) 
-4.75009

>  <filename>  (1) 
CN(NCc1cccc(Cl)c1)c1cccnc1

$$$$
