
     RDKit          3D

 27 28  0  0  0  0  0  0  0  0999 V2000
   11.9617   -3.5434   23.7203 H   0  0  0  0  0  0  0  0  0  0  0  0
   11.0153   -3.0969   23.3745 C   0  0  0  0  0  0  0  0  0  0  0  0
    9.7989   -3.6697   23.4236 C   0  0  0  0  0  0  0  0  0  0  0  0
    9.6039   -4.5335   24.0337 H   0  0  0  0  0  0  0  0  0  0  0  0
    8.8203   -3.3075   22.3353 C   0  0  0  0  0  0  0  0  0  0  0  0
    8.4383   -4.2610   21.6396 O   0  0  0  0  0  0  0  0  0  0  0  0
    8.4475   -2.0193   22.2511 N   0  0  0  0  0  0  0  0  0  0  0  0
    7.4521   -1.6138   21.3582 N   0  0  0  0  0  0  0  0  0  0  0  0
    6.2942   -2.4794   21.1301 C   0  0  0  0  0  0  0  0  0  0  0  0
    5.7056   -2.0862   20.3098 H   0  0  0  0  0  0  0  0  0  0  0  0
    6.6925   -3.4534   20.8465 H   0  0  0  0  0  0  0  0  0  0  0  0
    5.6833   -2.5909   22.0321 H   0  0  0  0  0  0  0  0  0  0  0  0
    7.1032    0.0905   21.2561 S   0  0  0  0  0  0  0  0  0  0  0  0
    6.1974    0.4203   22.3368 O   0  0  0  0  0  0  0  0  0  0  0  0
    8.3552    0.7714   20.9973 O   0  0  0  0  0  0  0  0  0  0  0  0
    6.1965    0.2761   19.7684 C   0  0  0  0  0  0  0  0  0  0  0  0
    6.9576    0.0681   18.6242 C   0  0  0  0  0  0  0  0  0  0  0  0
    7.9189   -0.4386   18.6663 H   0  0  0  0  0  0  0  0  0  0  0  0
    6.5472    0.4753   17.4239 N   0  0  0  0  0  0  0  0  0  0  0  0
    5.3626    1.0971   17.3481 C   0  0  0  0  0  0  0  0  0  0  0  0
    5.0353    1.4046   16.3569 H   0  0  0  0  0  0  0  0  0  0  0  0
    4.5265    1.3227   18.4520 C   0  0  0  0  0  0  0  0  0  0  0  0
    3.5904    1.8522   18.3226 H   0  0  0  0  0  0  0  0  0  0  0  0
    4.9438    0.8996   19.7079 C   0  0  0  0  0  0  0  0  0  0  0  0
    4.3333    1.0668   20.6042 H   0  0  0  0  0  0  0  0  0  0  0  0
   11.2754   -2.2057   22.1327 C   0  0  0  0  0  0  0  0  0  0  0  0
   11.2752   -2.2055   22.1333 O   0  0  0  0  0  0  0  0  0  0  0  0
  1  2  1  0
  2  3  2  0
  3  4  1  0
  3  5  1  0
  5  6  2  0
  5  7  1  0
  7  8  1  0
  8  9  1  0
  9 10  1  0
  9 11  1  0
  9 12  1  0
  8 13  1  0
 13 14  2  0
 13 15  2  0
 13 16  1  0
 16 17  2  0
 17 18  1  0
 17 19  1  0
 19 20  2  0
 20 21  1  0
 20 22  1  0
 22 23  1  0
 22 24  2  0
 24 25  1  0
  7 26  1  0
 26 27  2  0
 26  2  1  0
 24 16  1  0
M  END
>  <cnnaffinity>  (1) 
-4.58478

>  <filename>  (1) 
CN(N1C(=O)C=CC1=O)S(=O)(=O)c1cccnc1

$$$$
