
     RDKit          3D

 35 37  0  0  0  0  0  0  0  0999 V2000
    4.9275    1.7844   16.9882 H   0  0  0  0  0  0  0  0  0  0  0  0
    5.4034    1.2938   17.8338 C   0  0  0  0  0  0  0  0  0  0  0  0
    6.5698    0.6833   17.5766 N   0  0  0  0  0  0  0  0  0  0  0  0
    7.1788    0.0809   18.6094 C   0  0  0  0  0  0  0  0  0  0  0  0
    8.1175   -0.4179   18.3740 H   0  0  0  0  0  0  0  0  0  0  0  0
    6.6563    0.0180   19.9107 C   0  0  0  0  0  0  0  0  0  0  0  0
    7.3948   -0.6815   21.0049 C   0  0  0  0  0  0  0  0  0  0  0  0
    8.4577    0.0727   21.6463 N   0  0  0  0  0  0  0  0  0  0  0  0
    9.1955    0.2172   20.9592 H   0  0  0  0  0  0  0  0  0  0  0  0
    8.0861    1.3211   22.1918 N   0  0  0  0  0  0  0  0  0  0  0  0
    7.4668    1.3428   23.4428 C   0  0  0  0  0  0  0  0  0  0  0  0
    6.4516    2.2759   23.7507 C   0  0  0  0  0  0  0  0  0  0  0  0
    6.1139    2.9732   22.9897 H   0  0  0  0  0  0  0  0  0  0  0  0
    5.8910    2.3113   25.0324 C   0  0  0  0  0  0  0  0  0  0  0  0
    5.1188    3.0430   25.2572 H   0  0  0  0  0  0  0  0  0  0  0  0
    6.3275    1.4290   26.0222 C   0  0  0  0  0  0  0  0  0  0  0  0
    5.8948    1.4611   27.0211 H   0  0  0  0  0  0  0  0  0  0  0  0
    7.3295    0.5020   25.7226 C   0  0  0  0  0  0  0  0  0  0  0  0
    7.6788   -0.1916   26.4812 H   0  0  0  0  0  0  0  0  0  0  0  0
    7.8938    0.4506   24.4478 C   0  0  0  0  0  0  0  0  0  0  0  0
    8.6730   -0.2589   24.1848 H   0  0  0  0  0  0  0  0  0  0  0  0
    8.1755    2.5116   21.3769 C   0  0  0  0  0  0  0  0  0  0  0  0
    7.1908    2.8846   21.0620 H   0  0  0  0  0  0  0  0  0  0  0  0
    8.6927    3.3106   21.9213 H   0  0  0  0  0  0  0  0  0  0  0  0
    8.7532    2.2880   20.4769 H   0  0  0  0  0  0  0  0  0  0  0  0
    6.6888   -1.6782   21.8810 C   0  0  0  0  0  0  0  0  0  0  0  0
    6.9719   -1.7320   22.9238 H   0  0  0  0  0  0  0  0  0  0  0  0
    5.6350   -1.8496   21.6780 H   0  0  0  0  0  0  0  0  0  0  0  0
    7.6738   -2.1400   20.8483 C   0  0  0  0  0  0  0  0  0  0  0  0
    7.1686   -2.5903   20.0072 H   0  0  0  0  0  0  0  0  0  0  0  0
    8.6427   -2.5502   21.1343 H   0  0  0  0  0  0  0  0  0  0  0  0
    5.4359    0.6593   20.1551 C   0  0  0  0  0  0  0  0  0  0  0  0
    5.0220    0.6298   21.1663 H   0  0  0  0  0  0  0  0  0  0  0  0
    4.8038    1.3146   19.1000 C   0  0  0  0  0  0  0  0  0  0  0  0
    3.8733    1.8419   19.2488 H   0  0  0  0  0  0  0  0  0  0  0  0
  1  2  1  0
  2  3  2  0
  3  4  1  0
  4  5  1  0
  4  6  2  0
  6  7  1  0
  7  8  1  0
  8  9  1  0
  8 10  1  0
 10 11  1  0
 11 12  2  0
 12 13  1  0
 12 14  1  0
 14 15  1  0
 14 16  2  0
 16 17  1  0
 16 18  1  0
 18 19  1  0
 18 20  2  0
 20 21  1  0
 10 22  1  0
 22 23  1  0
 22 24  1  0
 22 25  1  0
  7 26  1  0
 26 27  1  0
 26 28  1  0
 26 29  1  0
 29 30  1  0
 29 31  1  0
  6 32  1  0
 32 33  1  0
 32 34  2  0
 34 35  1  0
 34  2  1  0
 29  7  1  0
 20 11  1  0
M  END
>  <cnnaffinity>  (1) 
-4.44031

>  <filename>  (1) 
CN(NC1(c2cccnc2)CC1)c1ccccc1

$$$$
