
     RDKit          3D

 39 41  0  0  0  0  0  0  0  0999 V2000
    5.0308    1.8196   16.9719 H   0  0  0  0  0  0  0  0  0  0  0  0
    5.4760    1.2956   17.8118 C   0  0  0  0  0  0  0  0  0  0  0  0
    6.6106    0.6299   17.5487 N   0  0  0  0  0  0  0  0  0  0  0  0
    7.1877   -0.0115   18.5655 C   0  0  0  0  0  0  0  0  0  0  0  0
    8.0983   -0.5652   18.3284 H   0  0  0  0  0  0  0  0  0  0  0  0
    6.6636   -0.0387   19.8693 C   0  0  0  0  0  0  0  0  0  0  0  0
    7.4177   -0.7743   20.9003 C   0  0  0  0  0  0  0  0  0  0  0  0
    6.4515   -1.8199   21.9091 S   0  0  0  0  0  0  0  0  0  0  0  0
    7.5981   -2.3046   23.1088 C   0  0  0  0  0  0  0  0  0  0  0  0
    6.9148   -2.9738   24.2965 C   0  0  0  0  0  0  0  0  0  0  0  0
    5.7758   -2.7323   24.6555 O   0  0  0  0  0  0  0  0  0  0  0  0
    7.7362   -3.8646   24.9483 N   0  0  0  0  0  0  0  0  0  0  0  0
    7.5132   -4.1020   26.3818 C   0  0  0  0  0  0  0  0  0  0  0  0
    6.8040   -4.9294   26.5338 H   0  0  0  0  0  0  0  0  0  0  0  0
    7.0649   -3.2105   26.8236 H   0  0  0  0  0  0  0  0  0  0  0  0
    8.8595   -4.4223   27.0493 C   0  0  0  0  0  0  0  0  0  0  0  0
    8.7254   -4.6135   28.1185 H   0  0  0  0  0  0  0  0  0  0  0  0
    9.5255   -3.5560   26.9453 H   0  0  0  0  0  0  0  0  0  0  0  0
    9.5357   -5.5665   26.4347 N   0  0  0  0  0  0  0  0  0  0  0  0
    8.7814   -6.8003   26.5948 C   0  0  0  0  0  0  0  0  0  0  0  0
    9.4221   -7.6495   26.3319 H   0  0  0  0  0  0  0  0  0  0  0  0
    8.4547   -6.9183   27.6370 H   0  0  0  0  0  0  0  0  0  0  0  0
    7.8761   -6.8725   25.9698 H   0  0  0  0  0  0  0  0  0  0  0  0
    9.7849   -5.2740   25.0194 C   0  0  0  0  0  0  0  0  0  0  0  0
   10.2653   -6.1467   24.5666 H   0  0  0  0  0  0  0  0  0  0  0  0
   10.4970   -4.4389   24.9669 H   0  0  0  0  0  0  0  0  0  0  0  0
    8.5064   -4.9080   24.2357 C   0  0  0  0  0  0  0  0  0  0  0  0
    7.8889   -5.8104   24.0994 H   0  0  0  0  0  0  0  0  0  0  0  0
    8.7724   -4.5698   23.2309 H   0  0  0  0  0  0  0  0  0  0  0  0
    8.9361   -2.0847   23.0076 C   0  0  0  0  0  0  0  0  0  0  0  0
    9.6458   -2.5137   23.7082 H   0  0  0  0  0  0  0  0  0  0  0  0
    9.6010   -1.2565   21.9952 C   0  0  0  0  0  0  0  0  0  0  0  0
   10.8115   -1.1088   22.0148 O   0  0  0  0  0  0  0  0  0  0  0  0
    8.7569   -0.6334   20.9861 C   0  0  0  0  0  0  0  0  0  0  0  0
    9.2970    0.0115   20.3035 H   0  0  0  0  0  0  0  0  0  0  0  0
    5.4691    0.6501   20.1271 C   0  0  0  0  0  0  0  0  0  0  0  0
    5.0452    0.6477   21.1360 H   0  0  0  0  0  0  0  0  0  0  0  0
    4.8698    1.3303   19.0730 C   0  0  0  0  0  0  0  0  0  0  0  0
    3.9487    1.8837   19.2142 H   0  0  0  0  0  0  0  0  0  0  0  0
  1  2  1  0
  2  3  2  0
  3  4  1  0
  4  5  1  0
  4  6  2  0
  6  7  1  0
  7  8  1  0
  8  9  1  0
  9 10  1  0
 10 11  2  0
 10 12  1  0
 12 13  1  0
 13 14  1  0
 13 15  1  0
 13 16  1  0
 16 17  1  0
 16 18  1  0
 16 19  1  0
 19 20  1  0
 20 21  1  0
 20 22  1  0
 20 23  1  0
 19 24  1  0
 24 25  1  0
 24 26  1  0
 24 27  1  0
 27 28  1  0
 27 29  1  0
  9 30  2  0
 30 31  1  0
 30 32  1  0
 32 33  2  0
 32 34  1  0
 34 35  1  0
  6 36  1  0
 36 37  1  0
 36 38  2  0
 38 39  1  0
 38  2  1  0
 34  7  2  0
 27 12  1  0
M  END
>  <cnnaffinity>  (1) 
-4.74879

>  <filename>  (1) 
CN1CCN(C(=O)c2cc(=O)cc(-c3cccnc3)s2)CC1

$$$$
