
     RDKit          3D

 29 31  0  0  0  0  0  0  0  0999 V2000
    4.9216    1.8041   16.9659 H   0  0  0  0  0  0  0  0  0  0  0  0
    5.3941    1.3048   17.8139 C   0  0  0  0  0  0  0  0  0  0  0  0
    6.5590    0.6841   17.5647 N   0  0  0  0  0  0  0  0  0  0  0  0
    7.1727    0.0721   18.5861 C   0  0  0  0  0  0  0  0  0  0  0  0
    8.1069   -0.4209   18.3234 H   0  0  0  0  0  0  0  0  0  0  0  0
    6.6698    0.0234   19.9012 C   0  0  0  0  0  0  0  0  0  0  0  0
    7.3259   -0.7023   20.9969 C   0  0  0  0  0  0  0  0  0  0  0  0
    6.7930   -1.2520   22.1026 C   0  0  0  0  0  0  0  0  0  0  0  0
    5.7678   -1.3362   22.3910 H   0  0  0  0  0  0  0  0  0  0  0  0
    7.7997   -1.8589   22.8386 N   0  0  0  0  0  0  0  0  0  0  0  0
    7.6135   -2.4827   24.0858 C   0  0  0  0  0  0  0  0  0  0  0  0
    6.4303   -2.9890   24.4147 N   0  0  0  0  0  0  0  0  0  0  0  0
    6.6020   -3.4816   25.6462 N   0  0  0  0  0  0  0  0  0  0  0  0
    5.5073   -4.0582   26.4013 C   0  0  0  0  0  0  0  0  0  0  0  0
    5.0441   -3.3140   27.0600 H   0  0  0  0  0  0  0  0  0  0  0  0
    4.7626   -4.4534   25.7087 H   0  0  0  0  0  0  0  0  0  0  0  0
    5.9015   -4.8717   27.0170 H   0  0  0  0  0  0  0  0  0  0  0  0
    7.8556   -3.2775   26.1072 C   0  0  0  0  0  0  0  0  0  0  0  0
    8.1239   -3.6344   27.0943 H   0  0  0  0  0  0  0  0  0  0  0  0
    8.5561   -2.6233   25.1215 C   0  0  0  0  0  0  0  0  0  0  0  0
    9.5810   -2.2879   25.0755 H   0  0  0  0  0  0  0  0  0  0  0  0
    9.0004   -1.7037   22.1796 C   0  0  0  0  0  0  0  0  0  0  0  0
   10.5409   -2.1983   22.5262 S   0  0  0  0  0  0  0  0  0  0  0  0
    8.6754   -1.0101   21.0596 N   0  0  0  0  0  0  0  0  0  0  0  0
    9.4278   -0.7436   20.4507 H   0  0  0  0  0  0  0  0  0  0  0  0
    5.4424    0.6715   20.1313 C   0  0  0  0  0  0  0  0  0  0  0  0
    5.0111    0.6692   21.1314 H   0  0  0  0  0  0  0  0  0  0  0  0
    4.7986    1.3233   19.0794 C   0  0  0  0  0  0  0  0  0  0  0  0
    3.8626    1.8523   19.2254 H   0  0  0  0  0  0  0  0  0  0  0  0
  1  2  1  0
  2  3  2  0
  3  4  1  0
  4  5  1  0
  4  6  2  0
  6  7  1  0
  7  8  2  0
  8  9  1  0
  8 10  1  0
 10 11  1  0
 11 12  2  0
 12 13  1  0
 13 14  1  0
 14 15  1  0
 14 16  1  0
 14 17  1  0
 13 18  1  0
 18 19  1  0
 18 20  2  0
 20 21  1  0
 10 22  1  0
 22 23  2  0
 22 24  1  0
 24 25  1  0
  6 26  1  0
 26 27  1  0
 26 28  2  0
 28 29  1  0
 28  2  1  0
 24  7  1  0
 20 11  1  0
M  END
>  <cnnaffinity>  (1) 
-5.24902

>  <filename>  (1) 
Cn1ccc(-n2cc(-c3cccnc3)[nH]c2=S)n1

$$$$
