
     RDKit          3D

 39 41  0  0  0  0  0  0  0  0999 V2000
    4.9174    1.8038   16.9735 H   0  0  0  0  0  0  0  0  0  0  0  0
    5.3865    1.3053   17.8192 C   0  0  0  0  0  0  0  0  0  0  0  0
    6.5487    0.6855   17.5591 N   0  0  0  0  0  0  0  0  0  0  0  0
    7.1565    0.0721   18.5815 C   0  0  0  0  0  0  0  0  0  0  0  0
    8.1030   -0.4183   18.3512 H   0  0  0  0  0  0  0  0  0  0  0  0
    6.6461    0.0107   19.8918 C   0  0  0  0  0  0  0  0  0  0  0  0
    7.3723   -0.7096   20.9704 C   0  0  0  0  0  0  0  0  0  0  0  0
    8.7800   -0.5557   21.1409 C   0  0  0  0  0  0  0  0  0  0  0  0
    9.3052    0.1150   20.4628 H   0  0  0  0  0  0  0  0  0  0  0  0
    9.4237   -1.2095   22.1461 C   0  0  0  0  0  0  0  0  0  0  0  0
   10.4836   -1.1404   22.3359 H   0  0  0  0  0  0  0  0  0  0  0  0
    8.7219   -2.0907   23.0695 C   0  0  0  0  0  0  0  0  0  0  0  0
    9.2989   -2.6882   23.9702 O   0  0  0  0  0  0  0  0  0  0  0  0
    7.3353   -2.2106   22.8491 N   0  0  0  0  0  0  0  0  0  0  0  0
    6.5167   -3.0783   23.7340 C   0  0  0  0  0  0  0  0  0  0  0  0
    5.5005   -2.9643   23.3361 H   0  0  0  0  0  0  0  0  0  0  0  0
    6.8836   -4.5760   23.5825 C   0  0  0  0  0  0  0  0  0  0  0  0
    5.9494   -5.1512   23.5338 H   0  0  0  0  0  0  0  0  0  0  0  0
    7.3934   -4.7170   22.6256 H   0  0  0  0  0  0  0  0  0  0  0  0
    7.7369   -5.1669   24.7236 C   0  0  0  0  0  0  0  0  0  0  0  0
    7.7188   -6.2624   24.6740 H   0  0  0  0  0  0  0  0  0  0  0  0
    8.7803   -4.8496   24.6224 H   0  0  0  0  0  0  0  0  0  0  0  0
    7.2712   -4.7741   26.0520 N   0  0  0  0  0  0  0  0  0  0  0  0
    5.9826   -5.3432   26.4239 C   0  0  0  0  0  0  0  0  0  0  0  0
    5.1307   -5.0163   25.7973 H   0  0  0  0  0  0  0  0  0  0  0  0
    6.0390   -6.4375   26.3674 H   0  0  0  0  0  0  0  0  0  0  0  0
    5.7552   -5.0735   27.4626 H   0  0  0  0  0  0  0  0  0  0  0  0
    7.3484   -3.3224   26.2041 C   0  0  0  0  0  0  0  0  0  0  0  0
    7.0396   -3.0755   27.2301 H   0  0  0  0  0  0  0  0  0  0  0  0
    8.3974   -3.0284   26.0900 H   0  0  0  0  0  0  0  0  0  0  0  0
    6.4673   -2.5594   25.1935 C   0  0  0  0  0  0  0  0  0  0  0  0
    6.7296   -1.4979   25.1970 H   0  0  0  0  0  0  0  0  0  0  0  0
    5.4284   -2.6314   25.5416 H   0  0  0  0  0  0  0  0  0  0  0  0
    6.7092   -1.5297   21.8327 C   0  0  0  0  0  0  0  0  0  0  0  0
    5.6392   -1.6940   21.7456 H   0  0  0  0  0  0  0  0  0  0  0  0
    5.4234    0.6529   20.1364 C   0  0  0  0  0  0  0  0  0  0  0  0
    5.0058    0.6409   21.1449 H   0  0  0  0  0  0  0  0  0  0  0  0
    4.7922    1.3214   19.0864 C   0  0  0  0  0  0  0  0  0  0  0  0
    3.8624    1.8545   19.2350 H   0  0  0  0  0  0  0  0  0  0  0  0
  1  2  1  0
  2  3  2  0
  3  4  1  0
  4  5  1  0
  4  6  2  0
  6  7  1  0
  7  8  1  0
  8  9  1  0
  8 10  2  0
 10 11  1  0
 10 12  1  0
 12 13  2  0
 12 14  1  0
 14 15  1  0
 15 16  1  0
 15 17  1  0
 17 18  1  0
 17 19  1  0
 17 20  1  0
 20 21  1  0
 20 22  1  0
 20 23  1  0
 23 24  1  0
 24 25  1  0
 24 26  1  0
 24 27  1  0
 23 28  1  0
 28 29  1  0
 28 30  1  0
 28 31  1  0
 31 32  1  0
 31 33  1  0
 14 34  1  0
 34 35  1  0
  6 36  1  0
 36 37  1  0
 36 38  2  0
 38 39  1  0
 38  2  1  0
 34  7  2  0
 31 15  1  0
M  END
>  <cnnaffinity>  (1) 
-5.10871

>  <filename>  (1) 
CN1CCC(n2cc(-c3cccnc3)ccc2=O)CC1

$$$$
