
     RDKit          3D

 31 33  0  0  0  0  0  0  0  0999 V2000
    4.9300    1.8158   16.9667 H   0  0  0  0  0  0  0  0  0  0  0  0
    5.3831    1.2980   17.8115 C   0  0  0  0  0  0  0  0  0  0  0  0
    6.5486    0.6865   17.5597 N   0  0  0  0  0  0  0  0  0  0  0  0
    7.1484    0.0547   18.5759 C   0  0  0  0  0  0  0  0  0  0  0  0
    8.1132   -0.4024   18.3496 H   0  0  0  0  0  0  0  0  0  0  0  0
    6.6207   -0.0275   19.8761 C   0  0  0  0  0  0  0  0  0  0  0  0
    7.3794   -0.7437   20.9774 C   0  0  0  0  0  0  0  0  0  0  0  0
    7.4262   -1.8242   20.7943 H   0  0  0  0  0  0  0  0  0  0  0  0
    6.8809   -0.5934   21.9376 H   0  0  0  0  0  0  0  0  0  0  0  0
    8.7611   -0.2895   21.1243 N   0  0  0  0  0  0  0  0  0  0  0  0
    9.8559   -1.0052   20.7551 C   0  0  0  0  0  0  0  0  0  0  0  0
    9.7651   -1.9769   20.2875 H   0  0  0  0  0  0  0  0  0  0  0  0
   10.9743   -0.3603   20.9637 N   0  0  0  0  0  0  0  0  0  0  0  0
   10.5983    0.8388   21.4830 C   0  0  0  0  0  0  0  0  0  0  0  0
   11.3363    1.6013   21.7143 H   0  0  0  0  0  0  0  0  0  0  0  0
    9.2357    0.9225   21.6237 C   0  0  0  0  0  0  0  0  0  0  0  0
    8.4544    2.0067   22.2114 C   0  0  0  0  0  0  0  0  0  0  0  0
    7.1536    1.9314   22.5085 N   0  0  0  0  0  0  0  0  0  0  0  0
    6.8189    3.1342   22.9817 N   0  0  0  0  0  0  0  0  0  0  0  0
    5.4365    3.4569   23.2765 C   0  0  0  0  0  0  0  0  0  0  0  0
    4.9490    3.9508   22.4222 H   0  0  0  0  0  0  0  0  0  0  0  0
    4.9325    2.5146   23.5010 H   0  0  0  0  0  0  0  0  0  0  0  0
    5.4108    4.1175   24.1505 H   0  0  0  0  0  0  0  0  0  0  0  0
    7.8715    3.9773   23.0370 C   0  0  0  0  0  0  0  0  0  0  0  0
    7.7276    4.9811   23.4206 H   0  0  0  0  0  0  0  0  0  0  0  0
    8.9519    3.2888   22.5520 C   0  0  0  0  0  0  0  0  0  0  0  0
    9.9714    3.6132   22.4248 H   0  0  0  0  0  0  0  0  0  0  0  0
    5.4047    0.6204   20.1151 C   0  0  0  0  0  0  0  0  0  0  0  0
    4.9991    0.6357   21.1280 H   0  0  0  0  0  0  0  0  0  0  0  0
    4.7742    1.2975   19.0686 C   0  0  0  0  0  0  0  0  0  0  0  0
    3.8548    1.8484   19.2150 H   0  0  0  0  0  0  0  0  0  0  0  0
  1  2  1  0
  2  3  2  0
  3  4  1  0
  4  5  1  0
  4  6  2  0
  6  7  1  0
  7  8  1  0
  7  9  1  0
  7 10  1  0
 10 11  1  0
 11 12  1  0
 11 13  2  0
 13 14  1  0
 14 15  1  0
 14 16  2  0
 16 17  1  0
 17 18  2  0
 18 19  1  0
 19 20  1  0
 20 21  1  0
 20 22  1  0
 20 23  1  0
 19 24  1  0
 24 25  1  0
 24 26  2  0
 26 27  1  0
  6 28  1  0
 28 29  1  0
 28 30  2  0
 30 31  1  0
 30  2  1  0
 16 10  1  0
 26 17  1  0
M  END
>  <cnnaffinity>  (1) 
-4.92802

>  <filename>  (1) 
Cn1ccc(-c2cncn2Cc2cccnc2)n1

$$$$
