
     RDKit          3D

 36 38  0  0  0  0  0  0  0  0999 V2000
    4.9114    1.8361   16.8883 H   0  0  0  0  0  0  0  0  0  0  0  0
    5.3716    1.3283   17.7344 C   0  0  0  0  0  0  0  0  0  0  0  0
    6.5243    0.6932   17.4785 N   0  0  0  0  0  0  0  0  0  0  0  0
    7.1170    0.0532   18.4861 C   0  0  0  0  0  0  0  0  0  0  0  0
    8.0469   -0.4646   18.2468 H   0  0  0  0  0  0  0  0  0  0  0  0
    6.6028   -0.0096   19.7869 C   0  0  0  0  0  0  0  0  0  0  0  0
    7.4520   -0.7090   20.7970 C   0  0  0  0  0  0  0  0  0  0  0  0
    9.1031   -0.5850   20.7540 S   0  0  0  0  0  0  0  0  0  0  0  0
    6.7469   -1.4194   21.7010 N   0  0  0  0  0  0  0  0  0  0  0  0
    5.7434   -1.3401   21.6088 H   0  0  0  0  0  0  0  0  0  0  0  0
    7.1606   -2.0145   22.8972 N   0  0  0  0  0  0  0  0  0  0  0  0
    8.1123   -3.1484   22.7679 C   0  0  0  0  0  0  0  0  0  0  0  0
    8.6636   -3.0797   21.8221 H   0  0  0  0  0  0  0  0  0  0  0  0
    7.5559   -4.0928   22.7381 H   0  0  0  0  0  0  0  0  0  0  0  0
    9.0386   -3.0426   23.9914 C   0  0  0  0  0  0  0  0  0  0  0  0
   10.0488   -3.4208   23.7931 H   0  0  0  0  0  0  0  0  0  0  0  0
    8.6280   -3.6448   24.8132 H   0  0  0  0  0  0  0  0  0  0  0  0
    9.0321   -1.5454   24.3528 C   0  0  2  0  0  0  0  0  0  0  0  0
    9.7902   -1.0160   23.7642 H   0  0  0  0  0  0  0  0  0  0  0  0
    9.1124   -1.1818   25.8477 C   0  0  0  0  0  0  0  0  0  0  0  0
    9.9431   -0.4917   26.0616 H   0  0  0  0  0  0  0  0  0  0  0  0
    9.2975   -2.0915   26.4486 H   0  0  0  0  0  0  0  0  0  0  0  0
    7.8183   -0.5628   26.1877 N   0  0  0  0  0  0  0  0  0  0  0  0
    7.4479   -0.6961   27.5866 C   0  0  0  0  0  0  0  0  0  0  0  0
    8.2100   -0.2178   28.2172 H   0  0  0  0  0  0  0  0  0  0  0  0
    7.3575   -1.7574   27.8930 H   0  0  0  0  0  0  0  0  0  0  0  0
    6.4930   -0.1963   27.7951 H   0  0  0  0  0  0  0  0  0  0  0  0
    6.8380   -1.0612   25.2182 C   0  0  0  0  0  0  0  0  0  0  0  0
    6.4741   -2.0819   25.4395 H   0  0  0  0  0  0  0  0  0  0  0  0
    5.9460   -0.4240   25.1492 H   0  0  0  0  0  0  0  0  0  0  0  0
    7.6400   -1.0680   23.9154 C   0  0  2  0  0  0  0  0  0  0  0  0
    7.6875   -0.0442   23.5259 H   0  0  0  0  0  0  0  0  0  0  0  0
    5.3815    0.6452   20.0397 C   0  0  0  0  0  0  0  0  0  0  0  0
    4.9258    0.6497   21.0325 H   0  0  0  0  0  0  0  0  0  0  0  0
    4.7598    1.3286   18.9923 C   0  0  0  0  0  0  0  0  0  0  0  0
    3.8133    1.8451   19.1257 H   0  0  0  0  0  0  0  0  0  0  0  0
  1  2  1  0
  2  3  2  0
  3  4  1  0
  4  5  1  0
  4  6  2  0
  6  7  1  0
  7  8  2  0
  7  9  1  0
  9 10  1  0
  9 11  1  0
 11 12  1  0
 12 13  1  0
 12 14  1  0
 12 15  1  0
 15 16  1  0
 15 17  1  0
 15 18  1  0
 18 19  1  6
 18 20  1  0
 20 21  1  0
 20 22  1  0
 20 23  1  0
 23 24  1  0
 24 25  1  0
 24 26  1  0
 24 27  1  0
 23 28  1  0
 28 29  1  0
 28 30  1  0
 28 31  1  0
 31 32  1  6
  6 33  1  0
 33 34  1  0
 33 35  2  0
 35 36  1  0
 35  2  1  0
 31 11  1  0
 31 18  1  0
M  END
>  <cnnaffinity>  (1) 
-4.85824

>  <filename>  (1) 
CN1C[C@H]2CCN(NC(=S)c3cccnc3)[C@H]2C1

$$$$
