
     RDKit          3D

 28 29  0  0  0  0  0  0  0  0999 V2000
    5.1541    1.7648   17.0553 H   0  0  0  0  0  0  0  0  0  0  0  0
    5.5004    1.2062   17.9243 C   0  0  0  0  0  0  0  0  0  0  0  0
    6.6222    0.4945   17.7570 N   0  0  0  0  0  0  0  0  0  0  0  0
    7.0804   -0.1934   18.7987 C   0  0  0  0  0  0  0  0  0  0  0  0
    7.9979   -0.7578   18.6323 H   0  0  0  0  0  0  0  0  0  0  0  0
    6.4400   -0.1912   20.0319 C   0  0  0  0  0  0  0  0  0  0  0  0
    7.4422   -0.9184   21.2485 S   0  0  0  0  0  0  0  0  0  0  0  0
    8.2779   -1.9101   20.6170 O   0  0  0  0  0  0  0  0  0  0  0  0
    7.9603    0.0872   22.1515 O   0  0  0  0  0  0  0  0  0  0  0  0
    6.3750   -1.6894   22.2082 N   0  0  0  0  0  0  0  0  0  0  0  0
    6.4074   -1.3467   23.1469 H   0  0  0  0  0  0  0  0  0  0  0  0
    5.6117   -2.7132   21.6945 C   0  0  0  0  0  0  0  0  0  0  0  0
    5.6426   -2.8905   20.4988 O   0  0  0  0  0  0  0  0  0  0  0  0
    4.7425   -3.4616   22.7082 C   0  0  0  0  0  0  0  0  0  0  0  0
    3.8917   -4.4146   22.3102 N   0  0  0  0  0  0  0  0  0  0  0  0
    3.1493   -4.7025   23.3710 N   0  0  0  0  0  0  0  0  0  0  0  0
    2.0166   -5.5923   23.2188 C   0  0  0  0  0  0  0  0  0  0  0  0
    1.1775   -5.2212   23.8109 H   0  0  0  0  0  0  0  0  0  0  0  0
    1.7439   -5.5903   22.1637 H   0  0  0  0  0  0  0  0  0  0  0  0
    2.2676   -6.6087   23.5244 H   0  0  0  0  0  0  0  0  0  0  0  0
    3.4869   -3.9756   24.4595 C   0  0  0  0  0  0  0  0  0  0  0  0
    2.9152   -4.0651   25.3747 H   0  0  0  0  0  0  0  0  0  0  0  0
    4.5433   -3.1824   24.0987 C   0  0  0  0  0  0  0  0  0  0  0  0
    5.0468   -2.4621   24.7375 H   0  0  0  0  0  0  0  0  0  0  0  0
    5.2566    0.5357   20.2307 C   0  0  0  0  0  0  0  0  0  0  0  0
    4.7043    0.5701   21.1769 H   0  0  0  0  0  0  0  0  0  0  0  0
    4.7908    1.2522   19.1286 C   0  0  0  0  0  0  0  0  0  0  0  0
    3.8972    1.8632   19.1809 H   0  0  0  0  0  0  0  0  0  0  0  0
  1  2  1  0
  2  3  2  0
  3  4  1  0
  4  5  1  0
  4  6  2  0
  6  7  1  0
  7  8  2  0
  7  9  2  0
  7 10  1  0
 10 11  1  0
 10 12  1  0
 12 13  2  0
 12 14  1  0
 14 15  2  0
 15 16  1  0
 16 17  1  0
 17 18  1  0
 17 19  1  0
 17 20  1  0
 16 21  1  0
 21 22  1  0
 21 23  2  0
 23 24  1  0
  6 25  1  0
 25 26  1  0
 25 27  2  0
 27 28  1  0
 27  2  1  0
 23 14  1  0
M  END
>  <cnnaffinity>  (1) 
-4.7697

>  <filename>  (1) 
Cn1ccc(C(=O)NS(=O)(=O)c2cccnc2)n1

$$$$
