
     RDKit          3D

 28 30  0  0  0  0  0  0  0  0999 V2000
    4.9229    1.7788   16.9990 H   0  0  0  0  0  0  0  0  0  0  0  0
    5.4082    1.2909   17.8416 C   0  0  0  0  0  0  0  0  0  0  0  0
    6.5734    0.6731   17.5894 N   0  0  0  0  0  0  0  0  0  0  0  0
    7.1705    0.0430   18.6040 C   0  0  0  0  0  0  0  0  0  0  0  0
    8.1181   -0.4365   18.3751 H   0  0  0  0  0  0  0  0  0  0  0  0
    6.6509    0.0007   19.9072 C   0  0  0  0  0  0  0  0  0  0  0  0
    7.3610   -0.7080   20.9722 C   0  0  0  0  0  0  0  0  0  0  0  0
    7.8769   -1.9578   20.7832 N   0  0  0  0  0  0  0  0  0  0  0  0
    8.3363   -2.3477   21.9435 C   0  0  0  0  0  0  0  0  0  0  0  0
    8.7994   -3.3070   22.1574 H   0  0  0  0  0  0  0  0  0  0  0  0
    8.1688   -1.3892   22.8836 N   0  0  0  0  0  0  0  0  0  0  0  0
    8.4572   -1.4172   23.8452 H   0  0  0  0  0  0  0  0  0  0  0  0
    7.5552   -0.3091   22.2826 C   0  0  0  0  0  0  0  0  0  0  0  0
    7.3256    0.9718   22.9202 C   0  0  0  0  0  0  0  0  0  0  0  0
    7.1895    1.1201   24.2432 N   0  0  0  0  0  0  0  0  0  0  0  0
    7.0226    2.4306   24.4299 N   0  0  0  0  0  0  0  0  0  0  0  0
    6.7779    2.9682   25.7504 C   0  0  0  0  0  0  0  0  0  0  0  0
    7.1585    2.2823   26.5064 H   0  0  0  0  0  0  0  0  0  0  0  0
    7.2956    3.9218   25.8488 H   0  0  0  0  0  0  0  0  0  0  0  0
    5.7115    3.1349   25.9210 H   0  0  0  0  0  0  0  0  0  0  0  0
    7.0515    3.1350   23.2747 C   0  0  0  0  0  0  0  0  0  0  0  0
    6.9280    4.2125   23.2577 H   0  0  0  0  0  0  0  0  0  0  0  0
    7.2547    2.2271   22.2686 C   0  0  0  0  0  0  0  0  0  0  0  0
    7.3521    2.3986   21.2070 H   0  0  0  0  0  0  0  0  0  0  0  0
    5.4269    0.6423   20.1540 C   0  0  0  0  0  0  0  0  0  0  0  0
    5.0005    0.6379   21.1613 H   0  0  0  0  0  0  0  0  0  0  0  0
    4.8023    1.3065   19.1025 C   0  0  0  0  0  0  0  0  0  0  0  0
    3.8722    1.8436   19.2578 H   0  0  0  0  0  0  0  0  0  0  0  0
  1  2  1  0
  2  3  2  0
  3  4  1  0
  4  5  1  0
  4  6  2  0
  6  7  1  0
  7  8  1  0
  8  9  2  0
  9 10  1  0
  9 11  1  0
 11 12  1  0
 11 13  1  0
 13 14  1  0
 14 15  2  0
 15 16  1  0
 16 17  1  0
 17 18  1  0
 17 19  1  0
 17 20  1  0
 16 21  1  0
 21 22  1  0
 21 23  2  0
 23 24  1  0
  6 25  1  0
 25 26  1  0
 25 27  2  0
 27 28  1  0
 27  2  1  0
 13  7  2  0
 23 14  1  0
M  END
>  <cnnaffinity>  (1) 
-4.98308

>  <filename>  (1) 
Cn1ccc(-c2[nH]cnc2-c2cccnc2)n1

$$$$
