
     RDKit          3D

 30 32  0  0  0  0  0  0  0  0999 V2000
    4.9090    1.7529   16.9237 H   0  0  0  0  0  0  0  0  0  0  0  0
    5.3865    1.3448   17.8132 C   0  0  0  0  0  0  0  0  0  0  0  0
    6.5799    0.7523   17.6375 N   0  0  0  0  0  0  0  0  0  0  0  0
    7.1493    0.2121   18.7196 C   0  0  0  0  0  0  0  0  0  0  0  0
    8.1038   -0.2844   18.5446 H   0  0  0  0  0  0  0  0  0  0  0  0
    6.6078    0.2540   20.0223 C   0  0  0  0  0  0  0  0  0  0  0  0
    7.3323   -0.4421   21.1280 C   0  0  0  0  0  0  0  0  0  0  0  0
    7.4803    0.3444   22.6885 S   0  0  0  0  0  0  0  0  0  0  0  0
    8.2869   -0.8852   23.6560 C   0  0  0  0  0  0  0  0  0  0  0  0
    8.4613   -0.5251   25.0890 C   0  0  0  0  0  0  0  0  0  0  0  0
    7.9245    0.5893   25.5819 N   0  0  0  0  0  0  0  0  0  0  0  0
    8.2420    0.6035   26.8774 N   0  0  0  0  0  0  0  0  0  0  0  0
    7.6613    1.6396   27.7219 C   0  0  0  0  0  0  0  0  0  0  0  0
    8.3262    1.8617   28.5595 H   0  0  0  0  0  0  0  0  0  0  0  0
    7.5400    2.5275   27.0961 H   0  0  0  0  0  0  0  0  0  0  0  0
    6.6836    1.3201   28.1034 H   0  0  0  0  0  0  0  0  0  0  0  0
    8.9646   -0.4828   27.2405 C   0  0  0  0  0  0  0  0  0  0  0  0
    9.3275   -0.5957   28.2544 H   0  0  0  0  0  0  0  0  0  0  0  0
    9.1230   -1.2553   26.1152 C   0  0  0  0  0  0  0  0  0  0  0  0
    9.5982   -2.2252   26.0562 H   0  0  0  0  0  0  0  0  0  0  0  0
    8.6957   -2.0731   23.1618 C   0  0  0  0  0  0  0  0  0  0  0  0
    9.2982   -2.7522   23.7550 H   0  0  0  0  0  0  0  0  0  0  0  0
    8.3830   -2.6047   21.8349 C   0  0  0  0  0  0  0  0  0  0  0  0
    8.5812   -3.7816   21.5597 O   0  0  0  0  0  0  0  0  0  0  0  0
    7.8092   -1.6736   20.8714 C   0  0  0  0  0  0  0  0  0  0  0  0
    7.6970   -2.0662   19.8806 H   0  0  0  0  0  0  0  0  0  0  0  0
    5.3495    0.8558   20.1773 C   0  0  0  0  0  0  0  0  0  0  0  0
    4.8576    0.8500   21.1511 H   0  0  0  0  0  0  0  0  0  0  0  0
    4.7345    1.4084   19.0491 C   0  0  0  0  0  0  0  0  0  0  0  0
    3.7503    1.8597   19.1140 H   0  0  0  0  0  0  0  0  0  0  0  0
  1  2  1  0
  2  3  2  0
  3  4  1  0
  4  5  1  0
  4  6  2  0
  6  7  1  0
  7  8  1  0
  8  9  1  0
  9 10  1  0
 10 11  2  0
 11 12  1  0
 12 13  1  0
 13 14  1  0
 13 15  1  0
 13 16  1  0
 12 17  1  0
 17 18  1  0
 17 19  2  0
 19 20  1  0
  9 21  2  0
 21 22  1  0
 21 23  1  0
 23 24  2  0
 23 25  1  0
 25 26  1  0
  6 27  1  0
 27 28  1  0
 27 29  2  0
 29 30  1  0
 29  2  1  0
 25  7  2  0
 19 10  1  0
M  END
>  <cnnaffinity>  (1) 
-5.23353

>  <filename>  (1) 
Cn1ccc(-c2cc(=O)cc(-c3cccnc3)s2)n1

$$$$
