
     RDKit          3D

 29 31  0  0  0  0  0  0  0  0999 V2000
    4.9494    1.7943   16.9969 H   0  0  0  0  0  0  0  0  0  0  0  0
    5.4134    1.2853   17.8391 C   0  0  0  0  0  0  0  0  0  0  0  0
    6.5737    0.6665   17.5823 N   0  0  0  0  0  0  0  0  0  0  0  0
    7.1732    0.0348   18.5941 C   0  0  0  0  0  0  0  0  0  0  0  0
    8.1213   -0.4474   18.3648 H   0  0  0  0  0  0  0  0  0  0  0  0
    6.6548   -0.0138   19.8957 C   0  0  0  0  0  0  0  0  0  0  0  0
    7.4057   -0.7232   20.9599 C   0  0  0  0  0  0  0  0  0  0  0  0
    8.1138   -1.8132   20.6218 N   0  0  0  0  0  0  0  0  0  0  0  0
    8.7689   -2.5197   21.5543 N   0  0  0  0  0  0  0  0  0  0  0  0
    8.7638   -2.1241   22.8321 C   0  0  0  0  0  0  0  0  0  0  0  0
    9.3411   -2.7565   23.5016 H   0  0  0  0  0  0  0  0  0  0  0  0
    8.0704   -0.9667   23.2582 C   0  0  0  0  0  0  0  0  0  0  0  0
    8.0932   -0.5052   24.6542 C   0  0  0  0  0  0  0  0  0  0  0  0
    8.8521   -1.1223   25.5500 N   0  0  0  0  0  0  0  0  0  0  0  0
    8.6685   -0.4414   26.6781 N   0  0  0  0  0  0  0  0  0  0  0  0
    9.1870   -1.0218   27.8866 C   0  0  0  0  0  0  0  0  0  0  0  0
    8.5268   -1.8529   28.1276 H   0  0  0  0  0  0  0  0  0  0  0  0
    9.1968   -0.2720   28.6878 H   0  0  0  0  0  0  0  0  0  0  0  0
   10.1876   -1.3956   27.6697 H   0  0  0  0  0  0  0  0  0  0  0  0
    7.7832    0.5658   26.5584 C   0  0  0  0  0  0  0  0  0  0  0  0
    7.5073    1.1365   27.4361 H   0  0  0  0  0  0  0  0  0  0  0  0
    7.3947    0.5760   25.2387 C   0  0  0  0  0  0  0  0  0  0  0  0
    6.7155    1.2477   24.7364 H   0  0  0  0  0  0  0  0  0  0  0  0
    7.3768   -0.2623   22.2814 C   0  0  0  0  0  0  0  0  0  0  0  0
    6.8365    0.6525   22.5125 H   0  0  0  0  0  0  0  0  0  0  0  0
    5.4398    0.6391   20.1545 C   0  0  0  0  0  0  0  0  0  0  0  0
    4.9946    0.6340   21.1527 H   0  0  0  0  0  0  0  0  0  0  0  0
    4.8095    1.2956   19.1004 C   0  0  0  0  0  0  0  0  0  0  0  0
    3.8807    1.8329   19.2453 H   0  0  0  0  0  0  0  0  0  0  0  0
  1  2  1  0
  2  3  2  0
  3  4  1  0
  4  5  1  0
  4  6  2  0
  6  7  1  0
  7  8  2  0
  8  9  1  0
  9 10  2  0
 10 11  1  0
 10 12  1  0
 12 13  1  0
 13 14  2  0
 14 15  1  0
 15 16  1  0
 16 17  1  0
 16 18  1  0
 16 19  1  0
 15 20  1  0
 20 21  1  0
 20 22  2  0
 22 23  1  0
 12 24  2  0
 24 25  1  0
  6 26  1  0
 26 27  1  0
 26 28  2  0
 28 29  1  0
 28  2  1  0
 24  7  1  0
 22 13  1  0
M  END
>  <cnnaffinity>  (1) 
-4.7574

>  <filename>  (1) 
Cn1ccc(-c2cnnc(-c3cccnc3)c2)n1

$$$$
