
     RDKit          3D

 36 37  0  0  0  0  0  0  0  0999 V2000
    4.9222    1.7732   16.9834 H   0  0  0  0  0  0  0  0  0  0  0  0
    5.4063    1.2737   17.8189 C   0  0  0  0  0  0  0  0  0  0  0  0
    6.5579    0.6371   17.5452 N   0  0  0  0  0  0  0  0  0  0  0  0
    7.1912    0.0448   18.5663 C   0  0  0  0  0  0  0  0  0  0  0  0
    8.1230   -0.4699   18.3299 H   0  0  0  0  0  0  0  0  0  0  0  0
    6.7364    0.0755   19.9109 C   0  0  0  0  0  0  0  0  0  0  0  0
    7.4973   -0.4964   20.9831 N   0  0  0  0  0  0  0  0  0  0  0  0
    7.8520   -1.9139   20.9190 C   0  0  0  0  0  0  0  0  0  0  0  0
    8.7446   -2.0656   20.3019 H   0  0  0  0  0  0  0  0  0  0  0  0
    7.0376   -2.5006   20.4845 H   0  0  0  0  0  0  0  0  0  0  0  0
    8.0656   -2.3043   21.9171 H   0  0  0  0  0  0  0  0  0  0  0  0
    7.4737    0.1721   22.5241 S   0  0  0  0  0  0  0  0  0  0  0  0
    6.6860   -0.6363   23.4284 O   0  0  0  0  0  0  0  0  0  0  0  0
    7.2759    1.6047   22.4590 O   0  0  0  0  0  0  0  0  0  0  0  0
    9.0903   -0.1270   22.9213 N   0  0  0  0  0  0  0  0  0  0  0  0
   10.0762    0.4194   21.9445 C   0  0  0  0  0  0  0  0  0  0  0  0
    9.9884   -0.1323   21.0027 H   0  0  0  0  0  0  0  0  0  0  0  0
    9.9067    1.4871   21.7459 H   0  0  0  0  0  0  0  0  0  0  0  0
   11.5149    0.1996   22.4427 C   0  0  0  0  0  0  0  0  0  0  0  0
   12.2158    0.6161   21.7144 H   0  0  0  0  0  0  0  0  0  0  0  0
   11.7113   -0.8899   22.4788 H   0  0  0  0  0  0  0  0  0  0  0  0
   11.7399    0.8132   23.7535 N   0  0  0  0  0  0  0  0  0  0  0  0
   13.1400    0.7822   24.1296 C   0  0  0  0  0  0  0  0  0  0  0  0
   13.2550    1.0174   25.1899 H   0  0  0  0  0  0  0  0  0  0  0  0
   13.6922    1.5287   23.5507 H   0  0  0  0  0  0  0  0  0  0  0  0
   13.6175   -0.1951   23.9498 H   0  0  0  0  0  0  0  0  0  0  0  0
   10.8285    0.1827   24.7113 C   0  0  0  0  0  0  0  0  0  0  0  0
   11.0262   -0.8982   24.8251 H   0  0  0  0  0  0  0  0  0  0  0  0
   10.9535    0.6321   25.7016 H   0  0  0  0  0  0  0  0  0  0  0  0
    9.3547    0.3800   24.2980 C   0  0  0  0  0  0  0  0  0  0  0  0
    8.7224   -0.1811   24.9968 H   0  0  0  0  0  0  0  0  0  0  0  0
    9.1168    1.4535   24.3717 H   0  0  0  0  0  0  0  0  0  0  0  0
    5.5029    0.6910   20.1623 C   0  0  0  0  0  0  0  0  0  0  0  0
    5.0961    0.6879   21.1724 H   0  0  0  0  0  0  0  0  0  0  0  0
    4.8352    1.2999   19.0949 C   0  0  0  0  0  0  0  0  0  0  0  0
    3.8918    1.8077   19.2537 H   0  0  0  0  0  0  0  0  0  0  0  0
  1  2  1  0
  2  3  2  0
  3  4  1  0
  4  5  1  0
  4  6  2  0
  6  7  1  0
  7  8  1  0
  8  9  1  0
  8 10  1  0
  8 11  1  0
  7 12  1  0
 12 13  2  0
 12 14  2  0
 12 15  1  0
 15 16  1  0
 16 17  1  0
 16 18  1  0
 16 19  1  0
 19 20  1  0
 19 21  1  0
 19 22  1  0
 22 23  1  0
 23 24  1  0
 23 25  1  0
 23 26  1  0
 22 27  1  0
 27 28  1  0
 27 29  1  0
 27 30  1  0
 30 31  1  0
 30 32  1  0
  6 33  1  0
 33 34  1  0
 33 35  2  0
 35 36  1  0
 35  2  1  0
 30 15  1  0
M  END
>  <cnnaffinity>  (1) 
-4.66381

>  <filename>  (1) 
CN1CCN(S(=O)(=O)N(C)c2cccnc2)CC1

$$$$
