
     RDKit          3D

 24 25  0  0  0  0  0  0  0  0999 V2000
    4.9800    1.8763   16.9818 H   0  0  0  0  0  0  0  0  0  0  0  0
    5.4467    1.3188   17.7913 C   0  0  0  0  0  0  0  0  0  0  0  0
    6.6093    0.7114   17.5018 N   0  0  0  0  0  0  0  0  0  0  0  0
    7.2073    0.0314   18.4856 C   0  0  0  0  0  0  0  0  0  0  0  0
    8.1542   -0.4351   18.2247 H   0  0  0  0  0  0  0  0  0  0  0  0
    6.6696   -0.1063   19.7858 C   0  0  0  0  0  0  0  0  0  0  0  0
    7.3751   -0.7964   20.8017 N   0  0  0  0  0  0  0  0  0  0  0  0
    8.7542   -0.6064   21.0259 C   0  0  0  0  0  0  0  0  0  0  0  0
    9.3487    0.0751   20.4490 H   0  0  0  0  0  0  0  0  0  0  0  0
    9.0857   -1.3620   22.0853 C   0  0  0  0  0  0  0  0  0  0  0  0
   10.2556   -1.6422   22.7072 N   0  0  0  0  0  0  0  0  0  0  0  0
   10.1875   -2.2159   23.5301 H   0  0  0  0  0  0  0  0  0  0  0  0
   11.5358   -1.2738   22.1532 C   0  0  0  0  0  0  0  0  0  0  0  0
   11.7155   -0.1912   22.1868 H   0  0  0  0  0  0  0  0  0  0  0  0
   11.6272   -1.5759   21.1034 H   0  0  0  0  0  0  0  0  0  0  0  0
   12.3337   -1.7766   22.7017 H   0  0  0  0  0  0  0  0  0  0  0  0
    7.9402   -1.9498   22.5919 N   0  0  0  0  0  0  0  0  0  0  0  0
    7.9406   -2.8065   23.1092 H   0  0  0  0  0  0  0  0  0  0  0  0
    6.8822   -1.7352   21.7254 C   0  0  0  0  0  0  0  0  0  0  0  0
    5.8200   -2.3173   21.7557 O   0  0  0  0  0  0  0  0  0  0  0  0
    5.4624    0.5388   20.0781 C   0  0  0  0  0  0  0  0  0  0  0  0
    5.0608    0.4954   21.0931 H   0  0  0  0  0  0  0  0  0  0  0  0
    4.8434    1.2653   19.0556 C   0  0  0  0  0  0  0  0  0  0  0  0
    3.9258    1.8163   19.2374 H   0  0  0  0  0  0  0  0  0  0  0  0
  1  2  1  0
  2  3  2  0
  3  4  1  0
  4  5  1  0
  4  6  2  0
  6  7  1  0
  7  8  1  0
  8  9  1  0
  8 10  2  0
 10 11  1  0
 11 12  1  0
 11 13  1  0
 13 14  1  0
 13 15  1  0
 13 16  1  0
 10 17  1  0
 17 18  1  0
 17 19  1  0
 19 20  2  0
  6 21  1  0
 21 22  1  0
 21 23  2  0
 23 24  1  0
 23  2  1  0
 19  7  1  0
M  END
>  <cnnaffinity>  (1) 
-4.44253

>  <filename>  (1) 
CNc1cn(-c2cccnc2)c(=O)[nH]1

$$$$
