
     RDKit          3D

 23 23  0  0  0  0  0  0  0  0999 V2000
    5.6938   -1.7615   21.6012 H   0  0  0  0  0  0  0  0  0  0  0  0
    6.7597   -1.5915   21.7653 C   0  0  0  0  0  0  0  0  0  0  0  0
    7.4058   -0.7095   20.9760 C   0  0  0  0  0  0  0  0  0  0  0  0
    6.6512   -0.0063   19.9083 C   0  0  0  0  0  0  0  0  0  0  0  0
    7.1657    0.0706   18.5994 C   0  0  0  0  0  0  0  0  0  0  0  0
    8.1123   -0.4201   18.3776 H   0  0  0  0  0  0  0  0  0  0  0  0
    6.5631    0.6775   17.5727 N   0  0  0  0  0  0  0  0  0  0  0  0
    5.3998    1.2950   17.8342 C   0  0  0  0  0  0  0  0  0  0  0  0
    4.9138    1.7833   16.9922 H   0  0  0  0  0  0  0  0  0  0  0  0
    4.8041    1.3138   19.1017 C   0  0  0  0  0  0  0  0  0  0  0  0
    3.8703    1.8470   19.2552 H   0  0  0  0  0  0  0  0  0  0  0  0
    5.4259    0.6404   20.1532 C   0  0  0  0  0  0  0  0  0  0  0  0
    5.0078    0.6387   21.1619 H   0  0  0  0  0  0  0  0  0  0  0  0
    8.8772   -0.4400   21.1439 C   0  0  0  0  0  0  0  0  0  0  0  0
    9.4708   -1.3332   20.9004 H   0  0  0  0  0  0  0  0  0  0  0  0
    9.1032   -0.1616   22.1851 H   0  0  0  0  0  0  0  0  0  0  0  0
    9.1991    0.3839   20.4979 H   0  0  0  0  0  0  0  0  0  0  0  0
    7.3192   -2.3384   22.7530 N   0  0  0  0  0  0  0  0  0  0  0  0
    8.3084   -2.2056   22.9057 H   0  0  0  0  0  0  0  0  0  0  0  0
    6.5646   -3.2478   23.5766 C   0  0  0  0  0  0  0  0  0  0  0  0
    5.7688   -2.7294   24.1247 H   0  0  0  0  0  0  0  0  0  0  0  0
    6.0965   -4.0312   22.9701 H   0  0  0  0  0  0  0  0  0  0  0  0
    7.2220   -3.7256   24.3034 H   0  0  0  0  0  0  0  0  0  0  0  0
  1  2  1  0
  2  3  2  3
  3  4  1  0
  4  5  2  0
  5  6  1  0
  5  7  1  0
  7  8  2  0
  8  9  1  0
  8 10  1  0
 10 11  1  0
 10 12  2  0
 12 13  1  0
  3 14  1  0
 14 15  1  0
 14 16  1  0
 14 17  1  0
  2 18  1  0
 18 19  1  0
 18 20  1  0
 20 21  1  0
 20 22  1  0
 20 23  1  0
 12  4  1  0
M  END
>  <cnnaffinity>  (1) 
-3.73447

>  <filename>  (1) 
CNC=C(C)c1cccnc1

$$$$
