
     RDKit          3D

 21 21  0  0  0  0  0  0  0  0999 V2000
    4.9342    1.7836   16.9952 H   0  0  0  0  0  0  0  0  0  0  0  0
    5.4064    1.2868   17.8407 C   0  0  0  0  0  0  0  0  0  0  0  0
    6.5684    0.6703   17.5817 N   0  0  0  0  0  0  0  0  0  0  0  0
    7.1730    0.0486   18.5955 C   0  0  0  0  0  0  0  0  0  0  0  0
    8.1218   -0.4303   18.3732 H   0  0  0  0  0  0  0  0  0  0  0  0
    6.6515   -0.0092   19.8948 C   0  0  0  0  0  0  0  0  0  0  0  0
    7.4595   -0.7401   20.9204 C   0  0  0  0  0  0  0  0  0  0  0  0
    8.4754   -1.3346   20.6127 O   0  0  0  0  0  0  0  0  0  0  0  0
    6.9494   -0.7428   22.3847 C   0  0  0  0  0  0  0  0  0  0  0  0
    5.9273   -1.1248   22.3290 H   0  0  0  0  0  0  0  0  0  0  0  0
    7.5412   -1.5131   22.9025 H   0  0  0  0  0  0  0  0  0  0  0  0
    6.9650    0.5709   23.0640 N   0  0  0  0  0  0  0  0  0  0  0  0
    6.3910    0.5669   23.9058 H   0  0  0  0  0  0  0  0  0  0  0  0
    8.3321    0.9563   23.4101 C   0  0  0  0  0  0  0  0  0  0  0  0
    8.8362    0.2473   24.0918 H   0  0  0  0  0  0  0  0  0  0  0  0
    8.3486    1.9596   23.8463 H   0  0  0  0  0  0  0  0  0  0  0  0
    8.9348    0.9853   22.4973 H   0  0  0  0  0  0  0  0  0  0  0  0
    5.4335    0.6438   20.1609 C   0  0  0  0  0  0  0  0  0  0  0  0
    4.9996    0.6643   21.1630 H   0  0  0  0  0  0  0  0  0  0  0  0
    4.8075    1.3032   19.1045 C   0  0  0  0  0  0  0  0  0  0  0  0
    3.8784    1.8393   19.2513 H   0  0  0  0  0  0  0  0  0  0  0  0
  1  2  1  0
  2  3  2  0
  3  4  1  0
  4  5  1  0
  4  6  2  0
  6  7  1  0
  7  8  2  0
  7  9  1  0
  9 10  1  0
  9 11  1  0
  9 12  1  0
 12 13  1  0
 12 14  1  0
 14 15  1  0
 14 16  1  0
 14 17  1  0
  6 18  1  0
 18 19  1  0
 18 20  2  0
 20 21  1  0
 20  2  1  0
M  END
>  <cnnaffinity>  (1) 
-3.3773

>  <filename>  (1) 
CNCC(=O)c1cccnc1

$$$$
