
     RDKit          3D

 35 37  0  0  0  0  0  0  0  0999 V2000
    4.9309    1.8111   16.9624 H   0  0  0  0  0  0  0  0  0  0  0  0
    5.4002    1.3074   17.8076 C   0  0  0  0  0  0  0  0  0  0  0  0
    6.5621    0.6838   17.5574 N   0  0  0  0  0  0  0  0  0  0  0  0
    7.1719    0.0649   18.5763 C   0  0  0  0  0  0  0  0  0  0  0  0
    8.1065   -0.4259   18.3110 H   0  0  0  0  0  0  0  0  0  0  0  0
    6.6681    0.0100   19.8918 C   0  0  0  0  0  0  0  0  0  0  0  0
    7.3420   -0.7127   20.9863 C   0  0  0  0  0  0  0  0  0  0  0  0
    6.8301   -1.2465   22.1169 C   0  0  0  0  0  0  0  0  0  0  0  0
    5.8138   -1.3538   22.4281 H   0  0  0  0  0  0  0  0  0  0  0  0
    7.8533   -1.7918   22.8818 N   0  0  0  0  0  0  0  0  0  0  0  0
    7.6494   -2.4456   24.1441 C   0  0  0  0  0  0  0  0  0  0  0  0
    6.8243   -1.8568   25.1175 C   0  0  0  0  0  0  0  0  0  0  0  0
    6.3747   -0.8922   24.8958 H   0  0  0  0  0  0  0  0  0  0  0  0
    6.6012   -2.4946   26.3406 C   0  0  0  0  0  0  0  0  0  0  0  0
    5.9827   -2.0005   27.0890 H   0  0  0  0  0  0  0  0  0  0  0  0
    7.1790   -3.7592   26.5965 C   0  0  0  0  0  0  0  0  0  0  0  0
    6.9881   -4.5400   27.8741 C   0  0  0  0  0  0  0  0  0  0  0  0
    7.7241   -5.4364   28.2289 O   0  0  0  0  0  0  0  0  0  0  0  0
    5.9430   -4.1113   28.6198 O   0  0  0  0  0  0  0  0  0  0  0  0
    5.9257   -4.4820   30.0116 C   0  0  0  0  0  0  0  0  0  0  0  0
    5.5047   -5.4789   30.1550 H   0  0  0  0  0  0  0  0  0  0  0  0
    5.3092   -3.7276   30.5008 H   0  0  0  0  0  0  0  0  0  0  0  0
    6.9351   -4.4756   30.4385 H   0  0  0  0  0  0  0  0  0  0  0  0
    8.0238   -4.3237   25.6176 C   0  0  0  0  0  0  0  0  0  0  0  0
    8.5270   -5.2634   25.8350 H   0  0  0  0  0  0  0  0  0  0  0  0
    8.2432   -3.6853   24.3976 C   0  0  0  0  0  0  0  0  0  0  0  0
    8.8890   -4.1107   23.6381 H   0  0  0  0  0  0  0  0  0  0  0  0
    9.0466   -1.6123   22.2152 C   0  0  0  0  0  0  0  0  0  0  0  0
   10.6198   -1.9985   22.5959 S   0  0  0  0  0  0  0  0  0  0  0  0
    8.7012   -0.9797   21.0606 N   0  0  0  0  0  0  0  0  0  0  0  0
    9.4549   -0.6825   20.4670 H   0  0  0  0  0  0  0  0  0  0  0  0
    5.4434    0.6678   20.1238 C   0  0  0  0  0  0  0  0  0  0  0  0
    5.0098    0.6761   21.1231 H   0  0  0  0  0  0  0  0  0  0  0  0
    4.8034    1.3233   19.0718 C   0  0  0  0  0  0  0  0  0  0  0  0
    3.8661    1.8525   19.2141 H   0  0  0  0  0  0  0  0  0  0  0  0
  1  2  1  0
  2  3  2  0
  3  4  1  0
  4  5  1  0
  4  6  2  0
  6  7  1  0
  7  8  2  0
  8  9  1  0
  8 10  1  0
 10 11  1  0
 11 12  2  0
 12 13  1  0
 12 14  1  0
 14 15  1  0
 14 16  2  0
 16 17  1  0
 17 18  2  0
 17 19  1  0
 19 20  1  0
 20 21  1  0
 20 22  1  0
 20 23  1  0
 16 24  1  0
 24 25  1  0
 24 26  2  0
 26 27  1  0
 10 28  1  0
 28 29  2  0
 28 30  1  0
 30 31  1  0
  6 32  1  0
 32 33  1  0
 32 34  2  0
 34 35  1  0
 34  2  1  0
 30  7  1  0
 26 11  1  0
M  END
>  <cnnaffinity>  (1) 
-5.53943

>  <filename>  (1) 
COC(=O)c1ccc(-n2cc(-c3cccnc3)[nH]c2=S)cc1

$$$$
