
     RDKit          3D

 38 40  0  0  0  0  0  0  0  0999 V2000
    5.0262    1.9860   16.9176 H   0  0  0  0  0  0  0  0  0  0  0  0
    5.4541    1.3840   17.7162 C   0  0  0  0  0  0  0  0  0  0  0  0
    6.6066    0.7557   17.4331 N   0  0  0  0  0  0  0  0  0  0  0  0
    7.1779    0.0444   18.4092 C   0  0  0  0  0  0  0  0  0  0  0  0
    8.1111   -0.4610   18.1613 H   0  0  0  0  0  0  0  0  0  0  0  0
    6.6302   -0.0956   19.7014 C   0  0  0  0  0  0  0  0  0  0  0  0
    7.3626   -0.7909   20.7313 N   0  0  0  0  0  0  0  0  0  0  0  0
    8.6917   -0.4357   20.9564 C   0  0  0  0  0  0  0  0  0  0  0  0
    9.0680    0.3763   20.3368 H   0  0  0  0  0  0  0  0  0  0  0  0
    9.4471   -1.0275   21.9038 C   0  0  0  0  0  0  0  0  0  0  0  0
   10.7569   -0.4725   22.4055 C   0  0  0  0  0  0  0  0  0  0  0  0
   11.2544    0.1477   21.6453 H   0  0  0  0  0  0  0  0  0  0  0  0
   11.4387   -1.2928   22.6568 H   0  0  0  0  0  0  0  0  0  0  0  0
   10.4626    0.3434   23.6607 C   0  0  0  0  0  0  0  0  0  0  0  0
   10.5997   -0.2225   24.9314 C   0  0  0  0  0  0  0  0  0  0  0  0
   11.0349   -1.2113   25.0163 H   0  0  0  0  0  0  0  0  0  0  0  0
   10.0844    0.4040   26.0685 C   0  0  0  0  0  0  0  0  0  0  0  0
   10.1473   -0.0774   27.0416 H   0  0  0  0  0  0  0  0  0  0  0  0
    9.4356    1.6292   25.9377 C   0  0  0  0  0  0  0  0  0  0  0  0
    9.0052    2.0990   26.8177 H   0  0  0  0  0  0  0  0  0  0  0  0
    9.3268    2.2521   24.6893 C   0  0  0  0  0  0  0  0  0  0  0  0
    8.8267    3.2129   24.6021 H   0  0  0  0  0  0  0  0  0  0  0  0
    9.8409    1.6069   23.5507 C   0  0  0  0  0  0  0  0  0  0  0  0
    9.7460    2.0903   22.2756 O   0  0  0  0  0  0  0  0  0  0  0  0
    8.9571    3.2272   22.0032 C   0  0  0  0  0  0  0  0  0  0  0  0
    7.9310    3.1207   22.3793 H   0  0  0  0  0  0  0  0  0  0  0  0
    8.9178    3.2910   20.9150 H   0  0  0  0  0  0  0  0  0  0  0  0
    9.4020    4.1475   22.4095 H   0  0  0  0  0  0  0  0  0  0  0  0
    8.8520   -2.1185   22.6910 C   0  0  0  0  0  0  0  0  0  0  0  0
    9.4223   -2.9009   23.4222 O   0  0  0  0  0  0  0  0  0  0  0  0
    7.4925   -2.2373   22.5602 N   0  0  0  0  0  0  0  0  0  0  0  0
    7.0986   -3.0344   23.0190 H   0  0  0  0  0  0  0  0  0  0  0  0
    6.7449   -1.7897   21.5197 C   0  0  0  0  0  0  0  0  0  0  0  0
    5.6492   -2.2630   21.3234 O   0  0  0  0  0  0  0  0  0  0  0  0
    5.3941    0.5068   19.9642 C   0  0  0  0  0  0  0  0  0  0  0  0
    4.9099    0.3775   20.9321 H   0  0  0  0  0  0  0  0  0  0  0  0
    4.8123    1.2826   18.9550 C   0  0  0  0  0  0  0  0  0  0  0  0
    3.8838    1.8191   19.1201 H   0  0  0  0  0  0  0  0  0  0  0  0
  1  2  1  0
  2  3  2  0
  3  4  1  0
  4  5  1  0
  4  6  2  0
  6  7  1  0
  7  8  1  0
  8  9  1  0
  8 10  2  0
 10 11  1  0
 11 12  1  0
 11 13  1  0
 11 14  1  0
 14 15  2  0
 15 16  1  0
 15 17  1  0
 17 18  1  0
 17 19  2  0
 19 20  1  0
 19 21  1  0
 21 22  1  0
 21 23  2  0
 23 24  1  0
 24 25  1  0
 25 26  1  0
 25 27  1  0
 25 28  1  0
 10 29  1  0
 29 30  2  0
 29 31  1  0
 31 32  1  0
 31 33  1  0
 33 34  2  0
  6 35  1  0
 35 36  1  0
 35 37  2  0
 37 38  1  0
 37  2  1  0
 33  7  1  0
 23 14  1  0
M  END
>  <cnnaffinity>  (1) 
-4.90335

>  <filename>  (1) 
COc1ccccc1Cc1cn(-c2cccnc2)c(=O)[nH]c1=O

$$$$
