
     RDKit          3D

 33 35  0  0  0  0  0  0  0  0999 V2000
    4.9496    1.7991   16.9698 H   0  0  0  0  0  0  0  0  0  0  0  0
    5.4505    1.3211   17.8106 C   0  0  0  0  0  0  0  0  0  0  0  0
    6.6332    0.7459   17.5433 N   0  0  0  0  0  0  0  0  0  0  0  0
    7.2522    0.1148   18.5471 C   0  0  0  0  0  0  0  0  0  0  0  0
    8.2265   -0.3147   18.3183 H   0  0  0  0  0  0  0  0  0  0  0  0
    6.7103   -0.0258   19.8399 C   0  0  0  0  0  0  0  0  0  0  0  0
    7.4695   -0.7828   20.8634 C   0  0  0  0  0  0  0  0  0  0  0  0
    8.7601   -0.5433   20.9821 N   0  0  0  0  0  0  0  0  0  0  0  0
    9.4592   -1.0617   22.0533 C   0  0  0  0  0  0  0  0  0  0  0  0
   10.9397   -0.7198   22.1126 C   0  0  0  0  0  0  0  0  0  0  0  0
   11.2843   -0.5011   21.0966 H   0  0  0  0  0  0  0  0  0  0  0  0
   11.5406   -1.5600   22.4835 H   0  0  0  0  0  0  0  0  0  0  0  0
   11.2564    0.4501   22.9253 N   0  0  0  0  0  0  0  0  0  0  0  0
   11.3633    1.7151   22.3627 N   0  0  0  0  0  0  0  0  0  0  0  0
   11.4012    2.4772   23.3925 C   0  0  0  0  0  0  0  0  0  0  0  0
   11.4862    3.7898   23.3183 O   0  0  0  0  0  0  0  0  0  0  0  0
   11.3675    4.6580   24.4470 C   0  0  0  0  0  0  0  0  0  0  0  0
   11.4972    5.6567   24.0302 H   0  0  0  0  0  0  0  0  0  0  0  0
   12.1608    4.4811   25.1785 H   0  0  0  0  0  0  0  0  0  0  0  0
   10.3774    4.6026   24.9171 H   0  0  0  0  0  0  0  0  0  0  0  0
   11.3476    1.8575   24.5923 O   0  0  0  0  0  0  0  0  0  0  0  0
   11.2413    0.5070   24.2852 C   0  0  0  0  0  0  0  0  0  0  0  0
   11.1684   -0.3834   25.0875 O   0  0  0  0  0  0  0  0  0  0  0  0
    8.8722   -1.8604   23.0011 C   0  0  0  0  0  0  0  0  0  0  0  0
    9.4118   -2.2690   23.8509 H   0  0  0  0  0  0  0  0  0  0  0  0
    7.5436   -2.1813   22.8500 N   0  0  0  0  0  0  0  0  0  0  0  0
    7.0377   -2.8338   23.4378 H   0  0  0  0  0  0  0  0  0  0  0  0
    6.7703   -1.8099   21.7502 C   0  0  0  0  0  0  0  0  0  0  0  0
    5.6854   -2.3477   21.6132 O   0  0  0  0  0  0  0  0  0  0  0  0
    5.4832    0.6097   20.1102 C   0  0  0  0  0  0  0  0  0  0  0  0
    5.0504    0.6055   21.1133 H   0  0  0  0  0  0  0  0  0  0  0  0
    4.8511    1.2970   19.0725 C   0  0  0  0  0  0  0  0  0  0  0  0
    3.9118    1.8168   19.2210 H   0  0  0  0  0  0  0  0  0  0  0  0
  1  2  1  0
  2  3  2  0
  3  4  1  0
  4  5  1  0
  4  6  2  0
  6  7  1  0
  7  8  2  0
  8  9  1  0
  9 10  1  0
 10 11  1  0
 10 12  1  0
 10 13  1  0
 13 14  1  0
 14 15  2  0
 15 16  1  0
 16 17  1  0
 17 18  1  0
 17 19  1  0
 17 20  1  0
 15 21  1  0
 21 22  1  0
 22 23  2  0
  9 24  2  0
 24 25  1  0
 24 26  1  0
 26 27  1  0
 26 28  1  0
 28 29  2  0
  6 30  1  0
 30 31  1  0
 30 32  2  0
 32 33  1  0
 32  2  1  0
 28  7  1  0
 22 13  1  0
M  END
>  <cnnaffinity>  (1) 
-5.57588

>  <filename>  (1) 
COc1nn(Cc2c[nH]c(=O)c(-c3cccnc3)n2)c(=O)o1

$$$$
