
     RDKit          3D

 34 36  0  0  0  0  0  0  0  0999 V2000
    8.8523   -3.1279   22.3524 H   0  0  0  0  0  0  0  0  0  0  0  0
    8.3992   -2.2162   21.9818 C   0  0  0  0  0  0  0  0  0  0  0  0
    7.8326   -2.0095   20.8432 N   0  0  0  0  0  0  0  0  0  0  0  0
    7.3995   -0.6920   20.9233 C   0  0  0  0  0  0  0  0  0  0  0  0
    6.6430   -0.0188   19.8721 C   0  0  0  0  0  0  0  0  0  0  0  0
    7.1500    0.0195   18.5648 C   0  0  0  0  0  0  0  0  0  0  0  0
    8.1005   -0.4589   18.3360 H   0  0  0  0  0  0  0  0  0  0  0  0
    6.5492    0.6603   17.5584 N   0  0  0  0  0  0  0  0  0  0  0  0
    5.3957    1.2961   17.8228 C   0  0  0  0  0  0  0  0  0  0  0  0
    4.9379    1.8128   16.9820 H   0  0  0  0  0  0  0  0  0  0  0  0
    4.8002    1.3099   19.0876 C   0  0  0  0  0  0  0  0  0  0  0  0
    3.8669    1.8451   19.2330 H   0  0  0  0  0  0  0  0  0  0  0  0
    5.4377    0.6485   20.1348 C   0  0  0  0  0  0  0  0  0  0  0  0
    5.0182    0.6466   21.1410 H   0  0  0  0  0  0  0  0  0  0  0  0
    7.7860   -0.1531   22.1157 C   0  0  0  0  0  0  0  0  0  0  0  0
    7.6632    1.2065   22.7187 C   0  0  0  0  0  0  0  0  0  0  0  0
    8.5788    1.4083   23.2928 H   0  0  0  0  0  0  0  0  0  0  0  0
    7.6264    1.9357   21.9049 H   0  0  0  0  0  0  0  0  0  0  0  0
    6.4270    1.3738   23.6080 C   0  0  0  0  0  0  0  0  0  0  0  0
    6.2998    0.5668   24.7377 C   0  0  0  0  0  0  0  0  0  0  0  0
    7.0945   -0.1511   24.9399 H   0  0  0  0  0  0  0  0  0  0  0  0
    5.1869    0.6657   25.5868 C   0  0  0  0  0  0  0  0  0  0  0  0
    5.1241    0.0224   26.4563 H   0  0  0  0  0  0  0  0  0  0  0  0
    4.1707    1.5838   25.3124 C   0  0  0  0  0  0  0  0  0  0  0  0
    3.3044    1.6765   25.9702 H   0  0  0  0  0  0  0  0  0  0  0  0
    4.2759    2.4100   24.1881 C   0  0  0  0  0  0  0  0  0  0  0  0
    3.5150    3.1418   23.9478 H   0  0  0  0  0  0  0  0  0  0  0  0
    5.3985    2.3120   23.3494 C   0  0  0  0  0  0  0  0  0  0  0  0
    5.5690    3.0974   22.2553 O   0  0  0  0  0  0  0  0  0  0  0  0
    4.5942    4.0445   21.8962 C   0  0  0  0  0  0  0  0  0  0  0  0
    5.0433    4.5385   21.0457 H   0  0  0  0  0  0  0  0  0  0  0  0
    3.6431    3.5654   21.6288 H   0  0  0  0  0  0  0  0  0  0  0  0
    4.4014    4.7648   22.7022 H   0  0  0  0  0  0  0  0  0  0  0  0
    8.4204   -1.1469   22.8070 O   0  0  0  0  0  0  0  0  0  0  0  0
  1  2  1  0
  2  3  2  0
  3  4  1  0
  4  5  1  0
  5  6  2  0
  6  7  1  0
  6  8  1  0
  8  9  2  0
  9 10  1  0
  9 11  1  0
 11 12  1  0
 11 13  2  0
 13 14  1  0
  4 15  2  0
 15 16  1  0
 16 17  1  0
 16 18  1  0
 16 19  1  0
 19 20  2  0
 20 21  1  0
 20 22  1  0
 22 23  1  0
 22 24  2  0
 24 25  1  0
 24 26  1  0
 26 27  1  0
 26 28  2  0
 28 29  1  0
 29 30  1  0
 30 31  1  0
 30 32  1  0
 30 33  1  0
 15 34  1  0
 34  2  1  0
 13  5  1  0
 28 19  1  0
M  END
>  <cnnaffinity>  (1) 
-4.71055

>  <filename>  (1) 
COc1ccccc1Cc1ocnc1-c1cccnc1

$$$$
