
     RDKit          3D

 33 35  0  0  0  0  0  0  0  0999 V2000
    4.9218    1.8053   16.9667 H   0  0  0  0  0  0  0  0  0  0  0  0
    5.3945    1.3052   17.8136 C   0  0  0  0  0  0  0  0  0  0  0  0
    6.5581    0.6848   17.5625 N   0  0  0  0  0  0  0  0  0  0  0  0
    7.1718    0.0686   18.5815 C   0  0  0  0  0  0  0  0  0  0  0  0
    8.1065   -0.4226   18.3208 H   0  0  0  0  0  0  0  0  0  0  0  0
    6.6681    0.0138   19.8947 C   0  0  0  0  0  0  0  0  0  0  0  0
    7.3407   -0.7083   20.9814 C   0  0  0  0  0  0  0  0  0  0  0  0
    6.8240   -1.2396   22.1053 C   0  0  0  0  0  0  0  0  0  0  0  0
    5.8065   -1.3185   22.4168 H   0  0  0  0  0  0  0  0  0  0  0  0
    7.8452   -1.8021   22.8559 N   0  0  0  0  0  0  0  0  0  0  0  0
    7.6537   -2.4586   24.1131 C   0  0  0  0  0  0  0  0  0  0  0  0
    6.8479   -1.8608   25.0877 C   0  0  0  0  0  0  0  0  0  0  0  0
    6.3760   -0.9079   24.8711 H   0  0  0  0  0  0  0  0  0  0  0  0
    6.6781   -2.4953   26.3219 C   0  0  0  0  0  0  0  0  0  0  0  0
    6.0572   -2.0331   27.0869 H   0  0  0  0  0  0  0  0  0  0  0  0
    7.2959   -3.7176   26.5678 C   0  0  0  0  0  0  0  0  0  0  0  0
    7.1937   -4.2428   27.5102 H   0  0  0  0  0  0  0  0  0  0  0  0
    8.0893   -4.3185   25.5761 C   0  0  0  0  0  0  0  0  0  0  0  0
    8.6387   -5.5052   25.9346 O   0  0  0  0  0  0  0  0  0  0  0  0
    9.4784   -6.1964   25.0348 C   0  0  0  0  0  0  0  0  0  0  0  0
    8.9433   -6.4780   24.1174 H   0  0  0  0  0  0  0  0  0  0  0  0
    9.7819   -7.0915   25.5780 H   0  0  0  0  0  0  0  0  0  0  0  0
   10.3643   -5.6044   24.7656 H   0  0  0  0  0  0  0  0  0  0  0  0
    8.2718   -3.6918   24.3390 C   0  0  0  0  0  0  0  0  0  0  0  0
    8.9019   -4.1201   23.5692 H   0  0  0  0  0  0  0  0  0  0  0  0
    9.0403   -1.6223   22.1991 C   0  0  0  0  0  0  0  0  0  0  0  0
   10.6027   -2.0094   22.6085 S   0  0  0  0  0  0  0  0  0  0  0  0
    8.6974   -0.9812   21.0489 N   0  0  0  0  0  0  0  0  0  0  0  0
    9.4428   -0.6773   20.4473 H   0  0  0  0  0  0  0  0  0  0  0  0
    5.4435    0.6654   20.1293 C   0  0  0  0  0  0  0  0  0  0  0  0
    5.0093    0.6659   21.1295 H   0  0  0  0  0  0  0  0  0  0  0  0
    4.7998    1.3218   19.0793 C   0  0  0  0  0  0  0  0  0  0  0  0
    3.8650    1.8517   19.2251 H   0  0  0  0  0  0  0  0  0  0  0  0
  1  2  1  0
  2  3  2  0
  3  4  1  0
  4  5  1  0
  4  6  2  0
  6  7  1  0
  7  8  2  0
  8  9  1  0
  8 10  1  0
 10 11  1  0
 11 12  2  0
 12 13  1  0
 12 14  1  0
 14 15  1  0
 14 16  2  0
 16 17  1  0
 16 18  1  0
 18 19  1  0
 19 20  1  0
 20 21  1  0
 20 22  1  0
 20 23  1  0
 18 24  2  0
 24 25  1  0
 10 26  1  0
 26 27  2  0
 26 28  1  0
 28 29  1  0
  6 30  1  0
 30 31  1  0
 30 32  2  0
 32 33  1  0
 32  2  1  0
 28  7  1  0
 24 11  1  0
M  END
>  <cnnaffinity>  (1) 
-5.48492

>  <filename>  (1) 
COc1cccc(-n2cc(-c3cccnc3)[nH]c2=S)c1

$$$$
