
     RDKit          3D

 36 37  0  0  0  0  0  0  0  0999 V2000
    4.9960    1.7548   16.9371 H   0  0  0  0  0  0  0  0  0  0  0  0
    5.4325    1.3170   17.8329 C   0  0  0  0  0  0  0  0  0  0  0  0
    6.6170    0.7027   17.6811 N   0  0  0  0  0  0  0  0  0  0  0  0
    7.1588    0.1343   18.7668 C   0  0  0  0  0  0  0  0  0  0  0  0
    8.1118   -0.3718   18.6107 H   0  0  0  0  0  0  0  0  0  0  0  0
    6.5748    0.1274   20.0442 C   0  0  0  0  0  0  0  0  0  0  0  0
    7.2484   -0.5886   21.2046 C   0  0  2  0  0  0  0  0  0  0  0  0
    6.6163   -0.4710   22.0913 H   0  0  0  0  0  0  0  0  0  0  0  0
    8.9239    0.0670   21.6123 S   0  0  0  0  0  0  0  0  0  0  0  0
    8.4944    1.6636   22.2205 C   0  0  0  0  0  0  0  0  0  0  0  0
    8.4427    2.7484   21.3574 C   0  0  0  0  0  0  0  0  0  0  0  0
    8.6677    2.5904   20.3117 H   0  0  0  0  0  0  0  0  0  0  0  0
    8.0754    4.0053   21.8481 C   0  0  0  0  0  0  0  0  0  0  0  0
    8.0787    4.8613   21.1815 H   0  0  0  0  0  0  0  0  0  0  0  0
    7.6863    4.1932   23.1753 C   0  0  0  0  0  0  0  0  0  0  0  0
    7.2563    5.4027   23.6422 O   0  0  0  0  0  0  0  0  0  0  0  0
    6.9538    6.4179   22.6919 C   0  0  0  0  0  0  0  0  0  0  0  0
    6.4971    7.2284   23.2568 H   0  0  0  0  0  0  0  0  0  0  0  0
    6.2468    6.0675   21.9246 H   0  0  0  0  0  0  0  0  0  0  0  0
    7.8523    6.7963   22.1815 H   0  0  0  0  0  0  0  0  0  0  0  0
    7.7699    3.0720   24.0729 C   0  0  0  0  0  0  0  0  0  0  0  0
    7.4440    3.2633   25.3793 O   0  0  0  0  0  0  0  0  0  0  0  0
    7.5941    2.1756   26.2755 C   0  0  0  0  0  0  0  0  0  0  0  0
    6.9551    1.3302   25.9889 H   0  0  0  0  0  0  0  0  0  0  0  0
    8.6335    1.8236   26.3145 H   0  0  0  0  0  0  0  0  0  0  0  0
    7.2965    2.5414   27.2584 H   0  0  0  0  0  0  0  0  0  0  0  0
    8.1930    1.8324   23.5773 C   0  0  0  0  0  0  0  0  0  0  0  0
    8.3097    0.9856   24.2480 H   0  0  0  0  0  0  0  0  0  0  0  0
    7.5144   -2.0777   20.9836 C   0  0  0  0  0  0  0  0  0  0  0  0
    7.7667   -2.5328   21.9455 H   0  0  0  0  0  0  0  0  0  0  0  0
    8.3763   -2.2038   20.3275 H   0  0  0  0  0  0  0  0  0  0  0  0
    6.6493   -2.5956   20.5621 H   0  0  0  0  0  0  0  0  0  0  0  0
    5.3384    0.7824   20.1762 C   0  0  0  0  0  0  0  0  0  0  0  0
    4.8332    0.8094   21.1435 H   0  0  0  0  0  0  0  0  0  0  0  0
    4.7559    1.3819   19.0551 C   0  0  0  0  0  0  0  0  0  0  0  0
    3.7984    1.8917   19.1109 H   0  0  0  0  0  0  0  0  0  0  0  0
  1  2  1  0
  2  3  2  0
  3  4  1  0
  4  5  1  0
  4  6  2  0
  6  7  1  0
  7  8  1  1
  7  9  1  0
  9 10  1  0
 10 11  2  0
 11 12  1  0
 11 13  1  0
 13 14  1  0
 13 15  2  0
 15 16  1  0
 16 17  1  0
 17 18  1  0
 17 19  1  0
 17 20  1  0
 15 21  1  0
 21 22  1  0
 22 23  1  0
 23 24  1  0
 23 25  1  0
 23 26  1  0
 21 27  2  0
 27 28  1  0
  7 29  1  0
 29 30  1  0
 29 31  1  0
 29 32  1  0
  6 33  1  0
 33 34  1  0
 33 35  2  0
 35 36  1  0
 35  2  1  0
 27 10  1  0
M  END
>  <cnnaffinity>  (1) 
-4.44302

>  <filename>  (1) 
COc1ccc(S[C@H](C)c2cccnc2)cc1OC

$$$$
