
     RDKit          3D

 38 40  0  0  0  0  0  0  0  0999 V2000
    4.9444    1.7870   16.9924 H   0  0  0  0  0  0  0  0  0  0  0  0
    5.4097    1.2890   17.8413 C   0  0  0  0  0  0  0  0  0  0  0  0
    6.5701    0.6670   17.5899 N   0  0  0  0  0  0  0  0  0  0  0  0
    7.1750    0.0528   18.6147 C   0  0  0  0  0  0  0  0  0  0  0  0
    8.1149   -0.4324   18.3576 H   0  0  0  0  0  0  0  0  0  0  0  0
    6.6571   -0.0097   19.9239 C   0  0  0  0  0  0  0  0  0  0  0  0
    7.4005   -0.7392   20.9962 C   0  0  0  0  0  0  0  0  0  0  0  0
    6.4050   -1.6936   22.0798 S   0  0  0  0  0  0  0  0  0  0  0  0
    7.5484   -2.3570   23.2344 C   0  0  0  0  0  0  0  0  0  0  0  0
    6.9435   -3.2095   24.3132 C   0  0  0  0  0  0  0  0  0  0  0  0
    7.6107   -4.3531   24.7655 C   0  0  0  0  0  0  0  0  0  0  0  0
    8.5621   -4.6404   24.3294 H   0  0  0  0  0  0  0  0  0  0  0  0
    7.0705   -5.1605   25.7752 C   0  0  0  0  0  0  0  0  0  0  0  0
    7.6131   -6.0357   26.1174 H   0  0  0  0  0  0  0  0  0  0  0  0
    5.8457   -4.8496   26.3689 C   0  0  0  0  0  0  0  0  0  0  0  0
    5.2673   -5.5808   27.3542 O   0  0  0  0  0  0  0  0  0  0  0  0
    5.8904   -6.7457   27.8572 C   0  0  0  0  0  0  0  0  0  0  0  0
    6.8680   -6.5282   28.3094 H   0  0  0  0  0  0  0  0  0  0  0  0
    5.2063   -7.1139   28.6220 H   0  0  0  0  0  0  0  0  0  0  0  0
    6.0142   -7.5081   27.0775 H   0  0  0  0  0  0  0  0  0  0  0  0
    5.1407   -3.6833   25.9181 C   0  0  0  0  0  0  0  0  0  0  0  0
    3.9484   -3.4279   26.5143 O   0  0  0  0  0  0  0  0  0  0  0  0
    3.1711   -2.3110   26.1422 C   0  0  0  0  0  0  0  0  0  0  0  0
    2.2886   -2.3714   26.7802 H   0  0  0  0  0  0  0  0  0  0  0  0
    2.8700   -2.3549   25.0871 H   0  0  0  0  0  0  0  0  0  0  0  0
    3.6965   -1.3651   26.3283 H   0  0  0  0  0  0  0  0  0  0  0  0
    5.7015   -2.8921   24.9128 C   0  0  0  0  0  0  0  0  0  0  0  0
    5.1686   -2.0037   24.5972 H   0  0  0  0  0  0  0  0  0  0  0  0
    8.8764   -2.1367   23.1350 C   0  0  0  0  0  0  0  0  0  0  0  0
    9.5608   -2.5626   23.8601 H   0  0  0  0  0  0  0  0  0  0  0  0
    9.5531   -1.3214   22.1187 C   0  0  0  0  0  0  0  0  0  0  0  0
   10.7683   -1.1958   22.1307 O   0  0  0  0  0  0  0  0  0  0  0  0
    8.7400   -0.6685   21.0902 C   0  0  0  0  0  0  0  0  0  0  0  0
    9.3106   -0.0633   20.3954 H   0  0  0  0  0  0  0  0  0  0  0  0
    5.4383    0.6508   20.1629 C   0  0  0  0  0  0  0  0  0  0  0  0
    5.0048    0.6495   21.1632 H   0  0  0  0  0  0  0  0  0  0  0  0
    4.8095    1.3097   19.1048 C   0  0  0  0  0  0  0  0  0  0  0  0
    3.8762    1.8448   19.2451 H   0  0  0  0  0  0  0  0  0  0  0  0
  1  2  1  0
  2  3  2  0
  3  4  1  0
  4  5  1  0
  4  6  2  0
  6  7  1  0
  7  8  1  0
  8  9  1  0
  9 10  1  0
 10 11  2  0
 11 12  1  0
 11 13  1  0
 13 14  1  0
 13 15  2  0
 15 16  1  0
 16 17  1  0
 17 18  1  0
 17 19  1  0
 17 20  1  0
 15 21  1  0
 21 22  1  0
 22 23  1  0
 23 24  1  0
 23 25  1  0
 23 26  1  0
 21 27  2  0
 27 28  1  0
  9 29  2  0
 29 30  1  0
 29 31  1  0
 31 32  2  0
 31 33  1  0
 33 34  1  0
  6 35  1  0
 35 36  1  0
 35 37  2  0
 37 38  1  0
 37  2  1  0
 33  7  2  0
 27 10  1  0
M  END
>  <cnnaffinity>  (1) 
-5.49635

>  <filename>  (1) 
COc1ccc(-c2cc(=O)cc(-c3cccnc3)s2)cc1OC

$$$$
