
     RDKit          3D

 35 37  0  0  0  0  0  0  0  0999 V2000
    4.9808    1.7296   17.0387 H   0  0  0  0  0  0  0  0  0  0  0  0
    5.4536    1.2166   17.8716 C   0  0  0  0  0  0  0  0  0  0  0  0
    6.6056    0.5778   17.6041 N   0  0  0  0  0  0  0  0  0  0  0  0
    7.2360   -0.0160   18.6288 C   0  0  0  0  0  0  0  0  0  0  0  0
    8.1632   -0.5376   18.3901 H   0  0  0  0  0  0  0  0  0  0  0  0
    6.7682   -0.0035   19.9769 C   0  0  0  0  0  0  0  0  0  0  0  0
    7.4814   -0.5245   21.0185 N   0  0  0  0  0  0  0  0  0  0  0  0
    7.0519   -0.8526   22.3633 C   0  0  0  0  0  0  0  0  0  0  0  0
    6.9439    0.0302   23.0102 H   0  0  0  0  0  0  0  0  0  0  0  0
    6.1303   -1.4529   22.4051 H   0  0  0  0  0  0  0  0  0  0  0  0
    8.3847   -1.6424   22.5224 C   0  0  0  0  0  0  0  0  0  0  0  0
    9.0779   -1.1136   23.1809 H   0  0  0  0  0  0  0  0  0  0  0  0
    8.3633   -3.0885   22.9870 C   0  0  0  0  0  0  0  0  0  0  0  0
    9.0496   -3.4074   23.9390 O   0  0  0  0  0  0  0  0  0  0  0  0
    7.4879   -4.1426   22.2629 C   0  0  0  0  0  0  0  0  0  0  0  0
    6.8702   -3.8019   21.1109 N   0  0  0  0  0  0  0  0  0  0  0  0
    6.1304   -4.7083   20.4882 C   0  0  0  0  0  0  0  0  0  0  0  0
    5.5251   -4.3986   19.3238 O   0  0  0  0  0  0  0  0  0  0  0  0
    5.4804   -3.0392   18.9191 C   0  0  0  0  0  0  0  0  0  0  0  0
    6.3731   -2.7375   18.3617 H   0  0  0  0  0  0  0  0  0  0  0  0
    4.6134   -2.9435   18.2700 H   0  0  0  0  0  0  0  0  0  0  0  0
    5.3441   -2.3858   19.7735 H   0  0  0  0  0  0  0  0  0  0  0  0
    5.9000   -6.0027   20.9788 C   0  0  0  0  0  0  0  0  0  0  0  0
    5.2349   -6.6476   20.4153 H   0  0  0  0  0  0  0  0  0  0  0  0
    6.5212   -6.3625   22.1639 C   0  0  0  0  0  0  0  0  0  0  0  0
    6.3674   -7.3526   22.5984 H   0  0  0  0  0  0  0  0  0  0  0  0
    7.3522   -5.4282   22.8086 C   0  0  0  0  0  0  0  0  0  0  0  0
    7.8848   -5.6834   23.7151 H   0  0  0  0  0  0  0  0  0  0  0  0
    8.6775   -1.3369   21.0265 C   0  0  0  0  0  0  0  0  0  0  0  0
    8.6003   -2.2020   20.3634 H   0  0  0  0  0  0  0  0  0  0  0  0
    9.6001   -0.7786   20.8146 H   0  0  0  0  0  0  0  0  0  0  0  0
    5.5254    0.6150   20.2108 C   0  0  0  0  0  0  0  0  0  0  0  0
    5.1143    0.6062   21.2204 H   0  0  0  0  0  0  0  0  0  0  0  0
    4.8739    1.2391   19.1465 C   0  0  0  0  0  0  0  0  0  0  0  0
    3.9379    1.7639   19.3057 H   0  0  0  0  0  0  0  0  0  0  0  0
  1  2  1  0
  2  3  2  0
  3  4  1  0
  4  5  1  0
  4  6  2  0
  6  7  1  0
  7  8  1  0
  8  9  1  0
  8 10  1  0
  8 11  1  0
 11 12  1  0
 11 13  1  0
 13 14  2  0
 13 15  1  0
 15 16  2  0
 16 17  1  0
 17 18  1  0
 18 19  1  0
 19 20  1  0
 19 21  1  0
 19 22  1  0
 17 23  2  0
 23 24  1  0
 23 25  1  0
 25 26  1  0
 25 27  2  0
 27 28  1  0
 11 29  1  0
 29 30  1  0
 29 31  1  0
  6 32  1  0
 32 33  1  0
 32 34  2  0
 34 35  1  0
 34  2  1  0
 29  7  1  0
 27 15  1  0
M  END
>  <cnnaffinity>  (1) 
-5.30702

>  <filename>  (1) 
COc1cccc(C(=O)C2CN(c3cccnc3)C2)n1

$$$$
