
     RDKit          3D

 38 40  0  0  0  0  0  0  0  0999 V2000
    4.9145    1.7779   16.9992 H   0  0  0  0  0  0  0  0  0  0  0  0
    5.4022    1.2936   17.8430 C   0  0  0  0  0  0  0  0  0  0  0  0
    6.5640    0.6727   17.5818 N   0  0  0  0  0  0  0  0  0  0  0  0
    7.1724    0.0519   18.5989 C   0  0  0  0  0  0  0  0  0  0  0  0
    8.1235   -0.4258   18.3816 H   0  0  0  0  0  0  0  0  0  0  0  0
    6.6437   -0.0124   19.9015 C   0  0  0  0  0  0  0  0  0  0  0  0
    7.3330   -0.7143   20.9475 N   0  0  0  0  0  0  0  0  0  0  0  0
    6.5726   -1.6141   21.6541 N   0  0  0  0  0  0  0  0  0  0  0  0
    7.1366   -2.2938   22.6327 C   0  0  0  0  0  0  0  0  0  0  0  0
    6.2877   -3.2809   23.3855 C   0  0  0  0  0  0  0  0  0  0  0  0
    5.2164   -3.8975   22.7347 C   0  0  0  0  0  0  0  0  0  0  0  0
    5.0150   -3.6443   21.6960 H   0  0  0  0  0  0  0  0  0  0  0  0
    4.4096   -4.8174   23.4149 C   0  0  0  0  0  0  0  0  0  0  0  0
    3.5813   -5.2649   22.8771 H   0  0  0  0  0  0  0  0  0  0  0  0
    4.6436   -5.1533   24.7559 C   0  0  0  0  0  0  0  0  0  0  0  0
    3.8883   -6.0408   25.4629 O   0  0  0  0  0  0  0  0  0  0  0  0
    2.7792   -6.7046   24.8797 C   0  0  0  0  0  0  0  0  0  0  0  0
    1.9924   -6.0092   24.5606 H   0  0  0  0  0  0  0  0  0  0  0  0
    2.3672   -7.3451   25.6613 H   0  0  0  0  0  0  0  0  0  0  0  0
    3.0674   -7.3421   24.0342 H   0  0  0  0  0  0  0  0  0  0  0  0
    5.7480   -4.5292   25.4425 C   0  0  0  0  0  0  0  0  0  0  0  0
    5.9426   -4.8814   26.7477 O   0  0  0  0  0  0  0  0  0  0  0  0
    6.9992   -4.3346   27.5174 C   0  0  0  0  0  0  0  0  0  0  0  0
    6.9184   -4.7873   28.5080 H   0  0  0  0  0  0  0  0  0  0  0  0
    6.9111   -3.2475   27.6280 H   0  0  0  0  0  0  0  0  0  0  0  0
    7.9887   -4.5805   27.1127 H   0  0  0  0  0  0  0  0  0  0  0  0
    6.5427   -3.6118   24.7418 C   0  0  0  0  0  0  0  0  0  0  0  0
    7.3623   -3.1248   25.2677 H   0  0  0  0  0  0  0  0  0  0  0  0
    8.5340   -2.1145   22.9602 C   0  0  0  0  0  0  0  0  0  0  0  0
    8.9862   -2.7188   23.7459 H   0  0  0  0  0  0  0  0  0  0  0  0
    9.2823   -1.2105   22.2746 C   0  0  0  0  0  0  0  0  0  0  0  0
   10.3294   -1.0091   22.4711 H   0  0  0  0  0  0  0  0  0  0  0  0
    8.7205   -0.4003   21.2030 C   0  0  0  0  0  0  0  0  0  0  0  0
    9.3320    0.4405   20.5646 O   0  0  0  0  0  0  0  0  0  0  0  0
    5.4365    0.6418   20.1661 C   0  0  0  0  0  0  0  0  0  0  0  0
    5.0184    0.6066   21.1730 H   0  0  0  0  0  0  0  0  0  0  0  0
    4.8089    1.3155   19.1124 C   0  0  0  0  0  0  0  0  0  0  0  0
    3.8733    1.8462   19.2641 H   0  0  0  0  0  0  0  0  0  0  0  0
  1  2  1  0
  2  3  2  0
  3  4  1  0
  4  5  1  0
  4  6  2  0
  6  7  1  0
  7  8  1  0
  8  9  2  0
  9 10  1  0
 10 11  2  0
 11 12  1  0
 11 13  1  0
 13 14  1  0
 13 15  2  0
 15 16  1  0
 16 17  1  0
 17 18  1  0
 17 19  1  0
 17 20  1  0
 15 21  1  0
 21 22  1  0
 22 23  1  0
 23 24  1  0
 23 25  1  0
 23 26  1  0
 21 27  2  0
 27 28  1  0
  9 29  1  0
 29 30  1  0
 29 31  2  0
 31 32  1  0
 31 33  1  0
 33 34  2  0
  6 35  1  0
 35 36  1  0
 35 37  2  0
 37 38  1  0
 37  2  1  0
 33  7  1  0
 27 10  1  0
M  END
>  <cnnaffinity>  (1) 
-5.46519

>  <filename>  (1) 
COc1ccc(-c2ccc(=O)n(-c3cccnc3)n2)cc1OC

$$$$
