
     RDKit          3D

 35 37  0  0  0  0  0  0  0  0999 V2000
    4.9313    1.8068   16.9926 H   0  0  0  0  0  0  0  0  0  0  0  0
    5.4102    1.3126   17.8350 C   0  0  0  0  0  0  0  0  0  0  0  0
    6.5831    0.7060   17.5835 N   0  0  0  0  0  0  0  0  0  0  0  0
    7.1890    0.0670   18.5932 C   0  0  0  0  0  0  0  0  0  0  0  0
    8.1427   -0.4124   18.3732 H   0  0  0  0  0  0  0  0  0  0  0  0
    6.6567    0.0004   19.8998 C   0  0  0  0  0  0  0  0  0  0  0  0
    7.3247   -0.6771   20.9716 N   0  0  0  0  0  0  0  0  0  0  0  0
    7.9855   -0.1031   22.0824 C   0  0  0  0  0  0  0  0  0  0  0  0
    7.8747    1.3353   22.5120 C   0  0  0  0  0  0  0  0  0  0  0  0
    8.8564    1.8181   22.4337 H   0  0  0  0  0  0  0  0  0  0  0  0
    7.2090    1.8809   21.8383 H   0  0  0  0  0  0  0  0  0  0  0  0
    7.3708    1.4354   23.9521 C   0  0  0  0  0  0  0  0  0  0  0  0
    6.0068    1.4918   24.2498 C   0  0  0  0  0  0  0  0  0  0  0  0
    5.2843    1.4749   23.4363 H   0  0  0  0  0  0  0  0  0  0  0  0
    5.5481    1.5706   25.5720 C   0  0  0  0  0  0  0  0  0  0  0  0
    4.4831    1.6018   25.7795 H   0  0  0  0  0  0  0  0  0  0  0  0
    6.4650    1.5874   26.6219 C   0  0  0  0  0  0  0  0  0  0  0  0
    6.1223    1.6486   27.6540 H   0  0  0  0  0  0  0  0  0  0  0  0
    7.8345    1.4853   26.3553 C   0  0  0  0  0  0  0  0  0  0  0  0
    8.5466    1.4759   27.1730 H   0  0  0  0  0  0  0  0  0  0  0  0
    8.2795    1.3595   25.0288 C   0  0  0  0  0  0  0  0  0  0  0  0
    9.5817    1.1498   24.6722 O   0  0  0  0  0  0  0  0  0  0  0  0
   10.5718    1.1496   25.6740 C   0  0  0  0  0  0  0  0  0  0  0  0
   11.5333    1.1621   25.1614 H   0  0  0  0  0  0  0  0  0  0  0  0
   10.4844    2.0425   26.2914 H   0  0  0  0  0  0  0  0  0  0  0  0
   10.5000    0.2655   26.3206 H   0  0  0  0  0  0  0  0  0  0  0  0
    8.4971   -1.1355   22.7663 C   0  0  0  0  0  0  0  0  0  0  0  0
    9.0931   -1.1735   23.6675 H   0  0  0  0  0  0  0  0  0  0  0  0
    8.1120   -2.3257   22.1998 O   0  0  0  0  0  0  0  0  0  0  0  0
    7.2943   -2.0621   21.1280 C   0  0  0  0  0  0  0  0  0  0  0  0
    6.6918   -2.8845   20.4931 O   0  0  0  0  0  0  0  0  0  0  0  0
    5.4375    0.6365   20.1410 C   0  0  0  0  0  0  0  0  0  0  0  0
    5.0185    0.6070   21.1458 H   0  0  0  0  0  0  0  0  0  0  0  0
    4.8006    1.3075   19.0926 C   0  0  0  0  0  0  0  0  0  0  0  0
    3.8576    1.8199   19.2430 H   0  0  0  0  0  0  0  0  0  0  0  0
  1  2  1  0
  2  3  2  0
  3  4  1  0
  4  5  1  0
  4  6  2  0
  6  7  1  0
  7  8  1  0
  8  9  1  0
  9 10  1  0
  9 11  1  0
  9 12  1  0
 12 13  2  0
 13 14  1  0
 13 15  1  0
 15 16  1  0
 15 17  2  0
 17 18  1  0
 17 19  1  0
 19 20  1  0
 19 21  2  0
 21 22  1  0
 22 23  1  0
 23 24  1  0
 23 25  1  0
 23 26  1  0
  8 27  2  0
 27 28  1  0
 27 29  1  0
 29 30  1  0
 30 31  2  0
  6 32  1  0
 32 33  1  0
 32 34  2  0
 34 35  1  0
 34  2  1  0
 30  7  1  0
 21 12  1  0
M  END
>  <cnnaffinity>  (1) 
-4.88458

>  <filename>  (1) 
COc1ccccc1Cc1coc(=O)n1-c1cccnc1

$$$$
