
     RDKit          3D

 36 38  0  0  0  0  0  0  0  0999 V2000
    5.1244    1.8142   16.6252 H   0  0  0  0  0  0  0  0  0  0  0  0
    5.4787    1.3348   17.5346 C   0  0  0  0  0  0  0  0  0  0  0  0
    6.6466    0.6772   17.4385 N   0  0  0  0  0  0  0  0  0  0  0  0
    7.1108    0.0866   18.5453 C   0  0  0  0  0  0  0  0  0  0  0  0
    8.0609   -0.4347   18.4295 H   0  0  0  0  0  0  0  0  0  0  0  0
    6.4572    0.1232   19.7941 C   0  0  0  0  0  0  0  0  0  0  0  0
    7.0259   -0.4616   21.0051 C   0  0  0  0  0  0  0  0  0  0  0  0
    6.8572   -0.1429   22.3123 C   0  0  0  0  0  0  0  0  0  0  0  0
    6.2449    0.5959   22.8091 H   0  0  0  0  0  0  0  0  0  0  0  0
    7.6598   -0.9953   23.0607 N   0  0  0  0  0  0  0  0  0  0  0  0
    8.0098   -0.8104   24.4721 C   0  0  0  0  0  0  0  0  0  0  0  0
    7.1499   -0.3455   24.9596 H   0  0  0  0  0  0  0  0  0  0  0  0
    8.1456   -1.8057   24.9091 H   0  0  0  0  0  0  0  0  0  0  0  0
    9.2582    0.0439   24.6639 C   0  0  0  0  0  0  0  0  0  0  0  0
   10.5017   -0.5533   24.8838 C   0  0  0  0  0  0  0  0  0  0  0  0
   10.5598   -1.6312   25.0016 H   0  0  0  0  0  0  0  0  0  0  0  0
   11.6876    0.1879   24.9218 C   0  0  0  0  0  0  0  0  0  0  0  0
   12.6386   -0.3087   25.0962 H   0  0  0  0  0  0  0  0  0  0  0  0
   11.6303    1.5630   24.7126 C   0  0  0  0  0  0  0  0  0  0  0  0
   12.5424    2.1509   24.7106 H   0  0  0  0  0  0  0  0  0  0  0  0
   10.4057    2.2005   24.4946 C   0  0  0  0  0  0  0  0  0  0  0  0
   10.3429    3.2644   24.2843 H   0  0  0  0  0  0  0  0  0  0  0  0
    9.2189    1.4522   24.5139 C   0  0  0  0  0  0  0  0  0  0  0  0
    7.9791    2.0044   24.3767 O   0  0  0  0  0  0  0  0  0  0  0  0
    7.8407    3.4098   24.2845 C   0  0  0  0  0  0  0  0  0  0  0  0
    8.3361    3.8128   23.3892 H   0  0  0  0  0  0  0  0  0  0  0  0
    6.7673    3.5854   24.2250 H   0  0  0  0  0  0  0  0  0  0  0  0
    8.2380    3.9114   25.1777 H   0  0  0  0  0  0  0  0  0  0  0  0
    8.2763   -1.8930   22.2371 C   0  0  0  0  0  0  0  0  0  0  0  0
    9.1856   -3.2281   22.6210 S   0  0  0  0  0  0  0  0  0  0  0  0
    7.9237   -1.5151   20.9829 N   0  0  0  0  0  0  0  0  0  0  0  0
    8.3208   -2.0086   20.2016 H   0  0  0  0  0  0  0  0  0  0  0  0
    5.2243    0.7887   19.8610 C   0  0  0  0  0  0  0  0  0  0  0  0
    4.6690    0.7983   20.7996 H   0  0  0  0  0  0  0  0  0  0  0  0
    4.7310    1.4043   18.7142 C   0  0  0  0  0  0  0  0  0  0  0  0
    3.7912    1.9400   18.7233 H   0  0  0  0  0  0  0  0  0  0  0  0
  1  2  1  0
  2  3  2  0
  3  4  1  0
  4  5  1  0
  4  6  2  0
  6  7  1  0
  7  8  2  0
  8  9  1  0
  8 10  1  0
 10 11  1  0
 11 12  1  0
 11 13  1  0
 11 14  1  0
 14 15  2  0
 15 16  1  0
 15 17  1  0
 17 18  1  0
 17 19  2  0
 19 20  1  0
 19 21  1  0
 21 22  1  0
 21 23  2  0
 23 24  1  0
 24 25  1  0
 25 26  1  0
 25 27  1  0
 25 28  1  0
 10 29  1  0
 29 30  2  0
 29 31  1  0
 31 32  1  0
  6 33  1  0
 33 34  1  0
 33 35  2  0
 35 36  1  0
 35  2  1  0
 31  7  1  0
 23 14  1  0
M  END
>  <cnnaffinity>  (1) 
-5.45288

>  <filename>  (1) 
COc1ccccc1Cn1cc(-c2cccnc2)[nH]c1=S

$$$$
