
     RDKit          3D

 41 44  0  0  0  0  0  0  0  0999 V2000
    5.0350    1.8164   16.7774 H   0  0  0  0  0  0  0  0  0  0  0  0
    5.4472    1.2645   17.6185 C   0  0  0  0  0  0  0  0  0  0  0  0
    6.5840    0.5907   17.3848 N   0  0  0  0  0  0  0  0  0  0  0  0
    7.1496   -0.0432   18.4162 C   0  0  0  0  0  0  0  0  0  0  0  0
    8.0644   -0.5899   18.1956 H   0  0  0  0  0  0  0  0  0  0  0  0
    6.6377   -0.0191   19.7272 C   0  0  0  0  0  0  0  0  0  0  0  0
    7.4371   -0.5445   20.8507 C   0  0  0  0  0  0  0  0  0  0  0  0
    8.6275   -1.1327   20.6385 N   0  0  0  0  0  0  0  0  0  0  0  0
    9.0397   -1.4322   21.8849 N   0  0  0  0  0  0  0  0  0  0  0  0
   10.1173   -2.1225   22.4209 C   0  0  0  0  0  0  0  0  0  0  0  0
   10.8646   -2.5415   21.7697 H   0  0  0  0  0  0  0  0  0  0  0  0
    9.9104   -2.1295   23.7633 C   0  0  0  0  0  0  0  0  0  0  0  0
   10.4740   -2.5680   24.5699 H   0  0  0  0  0  0  0  0  0  0  0  0
    8.7385   -1.4483   24.0426 N   0  0  0  0  0  0  0  0  0  0  0  0
    8.0920   -1.3860   25.2706 N   0  0  0  0  0  0  0  0  0  0  0  0
    7.1949   -0.9352   25.0997 H   0  0  0  0  0  0  0  0  0  0  0  0
    8.8453   -0.6422   26.3004 C   0  0  0  0  0  0  0  0  0  0  0  0
    9.5603    0.0582   25.8417 H   0  0  0  0  0  0  0  0  0  0  0  0
    9.4519   -1.3788   26.8513 H   0  0  0  0  0  0  0  0  0  0  0  0
    7.9344    0.1143   27.2468 C   0  0  0  0  0  0  0  0  0  0  0  0
    8.1364    1.4797   27.4844 C   0  0  0  0  0  0  0  0  0  0  0  0
    8.9021    2.0068   26.9168 H   0  0  0  0  0  0  0  0  0  0  0  0
    7.4326    2.1646   28.4793 C   0  0  0  0  0  0  0  0  0  0  0  0
    7.6126    3.2219   28.6413 H   0  0  0  0  0  0  0  0  0  0  0  0
    6.4829    1.4881   29.2519 C   0  0  0  0  0  0  0  0  0  0  0  0
    5.7912    2.0552   30.2816 O   0  0  0  0  0  0  0  0  0  0  0  0
    6.2002    3.3078   30.8108 C   0  0  0  0  0  0  0  0  0  0  0  0
    7.2860    3.3475   30.9749 H   0  0  0  0  0  0  0  0  0  0  0  0
    5.6926    3.4118   31.7742 H   0  0  0  0  0  0  0  0  0  0  0  0
    5.9108    4.1400   30.1524 H   0  0  0  0  0  0  0  0  0  0  0  0
    6.2115    0.1306   28.9773 C   0  0  0  0  0  0  0  0  0  0  0  0
    5.4597   -0.3799   29.5723 H   0  0  0  0  0  0  0  0  0  0  0  0
    6.9231   -0.5368   27.9801 C   0  0  0  0  0  0  0  0  0  0  0  0
    6.7246   -1.5947   27.7972 H   0  0  0  0  0  0  0  0  0  0  0  0
    8.1822   -1.0471   22.8543 C   0  0  0  0  0  0  0  0  0  0  0  0
    7.0991   -0.4585   22.2220 C   0  0  0  0  0  0  0  0  0  0  0  0
    6.2158   -0.0455   22.6679 H   0  0  0  0  0  0  0  0  0  0  0  0
    5.3940    0.6089   19.9266 C   0  0  0  0  0  0  0  0  0  0  0  0
    4.8994    0.5946   20.8987 H   0  0  0  0  0  0  0  0  0  0  0  0
    4.8040    1.2781   18.8594 C   0  0  0  0  0  0  0  0  0  0  0  0
    3.8859    1.8428   18.9858 H   0  0  0  0  0  0  0  0  0  0  0  0
  1  2  1  0
  2  3  2  0
  3  4  1  0
  4  5  1  0
  4  6  2  0
  6  7  1  0
  7  8  2  0
  8  9  1  0
  9 10  1  0
 10 11  1  0
 10 12  2  0
 12 13  1  0
 12 14  1  0
 14 15  1  0
 15 16  1  0
 15 17  1  0
 17 18  1  0
 17 19  1  0
 17 20  1  0
 20 21  2  0
 21 22  1  0
 21 23  1  0
 23 24  1  0
 23 25  2  0
 25 26  1  0
 26 27  1  0
 27 28  1  0
 27 29  1  0
 27 30  1  0
 25 31  1  0
 31 32  1  0
 31 33  2  0
 33 34  1  0
 14 35  1  0
 35 36  2  0
 36 37  1  0
  6 38  1  0
 38 39  1  0
 38 40  2  0
 40 41  1  0
 40  2  1  0
 36  7  1  0
 35  9  1  0
 33 20  1  0
M  END
>  <cnnaffinity>  (1) 
-5.11951

>  <filename>  (1) 
COc1ccc(CNn2ccn3nc(-c4cccnc4)cc23)cc1

$$$$
