
     RDKit          3D

 39 42  0  0  0  0  0  0  0  0999 V2000
    4.9848    1.8331   16.9292 H   0  0  0  0  0  0  0  0  0  0  0  0
    5.4233    1.2912   17.7642 C   0  0  0  0  0  0  0  0  0  0  0  0
    6.5724    0.6437   17.5145 N   0  0  0  0  0  0  0  0  0  0  0  0
    7.1533    0.0064   18.5359 C   0  0  0  0  0  0  0  0  0  0  0  0
    8.0897   -0.5053   18.3155 H   0  0  0  0  0  0  0  0  0  0  0  0
    6.6274   -0.0205   19.8431 C   0  0  0  0  0  0  0  0  0  0  0  0
    7.3725   -0.6539   20.9448 C   0  0  0  0  0  0  0  0  0  0  0  0
    8.5368   -1.2814   20.7109 N   0  0  0  0  0  0  0  0  0  0  0  0
    8.9371   -1.6417   21.9510 N   0  0  0  0  0  0  0  0  0  0  0  0
   10.0838   -2.1980   22.5079 C   0  0  0  0  0  0  0  0  0  0  0  0
   10.8821   -2.5457   21.8776 H   0  0  0  0  0  0  0  0  0  0  0  0
    9.8994   -2.1561   23.8562 C   0  0  0  0  0  0  0  0  0  0  0  0
   10.5710   -2.4586   24.6495 H   0  0  0  0  0  0  0  0  0  0  0  0
    8.6489   -1.6031   24.1386 N   0  0  0  0  0  0  0  0  0  0  0  0
    8.1901   -0.9775   25.3815 C   0  0  0  0  0  0  0  0  0  0  0  0
    8.6968   -1.4663   26.2243 H   0  0  0  0  0  0  0  0  0  0  0  0
    7.1151   -1.1671   25.4735 H   0  0  0  0  0  0  0  0  0  0  0  0
    8.4926    0.5171   25.3718 C   0  0  0  0  0  0  0  0  0  0  0  0
    9.8340    0.9159   25.3358 C   0  0  0  0  0  0  0  0  0  0  0  0
   10.6069    0.1493   25.3848 H   0  0  0  0  0  0  0  0  0  0  0  0
   10.2046    2.2464   25.1624 C   0  0  0  0  0  0  0  0  0  0  0  0
   11.2577    2.4923   25.0473 H   0  0  0  0  0  0  0  0  0  0  0  0
    9.2143    3.2213   25.0934 C   0  0  0  0  0  0  0  0  0  0  0  0
    9.4933    4.2668   24.9988 H   0  0  0  0  0  0  0  0  0  0  0  0
    7.8667    2.8625   25.1460 C   0  0  0  0  0  0  0  0  0  0  0  0
    7.1035    3.6297   25.1132 H   0  0  0  0  0  0  0  0  0  0  0  0
    7.4922    1.5077   25.2138 C   0  0  0  0  0  0  0  0  0  0  0  0
    6.1869    1.0939   25.1128 O   0  0  0  0  0  0  0  0  0  0  0  0
    5.1719    2.0650   24.8982 C   0  0  0  0  0  0  0  0  0  0  0  0
    5.3608    2.6354   23.9772 H   0  0  0  0  0  0  0  0  0  0  0  0
    4.2236    1.5290   24.8039 H   0  0  0  0  0  0  0  0  0  0  0  0
    5.1045    2.7587   25.7481 H   0  0  0  0  0  0  0  0  0  0  0  0
    8.0855   -1.2695   22.9236 C   0  0  0  0  0  0  0  0  0  0  0  0
    7.0254   -0.6200   22.3170 C   0  0  0  0  0  0  0  0  0  0  0  0
    6.1715   -0.1645   22.7840 H   0  0  0  0  0  0  0  0  0  0  0  0
    5.4040    0.6273   20.0751 C   0  0  0  0  0  0  0  0  0  0  0  0
    4.9469    0.6295   21.0692 H   0  0  0  0  0  0  0  0  0  0  0  0
    4.7994    1.2967   19.0168 C   0  0  0  0  0  0  0  0  0  0  0  0
    3.8790    1.8500   19.1575 H   0  0  0  0  0  0  0  0  0  0  0  0
  1  2  1  0
  2  3  2  0
  3  4  1  0
  4  5  1  0
  4  6  2  0
  6  7  1  0
  7  8  2  0
  8  9  1  0
  9 10  1  0
 10 11  1  0
 10 12  2  0
 12 13  1  0
 12 14  1  0
 14 15  1  0
 15 16  1  0
 15 17  1  0
 15 18  1  0
 18 19  2  0
 19 20  1  0
 19 21  1  0
 21 22  1  0
 21 23  2  0
 23 24  1  0
 23 25  1  0
 25 26  1  0
 25 27  2  0
 27 28  1  0
 28 29  1  0
 29 30  1  0
 29 31  1  0
 29 32  1  0
 14 33  1  0
 33 34  2  0
 34 35  1  0
  6 36  1  0
 36 37  1  0
 36 38  2  0
 38 39  1  0
 38  2  1  0
 34  7  1  0
 33  9  1  0
 27 18  1  0
M  END
>  <cnnaffinity>  (1) 
-5.66301

>  <filename>  (1) 
COc1ccccc1Cn1ccn2nc(-c3cccnc3)cc12

$$$$
