
     RDKit          3D

 32 34  0  0  0  0  0  0  0  0999 V2000
    4.9528    1.7902   17.0093 H   0  0  0  0  0  0  0  0  0  0  0  0
    5.4174    1.2837   17.8534 C   0  0  0  0  0  0  0  0  0  0  0  0
    6.5822    0.6613   17.6093 N   0  0  0  0  0  0  0  0  0  0  0  0
    7.1801    0.0410   18.6371 C   0  0  0  0  0  0  0  0  0  0  0  0
    8.1380   -0.4455   18.4606 H   0  0  0  0  0  0  0  0  0  0  0  0
    6.6455   -0.0024   19.9367 C   0  0  0  0  0  0  0  0  0  0  0  0
    7.3634   -0.7273   20.8585 O   0  0  0  0  0  0  0  0  0  0  0  0
    7.2675   -0.4397   22.1912 C   0  0  0  0  0  0  0  0  0  0  0  0
    7.0959   -1.4103   23.2007 C   0  0  0  0  0  0  0  0  0  0  0  0
    7.0090   -2.4827   23.0816 H   0  0  0  0  0  0  0  0  0  0  0  0
    7.0623   -0.8380   24.4021 N   0  0  0  0  0  0  0  0  0  0  0  0
    7.2228    0.4642   24.1559 N   0  0  0  0  0  0  0  0  0  0  0  0
    7.2953    1.0991   24.9395 H   0  0  0  0  0  0  0  0  0  0  0  0
    7.3739    0.7771   22.8395 C   0  0  0  0  0  0  0  0  0  0  0  0
    7.7369    2.1667   22.3809 C   0  0  0  0  0  0  0  0  0  0  0  0
    7.2479    2.9183   23.0104 H   0  0  0  0  0  0  0  0  0  0  0  0
    7.3899    2.3295   21.3528 H   0  0  0  0  0  0  0  0  0  0  0  0
    9.1720    2.4226   22.4015 N   0  0  0  0  0  0  0  0  0  0  0  0
    9.8623    3.0423   23.4491 N   0  0  0  0  0  0  0  0  0  0  0  0
   11.0836    2.7930   23.1450 C   0  0  0  0  0  0  0  0  0  0  0  0
   12.1426    3.1562   23.8484 O   0  0  0  0  0  0  0  0  0  0  0  0
   13.4365    3.0331   23.2349 C   0  0  0  0  0  0  0  0  0  0  0  0
   13.7439    1.9866   23.1309 H   0  0  0  0  0  0  0  0  0  0  0  0
   13.4545    3.4905   22.2409 H   0  0  0  0  0  0  0  0  0  0  0  0
   14.1056    3.5612   23.9079 H   0  0  0  0  0  0  0  0  0  0  0  0
   11.2815    2.0594   22.0274 O   0  0  0  0  0  0  0  0  0  0  0  0
   10.0204    1.7681   21.5613 C   0  0  0  0  0  0  0  0  0  0  0  0
    9.7848    1.0880   20.6040 O   0  0  0  0  0  0  0  0  0  0  0  0
    5.4262    0.6389   20.1830 C   0  0  0  0  0  0  0  0  0  0  0  0
    4.9950    0.6359   21.1852 H   0  0  0  0  0  0  0  0  0  0  0  0
    4.8050    1.2987   19.1112 C   0  0  0  0  0  0  0  0  0  0  0  0
    3.8681    1.8322   19.2448 H   0  0  0  0  0  0  0  0  0  0  0  0
  1  2  1  0
  2  3  2  0
  3  4  1  0
  4  5  1  0
  4  6  2  0
  6  7  1  0
  7  8  1  0
  8  9  1  0
  9 10  1  0
  9 11  2  0
 11 12  1  0
 12 13  1  0
 12 14  1  0
 14 15  1  0
 15 16  1  0
 15 17  1  0
 15 18  1  0
 18 19  1  0
 19 20  2  0
 20 21  1  0
 21 22  1  0
 22 23  1  0
 22 24  1  0
 22 25  1  0
 20 26  1  0
 26 27  1  0
 27 28  2  0
  6 29  1  0
 29 30  1  0
 29 31  2  0
 31 32  1  0
 31  2  1  0
 14  8  2  0
 27 18  1  0
M  END
>  <cnnaffinity>  (1) 
-5.23141

>  <filename>  (1) 
COc1nn(Cc2[nH]ncc2Oc2cccnc2)c(=O)o1

$$$$
