
     RDKit          3D

 34 36  0  0  0  0  0  0  0  0999 V2000
    4.9376    1.8556   16.9456 H   0  0  0  0  0  0  0  0  0  0  0  0
    5.4140    1.3393   17.7785 C   0  0  0  0  0  0  0  0  0  0  0  0
    6.5852    0.7391   17.5142 N   0  0  0  0  0  0  0  0  0  0  0  0
    7.1878    0.1089   18.5319 C   0  0  0  0  0  0  0  0  0  0  0  0
    8.1367   -0.3673   18.2872 H   0  0  0  0  0  0  0  0  0  0  0  0
    6.6647    0.0001   19.8448 C   0  0  0  0  0  0  0  0  0  0  0  0
    7.4017   -0.7162   20.9301 C   0  0  0  0  0  0  0  0  0  0  0  0
    8.7192   -0.4226   21.2098 C   0  0  0  0  0  0  0  0  0  0  0  0
    9.2299    0.3425   20.6234 H   0  0  0  0  0  0  0  0  0  0  0  0
    9.4381   -1.0310   22.2838 C   0  0  0  0  0  0  0  0  0  0  0  0
   10.8870   -0.6478   22.5310 C   0  0  0  0  0  0  0  0  0  0  0  0
   11.3815   -0.4410   21.5744 H   0  0  0  0  0  0  0  0  0  0  0  0
   11.4495   -1.4525   23.0176 H   0  0  0  0  0  0  0  0  0  0  0  0
   11.0493    0.5599   23.3305 N   0  0  0  0  0  0  0  0  0  0  0  0
   11.1129    1.8173   22.7371 N   0  0  0  0  0  0  0  0  0  0  0  0
   10.9836    2.6081   23.7382 C   0  0  0  0  0  0  0  0  0  0  0  0
   10.9430    3.9210   23.6073 O   0  0  0  0  0  0  0  0  0  0  0  0
   10.9447    4.8598   24.6849 C   0  0  0  0  0  0  0  0  0  0  0  0
   11.9147    4.8831   25.1913 H   0  0  0  0  0  0  0  0  0  0  0  0
   10.7792    5.8281   24.2026 H   0  0  0  0  0  0  0  0  0  0  0  0
   10.1550    4.6711   25.4210 H   0  0  0  0  0  0  0  0  0  0  0  0
   10.8372    2.0160   24.9444 O   0  0  0  0  0  0  0  0  0  0  0  0
   10.8463    0.6483   24.6735 C   0  0  0  0  0  0  0  0  0  0  0  0
   10.7145   -0.2218   25.4912 O   0  0  0  0  0  0  0  0  0  0  0  0
    8.8039   -1.9352   23.0848 C   0  0  0  0  0  0  0  0  0  0  0  0
    9.2941   -2.4321   23.9269 H   0  0  0  0  0  0  0  0  0  0  0  0
    7.5043   -2.2490   22.8111 N   0  0  0  0  0  0  0  0  0  0  0  0
    6.9883   -2.9596   23.3041 H   0  0  0  0  0  0  0  0  0  0  0  0
    6.7411   -1.7791   21.7291 C   0  0  0  0  0  0  0  0  0  0  0  0
    5.6604   -2.3147   21.5444 O   0  0  0  0  0  0  0  0  0  0  0  0
    5.4274    0.6245   20.0825 C   0  0  0  0  0  0  0  0  0  0  0  0
    4.9824    0.5947   21.0788 H   0  0  0  0  0  0  0  0  0  0  0  0
    4.8058    1.3117   19.0361 C   0  0  0  0  0  0  0  0  0  0  0  0
    3.8739    1.8428   19.1836 H   0  0  0  0  0  0  0  0  0  0  0  0
  1  2  1  0
  2  3  2  0
  3  4  1  0
  4  5  1  0
  4  6  2  0
  6  7  1  0
  7  8  2  0
  8  9  1  0
  8 10  1  0
 10 11  1  0
 11 12  1  0
 11 13  1  0
 11 14  1  0
 14 15  1  0
 15 16  2  0
 16 17  1  0
 17 18  1  0
 18 19  1  0
 18 20  1  0
 18 21  1  0
 16 22  1  0
 22 23  1  0
 23 24  2  0
 10 25  2  0
 25 26  1  0
 25 27  1  0
 27 28  1  0
 27 29  1  0
 29 30  2  0
  6 31  1  0
 31 32  1  0
 31 33  2  0
 33 34  1  0
 33  2  1  0
 29  7  1  0
 23 14  1  0
M  END
>  <cnnaffinity>  (1) 
-5.35771

>  <filename>  (1) 
COc1nn(Cc2c[nH]c(=O)c(-c3cccnc3)c2)c(=O)o1

$$$$
