
     RDKit          3D

 34 35  0  0  0  0  0  0  0  0999 V2000
    5.0026    1.9296   16.8808 H   0  0  0  0  0  0  0  0  0  0  0  0
    5.4165    1.3790   17.7249 C   0  0  0  0  0  0  0  0  0  0  0  0
    6.5714    0.7343   17.5024 N   0  0  0  0  0  0  0  0  0  0  0  0
    7.1143    0.0738   18.5330 C   0  0  0  0  0  0  0  0  0  0  0  0
    8.0558   -0.4338   18.3208 H   0  0  0  0  0  0  0  0  0  0  0  0
    6.5446   -0.0051   19.8139 C   0  0  0  0  0  0  0  0  0  0  0  0
    7.2736   -0.7250   20.9191 C   0  0  0  0  0  0  0  0  0  0  0  0
    7.6922   -1.6743   20.5569 H   0  0  0  0  0  0  0  0  0  0  0  0
    6.5910   -0.9904   21.7409 H   0  0  0  0  0  0  0  0  0  0  0  0
    8.3782    0.1034   21.4066 N   0  0  0  0  0  0  0  0  0  0  0  0
    8.3553    1.0821   21.1777 H   0  0  0  0  0  0  0  0  0  0  0  0
    9.0919   -0.2684   22.5111 C   0  0  0  0  0  0  0  0  0  0  0  0
    8.8644   -1.3263   23.0806 O   0  0  0  0  0  0  0  0  0  0  0  0
   10.2091    0.6511   22.9736 C   0  0  0  0  0  0  0  0  0  0  0  0
   10.8409    0.3079   24.1864 C   0  0  0  0  0  0  0  0  0  0  0  0
   10.4196   -0.5017   24.7799 H   0  0  0  0  0  0  0  0  0  0  0  0
   12.0114    0.9502   24.5923 C   0  0  0  0  0  0  0  0  0  0  0  0
   12.5020    0.6409   25.5084 H   0  0  0  0  0  0  0  0  0  0  0  0
   12.5780    1.9519   23.8072 C   0  0  0  0  0  0  0  0  0  0  0  0
   13.5463    2.3840   24.0693 H   0  0  0  0  0  0  0  0  0  0  0  0
   11.8973    2.3602   22.6557 C   0  0  0  0  0  0  0  0  0  0  0  0
   12.5456    3.7485   21.7420 S   0  0  0  0  0  0  0  0  0  0  0  0
   12.1998    3.5849   20.3356 O   0  0  0  0  0  0  0  0  0  0  0  0
   13.9166    4.0108   22.1699 O   0  0  0  0  0  0  0  0  0  0  0  0
   11.6113    5.0935   22.3920 C   0  0  0  0  0  0  0  0  0  0  0  0
   11.7459    5.8862   21.6648 H   0  0  0  0  0  0  0  0  0  0  0  0
   10.5664    4.7995   22.4752 H   0  0  0  0  0  0  0  0  0  0  0  0
   12.0409    5.3549   23.3553 H   0  0  0  0  0  0  0  0  0  0  0  0
   10.7179    1.7279   22.2264 C   0  0  0  0  0  0  0  0  0  0  0  0
   10.2479    2.0633   21.3002 H   0  0  0  0  0  0  0  0  0  0  0  0
    5.3181    0.6434   20.0129 C   0  0  0  0  0  0  0  0  0  0  0  0
    4.8209    0.5936   20.9841 H   0  0  0  0  0  0  0  0  0  0  0  0
    4.7538    1.3584   18.9538 C   0  0  0  0  0  0  0  0  0  0  0  0
    3.8344    1.9179   19.0740 H   0  0  0  0  0  0  0  0  0  0  0  0
  1  2  1  0
  2  3  2  0
  3  4  1  0
  4  5  1  0
  4  6  2  0
  6  7  1  0
  7  8  1  0
  7  9  1  0
  7 10  1  0
 10 11  1  0
 10 12  1  0
 12 13  2  0
 12 14  1  0
 14 15  2  0
 15 16  1  0
 15 17  1  0
 17 18  1  0
 17 19  2  0
 19 20  1  0
 19 21  1  0
 21 22  1  0
 22 23  2  0
 22 24  2  0
 22 25  1  0
 25 26  1  0
 25 27  1  0
 25 28  1  0
 21 29  2  0
 29 30  1  0
  6 31  1  0
 31 32  1  0
 31 33  2  0
 33 34  1  0
 33  2  1  0
 29 14  1  0
M  END
>  <cnnaffinity>  (1) 
-5.29417

>  <filename>  (1) 
CS(=O)(=O)c1cccc(C(=O)NCc2cccnc2)c1

$$$$
