
     RDKit          3D

 34 36  0  0  0  0  0  0  0  0999 V2000
    4.9316    1.7937   16.9886 H   0  0  0  0  0  0  0  0  0  0  0  0
    5.4017    1.2959   17.8342 C   0  0  0  0  0  0  0  0  0  0  0  0
    6.5658    0.6771   17.5805 N   0  0  0  0  0  0  0  0  0  0  0  0
    7.1622    0.0489   18.5965 C   0  0  0  0  0  0  0  0  0  0  0  0
    8.1085   -0.4380   18.3655 H   0  0  0  0  0  0  0  0  0  0  0  0
    6.6407    0.0162   19.8981 C   0  0  0  0  0  0  0  0  0  0  0  0
    7.3766   -0.7090   20.9301 C   0  0  0  0  0  0  0  0  0  0  0  0
    7.9587   -1.8434   20.6988 N   0  0  0  0  0  0  0  0  0  0  0  0
    8.4395   -2.2198   21.9195 N   0  0  0  0  0  0  0  0  0  0  0  0
    8.9505   -3.0668   22.0958 H   0  0  0  0  0  0  0  0  0  0  0  0
    8.2044   -1.3321   22.9152 C   0  0  0  0  0  0  0  0  0  0  0  0
    8.5553   -1.4284   24.0745 O   0  0  0  0  0  0  0  0  0  0  0  0
    7.4913   -0.3181   22.2566 N   0  0  0  0  0  0  0  0  0  0  0  0
    7.1398    0.9251   22.8694 C   0  0  0  0  0  0  0  0  0  0  0  0
    7.4474    2.1347   22.2370 C   0  0  0  0  0  0  0  0  0  0  0  0
    7.9232    2.1201   21.2605 H   0  0  0  0  0  0  0  0  0  0  0  0
    7.0867    3.3349   22.8508 C   0  0  0  0  0  0  0  0  0  0  0  0
    7.3039    4.2722   22.3514 H   0  0  0  0  0  0  0  0  0  0  0  0
    6.4327    3.3535   24.0841 C   0  0  0  0  0  0  0  0  0  0  0  0
    6.1512    4.3106   24.5237 H   0  0  0  0  0  0  0  0  0  0  0  0
    6.1356    2.1331   24.7161 C   0  0  0  0  0  0  0  0  0  0  0  0
    5.2767    2.1380   26.2965 S   0  0  0  0  0  0  0  0  0  0  0  0
    4.5268    0.8930   26.4165 O   0  0  0  0  0  0  0  0  0  0  0  0
    4.6508    3.4439   26.4745 O   0  0  0  0  0  0  0  0  0  0  0  0
    6.5335    2.0554   27.5239 C   0  0  0  0  0  0  0  0  0  0  0  0
    5.9946    2.0532   28.4712 H   0  0  0  0  0  0  0  0  0  0  0  0
    7.0810    1.1268   27.3878 H   0  0  0  0  0  0  0  0  0  0  0  0
    7.1605    2.9380   27.4342 H   0  0  0  0  0  0  0  0  0  0  0  0
    6.4854    0.9152   24.1053 C   0  0  0  0  0  0  0  0  0  0  0  0
    6.2807   -0.0601   24.5415 H   0  0  0  0  0  0  0  0  0  0  0  0
    5.4182    0.6513   20.1484 C   0  0  0  0  0  0  0  0  0  0  0  0
    5.0009    0.6448   21.1588 H   0  0  0  0  0  0  0  0  0  0  0  0
    4.7944    1.3099   19.0955 C   0  0  0  0  0  0  0  0  0  0  0  0
    3.8664    1.8458   19.2424 H   0  0  0  0  0  0  0  0  0  0  0  0
  1  2  1  0
  2  3  2  0
  3  4  1  0
  4  5  1  0
  4  6  2  0
  6  7  1  0
  7  8  2  0
  8  9  1  0
  9 10  1  0
  9 11  1  0
 11 12  2  0
 11 13  1  0
 13 14  1  0
 14 15  2  0
 15 16  1  0
 15 17  1  0
 17 18  1  0
 17 19  2  0
 19 20  1  0
 19 21  1  0
 21 22  1  0
 22 23  2  0
 22 24  2  0
 22 25  1  0
 25 26  1  0
 25 27  1  0
 25 28  1  0
 21 29  2  0
 29 30  1  0
  6 31  1  0
 31 32  1  0
 31 33  2  0
 33 34  1  0
 33  2  1  0
 13  7  1  0
 29 14  1  0
M  END
>  <cnnaffinity>  (1) 
-5.09334

>  <filename>  (1) 
CS(=O)(=O)c1cccc(-n2c(-c3cccnc3)n[nH]c2=O)c1

$$$$
