
     RDKit          3D

 40 41  0  0  0  0  0  0  0  0999 V2000
    3.9533    4.1577   29.2269 C   0  0  0  0  0  0  0  0  0  0  0  0
    3.9027    2.4289   28.8968 S   0  0  0  0  0  0  0  0  0  0  0  0
    3.6809    1.7943   30.1891 O   0  0  0  0  0  0  0  0  0  0  0  0
    2.9818    2.2730   27.7811 O   0  0  0  0  0  0  0  0  0  0  0  0
    5.5445    1.9913   28.3366 C   0  0  0  0  0  0  0  0  0  0  0  0
    6.4923    1.5192   29.2604 C   0  0  0  0  0  0  0  0  0  0  0  0
    7.7513    1.1379   28.7969 C   0  0  0  0  0  0  0  0  0  0  0  0
    8.0600    1.2105   27.4371 C   0  0  0  0  0  0  0  0  0  0  0  0
    7.1139    1.6805   26.5155 C   0  0  0  0  0  0  0  0  0  0  0  0
    7.4744    1.7990   25.0608 C   0  0  0  0  0  0  0  0  0  0  0  0
    7.1243    0.5431   24.3546 N   0  0  0  0  0  4  0  0  0  0  0  0
    7.4308    0.5760   22.9070 C   0  0  0  0  0  0  0  0  0  0  0  0
    7.0651   -0.7313   22.2174 C   0  0  0  0  0  0  0  0  0  0  0  0
    7.4126   -0.7014   20.8334 O   0  0  0  0  0  0  0  0  0  0  0  0
    6.6659   -0.0009   19.9334 C   0  0  0  0  0  0  0  0  0  0  0  0
    5.4497    0.6444   20.1853 C   0  0  0  0  0  0  0  0  0  0  0  0
    4.8165    1.3015   19.1177 C   0  0  0  0  0  0  0  0  0  0  0  0
    5.4013    1.2885   17.8519 C   0  0  0  0  0  0  0  0  0  0  0  0
    6.5673    0.6695   17.6014 N   0  0  0  0  0  0  0  0  0  0  0  0
    7.1761    0.0512   18.6147 C   0  0  0  0  0  0  0  0  0  0  0  0
    8.1232   -0.4389   18.3975 H   0  0  0  0  0  0  0  0  0  0  0  0
    4.9303    1.7828   17.0034 H   0  0  0  0  0  0  0  0  0  0  0  0
    3.8852    1.8327   19.2583 H   0  0  0  0  0  0  0  0  0  0  0  0
    5.0066    0.6338   21.1815 H   0  0  0  0  0  0  0  0  0  0  0  0
    7.6567   -1.5532   22.6333 H   0  0  0  0  0  0  0  0  0  0  0  0
    6.0066   -0.9734   22.3490 H   0  0  0  0  0  0  0  0  0  0  0  0
    6.9144    1.4110   22.4112 H   0  0  0  0  0  0  0  0  0  0  0  0
    8.5007    0.7567   22.7364 H   0  0  0  0  0  0  0  0  0  0  0  0
    7.6334   -0.2360   24.8526 H   0  0  0  0  0  0  0  0  0  0  0  0
    6.1008    0.3609   24.5371 H   0  0  0  0  0  0  0  0  0  0  0  0
    8.5462    1.9989   24.9413 H   0  0  0  0  0  0  0  0  0  0  0  0
    6.9454    2.6414   24.6025 H   0  0  0  0  0  0  0  0  0  0  0  0
    5.8488    2.0722   26.9699 C   0  0  0  0  0  0  0  0  0  0  0  0
    5.1190    2.4294   26.2441 H   0  0  0  0  0  0  0  0  0  0  0  0
    9.0461    0.9148   27.0820 H   0  0  0  0  0  0  0  0  0  0  0  0
    8.5005    0.7747   29.4950 H   0  0  0  0  0  0  0  0  0  0  0  0
    6.2615    1.4203   30.3212 H   0  0  0  0  0  0  0  0  0  0  0  0
    4.1828    4.6771   28.3014 H   0  0  0  0  0  0  0  0  0  0  0  0
    2.9481    4.4049   29.5699 H   0  0  0  0  0  0  0  0  0  0  0  0
    4.6835    4.3361   30.0099 H   0  0  0  0  0  0  0  0  0  0  0  0
  1  2  1  0
  2  3  2  0
  2  4  2  0
  2  5  1  0
  5  6  2  0
  6  7  1  0
  7  8  2  0
  8  9  1  0
  9 10  1  0
 10 11  1  0
 11 12  1  0
 12 13  1  0
 13 14  1  0
 14 15  1  0
 15 16  2  0
 16 17  1  0
 17 18  2  0
 18 19  1  0
 19 20  2  0
 20 21  1  0
 18 22  1  0
 17 23  1  0
 16 24  1  0
 13 25  1  0
 13 26  1  0
 12 27  1  0
 12 28  1  0
 11 29  1  0
 11 30  1  0
 10 31  1  0
 10 32  1  0
  9 33  2  0
 33 34  1  0
  8 35  1  0
  7 36  1  0
  6 37  1  0
  1 38  1  0
  1 39  1  0
  1 40  1  0
 33  5  1  0
 20 15  1  0
M  CHG  1  11   1
M  END
>  <cnnaffinity>  (1) 
-4.03426

>  <filename>  (1) 
CS(=O)(=O)c1cccc(C[NH2+]CCOc2cccnc2)c1

$$$$
