
     RDKit          3D

 36 38  0  0  0  0  0  0  0  0999 V2000
    4.9292    1.7891   16.9991 H   0  0  0  0  0  0  0  0  0  0  0  0
    5.3993    1.2925   17.8460 C   0  0  0  0  0  0  0  0  0  0  0  0
    6.5548    0.6631   17.5839 N   0  0  0  0  0  0  0  0  0  0  0  0
    7.1636    0.0381   18.5971 C   0  0  0  0  0  0  0  0  0  0  0  0
    8.1226   -0.4238   18.3784 H   0  0  0  0  0  0  0  0  0  0  0  0
    6.6405   -0.0219   19.9005 C   0  0  0  0  0  0  0  0  0  0  0  0
    7.3392   -0.7167   20.9468 N   0  0  0  0  0  0  0  0  0  0  0  0
    6.5847   -1.6078   21.6596 N   0  0  0  0  0  0  0  0  0  0  0  0
    7.1480   -2.2847   22.6394 C   0  0  0  0  0  0  0  0  0  0  0  0
    6.2978   -3.2742   23.3836 C   0  0  0  0  0  0  0  0  0  0  0  0
    5.2077   -3.8812   22.7350 C   0  0  0  0  0  0  0  0  0  0  0  0
    5.0000   -3.6077   21.7048 H   0  0  0  0  0  0  0  0  0  0  0  0
    4.4115   -4.8120   23.4070 C   0  0  0  0  0  0  0  0  0  0  0  0
    3.5653   -5.2652   22.9009 H   0  0  0  0  0  0  0  0  0  0  0  0
    4.6739   -5.1550   24.7332 C   0  0  0  0  0  0  0  0  0  0  0  0
    4.0201   -5.8542   25.2544 H   0  0  0  0  0  0  0  0  0  0  0  0
    5.7629   -4.5578   25.3815 C   0  0  0  0  0  0  0  0  0  0  0  0
    6.0762   -4.9295   27.1054 S   0  0  0  0  0  0  0  0  0  0  0  0
    6.7096   -3.7590   27.6898 O   0  0  0  0  0  0  0  0  0  0  0  0
    4.8822   -5.5477   27.6679 O   0  0  0  0  0  0  0  0  0  0  0  0
    7.3040   -6.1862   27.1049 C   0  0  0  0  0  0  0  0  0  0  0  0
    8.2062   -5.7953   26.6439 H   0  0  0  0  0  0  0  0  0  0  0  0
    6.8772   -7.0276   26.5710 H   0  0  0  0  0  0  0  0  0  0  0  0
    7.4791   -6.4238   28.1551 H   0  0  0  0  0  0  0  0  0  0  0  0
    6.5681   -3.6157   24.7213 C   0  0  0  0  0  0  0  0  0  0  0  0
    7.3797   -3.1162   25.2506 H   0  0  0  0  0  0  0  0  0  0  0  0
    8.5408   -2.1089   22.9632 C   0  0  0  0  0  0  0  0  0  0  0  0
    8.9686   -2.7266   23.7481 H   0  0  0  0  0  0  0  0  0  0  0  0
    9.2903   -1.2074   22.2781 C   0  0  0  0  0  0  0  0  0  0  0  0
   10.3373   -1.0079   22.4713 H   0  0  0  0  0  0  0  0  0  0  0  0
    8.7221   -0.4043   21.2028 C   0  0  0  0  0  0  0  0  0  0  0  0
    9.3317    0.4345   20.5654 O   0  0  0  0  0  0  0  0  0  0  0  0
    5.4316    0.6279   20.1667 C   0  0  0  0  0  0  0  0  0  0  0  0
    5.0210    0.5896   21.1745 H   0  0  0  0  0  0  0  0  0  0  0  0
    4.8091    1.3104   19.1150 C   0  0  0  0  0  0  0  0  0  0  0  0
    3.8790    1.8473   19.2599 H   0  0  0  0  0  0  0  0  0  0  0  0
  1  2  1  0
  2  3  2  0
  3  4  1  0
  4  5  1  0
  4  6  2  0
  6  7  1  0
  7  8  1  0
  8  9  2  0
  9 10  1  0
 10 11  2  0
 11 12  1  0
 11 13  1  0
 13 14  1  0
 13 15  2  0
 15 16  1  0
 15 17  1  0
 17 18  1  0
 18 19  2  0
 18 20  2  0
 18 21  1  0
 21 22  1  0
 21 23  1  0
 21 24  1  0
 17 25  2  0
 25 26  1  0
  9 27  1  0
 27 28  1  0
 27 29  2  0
 29 30  1  0
 29 31  1  0
 31 32  2  0
  6 33  1  0
 33 34  1  0
 33 35  2  0
 35 36  1  0
 35  2  1  0
 31  7  1  0
 25 10  1  0
M  END
>  <cnnaffinity>  (1) 
-5.692

>  <filename>  (1) 
CS(=O)(=O)c1cccc(-c2ccc(=O)n(-c3cccnc3)n2)c1

$$$$
