
     RDKit          3D

 36 38  0  0  0  0  0  0  0  0999 V2000
    4.8148    1.5486   16.3863 H   0  0  0  0  0  0  0  0  0  0  0  0
    5.3254    1.2134   17.2799 C   0  0  0  0  0  0  0  0  0  0  0  0
    6.4136    0.4697   17.0579 N   0  0  0  0  0  0  0  0  0  0  0  0
    7.0745    0.0208   18.1275 C   0  0  0  0  0  0  0  0  0  0  0  0
    7.9677   -0.5692   17.9289 H   0  0  0  0  0  0  0  0  0  0  0  0
    6.7077    0.2805   19.4632 C   0  0  0  0  0  0  0  0  0  0  0  0
    7.5257   -0.2027   20.6159 C   0  0  0  0  0  0  0  0  0  0  0  0
    7.3710    0.5513   21.7044 N   0  0  0  0  0  0  0  0  0  0  0  0
    7.9386    0.0601   22.8630 N   0  0  0  0  0  0  0  0  0  0  0  0
    8.0315    0.9485   23.9526 C   0  0  0  0  0  0  0  0  0  0  0  0
    8.2025    2.3269   23.7171 C   0  0  0  0  0  0  0  0  0  0  0  0
    8.2410    2.6824   22.6929 H   0  0  0  0  0  0  0  0  0  0  0  0
    8.3288    3.2056   24.7958 C   0  0  0  0  0  0  0  0  0  0  0  0
    8.4879    4.2625   24.6067 H   0  0  0  0  0  0  0  0  0  0  0  0
    8.2469    2.7503   26.1158 C   0  0  0  0  0  0  0  0  0  0  0  0
    8.3495    3.4450   26.9487 H   0  0  0  0  0  0  0  0  0  0  0  0
    8.0356    1.3837   26.3363 C   0  0  0  0  0  0  0  0  0  0  0  0
    7.8560    0.7181   27.9918 S   0  0  0  0  0  0  0  0  0  0  0  0
    8.7108   -0.4594   28.0881 O   0  0  0  0  0  0  0  0  0  0  0  0
    7.8950    1.8044   28.9608 O   0  0  0  0  0  0  0  0  0  0  0  0
    6.2032    0.0989   28.0021 C   0  0  0  0  0  0  0  0  0  0  0  0
    6.1048   -0.6224   27.1944 H   0  0  0  0  0  0  0  0  0  0  0  0
    6.0890   -0.3927   28.9655 H   0  0  0  0  0  0  0  0  0  0  0  0
    5.5162    0.9343   27.8940 H   0  0  0  0  0  0  0  0  0  0  0  0
    7.9815    0.4745   25.2680 C   0  0  0  0  0  0  0  0  0  0  0  0
    7.8974   -0.5958   25.4327 H   0  0  0  0  0  0  0  0  0  0  0  0
    8.2998   -1.2793   22.8821 C   0  0  0  0  0  0  0  0  0  0  0  0
    8.4743   -1.7604   23.8324 H   0  0  0  0  0  0  0  0  0  0  0  0
    8.5044   -2.0101   21.7359 C   0  0  0  0  0  0  0  0  0  0  0  0
    9.0544   -2.9481   21.6952 H   0  0  0  0  0  0  0  0  0  0  0  0
    8.6399   -1.2708   20.3523 C   0  0  0  0  0  0  0  0  0  0  0  0
    8.6093   -1.2697   20.3656 O   0  0  0  0  0  0  0  0  0  0  0  0
    5.5586    1.0805   19.6652 C   0  0  0  0  0  0  0  0  0  0  0  0
    5.2567    1.3373   20.6802 H   0  0  0  0  0  0  0  0  0  0  0  0
    4.8598    1.5444   18.5556 C   0  0  0  0  0  0  0  0  0  0  0  0
    3.9746    2.1617   18.6592 H   0  0  0  0  0  0  0  0  0  0  0  0
  1  2  1  0
  2  3  2  0
  3  4  1  0
  4  5  1  0
  4  6  2  0
  6  7  1  0
  7  8  2  0
  8  9  1  0
  9 10  1  0
 10 11  2  0
 11 12  1  0
 11 13  1  0
 13 14  1  0
 13 15  2  0
 15 16  1  0
 15 17  1  0
 17 18  1  0
 18 19  2  0
 18 20  2  0
 18 21  1  0
 21 22  1  0
 21 23  1  0
 21 24  1  0
 17 25  2  0
 25 26  1  0
  9 27  1  0
 27 28  1  0
 27 29  2  0
 29 30  1  0
 29 31  1  0
 31 32  2  0
  6 33  1  0
 33 34  1  0
 33 35  2  0
 35 36  1  0
 35  2  1  0
 31  7  1  0
 25 10  1  0
M  END
>  <cnnaffinity>  (1) 
-5.35721

>  <filename>  (1) 
CS(=O)(=O)c1cccc(-n2ccc(=O)c(-c3cccnc3)n2)c1

$$$$
