
     RDKit          3D

 31 32  0  0  0  0  0  0  0  0999 V2000
    5.5849   -0.0059   22.1363 H   0  0  0  0  0  0  0  0  0  0  0  0
    6.4935   -0.6002   22.1039 C   0  0  0  0  0  0  0  0  0  0  0  0
    7.1915   -0.5719   20.9123 C   0  0  0  0  0  0  0  0  0  0  0  0
    8.8828   -1.4656   20.6955 Br  0  0  0  0  0  0  0  0  0  0  0  0
    6.6194    0.1627   19.7739 C   0  0  0  0  0  0  0  0  0  0  0  0
    7.3001    0.2018   18.5471 C   0  0  0  0  0  0  0  0  0  0  0  0
    8.2762   -0.2711   18.4849 H   0  0  0  0  0  0  0  0  0  0  0  0
    6.7983    0.7761   17.4381 N   0  0  0  0  0  0  0  0  0  0  0  0
    5.5876    1.3552   17.5193 C   0  0  0  0  0  0  0  0  0  0  0  0
    5.1651    1.8153   16.6319 H   0  0  0  0  0  0  0  0  0  0  0  0
    4.8554    1.3937   18.7074 C   0  0  0  0  0  0  0  0  0  0  0  0
    3.8900    1.8870   18.7158 H   0  0  0  0  0  0  0  0  0  0  0  0
    5.3728    0.8021   19.8560 C   0  0  0  0  0  0  0  0  0  0  0  0
    4.8048    0.8275   20.7839 H   0  0  0  0  0  0  0  0  0  0  0  0
    6.8360   -1.3576   23.3115 C   0  0  0  0  0  0  0  0  0  0  0  0
    6.2053   -1.0236   24.5178 C   0  0  0  0  0  0  0  0  0  0  0  0
    5.5405   -0.1650   24.5594 H   0  0  0  0  0  0  0  0  0  0  0  0
    6.4005   -1.7959   25.6600 C   0  0  0  0  0  0  0  0  0  0  0  0
    5.8387   -1.5581   26.5586 H   0  0  0  0  0  0  0  0  0  0  0  0
    7.2980   -2.8635   25.6402 C   0  0  0  0  0  0  0  0  0  0  0  0
    7.4345   -3.4276   26.5601 H   0  0  0  0  0  0  0  0  0  0  0  0
    7.9779   -3.1921   24.4539 C   0  0  0  0  0  0  0  0  0  0  0  0
    9.1495   -4.5873   24.4128 S   0  0  0  0  0  0  0  0  0  0  0  0
    8.8572   -5.4716   23.2671 O   0  0  0  0  0  0  0  0  0  0  0  0
    9.1420   -5.3124   25.6948 O   0  0  0  0  0  0  0  0  0  0  0  0
   10.7594   -3.8024   24.1872 C   0  0  0  0  0  0  0  0  0  0  0  0
   10.8563   -3.5104   23.1452 H   0  0  0  0  0  0  0  0  0  0  0  0
   11.5568   -4.5123   24.4271 H   0  0  0  0  0  0  0  0  0  0  0  0
   10.8350   -2.9080   24.8117 H   0  0  0  0  0  0  0  0  0  0  0  0
    7.7029   -2.4567   23.2873 C   0  0  0  0  0  0  0  0  0  0  0  0
    8.1271   -2.7495   22.3340 H   0  0  0  0  0  0  0  0  0  0  0  0
  1  2  1  0
  2  3  2  3
  3  4  1  0
  3  5  1  0
  5  6  2  0
  6  7  1  0
  6  8  1  0
  8  9  2  0
  9 10  1  0
  9 11  1  0
 11 12  1  0
 11 13  2  0
 13 14  1  0
  2 15  1  0
 15 16  2  0
 16 17  1  0
 16 18  1  0
 18 19  1  0
 18 20  2  0
 20 21  1  0
 20 22  1  0
 22 23  1  0
 23 24  2  0
 23 25  2  0
 23 26  1  0
 26 27  1  0
 26 28  1  0
 26 29  1  0
 22 30  2  0
 30 31  1  0
 13  5  1  0
 30 15  1  0
M  END
>  <cnnaffinity>  (1) 
-4.96821

>  <filename>  (1) 
CS(=O)(=O)c1cccc(C=C(Br)c2cccnc2)c1

$$$$
