
     RDKit          3D

 19 19  0  0  0  0  0  0  0  0999 V2000
    4.8582    1.7050   17.1028 H   0  0  0  0  0  0  0  0  0  0  0  0
    5.4588    1.2413   17.8840 C   0  0  0  0  0  0  0  0  0  0  0  0
    6.6040    0.6792   17.4649 N   0  0  0  0  0  0  0  0  0  0  0  0
    7.3768    0.1043   18.3828 C   0  0  0  0  0  0  0  0  0  0  0  0
    8.3021   -0.3497   18.0350 H   0  0  0  0  0  0  0  0  0  0  0  0
    7.0486    0.0425   19.7558 C   0  0  0  0  0  0  0  0  0  0  0  0
    8.0503   -0.6406   20.6319 C   0  0  0  0  0  0  0  0  0  0  0  0
    9.1995   -0.7437   20.2999 O   0  0  0  0  0  0  0  0  0  0  0  0
    7.3820   -1.4538   22.2732 S   0  0  0  0  0  0  0  0  0  0  0  0
    8.4176   -2.3049   22.8564 O   0  0  0  0  0  0  0  0  0  0  0  0
    6.7185   -0.4184   23.0740 O   0  0  0  0  0  0  0  0  0  0  0  0
    6.0873   -2.6162   21.8389 C   0  0  0  0  0  0  0  0  0  0  0  0
    5.3271   -2.1359   21.2292 H   0  0  0  0  0  0  0  0  0  0  0  0
    5.6724   -2.8877   22.8074 H   0  0  0  0  0  0  0  0  0  0  0  0
    6.5343   -3.4839   21.3572 H   0  0  0  0  0  0  0  0  0  0  0  0
    5.8384    0.6078   20.1827 C   0  0  0  0  0  0  0  0  0  0  0  0
    5.5523    0.5738   21.2377 H   0  0  0  0  0  0  0  0  0  0  0  0
    5.0312    1.2223   19.2182 C   0  0  0  0  0  0  0  0  0  0  0  0
    4.0949    1.6990   19.4870 H   0  0  0  0  0  0  0  0  0  0  0  0
  1  2  1  0
  2  3  2  0
  3  4  1  0
  4  5  1  0
  4  6  2  0
  6  7  1  0
  7  8  2  0
  7  9  1  0
  9 10  2  0
  9 11  2  0
  9 12  1  0
 12 13  1  0
 12 14  1  0
 12 15  1  0
  6 16  1  0
 16 17  1  0
 16 18  2  0
 18 19  1  0
 18  2  1  0
M  END
>  <cnnaffinity>  (1) 
-3.49142

>  <filename>  (1) 
CS(=O)(=O)C(=O)c1cccnc1

$$$$
