
     RDKit          3D

 30 31  0  0  0  0  0  0  0  0999 V2000
    4.9207    1.7964   16.9881 H   0  0  0  0  0  0  0  0  0  0  0  0
    5.3990    1.3007   17.8282 C   0  0  0  0  0  0  0  0  0  0  0  0
    6.5669    0.6847   17.5683 N   0  0  0  0  0  0  0  0  0  0  0  0
    7.1696    0.0543   18.5835 C   0  0  0  0  0  0  0  0  0  0  0  0
    8.1220   -0.4301   18.3591 H   0  0  0  0  0  0  0  0  0  0  0  0
    6.6578   -0.0262   19.9074 C   0  0  0  0  0  0  0  0  0  0  0  0
    7.2907   -0.7943   20.9059 N   0  0  0  0  0  0  0  0  0  0  0  0
    8.1794   -1.2175   20.6742 H   0  0  0  0  0  0  0  0  0  0  0  0
    7.0110   -0.6046   22.5630 S   0  0  0  0  0  0  0  0  0  0  0  0
    8.0433    0.8198   22.8944 C   0  0  0  0  0  0  0  0  0  0  0  0
    7.5444    2.1239   22.7869 C   0  0  0  0  0  0  0  0  0  0  0  0
    6.4998    2.2861   22.5444 H   0  0  0  0  0  0  0  0  0  0  0  0
    8.4011    3.2150   22.9579 C   0  0  0  0  0  0  0  0  0  0  0  0
    8.0199    4.2271   22.8635 H   0  0  0  0  0  0  0  0  0  0  0  0
    9.7475    3.0147   23.2407 C   0  0  0  0  0  0  0  0  0  0  0  0
   10.3999    3.8718   23.4073 H   0  0  0  0  0  0  0  0  0  0  0  0
   10.2317    1.6972   23.3433 C   0  0  0  0  0  0  0  0  0  0  0  0
   11.9352    1.4293   23.7541 S   0  0  0  0  0  0  0  0  0  0  0  0
   12.0787    0.1520   24.4375 O   0  0  0  0  0  0  0  0  0  0  0  0
   12.3933    2.6879   24.3052 O   0  0  0  0  0  0  0  0  0  0  0  0
   12.8031    1.2497   22.2424 C   0  0  0  0  0  0  0  0  0  0  0  0
   12.6775    2.1863   21.7077 H   0  0  0  0  0  0  0  0  0  0  0  0
   12.4145    0.3807   21.7187 H   0  0  0  0  0  0  0  0  0  0  0  0
   13.8436    1.1108   22.5419 H   0  0  0  0  0  0  0  0  0  0  0  0
    9.3869    0.5965   23.1926 C   0  0  0  0  0  0  0  0  0  0  0  0
    9.7478   -0.4247   23.2977 H   0  0  0  0  0  0  0  0  0  0  0  0
    5.4508    0.6465   20.1543 C   0  0  0  0  0  0  0  0  0  0  0  0
    5.0182    0.6211   21.1523 H   0  0  0  0  0  0  0  0  0  0  0  0
    4.8184    1.3121   19.0995 C   0  0  0  0  0  0  0  0  0  0  0  0
    3.8828    1.8353   19.2590 H   0  0  0  0  0  0  0  0  0  0  0  0
  1  2  1  0
  2  3  2  0
  3  4  1  0
  4  5  1  0
  4  6  2  0
  6  7  1  0
  7  8  1  0
  7  9  1  0
  9 10  1  0
 10 11  2  0
 11 12  1  0
 11 13  1  0
 13 14  1  0
 13 15  2  0
 15 16  1  0
 15 17  1  0
 17 18  1  0
 18 19  2  0
 18 20  2  0
 18 21  1  0
 21 22  1  0
 21 23  1  0
 21 24  1  0
 17 25  2  0
 25 26  1  0
  6 27  1  0
 27 28  1  0
 27 29  2  0
 29 30  1  0
 29  2  1  0
 25 10  1  0
M  END
>  <cnnaffinity>  (1) 
-5.06266

>  <filename>  (1) 
CS(=O)(=O)c1cccc(SNc2cccnc2)c1

$$$$
