
     RDKit          3D

 40 42  0  0  0  0  0  0  0  0999 V2000
    7.9091   -6.7739   22.4189 C   0  0  0  0  0  0  0  0  0  0  0  0
    8.3336   -5.8704   23.9163 S   0  0  0  0  0  0  0  0  0  0  0  0
    7.7666   -4.2388   23.3725 C   0  0  0  0  0  0  0  0  0  0  0  0
    8.8003   -3.4955   22.4969 C   0  0  0  0  0  0  0  0  0  0  0  0
    8.3629   -2.1430   22.0693 C   0  0  0  0  0  0  0  0  0  0  0  0
    8.4755   -1.0629   22.8120 N   0  0  0  0  0  0  0  0  0  0  0  0
    7.8485   -0.1228   22.0664 N   0  0  0  0  0  0  0  0  0  0  0  0
    7.7645    1.2548   22.5277 C   0  0  0  0  0  0  0  0  0  0  0  0
    6.5271    1.5281   23.3714 C   0  0  0  0  0  0  0  0  0  0  0  0
    6.2716    0.7407   24.5063 C   0  0  0  0  0  0  0  0  0  0  0  0
    5.1449    0.9963   25.2846 C   0  0  0  0  0  0  0  0  0  0  0  0
    4.8402    0.0111   26.6885 Cl  0  0  0  0  0  0  0  0  0  0  0  0
    4.2556    2.0234   24.9604 C   0  0  0  0  0  0  0  0  0  0  0  0
    4.5106    2.8107   23.8316 C   0  0  0  0  0  0  0  0  0  0  0  0
    5.6389    2.5595   23.0418 C   0  0  0  0  0  0  0  0  0  0  0  0
    5.8266    3.1546   22.1491 H   0  0  0  0  0  0  0  0  0  0  0  0
    3.8372    3.6201   23.5625 H   0  0  0  0  0  0  0  0  0  0  0  0
    3.3894    2.1914   25.5888 H   0  0  0  0  0  0  0  0  0  0  0  0
    6.9437   -0.0690   24.7723 H   0  0  0  0  0  0  0  0  0  0  0  0
    8.6803    1.4106   23.1099 H   0  0  0  0  0  0  0  0  0  0  0  0
    7.7738    1.9038   21.6436 H   0  0  0  0  0  0  0  0  0  0  0  0
    7.4004   -0.6846   20.9222 C   0  0  0  0  0  0  0  0  0  0  0  0
    6.6410    0.0279   19.8981 C   0  0  0  0  0  0  0  0  0  0  0  0
    5.4265    0.6814   20.1468 C   0  0  0  0  0  0  0  0  0  0  0  0
    4.7953    1.3324   19.0910 C   0  0  0  0  0  0  0  0  0  0  0  0
    5.3994    1.3019   17.8302 C   0  0  0  0  0  0  0  0  0  0  0  0
    6.5532    0.6630   17.5790 N   0  0  0  0  0  0  0  0  0  0  0  0
    7.1498    0.0363   18.5954 C   0  0  0  0  0  0  0  0  0  0  0  0
    8.0917   -0.4647   18.3748 H   0  0  0  0  0  0  0  0  0  0  0  0
    4.9412    1.8059   16.9805 H   0  0  0  0  0  0  0  0  0  0  0  0
    3.8578    1.8615   19.2230 H   0  0  0  0  0  0  0  0  0  0  0  0
    4.9866    0.6686   21.1437 H   0  0  0  0  0  0  0  0  0  0  0  0
    7.7390   -1.9571   20.8782 N   0  0  0  0  0  0  0  0  0  0  0  0
    9.7699   -3.4252   22.9990 H   0  0  0  0  0  0  0  0  0  0  0  0
    8.9142   -4.0341   21.5541 H   0  0  0  0  0  0  0  0  0  0  0  0
    6.8489   -4.3855   22.7879 H   0  0  0  0  0  0  0  0  0  0  0  0
    7.4877   -3.6932   24.2845 H   0  0  0  0  0  0  0  0  0  0  0  0
    6.8272   -6.8353   22.2738 H   0  0  0  0  0  0  0  0  0  0  0  0
    8.3618   -6.2774   21.5589 H   0  0  0  0  0  0  0  0  0  0  0  0
    8.3131   -7.7836   22.4914 H   0  0  0  0  0  0  0  0  0  0  0  0
  1  2  1  0
  2  3  1  0
  3  4  1  0
  4  5  1  0
  5  6  2  0
  6  7  1  0
  7  8  1  0
  8  9  1  0
  9 10  2  0
 10 11  1  0
 11 12  1  0
 11 13  2  0
 13 14  1  0
 14 15  2  0
 15 16  1  0
 14 17  1  0
 13 18  1  0
 10 19  1  0
  8 20  1  0
  8 21  1  0
  7 22  1  0
 22 23  1  0
 23 24  2  0
 24 25  1  0
 25 26  2  0
 26 27  1  0
 27 28  2  0
 28 29  1  0
 26 30  1  0
 25 31  1  0
 24 32  1  0
 22 33  2  0
  4 34  1  0
  4 35  1  0
  3 36  1  0
  3 37  1  0
  1 38  1  0
  1 39  1  0
  1 40  1  0
 33  5  1  0
 15  9  1  0
 28 23  1  0
M  END
>  <cnnaffinity>  (1) 
-5.18413

>  <filename>  (1) 
CSCCc1nc(-c2cccnc2)n(Cc2cccc(Cl)c2)n1

$$$$
