
     RDKit          3D

 29 30  0  0  0  0  0  0  0  0999 V2000
    5.7433   -1.4455   21.9101 H   0  0  0  0  0  0  0  0  0  0  0  0
    6.8210   -1.3843   21.9649 C   0  0  0  0  0  0  0  0  0  0  0  0
    7.3804   -0.7086   20.9547 C   0  0  0  0  0  0  0  0  0  0  0  0
    8.7227   -0.7172   20.7708 F   0  0  0  0  0  0  0  0  0  0  0  0
    6.6714    0.0301   19.9030 C   0  0  0  0  0  0  0  0  0  0  0  0
    7.1882    0.0794   18.5929 C   0  0  0  0  0  0  0  0  0  0  0  0
    8.1273   -0.4203   18.3621 H   0  0  0  0  0  0  0  0  0  0  0  0
    6.5664    0.6744   17.5715 N   0  0  0  0  0  0  0  0  0  0  0  0
    5.4017    1.2904   17.8361 C   0  0  0  0  0  0  0  0  0  0  0  0
    4.9209    1.7814   16.9947 H   0  0  0  0  0  0  0  0  0  0  0  0
    4.8062    1.3116   19.1016 C   0  0  0  0  0  0  0  0  0  0  0  0
    3.8747    1.8400   19.2545 H   0  0  0  0  0  0  0  0  0  0  0  0
    5.4388    0.6573   20.1554 C   0  0  0  0  0  0  0  0  0  0  0  0
    5.0140    0.6415   21.1604 H   0  0  0  0  0  0  0  0  0  0  0  0
    7.4864   -2.0869   23.0706 C   0  0  0  0  0  0  0  0  0  0  0  0
    8.6873   -1.5905   23.6030 C   0  0  0  0  0  0  0  0  0  0  0  0
    9.0999   -0.6621   23.2102 H   0  0  0  0  0  0  0  0  0  0  0  0
    9.3135   -2.2897   24.6284 C   0  0  0  0  0  0  0  0  0  0  0  0
   10.2380   -1.8975   25.0310 H   0  0  0  0  0  0  0  0  0  0  0  0
    8.7752   -3.4773   25.1358 C   0  0  0  0  0  0  0  0  0  0  0  0
    9.2739   -4.0125   25.9336 H   0  0  0  0  0  0  0  0  0  0  0  0
    7.5768   -3.9566   24.5983 C   0  0  0  0  0  0  0  0  0  0  0  0
    6.9402   -5.1206   25.0282 O   0  0  0  0  0  0  0  0  0  0  0  0
    7.4306   -5.8873   26.0285 C   0  0  0  0  0  0  0  0  0  0  0  0
    7.5568   -5.2359   27.1988 F   0  0  0  0  0  0  0  0  0  0  0  0
    8.6427   -6.4003   25.7494 F   0  0  0  0  0  0  0  0  0  0  0  0
    6.5608   -6.8740   26.1914 F   0  0  0  0  0  0  0  0  0  0  0  0
    6.9239   -3.2692   23.5765 C   0  0  0  0  0  0  0  0  0  0  0  0
    5.9967   -3.6520   23.1614 H   0  0  0  0  0  0  0  0  0  0  0  0
  1  2  1  0
  2  3  2  3
  3  4  1  0
  3  5  1  0
  5  6  2  0
  6  7  1  0
  6  8  1  0
  8  9  2  0
  9 10  1  0
  9 11  1  0
 11 12  1  0
 11 13  2  0
 13 14  1  0
  2 15  1  0
 15 16  2  0
 16 17  1  0
 16 18  1  0
 18 19  1  0
 18 20  2  0
 20 21  1  0
 20 22  1  0
 22 23  1  0
 23 24  1  0
 24 25  1  0
 24 26  1  0
 24 27  1  0
 22 28  2  0
 28 29  1  0
 13  5  1  0
 28 15  1  0
M  END
>  <cnnaffinity>  (1) 
-4.98902

>  <filename>  (1) 
FC(=Cc1cccc(OC(F)(F)F)c1)c1cccnc1

$$$$
