
     RDKit          3D

 30 32  0  0  0  0  0  0  0  0999 V2000
    3.6721   -4.1678   24.5275 H   0  0  0  0  0  0  0  0  0  0  0  0
    4.7499   -4.0497   24.6215 C   0  0  0  0  0  0  0  0  0  0  0  0
    5.3485   -3.2598   23.7294 N   0  0  0  0  0  0  0  0  0  0  0  0
    6.6804   -3.0915   23.8547 C   0  0  0  0  0  0  0  0  0  0  0  0
    7.3936   -2.1868   22.8712 C   0  0  0  0  0  0  0  0  0  0  0  0
    8.7289   -2.0295   22.9875 N   0  0  0  0  0  0  0  0  0  0  0  0
    9.3989   -1.2412   22.1498 N   0  0  0  0  0  0  0  0  0  0  0  0
    8.7487   -0.6051   21.1696 C   0  0  0  0  0  0  0  0  0  0  0  0
    9.3505    0.0298   20.5298 H   0  0  0  0  0  0  0  0  0  0  0  0
    7.3592   -0.7146   20.9724 C   0  0  0  0  0  0  0  0  0  0  0  0
    6.6503    0.0156   19.8897 C   0  0  0  0  0  0  0  0  0  0  0  0
    7.1588    0.0746   18.5784 C   0  0  0  0  0  0  0  0  0  0  0  0
    8.1016   -0.4221   18.3609 H   0  0  0  0  0  0  0  0  0  0  0  0
    6.5522    0.6821   17.5528 N   0  0  0  0  0  0  0  0  0  0  0  0
    5.3924    1.3027   17.8235 C   0  0  0  0  0  0  0  0  0  0  0  0
    4.9137    1.7939   16.9817 H   0  0  0  0  0  0  0  0  0  0  0  0
    4.7991    1.3225   19.0929 C   0  0  0  0  0  0  0  0  0  0  0  0
    3.8669    1.8497   19.2488 H   0  0  0  0  0  0  0  0  0  0  0  0
    5.4303    0.6562   20.1436 C   0  0  0  0  0  0  0  0  0  0  0  0
    5.0221    0.6334   21.1597 H   0  0  0  0  0  0  0  0  0  0  0  0
    6.6721   -1.5293   21.8557 C   0  0  0  0  0  0  0  0  0  0  0  0
    5.6004   -1.6743   21.7483 H   0  0  0  0  0  0  0  0  0  0  0  0
    7.4166   -3.6911   24.7925 N   0  0  0  0  0  0  0  0  0  0  0  0
    6.8185   -4.4887   25.6762 C   0  0  0  0  0  0  0  0  0  0  0  0
    7.6843   -5.1873   26.7704 C   0  0  0  0  0  0  0  0  0  0  0  0
    8.9846   -4.9022   26.7086 F   0  0  0  0  0  0  0  0  0  0  0  0
    7.2514   -4.8568   28.0057 F   0  0  0  0  0  0  0  0  0  0  0  0
    7.5525   -6.5242   26.6765 F   0  0  0  0  0  0  0  0  0  0  0  0
    5.4413   -4.7122   25.6344 C   0  0  0  0  0  0  0  0  0  0  0  0
    4.9397   -5.3620   26.3424 H   0  0  0  0  0  0  0  0  0  0  0  0
  1  2  1  0
  2  3  2  0
  3  4  1  0
  4  5  1  0
  5  6  2  0
  6  7  1  0
  7  8  2  0
  8  9  1  0
  8 10  1  0
 10 11  1  0
 11 12  2  0
 12 13  1  0
 12 14  1  0
 14 15  2  0
 15 16  1  0
 15 17  1  0
 17 18  1  0
 17 19  2  0
 19 20  1  0
 10 21  2  0
 21 22  1  0
  4 23  2  0
 23 24  1  0
 24 25  1  0
 25 26  1  0
 25 27  1  0
 25 28  1  0
 24 29  2  0
 29 30  1  0
 29  2  1  0
 21  5  1  0
 19 11  1  0
M  END
>  <cnnaffinity>  (1) 
-5.26776

>  <filename>  (1) 
FC(F)(F)c1ccnc(-c2cc(-c3cccnc3)cnn2)n1

$$$$
