
     RDKit          3D

 32 34  0  0  0  0  0  0  0  0999 V2000
    3.1590    2.3060   24.2681 H   0  0  0  0  0  0  0  0  0  0  0  0
    4.0100    1.6505   24.4514 C   0  0  0  0  0  0  0  0  0  0  0  0
    5.0336    1.7658   23.6013 N   0  0  0  0  0  0  0  0  0  0  0  0
    6.0632    0.9382   23.8123 C   0  0  0  0  0  0  0  0  0  0  0  0
    7.2746    1.0211   22.9063 C   0  0  0  0  0  0  0  0  0  0  0  0
    7.0820    1.8121   22.1807 H   0  0  0  0  0  0  0  0  0  0  0  0
    8.1098    1.3659   23.5212 H   0  0  0  0  0  0  0  0  0  0  0  0
    7.6750   -0.2752   22.2314 C   0  0  0  0  0  0  0  0  0  0  0  0
    8.3888   -1.3595   22.7899 C   0  0  0  0  0  0  0  0  0  0  0  0
    8.7435   -1.4226   23.8056 H   0  0  0  0  0  0  0  0  0  0  0  0
    8.5435   -2.3627   21.9375 N   0  0  0  0  0  0  0  0  0  0  0  0
    7.9393   -1.9149   20.8234 N   0  0  0  0  0  0  0  0  0  0  0  0
    7.8966   -2.4908   19.9965 H   0  0  0  0  0  0  0  0  0  0  0  0
    7.3880   -0.6833   20.9496 C   0  0  0  0  0  0  0  0  0  0  0  0
    6.6492   -0.0002   19.8807 C   0  0  0  0  0  0  0  0  0  0  0  0
    7.1594    0.0621   18.5705 C   0  0  0  0  0  0  0  0  0  0  0  0
    8.1166   -0.4064   18.3458 H   0  0  0  0  0  0  0  0  0  0  0  0
    6.5566    0.6892   17.5553 N   0  0  0  0  0  0  0  0  0  0  0  0
    5.3923    1.3015   17.8249 C   0  0  0  0  0  0  0  0  0  0  0  0
    4.9127    1.7930   16.9847 H   0  0  0  0  0  0  0  0  0  0  0  0
    4.7966    1.3148   19.0916 C   0  0  0  0  0  0  0  0  0  0  0  0
    3.8674    1.8473   19.2512 H   0  0  0  0  0  0  0  0  0  0  0  0
    5.4336    0.6513   20.1413 C   0  0  0  0  0  0  0  0  0  0  0  0
    5.0067    0.6355   21.1464 H   0  0  0  0  0  0  0  0  0  0  0  0
    6.1430    0.0419   24.7983 N   0  0  0  0  0  0  0  0  0  0  0  0
    5.0953   -0.0963   25.6169 C   0  0  0  0  0  0  0  0  0  0  0  0
    5.1364   -1.1560   26.7595 C   0  0  0  0  0  0  0  0  0  0  0  0
    5.0078   -0.5523   27.9614 F   0  0  0  0  0  0  0  0  0  0  0  0
    4.0896   -2.0049   26.6590 F   0  0  0  0  0  0  0  0  0  0  0  0
    6.2529   -1.8874   26.7870 F   0  0  0  0  0  0  0  0  0  0  0  0
    3.9685    0.7195   25.4771 C   0  0  0  0  0  0  0  0  0  0  0  0
    3.1084    0.6321   26.1246 H   0  0  0  0  0  0  0  0  0  0  0  0
  1  2  1  0
  2  3  2  0
  3  4  1  0
  4  5  1  0
  5  6  1  0
  5  7  1  0
  5  8  1  0
  8  9  1  0
  9 10  1  0
  9 11  2  0
 11 12  1  0
 12 13  1  0
 12 14  1  0
 14 15  1  0
 15 16  2  0
 16 17  1  0
 16 18  1  0
 18 19  2  0
 19 20  1  0
 19 21  1  0
 21 22  1  0
 21 23  2  0
 23 24  1  0
  4 25  2  0
 25 26  1  0
 26 27  1  0
 27 28  1  0
 27 29  1  0
 27 30  1  0
 26 31  2  0
 31 32  1  0
 31  2  1  0
 14  8  2  0
 23 15  1  0
M  END
>  <cnnaffinity>  (1) 
-5.28393

>  <filename>  (1) 
FC(F)(F)c1ccnc(Cc2cn[nH]c2-c2cccnc2)n1

$$$$
