
     RDKit          3D

 23 24  0  0  0  0  0  0  0  0999 V2000
    4.9333    1.7893   17.0032 H   0  0  0  0  0  0  0  0  0  0  0  0
    5.4026    1.2867   17.8449 C   0  0  0  0  0  0  0  0  0  0  0  0
    6.5592    0.6595   17.5848 N   0  0  0  0  0  0  0  0  0  0  0  0
    7.1780    0.0397   18.5949 C   0  0  0  0  0  0  0  0  0  0  0  0
    8.1291   -0.4338   18.3596 H   0  0  0  0  0  0  0  0  0  0  0  0
    6.6555   -0.0128   19.9060 C   0  0  0  0  0  0  0  0  0  0  0  0
    7.3183   -0.7085   20.9624 N   0  0  0  0  0  0  0  0  0  0  0  0
    6.6863   -1.6239   21.8085 C   0  0  0  0  0  0  0  0  0  0  0  0
    5.6450   -1.8695   21.7561 H   0  0  0  0  0  0  0  0  0  0  0  0
    7.6336   -2.0597   22.6526 C   0  0  0  0  0  0  0  0  0  0  0  0
    7.6377   -2.9274   23.6945 O   0  0  0  0  0  0  0  0  0  0  0  0
    6.4432   -3.5179   23.9952 C   0  0  0  0  0  0  0  0  0  0  0  0
    6.6503   -4.3271   25.0199 F   0  0  0  0  0  0  0  0  0  0  0  0
    5.9606   -4.2304   22.9679 F   0  0  0  0  0  0  0  0  0  0  0  0
    5.5030   -2.6292   24.3339 F   0  0  0  0  0  0  0  0  0  0  0  0
    8.8079   -1.4469   22.3516 N   0  0  0  0  0  0  0  0  0  0  0  0
    9.6986   -1.5278   22.8134 H   0  0  0  0  0  0  0  0  0  0  0  0
    8.6390   -0.5585   21.3368 C   0  0  0  0  0  0  0  0  0  0  0  0
    9.8105    0.4688   20.7892 S   0  0  0  0  0  0  0  0  0  0  0  0
    5.4469    0.6400   20.1657 C   0  0  0  0  0  0  0  0  0  0  0  0
    5.0381    0.6247   21.1776 H   0  0  0  0  0  0  0  0  0  0  0  0
    4.8139    1.3062   19.1132 C   0  0  0  0  0  0  0  0  0  0  0  0
    3.8834    1.8381   19.2643 H   0  0  0  0  0  0  0  0  0  0  0  0
  1  2  1  0
  2  3  2  0
  3  4  1  0
  4  5  1  0
  4  6  2  0
  6  7  1  0
  7  8  1  0
  8  9  1  0
  8 10  2  0
 10 11  1  0
 11 12  1  0
 12 13  1  0
 12 14  1  0
 12 15  1  0
 10 16  1  0
 16 17  1  0
 16 18  1  0
 18 19  2  0
  6 20  1  0
 20 21  1  0
 20 22  2  0
 22 23  1  0
 22  2  1  0
 18  7  1  0
M  END
>  <cnnaffinity>  (1) 
-4.90268

>  <filename>  (1) 
FC(F)(F)Oc1cn(-c2cccnc2)c(=S)[nH]1

$$$$
