
     RDKit          3D

 29 31  0  0  0  0  0  0  0  0999 V2000
    6.8376    4.1291   21.9867 H   0  0  0  0  0  0  0  0  0  0  0  0
    7.0067    3.2742   22.6352 C   0  0  0  0  0  0  0  0  0  0  0  0
    7.1812    2.0941   22.0378 N   0  0  0  0  0  0  0  0  0  0  0  0
    7.3905    1.0553   22.8511 C   0  0  0  0  0  0  0  0  0  0  0  0
    7.6186   -0.2533   22.2625 C   0  0  0  0  0  0  0  0  0  0  0  0
    7.3697   -0.6639   20.9739 C   0  0  0  0  0  0  0  0  0  0  0  0
    6.6449    0.0146   19.9128 C   0  0  0  0  0  0  0  0  0  0  0  0
    7.1680    0.0435   18.6117 C   0  0  0  0  0  0  0  0  0  0  0  0
    8.1164   -0.4373   18.3795 H   0  0  0  0  0  0  0  0  0  0  0  0
    6.5721    0.6683   17.5939 N   0  0  0  0  0  0  0  0  0  0  0  0
    5.4070    1.2892   17.8394 C   0  0  0  0  0  0  0  0  0  0  0  0
    4.9315    1.7818   16.9948 H   0  0  0  0  0  0  0  0  0  0  0  0
    4.7944    1.2989   19.0948 C   0  0  0  0  0  0  0  0  0  0  0  0
    3.8742    1.8420   19.2567 H   0  0  0  0  0  0  0  0  0  0  0  0
    5.4101    0.6342   20.1479 C   0  0  0  0  0  0  0  0  0  0  0  0
    4.9885    0.6528   21.1536 H   0  0  0  0  0  0  0  0  0  0  0  0
    7.8595   -1.9261   20.7969 N   0  0  0  0  0  0  0  0  0  0  0  0
    8.3440   -2.3101   21.9473 C   0  0  0  0  0  0  0  0  0  0  0  0
    8.8017   -3.2748   22.1509 H   0  0  0  0  0  0  0  0  0  0  0  0
    8.2207   -1.3395   22.8801 N   0  0  0  0  0  0  0  0  0  0  0  0
    8.5397   -1.3820   23.8368 H   0  0  0  0  0  0  0  0  0  0  0  0
    7.4415    1.1144   24.1880 N   0  0  0  0  0  0  0  0  0  0  0  0
    7.2503    2.2949   24.7811 C   0  0  0  0  0  0  0  0  0  0  0  0
    7.3016    2.4000   26.3377 C   0  0  0  0  0  0  0  0  0  0  0  0
    6.1491    2.9166   26.8156 F   0  0  0  0  0  0  0  0  0  0  0  0
    7.5122    1.2399   26.9621 F   0  0  0  0  0  0  0  0  0  0  0  0
    8.2744    3.2541   26.7219 F   0  0  0  0  0  0  0  0  0  0  0  0
    7.0250    3.4431   24.0164 C   0  0  0  0  0  0  0  0  0  0  0  0
    6.8795    4.4136   24.4676 H   0  0  0  0  0  0  0  0  0  0  0  0
  1  2  1  0
  2  3  2  0
  3  4  1  0
  4  5  1  0
  5  6  2  0
  6  7  1  0
  7  8  2  0
  8  9  1  0
  8 10  1  0
 10 11  2  0
 11 12  1  0
 11 13  1  0
 13 14  1  0
 13 15  2  0
 15 16  1  0
  6 17  1  0
 17 18  2  0
 18 19  1  0
 18 20  1  0
 20 21  1  0
  4 22  2  0
 22 23  1  0
 23 24  1  0
 24 25  1  0
 24 26  1  0
 24 27  1  0
 23 28  2  0
 28 29  1  0
 28  2  1  0
 20  5  1  0
 15  7  1  0
M  END
>  <cnnaffinity>  (1) 
-5.29653

>  <filename>  (1) 
FC(F)(F)c1ccnc(-c2[nH]cnc2-c2cccnc2)n1

$$$$
