
     RDKit          3D

 33 35  0  0  0  0  0  0  0  0999 V2000
    5.6517   -1.6784   21.6792 H   0  0  0  0  0  0  0  0  0  0  0  0
    6.7157   -1.5341   21.8072 C   0  0  0  0  0  0  0  0  0  0  0  0
    7.3863   -0.7196   20.9603 C   0  0  0  0  0  0  0  0  0  0  0  0
    6.7059    0.0426   19.9101 C   0  0  0  0  0  0  0  0  0  0  0  0
    7.2046    0.0829   18.5972 C   0  0  0  0  0  0  0  0  0  0  0  0
    8.1353   -0.4241   18.3435 H   0  0  0  0  0  0  0  0  0  0  0  0
    6.5750    0.6753   17.5770 N   0  0  0  0  0  0  0  0  0  0  0  0
    5.4105    1.2895   17.8416 C   0  0  0  0  0  0  0  0  0  0  0  0
    4.9285    1.7808   16.9993 H   0  0  0  0  0  0  0  0  0  0  0  0
    4.8218    1.3131   19.1109 C   0  0  0  0  0  0  0  0  0  0  0  0
    3.8817    1.8312   19.2566 H   0  0  0  0  0  0  0  0  0  0  0  0
    5.4677    0.6640   20.1613 C   0  0  0  0  0  0  0  0  0  0  0  0
    5.0334    0.6330   21.1642 H   0  0  0  0  0  0  0  0  0  0  0  0
    8.7699   -0.6268   21.0650 N   0  0  0  0  0  0  0  0  0  0  0  0
    9.3264    0.0457   20.5675 H   0  0  0  0  0  0  0  0  0  0  0  0
    9.5213   -1.3782   21.9060 C   0  0  0  0  0  0  0  0  0  0  0  0
   11.1703   -1.2370   21.9717 S   0  0  0  0  0  0  0  0  0  0  0  0
    8.8479   -2.2671   22.6695 N   0  0  0  0  0  0  0  0  0  0  0  0
    9.4968   -2.7337   23.2887 H   0  0  0  0  0  0  0  0  0  0  0  0
    7.3920   -2.1393   22.9973 C   0  0  1  0  0  0  0  0  0  0  0  0
    7.0043   -3.1509   23.1883 H   0  0  0  0  0  0  0  0  0  0  0  0
    7.0540   -1.3667   24.3190 C   0  0  0  0  0  0  0  0  0  0  0  0
    6.2605   -1.9630   25.2206 N   0  0  0  0  0  0  0  0  0  0  0  0
    5.9812   -1.2588   26.3186 C   0  0  0  0  0  0  0  0  0  0  0  0
    5.3311   -1.7358   27.0505 H   0  0  0  0  0  0  0  0  0  0  0  0
    6.4878    0.0205   26.5335 C   0  0  0  0  0  0  0  0  0  0  0  0
    6.2561    0.5751   27.4301 H   0  0  0  0  0  0  0  0  0  0  0  0
    7.3054    0.5509   25.5318 C   0  0  0  0  0  0  0  0  0  0  0  0
    7.9141    1.9750   25.6793 C   0  0  0  0  0  0  0  0  0  0  0  0
    8.6981    2.3466   24.6664 F   0  0  0  0  0  0  0  0  0  0  0  0
    6.9358    2.8995   25.7930 F   0  0  0  0  0  0  0  0  0  0  0  0
    8.6468    2.0641   26.8066 F   0  0  0  0  0  0  0  0  0  0  0  0
    7.5687   -0.1460   24.4210 N   0  0  0  0  0  0  0  0  0  0  0  0
  1  2  1  0
  2  3  2  0
  3  4  1  0
  4  5  2  0
  5  6  1  0
  5  7  1  0
  7  8  2  0
  8  9  1  0
  8 10  1  0
 10 11  1  0
 10 12  2  0
 12 13  1  0
  3 14  1  0
 14 15  1  0
 14 16  1  0
 16 17  2  0
 16 18  1  0
 18 19  1  0
 18 20  1  0
 20 21  1  1
 20 22  1  0
 22 23  2  0
 23 24  1  0
 24 25  1  0
 24 26  2  0
 26 27  1  0
 26 28  1  0
 28 29  1  0
 29 30  1  0
 29 31  1  0
 29 32  1  0
 28 33  2  0
 20  2  1  0
 33 22  1  0
 12  4  1  0
M  END
>  <cnnaffinity>  (1) 
-5.53148

>  <filename>  (1) 
FC(F)(F)c1ccnc([C@H]2C=C(c3cccnc3)NC(=S)N2)n1

$$$$
