
     RDKit          3D

 35 37  0  0  0  0  0  0  0  0999 V2000
    9.5566    0.8085   20.3758 H   0  0  0  0  0  0  0  0  0  0  0  0
    9.7945   -0.0215   21.0378 C   0  0  0  0  0  0  0  0  0  0  0  0
    8.7976   -0.8582   21.4184 C   0  0  0  0  0  0  0  0  0  0  0  0
    7.3510   -0.8178   21.0488 C   0  0  0  0  0  0  0  0  0  0  0  0
    6.7252   -0.0166   19.9680 C   0  0  0  0  0  0  0  0  0  0  0  0
    7.3116    0.0268   18.7009 C   0  0  0  0  0  0  0  0  0  0  0  0
    8.2590   -0.4815   18.5196 H   0  0  0  0  0  0  0  0  0  0  0  0
    6.7650    0.6477   17.6468 N   0  0  0  0  0  0  0  0  0  0  0  0
    5.5958    1.2758   17.8361 C   0  0  0  0  0  0  0  0  0  0  0  0
    5.1742    1.7785   16.9668 H   0  0  0  0  0  0  0  0  0  0  0  0
    4.9200    1.2956   19.0632 C   0  0  0  0  0  0  0  0  0  0  0  0
    3.9735    1.8220   19.1475 H   0  0  0  0  0  0  0  0  0  0  0  0
    5.4851    0.6222   20.1449 C   0  0  0  0  0  0  0  0  0  0  0  0
    4.9787    0.5747   21.1111 H   0  0  0  0  0  0  0  0  0  0  0  0
    6.6132   -1.5873   21.7637 N   0  0  0  0  0  0  0  0  0  0  0  0
    7.4171   -2.2401   22.7911 C   0  0  0  0  0  0  0  0  0  0  0  0
    7.1787   -3.3073   22.8101 H   0  0  0  0  0  0  0  0  0  0  0  0
    7.1091   -1.8329   23.7612 H   0  0  0  0  0  0  0  0  0  0  0  0
    8.9070   -1.9390   22.4782 C   0  0  0  0  0  0  0  0  0  0  0  0
    9.3997   -2.8279   22.0658 H   0  0  0  0  0  0  0  0  0  0  0  0
    9.4751   -1.6143   23.3580 H   0  0  0  0  0  0  0  0  0  0  0  0
   11.2060   -0.0874   21.5179 C   0  0  0  0  0  0  0  0  0  0  0  0
   11.9489   -1.2833   21.4825 C   0  0  0  0  0  0  0  0  0  0  0  0
   11.4791   -2.1570   21.0474 H   0  0  0  0  0  0  0  0  0  0  0  0
   13.2555   -1.3558   21.9777 C   0  0  0  0  0  0  0  0  0  0  0  0
   13.8042   -2.2957   21.9203 H   0  0  0  0  0  0  0  0  0  0  0  0
   13.8543   -0.2245   22.5363 C   0  0  0  0  0  0  0  0  0  0  0  0
   14.8637   -0.2695   22.9327 H   0  0  0  0  0  0  0  0  0  0  0  0
   13.1452    0.9758   22.5916 C   0  0  0  0  0  0  0  0  0  0  0  0
   13.5922    1.8375   23.0861 H   0  0  0  0  0  0  0  0  0  0  0  0
   11.8637    1.0601   22.0340 C   0  0  0  0  0  0  0  0  0  0  0  0
   11.1940    2.4010   21.9153 C   0  0  0  0  0  0  0  0  0  0  0  0
   11.1379    2.7306   20.6081 F   0  0  0  0  0  0  0  0  0  0  0  0
   11.8470    3.3905   22.5507 F   0  0  0  0  0  0  0  0  0  0  0  0
    9.9328    2.3945   22.3912 F   0  0  0  0  0  0  0  0  0  0  0  0
  1  2  1  0
  2  3  2  3
  3  4  1  0
  4  5  1  0
  5  6  2  0
  6  7  1  0
  6  8  1  0
  8  9  2  0
  9 10  1  0
  9 11  1  0
 11 12  1  0
 11 13  2  0
 13 14  1  0
  4 15  2  0
 15 16  1  0
 16 17  1  0
 16 18  1  0
 16 19  1  0
 19 20  1  0
 19 21  1  0
  2 22  1  0
 22 23  2  0
 23 24  1  0
 23 25  1  0
 25 26  1  0
 25 27  2  0
 27 28  1  0
 27 29  1  0
 29 30  1  0
 29 31  2  0
 31 32  1  0
 32 33  1  0
 32 34  1  0
 32 35  1  0
 19  3  1  0
 31 22  1  0
 13  5  1  0
M  END
>  <cnnaffinity>  (1) 
-6.18167

>  <filename>  (1) 
FC(F)(F)c1ccccc1C=C1CCN=C1c1cccnc1

$$$$
