
     RDKit          3D

 34 36  0  0  0  0  0  0  0  0999 V2000
    4.9776    1.7792   16.9874 H   0  0  0  0  0  0  0  0  0  0  0  0
    5.4232    1.3032   17.8589 C   0  0  0  0  0  0  0  0  0  0  0  0
    6.5731    0.6471   17.6381 N   0  0  0  0  0  0  0  0  0  0  0  0
    7.1484    0.0526   18.6822 C   0  0  0  0  0  0  0  0  0  0  0  0
    8.0608   -0.5081   18.4864 H   0  0  0  0  0  0  0  0  0  0  0  0
    6.6469    0.1065   19.9912 C   0  0  0  0  0  0  0  0  0  0  0  0
    7.4250   -0.6103   21.0099 C   0  0  0  0  0  0  0  0  0  0  0  0
    7.9758   -1.7854   20.8304 N   0  0  0  0  0  0  0  0  0  0  0  0
    8.5937   -2.1518   21.9969 N   0  0  0  0  0  0  0  0  0  0  0  0
    8.4249   -1.1705   22.8365 C   0  0  0  0  0  0  0  0  0  0  0  0
    8.7681   -1.1392   23.8624 H   0  0  0  0  0  0  0  0  0  0  0  0
    7.7085   -0.1504   22.2713 N   0  0  0  0  0  0  0  0  0  0  0  0
    7.3716    1.1061   22.9212 C   0  0  0  0  0  0  0  0  0  0  0  0
    8.2627    1.4768   23.4447 H   0  0  0  0  0  0  0  0  0  0  0  0
    7.1244    1.8435   22.1506 H   0  0  0  0  0  0  0  0  0  0  0  0
    6.2285    1.0507   23.9288 C   0  0  0  0  0  0  0  0  0  0  0  0
    5.7778   -0.1359   24.5267 C   0  0  0  0  0  0  0  0  0  0  0  0
    6.2601   -1.0778   24.2994 H   0  0  0  0  0  0  0  0  0  0  0  0
    4.6728   -0.1398   25.3818 C   0  0  0  0  0  0  0  0  0  0  0  0
    4.2965   -1.0737   25.7953 H   0  0  0  0  0  0  0  0  0  0  0  0
    4.0083    1.0497   25.6774 C   0  0  0  0  0  0  0  0  0  0  0  0
    3.0843    1.0394   26.2396 H   0  0  0  0  0  0  0  0  0  0  0  0
    4.5515    2.2427   25.1999 C   0  0  0  0  0  0  0  0  0  0  0  0
    4.0639    3.4987   25.5368 O   0  0  0  0  0  0  0  0  0  0  0  0
    3.0366    3.6752   26.3923 C   0  0  0  0  0  0  0  0  0  0  0  0
    1.8661    3.2504   25.8875 F   0  0  0  0  0  0  0  0  0  0  0  0
    2.9549    4.9778   26.6269 F   0  0  0  0  0  0  0  0  0  0  0  0
    3.1939    3.0467   27.5702 F   0  0  0  0  0  0  0  0  0  0  0  0
    5.6444    2.2591   24.3301 C   0  0  0  0  0  0  0  0  0  0  0  0
    6.0338    3.2177   23.9930 H   0  0  0  0  0  0  0  0  0  0  0  0
    5.4328    0.7773   20.2073 C   0  0  0  0  0  0  0  0  0  0  0  0
    4.9932    0.8109   21.2066 H   0  0  0  0  0  0  0  0  0  0  0  0
    4.8038    1.3772   19.1121 C   0  0  0  0  0  0  0  0  0  0  0  0
    3.8619    1.9063   19.2154 H   0  0  0  0  0  0  0  0  0  0  0  0
  1  2  1  0
  2  3  2  0
  3  4  1  0
  4  5  1  0
  4  6  2  0
  6  7  1  0
  7  8  2  0
  8  9  1  0
  9 10  2  0
 10 11  1  0
 10 12  1  0
 12 13  1  0
 13 14  1  0
 13 15  1  0
 13 16  1  0
 16 17  2  0
 17 18  1  0
 17 19  1  0
 19 20  1  0
 19 21  2  0
 21 22  1  0
 21 23  1  0
 23 24  1  0
 24 25  1  0
 25 26  1  0
 25 27  1  0
 25 28  1  0
 23 29  2  0
 29 30  1  0
  6 31  1  0
 31 32  1  0
 31 33  2  0
 33 34  1  0
 33  2  1  0
 12  7  1  0
 29 16  1  0
M  END
>  <cnnaffinity>  (1) 
-4.96643

>  <filename>  (1) 
FC(F)(F)Oc1cccc(Cn2cnnc2-c2cccnc2)c1

$$$$
