
     RDKit          3D

 28 29  0  0  0  0  0  0  0  0999 V2000
    4.9100    1.8566   16.8739 H   0  0  0  0  0  0  0  0  0  0  0  0
    5.3714    1.3159   17.6941 C   0  0  0  0  0  0  0  0  0  0  0  0
    6.4957    0.6415   17.4067 N   0  0  0  0  0  0  0  0  0  0  0  0
    7.0952   -0.0338   18.3888 C   0  0  0  0  0  0  0  0  0  0  0  0
    7.9791   -0.6021   18.0900 H   0  0  0  0  0  0  0  0  0  0  0  0
    6.6123   -0.0578   19.7017 C   0  0  0  0  0  0  0  0  0  0  0  0
    7.4199   -0.7074   20.7595 C   0  0  0  0  0  0  0  0  0  0  0  0
    9.0585   -0.8468   20.6775 S   0  0  0  0  0  0  0  0  0  0  0  0
    6.6647   -1.1474   21.7886 N   0  0  0  0  0  0  0  0  0  0  0  0
    5.6717   -1.1174   21.6279 H   0  0  0  0  0  0  0  0  0  0  0  0
    7.0682   -1.4086   23.1177 C   0  0  0  0  0  0  0  0  0  0  0  0
    7.8887   -0.4992   23.7913 C   0  0  0  0  0  0  0  0  0  0  0  0
    8.2644    0.3512   23.2399 H   0  0  0  0  0  0  0  0  0  0  0  0
    8.2191   -0.7142   25.1233 C   0  0  0  0  0  0  0  0  0  0  0  0
    8.8944   -0.0266   25.6344 H   0  0  0  0  0  0  0  0  0  0  0  0
    7.7084   -1.8382   25.7852 C   0  0  0  0  0  0  0  0  0  0  0  0
    7.9019   -1.9978   27.2595 C   0  0  0  0  0  0  0  0  0  0  0  0
    8.1082   -3.2846   27.6051 F   0  0  0  0  0  0  0  0  0  0  0  0
    8.9524   -1.2953   27.7231 F   0  0  0  0  0  0  0  0  0  0  0  0
    6.8052   -1.5730   27.9263 F   0  0  0  0  0  0  0  0  0  0  0  0
    6.9396   -2.7847   25.0884 C   0  0  0  0  0  0  0  0  0  0  0  0
    6.6245   -3.6986   25.5860 H   0  0  0  0  0  0  0  0  0  0  0  0
    6.6082   -2.5614   23.7548 C   0  0  0  0  0  0  0  0  0  0  0  0
    6.0235   -3.2863   23.2013 H   0  0  0  0  0  0  0  0  0  0  0  0
    5.4126    0.6317   19.9801 C   0  0  0  0  0  0  0  0  0  0  0  0
    4.9900    0.6569   20.9846 H   0  0  0  0  0  0  0  0  0  0  0  0
    4.7843    1.3316   18.9602 C   0  0  0  0  0  0  0  0  0  0  0  0
    3.8651    1.8815   19.1391 H   0  0  0  0  0  0  0  0  0  0  0  0
  1  2  1  0
  2  3  2  0
  3  4  1  0
  4  5  1  0
  4  6  2  0
  6  7  1  0
  7  8  2  0
  7  9  1  0
  9 10  1  0
  9 11  1  0
 11 12  2  0
 12 13  1  0
 12 14  1  0
 14 15  1  0
 14 16  2  0
 16 17  1  0
 17 18  1  0
 17 19  1  0
 17 20  1  0
 16 21  1  0
 21 22  1  0
 21 23  2  0
 23 24  1  0
  6 25  1  0
 25 26  1  0
 25 27  2  0
 27 28  1  0
 27  2  1  0
 23 11  1  0
M  END
>  <cnnaffinity>  (1) 
-4.79654

>  <filename>  (1) 
FC(F)(F)c1ccc(NC(=S)c2cccnc2)cc1

$$$$
