
     RDKit          3D

 31 33  0  0  0  0  0  0  0  0999 V2000
    4.9368    1.8087   16.9996 H   0  0  0  0  0  0  0  0  0  0  0  0
    5.3970    1.2865   17.8345 C   0  0  0  0  0  0  0  0  0  0  0  0
    6.5519    0.6511   17.5705 N   0  0  0  0  0  0  0  0  0  0  0  0
    7.1754    0.0318   18.5828 C   0  0  0  0  0  0  0  0  0  0  0  0
    8.1278   -0.4495   18.3595 H   0  0  0  0  0  0  0  0  0  0  0  0
    6.6567   -0.0110   19.8928 C   0  0  0  0  0  0  0  0  0  0  0  0
    7.3412   -0.6945   20.9547 N   0  0  0  0  0  0  0  0  0  0  0  0
    6.7668   -1.6377   21.7993 C   0  0  0  0  0  0  0  0  0  0  0  0
    5.7205   -1.9040   21.7080 H   0  0  0  0  0  0  0  0  0  0  0  0
    7.7102   -2.0942   22.6626 C   0  0  0  0  0  0  0  0  0  0  0  0
    7.5079   -3.1240   23.7299 C   0  0  0  0  0  0  0  0  0  0  0  0
    6.7930   -4.1887   23.3472 N   0  0  0  0  0  0  0  0  0  0  0  0
    6.6632   -5.2118   24.1906 C   0  0  0  0  0  0  0  0  0  0  0  0
    6.1179   -6.0679   23.8130 H   0  0  0  0  0  0  0  0  0  0  0  0
    7.1913   -5.2243   25.4799 C   0  0  0  0  0  0  0  0  0  0  0  0
    7.0712   -6.0953   26.1094 H   0  0  0  0  0  0  0  0  0  0  0  0
    7.8695   -4.0974   25.9228 C   0  0  0  0  0  0  0  0  0  0  0  0
    8.2865   -4.0571   26.9257 H   0  0  0  0  0  0  0  0  0  0  0  0
    7.9965   -3.0148   25.0508 C   0  0  0  0  0  0  0  0  0  0  0  0
    8.6957   -1.7524   25.4404 C   0  0  0  0  0  0  0  0  0  0  0  0
    8.0483   -0.6610   24.9965 F   0  0  0  0  0  0  0  0  0  0  0  0
    9.9345   -1.7330   24.8829 F   0  0  0  0  0  0  0  0  0  0  0  0
    8.8603   -1.6080   26.7648 F   0  0  0  0  0  0  0  0  0  0  0  0
    8.8828   -1.4146   22.2958 N   0  0  0  0  0  0  0  0  0  0  0  0
    9.7965   -1.3725   22.7207 H   0  0  0  0  0  0  0  0  0  0  0  0
    8.6603   -0.5006   21.3189 C   0  0  0  0  0  0  0  0  0  0  0  0
    9.7878    0.6086   20.8249 S   0  0  0  0  0  0  0  0  0  0  0  0
    5.4467    0.6415   20.1503 C   0  0  0  0  0  0  0  0  0  0  0  0
    5.0489    0.6379   21.1672 H   0  0  0  0  0  0  0  0  0  0  0  0
    4.8014    1.3079   19.1020 C   0  0  0  0  0  0  0  0  0  0  0  0
    3.8702    1.8536   19.2563 H   0  0  0  0  0  0  0  0  0  0  0  0
  1  2  1  0
  2  3  2  0
  3  4  1  0
  4  5  1  0
  4  6  2  0
  6  7  1  0
  7  8  1  0
  8  9  1  0
  8 10  2  0
 10 11  1  0
 11 12  2  0
 12 13  1  0
 13 14  1  0
 13 15  2  0
 15 16  1  0
 15 17  1  0
 17 18  1  0
 17 19  2  0
 19 20  1  0
 20 21  1  0
 20 22  1  0
 20 23  1  0
 10 24  1  0
 24 25  1  0
 24 26  1  0
 26 27  2  0
  6 28  1  0
 28 29  1  0
 28 30  2  0
 30 31  1  0
 30  2  1  0
 26  7  1  0
 19 11  1  0
M  END
>  <cnnaffinity>  (1) 
-6.05286

>  <filename>  (1) 
FC(F)(F)c1cccnc1-c1cn(-c2cccnc2)c(=S)[nH]1

$$$$
