
     RDKit          3D

 32 34  0  0  0  0  0  0  0  0999 V2000
    9.0315   -0.3802   20.2193 H   0  0  0  0  0  0  0  0  0  0  0  0
    8.3575   -0.8463   20.9361 C   0  0  0  0  0  0  0  0  0  0  0  0
    8.9299   -1.5663   21.9022 N   0  0  0  0  0  0  0  0  0  0  0  0
    8.1184   -2.1994   22.7951 C   0  0  0  0  0  0  0  0  0  0  0  0
    8.7891   -3.1205   23.7779 C   0  0  0  0  0  0  0  0  0  0  0  0
   10.1985   -3.1817   23.7839 C   0  0  0  0  0  0  0  0  0  0  0  0
   10.7471   -2.5320   23.1128 H   0  0  0  0  0  0  0  0  0  0  0  0
   10.8872   -4.0641   24.6058 C   0  0  0  0  0  0  0  0  0  0  0  0
   11.9650   -4.1267   24.5316 H   0  0  0  0  0  0  0  0  0  0  0  0
   10.2005   -4.9117   25.4660 C   0  0  0  0  0  0  0  0  0  0  0  0
   10.7370   -5.6233   26.0915 H   0  0  0  0  0  0  0  0  0  0  0  0
    8.7974   -4.8569   25.4958 C   0  0  0  0  0  0  0  0  0  0  0  0
    8.0921   -5.8037   26.4385 C   0  0  0  0  0  0  0  0  0  0  0  0
    8.6098   -7.0347   26.2960 F   0  0  0  0  0  0  0  0  0  0  0  0
    8.2694   -5.4697   27.7317 F   0  0  0  0  0  0  0  0  0  0  0  0
    6.7662   -5.8895   26.2289 F   0  0  0  0  0  0  0  0  0  0  0  0
    8.0947   -3.9859   24.6480 C   0  0  0  0  0  0  0  0  0  0  0  0
    7.0064   -3.9936   24.6936 H   0  0  0  0  0  0  0  0  0  0  0  0
    6.7161   -2.0000   22.6991 C   0  0  0  0  0  0  0  0  0  0  0  0
    6.0462   -2.4281   23.4375 H   0  0  0  0  0  0  0  0  0  0  0  0
    6.1379   -1.2613   21.7329 N   0  0  0  0  0  0  0  0  0  0  0  0
    6.9499   -0.6808   20.8233 C   0  0  0  0  0  0  0  0  0  0  0  0
    6.3330    0.1155   19.7237 C   0  0  0  0  0  0  0  0  0  0  0  0
    6.9576    0.1314   18.4630 C   0  0  0  0  0  0  0  0  0  0  0  0
    7.8873   -0.4133   18.3048 H   0  0  0  0  0  0  0  0  0  0  0  0
    6.4943    0.7763   17.3907 N   0  0  0  0  0  0  0  0  0  0  0  0
    5.3638    1.4820   17.5403 C   0  0  0  0  0  0  0  0  0  0  0  0
    5.0105    2.0123   16.6573 H   0  0  0  0  0  0  0  0  0  0  0  0
    4.6647    1.5568   18.7487 C   0  0  0  0  0  0  0  0  0  0  0  0
    3.7673    2.1659   18.8008 H   0  0  0  0  0  0  0  0  0  0  0  0
    5.1496    0.8666   19.8623 C   0  0  0  0  0  0  0  0  0  0  0  0
    4.6265    0.9222   20.8183 H   0  0  0  0  0  0  0  0  0  0  0  0
  1  2  1  0
  2  3  2  0
  3  4  1  0
  4  5  1  0
  5  6  2  0
  6  7  1  0
  6  8  1  0
  8  9  1  0
  8 10  2  0
 10 11  1  0
 10 12  1  0
 12 13  1  0
 13 14  1  0
 13 15  1  0
 13 16  1  0
 12 17  2  0
 17 18  1  0
  4 19  2  0
 19 20  1  0
 19 21  1  0
 21 22  2  0
 22 23  1  0
 23 24  2  0
 24 25  1  0
 24 26  1  0
 26 27  2  0
 27 28  1  0
 27 29  1  0
 29 30  1  0
 29 31  2  0
 31 32  1  0
 22  2  1  0
 31 23  1  0
 17  5  1  0
M  END
>  <cnnaffinity>  (1) 
-4.98168

>  <filename>  (1) 
FC(F)(F)c1cccc(-c2cnc(-c3cccnc3)cn2)c1

$$$$
