
     RDKit          3D

 31 33  0  0  0  0  0  0  0  0999 V2000
    4.9266    1.8156   16.9826 H   0  0  0  0  0  0  0  0  0  0  0  0
    5.3930    1.2986   17.8179 C   0  0  0  0  0  0  0  0  0  0  0  0
    6.5524    0.6804   17.5393 N   0  0  0  0  0  0  0  0  0  0  0  0
    7.1816    0.0654   18.5467 C   0  0  0  0  0  0  0  0  0  0  0  0
    8.1253   -0.4169   18.2959 H   0  0  0  0  0  0  0  0  0  0  0  0
    6.7023    0.0140   19.8729 C   0  0  0  0  0  0  0  0  0  0  0  0
    7.4458   -0.7034   20.9353 C   0  0  0  0  0  0  0  0  0  0  0  0
    9.1328   -1.1420   20.8418 S   0  0  0  0  0  0  0  0  0  0  0  0
    9.0978   -1.8901   22.3997 C   0  0  0  0  0  0  0  0  0  0  0  0
   10.0001   -2.3160   22.8331 H   0  0  0  0  0  0  0  0  0  0  0  0
    7.8574   -1.8402   22.9658 C   0  0  0  0  0  0  0  0  0  0  0  0
    7.4570   -2.4393   24.2807 C   0  0  0  0  0  0  0  0  0  0  0  0
    6.4774   -3.4486   24.2896 C   0  0  0  0  0  0  0  0  0  0  0  0
    6.0075   -3.6971   23.3439 H   0  0  0  0  0  0  0  0  0  0  0  0
    6.1115   -4.1190   25.4604 C   0  0  0  0  0  0  0  0  0  0  0  0
    5.3625   -4.9101   25.4349 H   0  0  0  0  0  0  0  0  0  0  0  0
    6.7157   -3.7664   26.6698 C   0  0  0  0  0  0  0  0  0  0  0  0
    6.4507   -4.2906   27.5879 H   0  0  0  0  0  0  0  0  0  0  0  0
    7.6492   -2.7285   26.6949 C   0  0  0  0  0  0  0  0  0  0  0  0
    8.1006   -2.4509   27.6434 H   0  0  0  0  0  0  0  0  0  0  0  0
    8.0036   -2.0416   25.5199 C   0  0  0  0  0  0  0  0  0  0  0  0
    8.9723   -0.8745   25.5908 C   0  0  0  0  0  0  0  0  0  0  0  0
   10.1855   -1.2223   25.1076 F   0  0  0  0  0  0  0  0  0  0  0  0
    9.1753   -0.4317   26.8428 F   0  0  0  0  0  0  0  0  0  0  0  0
    8.5552    0.1840   24.8726 F   0  0  0  0  0  0  0  0  0  0  0  0
    6.9255   -1.1787   22.1009 C   0  0  0  0  0  0  0  0  0  0  0  0
    5.8779   -1.0776   22.3272 H   0  0  0  0  0  0  0  0  0  0  0  0
    5.4727    0.6562   20.1310 C   0  0  0  0  0  0  0  0  0  0  0  0
    5.0431    0.6663   21.1342 H   0  0  0  0  0  0  0  0  0  0  0  0
    4.8107    1.3066   19.0879 C   0  0  0  0  0  0  0  0  0  0  0  0
    3.8736    1.8346   19.2417 H   0  0  0  0  0  0  0  0  0  0  0  0
  1  2  1  0
  2  3  2  0
  3  4  1  0
  4  5  1  0
  4  6  2  0
  6  7  1  0
  7  8  1  0
  8  9  1  0
  9 10  1  0
  9 11  2  0
 11 12  1  0
 12 13  2  0
 13 14  1  0
 13 15  1  0
 15 16  1  0
 15 17  2  0
 17 18  1  0
 17 19  1  0
 19 20  1  0
 19 21  2  0
 21 22  1  0
 22 23  1  0
 22 24  1  0
 22 25  1  0
 11 26  1  0
 26 27  1  0
  6 28  1  0
 28 29  1  0
 28 30  2  0
 30 31  1  0
 30  2  1  0
 26  7  2  0
 21 12  1  0
M  END
>  <cnnaffinity>  (1) 
-5.33264

>  <filename>  (1) 
FC(F)(F)c1ccccc1-c1csc(-c2cccnc2)c1

$$$$
