
     RDKit          3D

 37 38  0  0  0  0  0  0  0  0999 V2000
    3.3476   -7.6851   27.8563 F   0  0  0  0  0  0  0  0  0  0  0  0
    4.6052   -7.2267   28.0083 C   0  0  0  0  0  0  0  0  0  0  0  0
    4.6325   -6.5508   29.1745 F   0  0  0  0  0  0  0  0  0  0  0  0
    5.3977   -8.3033   28.1691 F   0  0  0  0  0  0  0  0  0  0  0  0
    5.0459   -6.3620   26.8477 C   0  0  0  0  0  0  0  0  0  0  0  0
    6.4028   -6.2985   26.5031 C   0  0  0  0  0  0  0  0  0  0  0  0
    6.8244   -5.5243   25.4260 C   0  0  0  0  0  0  0  0  0  0  0  0
    5.9030   -4.7497   24.7099 C   0  0  0  0  0  0  0  0  0  0  0  0
    6.3215   -3.8619   23.6817 N   0  0  0  0  0  0  0  0  0  0  0  0
    7.2944   -4.0830   22.7595 C   0  0  0  0  0  0  0  0  0  0  0  0
    7.6891   -5.5522   22.0955 S   0  0  0  0  0  0  0  0  0  0  0  0
    7.9512   -2.9656   22.3670 N   0  0  0  0  0  0  0  0  0  0  0  0
    7.9079   -1.6090   22.9050 C   0  0  0  0  0  0  0  0  0  0  0  0
    6.9143   -0.7287   22.1610 C   0  0  0  0  0  0  0  0  0  0  0  0
    7.4666   -0.4974   20.8655 O   0  0  0  0  0  0  0  0  0  0  0  0
    6.7006    0.0779   19.9063 C   0  0  0  0  0  0  0  0  0  0  0  0
    5.4647    0.6945   20.1305 C   0  0  0  0  0  0  0  0  0  0  0  0
    4.8263    1.3163   19.0503 C   0  0  0  0  0  0  0  0  0  0  0  0
    5.4285    1.2868   17.7923 C   0  0  0  0  0  0  0  0  0  0  0  0
    6.5971    0.6597   17.5568 N   0  0  0  0  0  0  0  0  0  0  0  0
    7.2110    0.0694   18.5873 C   0  0  0  0  0  0  0  0  0  0  0  0
    8.1508   -0.4441   18.3806 H   0  0  0  0  0  0  0  0  0  0  0  0
    4.9604    1.7742   16.9397 H   0  0  0  0  0  0  0  0  0  0  0  0
    3.8785    1.8264   19.1870 H   0  0  0  0  0  0  0  0  0  0  0  0
    5.0246    0.6902   21.1255 H   0  0  0  0  0  0  0  0  0  0  0  0
    6.7651    0.2239   22.6867 H   0  0  0  0  0  0  0  0  0  0  0  0
    5.9545   -1.2539   22.0696 H   0  0  0  0  0  0  0  0  0  0  0  0
    7.6979   -1.6324   23.9831 H   0  0  0  0  0  0  0  0  0  0  0  0
    8.8992   -1.1615   22.7915 H   0  0  0  0  0  0  0  0  0  0  0  0
    8.6250   -3.1786   21.6474 H   0  0  0  0  0  0  0  0  0  0  0  0
    6.1332   -2.8816   23.8295 H   0  0  0  0  0  0  0  0  0  0  0  0
    4.5521   -4.7876   25.0642 C   0  0  0  0  0  0  0  0  0  0  0  0
    4.1195   -5.6017   26.1163 C   0  0  0  0  0  0  0  0  0  0  0  0
    3.0606   -5.6597   26.3590 H   0  0  0  0  0  0  0  0  0  0  0  0
    3.8458   -4.1797   24.5108 H   0  0  0  0  0  0  0  0  0  0  0  0
    7.8688   -5.5178   25.1414 H   0  0  0  0  0  0  0  0  0  0  0  0
    7.1497   -6.8483   27.0667 H   0  0  0  0  0  0  0  0  0  0  0  0
  1  2  1  0
  2  3  1  0
  2  4  1  0
  2  5  1  0
  5  6  2  0
  6  7  1  0
  7  8  2  0
  8  9  1  0
  9 10  1  0
 10 11  2  0
 10 12  1  0
 12 13  1  0
 13 14  1  0
 14 15  1  0
 15 16  1  0
 16 17  2  0
 17 18  1  0
 18 19  2  0
 19 20  1  0
 20 21  2  0
 21 22  1  0
 19 23  1  0
 18 24  1  0
 17 25  1  0
 14 26  1  0
 14 27  1  0
 13 28  1  0
 13 29  1  0
 12 30  1  0
  9 31  1  0
  8 32  1  0
 32 33  2  0
 33 34  1  0
 32 35  1  0
  7 36  1  0
  6 37  1  0
 33  5  1  0
 21 16  1  0
M  END
>  <cnnaffinity>  (1) 
-5.01296

>  <filename>  (1) 
FC(F)(F)c1ccc(NC(=S)NCCOc2cccnc2)cc1

$$$$
