
     RDKit          3D

 25 26  0  0  0  0  0  0  0  0999 V2000
    6.7033   -1.4184   21.5794 H   0  0  0  0  0  0  0  0  0  0  0  0
    7.3236   -0.7224   21.0067 C   0  0  0  0  0  0  0  0  0  0  0  0
    8.5962   -0.4732   21.3702 C   0  0  0  0  0  0  0  0  0  0  0  0
    9.3547   -1.0780   22.4711 C   0  0  0  0  0  0  0  0  0  0  0  0
    8.7608   -2.2248   23.3056 C   0  0  0  0  0  0  0  0  0  0  0  0
    8.3552   -3.2443   22.5181 F   0  0  0  0  0  0  0  0  0  0  0  0
    7.6644   -1.8126   23.9788 F   0  0  0  0  0  0  0  0  0  0  0  0
    9.6274   -2.7120   24.1944 F   0  0  0  0  0  0  0  0  0  0  0  0
   10.4996   -0.5548   22.6926 N   0  0  0  0  0  0  0  0  0  0  0  0
   10.7243    0.5243   21.7319 C   0  0  0  0  0  0  0  0  0  0  0  0
   11.6565    0.3064   21.2104 H   0  0  0  0  0  0  0  0  0  0  0  0
   10.8704    1.4450   22.3006 H   0  0  0  0  0  0  0  0  0  0  0  0
    9.4899    0.5985   20.7970 C   0  0  0  0  0  0  0  0  0  0  0  0
    9.6897    0.3597   19.7522 H   0  0  0  0  0  0  0  0  0  0  0  0
    9.0111    1.5826   20.7943 H   0  0  0  0  0  0  0  0  0  0  0  0
    6.6435   -0.0175   19.9043 C   0  0  0  0  0  0  0  0  0  0  0  0
    7.1628    0.0643   18.5937 C   0  0  0  0  0  0  0  0  0  0  0  0
    8.1055   -0.4280   18.3706 H   0  0  0  0  0  0  0  0  0  0  0  0
    6.5611    0.6856   17.5695 N   0  0  0  0  0  0  0  0  0  0  0  0
    5.3985    1.3007   17.8326 C   0  0  0  0  0  0  0  0  0  0  0  0
    4.9184    1.7905   16.9886 H   0  0  0  0  0  0  0  0  0  0  0  0
    4.7994    1.3122   19.0991 C   0  0  0  0  0  0  0  0  0  0  0  0
    3.8712    1.8475   19.2508 H   0  0  0  0  0  0  0  0  0  0  0  0
    5.4220    0.6309   20.1473 C   0  0  0  0  0  0  0  0  0  0  0  0
    5.0062    0.6208   21.1571 H   0  0  0  0  0  0  0  0  0  0  0  0
  1  2  1  0
  2  3  2  3
  3  4  1  0
  4  5  1  0
  5  6  1  0
  5  7  1  0
  5  8  1  0
  4  9  2  0
  9 10  1  0
 10 11  1  0
 10 12  1  0
 10 13  1  0
 13 14  1  0
 13 15  1  0
  2 16  1  0
 16 17  2  0
 17 18  1  0
 17 19  1  0
 19 20  2  0
 20 21  1  0
 20 22  1  0
 22 23  1  0
 22 24  2  0
 24 25  1  0
 13  3  1  0
 24 16  1  0
M  END
>  <cnnaffinity>  (1) 
-4.79139

>  <filename>  (1) 
FC(F)(F)C1=NCCC1=Cc1cccnc1

$$$$
