
     RDKit          3D

 30 32  0  0  0  0  0  0  0  0999 V2000
    4.9212    1.7886   16.9919 H   0  0  0  0  0  0  0  0  0  0  0  0
    5.4002    1.2959   17.8361 C   0  0  0  0  0  0  0  0  0  0  0  0
    6.5640    0.6788   17.5745 N   0  0  0  0  0  0  0  0  0  0  0  0
    7.1679    0.0603   18.5929 C   0  0  0  0  0  0  0  0  0  0  0  0
    8.1126   -0.4264   18.3684 H   0  0  0  0  0  0  0  0  0  0  0  0
    6.6632    0.0020   19.9097 C   0  0  0  0  0  0  0  0  0  0  0  0
    7.3782   -0.7054   20.9930 C   0  0  0  0  0  0  0  0  0  0  0  0
    8.1281   -2.2355   20.8082 S   0  0  0  0  0  0  0  0  0  0  0  0
    8.5771   -2.4291   22.3848 N   0  0  0  0  0  0  0  0  0  0  0  0
    8.1959   -1.3769   23.0507 C   0  0  0  0  0  0  0  0  0  0  0  0
    8.4461   -1.3299   24.1067 H   0  0  0  0  0  0  0  0  0  0  0  0
    7.5195   -0.3474   22.3165 C   0  0  0  0  0  0  0  0  0  0  0  0
    7.1208    0.9298   22.9145 C   0  0  0  0  0  0  0  0  0  0  0  0
    7.4037    2.1465   22.2722 C   0  0  0  0  0  0  0  0  0  0  0  0
    7.8954    2.1140   21.3031 H   0  0  0  0  0  0  0  0  0  0  0  0
    7.0304    3.3533   22.8580 C   0  0  0  0  0  0  0  0  0  0  0  0
    7.2422    4.2895   22.3504 H   0  0  0  0  0  0  0  0  0  0  0  0
    6.3734    3.3599   24.0918 C   0  0  0  0  0  0  0  0  0  0  0  0
    6.0895    4.3060   24.5473 H   0  0  0  0  0  0  0  0  0  0  0  0
    6.0832    2.1478   24.7406 C   0  0  0  0  0  0  0  0  0  0  0  0
    5.4280    2.1451   26.1094 C   0  0  0  0  0  0  0  0  0  0  0  0
    4.6704    1.0501   26.3136 F   0  0  0  0  0  0  0  0  0  0  0  0
    4.6333    3.2161   26.2934 F   0  0  0  0  0  0  0  0  0  0  0  0
    6.3463    2.1683   27.0950 F   0  0  0  0  0  0  0  0  0  0  0  0
    6.4723    0.9375   24.1572 C   0  0  0  0  0  0  0  0  0  0  0  0
    6.2755   -0.0200   24.6396 H   0  0  0  0  0  0  0  0  0  0  0  0
    5.4344    0.6413   20.1540 C   0  0  0  0  0  0  0  0  0  0  0  0
    5.0173    0.6329   21.1626 H   0  0  0  0  0  0  0  0  0  0  0  0
    4.8021    1.3051   19.1011 C   0  0  0  0  0  0  0  0  0  0  0  0
    3.8741    1.8413   19.2519 H   0  0  0  0  0  0  0  0  0  0  0  0
  1  2  1  0
  2  3  2  0
  3  4  1  0
  4  5  1  0
  4  6  2  0
  6  7  1  0
  7  8  1  0
  8  9  1  0
  9 10  2  0
 10 11  1  0
 10 12  1  0
 12 13  1  0
 13 14  2  0
 14 15  1  0
 14 16  1  0
 16 17  1  0
 16 18  2  0
 18 19  1  0
 18 20  1  0
 20 21  1  0
 21 22  1  0
 21 23  1  0
 21 24  1  0
 20 25  2  0
 25 26  1  0
  6 27  1  0
 27 28  1  0
 27 29  2  0
 29 30  1  0
 29  2  1  0
 12  7  2  0
 25 13  1  0
M  END
>  <cnnaffinity>  (1) 
-4.98166

>  <filename>  (1) 
FC(F)(F)c1cccc(-c2cnsc2-c2cccnc2)c1

$$$$
