
     RDKit          3D

 37 40  0  0  0  0  0  0  0  0999 V2000
    5.0005    1.8366   16.9154 H   0  0  0  0  0  0  0  0  0  0  0  0
    5.3920    1.3068   17.7848 C   0  0  0  0  0  0  0  0  0  0  0  0
    6.5429    0.6421   17.6063 N   0  0  0  0  0  0  0  0  0  0  0  0
    7.0650    0.0233   18.6726 C   0  0  0  0  0  0  0  0  0  0  0  0
    7.9998   -0.5055   18.4948 H   0  0  0  0  0  0  0  0  0  0  0  0
    6.4816   -0.0002   19.9568 C   0  0  0  0  0  0  0  0  0  0  0  0
    7.2390   -0.6017   21.0732 C   0  0  0  0  0  0  0  0  0  0  0  0
    8.5962   -0.5401   21.3097 C   0  0  0  0  0  0  0  0  0  0  0  0
    8.8070   -1.1492   22.5371 C   0  0  0  0  0  0  0  0  0  0  0  0
    7.6919   -1.6100   23.0734 N   0  0  0  0  0  0  0  0  0  0  0  0
    6.7462   -1.2625   22.1643 N   0  0  0  0  0  0  0  0  0  0  0  0
    5.7836   -1.5233   22.3554 H   0  0  0  0  0  0  0  0  0  0  0  0
   10.2391   -1.1179   22.9723 C   0  0  0  0  0  0  0  0  0  0  0  0
   10.3564   -0.6539   23.9587 H   0  0  0  0  0  0  0  0  0  0  0  0
   10.6513   -2.1300   23.0437 H   0  0  0  0  0  0  0  0  0  0  0  0
   10.9422   -0.2941   21.8329 C   0  0  2  0  0  0  0  0  0  0  0  0
   11.7455   -0.9102   21.4136 H   0  0  0  0  0  0  0  0  0  0  0  0
   11.5535    0.9924   22.3333 C   0  0  0  0  0  0  0  0  0  0  0  0
   10.7298    2.0135   22.8461 C   0  0  0  0  0  0  0  0  0  0  0  0
    9.6604    1.8434   22.9499 H   0  0  0  0  0  0  0  0  0  0  0  0
   11.1685    3.2165   23.2249 N   0  0  0  0  0  0  0  0  0  0  0  0
   12.4861    3.4664   23.1243 C   0  0  0  0  0  0  0  0  0  0  0  0
   13.0178    4.8816   23.4331 C   0  0  0  0  0  0  0  0  0  0  0  0
   13.2827    5.5638   22.2996 F   0  0  0  0  0  0  0  0  0  0  0  0
   12.1865    5.6319   24.1603 F   0  0  0  0  0  0  0  0  0  0  0  0
   14.1844    4.8125   24.1114 F   0  0  0  0  0  0  0  0  0  0  0  0
   13.4023    2.4854   22.7167 C   0  0  0  0  0  0  0  0  0  0  0  0
   14.4565    2.7214   22.6846 H   0  0  0  0  0  0  0  0  0  0  0  0
   12.9348    1.2381   22.3136 C   0  0  0  0  0  0  0  0  0  0  0  0
   13.6439    0.4812   21.9766 H   0  0  0  0  0  0  0  0  0  0  0  0
    9.8656   -0.0533   20.7117 C   0  0  0  0  0  0  0  0  0  0  0  0
    9.7995    0.9935   20.3851 H   0  0  0  0  0  0  0  0  0  0  0  0
   10.1112   -0.6467   19.8284 H   0  0  0  0  0  0  0  0  0  0  0  0
    5.2554    0.6706   20.1107 C   0  0  0  0  0  0  0  0  0  0  0  0
    4.7508    0.7008   21.0788 H   0  0  0  0  0  0  0  0  0  0  0  0
    4.7159    1.3373   19.0102 C   0  0  0  0  0  0  0  0  0  0  0  0
    3.7987    1.9079   19.0885 H   0  0  0  0  0  0  0  0  0  0  0  0
  1  2  1  0
  2  3  2  0
  3  4  1  0
  4  5  1  0
  4  6  2  0
  6  7  1  0
  7  8  2  0
  8  9  1  0
  9 10  2  0
 10 11  1  0
 11 12  1  0
  9 13  1  0
 13 14  1  0
 13 15  1  0
 13 16  1  0
 16 17  1  6
 16 18  1  0
 18 19  2  0
 19 20  1  0
 19 21  1  0
 21 22  2  0
 22 23  1  0
 23 24  1  0
 23 25  1  0
 23 26  1  0
 22 27  1  0
 27 28  1  0
 27 29  2  0
 29 30  1  0
 16 31  1  0
 31 32  1  0
 31 33  1  0
  6 34  1  0
 34 35  1  0
 34 36  2  0
 36 37  1  0
 36  2  1  0
 11  7  1  0
 29 18  1  0
 31  8  1  0
M  END
>  <cnnaffinity>  (1) 
-5.65814

>  <filename>  (1) 
FC(F)(F)c1ccc([C@H]2Cc3n[nH]c(-c4cccnc4)c3C2)cn1

$$$$
