
     RDKit          3D

 33 35  0  0  0  0  0  0  0  0999 V2000
    6.6930   -1.3741   21.6100 H   0  0  0  0  0  0  0  0  0  0  0  0
    7.3207   -0.7140   21.0079 C   0  0  0  0  0  0  0  0  0  0  0  0
    8.6055   -0.5262   21.3587 C   0  0  0  0  0  0  0  0  0  0  0  0
    9.3890   -1.1478   22.4408 C   0  0  0  0  0  0  0  0  0  0  0  0
    8.9258   -2.3718   23.2252 C   0  0  0  0  0  0  0  0  0  0  0  0
    9.5488   -2.6284   24.3858 N   0  0  0  0  0  0  0  0  0  0  0  0
    9.1821   -3.7197   25.0502 C   0  0  0  0  0  0  0  0  0  0  0  0
    9.7151   -3.9125   25.9771 H   0  0  0  0  0  0  0  0  0  0  0  0
    8.1923   -4.5860   24.5988 C   0  0  0  0  0  0  0  0  0  0  0  0
    7.9166   -5.4671   25.1643 H   0  0  0  0  0  0  0  0  0  0  0  0
    7.5847   -4.2424   23.3912 C   0  0  0  0  0  0  0  0  0  0  0  0
    6.4677   -5.1567   22.8137 C   0  0  0  0  0  0  0  0  0  0  0  0
    5.9328   -4.7129   21.6745 F   0  0  0  0  0  0  0  0  0  0  0  0
    6.9426   -6.3999   22.5834 F   0  0  0  0  0  0  0  0  0  0  0  0
    5.4634   -5.3024   23.7044 F   0  0  0  0  0  0  0  0  0  0  0  0
    7.9461   -3.1378   22.7210 N   0  0  0  0  0  0  0  0  0  0  0  0
   10.5074   -0.5525   22.6747 N   0  0  0  0  0  0  0  0  0  0  0  0
   10.6808    0.5585   21.7501 C   0  0  0  0  0  0  0  0  0  0  0  0
   11.6502    0.4453   21.2620 H   0  0  0  0  0  0  0  0  0  0  0  0
   10.7136    1.4863   22.3293 H   0  0  0  0  0  0  0  0  0  0  0  0
    9.4856    0.5486   20.7701 C   0  0  0  0  0  0  0  0  0  0  0  0
    9.7310    0.2498   19.7515 H   0  0  0  0  0  0  0  0  0  0  0  0
    8.9860    1.5194   20.6886 H   0  0  0  0  0  0  0  0  0  0  0  0
    6.6471   -0.0093   19.9023 C   0  0  0  0  0  0  0  0  0  0  0  0
    7.1654    0.0676   18.5911 C   0  0  0  0  0  0  0  0  0  0  0  0
    8.1081   -0.4283   18.3719 H   0  0  0  0  0  0  0  0  0  0  0  0
    6.5630    0.6863   17.5668 N   0  0  0  0  0  0  0  0  0  0  0  0
    5.3994    1.3001   17.8328 C   0  0  0  0  0  0  0  0  0  0  0  0
    4.9153    1.7866   16.9904 H   0  0  0  0  0  0  0  0  0  0  0  0
    4.7989    1.3145   19.0988 C   0  0  0  0  0  0  0  0  0  0  0  0
    3.8683    1.8488   19.2539 H   0  0  0  0  0  0  0  0  0  0  0  0
    5.4215    0.6370   20.1466 C   0  0  0  0  0  0  0  0  0  0  0  0
    5.0067    0.6236   21.1574 H   0  0  0  0  0  0  0  0  0  0  0  0
  1  2  1  0
  2  3  2  3
  3  4  1  0
  4  5  1  0
  5  6  2  0
  6  7  1  0
  7  8  1  0
  7  9  2  0
  9 10  1  0
  9 11  1  0
 11 12  1  0
 12 13  1  0
 12 14  1  0
 12 15  1  0
 11 16  2  0
  4 17  2  0
 17 18  1  0
 18 19  1  0
 18 20  1  0
 18 21  1  0
 21 22  1  0
 21 23  1  0
  2 24  1  0
 24 25  2  0
 25 26  1  0
 25 27  1  0
 27 28  2  0
 28 29  1  0
 28 30  1  0
 30 31  1  0
 30 32  2  0
 32 33  1  0
 21  3  1  0
 32 24  1  0
 16  5  1  0
M  END
>  <cnnaffinity>  (1) 
-5.91759

>  <filename>  (1) 
FC(F)(F)c1ccnc(C2=NCCC2=Cc2cccnc2)n1

$$$$
