
     RDKit          3D

 38 41  0  0  0  0  0  0  0  0999 V2000
    5.0708    1.7924   16.8414 H   0  0  0  0  0  0  0  0  0  0  0  0
    5.5252    1.3199   17.7100 C   0  0  0  0  0  0  0  0  0  0  0  0
    6.6950    0.6996   17.4992 N   0  0  0  0  0  0  0  0  0  0  0  0
    7.2787    0.1133   18.5500 C   0  0  0  0  0  0  0  0  0  0  0  0
    8.2339   -0.3670   18.3509 H   0  0  0  0  0  0  0  0  0  0  0  0
    6.7209    0.0898   19.8464 C   0  0  0  0  0  0  0  0  0  0  0  0
    7.3723   -0.6806   20.9240 C   0  0  0  0  0  0  0  0  0  0  0  0
    8.5791   -1.2293   20.7151 N   0  0  0  0  0  0  0  0  0  0  0  0
    8.7990   -1.9069   21.8572 N   0  0  0  0  0  0  0  0  0  0  0  0
    9.8496   -2.6529   22.3643 C   0  0  0  0  0  0  0  0  0  0  0  0
   10.7671   -2.7318   21.8167 H   0  0  0  0  0  0  0  0  0  0  0  0
    9.4183   -3.1294   23.5619 C   0  0  0  0  0  0  0  0  0  0  0  0
    9.9151   -3.7386   24.3038 H   0  0  0  0  0  0  0  0  0  0  0  0
    8.1235   -2.6780   23.7958 N   0  0  0  0  0  0  0  0  0  0  0  0
    7.2126   -3.1797   24.8156 C   0  0  0  0  0  0  0  0  0  0  0  0
    7.8102   -3.6942   25.5751 H   0  0  0  0  0  0  0  0  0  0  0  0
    6.7571   -2.3124   25.3085 H   0  0  0  0  0  0  0  0  0  0  0  0
    6.1198   -4.1270   24.3152 C   0  0  0  0  0  0  0  0  0  0  0  0
    6.3883   -5.4462   23.9045 C   0  0  0  0  0  0  0  0  0  0  0  0
    7.4024   -5.8380   23.9812 H   0  0  0  0  0  0  0  0  0  0  0  0
    5.3552   -6.2884   23.4722 C   0  0  0  0  0  0  0  0  0  0  0  0
    5.5897   -7.3033   23.1528 H   0  0  0  0  0  0  0  0  0  0  0  0
    4.0174   -5.8413   23.4912 C   0  0  0  0  0  0  0  0  0  0  0  0
    2.8824   -6.7514   23.0519 C   0  0  0  0  0  0  0  0  0  0  0  0
    3.0301   -7.1578   21.7780 F   0  0  0  0  0  0  0  0  0  0  0  0
    2.8198   -7.8654   23.8079 F   0  0  0  0  0  0  0  0  0  0  0  0
    1.6678   -6.1674   23.1281 F   0  0  0  0  0  0  0  0  0  0  0  0
    3.7465   -4.5379   23.9302 C   0  0  0  0  0  0  0  0  0  0  0  0
    2.7180   -4.1911   24.0003 H   0  0  0  0  0  0  0  0  0  0  0  0
    4.7892   -3.6908   24.3054 C   0  0  0  0  0  0  0  0  0  0  0  0
    4.5532   -2.6780   24.6193 H   0  0  0  0  0  0  0  0  0  0  0  0
    7.7779   -1.8631   22.7375 C   0  0  0  0  0  0  0  0  0  0  0  0
    6.8356   -0.9978   22.2000 C   0  0  0  0  0  0  0  0  0  0  0  0
    5.9784   -0.5763   22.6845 H   0  0  0  0  0  0  0  0  0  0  0  0
    5.5012    0.7573   20.0487 C   0  0  0  0  0  0  0  0  0  0  0  0
    5.0282    0.7871   21.0343 H   0  0  0  0  0  0  0  0  0  0  0  0
    4.8963    1.3793   18.9588 C   0  0  0  0  0  0  0  0  0  0  0  0
    3.9579    1.9116   19.0635 H   0  0  0  0  0  0  0  0  0  0  0  0
  1  2  1  0
  2  3  2  0
  3  4  1  0
  4  5  1  0
  4  6  2  0
  6  7  1  0
  7  8  2  0
  8  9  1  0
  9 10  1  0
 10 11  1  0
 10 12  2  0
 12 13  1  0
 12 14  1  0
 14 15  1  0
 15 16  1  0
 15 17  1  0
 15 18  1  0
 18 19  2  0
 19 20  1  0
 19 21  1  0
 21 22  1  0
 21 23  2  0
 23 24  1  0
 24 25  1  0
 24 26  1  0
 24 27  1  0
 23 28  1  0
 28 29  1  0
 28 30  2  0
 30 31  1  0
 14 32  1  0
 32 33  2  0
 33 34  1  0
  6 35  1  0
 35 36  1  0
 35 37  2  0
 37 38  1  0
 37  2  1  0
 33  7  1  0
 32  9  1  0
 30 18  1  0
M  END
>  <cnnaffinity>  (1) 
-5.94086

>  <filename>  (1) 
FC(F)(F)c1ccc(Cn2ccn3nc(-c4cccnc4)cc23)cc1

$$$$
