
     RDKit          3D

 20 21  0  0  0  0  0  0  0  0999 V2000
    8.7991   -3.2024   22.1182 H   0  0  0  0  0  0  0  0  0  0  0  0
    8.3506   -2.2455   21.9040 C   0  0  0  0  0  0  0  0  0  0  0  0
    8.3673   -1.2380   22.8079 N   0  0  0  0  0  0  0  0  0  0  0  0
    7.7517   -0.2744   22.1639 C   0  0  0  0  0  0  0  0  0  0  0  0
    7.5136    1.1178   22.6944 C   0  0  0  0  0  0  0  0  0  0  0  0
    6.2799    1.2238   23.2275 F   0  0  0  0  0  0  0  0  0  0  0  0
    8.3977    1.4080   23.6468 F   0  0  0  0  0  0  0  0  0  0  0  0
    7.6182    2.0600   21.7438 F   0  0  0  0  0  0  0  0  0  0  0  0
    7.3619   -0.6934   20.9294 N   0  0  0  0  0  0  0  0  0  0  0  0
    6.6597    0.0088   19.9056 C   0  0  0  0  0  0  0  0  0  0  0  0
    7.1821    0.0522   18.6009 C   0  0  0  0  0  0  0  0  0  0  0  0
    8.1298   -0.4392   18.3824 H   0  0  0  0  0  0  0  0  0  0  0  0
    6.5715    0.6788   17.5933 N   0  0  0  0  0  0  0  0  0  0  0  0
    5.4015    1.2917   17.8464 C   0  0  0  0  0  0  0  0  0  0  0  0
    4.9089    1.7733   17.0040 H   0  0  0  0  0  0  0  0  0  0  0  0
    4.8067    1.3071   19.1118 C   0  0  0  0  0  0  0  0  0  0  0  0
    3.8728    1.8443   19.2677 H   0  0  0  0  0  0  0  0  0  0  0  0
    5.4432    0.6474   20.1675 C   0  0  0  0  0  0  0  0  0  0  0  0
    5.0071    0.6291   21.1632 H   0  0  0  0  0  0  0  0  0  0  0  0
    7.7705   -1.9639   20.7559 N   0  0  0  0  0  0  0  0  0  0  0  0
  1  2  1  0
  2  3  1  0
  3  4  2  0
  4  5  1  0
  5  6  1  0
  5  7  1  0
  5  8  1  0
  4  9  1  0
  9 10  1  0
 10 11  2  0
 11 12  1  0
 11 13  1  0
 13 14  2  0
 14 15  1  0
 14 16  1  0
 16 17  1  0
 16 18  2  0
 18 19  1  0
  9 20  1  0
 20  2  2  0
 18 10  1  0
M  END
>  <cnnaffinity>  (1) 
-4.45954

>  <filename>  (1) 
FC(F)(F)c1ncnn1-c1cccnc1

$$$$
