
     RDKit          3D

 27 29  0  0  0  0  0  0  0  0999 V2000
    6.9563    4.1980   21.7186 H   0  0  0  0  0  0  0  0  0  0  0  0
    7.1530    3.3771   22.4015 C   0  0  0  0  0  0  0  0  0  0  0  0
    7.2803    2.1577   21.8678 N   0  0  0  0  0  0  0  0  0  0  0  0
    7.5078    1.1699   22.7331 C   0  0  0  0  0  0  0  0  0  0  0  0
    7.6681   -0.1788   22.2178 C   0  0  0  0  0  0  0  0  0  0  0  0
    8.3787   -1.4305   23.1053 S   0  0  0  0  0  0  0  0  0  0  0  0
    8.3013   -2.4895   21.7861 N   0  0  0  0  0  0  0  0  0  0  0  0
    7.7628   -1.9384   20.7747 N   0  0  0  0  0  0  0  0  0  0  0  0
    7.3601   -0.6463   20.9670 C   0  0  0  0  0  0  0  0  0  0  0  0
    6.6360    0.0255   19.8999 C   0  0  0  0  0  0  0  0  0  0  0  0
    7.1670    0.0539   18.6019 C   0  0  0  0  0  0  0  0  0  0  0  0
    8.1151   -0.4372   18.3857 H   0  0  0  0  0  0  0  0  0  0  0  0
    6.5705    0.6767   17.5835 N   0  0  0  0  0  0  0  0  0  0  0  0
    5.4038    1.2920   17.8359 C   0  0  0  0  0  0  0  0  0  0  0  0
    4.9292    1.7850   16.9931 H   0  0  0  0  0  0  0  0  0  0  0  0
    4.7895    1.2998   19.0919 C   0  0  0  0  0  0  0  0  0  0  0  0
    3.8717    1.8444   19.2536 H   0  0  0  0  0  0  0  0  0  0  0  0
    5.4037    0.6336   20.1456 C   0  0  0  0  0  0  0  0  0  0  0  0
    4.9946    0.6466   21.1579 H   0  0  0  0  0  0  0  0  0  0  0  0
    7.6320    1.3098   24.0582 N   0  0  0  0  0  0  0  0  0  0  0  0
    7.5059    2.5309   24.5893 C   0  0  0  0  0  0  0  0  0  0  0  0
    7.6527    2.7521   26.1334 C   0  0  0  0  0  0  0  0  0  0  0  0
    7.8779    1.6369   26.8257 F   0  0  0  0  0  0  0  0  0  0  0  0
    8.6613    3.6114   26.3974 F   0  0  0  0  0  0  0  0  0  0  0  0
    6.5427    3.3321   26.6395 F   0  0  0  0  0  0  0  0  0  0  0  0
    7.2557    3.6349   23.7667 C   0  0  0  0  0  0  0  0  0  0  0  0
    7.1562    4.6400   24.1597 H   0  0  0  0  0  0  0  0  0  0  0  0
  1  2  1  0
  2  3  2  0
  3  4  1  0
  4  5  1  0
  5  6  1  0
  6  7  1  0
  7  8  2  0
  8  9  1  0
  9 10  1  0
 10 11  2  0
 11 12  1  0
 11 13  1  0
 13 14  2  0
 14 15  1  0
 14 16  1  0
 16 17  1  0
 16 18  2  0
 18 19  1  0
  4 20  2  0
 20 21  1  0
 21 22  1  0
 22 23  1  0
 22 24  1  0
 22 25  1  0
 21 26  2  0
 26 27  1  0
 26  2  1  0
  9  5  2  0
 18 10  1  0
M  END
>  <cnnaffinity>  (1) 
-5.10898

>  <filename>  (1) 
FC(F)(F)c1ccnc(-c2snnc2-c2cccnc2)n1

$$$$
