
     RDKit          3D

 31 33  0  0  0  0  0  0  0  0999 V2000
    5.1953    2.0401   27.9064 F   0  0  0  0  0  0  0  0  0  0  0  0
    5.6568    1.5012   26.7869 C   0  0  0  0  0  0  0  0  0  0  0  0
    6.7196    0.7372   27.0893 F   0  0  0  0  0  0  0  0  0  0  0  0
    4.7194    0.6724   26.2990 F   0  0  0  0  0  0  0  0  0  0  0  0
    5.9546    2.5344   25.9444 O   0  0  0  0  0  0  0  0  0  0  0  0
    6.4697    2.3342   24.6569 C   0  0  0  0  0  0  0  0  0  0  0  0
    6.7399    3.4837   23.8848 C   0  0  0  0  0  0  0  0  0  0  0  0
    7.2508    3.4350   22.6470 N   0  0  0  0  0  0  0  0  0  0  0  0
    7.4985    2.2293   22.1235 C   0  0  0  0  0  0  0  0  0  0  0  0
    7.2378    1.0247   22.8033 C   0  0  0  0  0  0  0  0  0  0  0  0
    7.5554   -0.2960   22.2403 C   0  0  0  0  0  0  0  0  0  0  0  0
    8.1743   -1.3466   22.8770 C   0  0  0  0  0  0  0  0  0  0  0  0
    8.3377   -2.3222   21.8815 C   0  0  0  0  0  0  0  0  0  0  0  0
    7.8554   -1.9295   20.7133 N   0  0  0  0  0  0  0  0  0  0  0  0
    7.3563   -0.6974   20.9353 N   0  0  0  0  0  0  0  0  0  0  0  0
    6.6501   -0.0121   19.9096 C   0  0  0  0  0  0  0  0  0  0  0  0
    5.4340    0.6366   20.1693 C   0  0  0  0  0  0  0  0  0  0  0  0
    4.8115    1.3006   19.1095 C   0  0  0  0  0  0  0  0  0  0  0  0
    5.4096    1.2906   17.8449 C   0  0  0  0  0  0  0  0  0  0  0  0
    6.5756    0.6710   17.5972 N   0  0  0  0  0  0  0  0  0  0  0  0
    7.1759    0.0383   18.6064 C   0  0  0  0  0  0  0  0  0  0  0  0
    8.1239   -0.4403   18.3785 H   0  0  0  0  0  0  0  0  0  0  0  0
    4.9269    1.7807   16.9984 H   0  0  0  0  0  0  0  0  0  0  0  0
    3.8808    1.8384   19.2597 H   0  0  0  0  0  0  0  0  0  0  0  0
    5.0104    0.6390   21.1760 H   0  0  0  0  0  0  0  0  0  0  0  0
    8.7905   -3.3014   21.9725 H   0  0  0  0  0  0  0  0  0  0  0  0
    8.4982   -1.3624   23.9089 H   0  0  0  0  0  0  0  0  0  0  0  0
    6.7275    1.0837   24.1143 C   0  0  0  0  0  0  0  0  0  0  0  0
    6.5384    0.1706   24.6728 H   0  0  0  0  0  0  0  0  0  0  0  0
    7.9150    2.1998   21.1187 H   0  0  0  0  0  0  0  0  0  0  0  0
    6.5495    4.4711   24.2772 H   0  0  0  0  0  0  0  0  0  0  0  0
  1  2  1  0
  2  3  1  0
  2  4  1  0
  2  5  1  0
  5  6  1  0
  6  7  2  0
  7  8  1  0
  8  9  2  0
  9 10  1  0
 10 11  1  0
 11 12  2  0
 12 13  1  0
 13 14  2  0
 14 15  1  0
 15 16  1  0
 16 17  2  0
 17 18  1  0
 18 19  2  0
 19 20  1  0
 20 21  2  0
 21 22  1  0
 19 23  1  0
 18 24  1  0
 17 25  1  0
 13 26  1  0
 12 27  1  0
 10 28  2  0
 28 29  1  0
  9 30  1  0
  7 31  1  0
 28  6  1  0
 15 11  1  0
 21 16  1  0
M  END
>  <cnnaffinity>  (1) 
-5.42155

>  <filename>  (1) 
FC(F)(F)Oc1cncc(-c2ccnn2-c2cccnc2)c1

$$$$
