
     RDKit          3D

 31 33  0  0  0  0  0  0  0  0999 V2000
    5.0455    2.4392   16.5573 H   0  0  0  0  0  0  0  0  0  0  0  0
    5.4299    1.7626   17.3211 C   0  0  0  0  0  0  0  0  0  0  0  0
    6.5525    1.0956   17.0152 N   0  0  0  0  0  0  0  0  0  0  0  0
    7.0459    0.2692   17.9468 C   0  0  0  0  0  0  0  0  0  0  0  0
    7.9756   -0.2372   17.6881 H   0  0  0  0  0  0  0  0  0  0  0  0
    6.4546    0.0352   19.1983 C   0  0  0  0  0  0  0  0  0  0  0  0
    7.0713   -0.8922   20.2203 C   0  0  0  0  0  0  0  0  0  0  0  0
    7.0539   -0.4016   21.2020 H   0  0  0  0  0  0  0  0  0  0  0  0
    8.1293   -1.0626   19.9855 H   0  0  0  0  0  0  0  0  0  0  0  0
    6.4364   -2.2495   20.3513 C   0  0  0  0  0  0  0  0  0  0  0  0
    5.8518   -2.9789   19.4304 N   0  0  0  0  0  0  0  0  0  0  0  0
    5.5952   -4.1765   20.0061 N   0  0  0  0  0  0  0  0  0  0  0  0
    5.9704   -4.1990   21.2316 N   0  0  0  0  0  0  0  0  0  0  0  0
    6.5190   -2.9923   21.4874 N   0  0  0  0  0  0  0  0  0  0  0  0
    6.9329   -2.6078   22.7939 C   0  0  0  0  0  0  0  0  0  0  0  0
    8.2586   -2.2364   23.0682 C   0  0  0  0  0  0  0  0  0  0  0  0
    9.0062   -2.2658   22.2782 H   0  0  0  0  0  0  0  0  0  0  0  0
    8.6536   -1.8160   24.2677 N   0  0  0  0  0  0  0  0  0  0  0  0
    7.7394   -1.7029   25.2511 C   0  0  0  0  0  0  0  0  0  0  0  0
    8.2145   -1.1675   26.6102 C   0  0  0  0  0  0  0  0  0  0  0  0
    7.2079   -0.5384   27.2590 F   0  0  0  0  0  0  0  0  0  0  0  0
    9.2272   -0.2987   26.5129 F   0  0  0  0  0  0  0  0  0  0  0  0
    8.6138   -2.1710   27.4118 F   0  0  0  0  0  0  0  0  0  0  0  0
    6.3905   -2.0700   25.0723 C   0  0  0  0  0  0  0  0  0  0  0  0
    5.6510   -1.9357   25.8572 H   0  0  0  0  0  0  0  0  0  0  0  0
    5.9982   -2.5633   23.8320 C   0  0  0  0  0  0  0  0  0  0  0  0
    4.9766   -2.8767   23.6230 H   0  0  0  0  0  0  0  0  0  0  0  0
    5.2759    0.7273   19.4886 C   0  0  0  0  0  0  0  0  0  0  0  0
    4.7803    0.5709   20.4483 H   0  0  0  0  0  0  0  0  0  0  0  0
    4.7628    1.6182   18.5411 C   0  0  0  0  0  0  0  0  0  0  0  0
    3.8823    2.2143   18.7426 H   0  0  0  0  0  0  0  0  0  0  0  0
  1  2  1  0
  2  3  2  0
  3  4  1  0
  4  5  1  0
  4  6  2  0
  6  7  1  0
  7  8  1  0
  7  9  1  0
  7 10  1  0
 10 11  2  0
 11 12  1  0
 12 13  2  0
 13 14  1  0
 14 15  1  0
 15 16  2  0
 16 17  1  0
 16 18  1  0
 18 19  2  0
 19 20  1  0
 20 21  1  0
 20 22  1  0
 20 23  1  0
 19 24  1  0
 24 25  1  0
 24 26  2  0
 26 27  1  0
  6 28  1  0
 28 29  1  0
 28 30  2  0
 30 31  1  0
 30  2  1  0
 14 10  1  0
 26 15  1  0
M  END
>  <cnnaffinity>  (1) 
-5.47592

>  <filename>  (1) 
FC(F)(F)c1ccc(-n2nnnc2Cc2cccnc2)cn1

$$$$
