
     RDKit          3D

 29 31  0  0  0  0  0  0  0  0999 V2000
    4.9498    1.8029   16.9703 H   0  0  0  0  0  0  0  0  0  0  0  0
    5.3999    1.3024   17.8276 C   0  0  0  0  0  0  0  0  0  0  0  0
    6.5643    0.6739   17.6010 N   0  0  0  0  0  0  0  0  0  0  0  0
    7.1556    0.0684   18.6332 C   0  0  0  0  0  0  0  0  0  0  0  0
    8.0897   -0.4469   18.4082 H   0  0  0  0  0  0  0  0  0  0  0  0
    6.6392    0.0708   19.9368 C   0  0  0  0  0  0  0  0  0  0  0  0
    7.3749   -0.6625   20.9781 C   0  0  0  0  0  0  0  0  0  0  0  0
    7.9295   -1.8277   20.8041 N   0  0  0  0  0  0  0  0  0  0  0  0
    8.3941   -2.2667   22.0202 N   0  0  0  0  0  0  0  0  0  0  0  0
    8.1265   -1.3452   22.8971 C   0  0  0  0  0  0  0  0  0  0  0  0
    8.3802   -1.3956   23.9500 H   0  0  0  0  0  0  0  0  0  0  0  0
    7.5016   -0.2823   22.2941 N   0  0  0  0  0  0  0  0  0  0  0  0
    7.2153    0.9542   22.8785 C   0  0  0  0  0  0  0  0  0  0  0  0
    6.8048    0.8944   24.1394 N   0  0  0  0  0  0  0  0  0  0  0  0
    6.4738    2.0353   24.7398 C   0  0  0  0  0  0  0  0  0  0  0  0
    6.1001    1.9318   25.7556 H   0  0  0  0  0  0  0  0  0  0  0  0
    6.6016    3.2734   24.1189 C   0  0  0  0  0  0  0  0  0  0  0  0
    6.2973    4.4995   24.8975 C   0  0  0  0  0  0  0  0  0  0  0  0
    5.3425    4.2886   25.8233 F   0  0  0  0  0  0  0  0  0  0  0  0
    7.3800    4.9519   25.5590 F   0  0  0  0  0  0  0  0  0  0  0  0
    5.8713    5.4993   24.1064 F   0  0  0  0  0  0  0  0  0  0  0  0
    7.0895    3.3359   22.8000 C   0  0  0  0  0  0  0  0  0  0  0  0
    7.2067    4.2865   22.2841 H   0  0  0  0  0  0  0  0  0  0  0  0
    7.4017    2.1442   22.1663 C   0  0  0  0  0  0  0  0  0  0  0  0
    7.7580    2.0881   21.1467 H   0  0  0  0  0  0  0  0  0  0  0  0
    5.3959    0.6880   20.1497 C   0  0  0  0  0  0  0  0  0  0  0  0
    4.9320    0.6663   21.1354 H   0  0  0  0  0  0  0  0  0  0  0  0
    4.7761    1.3272   19.0782 C   0  0  0  0  0  0  0  0  0  0  0  0
    3.8373    1.8554   19.2035 H   0  0  0  0  0  0  0  0  0  0  0  0
  1  2  1  0
  2  3  2  0
  3  4  1  0
  4  5  1  0
  4  6  2  0
  6  7  1  0
  7  8  2  0
  8  9  1  0
  9 10  2  0
 10 11  1  0
 10 12  1  0
 12 13  1  0
 13 14  2  0
 14 15  1  0
 15 16  1  0
 15 17  2  0
 17 18  1  0
 18 19  1  0
 18 20  1  0
 18 21  1  0
 17 22  1  0
 22 23  1  0
 22 24  2  0
 24 25  1  0
  6 26  1  0
 26 27  1  0
 26 28  2  0
 28 29  1  0
 28  2  1  0
 12  7  1  0
 24 13  1  0
M  END
>  <cnnaffinity>  (1) 
-5.15608

>  <filename>  (1) 
FC(F)(F)c1ccc(-n2cnnc2-c2cccnc2)nc1

$$$$
