
     RDKit          3D

 34 36  0  0  0  0  0  0  0  0999 V2000
    4.9409    1.8346   16.9566 H   0  0  0  0  0  0  0  0  0  0  0  0
    5.3931    1.3105   17.7959 C   0  0  0  0  0  0  0  0  0  0  0  0
    6.5471    0.6702   17.5517 N   0  0  0  0  0  0  0  0  0  0  0  0
    7.1400    0.0554   18.5878 C   0  0  0  0  0  0  0  0  0  0  0  0
    8.0757   -0.4515   18.3520 H   0  0  0  0  0  0  0  0  0  0  0  0
    6.6264    0.0168   19.9031 C   0  0  0  0  0  0  0  0  0  0  0  0
    7.3688   -0.6821   20.9912 C   0  0  0  0  0  0  0  0  0  0  0  0
    8.6932   -0.6010   21.3977 C   0  0  0  0  0  0  0  0  0  0  0  0
    9.7360    0.4187   21.0024 C   0  0  0  0  0  0  0  0  0  0  0  0
    9.4678    0.8195   20.0192 H   0  0  0  0  0  0  0  0  0  0  0  0
   10.7139   -0.0510   20.8839 H   0  0  0  0  0  0  0  0  0  0  0  0
    9.7954    1.5911   21.9804 C   0  0  0  0  0  0  0  0  0  0  0  0
    8.6898    2.4548   22.0119 C   0  0  0  0  0  0  0  0  0  0  0  0
    7.8574    2.2682   21.3356 H   0  0  0  0  0  0  0  0  0  0  0  0
    8.6553    3.5691   22.8520 C   0  0  0  0  0  0  0  0  0  0  0  0
    7.8029    4.2432   22.8335 H   0  0  0  0  0  0  0  0  0  0  0  0
    9.7461    3.8465   23.6762 C   0  0  0  0  0  0  0  0  0  0  0  0
    9.7505    4.7379   24.2960 H   0  0  0  0  0  0  0  0  0  0  0  0
   10.8498    2.9955   23.6722 C   0  0  0  0  0  0  0  0  0  0  0  0
   11.7071    3.2357   24.2959 H   0  0  0  0  0  0  0  0  0  0  0  0
   10.8767    1.8584   22.8461 C   0  0  0  0  0  0  0  0  0  0  0  0
   12.1533    1.0473   22.7650 C   0  0  0  0  0  0  0  0  0  0  0  0
   11.9427   -0.2866   22.7669 F   0  0  0  0  0  0  0  0  0  0  0  0
   12.8001    1.3270   21.6261 F   0  0  0  0  0  0  0  0  0  0  0  0
   13.0082    1.2952   23.7739 F   0  0  0  0  0  0  0  0  0  0  0  0
    8.7973   -1.5304   22.4613 C   0  0  0  0  0  0  0  0  0  0  0  0
    9.6753   -1.7506   23.0517 H   0  0  0  0  0  0  0  0  0  0  0  0
    7.6460   -2.1377   22.7179 N   0  0  0  0  0  0  0  0  0  0  0  0
    6.7991   -1.5951   21.8253 N   0  0  0  0  0  0  0  0  0  0  0  0
    5.8321   -1.8766   21.8299 H   0  0  0  0  0  0  0  0  0  0  0  0
    5.3938    0.6702   20.1150 C   0  0  0  0  0  0  0  0  0  0  0  0
    4.9378    0.6853   21.1061 H   0  0  0  0  0  0  0  0  0  0  0  0
    4.7755    1.3308   19.0502 C   0  0  0  0  0  0  0  0  0  0  0  0
    3.8431    1.8755   19.1797 H   0  0  0  0  0  0  0  0  0  0  0  0
  1  2  1  0
  2  3  2  0
  3  4  1  0
  4  5  1  0
  4  6  2  0
  6  7  1  0
  7  8  2  0
  8  9  1  0
  9 10  1  0
  9 11  1  0
  9 12  1  0
 12 13  2  0
 13 14  1  0
 13 15  1  0
 15 16  1  0
 15 17  2  0
 17 18  1  0
 17 19  1  0
 19 20  1  0
 19 21  2  0
 21 22  1  0
 22 23  1  0
 22 24  1  0
 22 25  1  0
  8 26  1  0
 26 27  1  0
 26 28  2  0
 28 29  1  0
 29 30  1  0
  6 31  1  0
 31 32  1  0
 31 33  2  0
 33 34  1  0
 33  2  1  0
 29  7  1  0
 21 12  1  0
M  END
>  <cnnaffinity>  (1) 
-5.88776

>  <filename>  (1) 
FC(F)(F)c1ccccc1Cc1cn[nH]c1-c1cccnc1

$$$$
