
     RDKit          3D

 20 21  0  0  0  0  0  0  0  0999 V2000
    4.9083    1.7704   17.0082 H   0  0  0  0  0  0  0  0  0  0  0  0
    5.4021    1.2893   17.8502 C   0  0  0  0  0  0  0  0  0  0  0  0
    6.5709    0.6816   17.5926 N   0  0  0  0  0  0  0  0  0  0  0  0
    7.1810    0.0568   18.6009 C   0  0  0  0  0  0  0  0  0  0  0  0
    8.1290   -0.4373   18.3808 H   0  0  0  0  0  0  0  0  0  0  0  0
    6.6563    0.0090   19.8969 C   0  0  0  0  0  0  0  0  0  0  0  0
    7.3830   -0.7236   20.9285 C   0  0  0  0  0  0  0  0  0  0  0  0
    7.9282   -1.8903   20.7027 N   0  0  0  0  0  0  0  0  0  0  0  0
    8.4974   -2.2890   21.8843 O   0  0  0  0  0  0  0  0  0  0  0  0
    8.3029   -1.3446   22.8000 C   0  0  0  0  0  0  0  0  0  0  0  0
    8.6936   -1.4943   23.7972 H   0  0  0  0  0  0  0  0  0  0  0  0
    7.6134   -0.3177   22.2649 C   0  0  0  0  0  0  0  0  0  0  0  0
    7.2177    0.9199   22.9494 C   0  0  0  0  0  0  0  0  0  0  0  0
    8.0525    1.1846   23.9710 F   0  0  0  0  0  0  0  0  0  0  0  0
    7.2386    1.9798   22.1330 F   0  0  0  0  0  0  0  0  0  0  0  0
    5.9760    0.8228   23.4607 F   0  0  0  0  0  0  0  0  0  0  0  0
    5.4401    0.6486   20.1586 C   0  0  0  0  0  0  0  0  0  0  0  0
    5.0089    0.6304   21.1574 H   0  0  0  0  0  0  0  0  0  0  0  0
    4.8036    1.3093   19.1130 C   0  0  0  0  0  0  0  0  0  0  0  0
    3.8727    1.8448   19.2681 H   0  0  0  0  0  0  0  0  0  0  0  0
  1  2  1  0
  2  3  2  0
  3  4  1  0
  4  5  1  0
  4  6  2  0
  6  7  1  0
  7  8  2  0
  8  9  1  0
  9 10  1  0
 10 11  1  0
 10 12  2  0
 12 13  1  0
 13 14  1  0
 13 15  1  0
 13 16  1  0
  6 17  1  0
 17 18  1  0
 17 19  2  0
 19 20  1  0
 19  2  1  0
 12  7  1  0
M  END
>  <cnnaffinity>  (1) 
-4.42755

>  <filename>  (1) 
FC(F)(F)c1conc1-c1cccnc1

$$$$
