
     RDKit          3D

 31 33  0  0  0  0  0  0  0  0999 V2000
    4.9483    1.8009   16.9714 H   0  0  0  0  0  0  0  0  0  0  0  0
    5.4160    1.3024   17.8149 C   0  0  0  0  0  0  0  0  0  0  0  0
    6.5775    0.6786   17.5596 N   0  0  0  0  0  0  0  0  0  0  0  0
    7.1821    0.0639   18.5844 C   0  0  0  0  0  0  0  0  0  0  0  0
    8.1155   -0.4358   18.3302 H   0  0  0  0  0  0  0  0  0  0  0  0
    6.6729    0.0187   19.8983 C   0  0  0  0  0  0  0  0  0  0  0  0
    7.3358   -0.7227   20.9872 C   0  0  0  0  0  0  0  0  0  0  0  0
    6.7950   -1.2783   22.0890 C   0  0  0  0  0  0  0  0  0  0  0  0
    5.7736   -1.4030   22.3755 H   0  0  0  0  0  0  0  0  0  0  0  0
    7.8074   -1.8659   22.8458 N   0  0  0  0  0  0  0  0  0  0  0  0
    7.6225   -2.5207   24.0837 C   0  0  0  0  0  0  0  0  0  0  0  0
    6.5245   -3.2688   24.1722 N   0  0  0  0  0  0  0  0  0  0  0  0
    6.3059   -3.9190   25.3110 C   0  0  0  0  0  0  0  0  0  0  0  0
    5.4059   -4.5326   25.3468 H   0  0  0  0  0  0  0  0  0  0  0  0
    7.1568   -3.8323   26.4094 C   0  0  0  0  0  0  0  0  0  0  0  0
    6.7611   -4.6083   27.6147 C   0  0  0  0  0  0  0  0  0  0  0  0
    6.2193   -5.7943   27.2668 F   0  0  0  0  0  0  0  0  0  0  0  0
    5.8187   -3.9647   28.3319 F   0  0  0  0  0  0  0  0  0  0  0  0
    7.7976   -4.8636   28.4281 F   0  0  0  0  0  0  0  0  0  0  0  0
    8.2962   -3.0131   26.3317 C   0  0  0  0  0  0  0  0  0  0  0  0
    8.9924   -2.9161   27.1684 H   0  0  0  0  0  0  0  0  0  0  0  0
    8.5245   -2.3430   25.1393 C   0  0  0  0  0  0  0  0  0  0  0  0
    9.3815   -1.7014   24.9965 H   0  0  0  0  0  0  0  0  0  0  0  0
    9.0068   -1.7220   22.1904 C   0  0  0  0  0  0  0  0  0  0  0  0
   10.5292   -2.2514   22.5726 S   0  0  0  0  0  0  0  0  0  0  0  0
    8.6899   -1.0355   21.0637 N   0  0  0  0  0  0  0  0  0  0  0  0
    9.4510   -0.7637   20.4682 H   0  0  0  0  0  0  0  0  0  0  0  0
    5.4459    0.6763   20.1330 C   0  0  0  0  0  0  0  0  0  0  0  0
    5.0113    0.6901   21.1349 H   0  0  0  0  0  0  0  0  0  0  0  0
    4.8117    1.3255   19.0755 C   0  0  0  0  0  0  0  0  0  0  0  0
    3.8703    1.8494   19.2127 H   0  0  0  0  0  0  0  0  0  0  0  0
  1  2  1  0
  2  3  2  0
  3  4  1  0
  4  5  1  0
  4  6  2  0
  6  7  1  0
  7  8  2  0
  8  9  1  0
  8 10  1  0
 10 11  1  0
 11 12  2  0
 12 13  1  0
 13 14  1  0
 13 15  2  0
 15 16  1  0
 16 17  1  0
 16 18  1  0
 16 19  1  0
 15 20  1  0
 20 21  1  0
 20 22  2  0
 22 23  1  0
 10 24  1  0
 24 25  2  0
 24 26  1  0
 26 27  1  0
  6 28  1  0
 28 29  1  0
 28 30  2  0
 30 31  1  0
 30  2  1  0
 26  7  1  0
 22 11  1  0
M  END
>  <cnnaffinity>  (1) 
-5.59919

>  <filename>  (1) 
FC(F)(F)c1ccc(-n2cc(-c3cccnc3)[nH]c2=S)nc1

$$$$
