
     RDKit          3D

 35 37  0  0  0  0  0  0  0  0999 V2000
    4.9931    1.8562   16.9275 H   0  0  0  0  0  0  0  0  0  0  0  0
    5.4165    1.3413   17.7855 C   0  0  0  0  0  0  0  0  0  0  0  0
    6.5703    0.6860   17.5780 N   0  0  0  0  0  0  0  0  0  0  0  0
    7.0942    0.0221   18.6170 C   0  0  0  0  0  0  0  0  0  0  0  0
    8.0349   -0.4854   18.4132 H   0  0  0  0  0  0  0  0  0  0  0  0
    6.5281   -0.0306   19.9060 C   0  0  0  0  0  0  0  0  0  0  0  0
    7.1749   -0.8227   20.9816 C   0  0  0  0  0  0  0  0  0  0  0  0
    7.4807   -2.1673   21.0663 C   0  0  0  0  0  0  0  0  0  0  0  0
    7.1564   -2.9277   20.3700 H   0  0  0  0  0  0  0  0  0  0  0  0
    8.2118   -2.3737   22.2675 C   0  0  0  0  0  0  0  0  0  0  0  0
    8.6397   -3.3089   22.6093 H   0  0  0  0  0  0  0  0  0  0  0  0
    8.3181   -1.1564   22.8874 C   0  0  0  0  0  0  0  0  0  0  0  0
    8.7995   -0.8473   23.7996 H   0  0  0  0  0  0  0  0  0  0  0  0
    7.6665   -0.2169   22.1261 N   0  0  0  0  0  0  0  0  0  0  0  0
    7.6189    1.1822   22.5308 C   0  0  0  0  0  0  0  0  0  0  0  0
    7.1164    1.2490   23.4981 H   0  0  0  0  0  0  0  0  0  0  0  0
    7.0042    1.7279   21.8143 H   0  0  0  0  0  0  0  0  0  0  0  0
    9.0071    1.8161   22.5506 C   0  0  0  0  0  0  0  0  0  0  0  0
    9.7004    1.8940   21.3392 C   0  0  0  0  0  0  0  0  0  0  0  0
    9.2013    1.4836   20.4691 H   0  0  0  0  0  0  0  0  0  0  0  0
   10.9774    2.4521   21.2566 C   0  0  0  0  0  0  0  0  0  0  0  0
   11.4891    2.5288   20.3011 H   0  0  0  0  0  0  0  0  0  0  0  0
   11.5875    2.9276   22.4188 C   0  0  0  0  0  0  0  0  0  0  0  0
   12.5818    3.3596   22.3731 H   0  0  0  0  0  0  0  0  0  0  0  0
   10.9316    2.8244   23.6476 C   0  0  0  0  0  0  0  0  0  0  0  0
   11.4213    3.1798   24.5506 H   0  0  0  0  0  0  0  0  0  0  0  0
    9.6415    2.2667   23.7220 C   0  0  0  0  0  0  0  0  0  0  0  0
    8.9279    2.0928   25.0523 C   0  0  0  0  0  0  0  0  0  0  0  0
    9.6195    2.5452   26.0984 F   0  0  0  0  0  0  0  0  0  0  0  0
    8.6704    0.7813   25.3003 F   0  0  0  0  0  0  0  0  0  0  0  0
    7.7330    2.7257   25.0907 F   0  0  0  0  0  0  0  0  0  0  0  0
    5.3392    0.6973   20.0962 C   0  0  0  0  0  0  0  0  0  0  0  0
    4.9024    0.7414   21.0920 H   0  0  0  0  0  0  0  0  0  0  0  0
    4.7578    1.3676   19.0173 C   0  0  0  0  0  0  0  0  0  0  0  0
    3.8333    1.9270   19.1304 H   0  0  0  0  0  0  0  0  0  0  0  0
  1  2  1  0
  2  3  2  0
  3  4  1  0
  4  5  1  0
  4  6  2  0
  6  7  1  0
  7  8  2  0
  8  9  1  0
  8 10  1  0
 10 11  1  0
 10 12  2  0
 12 13  1  0
 12 14  1  0
 14 15  1  0
 15 16  1  0
 15 17  1  0
 15 18  1  0
 18 19  2  0
 19 20  1  0
 19 21  1  0
 21 22  1  0
 21 23  2  0
 23 24  1  0
 23 25  1  0
 25 26  1  0
 25 27  2  0
 27 28  1  0
 28 29  1  0
 28 30  1  0
 28 31  1  0
  6 32  1  0
 32 33  1  0
 32 34  2  0
 34 35  1  0
 34  2  1  0
 14  7  1  0
 27 18  1  0
M  END
>  <cnnaffinity>  (1) 
-5.45063

>  <filename>  (1) 
FC(F)(F)c1ccccc1Cn1cccc1-c1cccnc1

$$$$
