
     RDKit          3D

 35 37  0  0  0  0  0  0  0  0999 V2000
    4.9086    1.8561   17.0340 H   0  0  0  0  0  0  0  0  0  0  0  0
    5.3892    1.2899   17.8314 C   0  0  0  0  0  0  0  0  0  0  0  0
    6.5373    0.6667   17.5230 N   0  0  0  0  0  0  0  0  0  0  0  0
    7.1802    0.0171   18.5105 C   0  0  0  0  0  0  0  0  0  0  0  0
    8.1043   -0.4861   18.2204 H   0  0  0  0  0  0  0  0  0  0  0  0
    6.7171   -0.0695   19.8516 C   0  0  0  0  0  0  0  0  0  0  0  0
    7.3958   -0.7815   20.8868 N   0  0  0  0  0  0  0  0  0  0  0  0
    6.7184   -1.3316   21.4110 H   0  0  0  0  0  0  0  0  0  0  0  0
    8.2259   -0.0656   21.9218 C   0  0  0  0  0  0  0  0  0  0  0  0
    7.4320    0.8385   22.9414 C   0  0  0  0  0  0  0  0  0  0  0  0
    6.8979    0.1728   23.9938 N   0  0  0  0  0  0  0  0  0  0  0  0
    6.1739    0.8187   24.9081 C   0  0  0  0  0  0  0  0  0  0  0  0
    5.7680    0.2220   25.7206 H   0  0  0  0  0  0  0  0  0  0  0  0
    5.9481    2.1975   24.8794 C   0  0  0  0  0  0  0  0  0  0  0  0
    5.3576    2.6833   25.6463 H   0  0  0  0  0  0  0  0  0  0  0  0
    6.4844    2.9161   23.8237 C   0  0  0  0  0  0  0  0  0  0  0  0
    6.3328    3.9942   23.7356 H   0  0  0  0  0  0  0  0  0  0  0  0
    7.2116    2.2324   22.8422 C   0  0  0  0  0  0  0  0  0  0  0  0
    7.7982    3.0757   21.7638 C   0  0  0  0  0  0  0  0  0  0  0  0
    8.0236    2.3808   20.6392 F   0  0  0  0  0  0  0  0  0  0  0  0
    6.9887    4.1069   21.4645 F   0  0  0  0  0  0  0  0  0  0  0  0
    8.9816    3.6088   22.1362 F   0  0  0  0  0  0  0  0  0  0  0  0
    9.0849   -1.1594   22.6251 C   0  0  0  0  0  0  0  0  0  0  0  0
    8.7555   -2.1722   22.3802 H   0  0  0  0  0  0  0  0  0  0  0  0
    9.1075   -1.0468   23.7096 H   0  0  0  0  0  0  0  0  0  0  0  0
   10.3652   -0.6748   21.9111 C   0  0  0  0  0  0  0  0  0  0  0  0
   11.1764   -0.3630   22.5795 H   0  0  0  0  0  0  0  0  0  0  0  0
   10.7907   -1.3705   21.1767 H   0  0  0  0  0  0  0  0  0  0  0  0
    9.5551    0.4778   21.3017 C   0  0  0  0  0  0  0  0  0  0  0  0
    9.8658    1.4774   21.6040 H   0  0  0  0  0  0  0  0  0  0  0  0
    9.4926    0.4423   20.2120 H   0  0  0  0  0  0  0  0  0  0  0  0
    5.4898    0.5512   20.1298 C   0  0  0  0  0  0  0  0  0  0  0  0
    5.1053    0.5040   21.1483 H   0  0  0  0  0  0  0  0  0  0  0  0
    4.8287    1.2457   19.1100 C   0  0  0  0  0  0  0  0  0  0  0  0
    3.9053    1.7792   19.3025 H   0  0  0  0  0  0  0  0  0  0  0  0
  1  2  1  0
  2  3  2  0
  3  4  1  0
  4  5  1  0
  4  6  2  0
  6  7  1  0
  7  8  1  0
  7  9  1  0
  9 10  1  0
 10 11  2  0
 11 12  1  0
 12 13  1  0
 12 14  2  0
 14 15  1  0
 14 16  1  0
 16 17  1  0
 16 18  2  0
 18 19  1  0
 19 20  1  0
 19 21  1  0
 19 22  1  0
  9 23  1  0
 23 24  1  0
 23 25  1  0
 23 26  1  0
 26 27  1  0
 26 28  1  0
 26 29  1  0
 29 30  1  0
 29 31  1  0
  6 32  1  0
 32 33  1  0
 32 34  2  0
 34 35  1  0
 34  2  1  0
 29  9  1  0
 18 10  1  0
M  END
>  <cnnaffinity>  (1) 
-5.00829

>  <filename>  (1) 
FC(F)(F)c1cccnc1C1(Nc2cccnc2)CCC1

$$$$
