
     RDKit          3D

 35 37  0  0  0  0  0  0  0  0999 V2000
    7.1241   -4.6302   23.9794 F   0  0  0  0  0  0  0  0  0  0  0  0
    6.2249   -3.6216   23.9924 C   0  0  0  0  0  0  0  0  0  0  0  0
    5.1574   -4.0638   24.6771 F   0  0  0  0  0  0  0  0  0  0  0  0
    5.8214   -3.4683   22.7061 F   0  0  0  0  0  0  0  0  0  0  0  0
    6.8076   -2.3326   24.5591 C   0  0  0  0  0  0  0  0  0  0  0  0
    6.1107   -1.6487   25.5711 C   0  0  0  0  0  0  0  0  0  0  0  0
    6.6374   -0.4850   26.1334 C   0  0  0  0  0  0  0  0  0  0  0  0
    7.8657    0.0072   25.6904 C   0  0  0  0  0  0  0  0  0  0  0  0
    8.5508   -0.6570   24.6710 C   0  0  0  0  0  0  0  0  0  0  0  0
    8.0231   -1.8103   24.0689 C   0  0  0  0  0  0  0  0  0  0  0  0
    8.8011   -2.4704   22.9294 C   0  0  0  0  0  0  0  0  0  0  0  0
    9.3635   -1.5079   21.9915 N   0  0  0  0  0  0  0  0  0  0  0  0
   10.6749   -1.1299   21.8591 C   0  0  0  0  0  0  0  0  0  0  0  0
   10.8094   -0.1830   20.9852 N   0  0  0  0  0  0  0  0  0  0  0  0
    9.5533    0.0970   20.4886 N   0  0  0  0  0  0  0  0  0  0  0  0
    8.7114   -0.6763   21.1169 C   0  0  0  0  0  0  0  0  0  0  0  0
    7.3531   -0.7142   20.9328 N   0  0  0  0  0  0  0  0  0  0  0  0
    6.6731   -0.0113   19.9059 C   0  0  0  0  0  0  0  0  0  0  0  0
    5.4519    0.6241   20.1666 C   0  0  0  0  0  0  0  0  0  0  0  0
    4.8150    1.3006   19.1128 C   0  0  0  0  0  0  0  0  0  0  0  0
    5.3921    1.2963   17.8381 C   0  0  0  0  0  0  0  0  0  0  0  0
    6.5514    0.6773   17.5629 N   0  0  0  0  0  0  0  0  0  0  0  0
    7.1746    0.0622   18.5766 C   0  0  0  0  0  0  0  0  0  0  0  0
    8.1294   -0.4118   18.3704 H   0  0  0  0  0  0  0  0  0  0  0  0
    4.9125    1.7912   16.9962 H   0  0  0  0  0  0  0  0  0  0  0  0
    3.8860    1.8333   19.2673 H   0  0  0  0  0  0  0  0  0  0  0  0
    5.0310    0.6144   21.1727 H   0  0  0  0  0  0  0  0  0  0  0  0
    6.8200   -1.0953   21.6993 H   0  0  0  0  0  0  0  0  0  0  0  0
   11.4877   -1.5563   22.4298 H   0  0  0  0  0  0  0  0  0  0  0  0
    9.6398   -3.0352   23.3469 H   0  0  0  0  0  0  0  0  0  0  0  0
    8.1887   -3.1842   22.3770 H   0  0  0  0  0  0  0  0  0  0  0  0
    9.5037   -0.2692   24.3193 H   0  0  0  0  0  0  0  0  0  0  0  0
    8.2946    0.9041   26.1291 H   0  0  0  0  0  0  0  0  0  0  0  0
    6.0914    0.0241   26.9228 H   0  0  0  0  0  0  0  0  0  0  0  0
    5.1600   -2.0460   25.9229 H   0  0  0  0  0  0  0  0  0  0  0  0
  1  2  1  0
  2  3  1  0
  2  4  1  0
  2  5  1  0
  5  6  2  0
  6  7  1  0
  7  8  2  0
  8  9  1  0
  9 10  2  0
 10 11  1  0
 11 12  1  0
 12 13  1  0
 13 14  2  0
 14 15  1  0
 15 16  2  0
 16 17  1  0
 17 18  1  0
 18 19  2  0
 19 20  1  0
 20 21  2  0
 21 22  1  0
 22 23  2  0
 23 24  1  0
 21 25  1  0
 20 26  1  0
 19 27  1  0
 17 28  1  0
 13 29  1  0
 11 30  1  0
 11 31  1  0
  9 32  1  0
  8 33  1  0
  7 34  1  0
  6 35  1  0
 10  5  1  0
 16 12  1  0
 23 18  1  0
M  END
>  <cnnaffinity>  (1) 
-5.54934

>  <filename>  (1) 
FC(F)(F)c1ccccc1Cn1cnnc1Nc1cccnc1

$$$$
