
     RDKit          3D

 29 31  0  0  0  0  0  0  0  0999 V2000
    4.9246    1.7949   17.0068 H   0  0  0  0  0  0  0  0  0  0  0  0
    5.4113    1.2949   17.8423 C   0  0  0  0  0  0  0  0  0  0  0  0
    6.5679    0.6755   17.5647 N   0  0  0  0  0  0  0  0  0  0  0  0
    7.2086    0.0467   18.5586 C   0  0  0  0  0  0  0  0  0  0  0  0
    8.1670   -0.4140   18.3248 H   0  0  0  0  0  0  0  0  0  0  0  0
    6.7042   -0.0064   19.8734 C   0  0  0  0  0  0  0  0  0  0  0  0
    7.2807   -0.7212   20.9262 O   0  0  0  0  0  0  0  0  0  0  0  0
    8.6004   -0.8056   21.0888 C   0  0  0  0  0  0  0  0  0  0  0  0
    9.5245   -0.1098   20.4780 N   0  0  0  0  0  0  0  0  0  0  0  0
   10.6991   -0.5512   20.9798 N   0  0  0  0  0  0  0  0  0  0  0  0
   10.5309   -1.4704   21.8428 N   0  0  0  0  0  0  0  0  0  0  0  0
    9.1791   -1.6640   21.9467 N   0  0  0  0  0  0  0  0  0  0  0  0
    8.6032   -2.5867   22.8382 C   0  0  0  0  0  0  0  0  0  0  0  0
    7.2773   -2.6540   22.8265 N   0  0  0  0  0  0  0  0  0  0  0  0
    6.7005   -3.4948   23.6739 C   0  0  0  0  0  0  0  0  0  0  0  0
    5.6136   -3.5276   23.6650 H   0  0  0  0  0  0  0  0  0  0  0  0
    7.4212   -4.2935   24.5599 C   0  0  0  0  0  0  0  0  0  0  0  0
    6.5936   -5.1634   25.4332 C   0  0  0  0  0  0  0  0  0  0  0  0
    7.2834   -5.7383   26.4263 F   0  0  0  0  0  0  0  0  0  0  0  0
    5.5938   -4.4541   26.0002 F   0  0  0  0  0  0  0  0  0  0  0  0
    6.0128   -6.1453   24.7129 F   0  0  0  0  0  0  0  0  0  0  0  0
    8.8240   -4.2516   24.5469 C   0  0  0  0  0  0  0  0  0  0  0  0
    9.4318   -4.8656   25.2197 H   0  0  0  0  0  0  0  0  0  0  0  0
    9.4249   -3.3807   23.6527 C   0  0  0  0  0  0  0  0  0  0  0  0
   10.5004   -3.2999   23.5546 H   0  0  0  0  0  0  0  0  0  0  0  0
    5.4924    0.6260   20.1565 C   0  0  0  0  0  0  0  0  0  0  0  0
    5.0997    0.5965   21.1723 H   0  0  0  0  0  0  0  0  0  0  0  0
    4.8369    1.2956   19.1181 C   0  0  0  0  0  0  0  0  0  0  0  0
    3.9014    1.8213   19.2816 H   0  0  0  0  0  0  0  0  0  0  0  0
  1  2  1  0
  2  3  2  0
  3  4  1  0
  4  5  1  0
  4  6  2  0
  6  7  1  0
  7  8  1  0
  8  9  2  0
  9 10  1  0
 10 11  2  0
 11 12  1  0
 12 13  1  0
 13 14  2  0
 14 15  1  0
 15 16  1  0
 15 17  2  0
 17 18  1  0
 18 19  1  0
 18 20  1  0
 18 21  1  0
 17 22  1  0
 22 23  1  0
 22 24  2  0
 24 25  1  0
  6 26  1  0
 26 27  1  0
 26 28  2  0
 28 29  1  0
 28  2  1  0
 12  8  1  0
 24 13  1  0
M  END
>  <cnnaffinity>  (1) 
-5.43641

>  <filename>  (1) 
FC(F)(F)c1ccc(-n2nnnc2Oc2cccnc2)nc1

$$$$
