
     RDKit          3D

 31 33  0  0  0  0  0  0  0  0999 V2000
    4.9102    1.8419   16.9829 H   0  0  0  0  0  0  0  0  0  0  0  0
    5.3700    1.2962   17.8056 C   0  0  0  0  0  0  0  0  0  0  0  0
    6.5105    0.6486   17.5227 N   0  0  0  0  0  0  0  0  0  0  0  0
    7.1246    0.0072   18.5219 C   0  0  0  0  0  0  0  0  0  0  0  0
    8.0578   -0.5053   18.2789 H   0  0  0  0  0  0  0  0  0  0  0  0
    6.6337   -0.0249   19.8410 C   0  0  0  0  0  0  0  0  0  0  0  0
    7.6091   -0.8211   21.1281 S   0  0  0  0  0  0  0  0  0  0  0  0
    8.5865    0.5725   21.6352 C   0  0  0  0  0  0  0  0  0  0  0  0
    9.7754    0.8849   21.1682 N   0  0  0  0  0  0  0  0  0  0  0  0
   10.0492    2.1118   21.6636 N   0  0  0  0  0  0  0  0  0  0  0  0
    9.0977    2.5469   22.3994 N   0  0  0  0  0  0  0  0  0  0  0  0
    8.1492    1.5826   22.4175 N   0  0  0  0  0  0  0  0  0  0  0  0
    6.9352    1.7148   23.1643 C   0  0  0  0  0  0  0  0  0  0  0  0
    6.3028    2.9639   23.2191 C   0  0  0  0  0  0  0  0  0  0  0  0
    6.7766    3.8020   22.7189 H   0  0  0  0  0  0  0  0  0  0  0  0
    5.1047    3.0986   23.9292 C   0  0  0  0  0  0  0  0  0  0  0  0
    4.6137    4.0678   23.9725 H   0  0  0  0  0  0  0  0  0  0  0  0
    4.5459    1.9995   24.5862 C   0  0  0  0  0  0  0  0  0  0  0  0
    3.6162    2.0366   25.1486 H   0  0  0  0  0  0  0  0  0  0  0  0
    5.2096    0.7751   24.5316 C   0  0  0  0  0  0  0  0  0  0  0  0
    4.5317   -0.2453   25.2042 O   0  0  0  0  0  0  0  0  0  0  0  0
    5.1515   -1.3810   25.5801 C   0  0  0  0  0  0  0  0  0  0  0  0
    6.1972   -1.1505   26.3850 F   0  0  0  0  0  0  0  0  0  0  0  0
    4.2676   -2.1295   26.2308 F   0  0  0  0  0  0  0  0  0  0  0  0
    5.6075   -2.1089   24.5427 F   0  0  0  0  0  0  0  0  0  0  0  0
    6.3985    0.6036   23.8262 C   0  0  0  0  0  0  0  0  0  0  0  0
    6.8902   -0.3626   23.8036 H   0  0  0  0  0  0  0  0  0  0  0  0
    5.4214    0.6193   20.1144 C   0  0  0  0  0  0  0  0  0  0  0  0
    4.9978    0.5991   21.1225 H   0  0  0  0  0  0  0  0  0  0  0  0
    4.7817    1.2991   19.0735 C   0  0  0  0  0  0  0  0  0  0  0  0
    3.8593    1.8454   19.2345 H   0  0  0  0  0  0  0  0  0  0  0  0
  1  2  1  0
  2  3  2  0
  3  4  1  0
  4  5  1  0
  4  6  2  0
  6  7  1  0
  7  8  1  0
  8  9  2  0
  9 10  1  0
 10 11  2  0
 11 12  1  0
 12 13  1  0
 13 14  2  0
 14 15  1  0
 14 16  1  0
 16 17  1  0
 16 18  2  0
 18 19  1  0
 18 20  1  0
 20 21  1  0
 21 22  1  0
 22 23  1  0
 22 24  1  0
 22 25  1  0
 20 26  2  0
 26 27  1  0
  6 28  1  0
 28 29  1  0
 28 30  2  0
 30 31  1  0
 30  2  1  0
 12  8  1  0
 26 13  1  0
M  END
>  <cnnaffinity>  (1) 
-5.21557

>  <filename>  (1) 
FC(F)(F)Oc1cccc(-n2nnnc2Sc2cccnc2)c1

$$$$
