
     RDKit          3D

 34 37  0  0  0  0  0  0  0  0999 V2000
    4.7945   -8.0583   23.1609 H   0  0  0  0  0  0  0  0  0  0  0  0
    4.5496   -7.0009   23.2257 C   0  0  0  0  0  0  0  0  0  0  0  0
    5.3257   -6.1873   22.5182 N   0  0  0  0  0  0  0  0  0  0  0  0
    5.0892   -4.8707   22.6281 C   0  0  0  0  0  0  0  0  0  0  0  0
    6.0585   -3.9595   21.9223 C   0  0  0  0  0  0  0  0  0  0  0  0
    7.2280   -4.2934   21.4590 N   0  0  0  0  0  0  0  0  0  0  0  0
    7.8525   -3.1306   21.1019 N   0  0  0  0  0  0  0  0  0  0  0  0
    7.0308   -2.1529   21.3211 C   0  0  0  0  0  0  0  0  0  0  0  0
    7.3209   -0.6957   21.0998 C   0  0  0  0  0  0  0  0  0  0  0  0
    6.6045    0.0001   19.9646 C   0  0  0  0  0  0  0  0  0  0  0  0
    7.1416    0.0230   18.6605 C   0  0  0  0  0  0  0  0  0  0  0  0
    8.0783   -0.4957   18.4571 H   0  0  0  0  0  0  0  0  0  0  0  0
    6.5772    0.6355   17.6112 N   0  0  0  0  0  0  0  0  0  0  0  0
    5.4213    1.2813   17.8313 C   0  0  0  0  0  0  0  0  0  0  0  0
    4.9902    1.8003   16.9749 H   0  0  0  0  0  0  0  0  0  0  0  0
    4.7889    1.3073   19.0786 C   0  0  0  0  0  0  0  0  0  0  0  0
    3.8543    1.8414   19.1886 H   0  0  0  0  0  0  0  0  0  0  0  0
    5.3878    0.6609   20.1625 C   0  0  0  0  0  0  0  0  0  0  0  0
    4.9352    0.6663   21.1570 H   0  0  0  0  0  0  0  0  0  0  0  0
    8.7672   -0.3059   21.3185 C   0  0  0  0  0  0  0  0  0  0  0  0
    9.4338   -1.1210   21.5971 H   0  0  0  0  0  0  0  0  0  0  0  0
    9.2003    0.4498   20.6614 H   0  0  0  0  0  0  0  0  0  0  0  0
    7.7364    0.1276   22.3193 C   0  0  0  0  0  0  0  0  0  0  0  0
    7.4677    1.1840   22.3470 H   0  0  0  0  0  0  0  0  0  0  0  0
    7.7184   -0.3505   23.2974 H   0  0  0  0  0  0  0  0  0  0  0  0
    5.8580   -2.6081   21.8379 O   0  0  0  0  0  0  0  0  0  0  0  0
    4.1262   -4.3303   23.3782 N   0  0  0  0  0  0  0  0  0  0  0  0
    3.3796   -5.1472   24.1391 C   0  0  0  0  0  0  0  0  0  0  0  0
    2.3854   -4.5401   25.1765 C   0  0  0  0  0  0  0  0  0  0  0  0
    2.6020   -5.0498   26.4097 F   0  0  0  0  0  0  0  0  0  0  0  0
    1.1098   -4.8543   24.8767 F   0  0  0  0  0  0  0  0  0  0  0  0
    2.4759   -3.2137   25.2648 F   0  0  0  0  0  0  0  0  0  0  0  0
    3.5292   -6.5324   24.0476 C   0  0  0  0  0  0  0  0  0  0  0  0
    2.9188   -7.2282   24.6041 H   0  0  0  0  0  0  0  0  0  0  0  0
  1  2  1  0
  2  3  2  0
  3  4  1  0
  4  5  1  0
  5  6  2  0
  6  7  1  0
  7  8  2  0
  8  9  1  0
  9 10  1  0
 10 11  2  0
 11 12  1  0
 11 13  1  0
 13 14  2  0
 14 15  1  0
 14 16  1  0
 16 17  1  0
 16 18  2  0
 18 19  1  0
  9 20  1  0
 20 21  1  0
 20 22  1  0
 20 23  1  0
 23 24  1  0
 23 25  1  0
  8 26  1  0
  4 27  2  0
 27 28  1  0
 28 29  1  0
 29 30  1  0
 29 31  1  0
 29 32  1  0
 28 33  2  0
 33 34  1  0
 33  2  1  0
 26  5  1  0
 23  9  1  0
 18 10  1  0
M  END
>  <cnnaffinity>  (1) 
-5.29954

>  <filename>  (1) 
FC(F)(F)c1ccnc(-c2nnc(C3(c4cccnc4)CC3)o2)n1

$$$$
