
     RDKit          3D

 25 26  0  0  0  0  0  0  0  0999 V2000
    6.9658   -6.6127   22.7231 F   0  0  0  0  0  0  0  0  0  0  0  0
    7.4084   -5.3509   22.7540 C   0  0  0  0  0  0  0  0  0  0  0  0
    6.9206   -4.4212   21.8502 C   0  0  0  0  0  0  0  0  0  0  0  0
    7.4127   -3.0956   21.9076 C   0  0  0  0  0  0  0  0  0  0  0  0
    6.9440   -2.1570   21.0051 N   0  0  0  0  0  0  0  0  0  0  0  0
    7.3675   -0.7711   20.9819 C   0  0  0  0  0  0  0  0  0  0  0  0
    6.6491   -0.0076   19.9038 C   0  0  0  0  0  0  0  0  0  0  0  0
    5.4399    0.6498   20.1573 C   0  0  0  0  0  0  0  0  0  0  0  0
    4.8040    1.3116   19.1054 C   0  0  0  0  0  0  0  0  0  0  0  0
    5.4033    1.2902   17.8410 C   0  0  0  0  0  0  0  0  0  0  0  0
    6.5663    0.6732   17.5814 N   0  0  0  0  0  0  0  0  0  0  0  0
    7.1653    0.0496   18.6048 C   0  0  0  0  0  0  0  0  0  0  0  0
    8.1185   -0.4286   18.3770 H   0  0  0  0  0  0  0  0  0  0  0  0
    4.9154    1.7780   16.9982 H   0  0  0  0  0  0  0  0  0  0  0  0
    3.8709    1.8466   19.2599 H   0  0  0  0  0  0  0  0  0  0  0  0
    5.0061    0.6327   21.1607 H   0  0  0  0  0  0  0  0  0  0  0  0
    7.1686   -0.2912   21.9519 H   0  0  0  0  0  0  0  0  0  0  0  0
    8.4527   -0.7142   20.8155 H   0  0  0  0  0  0  0  0  0  0  0  0
    6.2426   -2.4367   20.3374 H   0  0  0  0  0  0  0  0  0  0  0  0
    8.3833   -2.8203   22.9063 C   0  0  0  0  0  0  0  0  0  0  0  0
    8.8530   -3.7372   23.7792 N   0  0  0  0  0  0  0  0  0  0  0  0
    8.3770   -4.9566   23.7041 C   0  0  0  0  0  0  0  0  0  0  0  0
    8.8480   -5.8537   24.5695 F   0  0  0  0  0  0  0  0  0  0  0  0
    8.7920   -1.8214   22.9934 H   0  0  0  0  0  0  0  0  0  0  0  0
    6.1753   -4.7252   21.1245 H   0  0  0  0  0  0  0  0  0  0  0  0
  1  2  1  0
  2  3  2  0
  3  4  1  0
  4  5  1  0
  5  6  1  0
  6  7  1  0
  7  8  2  0
  8  9  1  0
  9 10  2  0
 10 11  1  0
 11 12  2  0
 12 13  1  0
 10 14  1  0
  9 15  1  0
  8 16  1  0
  6 17  1  0
  6 18  1  0
  5 19  1  0
  4 20  2  0
 20 21  1  0
 21 22  2  0
 22 23  1  0
 20 24  1  0
  3 25  1  0
 22  2  1  0
 12  7  1  0
M  END
>  <cnnaffinity>  (1) 
-4.78185

>  <filename>  (1) 
Fc1cc(NCc2cccnc2)cnc1F

$$$$
