
     RDKit          3D

 35 37  0  0  0  0  0  0  0  0999 V2000
    8.3394    1.1120   23.7300 H   0  0  0  0  0  0  0  0  0  0  0  0
    8.0435    0.9757   22.6856 C   0  0  0  0  0  0  0  0  0  0  0  0
    7.8682   -0.2813   22.2548 C   0  0  0  0  0  0  0  0  0  0  0  0
    7.3288   -0.8055   20.9774 C   0  0  0  0  0  0  0  0  0  0  0  0
    6.6300   -0.0165   19.9330 C   0  0  0  0  0  0  0  0  0  0  0  0
    7.1581   -0.0427   18.6396 C   0  0  0  0  0  0  0  0  0  0  0  0
    8.0545   -0.6226   18.4235 H   0  0  0  0  0  0  0  0  0  0  0  0
    6.6196    0.6135   17.6080 N   0  0  0  0  0  0  0  0  0  0  0  0
    5.4905    1.3040   17.8348 C   0  0  0  0  0  0  0  0  0  0  0  0
    5.0743    1.8274   16.9764 H   0  0  0  0  0  0  0  0  0  0  0  0
    4.8509    1.3502   19.0773 C   0  0  0  0  0  0  0  0  0  0  0  0
    3.9272    1.9064   19.1904 H   0  0  0  0  0  0  0  0  0  0  0  0
    5.4304    0.6727   20.1527 C   0  0  0  0  0  0  0  0  0  0  0  0
    4.9577    0.6642   21.1358 H   0  0  0  0  0  0  0  0  0  0  0  0
    7.4875   -2.0681   20.8119 N   0  0  0  0  0  0  0  0  0  0  0  0
    8.0919   -2.6509   22.0122 C   0  0  0  0  0  0  0  0  0  0  0  0
    9.0303   -3.1292   21.7162 H   0  0  0  0  0  0  0  0  0  0  0  0
    7.4264   -3.4310   22.3955 H   0  0  0  0  0  0  0  0  0  0  0  0
    8.3084   -1.5112   23.0358 C   0  0  0  0  0  0  0  0  0  0  0  0
    9.3549   -1.4251   23.3508 H   0  0  0  0  0  0  0  0  0  0  0  0
    7.6965   -1.6443   23.9356 H   0  0  0  0  0  0  0  0  0  0  0  0
    7.9027    2.2417   21.8668 C   0  0  0  0  0  0  0  0  0  0  0  0
    6.8358    2.4692   21.7544 H   0  0  0  0  0  0  0  0  0  0  0  0
    8.2573    2.0517   20.8441 H   0  0  0  0  0  0  0  0  0  0  0  0
    8.6023    3.4517   22.4941 C   0  0  0  0  0  0  0  0  0  0  0  0
   10.0028    3.5725   22.4852 C   0  0  0  0  0  0  0  0  0  0  0  0
   10.5893    2.7845   22.0224 H   0  0  0  0  0  0  0  0  0  0  0  0
   10.6344    4.7065   23.0234 C   0  0  0  0  0  0  0  0  0  0  0  0
   11.7171    4.7984   22.9794 H   0  0  0  0  0  0  0  0  0  0  0  0
    9.8797    5.7436   23.5861 C   0  0  0  0  0  0  0  0  0  0  0  0
   10.3249    6.6609   23.9584 H   0  0  0  0  0  0  0  0  0  0  0  0
    8.4977    5.5844   23.6476 C   0  0  0  0  0  0  0  0  0  0  0  0
    7.7553    6.5366   24.2439 F   0  0  0  0  0  0  0  0  0  0  0  0
    7.8597    4.4519   23.1403 C   0  0  0  0  0  0  0  0  0  0  0  0
    6.7841    4.3715   23.2555 H   0  0  0  0  0  0  0  0  0  0  0  0
  1  2  1  0
  2  3  2  3
  3  4  1  0
  4  5  1  0
  5  6  2  0
  6  7  1  0
  6  8  1  0
  8  9  2  0
  9 10  1  0
  9 11  1  0
 11 12  1  0
 11 13  2  0
 13 14  1  0
  4 15  2  0
 15 16  1  0
 16 17  1  0
 16 18  1  0
 16 19  1  0
 19 20  1  0
 19 21  1  0
  2 22  1  0
 22 23  1  0
 22 24  1  0
 22 25  1  0
 25 26  2  0
 26 27  1  0
 26 28  1  0
 28 29  1  0
 28 30  2  0
 30 31  1  0
 30 32  1  0
 32 33  1  0
 32 34  2  0
 34 35  1  0
 19  3  1  0
 34 25  1  0
 13  5  1  0
M  END
>  <cnnaffinity>  (1) 
-5.44587

>  <filename>  (1) 
Fc1cccc(CC=C2CCN=C2c2cccnc2)c1

$$$$
