
     RDKit          3D

 28 30  0  0  0  0  0  0  0  0999 V2000
    4.9135    1.7812   16.9975 H   0  0  0  0  0  0  0  0  0  0  0  0
    5.3984    1.2935   17.8419 C   0  0  0  0  0  0  0  0  0  0  0  0
    6.5611    0.6729   17.5855 N   0  0  0  0  0  0  0  0  0  0  0  0
    7.1762    0.0513   18.5966 C   0  0  0  0  0  0  0  0  0  0  0  0
    8.1247   -0.4303   18.3772 H   0  0  0  0  0  0  0  0  0  0  0  0
    6.6626   -0.0034   19.9057 C   0  0  0  0  0  0  0  0  0  0  0  0
    7.3509   -0.6996   20.9477 N   0  0  0  0  0  0  0  0  0  0  0  0
    6.7506   -1.6033   21.8159 C   0  0  0  0  0  0  0  0  0  0  0  0
    5.7044   -1.8477   21.7327 H   0  0  0  0  0  0  0  0  0  0  0  0
    7.6909   -2.0575   22.6758 C   0  0  0  0  0  0  0  0  0  0  0  0
    7.5511   -3.0004   23.7797 C   0  0  0  0  0  0  0  0  0  0  0  0
    8.6429   -3.6689   24.3679 C   0  0  0  0  0  0  0  0  0  0  0  0
    9.6545   -3.4966   24.0067 H   0  0  0  0  0  0  0  0  0  0  0  0
    8.5126   -4.5536   25.3635 N   0  0  0  0  0  0  0  0  0  0  0  0
    7.2774   -4.8044   25.8217 C   0  0  0  0  0  0  0  0  0  0  0  0
    7.1721   -5.5179   26.6310 H   0  0  0  0  0  0  0  0  0  0  0  0
    6.1376   -4.1868   25.2942 C   0  0  0  0  0  0  0  0  0  0  0  0
    4.9252   -4.4753   25.7843 F   0  0  0  0  0  0  0  0  0  0  0  0
    6.2553   -3.2751   24.2613 C   0  0  0  0  0  0  0  0  0  0  0  0
    5.3717   -2.7808   23.8594 H   0  0  0  0  0  0  0  0  0  0  0  0
    8.8695   -1.4252   22.3124 N   0  0  0  0  0  0  0  0  0  0  0  0
    9.7629   -1.4530   22.7634 H   0  0  0  0  0  0  0  0  0  0  0  0
    8.6786   -0.5471   21.2930 C   0  0  0  0  0  0  0  0  0  0  0  0
    9.8078    0.4870   20.6781 S   0  0  0  0  0  0  0  0  0  0  0  0
    5.4479    0.6427   20.1640 C   0  0  0  0  0  0  0  0  0  0  0  0
    5.0177    0.6285   21.1677 H   0  0  0  0  0  0  0  0  0  0  0  0
    4.8115    1.3096   19.1112 C   0  0  0  0  0  0  0  0  0  0  0  0
    3.8783    1.8407   19.2652 H   0  0  0  0  0  0  0  0  0  0  0  0
  1  2  1  0
  2  3  2  0
  3  4  1  0
  4  5  1  0
  4  6  2  0
  6  7  1  0
  7  8  1  0
  8  9  1  0
  8 10  2  0
 10 11  1  0
 11 12  2  0
 12 13  1  0
 12 14  1  0
 14 15  2  0
 15 16  1  0
 15 17  1  0
 17 18  1  0
 17 19  2  0
 19 20  1  0
 10 21  1  0
 21 22  1  0
 21 23  1  0
 23 24  2  0
  6 25  1  0
 25 26  1  0
 25 27  2  0
 27 28  1  0
 27  2  1  0
 23  7  1  0
 19 11  1  0
M  END
>  <cnnaffinity>  (1) 
-5.63463

>  <filename>  (1) 
Fc1cncc(-c2cn(-c3cccnc3)c(=S)[nH]2)c1

$$$$
