
     RDKit          3D

 29 31  0  0  0  0  0  0  0  0999 V2000
    4.9172    1.8021   16.9683 H   0  0  0  0  0  0  0  0  0  0  0  0
    5.3908    1.3050   17.8142 C   0  0  0  0  0  0  0  0  0  0  0  0
    6.5555    0.6870   17.5569 N   0  0  0  0  0  0  0  0  0  0  0  0
    7.1706    0.0761   18.5782 C   0  0  0  0  0  0  0  0  0  0  0  0
    8.1060   -0.4197   18.3247 H   0  0  0  0  0  0  0  0  0  0  0  0
    6.6692    0.0276   19.8932 C   0  0  0  0  0  0  0  0  0  0  0  0
    7.3424   -0.6899   20.9805 C   0  0  0  0  0  0  0  0  0  0  0  0
    6.8208   -1.2296   22.0996 C   0  0  0  0  0  0  0  0  0  0  0  0
    5.8057   -1.3089   22.4096 H   0  0  0  0  0  0  0  0  0  0  0  0
    7.8380   -1.8166   22.8370 N   0  0  0  0  0  0  0  0  0  0  0  0
    7.6381   -2.4626   24.0939 C   0  0  0  0  0  0  0  0  0  0  0  0
    8.4337   -2.1140   25.1907 C   0  0  0  0  0  0  0  0  0  0  0  0
    9.1960   -1.3529   25.0449 H   0  0  0  0  0  0  0  0  0  0  0  0
    8.2601   -2.7525   26.4216 C   0  0  0  0  0  0  0  0  0  0  0  0
    8.8995   -2.4808   27.2531 H   0  0  0  0  0  0  0  0  0  0  0  0
    7.2850   -3.7430   26.5710 C   0  0  0  0  0  0  0  0  0  0  0  0
    7.1528   -4.2445   27.5263 H   0  0  0  0  0  0  0  0  0  0  0  0
    6.4745   -4.0934   25.4869 C   0  0  0  0  0  0  0  0  0  0  0  0
    5.6978   -4.8461   25.5546 H   0  0  0  0  0  0  0  0  0  0  0  0
    6.6514   -3.4509   24.2675 C   0  0  0  0  0  0  0  0  0  0  0  0
    5.8549   -3.8088   23.2405 F   0  0  0  0  0  0  0  0  0  0  0  0
    9.0336   -1.6630   22.1633 C   0  0  0  0  0  0  0  0  0  0  0  0
   10.5770   -2.1563   22.5156 S   0  0  0  0  0  0  0  0  0  0  0  0
    8.6926   -0.9850   21.0339 N   0  0  0  0  0  0  0  0  0  0  0  0
    9.4234   -0.7104   20.4010 H   0  0  0  0  0  0  0  0  0  0  0  0
    5.4398    0.6691   20.1329 C   0  0  0  0  0  0  0  0  0  0  0  0
    5.0118    0.6626   21.1355 H   0  0  0  0  0  0  0  0  0  0  0  0
    4.7968    1.3231   19.0809 C   0  0  0  0  0  0  0  0  0  0  0  0
    3.8626    1.8521   19.2318 H   0  0  0  0  0  0  0  0  0  0  0  0
  1  2  1  0
  2  3  2  0
  3  4  1  0
  4  5  1  0
  4  6  2  0
  6  7  1  0
  7  8  2  0
  8  9  1  0
  8 10  1  0
 10 11  1  0
 11 12  2  0
 12 13  1  0
 12 14  1  0
 14 15  1  0
 14 16  2  0
 16 17  1  0
 16 18  1  0
 18 19  1  0
 18 20  2  0
 20 21  1  0
 10 22  1  0
 22 23  2  0
 22 24  1  0
 24 25  1  0
  6 26  1  0
 26 27  1  0
 26 28  2  0
 28 29  1  0
 28  2  1  0
 24  7  1  0
 20 11  1  0
M  END
>  <cnnaffinity>  (1) 
-5.64127

>  <filename>  (1) 
Fc1ccccc1-n1cc(-c2cccnc2)[nH]c1=S

$$$$
