
     RDKit          3D

 23 24  0  0  0  0  0  0  0  0999 V2000
    5.3776    1.8361   16.9458 H   0  0  0  0  0  0  0  0  0  0  0  0
    5.6515    1.2618   17.8291 C   0  0  0  0  0  0  0  0  0  0  0  0
    6.7466    0.4927   17.7301 N   0  0  0  0  0  0  0  0  0  0  0  0
    7.1254   -0.2122   18.8108 C   0  0  0  0  0  0  0  0  0  0  0  0
    7.9937   -0.8565   18.6723 H   0  0  0  0  0  0  0  0  0  0  0  0
    6.4494   -0.1743   20.0630 C   0  0  0  0  0  0  0  0  0  0  0  0
    6.8545   -0.8420   21.2373 N   0  0  0  0  0  0  0  0  0  0  0  0
    6.2992   -0.6199   22.0553 H   0  0  0  0  0  0  0  0  0  0  0  0
    8.3957   -1.4403   21.5778 S   0  0  0  0  0  0  0  0  0  0  0  0
    9.3163    0.0258   22.0242 C   0  0  0  0  0  0  0  0  0  0  0  0
    9.5746    0.3246   23.3712 C   0  0  0  0  0  0  0  0  0  0  0  0
    9.0687   -0.2299   24.1640 H   0  0  0  0  0  0  0  0  0  0  0  0
   10.4226    1.2950   23.7433 N   0  0  0  0  0  0  0  0  0  0  0  0
   11.0492    2.0091   22.7908 C   0  0  0  0  0  0  0  0  0  0  0  0
   11.7612    2.7695   23.1095 H   0  0  0  0  0  0  0  0  0  0  0  0
   10.7972    1.8049   21.4301 C   0  0  0  0  0  0  0  0  0  0  0  0
   11.4240    2.5321   20.4960 F   0  0  0  0  0  0  0  0  0  0  0  0
    9.9034    0.8215   21.0324 C   0  0  0  0  0  0  0  0  0  0  0  0
    9.6770    0.6953   19.9805 H   0  0  0  0  0  0  0  0  0  0  0  0
    5.2703    0.5855   20.1120 C   0  0  0  0  0  0  0  0  0  0  0  0
    4.6865    0.5949   21.0336 H   0  0  0  0  0  0  0  0  0  0  0  0
    4.8778    1.3250   18.9945 C   0  0  0  0  0  0  0  0  0  0  0  0
    4.0043    1.9683   19.0131 H   0  0  0  0  0  0  0  0  0  0  0  0
  1  2  1  0
  2  3  2  0
  3  4  1  0
  4  5  1  0
  4  6  2  0
  6  7  1  0
  7  8  1  0
  7  9  1  0
  9 10  1  0
 10 11  2  0
 11 12  1  0
 11 13  1  0
 13 14  2  0
 14 15  1  0
 14 16  1  0
 16 17  1  0
 16 18  2  0
 18 19  1  0
  6 20  1  0
 20 21  1  0
 20 22  2  0
 22 23  1  0
 22  2  1  0
 18 10  1  0
M  END
>  <cnnaffinity>  (1) 
-5.04973

>  <filename>  (1) 
Fc1cncc(SNc2cccnc2)c1

$$$$
