
     RDKit          3D

 30 31  0  0  0  0  0  0  0  0999 V2000
   12.7030    2.5491   22.1721 F   0  0  0  0  0  0  0  0  0  0  0  0
   12.5801    1.2009   22.2205 C   0  0  0  0  0  0  0  0  0  0  0  0
   13.7305    0.4206   22.2207 C   0  0  0  0  0  0  0  0  0  0  0  0
   13.6067   -0.9789   22.2189 C   0  0  0  0  0  0  0  0  0  0  0  0
   12.3436   -1.5616   22.3546 C   0  0  0  0  0  0  0  0  0  0  0  0
   11.1959   -0.7680   22.4087 C   0  0  0  0  0  0  0  0  0  0  0  0
   11.2899    0.6276   22.2345 C   0  0  0  0  0  0  0  0  0  0  0  0
   10.1429    1.4432   22.0868 N   0  0  0  0  0  0  0  0  0  0  0  0
    8.8302    1.0887   21.9006 C   0  0  0  0  0  0  0  0  0  0  0  0
    7.6333    2.1046   22.4427 S   0  0  0  0  0  0  0  0  0  0  0  0
    8.6560   -0.0764   21.2574 N   0  0  0  0  0  0  0  0  0  0  0  0
    7.3758   -0.7084   20.9984 C   0  0  0  0  0  0  0  0  0  0  0  0
    6.6450   -0.0083   19.8872 C   0  0  0  0  0  0  0  0  0  0  0  0
    5.4425    0.6646   20.1240 C   0  0  0  0  0  0  0  0  0  0  0  0
    4.8212    1.3203   19.0611 C   0  0  0  0  0  0  0  0  0  0  0  0
    5.4420    1.3007   17.8082 C   0  0  0  0  0  0  0  0  0  0  0  0
    6.6064    0.6807   17.5668 N   0  0  0  0  0  0  0  0  0  0  0  0
    7.1921    0.0591   18.5969 C   0  0  0  0  0  0  0  0  0  0  0  0
    8.1438   -0.4253   18.3679 H   0  0  0  0  0  0  0  0  0  0  0  0
    4.9874    1.8096   16.9610 H   0  0  0  0  0  0  0  0  0  0  0  0
    3.8897    1.8565   19.1989 H   0  0  0  0  0  0  0  0  0  0  0  0
    5.0343    0.6981   21.1388 H   0  0  0  0  0  0  0  0  0  0  0  0
    7.5751   -1.7597   20.7551 H   0  0  0  0  0  0  0  0  0  0  0  0
    6.7678   -0.6905   21.9131 H   0  0  0  0  0  0  0  0  0  0  0  0
    9.4881   -0.4326   20.8175 H   0  0  0  0  0  0  0  0  0  0  0  0
   10.1661    2.3684   22.4892 H   0  0  0  0  0  0  0  0  0  0  0  0
   10.2320   -1.2173   22.6307 H   0  0  0  0  0  0  0  0  0  0  0  0
   12.2337   -2.6358   22.4994 H   0  0  0  0  0  0  0  0  0  0  0  0
   14.4866   -1.6133   22.1512 H   0  0  0  0  0  0  0  0  0  0  0  0
   14.6936    0.9268   22.1895 H   0  0  0  0  0  0  0  0  0  0  0  0
  1  2  1  0
  2  3  2  0
  3  4  1  0
  4  5  2  0
  5  6  1  0
  6  7  2  0
  7  8  1  0
  8  9  1  0
  9 10  2  0
  9 11  1  0
 11 12  1  0
 12 13  1  0
 13 14  2  0
 14 15  1  0
 15 16  2  0
 16 17  1  0
 17 18  2  0
 18 19  1  0
 16 20  1  0
 15 21  1  0
 14 22  1  0
 12 23  1  0
 12 24  1  0
 11 25  1  0
  8 26  1  0
  6 27  1  0
  5 28  1  0
  4 29  1  0
  3 30  1  0
  7  2  1  0
 18 13  1  0
M  END
>  <cnnaffinity>  (1) 
-4.9971

>  <filename>  (1) 
Fc1ccccc1NC(=S)NCc1cccnc1

$$$$
