
     RDKit          3D

 36 38  0  0  0  0  0  0  0  0999 V2000
    5.0690    1.7871   16.9479 H   0  0  0  0  0  0  0  0  0  0  0  0
    5.5080    1.2856   17.8064 C   0  0  0  0  0  0  0  0  0  0  0  0
    6.6577    0.6388   17.5836 N   0  0  0  0  0  0  0  0  0  0  0  0
    7.2304    0.0124   18.6240 C   0  0  0  0  0  0  0  0  0  0  0  0
    8.1627   -0.5009   18.3748 H   0  0  0  0  0  0  0  0  0  0  0  0
    6.7088   -0.0017   19.9356 C   0  0  0  0  0  0  0  0  0  0  0  0
    7.3578   -0.7603   21.1284 C   0  0  0  0  0  0  0  0  0  0  0  0
    6.5342   -2.0373   21.4560 C   0  0  0  0  0  0  0  0  0  0  0  0
    6.1524   -2.8664   20.3877 C   0  0  0  0  0  0  0  0  0  0  0  0
    6.4041   -2.5931   19.3634 H   0  0  0  0  0  0  0  0  0  0  0  0
    5.4993   -4.0255   20.5233 N   0  0  0  0  0  0  0  0  0  0  0  0
    5.1527   -4.4124   21.7554 C   0  0  0  0  0  0  0  0  0  0  0  0
    4.6095   -5.3469   21.8438 H   0  0  0  0  0  0  0  0  0  0  0  0
    5.4738   -3.6697   22.8911 C   0  0  0  0  0  0  0  0  0  0  0  0
    5.0959   -4.1157   24.1038 F   0  0  0  0  0  0  0  0  0  0  0  0
    6.2034   -2.4918   22.7541 C   0  0  0  0  0  0  0  0  0  0  0  0
    6.4832   -1.9514   23.6535 H   0  0  0  0  0  0  0  0  0  0  0  0
    7.4610    0.1740   22.3732 C   0  0  0  0  0  0  0  0  0  0  0  0
    6.4691    0.5289   22.6619 H   0  0  0  0  0  0  0  0  0  0  0  0
    7.8382   -0.4286   23.2091 H   0  0  0  0  0  0  0  0  0  0  0  0
    8.4212    1.3577   22.1895 C   0  0  0  0  0  0  0  0  0  0  0  0
    8.0868    1.9795   21.3460 H   0  0  0  0  0  0  0  0  0  0  0  0
    8.4123    1.9982   23.0818 H   0  0  0  0  0  0  0  0  0  0  0  0
    9.8399    0.8495   21.9168 C   0  0  0  0  0  0  0  0  0  0  0  0
   10.5362    1.6835   21.7609 H   0  0  0  0  0  0  0  0  0  0  0  0
   10.2049    0.3034   22.7979 H   0  0  0  0  0  0  0  0  0  0  0  0
    9.8454   -0.0856   20.7070 C   0  0  0  0  0  0  0  0  0  0  0  0
   10.8439   -0.5209   20.5668 H   0  0  0  0  0  0  0  0  0  0  0  0
    9.6089    0.5061   19.8134 H   0  0  0  0  0  0  0  0  0  0  0  0
    8.8191   -1.2183   20.8240 C   0  0  0  0  0  0  0  0  0  0  0  0
    8.8341   -1.8021   19.9037 H   0  0  0  0  0  0  0  0  0  0  0  0
    9.1266   -1.9067   21.6221 H   0  0  0  0  0  0  0  0  0  0  0  0
    5.4770    0.6477   20.1180 C   0  0  0  0  0  0  0  0  0  0  0  0
    4.9869    0.6111   21.0903 H   0  0  0  0  0  0  0  0  0  0  0  0
    4.8734    1.3062   19.0487 C   0  0  0  0  0  0  0  0  0  0  0  0
    3.9316    1.8282   19.1640 H   0  0  0  0  0  0  0  0  0  0  0  0
  1  2  1  0
  2  3  2  0
  3  4  1  0
  4  5  1  0
  4  6  2  0
  6  7  1  0
  7  8  1  0
  8  9  2  0
  9 10  1  0
  9 11  1  0
 11 12  2  0
 12 13  1  0
 12 14  1  0
 14 15  1  0
 14 16  2  0
 16 17  1  0
  7 18  1  0
 18 19  1  0
 18 20  1  0
 18 21  1  0
 21 22  1  0
 21 23  1  0
 21 24  1  0
 24 25  1  0
 24 26  1  0
 24 27  1  0
 27 28  1  0
 27 29  1  0
 27 30  1  0
 30 31  1  0
 30 32  1  0
  6 33  1  0
 33 34  1  0
 33 35  2  0
 35 36  1  0
 35  2  1  0
 30  7  1  0
 16  8  1  0
M  END
>  <cnnaffinity>  (1) 
-4.5873

>  <filename>  (1) 
Fc1cncc(C2(c3cccnc3)CCCCC2)c1

$$$$
