
     RDKit          3D

 38 40  0  0  0  0  0  0  0  0999 V2000
    4.9025    1.8312   16.9827 H   0  0  0  0  0  0  0  0  0  0  0  0
    5.3780    1.3150   17.8144 C   0  0  0  0  0  0  0  0  0  0  0  0
    6.5374    0.7023   17.5261 N   0  0  0  0  0  0  0  0  0  0  0  0
    7.1633    0.0757   18.5328 C   0  0  0  0  0  0  0  0  0  0  0  0
    8.1108   -0.4041   18.2964 H   0  0  0  0  0  0  0  0  0  0  0  0
    6.6817   -0.0203   19.8631 C   0  0  0  0  0  0  0  0  0  0  0  0
    7.4164   -0.7394   20.8432 N   0  0  0  0  0  0  0  0  0  0  0  0
    6.7447   -1.8373   21.5334 C   0  0  0  0  0  0  0  0  0  0  0  0
    5.6720   -1.6032   21.5859 H   0  0  0  0  0  0  0  0  0  0  0  0
    6.8293   -2.7576   20.9301 H   0  0  0  0  0  0  0  0  0  0  0  0
    7.2752   -2.1776   22.9419 C   0  0  0  0  0  0  0  0  0  0  0  0
    6.6759   -3.0043   23.3411 H   0  0  0  0  0  0  0  0  0  0  0  0
    8.3055   -2.5470   22.8390 H   0  0  0  0  0  0  0  0  0  0  0  0
    7.2926   -1.0957   23.9141 N   0  0  0  0  0  0  0  0  0  0  0  0
    6.1010   -0.7477   24.5823 C   0  0  0  0  0  0  0  0  0  0  0  0
    5.4192    0.4644   24.3375 C   0  0  0  0  0  0  0  0  0  0  0  0
    5.8275    1.1092   23.5592 H   0  0  0  0  0  0  0  0  0  0  0  0
    4.2101    0.7735   24.9884 C   0  0  0  0  0  0  0  0  0  0  0  0
    3.6383    1.6738   24.7926 H   0  0  0  0  0  0  0  0  0  0  0  0
    3.6999   -0.1334   25.9132 C   0  0  0  0  0  0  0  0  0  0  0  0
    2.5440    0.1490   26.5392 F   0  0  0  0  0  0  0  0  0  0  0  0
    4.3403   -1.3338   26.2017 C   0  0  0  0  0  0  0  0  0  0  0  0
    3.9482   -2.0393   26.9241 H   0  0  0  0  0  0  0  0  0  0  0  0
    5.5176   -1.6248   25.5241 C   0  0  0  0  0  0  0  0  0  0  0  0
    6.1023   -2.8135   25.7852 F   0  0  0  0  0  0  0  0  0  0  0  0
    8.4151   -0.1808   23.8918 C   0  0  0  0  0  0  0  0  0  0  0  0
    8.3012    0.4883   24.7560 H   0  0  0  0  0  0  0  0  0  0  0  0
    9.3403   -0.7662   24.0647 H   0  0  0  0  0  0  0  0  0  0  0  0
    8.5900    0.6383   22.6031 C   0  0  0  0  0  0  0  0  0  0  0  0
    9.5132    1.2118   22.7243 H   0  0  0  0  0  0  0  0  0  0  0  0
    7.7767    1.3687   22.5018 H   0  0  0  0  0  0  0  0  0  0  0  0
    8.6869   -0.1954   21.3147 C   0  0  0  0  0  0  0  0  0  0  0  0
    9.0881    0.4167   20.4965 H   0  0  0  0  0  0  0  0  0  0  0  0
    9.4043   -1.0203   21.4623 H   0  0  0  0  0  0  0  0  0  0  0  0
    5.4609    0.6295   20.1313 C   0  0  0  0  0  0  0  0  0  0  0  0
    5.0619    0.6030   21.1505 H   0  0  0  0  0  0  0  0  0  0  0  0
    4.8004    1.3119   19.0925 C   0  0  0  0  0  0  0  0  0  0  0  0
    3.8632    1.8397   19.2493 H   0  0  0  0  0  0  0  0  0  0  0  0
  1  2  1  0
  2  3  2  0
  3  4  1  0
  4  5  1  0
  4  6  2  0
  6  7  1  0
  7  8  1  0
  8  9  1  0
  8 10  1  0
  8 11  1  0
 11 12  1  0
 11 13  1  0
 11 14  1  0
 14 15  1  0
 15 16  2  0
 16 17  1  0
 16 18  1  0
 18 19  1  0
 18 20  2  0
 20 21  1  0
 20 22  1  0
 22 23  1  0
 22 24  2  0
 24 25  1  0
 14 26  1  0
 26 27  1  0
 26 28  1  0
 26 29  1  0
 29 30  1  0
 29 31  1  0
 29 32  1  0
 32 33  1  0
 32 34  1  0
  6 35  1  0
 35 36  1  0
 35 37  2  0
 37 38  1  0
 37  2  1  0
 32  7  1  0
 24 15  1  0
M  END
>  <cnnaffinity>  (1) 
-5.18473

>  <filename>  (1) 
Fc1ccc(N2CCCN(c3cccnc3)CC2)c(F)c1

$$$$
