
     RDKit          3D

 30 33  0  0  0  0  0  0  0  0999 V2000
    4.9124    1.8071   16.9743 H   0  0  0  0  0  0  0  0  0  0  0  0
    5.3806    1.3036   17.8207 C   0  0  0  0  0  0  0  0  0  0  0  0
    6.5441    0.6844   17.5652 N   0  0  0  0  0  0  0  0  0  0  0  0
    7.1534    0.0747   18.5862 C   0  0  0  0  0  0  0  0  0  0  0  0
    8.1043   -0.3957   18.3414 H   0  0  0  0  0  0  0  0  0  0  0  0
    6.6591    0.0284   19.9116 C   0  0  0  0  0  0  0  0  0  0  0  0
    7.4060   -0.6708   20.9722 C   0  0  0  0  0  0  0  0  0  0  0  0
    8.3152   -1.7014   20.9127 C   0  0  0  0  0  0  0  0  0  0  0  0
    8.7118   -2.1216   20.0109 H   0  0  0  0  0  0  0  0  0  0  0  0
    8.7760   -2.1112   22.1312 N   0  0  0  0  0  0  0  0  0  0  0  0
    8.1729   -1.2956   22.9576 C   0  0  0  0  0  0  0  0  0  0  0  0
    8.2604   -0.9624   24.6430 S   0  0  0  0  0  0  0  0  0  0  0  0
    7.1375    0.3759   24.3281 C   0  0  0  0  0  0  0  0  0  0  0  0
    6.6561    1.2893   25.3658 C   0  0  0  0  0  0  0  0  0  0  0  0
    5.7835    2.3509   25.0399 C   0  0  0  0  0  0  0  0  0  0  0  0
    5.4824    2.4796   23.9991 H   0  0  0  0  0  0  0  0  0  0  0  0
    5.3195    3.2177   26.0259 C   0  0  0  0  0  0  0  0  0  0  0  0
    4.6496    4.0393   25.8030 H   0  0  0  0  0  0  0  0  0  0  0  0
    5.7342    3.0209   27.3414 C   0  0  0  0  0  0  0  0  0  0  0  0
    5.2912    3.8530   28.2931 F   0  0  0  0  0  0  0  0  0  0  0  0
    6.5925    1.9928   27.7085 C   0  0  0  0  0  0  0  0  0  0  0  0
    6.9055    1.8509   28.7335 H   0  0  0  0  0  0  0  0  0  0  0  0
    7.0411    1.1399   26.7080 C   0  0  0  0  0  0  0  0  0  0  0  0
    7.8622    0.1505   27.0549 F   0  0  0  0  0  0  0  0  0  0  0  0
    6.7527    0.5263   23.0968 N   0  0  0  0  0  0  0  0  0  0  0  0
    7.3305   -0.4192   22.3384 N   0  0  0  0  0  0  0  0  0  0  0  0
    5.4288    0.6660   20.1478 C   0  0  0  0  0  0  0  0  0  0  0  0
    5.0145    0.6497   21.1534 H   0  0  0  0  0  0  0  0  0  0  0  0
    4.7903    1.3156   19.0879 C   0  0  0  0  0  0  0  0  0  0  0  0
    3.8593    1.8494   19.2340 H   0  0  0  0  0  0  0  0  0  0  0  0
  1  2  1  0
  2  3  2  0
  3  4  1  0
  4  5  1  0
  4  6  2  0
  6  7  1  0
  7  8  2  0
  8  9  1  0
  8 10  1  0
 10 11  2  0
 11 12  1  0
 12 13  1  0
 13 14  1  0
 14 15  2  0
 15 16  1  0
 15 17  1  0
 17 18  1  0
 17 19  2  0
 19 20  1  0
 19 21  1  0
 21 22  1  0
 21 23  2  0
 23 24  1  0
 13 25  2  0
 25 26  1  0
  6 27  1  0
 27 28  1  0
 27 29  2  0
 29 30  1  0
 29  2  1  0
 26  7  1  0
 26 11  1  0
 23 14  1  0
M  END
>  <cnnaffinity>  (1) 
-5.34505

>  <filename>  (1) 
Fc1ccc(-c2nn3c(-c4cccnc4)cnc3s2)c(F)c1

$$$$
