
     RDKit          3D

 15 15  0  0  0  0  0  0  0  0999 V2000
    5.0165    1.9242   17.0979 H   0  0  0  0  0  0  0  0  0  0  0  0
    5.4741    1.3374   17.8888 C   0  0  0  0  0  0  0  0  0  0  0  0
    6.6749    0.8088   17.6177 N   0  0  0  0  0  0  0  0  0  0  0  0
    7.2874    0.1253   18.5836 C   0  0  0  0  0  0  0  0  0  0  0  0
    8.2646   -0.2936   18.3481 H   0  0  0  0  0  0  0  0  0  0  0  0
    6.7249   -0.0886   19.8496 C   0  0  0  0  0  0  0  0  0  0  0  0
    7.5951   -0.6647   20.9630 C   0  0  0  0  0  0  0  0  0  0  0  0
    9.2716   -0.9307   20.7184 S   0  0  0  0  0  0  0  0  0  0  0  0
    6.9328   -0.8396   22.0353 N   0  0  0  0  0  0  0  0  0  0  0  0
    7.3280   -1.5514   22.6547 H   0  0  0  0  0  0  0  0  0  0  0  0
    5.4851   -2.0467   21.4464 F   0  0  0  0  0  0  0  0  0  0  0  0
    5.4025    0.3537   20.0823 C   0  0  0  0  0  0  0  0  0  0  0  0
    4.8784    0.0351   20.9957 H   0  0  0  0  0  0  0  0  0  0  0  0
    4.8040    1.1590   19.1076 C   0  0  0  0  0  0  0  0  0  0  0  0
    3.8337    1.6194   19.2655 H   0  0  0  0  0  0  0  0  0  0  0  0
  1  2  1  0
  2  3  2  0
  3  4  1  0
  4  5  1  0
  4  6  2  0
  6  7  1  0
  7  8  2  0
  7  9  1  0
  9 10  1  0
  9 11  1  0
  6 12  1  0
 12 13  1  0
 12 14  2  0
 14 15  1  0
 14  2  1  0
M  END
>  <cnnaffinity>  (1) 
-3.71686

>  <filename>  (1) 
FNC(=S)c1cccnc1

$$$$
