
     RDKit          3D

 28 30  0  0  0  0  0  0  0  0999 V2000
    5.7539   -0.6031   25.2632 I   0  0  0  0  0  0  0  0  0  0  0  0
    6.4259    1.1486   23.9848 C   0  0  0  0  0  0  0  0  0  0  0  0
    6.1139    2.4297   24.4505 C   0  0  0  0  0  0  0  0  0  0  0  0
    6.5828    3.5785   23.8016 C   0  0  0  0  0  0  0  0  0  0  0  0
    7.3533    3.4584   22.6392 C   0  0  0  0  0  0  0  0  0  0  0  0
    7.6322    2.1832   22.1266 C   0  0  0  0  0  0  0  0  0  0  0  0
    7.1723    1.0248   22.7891 C   0  0  0  0  0  0  0  0  0  0  0  0
    7.5396   -0.2703   22.2202 C   0  0  0  0  0  0  0  0  0  0  0  0
    8.2214   -1.2632   22.8490 C   0  0  0  0  0  0  0  0  0  0  0  0
    8.4662   -2.2671   21.8407 C   0  0  0  0  0  0  0  0  0  0  0  0
    7.9714   -1.8960   20.6855 N   0  0  0  0  0  0  0  0  0  0  0  0
    7.3753   -0.6853   20.8992 N   0  0  0  0  0  0  0  0  0  0  0  0
    6.6709    0.0018   19.9104 C   0  0  0  0  0  0  0  0  0  0  0  0
    5.4633    0.6603   20.1760 C   0  0  0  0  0  0  0  0  0  0  0  0
    4.8339    1.3074   19.1109 C   0  0  0  0  0  0  0  0  0  0  0  0
    5.4060    1.2931   17.8337 C   0  0  0  0  0  0  0  0  0  0  0  0
    6.5677    0.6589   17.5838 N   0  0  0  0  0  0  0  0  0  0  0  0
    7.1792    0.0285   18.6047 C   0  0  0  0  0  0  0  0  0  0  0  0
    8.1287   -0.4591   18.4058 H   0  0  0  0  0  0  0  0  0  0  0  0
    4.8948    1.8004   17.0197 H   0  0  0  0  0  0  0  0  0  0  0  0
    3.8944    1.8248   19.2549 H   0  0  0  0  0  0  0  0  0  0  0  0
    5.0168    0.6489   21.1717 H   0  0  0  0  0  0  0  0  0  0  0  0
    9.0181   -3.1856   22.0090 H   0  0  0  0  0  0  0  0  0  0  0  0
    8.5720   -1.2678   23.8740 H   0  0  0  0  0  0  0  0  0  0  0  0
    8.2446    2.0933   21.2284 H   0  0  0  0  0  0  0  0  0  0  0  0
    7.7342    4.3481   22.1361 H   0  0  0  0  0  0  0  0  0  0  0  0
    6.3584    4.5615   24.2094 H   0  0  0  0  0  0  0  0  0  0  0  0
    5.5175    2.5153   25.3509 H   0  0  0  0  0  0  0  0  0  0  0  0
  1  2  1  0
  2  3  2  0
  3  4  1  0
  4  5  2  0
  5  6  1  0
  6  7  2  0
  7  8  1  0
  8  9  2  0
  9 10  1  0
 10 11  2  0
 11 12  1  0
 12 13  1  0
 13 14  2  0
 14 15  1  0
 15 16  2  0
 16 17  1  0
 17 18  2  0
 18 19  1  0
 16 20  1  0
 15 21  1  0
 14 22  1  0
 10 23  1  0
  9 24  1  0
  6 25  1  0
  5 26  1  0
  4 27  1  0
  3 28  1  0
  7  2  1  0
 12  8  1  0
 18 13  1  0
M  END
>  <cnnaffinity>  (1) 
-5.02492

>  <filename>  (1) 
Ic1ccccc1-c1ccnn1-c1cccnc1

$$$$
