
     RDKit          3D

 24 25  0  0  0  0  0  0  0  0999 V2000
    4.3412   -2.5657   18.4045 H   0  0  0  0  0  0  0  0  0  0  0  0
    4.9703   -3.1564   18.9586 N   0  0  0  0  0  0  0  0  0  0  0  0
    5.6572   -2.4009   19.6695 N   0  0  0  0  0  4  0  0  0  0  0  0
    6.5633   -2.8847   20.4575 N   0  0  0  0  0  0  0  0  0  0  0  0
    7.3499   -1.9719   21.0914 C   0  0  0  0  0  0  0  0  0  0  0  0
    7.3408   -0.5495   20.9990 C   0  0  0  0  0  0  0  0  0  0  0  0
    6.6830    0.1866   19.9056 C   0  0  0  0  0  0  0  0  0  0  0  0
    7.2173    0.2305   18.6031 C   0  0  0  0  0  0  0  0  0  0  0  0
    8.1646   -0.2714   18.3943 H   0  0  0  0  0  0  0  0  0  0  0  0
    6.6048    0.8178   17.5716 N   0  0  0  0  0  0  0  0  0  0  0  0
    5.4187    1.4019   17.8026 C   0  0  0  0  0  0  0  0  0  0  0  0
    4.9415    1.8796   16.9462 H   0  0  0  0  0  0  0  0  0  0  0  0
    4.8020    1.4144   19.0565 C   0  0  0  0  0  0  0  0  0  0  0  0
    3.8389    1.8981   19.1775 H   0  0  0  0  0  0  0  0  0  0  0  0
    5.4528    0.8146   20.1339 C   0  0  0  0  0  0  0  0  0  0  0  0
    5.0038    0.7795   21.1323 H   0  0  0  0  0  0  0  0  0  0  0  0
    7.9689    0.1872   22.0550 C   0  0  0  0  0  0  0  0  0  0  0  0
    7.8067    1.2700   22.0896 H   0  0  0  0  0  0  0  0  0  0  0  0
    8.7207   -0.4369   23.0112 C   0  0  0  0  0  0  0  0  0  0  0  0
    9.1887    0.0693   23.8455 H   0  0  0  0  0  0  0  0  0  0  0  0
    8.9355   -1.8919   22.9728 C   0  0  0  0  0  0  0  0  0  0  0  0
    9.6223   -2.5353   23.7452 O   0  0  0  0  0  0  0  0  0  0  0  0
    8.2460   -2.5478   21.9500 N   0  0  0  0  0  0  0  0  0  0  0  0
    8.2689   -3.5578   21.9968 H   0  0  0  0  0  0  0  0  0  0  0  0
  1  2  1  0
  2  3  2  0
  3  4  2  0
  4  5  1  0
  5  6  2  0
  6  7  1  0
  7  8  2  0
  8  9  1  0
  8 10  1  0
 10 11  2  0
 11 12  1  0
 11 13  1  0
 13 14  1  0
 13 15  2  0
 15 16  1  0
  6 17  1  0
 17 18  1  0
 17 19  2  0
 19 20  1  0
 19 21  1  0
 21 22  2  0
 21 23  1  0
 23 24  1  0
 23  5  1  0
 15  7  1  0
M  CHG  1   3   1
M  END
>  <cnnaffinity>  (1) 
-4.3446

>  <filename>  (1) 
N=[N+]=Nc1[nH]c(=O)ccc1-c1cccnc1

$$$$
