
     RDKit          3D

 31 33  0  0  0  0  0  0  0  0999 V2000
    9.1343   -1.4937   24.7835 H   0  0  0  0  0  0  0  0  0  0  0  0
    8.6699   -0.6960   24.3577 N   0  0  0  0  0  0  0  0  0  0  0  0
    8.3599   -0.9590   23.1566 C   0  0  0  0  0  0  0  0  0  0  0  0
    8.6351   -2.4784   22.2888 S   0  0  0  0  0  0  0  0  0  0  0  0
    7.7332   -1.9071   20.9293 C   0  0  0  0  0  0  0  0  0  0  0  0
    7.4098   -2.5869   20.1629 H   0  0  0  0  0  0  0  0  0  0  0  0
    7.3549   -0.6307   21.0414 C   0  0  0  0  0  0  0  0  0  0  0  0
    6.6513    0.1101   19.9661 C   0  0  0  0  0  0  0  0  0  0  0  0
    7.1608    0.0890   18.6495 C   0  0  0  0  0  0  0  0  0  0  0  0
    8.1052   -0.4082   18.4184 H   0  0  0  0  0  0  0  0  0  0  0  0
    6.5629    0.6745   17.6051 N   0  0  0  0  0  0  0  0  0  0  0  0
    5.3988    1.3011   17.8369 C   0  0  0  0  0  0  0  0  0  0  0  0
    4.9407    1.7890   16.9809 H   0  0  0  0  0  0  0  0  0  0  0  0
    4.7838    1.3507   19.0932 C   0  0  0  0  0  0  0  0  0  0  0  0
    3.8295    1.8556   19.2061 H   0  0  0  0  0  0  0  0  0  0  0  0
    5.4224    0.7521   20.1782 C   0  0  0  0  0  0  0  0  0  0  0  0
    4.9861    0.7484   21.1788 H   0  0  0  0  0  0  0  0  0  0  0  0
    7.6663   -0.0786   22.2954 N   0  0  0  0  0  0  0  0  0  0  0  0
    7.2787    1.2012   22.6800 N   0  0  0  0  0  0  0  0  0  0  0  0
    7.4306    1.9540   22.0166 H   0  0  0  0  0  0  0  0  0  0  0  0
    6.4429    1.4587   23.7627 C   0  0  0  0  0  0  0  0  0  0  0  0
    5.7099    0.4641   24.4295 C   0  0  0  0  0  0  0  0  0  0  0  0
    5.8428   -0.5710   24.1270 H   0  0  0  0  0  0  0  0  0  0  0  0
    4.8989    0.8082   25.5127 C   0  0  0  0  0  0  0  0  0  0  0  0
    4.3048    0.0365   25.9966 H   0  0  0  0  0  0  0  0  0  0  0  0
    4.8668    2.1237   25.9864 C   0  0  0  0  0  0  0  0  0  0  0  0
    4.2820    2.3747   26.8663 H   0  0  0  0  0  0  0  0  0  0  0  0
    5.6294    3.1058   25.3453 C   0  0  0  0  0  0  0  0  0  0  0  0
    5.6587    4.1199   25.7330 H   0  0  0  0  0  0  0  0  0  0  0  0
    6.3892    2.7824   24.2203 C   0  0  0  0  0  0  0  0  0  0  0  0
    6.9978    3.5232   23.7065 H   0  0  0  0  0  0  0  0  0  0  0  0
  1  2  1  0
  2  3  2  3
  3  4  1  0
  4  5  1  0
  5  6  1  0
  5  7  2  0
  7  8  1  0
  8  9  2  0
  9 10  1  0
  9 11  1  0
 11 12  2  0
 12 13  1  0
 12 14  1  0
 14 15  1  0
 14 16  2  0
 16 17  1  0
  7 18  1  0
 18 19  1  0
 19 20  1  0
 19 21  1  0
 21 22  2  0
 22 23  1  0
 22 24  1  0
 24 25  1  0
 24 26  2  0
 26 27  1  0
 26 28  1  0
 28 29  1  0
 28 30  2  0
 30 31  1  0
 18  3  1  0
 30 21  1  0
 16  8  1  0
M  END
>  <cnnaffinity>  (1) 
-4.81778

>  <filename>  (1) 
N=c1scc(-c2cccnc2)n1Nc1ccccc1

$$$$
