
     RDKit          3D

 29 30  0  0  0  0  0  0  0  0999 V2000
    5.0008    1.8018   16.9053 H   0  0  0  0  0  0  0  0  0  0  0  0
    5.4136    1.3371   17.8020 C   0  0  0  0  0  0  0  0  0  0  0  0
    6.5918    0.7167   17.6544 N   0  0  0  0  0  0  0  0  0  0  0  0
    7.1217    0.1510   18.7447 C   0  0  0  0  0  0  0  0  0  0  0  0
    8.0653   -0.3722   18.5893 H   0  0  0  0  0  0  0  0  0  0  0  0
    6.5439    0.1663   20.0162 C   0  0  0  0  0  0  0  0  0  0  0  0
    7.3299   -0.4631   21.1446 C   0  0  2  0  0  0  0  0  0  0  0  0
    6.7633   -0.3363   22.0764 H   0  0  0  0  0  0  0  0  0  0  0  0
    8.6395    0.1785   21.2949 N   0  0  0  0  0  0  0  0  0  0  0  0
    8.4875    1.1777   21.3941 H   0  0  0  0  0  0  0  0  0  0  0  0
    9.1524    0.0823   20.4219 H   0  0  0  0  0  0  0  0  0  0  0  0
    7.5484   -1.9716   20.9121 C   0  0  0  0  0  0  0  0  0  0  0  0
    8.3496   -2.0076   20.1677 H   0  0  0  0  0  0  0  0  0  0  0  0
    6.6552   -2.4208   20.4659 H   0  0  0  0  0  0  0  0  0  0  0  0
    8.0201   -2.7549   22.1202 C   0  0  0  0  0  0  0  0  0  0  0  0
    9.3968   -2.8370   22.3862 C   0  0  0  0  0  0  0  0  0  0  0  0
   10.0897   -2.3520   21.6951 H   0  0  0  0  0  0  0  0  0  0  0  0
    9.8853   -3.5300   23.4947 C   0  0  0  0  0  0  0  0  0  0  0  0
   10.9570   -3.5805   23.6518 H   0  0  0  0  0  0  0  0  0  0  0  0
    8.9966   -4.1645   24.3701 C   0  0  0  0  0  0  0  0  0  0  0  0
    9.3810   -4.6945   25.2387 H   0  0  0  0  0  0  0  0  0  0  0  0
    7.6210   -4.1107   24.1283 C   0  0  0  0  0  0  0  0  0  0  0  0
    6.9103   -4.6047   24.7838 H   0  0  0  0  0  0  0  0  0  0  0  0
    7.1530   -3.4041   23.0192 C   0  0  0  0  0  0  0  0  0  0  0  0
    5.8199   -3.3607   22.8152 F   0  0  0  0  0  0  0  0  0  0  0  0
    5.2948    0.7913   20.1492 C   0  0  0  0  0  0  0  0  0  0  0  0
    4.7779    0.8176   21.1125 H   0  0  0  0  0  0  0  0  0  0  0  0
    4.7239    1.3852   19.0182 C   0  0  0  0  0  0  0  0  0  0  0  0
    3.7665    1.8914   19.0617 H   0  0  0  0  0  0  0  0  0  0  0  0
  1  2  1  0
  2  3  2  0
  3  4  1  0
  4  5  1  0
  4  6  2  0
  6  7  1  0
  7  8  1  1
  7  9  1  0
  9 10  1  0
  9 11  1  0
  7 12  1  0
 12 13  1  0
 12 14  1  0
 12 15  1  0
 15 16  2  0
 16 17  1  0
 16 18  1  0
 18 19  1  0
 18 20  2  0
 20 21  1  0
 20 22  1  0
 22 23  1  0
 22 24  2  0
 24 25  1  0
  6 26  1  0
 26 27  1  0
 26 28  2  0
 28 29  1  0
 28  2  1  0
 24 15  1  0
M  END
>  <cnnaffinity>  (1) 
-4.26501

>  <filename>  (1) 
N[C@H](Cc1ccccc1F)c1cccnc1

$$$$
