
     RDKit          3D

 29 30  0  0  0  0  0  0  0  0999 V2000
    4.9911    1.7451   16.8732 H   0  0  0  0  0  0  0  0  0  0  0  0
    5.4134    1.3264   17.7846 C   0  0  0  0  0  0  0  0  0  0  0  0
    6.6018    0.7205   17.6579 N   0  0  0  0  0  0  0  0  0  0  0  0
    7.1412    0.2004   18.7693 C   0  0  0  0  0  0  0  0  0  0  0  0
    8.1038   -0.2949   18.6635 H   0  0  0  0  0  0  0  0  0  0  0  0
    6.5469    0.2497   20.0390 C   0  0  0  0  0  0  0  0  0  0  0  0
    7.2459   -0.4668   21.1713 C   0  0  2  0  0  0  0  0  0  0  0  0
    6.8337   -0.1178   22.1390 H   0  0  0  0  0  0  0  0  0  0  0  0
    8.6851   -0.2324   21.0514 N   0  0  0  0  0  0  0  0  0  0  0  0
    8.8534    0.7683   21.1159 H   0  0  0  0  0  0  0  0  0  0  0  0
    9.1574   -0.6682   21.8403 H   0  0  0  0  0  0  0  0  0  0  0  0
    6.9869   -1.9856   21.0716 C   0  0  0  0  0  0  0  0  0  0  0  0
    5.9228   -2.1602   20.8963 H   0  0  0  0  0  0  0  0  0  0  0  0
    7.5002   -2.3288   20.1716 H   0  0  0  0  0  0  0  0  0  0  0  0
    7.4678   -2.7781   22.2607 C   0  0  0  0  0  0  0  0  0  0  0  0
    8.8241   -3.1216   22.3744 C   0  0  0  0  0  0  0  0  0  0  0  0
    9.5025   -2.8265   21.5744 H   0  0  0  0  0  0  0  0  0  0  0  0
    9.2878   -3.8216   23.4906 C   0  0  0  0  0  0  0  0  0  0  0  0
   10.3346   -4.0943   23.5606 H   0  0  0  0  0  0  0  0  0  0  0  0
    8.4090   -4.1885   24.5159 C   0  0  0  0  0  0  0  0  0  0  0  0
    8.7659   -4.7308   25.3847 H   0  0  0  0  0  0  0  0  0  0  0  0
    7.0591   -3.8477   24.3989 C   0  0  0  0  0  0  0  0  0  0  0  0
    5.9419   -4.3416   25.6401 Cl  0  0  0  0  0  0  0  0  0  0  0  0
    6.5793   -3.1471   23.2861 C   0  0  0  0  0  0  0  0  0  0  0  0
    5.5209   -2.9230   23.2261 H   0  0  0  0  0  0  0  0  0  0  0  0
    5.2911    0.8657   20.1445 C   0  0  0  0  0  0  0  0  0  0  0  0
    4.7724    0.9241   21.1043 H   0  0  0  0  0  0  0  0  0  0  0  0
    4.7157    1.4174   18.9943 C   0  0  0  0  0  0  0  0  0  0  0  0
    3.7531    1.9165   19.0204 H   0  0  0  0  0  0  0  0  0  0  0  0
  1  2  1  0
  2  3  2  0
  3  4  1  0
  4  5  1  0
  4  6  2  0
  6  7  1  0
  7  8  1  1
  7  9  1  0
  9 10  1  0
  9 11  1  0
  7 12  1  0
 12 13  1  0
 12 14  1  0
 12 15  1  0
 15 16  2  0
 16 17  1  0
 16 18  1  0
 18 19  1  0
 18 20  2  0
 20 21  1  0
 20 22  1  0
 22 23  1  0
 22 24  2  0
 24 25  1  0
  6 26  1  0
 26 27  1  0
 26 28  2  0
 28 29  1  0
 28  2  1  0
 24 15  1  0
M  END
>  <cnnaffinity>  (1) 
-4.23303

>  <filename>  (1) 
N[C@H](Cc1cccc(Cl)c1)c1cccnc1

$$$$
