
     RDKit          3D

 34 36  0  0  0  0  0  0  0  0999 V2000
    4.9138    1.9874   16.4093 H   0  0  0  0  0  0  0  0  0  0  0  0
    5.1555    1.6105   17.3992 C   0  0  0  0  0  0  0  0  0  0  0  0
    6.3122    0.9433   17.5022 N   0  0  0  0  0  0  0  0  0  0  0  0
    6.6485    0.4835   18.7116 C   0  0  0  0  0  0  0  0  0  0  0  0
    7.5987   -0.0524   18.7260 H   0  0  0  0  0  0  0  0  0  0  0  0
    5.8770    0.6344   19.8744 C   0  0  0  0  0  0  0  0  0  0  0  0
    6.4368    0.0778   21.1771 C   0  0  2  0  0  0  0  0  0  0  0  0
    5.7476    0.2740   22.0076 H   0  0  0  0  0  0  0  0  0  0  0  0
    7.6964    0.7443   21.5135 N   0  0  0  0  0  0  0  0  0  0  0  0
    8.2666    0.8368   20.6829 H   0  0  0  0  0  0  0  0  0  0  0  0
    7.4923    1.6954   21.8082 H   0  0  0  0  0  0  0  0  0  0  0  0
    6.6068   -1.4625   21.0618 C   0  0  0  0  0  0  0  0  0  0  0  0
    7.2096   -1.6739   20.1715 H   0  0  0  0  0  0  0  0  0  0  0  0
    5.6097   -1.8555   20.8321 H   0  0  0  0  0  0  0  0  0  0  0  0
    7.1637   -2.2816   22.2232 C   0  0  0  0  0  0  0  0  0  0  0  0
    6.3174   -2.9859   23.0632 C   0  0  0  0  0  0  0  0  0  0  0  0
    5.2347   -2.9186   22.9592 H   0  0  0  0  0  0  0  0  0  0  0  0
    6.7063   -3.8539   24.0440 N   0  0  0  0  0  0  0  0  0  0  0  0
    7.9943   -4.0333   24.2332 C   0  0  0  0  0  0  0  0  0  0  0  0
    8.3072   -4.7403   25.0130 H   0  0  0  0  0  0  0  0  0  0  0  0
    8.9950   -3.3753   23.4660 C   0  0  0  0  0  0  0  0  0  0  0  0
   10.3832   -3.6114   23.6955 C   0  0  0  0  0  0  0  0  0  0  0  0
   10.6920   -4.3017   24.4766 H   0  0  0  0  0  0  0  0  0  0  0  0
   11.3209   -3.0033   22.9042 C   0  0  0  0  0  0  0  0  0  0  0  0
   12.3665   -3.2708   22.9994 H   0  0  0  0  0  0  0  0  0  0  0  0
   10.9351   -2.1112   21.8804 C   0  0  0  0  0  0  0  0  0  0  0  0
   11.7033   -1.6493   21.2667 H   0  0  0  0  0  0  0  0  0  0  0  0
    9.6006   -1.8529   21.6483 C   0  0  0  0  0  0  0  0  0  0  0  0
    9.3133   -1.1326   20.8911 H   0  0  0  0  0  0  0  0  0  0  0  0
    8.5796   -2.4793   22.4280 C   0  0  0  0  0  0  0  0  0  0  0  0
    4.6591    1.3193   19.7348 C   0  0  0  0  0  0  0  0  0  0  0  0
    4.0048    1.4699   20.5929 H   0  0  0  0  0  0  0  0  0  0  0  0
    4.2934    1.8121   18.4796 C   0  0  0  0  0  0  0  0  0  0  0  0
    3.3724    2.3669   18.3285 H   0  0  0  0  0  0  0  0  0  0  0  0
  1  2  1  0
  2  3  2  0
  3  4  1  0
  4  5  1  0
  4  6  2  0
  6  7  1  0
  7  8  1  1
  7  9  1  0
  9 10  1  0
  9 11  1  0
  7 12  1  0
 12 13  1  0
 12 14  1  0
 12 15  1  0
 15 16  2  0
 16 17  1  0
 16 18  1  0
 18 19  2  0
 19 20  1  0
 19 21  1  0
 21 22  2  0
 22 23  1  0
 22 24  1  0
 24 25  1  0
 24 26  2  0
 26 27  1  0
 26 28  1  0
 28 29  1  0
 28 30  2  0
  6 31  1  0
 31 32  1  0
 31 33  2  0
 33 34  1  0
 33  2  1  0
 30 15  1  0
 30 21  1  0
M  END
>  <cnnaffinity>  (1) 
-5.16063

>  <filename>  (1) 
N[C@H](Cc1cncc2ccccc12)c1cccnc1

$$$$
