
     RDKit          3D

 35 37  0  0  0  0  0  0  0  0999 V2000
    4.9877    1.7986   16.9237 H   0  0  0  0  0  0  0  0  0  0  0  0
    5.4136    1.3245   17.8073 C   0  0  0  0  0  0  0  0  0  0  0  0
    6.5870    0.6975   17.6394 N   0  0  0  0  0  0  0  0  0  0  0  0
    7.1303    0.1239   18.7194 C   0  0  0  0  0  0  0  0  0  0  0  0
    8.0723   -0.3974   18.5408 H   0  0  0  0  0  0  0  0  0  0  0  0
    6.5616    0.1310   19.9985 C   0  0  0  0  0  0  0  0  0  0  0  0
    7.3312   -0.5244   21.1213 C   0  0  2  0  0  0  0  0  0  0  0  0
    6.7761   -0.4008   22.0640 H   0  0  0  0  0  0  0  0  0  0  0  0
    8.6563    0.0833   21.2747 N   0  0  0  0  0  0  0  0  0  0  0  0
    9.1726    0.0036   20.4035 H   0  0  0  0  0  0  0  0  0  0  0  0
    8.5408    1.0814   21.4132 H   0  0  0  0  0  0  0  0  0  0  0  0
    7.5488   -2.0269   20.8565 C   0  0  0  0  0  0  0  0  0  0  0  0
    6.6659   -2.4760   20.3820 H   0  0  0  0  0  0  0  0  0  0  0  0
    8.3642   -2.0379   20.1254 H   0  0  0  0  0  0  0  0  0  0  0  0
    8.0162   -2.8156   22.0600 C   0  0  0  0  0  0  0  0  0  0  0  0
    9.3776   -2.9294   22.2723 C   0  0  0  0  0  0  0  0  0  0  0  0
   10.0716   -2.4496   21.5873 H   0  0  0  0  0  0  0  0  0  0  0  0
    9.9111   -3.6383   23.3745 C   0  0  0  0  0  0  0  0  0  0  0  0
   10.9911   -3.6885   23.4805 H   0  0  0  0  0  0  0  0  0  0  0  0
    9.0728   -4.2224   24.2921 C   0  0  0  0  0  0  0  0  0  0  0  0
    9.4861   -4.7534   25.1464 H   0  0  0  0  0  0  0  0  0  0  0  0
    7.6562   -4.0827   24.1669 C   0  0  0  0  0  0  0  0  0  0  0  0
    6.7726   -4.5736   25.1820 C   0  0  0  0  0  0  0  0  0  0  0  0
    7.1845   -5.1443   26.0172 H   0  0  0  0  0  0  0  0  0  0  0  0
    5.4269   -4.2993   25.1329 C   0  0  0  0  0  0  0  0  0  0  0  0
    4.7734   -4.6020   25.9505 H   0  0  0  0  0  0  0  0  0  0  0  0
    4.8781   -3.5870   24.0335 C   0  0  0  0  0  0  0  0  0  0  0  0
    3.8186   -3.3398   24.0362 H   0  0  0  0  0  0  0  0  0  0  0  0
    5.6912   -3.1667   22.9978 C   0  0  0  0  0  0  0  0  0  0  0  0
    5.2542   -2.6454   22.1487 H   0  0  0  0  0  0  0  0  0  0  0  0
    7.1113   -3.3618   23.0407 C   0  0  0  0  0  0  0  0  0  0  0  0
    5.3193    0.7637   20.1508 C   0  0  0  0  0  0  0  0  0  0  0  0
    4.8246    0.7867   21.1250 H   0  0  0  0  0  0  0  0  0  0  0  0
    4.7402    1.3708   19.0332 C   0  0  0  0  0  0  0  0  0  0  0  0
    3.7881    1.8852   19.1011 H   0  0  0  0  0  0  0  0  0  0  0  0
  1  2  1  0
  2  3  2  0
  3  4  1  0
  4  5  1  0
  4  6  2  0
  6  7  1  0
  7  8  1  1
  7  9  1  0
  9 10  1  0
  9 11  1  0
  7 12  1  0
 12 13  1  0
 12 14  1  0
 12 15  1  0
 15 16  2  0
 16 17  1  0
 16 18  1  0
 18 19  1  0
 18 20  2  0
 20 21  1  0
 20 22  1  0
 22 23  2  0
 23 24  1  0
 23 25  1  0
 25 26  1  0
 25 27  2  0
 27 28  1  0
 27 29  1  0
 29 30  1  0
 29 31  2  0
  6 32  1  0
 32 33  1  0
 32 34  2  0
 34 35  1  0
 34  2  1  0
 31 15  1  0
 31 22  1  0
M  END
>  <cnnaffinity>  (1) 
-4.64644

>  <filename>  (1) 
N[C@H](Cc1cccc2ccccc12)c1cccnc1

$$$$
