
     RDKit          3D

 32 33  0  0  0  0  0  0  0  0999 V2000
    5.4158    1.8891   17.4325 H   0  0  0  0  0  0  0  0  0  0  0  0
    5.7619    1.2294   18.2239 C   0  0  0  0  0  0  0  0  0  0  0  0
    6.8325    0.4778   17.9330 N   0  0  0  0  0  0  0  0  0  0  0  0
    7.2648   -0.3591   18.8897 C   0  0  0  0  0  0  0  0  0  0  0  0
    8.1586   -0.9385   18.6509 H   0  0  0  0  0  0  0  0  0  0  0  0
    6.6636   -0.5085   20.1441 C   0  0  0  0  0  0  0  0  0  0  0  0
    7.1939   -1.4949   21.1537 C   0  0  2  0  0  0  0  0  0  0  0  0
    8.0341   -2.0461   20.7062 H   0  0  0  0  0  0  0  0  0  0  0  0
    6.1151   -2.4506   21.4107 N   0  0  0  0  0  0  0  0  0  0  0  0
    5.3070   -1.9213   21.7383 H   0  0  0  0  0  0  0  0  0  0  0  0
    6.3795   -3.0631   22.1766 H   0  0  0  0  0  0  0  0  0  0  0  0
    7.7106   -0.8056   22.4478 C   0  0  0  0  0  0  0  0  0  0  0  0
    8.0855   -1.5775   23.1215 H   0  0  0  0  0  0  0  0  0  0  0  0
    6.8476   -0.3482   22.9541 H   0  0  0  0  0  0  0  0  0  0  0  0
    8.7433    0.2848   22.2020 C   0  0  0  0  0  0  0  0  0  0  0  0
    8.2915    1.5923   21.9718 C   0  0  0  0  0  0  0  0  0  0  0  0
    7.2220    1.7754   22.0024 H   0  0  0  0  0  0  0  0  0  0  0  0
    9.1605    2.6283   21.6384 C   0  0  0  0  0  0  0  0  0  0  0  0
    8.7562    3.6249   21.4659 H   0  0  0  0  0  0  0  0  0  0  0  0
   10.5258    2.3617   21.5118 C   0  0  0  0  0  0  0  0  0  0  0  0
   11.2122    3.1529   21.2282 H   0  0  0  0  0  0  0  0  0  0  0  0
   11.0097    1.0775   21.7591 C   0  0  0  0  0  0  0  0  0  0  0  0
   12.0728    0.8683   21.6763 H   0  0  0  0  0  0  0  0  0  0  0  0
   10.1314    0.0450   22.1460 C   0  0  0  0  0  0  0  0  0  0  0  0
   10.6847   -1.2876   22.6107 C   0  0  0  0  0  0  0  0  0  0  0  0
   10.4089   -1.5170   23.9164 F   0  0  0  0  0  0  0  0  0  0  0  0
   10.1392   -2.3269   21.9402 F   0  0  0  0  0  0  0  0  0  0  0  0
   12.0157   -1.3993   22.4588 F   0  0  0  0  0  0  0  0  0  0  0  0
    5.5636    0.3143   20.4339 C   0  0  0  0  0  0  0  0  0  0  0  0
    5.1000    0.2898   21.4253 H   0  0  0  0  0  0  0  0  0  0  0  0
    5.0988    1.1944   19.4568 C   0  0  0  0  0  0  0  0  0  0  0  0
    4.2505    1.8466   19.6384 H   0  0  0  0  0  0  0  0  0  0  0  0
  1  2  1  0
  2  3  2  0
  3  4  1  0
  4  5  1  0
  4  6  2  0
  6  7  1  0
  7  8  1  6
  7  9  1  0
  9 10  1  0
  9 11  1  0
  7 12  1  0
 12 13  1  0
 12 14  1  0
 12 15  1  0
 15 16  2  0
 16 17  1  0
 16 18  1  0
 18 19  1  0
 18 20  2  0
 20 21  1  0
 20 22  1  0
 22 23  1  0
 22 24  2  0
 24 25  1  0
 25 26  1  0
 25 27  1  0
 25 28  1  0
  6 29  1  0
 29 30  1  0
 29 31  2  0
 31 32  1  0
 31  2  1  0
 24 15  1  0
M  END
>  <cnnaffinity>  (1) 
-4.88282

>  <filename>  (1) 
N[C@H](Cc1ccccc1C(F)(F)F)c1cccnc1

$$$$
