
     RDKit          3D

 33 35  0  0  0  0  0  0  0  0999 V2000
    8.7752   -3.1662   22.0623 H   0  0  0  0  0  0  0  0  0  0  0  0
    8.3342   -2.1949   21.8802 C   0  0  0  0  0  0  0  0  0  0  0  0
    8.3855   -1.1744   22.7748 N   0  0  0  0  0  0  0  0  0  0  0  0
    7.7145   -0.2337   22.1556 C   0  0  0  0  0  0  0  0  0  0  0  0
    7.4372    1.0166   22.6237 N   0  0  0  0  0  0  0  0  0  0  0  0
    6.4540    1.2625   22.4807 H   0  0  0  0  0  0  0  0  0  0  0  0
    7.8474    1.4804   23.8663 C   0  0  0  0  0  0  0  0  0  0  0  0
    9.1431    1.2654   24.3591 C   0  0  0  0  0  0  0  0  0  0  0  0
    9.8080    0.6573   23.7553 H   0  0  0  0  0  0  0  0  0  0  0  0
    9.5198    1.7747   25.6026 C   0  0  0  0  0  0  0  0  0  0  0  0
   10.5231    1.5817   25.9882 H   0  0  0  0  0  0  0  0  0  0  0  0
    8.5780    2.4851   26.3577 C   0  0  0  0  0  0  0  0  0  0  0  0
    8.8196    2.8849   27.3293 H   0  0  0  0  0  0  0  0  0  0  0  0
    7.2997    2.7113   25.8685 C   0  0  0  0  0  0  0  0  0  0  0  0
    6.5833    3.2316   26.4995 H   0  0  0  0  0  0  0  0  0  0  0  0
    6.9213    2.2563   24.5945 C   0  0  0  0  0  0  0  0  0  0  0  0
    5.5884    2.5601   24.0331 C   0  0  0  0  0  0  0  0  0  0  0  0
    5.0448    1.9695   23.0971 O   0  0  0  0  0  0  0  0  0  0  0  0
    4.8677    3.5579   24.6120 N   0  0  0  0  0  0  0  0  0  0  0  0
    5.3953    4.3626   24.9156 H   0  0  0  0  0  0  0  0  0  0  0  0
    4.0704    3.7319   24.0226 H   0  0  0  0  0  0  0  0  0  0  0  0
    7.2924   -0.6690   20.9227 N   0  0  0  0  0  0  0  0  0  0  0  0
    6.5963    0.0048   19.8726 C   0  0  0  0  0  0  0  0  0  0  0  0
    7.1106   -0.0184   18.5627 C   0  0  0  0  0  0  0  0  0  0  0  0
    8.0228   -0.5719   18.3477 H   0  0  0  0  0  0  0  0  0  0  0  0
    6.5391    0.6230   17.5410 N   0  0  0  0  0  0  0  0  0  0  0  0
    5.4011    1.2998   17.7797 C   0  0  0  0  0  0  0  0  0  0  0  0
    4.9746    1.8253   16.9287 H   0  0  0  0  0  0  0  0  0  0  0  0
    4.7920    1.3509   19.0358 C   0  0  0  0  0  0  0  0  0  0  0  0
    3.8801    1.9238   19.1733 H   0  0  0  0  0  0  0  0  0  0  0  0
    5.3940    0.6862   20.1116 C   0  0  0  0  0  0  0  0  0  0  0  0
    4.9314    0.6886   21.0998 H   0  0  0  0  0  0  0  0  0  0  0  0
    7.7157   -1.9537   20.7481 N   0  0  0  0  0  0  0  0  0  0  0  0
  1  2  1  0
  2  3  1  0
  3  4  2  0
  4  5  1  0
  5  6  1  0
  5  7  1  0
  7  8  2  0
  8  9  1  0
  8 10  1  0
 10 11  1  0
 10 12  2  0
 12 13  1  0
 12 14  1  0
 14 15  1  0
 14 16  2  0
 16 17  1  0
 17 18  2  0
 17 19  1  0
 19 20  1  0
 19 21  1  0
  4 22  1  0
 22 23  1  0
 23 24  2  0
 24 25  1  0
 24 26  1  0
 26 27  2  0
 27 28  1  0
 27 29  1  0
 29 30  1  0
 29 31  2  0
 31 32  1  0
 22 33  1  0
 33  2  2  0
 16  7  1  0
 31 23  1  0
M  END
>  <cnnaffinity>  (1) 
-4.97096

>  <filename>  (1) 
NC(=O)c1ccccc1Nc1ncnn1-c1cccnc1

$$$$
