
     RDKit          3D

 35 37  0  0  0  0  0  0  0  0999 V2000
    4.9578    1.8379   16.9729 H   0  0  0  0  0  0  0  0  0  0  0  0
    5.4051    1.3050   17.8126 C   0  0  0  0  0  0  0  0  0  0  0  0
    6.5535    0.6547   17.5619 N   0  0  0  0  0  0  0  0  0  0  0  0
    7.1327    0.0179   18.5886 C   0  0  0  0  0  0  0  0  0  0  0  0
    8.0631   -0.4959   18.3490 H   0  0  0  0  0  0  0  0  0  0  0  0
    6.6237   -0.0302   19.9036 C   0  0  0  0  0  0  0  0  0  0  0  0
    7.3455   -0.7497   21.0006 C   0  0  0  0  0  0  0  0  0  0  0  0
    8.7529   -0.6189   21.1887 C   0  0  0  0  0  0  0  0  0  0  0  0
    9.3650    0.0269   20.5701 H   0  0  0  0  0  0  0  0  0  0  0  0
    9.4173   -1.2350   22.1506 N   0  0  0  0  0  0  0  0  0  0  0  0
    8.7682   -2.0578   22.9992 N   0  0  0  0  0  0  0  0  0  0  0  0
    7.4495   -2.2190   22.9036 C   0  0  0  0  0  0  0  0  0  0  0  0
    6.7480   -3.0287   23.7983 N   0  0  0  0  0  0  0  0  0  0  0  0
    5.9998   -2.4985   24.2437 H   0  0  0  0  0  0  0  0  0  0  0  0
    7.3493   -3.8987   24.7076 C   0  0  0  0  0  0  0  0  0  0  0  0
    8.3852   -4.7446   24.2946 C   0  0  0  0  0  0  0  0  0  0  0  0
    8.7444   -4.6577   23.2734 H   0  0  0  0  0  0  0  0  0  0  0  0
    8.9816   -5.6343   25.1887 C   0  0  0  0  0  0  0  0  0  0  0  0
    9.8020   -6.2713   24.8568 H   0  0  0  0  0  0  0  0  0  0  0  0
    8.5412   -5.6832   26.5188 C   0  0  0  0  0  0  0  0  0  0  0  0
    8.9982   -6.3743   27.2212 H   0  0  0  0  0  0  0  0  0  0  0  0
    7.5034   -4.8552   26.9335 C   0  0  0  0  0  0  0  0  0  0  0  0
    7.1851   -4.8911   27.9750 H   0  0  0  0  0  0  0  0  0  0  0  0
    6.8767   -3.9638   26.0357 C   0  0  0  0  0  0  0  0  0  0  0  0
    5.7760   -3.0772   26.4738 C   0  0  0  0  0  0  0  0  0  0  0  0
    5.4408   -2.0334   25.9247 O   0  0  0  0  0  0  0  0  0  0  0  0
    5.0964   -3.4723   27.5903 N   0  0  0  0  0  0  0  0  0  0  0  0
    4.9710   -4.4655   27.6682 H   0  0  0  0  0  0  0  0  0  0  0  0
    4.2711   -2.9048   27.7011 H   0  0  0  0  0  0  0  0  0  0  0  0
    6.6932   -1.5728   21.9072 C   0  0  0  0  0  0  0  0  0  0  0  0
    5.6346   -1.7987   21.8568 H   0  0  0  0  0  0  0  0  0  0  0  0
    5.4121    0.6463   20.1301 C   0  0  0  0  0  0  0  0  0  0  0  0
    4.9684    0.6694   21.1281 H   0  0  0  0  0  0  0  0  0  0  0  0
    4.7971    1.3211   19.0710 C   0  0  0  0  0  0  0  0  0  0  0  0
    3.8711    1.8709   19.2054 H   0  0  0  0  0  0  0  0  0  0  0  0
  1  2  1  0
  2  3  2  0
  3  4  1  0
  4  5  1  0
  4  6  2  0
  6  7  1  0
  7  8  2  0
  8  9  1  0
  8 10  1  0
 10 11  2  0
 11 12  1  0
 12 13  1  0
 13 14  1  0
 13 15  1  0
 15 16  2  0
 16 17  1  0
 16 18  1  0
 18 19  1  0
 18 20  2  0
 20 21  1  0
 20 22  1  0
 22 23  1  0
 22 24  2  0
 24 25  1  0
 25 26  2  0
 25 27  1  0
 27 28  1  0
 27 29  1  0
 12 30  2  0
 30 31  1  0
  6 32  1  0
 32 33  1  0
 32 34  2  0
 34 35  1  0
 34  2  1  0
 30  7  1  0
 24 15  1  0
M  END
>  <cnnaffinity>  (1) 
-5.24124

>  <filename>  (1) 
NC(=O)c1ccccc1Nc1cc(-c2cccnc2)cnn1

$$$$
