
     RDKit          3D

 22 23  0  0  0  0  0  0  0  0999 V2000
    4.9551    1.7810   17.0302 H   0  0  0  0  0  0  0  0  0  0  0  0
    5.4355    1.2785   17.8666 C   0  0  0  0  0  0  0  0  0  0  0  0
    6.5983    0.6640   17.5996 N   0  0  0  0  0  0  0  0  0  0  0  0
    7.2204    0.0398   18.6107 C   0  0  0  0  0  0  0  0  0  0  0  0
    8.1629   -0.4499   18.3693 H   0  0  0  0  0  0  0  0  0  0  0  0
    6.6994   -0.0264   19.9211 C   0  0  0  0  0  0  0  0  0  0  0  0
    7.3514   -0.7756   20.9742 N   0  0  0  0  0  0  0  0  0  0  0  0
    8.6121   -0.5356   21.5174 C   0  0  0  0  0  0  0  0  0  0  0  0
    9.4656    0.6837   21.1986 C   0  0  0  0  0  0  0  0  0  0  0  0
    9.0018    1.7198   20.7605 O   0  0  0  0  0  0  0  0  0  0  0  0
   10.8093    0.5712   21.3886 N   0  0  0  0  0  0  0  0  0  0  0  0
   11.2573    1.4682   21.2688 H   0  0  0  0  0  0  0  0  0  0  0  0
   11.1777   -0.0745   22.0708 H   0  0  0  0  0  0  0  0  0  0  0  0
    8.9300   -1.4492   22.3986 N   0  0  0  0  0  0  0  0  0  0  0  0
    7.8490   -2.2583   22.4238 N   0  0  0  0  0  0  0  0  0  0  0  0
    7.7270   -3.0358   23.0533 H   0  0  0  0  0  0  0  0  0  0  0  0
    6.8461   -1.9190   21.5907 C   0  0  0  0  0  0  0  0  0  0  0  0
    5.4278   -2.7605   21.3949 S   0  0  0  0  0  0  0  0  0  0  0  0
    5.4871    0.6174   20.1828 C   0  0  0  0  0  0  0  0  0  0  0  0
    5.0543    0.5687   21.1833 H   0  0  0  0  0  0  0  0  0  0  0  0
    4.8434    1.2897   19.1345 C   0  0  0  0  0  0  0  0  0  0  0  0
    3.9012    1.8103   19.2858 H   0  0  0  0  0  0  0  0  0  0  0  0
  1  2  1  0
  2  3  2  0
  3  4  1  0
  4  5  1  0
  4  6  2  0
  6  7  1  0
  7  8  1  0
  8  9  1  0
  9 10  2  0
  9 11  1  0
 11 12  1  0
 11 13  1  0
  8 14  2  0
 14 15  1  0
 15 16  1  0
 15 17  1  0
 17 18  2  0
  6 19  1  0
 19 20  1  0
 19 21  2  0
 21 22  1  0
 21  2  1  0
 17  7  1  0
M  END
>  <cnnaffinity>  (1) 
-4.4516

>  <filename>  (1) 
NC(=O)c1n[nH]c(=S)n1-c1cccnc1

$$$$
