
     RDKit          3D

 34 36  0  0  0  0  0  0  0  0999 V2000
    4.9976    1.8071   16.9666 H   0  0  0  0  0  0  0  0  0  0  0  0
    5.4614    1.3034   17.8136 C   0  0  0  0  0  0  0  0  0  0  0  0
    6.6541    0.7254   17.5816 N   0  0  0  0  0  0  0  0  0  0  0  0
    7.2478    0.1126   18.6090 C   0  0  0  0  0  0  0  0  0  0  0  0
    8.2263   -0.3280   18.4393 H   0  0  0  0  0  0  0  0  0  0  0  0
    6.6666   -0.0059   19.8827 C   0  0  0  0  0  0  0  0  0  0  0  0
    7.3593   -0.7393   20.8975 N   0  0  0  0  0  0  0  0  0  0  0  0
    8.6825   -0.4122   21.0030 N   0  0  0  0  0  0  0  0  0  0  0  0
    9.3905   -0.9582   21.9622 C   0  0  0  0  0  0  0  0  0  0  0  0
   10.8075   -0.4865   22.0661 C   0  0  0  0  0  0  0  0  0  0  0  0
   11.8871   -1.3596   22.3022 C   0  0  0  0  0  0  0  0  0  0  0  0
   11.7334   -2.4369   22.3822 H   0  0  0  0  0  0  0  0  0  0  0  0
   13.1860   -0.8485   22.4261 C   0  0  0  0  0  0  0  0  0  0  0  0
   14.0444   -1.5025   22.5728 H   0  0  0  0  0  0  0  0  0  0  0  0
   13.4091    0.5251   22.3388 C   0  0  0  0  0  0  0  0  0  0  0  0
   14.4123    0.9197   22.4715 H   0  0  0  0  0  0  0  0  0  0  0  0
   12.3447    1.3992   22.0601 C   0  0  0  0  0  0  0  0  0  0  0  0
   12.6116    2.8764   21.9285 C   0  0  0  0  0  0  0  0  0  0  0  0
   13.2277    3.5424   22.7357 O   0  0  0  0  0  0  0  0  0  0  0  0
   12.1167    3.4329   20.7988 N   0  0  0  0  0  0  0  0  0  0  0  0
   11.8388    2.8389   20.0443 H   0  0  0  0  0  0  0  0  0  0  0  0
   12.3957    4.3838   20.6358 H   0  0  0  0  0  0  0  0  0  0  0  0
   11.0554    0.8823   21.8898 C   0  0  0  0  0  0  0  0  0  0  0  0
   10.2204    1.5278   21.6162 H   0  0  0  0  0  0  0  0  0  0  0  0
    8.8185   -1.9063   22.8845 C   0  0  0  0  0  0  0  0  0  0  0  0
    9.4396   -2.2827   23.6960 H   0  0  0  0  0  0  0  0  0  0  0  0
    7.5158   -2.2768   22.7463 C   0  0  0  0  0  0  0  0  0  0  0  0
    7.0061   -2.9785   23.3977 H   0  0  0  0  0  0  0  0  0  0  0  0
    6.6841   -1.7613   21.6604 C   0  0  0  0  0  0  0  0  0  0  0  0
    5.5620   -2.1467   21.3954 O   0  0  0  0  0  0  0  0  0  0  0  0
    5.4395    0.6126   20.1286 C   0  0  0  0  0  0  0  0  0  0  0  0
    4.9843    0.5651   21.1167 H   0  0  0  0  0  0  0  0  0  0  0  0
    4.8341    1.2896   19.0635 C   0  0  0  0  0  0  0  0  0  0  0  0
    3.8961    1.8176   19.1961 H   0  0  0  0  0  0  0  0  0  0  0  0
  1  2  1  0
  2  3  2  0
  3  4  1  0
  4  5  1  0
  4  6  2  0
  6  7  1  0
  7  8  1  0
  8  9  2  0
  9 10  1  0
 10 11  2  0
 11 12  1  0
 11 13  1  0
 13 14  1  0
 13 15  2  0
 15 16  1  0
 15 17  1  0
 17 18  1  0
 18 19  2  0
 18 20  1  0
 20 21  1  0
 20 22  1  0
 17 23  2  0
 23 24  1  0
  9 25  1  0
 25 26  1  0
 25 27  2  0
 27 28  1  0
 27 29  1  0
 29 30  2  0
  6 31  1  0
 31 32  1  0
 31 33  2  0
 33 34  1  0
 33  2  1  0
 29  7  1  0
 23 10  1  0
M  END
>  <cnnaffinity>  (1) 
-5.94311

>  <filename>  (1) 
NC(=O)c1cccc(-c2ccc(=O)n(-c3cccnc3)n2)c1

$$$$
