
     RDKit          3D

 33 35  0  0  0  0  0  0  0  0999 V2000
    4.9377    1.8126   16.9637 H   0  0  0  0  0  0  0  0  0  0  0  0
    5.4068    1.3083   17.8054 C   0  0  0  0  0  0  0  0  0  0  0  0
    6.5664    0.6835   17.5518 N   0  0  0  0  0  0  0  0  0  0  0  0
    7.1745    0.0614   18.5698 C   0  0  0  0  0  0  0  0  0  0  0  0
    8.1088   -0.4303   18.3057 H   0  0  0  0  0  0  0  0  0  0  0  0
    6.6663    0.0107   19.8834 C   0  0  0  0  0  0  0  0  0  0  0  0
    7.3448   -0.7046   20.9756 C   0  0  0  0  0  0  0  0  0  0  0  0
    6.8335   -1.2458   22.1050 C   0  0  0  0  0  0  0  0  0  0  0  0
    5.8245   -1.3771   22.4327 H   0  0  0  0  0  0  0  0  0  0  0  0
    7.8644   -1.7898   22.8615 N   0  0  0  0  0  0  0  0  0  0  0  0
    7.6797   -2.4406   24.1253 C   0  0  0  0  0  0  0  0  0  0  0  0
    6.8642   -1.8671   25.1141 C   0  0  0  0  0  0  0  0  0  0  0  0
    6.3768   -0.9228   24.8940 H   0  0  0  0  0  0  0  0  0  0  0  0
    6.6649   -2.5169   26.3321 C   0  0  0  0  0  0  0  0  0  0  0  0
    6.0363   -2.0594   27.1005 H   0  0  0  0  0  0  0  0  0  0  0  0
    7.2765   -3.7665   26.5636 C   0  0  0  0  0  0  0  0  0  0  0  0
    7.0002   -4.4912   27.8444 C   0  0  0  0  0  0  0  0  0  0  0  0
    5.9954   -4.3335   28.5121 O   0  0  0  0  0  0  0  0  0  0  0  0
    7.9299   -5.3965   28.2667 N   0  0  0  0  0  0  0  0  0  0  0  0
    8.8883   -5.3554   27.9687 H   0  0  0  0  0  0  0  0  0  0  0  0
    7.7086   -5.6947   29.2019 H   0  0  0  0  0  0  0  0  0  0  0  0
    8.0875   -4.3369   25.5644 C   0  0  0  0  0  0  0  0  0  0  0  0
    8.5604   -5.3072   25.7274 H   0  0  0  0  0  0  0  0  0  0  0  0
    8.2851   -3.6809   24.3549 C   0  0  0  0  0  0  0  0  0  0  0  0
    8.8994   -4.1175   23.5777 H   0  0  0  0  0  0  0  0  0  0  0  0
    9.0560   -1.6050   22.1958 C   0  0  0  0  0  0  0  0  0  0  0  0
   10.6228   -2.0030   22.5875 S   0  0  0  0  0  0  0  0  0  0  0  0
    8.7078   -0.9667   21.0473 N   0  0  0  0  0  0  0  0  0  0  0  0
    9.4729   -0.6763   20.4616 H   0  0  0  0  0  0  0  0  0  0  0  0
    5.4435    0.6699   20.1180 C   0  0  0  0  0  0  0  0  0  0  0  0
    5.0105    0.6830   21.1184 H   0  0  0  0  0  0  0  0  0  0  0  0
    4.8058    1.3253   19.0662 C   0  0  0  0  0  0  0  0  0  0  0  0
    3.8688    1.8519   19.2069 H   0  0  0  0  0  0  0  0  0  0  0  0
  1  2  1  0
  2  3  2  0
  3  4  1  0
  4  5  1  0
  4  6  2  0
  6  7  1  0
  7  8  2  0
  8  9  1  0
  8 10  1  0
 10 11  1  0
 11 12  2  0
 12 13  1  0
 12 14  1  0
 14 15  1  0
 14 16  2  0
 16 17  1  0
 17 18  2  0
 17 19  1  0
 19 20  1  0
 19 21  1  0
 16 22  1  0
 22 23  1  0
 22 24  2  0
 24 25  1  0
 10 26  1  0
 26 27  2  0
 26 28  1  0
 28 29  1  0
  6 30  1  0
 30 31  1  0
 30 32  2  0
 32 33  1  0
 32  2  1  0
 28  7  1  0
 24 11  1  0
M  END
>  <cnnaffinity>  (1) 
-5.49297

>  <filename>  (1) 
NC(=O)c1ccc(-n2cc(-c3cccnc3)[nH]c2=S)cc1

$$$$
