
     RDKit          3D

 35 37  0  0  0  0  0  0  0  0999 V2000
    4.9981    1.7959   16.9304 H   0  0  0  0  0  0  0  0  0  0  0  0
    5.4432    1.2838   17.7853 C   0  0  0  0  0  0  0  0  0  0  0  0
    6.5750    0.6031   17.5446 N   0  0  0  0  0  0  0  0  0  0  0  0
    7.1660   -0.0206   18.5690 C   0  0  0  0  0  0  0  0  0  0  0  0
    8.1021   -0.5381   18.3717 H   0  0  0  0  0  0  0  0  0  0  0  0
    6.6359   -0.0437   19.8714 C   0  0  0  0  0  0  0  0  0  0  0  0
    7.3165   -0.7363   20.9147 N   0  0  0  0  0  0  0  0  0  0  0  0
    6.7351   -1.6943   21.7456 C   0  0  0  0  0  0  0  0  0  0  0  0
    5.7288   -2.0557   21.6240 H   0  0  0  0  0  0  0  0  0  0  0  0
    7.6521   -2.0229   22.6718 C   0  0  0  0  0  0  0  0  0  0  0  0
    7.4798   -2.7266   23.8352 N   0  0  0  0  0  0  0  0  0  0  0  0
    6.7914   -2.3123   24.4762 H   0  0  0  0  0  0  0  0  0  0  0  0
    8.4577   -3.3680   24.5744 C   0  0  0  0  0  0  0  0  0  0  0  0
    9.6229   -3.8675   23.9847 C   0  0  0  0  0  0  0  0  0  0  0  0
    9.7233   -3.7946   22.9079 H   0  0  0  0  0  0  0  0  0  0  0  0
   10.6298   -4.4296   24.7702 C   0  0  0  0  0  0  0  0  0  0  0  0
   11.5362   -4.7951   24.2918 H   0  0  0  0  0  0  0  0  0  0  0  0
   10.4587   -4.5205   26.1564 C   0  0  0  0  0  0  0  0  0  0  0  0
   11.2472   -4.9211   26.7868 H   0  0  0  0  0  0  0  0  0  0  0  0
    9.2765   -4.0815   26.7463 C   0  0  0  0  0  0  0  0  0  0  0  0
    9.1673   -4.1490   27.8303 H   0  0  0  0  0  0  0  0  0  0  0  0
    8.2385   -3.5401   25.9634 C   0  0  0  0  0  0  0  0  0  0  0  0
    6.9435   -3.0991   26.5516 C   0  0  0  0  0  0  0  0  0  0  0  0
    6.2284   -2.2130   26.0842 O   0  0  0  0  0  0  0  0  0  0  0  0
    6.4989   -3.6915   27.6835 N   0  0  0  0  0  0  0  0  0  0  0  0
    6.7519   -4.6345   27.9126 H   0  0  0  0  0  0  0  0  0  0  0  0
    5.5722   -3.3565   27.8905 H   0  0  0  0  0  0  0  0  0  0  0  0
    8.7888   -1.3051   22.3956 N   0  0  0  0  0  0  0  0  0  0  0  0
    9.5796   -1.2026   23.0019 H   0  0  0  0  0  0  0  0  0  0  0  0
    8.5909   -0.4474   21.3621 C   0  0  0  0  0  0  0  0  0  0  0  0
    9.6914    0.6843   20.8637 S   0  0  0  0  0  0  0  0  0  0  0  0
    5.4554    0.6663   20.1204 C   0  0  0  0  0  0  0  0  0  0  0  0
    5.0431    0.7029   21.1304 H   0  0  0  0  0  0  0  0  0  0  0  0
    4.8513    1.3419   19.0521 C   0  0  0  0  0  0  0  0  0  0  0  0
    3.9472    1.9264   19.1830 H   0  0  0  0  0  0  0  0  0  0  0  0
  1  2  1  0
  2  3  2  0
  3  4  1  0
  4  5  1  0
  4  6  2  0
  6  7  1  0
  7  8  1  0
  8  9  1  0
  8 10  2  0
 10 11  1  0
 11 12  1  0
 11 13  1  0
 13 14  2  0
 14 15  1  0
 14 16  1  0
 16 17  1  0
 16 18  2  0
 18 19  1  0
 18 20  1  0
 20 21  1  0
 20 22  2  0
 22 23  1  0
 23 24  2  0
 23 25  1  0
 25 26  1  0
 25 27  1  0
 10 28  1  0
 28 29  1  0
 28 30  1  0
 30 31  2  0
  6 32  1  0
 32 33  1  0
 32 34  2  0
 34 35  1  0
 34  2  1  0
 30  7  1  0
 22 13  1  0
M  END
>  <cnnaffinity>  (1) 
-4.79392

>  <filename>  (1) 
NC(=O)c1ccccc1Nc1cn(-c2cccnc2)c(=S)[nH]1

$$$$
