
     RDKit          3D

 34 36  0  0  0  0  0  0  0  0999 V2000
    5.1027    1.7970   17.0638 H   0  0  0  0  0  0  0  0  0  0  0  0
    5.5974    1.2796   17.8837 C   0  0  0  0  0  0  0  0  0  0  0  0
    6.7801    0.7106   17.6062 N   0  0  0  0  0  0  0  0  0  0  0  0
    7.4046    0.0544   18.5950 C   0  0  0  0  0  0  0  0  0  0  0  0
    8.3739   -0.3808   18.3577 H   0  0  0  0  0  0  0  0  0  0  0  0
    6.8559   -0.1057   19.8866 C   0  0  0  0  0  0  0  0  0  0  0  0
    7.4665   -0.9234   20.9105 N   0  0  0  0  0  0  0  0  0  0  0  0
    8.6965   -0.7773   21.5407 C   0  0  0  0  0  0  0  0  0  0  0  0
    9.5965    0.1421   21.0802 N   0  0  0  0  0  0  0  0  0  0  0  0
    9.1789    1.0635   20.9687 H   0  0  0  0  0  0  0  0  0  0  0  0
   10.9061    0.2093   21.5654 C   0  0  0  0  0  0  0  0  0  0  0  0
   11.6718   -0.9594   21.5507 C   0  0  0  0  0  0  0  0  0  0  0  0
   11.1814   -1.8635   21.2116 H   0  0  0  0  0  0  0  0  0  0  0  0
   12.9935   -0.9517   21.9838 C   0  0  0  0  0  0  0  0  0  0  0  0
   13.5564   -1.8792   22.0131 H   0  0  0  0  0  0  0  0  0  0  0  0
   13.5684    0.2426   22.4320 C   0  0  0  0  0  0  0  0  0  0  0  0
   14.5976    0.2620   22.7789 H   0  0  0  0  0  0  0  0  0  0  0  0
   12.8292    1.4239   22.4120 C   0  0  0  0  0  0  0  0  0  0  0  0
   13.3270    2.3508   22.6968 H   0  0  0  0  0  0  0  0  0  0  0  0
   11.4730    1.4289   22.0027 C   0  0  0  0  0  0  0  0  0  0  0  0
   10.5984    2.6294   22.0682 C   0  0  0  0  0  0  0  0  0  0  0  0
    9.4874    2.7153   21.5466 O   0  0  0  0  0  0  0  0  0  0  0  0
   11.0428    3.7294   22.7423 N   0  0  0  0  0  0  0  0  0  0  0  0
   10.2615    4.3549   22.8537 H   0  0  0  0  0  0  0  0  0  0  0  0
   11.6798    3.6459   23.5137 H   0  0  0  0  0  0  0  0  0  0  0  0
    8.8494   -1.6041   22.5386 N   0  0  0  0  0  0  0  0  0  0  0  0
    7.6742   -2.3076   22.5288 N   0  0  0  0  0  0  0  0  0  0  0  0
    7.4313   -3.0305   23.1857 H   0  0  0  0  0  0  0  0  0  0  0  0
    6.8356   -1.9922   21.5364 C   0  0  0  0  0  0  0  0  0  0  0  0
    5.4430   -2.8196   21.1753 S   0  0  0  0  0  0  0  0  0  0  0  0
    5.6304    0.5052   20.1663 C   0  0  0  0  0  0  0  0  0  0  0  0
    5.1956    0.4070   21.1631 H   0  0  0  0  0  0  0  0  0  0  0  0
    4.9950    1.2178   19.1453 C   0  0  0  0  0  0  0  0  0  0  0  0
    4.0487    1.7171   19.3173 H   0  0  0  0  0  0  0  0  0  0  0  0
  1  2  1  0
  2  3  2  0
  3  4  1  0
  4  5  1  0
  4  6  2  0
  6  7  1  0
  7  8  1  0
  8  9  1  0
  9 10  1  0
  9 11  1  0
 11 12  2  0
 12 13  1  0
 12 14  1  0
 14 15  1  0
 14 16  2  0
 16 17  1  0
 16 18  1  0
 18 19  1  0
 18 20  2  0
 20 21  1  0
 21 22  2  0
 21 23  1  0
 23 24  1  0
 23 25  1  0
  8 26  2  0
 26 27  1  0
 27 28  1  0
 27 29  1  0
 29 30  2  0
  6 31  1  0
 31 32  1  0
 31 33  2  0
 33 34  1  0
 33  2  1  0
 29  7  1  0
 20 11  1  0
M  END
>  <cnnaffinity>  (1) 
-5.8563

>  <filename>  (1) 
NC(=O)c1ccccc1Nc1n[nH]c(=S)n1-c1cccnc1

$$$$
