
     RDKit          3D

 38 41  0  0  0  0  0  0  0  0999 V2000
    5.0225    1.9150   16.9926 H   0  0  0  0  0  0  0  0  0  0  0  0
    5.5432    1.3602   17.7684 C   0  0  0  0  0  0  0  0  0  0  0  0
    6.6848    0.7551   17.4056 N   0  0  0  0  0  0  0  0  0  0  0  0
    7.3467    0.0626   18.3420 C   0  0  0  0  0  0  0  0  0  0  0  0
    8.2785   -0.3982   18.0253 H   0  0  0  0  0  0  0  0  0  0  0  0
    6.8926   -0.0851   19.6652 C   0  0  0  0  0  0  0  0  0  0  0  0
    7.6035   -0.8597   20.6139 N   0  0  0  0  0  0  0  0  0  0  0  0
    8.9399   -0.7523   21.0038 C   0  0  0  0  0  0  0  0  0  0  0  0
    9.5600   -0.0221   20.5149 H   0  0  0  0  0  0  0  0  0  0  0  0
    9.1711   -1.5842   22.0573 C   0  0  0  0  0  0  0  0  0  0  0  0
   10.0388   -1.8322   22.6431 H   0  0  0  0  0  0  0  0  0  0  0  0
    7.9673   -2.1974   22.3239 N   0  0  0  0  0  0  0  0  0  0  0  0
    7.5328   -3.1076   23.2440 N   0  0  0  0  0  0  0  0  0  0  0  0
    6.2537   -3.2255   22.9014 C   0  0  0  0  0  0  0  0  0  0  0  0
    5.3136   -4.0819   23.4341 N   0  0  0  0  0  0  0  0  0  0  0  0
    4.7351   -4.4418   22.6806 H   0  0  0  0  0  0  0  0  0  0  0  0
    5.4202   -5.0215   24.4403 C   0  0  0  0  0  0  0  0  0  0  0  0
    6.1310   -4.7537   25.6111 C   0  0  0  0  0  0  0  0  0  0  0  0
    6.6191   -3.7889   25.6887 H   0  0  0  0  0  0  0  0  0  0  0  0
    6.2176   -5.7160   26.6200 C   0  0  0  0  0  0  0  0  0  0  0  0
    6.7863   -5.5148   27.5234 H   0  0  0  0  0  0  0  0  0  0  0  0
    5.5782   -6.9525   26.4661 C   0  0  0  0  0  0  0  0  0  0  0  0
    5.6788   -7.7312   27.2180 H   0  0  0  0  0  0  0  0  0  0  0  0
    4.8245   -7.1994   25.3229 C   0  0  0  0  0  0  0  0  0  0  0  0
    4.3043   -8.1476   25.2093 H   0  0  0  0  0  0  0  0  0  0  0  0
    4.7172   -6.2456   24.2957 C   0  0  0  0  0  0  0  0  0  0  0  0
    3.9421   -6.4984   23.0486 C   0  0  0  0  0  0  0  0  0  0  0  0
    4.0712   -5.8648   22.0009 O   0  0  0  0  0  0  0  0  0  0  0  0
    2.9850   -7.4554   23.0100 N   0  0  0  0  0  0  0  0  0  0  0  0
    2.7541   -7.6291   22.0449 H   0  0  0  0  0  0  0  0  0  0  0  0
    2.8660   -8.1520   23.7121 H   0  0  0  0  0  0  0  0  0  0  0  0
    5.8548   -2.4280   21.8114 C   0  0  0  0  0  0  0  0  0  0  0  0
    4.8293   -2.3092   21.5438 H   0  0  0  0  0  0  0  0  0  0  0  0
    7.0131   -1.7677   21.4714 C   0  0  0  0  0  0  0  0  0  0  0  0
    5.6979    0.5543   20.0323 C   0  0  0  0  0  0  0  0  0  0  0  0
    5.3354    0.4643   21.0579 H   0  0  0  0  0  0  0  0  0  0  0  0
    5.0219    1.3013   19.0666 C   0  0  0  0  0  0  0  0  0  0  0  0
    4.1102    1.8361   19.3122 H   0  0  0  0  0  0  0  0  0  0  0  0
  1  2  1  0
  2  3  2  0
  3  4  1  0
  4  5  1  0
  4  6  2  0
  6  7  1  0
  7  8  1  0
  8  9  1  0
  8 10  2  0
 10 11  1  0
 10 12  1  0
 12 13  1  0
 13 14  2  0
 14 15  1  0
 15 16  1  0
 15 17  1  0
 17 18  2  0
 18 19  1  0
 18 20  1  0
 20 21  1  0
 20 22  2  0
 22 23  1  0
 22 24  1  0
 24 25  1  0
 24 26  2  0
 26 27  1  0
 27 28  2  0
 27 29  1  0
 29 30  1  0
 29 31  1  0
 14 32  1  0
 32 33  1  0
 32 34  2  0
  6 35  1  0
 35 36  1  0
 35 37  2  0
 37 38  1  0
 37  2  1  0
 34  7  1  0
 34 12  1  0
 26 17  1  0
M  END
>  <cnnaffinity>  (1) 
-5.37861

>  <filename>  (1) 
NC(=O)c1ccccc1Nc1cc2n(-c3cccnc3)ccn2n1

$$$$
