
     RDKit          3D

 44 46  0  0  0  0  0  0  0  0999 V2000
    4.9138    1.9650   16.7192 H   0  0  0  0  0  0  0  0  0  0  0  0
    5.4083    1.5124   17.5763 C   0  0  0  0  0  0  0  0  0  0  0  0
    6.5482    0.8481   17.3227 N   0  0  0  0  0  0  0  0  0  0  0  0
    7.1737    0.2707   18.3598 C   0  0  0  0  0  0  0  0  0  0  0  0
    8.0978   -0.2581   18.1274 H   0  0  0  0  0  0  0  0  0  0  0  0
    6.7217    0.3148   19.7079 C   0  0  0  0  0  0  0  0  0  0  0  0
    7.4118   -0.3716   20.7459 N   0  0  0  0  0  0  0  0  0  0  0  0
    7.4609   -1.8358   20.6989 C   0  0  0  0  0  0  0  0  0  0  0  0
    8.5020   -2.1894   20.7621 H   0  0  0  0  0  0  0  0  0  0  0  0
    7.0745   -2.1327   19.7241 H   0  0  0  0  0  0  0  0  0  0  0  0
    6.6636   -2.6000   21.7684 C   0  0  0  0  0  0  0  0  0  0  0  0
    6.3998   -3.5870   21.3693 H   0  0  0  0  0  0  0  0  0  0  0  0
    5.7249   -2.0689   21.9965 H   0  0  0  0  0  0  0  0  0  0  0  0
    7.4439   -2.7974   22.9852 N   0  0  0  0  0  0  0  0  0  0  0  0
    6.9961   -3.8867   23.7485 N   0  0  0  0  0  0  0  0  0  0  0  0
    6.0406   -3.9315   24.1227 H   0  0  0  0  0  0  0  0  0  0  0  0
    7.9132   -4.6570   24.4443 C   0  0  0  0  0  0  0  0  0  0  0  0
    9.2817   -4.5712   24.1205 C   0  0  0  0  0  0  0  0  0  0  0  0
    9.5567   -3.9173   23.2972 H   0  0  0  0  0  0  0  0  0  0  0  0
   10.2398   -5.2490   24.8553 C   0  0  0  0  0  0  0  0  0  0  0  0
   11.2929   -5.1712   24.5903 H   0  0  0  0  0  0  0  0  0  0  0  0
    9.8515   -6.0338   25.9413 C   0  0  0  0  0  0  0  0  0  0  0  0
   10.6283   -6.4990   26.5365 H   0  0  0  0  0  0  0  0  0  0  0  0
    8.5022   -6.1765   26.2578 C   0  0  0  0  0  0  0  0  0  0  0  0
    8.2353   -6.7626   27.1396 H   0  0  0  0  0  0  0  0  0  0  0  0
    7.5018   -5.5530   25.4756 C   0  0  0  0  0  0  0  0  0  0  0  0
    6.0541   -5.7864   25.7080 C   0  0  0  0  0  0  0  0  0  0  0  0
    5.1473   -5.0909   25.2601 O   0  0  0  0  0  0  0  0  0  0  0  0
    5.6957   -6.8445   26.4981 N   0  0  0  0  0  0  0  0  0  0  0  0
    6.2378   -7.6837   26.3893 H   0  0  0  0  0  0  0  0  0  0  0  0
    4.6944   -6.9483   26.4410 H   0  0  0  0  0  0  0  0  0  0  0  0
    7.6438   -1.5755   23.7745 C   0  0  0  0  0  0  0  0  0  0  0  0
    8.1867   -1.8657   24.6867 H   0  0  0  0  0  0  0  0  0  0  0  0
    6.6629   -1.1874   24.1087 H   0  0  0  0  0  0  0  0  0  0  0  0
    8.4321   -0.4780   23.0454 C   0  0  0  0  0  0  0  0  0  0  0  0
    9.3256   -0.9019   22.5749 H   0  0  0  0  0  0  0  0  0  0  0  0
    8.7899    0.2262   23.8041 H   0  0  0  0  0  0  0  0  0  0  0  0
    7.6539    0.3301   22.0008 C   0  0  0  0  0  0  0  0  0  0  0  0
    6.7142    0.6879   22.4573 H   0  0  0  0  0  0  0  0  0  0  0  0
    8.2265    1.2401   21.7680 H   0  0  0  0  0  0  0  0  0  0  0  0
    5.5332    1.0310   19.9396 C   0  0  0  0  0  0  0  0  0  0  0  0
    5.1382    1.0925   20.9518 H   0  0  0  0  0  0  0  0  0  0  0  0
    4.8671    1.6263   18.8603 C   0  0  0  0  0  0  0  0  0  0  0  0
    3.9470    2.1800   19.0090 H   0  0  0  0  0  0  0  0  0  0  0  0
  1  2  1  0
  2  3  2  0
  3  4  1  0
  4  5  1  0
  4  6  2  0
  6  7  1  0
  7  8  1  0
  8  9  1  0
  8 10  1  0
  8 11  1  0
 11 12  1  0
 11 13  1  0
 11 14  1  0
 14 15  1  0
 15 16  1  0
 15 17  1  0
 17 18  2  0
 18 19  1  0
 18 20  1  0
 20 21  1  0
 20 22  2  0
 22 23  1  0
 22 24  1  0
 24 25  1  0
 24 26  2  0
 26 27  1  0
 27 28  2  0
 27 29  1  0
 29 30  1  0
 29 31  1  0
 14 32  1  0
 32 33  1  0
 32 34  1  0
 32 35  1  0
 35 36  1  0
 35 37  1  0
 35 38  1  0
 38 39  1  0
 38 40  1  0
  6 41  1  0
 41 42  1  0
 41 43  2  0
 43 44  1  0
 43  2  1  0
 38  7  1  0
 26 17  1  0
M  END
>  <cnnaffinity>  (1) 
-5.09359

>  <filename>  (1) 
NC(=O)c1ccccc1NN1CCCN(c2cccnc2)CC1

$$$$
