
     RDKit          3D

 36 37  0  0  0  0  0  0  0  0999 V2000
    9.1392    1.5760   21.2140 N   0  0  0  0  0  0  0  0  0  0  0  0
    8.4641    1.1113   22.2631 C   0  0  0  0  0  0  0  0  0  0  0  0
    7.7258   -0.0022   22.2057 N   0  0  0  0  0  4  0  0  0  0  0  0
    7.3911   -0.7607   20.9985 C   0  0  0  0  0  0  0  0  0  0  0  0
    6.6627    0.0103   19.9095 C   0  0  0  0  0  0  0  0  0  0  0  0
    5.4440    0.6644   20.1432 C   0  0  0  0  0  0  0  0  0  0  0  0
    4.8099    1.3206   19.0848 C   0  0  0  0  0  0  0  0  0  0  0  0
    5.4112    1.3053   17.8245 C   0  0  0  0  0  0  0  0  0  0  0  0
    6.5686    0.6778   17.5709 N   0  0  0  0  0  0  0  0  0  0  0  0
    7.1649    0.0555   18.5965 C   0  0  0  0  0  0  0  0  0  0  0  0
    8.0999   -0.4477   18.3404 H   0  0  0  0  0  0  0  0  0  0  0  0
    4.9426    1.8116   16.9801 H   0  0  0  0  0  0  0  0  0  0  0  0
    3.8698    1.8480   19.2227 H   0  0  0  0  0  0  0  0  0  0  0  0
    4.9859    0.6527   21.1349 H   0  0  0  0  0  0  0  0  0  0  0  0
    6.7868   -1.6105   21.3373 H   0  0  0  0  0  0  0  0  0  0  0  0
    8.3018   -1.2008   20.5772 H   0  0  0  0  0  0  0  0  0  0  0  0
    7.0139    0.0101   22.9258 H   0  0  0  0  0  0  0  0  0  0  0  0
    8.5229    1.8154   23.4109 N   0  0  0  0  0  0  0  0  0  0  0  0
    8.3562    1.3249   24.7305 C   0  0  0  0  0  0  0  0  0  0  0  0
    7.9289    2.2011   25.7344 C   0  0  0  0  0  0  0  0  0  0  0  0
    7.7290    1.7200   27.0344 C   0  0  0  0  0  0  0  0  0  0  0  0
    7.9806    0.3750   27.3350 C   0  0  0  0  0  0  0  0  0  0  0  0
    8.4341   -0.4731   26.3245 C   0  0  0  0  0  0  0  0  0  0  0  0
    8.6976   -1.7786   26.7291 O   0  0  0  0  0  0  0  0  0  0  0  0
    8.9196   -2.7582   25.8264 C   0  0  0  0  0  0  0  0  0  0  0  0
    7.8659   -2.9757   25.0196 F   0  0  0  0  0  0  0  0  0  0  0  0
    9.1752   -3.8618   26.5120 F   0  0  0  0  0  0  0  0  0  0  0  0
    9.9763   -2.5110   25.0253 F   0  0  0  0  0  0  0  0  0  0  0  0
    8.6191   -0.0236   25.0229 C   0  0  0  0  0  0  0  0  0  0  0  0
    8.9709   -0.6900   24.2493 H   0  0  0  0  0  0  0  0  0  0  0  0
    7.8566   -0.0508   28.3210 H   0  0  0  0  0  0  0  0  0  0  0  0
    7.3839    2.3943   27.8170 H   0  0  0  0  0  0  0  0  0  0  0  0
    7.7339    3.2407   25.4825 H   0  0  0  0  0  0  0  0  0  0  0  0
    8.8653    2.7617   23.3153 H   0  0  0  0  0  0  0  0  0  0  0  0
    9.2566    0.9306   20.4468 H   0  0  0  0  0  0  0  0  0  0  0  0
    9.9430    2.1515   21.4084 H   0  0  0  0  0  0  0  0  0  0  0  0
  1  2  1  0
  2  3  2  3
  3  4  1  0
  4  5  1  0
  5  6  2  0
  6  7  1  0
  7  8  2  0
  8  9  1  0
  9 10  2  0
 10 11  1  0
  8 12  1  0
  7 13  1  0
  6 14  1  0
  4 15  1  0
  4 16  1  0
  3 17  1  0
  2 18  1  0
 18 19  1  0
 19 20  2  0
 20 21  1  0
 21 22  2  0
 22 23  1  0
 23 24  1  0
 24 25  1  0
 25 26  1  0
 25 27  1  0
 25 28  1  0
 23 29  2  0
 29 30  1  0
 22 31  1  0
 21 32  1  0
 20 33  1  0
 18 34  1  0
  1 35  1  0
  1 36  1  0
 10  5  1  0
 29 19  1  0
M  CHG  1   3   1
M  END
>  <cnnaffinity>  (1) 
-4.82238

>  <filename>  (1) 
NC(Nc1cccc(OC(F)(F)F)c1)=[NH+]Cc1cccnc1

$$$$
