
     RDKit          3D

 29 31  0  0  0  0  0  0  0  0999 V2000
    4.9714    1.8629   17.0037 H   0  0  0  0  0  0  0  0  0  0  0  0
    5.4295    1.3060   17.8157 C   0  0  0  0  0  0  0  0  0  0  0  0
    6.5864    0.6863   17.5255 N   0  0  0  0  0  0  0  0  0  0  0  0
    7.1875    0.0139   18.5150 C   0  0  0  0  0  0  0  0  0  0  0  0
    8.1282   -0.4842   18.2792 H   0  0  0  0  0  0  0  0  0  0  0  0
    6.6642   -0.0861   19.8188 C   0  0  0  0  0  0  0  0  0  0  0  0
    7.3895   -0.7745   20.8461 N   0  0  0  0  0  0  0  0  0  0  0  0
    8.6338   -0.3663   21.3013 C   0  0  0  0  0  0  0  0  0  0  0  0
    9.1605    0.4501   20.8305 H   0  0  0  0  0  0  0  0  0  0  0  0
    8.9890   -1.1373   22.3509 C   0  0  0  0  0  0  0  0  0  0  0  0
   10.3425   -1.3160   22.9835 C   0  0  2  0  0  0  0  0  0  0  0  0
   10.1828   -1.8091   23.9526 H   0  0  0  0  0  0  0  0  0  0  0  0
   11.1348   -0.1008   23.1759 N   0  0  0  0  0  0  0  0  0  0  0  0
   12.2140   -0.3123   22.5483 C   0  0  0  0  0  0  0  0  0  0  0  0
   13.2762    0.5184   22.4949 N   0  0  0  0  0  0  0  0  0  0  0  0
   13.7047    0.4188   21.5898 H   0  0  0  0  0  0  0  0  0  0  0  0
   12.9592    1.4496   22.6896 H   0  0  0  0  0  0  0  0  0  0  0  0
   12.3935   -1.4269   21.8226 O   0  0  0  0  0  0  0  0  0  0  0  0
   11.2220   -2.2178   22.0590 C   0  0  0  0  0  0  0  0  0  0  0  0
   11.5073   -3.1577   22.5390 H   0  0  0  0  0  0  0  0  0  0  0  0
   10.7276   -2.4201   21.1002 H   0  0  0  0  0  0  0  0  0  0  0  0
    7.9416   -2.0491   22.4986 N   0  0  0  0  0  0  0  0  0  0  0  0
    7.7783   -2.7347   23.2158 H   0  0  0  0  0  0  0  0  0  0  0  0
    6.9456   -1.8524   21.5892 C   0  0  0  0  0  0  0  0  0  0  0  0
    5.5974   -2.8136   21.4145 S   0  0  0  0  0  0  0  0  0  0  0  0
    5.4473    0.5461   20.1071 C   0  0  0  0  0  0  0  0  0  0  0  0
    5.0219    0.4905   21.1118 H   0  0  0  0  0  0  0  0  0  0  0  0
    4.8261    1.2671   19.0799 C   0  0  0  0  0  0  0  0  0  0  0  0
    3.9012    1.8108   19.2543 H   0  0  0  0  0  0  0  0  0  0  0  0
  1  2  1  0
  2  3  2  0
  3  4  1  0
  4  5  1  0
  4  6  2  0
  6  7  1  0
  7  8  1  0
  8  9  1  0
  8 10  2  0
 10 11  1  0
 11 12  1  1
 11 13  1  0
 13 14  2  0
 14 15  1  0
 15 16  1  0
 15 17  1  0
 14 18  1  0
 18 19  1  0
 19 20  1  0
 19 21  1  0
 10 22  1  0
 22 23  1  0
 22 24  1  0
 24 25  2  0
  6 26  1  0
 26 27  1  0
 26 28  2  0
 28 29  1  0
 28  2  1  0
 24  7  1  0
 19 11  1  0
M  END
>  <cnnaffinity>  (1) 
-5.35366

>  <filename>  (1) 
NC1=N[C@@H](c2cn(-c3cccnc3)c(=S)[nH]2)CO1

$$$$
