
     RDKit          3D

 29 31  0  0  0  0  0  0  0  0999 V2000
    4.9497    1.7958   17.0192 H   0  0  0  0  0  0  0  0  0  0  0  0
    5.4218    1.2961   17.8632 C   0  0  0  0  0  0  0  0  0  0  0  0
    6.5876    0.6728   17.6167 N   0  0  0  0  0  0  0  0  0  0  0  0
    7.1877    0.0530   18.6400 C   0  0  0  0  0  0  0  0  0  0  0  0
    8.1306   -0.4542   18.4458 H   0  0  0  0  0  0  0  0  0  0  0  0
    6.6665    0.0213   19.9440 C   0  0  0  0  0  0  0  0  0  0  0  0
    7.3939   -0.6986   20.8587 O   0  0  0  0  0  0  0  0  0  0  0  0
    7.3128   -0.3895   22.1843 C   0  0  0  0  0  0  0  0  0  0  0  0
    7.1863   -1.3180   23.2331 C   0  0  0  0  0  0  0  0  0  0  0  0
    7.1061   -2.3945   23.1637 H   0  0  0  0  0  0  0  0  0  0  0  0
    7.1985   -0.6942   24.4107 N   0  0  0  0  0  0  0  0  0  0  0  0
    7.3320    0.6011   24.1112 N   0  0  0  0  0  0  0  0  0  0  0  0
    7.4491    1.2699   24.8583 H   0  0  0  0  0  0  0  0  0  0  0  0
    7.4152    0.8576   22.7751 C   0  0  0  0  0  0  0  0  0  0  0  0
    7.5812    2.2487   22.2292 C   0  0  2  0  0  0  0  0  0  0  0  0
    7.8295    2.1579   21.1670 H   0  0  0  0  0  0  0  0  0  0  0  0
    8.6522    2.9721   22.9021 N   0  0  0  0  0  0  0  0  0  0  0  0
    8.0982    3.9912   23.4067 C   0  0  0  0  0  0  0  0  0  0  0  0
    8.7188    4.8325   24.2686 N   0  0  0  0  0  0  0  0  0  0  0  0
    9.7047    4.7690   24.0681 H   0  0  0  0  0  0  0  0  0  0  0  0
    8.3290    5.7533   24.1822 H   0  0  0  0  0  0  0  0  0  0  0  0
    6.8260    4.2981   23.1325 O   0  0  0  0  0  0  0  0  0  0  0  0
    6.3289    3.1693   22.3788 C   0  0  0  0  0  0  0  0  0  0  0  0
    5.4986    2.7296   22.9430 H   0  0  0  0  0  0  0  0  0  0  0  0
    5.9506    3.5132   21.4107 H   0  0  0  0  0  0  0  0  0  0  0  0
    5.4512    0.6667   20.2005 C   0  0  0  0  0  0  0  0  0  0  0  0
    5.0300    0.6642   21.2052 H   0  0  0  0  0  0  0  0  0  0  0  0
    4.8223    1.3111   19.1265 C   0  0  0  0  0  0  0  0  0  0  0  0
    3.8788    1.8306   19.2526 H   0  0  0  0  0  0  0  0  0  0  0  0
  1  2  1  0
  2  3  2  0
  3  4  1  0
  4  5  1  0
  4  6  2  0
  6  7  1  0
  7  8  1  0
  8  9  1  0
  9 10  1  0
  9 11  2  0
 11 12  1  0
 12 13  1  0
 12 14  1  0
 14 15  1  0
 15 16  1  6
 15 17  1  0
 17 18  2  0
 18 19  1  0
 19 20  1  0
 19 21  1  0
 18 22  1  0
 22 23  1  0
 23 24  1  0
 23 25  1  0
  6 26  1  0
 26 27  1  0
 26 28  2  0
 28 29  1  0
 28  2  1  0
 14  8  2  0
 23 15  1  0
M  END
>  <cnnaffinity>  (1) 
-4.45852

>  <filename>  (1) 
NC1=N[C@@H](c2[nH]ncc2Oc2cccnc2)CO1

$$$$
