
     RDKit          3D

 26 28  0  0  0  0  0  0  0  0999 V2000
    5.0640    1.8175   16.7850 H   0  0  0  0  0  0  0  0  0  0  0  0
    5.4496    1.3434   17.6836 C   0  0  0  0  0  0  0  0  0  0  0  0
    6.6081    0.6822   17.5394 N   0  0  0  0  0  0  0  0  0  0  0  0
    7.1105    0.0720   18.6167 C   0  0  0  0  0  0  0  0  0  0  0  0
    8.0482   -0.4596   18.4653 H   0  0  0  0  0  0  0  0  0  0  0  0
    6.4851    0.1026   19.8708 C   0  0  0  0  0  0  0  0  0  0  0  0
    7.0683   -0.5901   21.0108 C   0  0  0  0  0  0  0  0  0  0  0  0
    6.6593   -0.5804   22.2388 N   0  0  0  0  0  0  0  0  0  0  0  0
    7.5372   -1.3802   22.9523 N   0  0  0  0  0  0  0  0  0  0  0  0
    8.3934   -1.8314   22.1035 C   0  0  0  0  0  0  0  0  0  0  0  0
    9.6237   -2.6584   22.3403 C   0  0  2  0  0  0  0  0  0  0  0  0
   10.0255   -2.8200   21.3423 H   0  0  0  0  0  0  0  0  0  0  0  0
    9.4438   -3.9282   23.0440 N   0  0  0  0  0  0  0  0  0  0  0  0
    9.9311   -3.7325   24.2005 C   0  0  0  0  0  0  0  0  0  0  0  0
    9.8664   -4.6110   25.2204 N   0  0  0  0  0  0  0  0  0  0  0  0
   10.5517   -4.3928   25.9182 H   0  0  0  0  0  0  0  0  0  0  0  0
    9.9115   -5.5382   24.8351 H   0  0  0  0  0  0  0  0  0  0  0  0
   10.5499   -2.5791   24.4838 O   0  0  0  0  0  0  0  0  0  0  0  0
   10.6349   -1.8811   23.2280 C   0  0  0  0  0  0  0  0  0  0  0  0
   10.4140   -0.8178   23.3925 H   0  0  0  0  0  0  0  0  0  0  0  0
   11.6447   -1.9807   22.8145 H   0  0  0  0  0  0  0  0  0  0  0  0
    8.1767   -1.3522   20.8442 O   0  0  0  0  0  0  0  0  0  0  0  0
    5.2840    0.8105   20.0181 C   0  0  0  0  0  0  0  0  0  0  0  0
    4.8066    0.8626   21.0004 H   0  0  0  0  0  0  0  0  0  0  0  0
    4.7491    1.4277   18.8928 C   0  0  0  0  0  0  0  0  0  0  0  0
    3.8092    1.9641   18.9373 H   0  0  0  0  0  0  0  0  0  0  0  0
  1  2  1  0
  2  3  2  0
  3  4  1  0
  4  5  1  0
  4  6  2  0
  6  7  1  0
  7  8  2  0
  8  9  1  0
  9 10  2  0
 10 11  1  0
 11 12  1  6
 11 13  1  0
 13 14  2  0
 14 15  1  0
 15 16  1  0
 15 17  1  0
 14 18  1  0
 18 19  1  0
 19 20  1  0
 19 21  1  0
 10 22  1  0
  6 23  1  0
 23 24  1  0
 23 25  2  0
 25 26  1  0
 25  2  1  0
 22  7  1  0
 19 11  1  0
M  END
>  <cnnaffinity>  (1) 
-4.6745

>  <filename>  (1) 
NC1=N[C@@H](c2nnc(-c3cccnc3)o2)CO1

$$$$
