
     RDKit          3D

 29 31  0  0  0  0  0  0  0  0999 V2000
    4.9318    1.7956   16.9882 H   0  0  0  0  0  0  0  0  0  0  0  0
    5.4016    1.2965   17.8339 C   0  0  0  0  0  0  0  0  0  0  0  0
    6.5652    0.6760   17.5793 N   0  0  0  0  0  0  0  0  0  0  0  0
    7.1610    0.0466   18.5953 C   0  0  0  0  0  0  0  0  0  0  0  0
    8.1086   -0.4386   18.3618 H   0  0  0  0  0  0  0  0  0  0  0  0
    6.6399    0.0137   19.8976 C   0  0  0  0  0  0  0  0  0  0  0  0
    7.3751   -0.7086   20.9323 C   0  0  0  0  0  0  0  0  0  0  0  0
    7.9449   -1.8489   20.7031 N   0  0  0  0  0  0  0  0  0  0  0  0
    8.4299   -2.2288   21.9203 N   0  0  0  0  0  0  0  0  0  0  0  0
    8.9399   -3.0782   22.0912 H   0  0  0  0  0  0  0  0  0  0  0  0
    8.2085   -1.3399   22.9200 C   0  0  0  0  0  0  0  0  0  0  0  0
    8.5577   -1.4641   24.0773 O   0  0  0  0  0  0  0  0  0  0  0  0
    7.5127   -0.2946   22.2565 N   0  0  0  0  0  0  0  0  0  0  0  0
    7.1340    0.9581   22.8656 C   0  0  0  0  0  0  0  0  0  0  0  0
    7.3950    2.2199   22.2880 C   0  0  0  0  0  0  0  0  0  0  0  0
    7.8787    2.2749   21.3153 H   0  0  0  0  0  0  0  0  0  0  0  0
    7.0710    3.3914   22.8549 N   0  0  0  0  0  0  0  0  0  0  0  0
    6.4596    3.3307   24.0327 C   0  0  0  0  0  0  0  0  0  0  0  0
    6.1579    4.5178   24.5706 N   0  0  0  0  0  0  0  0  0  0  0  0
    5.6950    4.5520   25.4506 H   0  0  0  0  0  0  0  0  0  0  0  0
    6.4094    5.2981   23.9931 H   0  0  0  0  0  0  0  0  0  0  0  0
    6.1412    2.1417   24.7030 C   0  0  0  0  0  0  0  0  0  0  0  0
    5.6631    2.2178   25.6683 H   0  0  0  0  0  0  0  0  0  0  0  0
    6.4878    0.9364   24.1128 C   0  0  0  0  0  0  0  0  0  0  0  0
    6.2954   -0.0231   24.5963 H   0  0  0  0  0  0  0  0  0  0  0  0
    5.4211    0.6528   20.1496 C   0  0  0  0  0  0  0  0  0  0  0  0
    5.0037    0.6471   21.1592 H   0  0  0  0  0  0  0  0  0  0  0  0
    4.7967    1.3106   19.0963 C   0  0  0  0  0  0  0  0  0  0  0  0
    3.8684    1.8465   19.2425 H   0  0  0  0  0  0  0  0  0  0  0  0
  1  2  1  0
  2  3  2  0
  3  4  1  0
  4  5  1  0
  4  6  2  0
  6  7  1  0
  7  8  2  0
  8  9  1  0
  9 10  1  0
  9 11  1  0
 11 12  2  0
 11 13  1  0
 13 14  1  0
 14 15  2  0
 15 16  1  0
 15 17  1  0
 17 18  2  0
 18 19  1  0
 19 20  1  0
 19 21  1  0
 18 22  1  0
 22 23  1  0
 22 24  2  0
 24 25  1  0
  6 26  1  0
 26 27  1  0
 26 28  2  0
 28 29  1  0
 28  2  1  0
 13  7  1  0
 24 14  1  0
M  END
>  <cnnaffinity>  (1) 
-4.95977

>  <filename>  (1) 
Nc1ccc(-n2c(-c3cccnc3)n[nH]c2=O)cn1

$$$$
