
     RDKit          3D

 35 37  0  0  0  0  0  0  0  0999 V2000
    4.9125    1.7764   17.0006 H   0  0  0  0  0  0  0  0  0  0  0  0
    5.4022    1.2932   17.8430 C   0  0  0  0  0  0  0  0  0  0  0  0
    6.5646    0.6740   17.5841 N   0  0  0  0  0  0  0  0  0  0  0  0
    7.1747    0.0529   18.5987 C   0  0  0  0  0  0  0  0  0  0  0  0
    8.1242   -0.4272   18.3825 H   0  0  0  0  0  0  0  0  0  0  0  0
    6.6447   -0.0097   19.8998 C   0  0  0  0  0  0  0  0  0  0  0  0
    7.3317   -0.7127   20.9461 N   0  0  0  0  0  0  0  0  0  0  0  0
    6.5742   -1.6111   21.6523 N   0  0  0  0  0  0  0  0  0  0  0  0
    7.1386   -2.2914   22.6287 C   0  0  0  0  0  0  0  0  0  0  0  0
    6.2915   -3.2742   23.3739 C   0  0  0  0  0  0  0  0  0  0  0  0
    5.2005   -3.8767   22.7244 C   0  0  0  0  0  0  0  0  0  0  0  0
    4.9938   -3.6162   21.6912 H   0  0  0  0  0  0  0  0  0  0  0  0
    4.3910   -4.7852   23.4023 C   0  0  0  0  0  0  0  0  0  0  0  0
    3.5413   -5.2316   22.8960 H   0  0  0  0  0  0  0  0  0  0  0  0
    4.6650   -5.1154   24.7297 C   0  0  0  0  0  0  0  0  0  0  0  0
    4.0159   -5.8140   25.2555 H   0  0  0  0  0  0  0  0  0  0  0  0
    5.7627   -4.5458   25.3954 C   0  0  0  0  0  0  0  0  0  0  0  0
    6.0108   -4.8500   26.8583 C   0  0  0  0  0  0  0  0  0  0  0  0
    7.0836   -4.8061   27.0768 H   0  0  0  0  0  0  0  0  0  0  0  0
    5.6945   -5.8743   27.0870 H   0  0  0  0  0  0  0  0  0  0  0  0
    5.3107   -3.9310   27.7659 N   0  0  0  0  0  0  0  0  0  0  0  0
    4.3196   -3.9637   27.5294 H   0  0  0  0  0  0  0  0  0  0  0  0
    5.5928   -2.9833   27.5187 H   0  0  0  0  0  0  0  0  0  0  0  0
    6.5594   -3.6162   24.7121 C   0  0  0  0  0  0  0  0  0  0  0  0
    7.3782   -3.1404   25.2537 H   0  0  0  0  0  0  0  0  0  0  0  0
    8.5324   -2.1157   22.9612 C   0  0  0  0  0  0  0  0  0  0  0  0
    8.9902   -2.7170   23.7455 H   0  0  0  0  0  0  0  0  0  0  0  0
    9.2820   -1.2092   22.2733 C   0  0  0  0  0  0  0  0  0  0  0  0
   10.3266   -1.0103   22.4719 H   0  0  0  0  0  0  0  0  0  0  0  0
    8.7166   -0.4024   21.2034 C   0  0  0  0  0  0  0  0  0  0  0  0
    9.3302    0.4378   20.5674 O   0  0  0  0  0  0  0  0  0  0  0  0
    5.4375    0.6435   20.1650 C   0  0  0  0  0  0  0  0  0  0  0  0
    5.0175    0.6091   21.1716 H   0  0  0  0  0  0  0  0  0  0  0  0
    4.8088    1.3156   19.1121 C   0  0  0  0  0  0  0  0  0  0  0  0
    3.8727    1.8461   19.2651 H   0  0  0  0  0  0  0  0  0  0  0  0
  1  2  1  0
  2  3  2  0
  3  4  1  0
  4  5  1  0
  4  6  2  0
  6  7  1  0
  7  8  1  0
  8  9  2  0
  9 10  1  0
 10 11  2  0
 11 12  1  0
 11 13  1  0
 13 14  1  0
 13 15  2  0
 15 16  1  0
 15 17  1  0
 17 18  1  0
 18 19  1  0
 18 20  1  0
 18 21  1  0
 21 22  1  0
 21 23  1  0
 17 24  2  0
 24 25  1  0
  9 26  1  0
 26 27  1  0
 26 28  2  0
 28 29  1  0
 28 30  1  0
 30 31  2  0
  6 32  1  0
 32 33  1  0
 32 34  2  0
 34 35  1  0
 34  2  1  0
 30  7  1  0
 24 10  1  0
M  END
>  <cnnaffinity>  (1) 
-5.31458

>  <filename>  (1) 
NCc1cccc(-c2ccc(=O)n(-c3cccnc3)n2)c1

$$$$
