
     RDKit          3D

 31 32  0  0  0  0  0  0  0  0999 V2000
    5.1832    1.7339   16.9609 H   0  0  0  0  0  0  0  0  0  0  0  0
    5.5463    1.1670   17.8168 C   0  0  0  0  0  0  0  0  0  0  0  0
    6.6801    0.4737   17.6395 N   0  0  0  0  0  0  0  0  0  0  0  0
    7.1793   -0.1973   18.6747 C   0  0  0  0  0  0  0  0  0  0  0  0
    8.1126   -0.7250   18.4814 H   0  0  0  0  0  0  0  0  0  0  0  0
    6.5435   -0.2066   19.9081 C   0  0  0  0  0  0  0  0  0  0  0  0
    7.3958   -1.0394   21.1538 S   0  0  0  0  0  0  0  0  0  0  0  0
    6.8705   -0.6167   22.4321 O   0  0  0  0  0  0  0  0  0  0  0  0
    7.5907   -2.4380   20.8347 O   0  0  0  0  0  0  0  0  0  0  0  0
    8.9311   -0.4710   20.9208 N   0  0  0  0  0  0  0  0  0  0  0  0
    9.4614   -1.2878   21.1874 H   0  0  0  0  0  0  0  0  0  0  0  0
    9.2847    0.7646   21.4414 C   0  0  0  0  0  0  0  0  0  0  0  0
   10.7012    1.1119   21.5394 C   0  0  0  0  0  0  0  0  0  0  0  0
   11.3621    0.7902   20.8096 H   0  0  0  0  0  0  0  0  0  0  0  0
   11.1559    2.5053   21.7582 C   0  0  0  0  0  0  0  0  0  0  0  0
   12.2771    2.3200   21.1666 H   0  0  0  0  0  0  0  0  0  0  0  0
   11.1719    2.5319   21.8302 C   0  0  0  0  0  0  0  0  0  0  0  0
   11.0997    3.7092   22.2353 H   0  0  0  0  0  0  0  0  0  0  0  0
    8.9466    3.0321   21.9972 C   0  0  0  0  0  0  0  0  0  0  0  0
    8.1902    4.2546   22.3287 C   0  0  0  0  0  0  0  0  0  0  0  0
    8.3158    5.0103   21.5325 H   0  0  0  0  0  0  0  0  0  0  0  0
    7.1122    4.0188   22.3458 H   0  0  0  0  0  0  0  0  0  0  0  0
    8.5134    4.8844   23.6308 N   0  0  0  0  0  0  0  0  0  0  0  0
    8.3795    4.1798   24.3546 H   0  0  0  0  0  0  0  0  0  0  0  0
    9.5065    5.1040   23.6515 H   0  0  0  0  0  0  0  0  0  0  0  0
    8.3830    1.8171   21.7113 C   0  0  0  0  0  0  0  0  0  0  0  0
    7.2934    1.6712   21.7181 H   0  0  0  0  0  0  0  0  0  0  0  0
    5.3427    0.4799   20.1140 C   0  0  0  0  0  0  0  0  0  0  0  0
    4.8255    0.4940   21.0793 H   0  0  0  0  0  0  0  0  0  0  0  0
    4.8446    1.1906   19.0262 C   0  0  0  0  0  0  0  0  0  0  0  0
    3.9445    1.7869   19.1110 H   0  0  0  0  0  0  0  0  0  0  0  0
  1  2  1  0
  2  3  2  0
  3  4  1  0
  4  5  1  0
  4  6  2  0
  6  7  1  0
  7  8  2  0
  7  9  2  0
  7 10  1  0
 10 11  1  0
 10 12  1  0
 12 13  2  0
 13 14  1  0
 13 15  1  0
 15 16  1  0
 15 17  2  0
 17 18  1  0
 17 19  1  0
 19 20  1  0
 20 21  1  0
 20 22  1  0
 20 23  1  0
 23 24  1  0
 23 25  1  0
 19 26  2  0
 26 27  1  0
  6 28  1  0
 28 29  1  0
 28 30  2  0
 30 31  1  0
 30  2  1  0
 26 12  1  0
M  END
>  <cnnaffinity>  (1) 
-4.59719

>  <filename>  (1) 
NCc1cccc(NS(=O)(=O)c2cccnc2)c1

$$$$
