
     RDKit          3D

 32 33  0  0  0  0  0  0  0  0999 V2000
    5.0030    1.9543   16.8907 H   0  0  0  0  0  0  0  0  0  0  0  0
    5.4427    1.3853   17.7105 C   0  0  0  0  0  0  0  0  0  0  0  0
    6.6046    0.7609   17.4596 N   0  0  0  0  0  0  0  0  0  0  0  0
    7.1789    0.0912   18.4686 C   0  0  0  0  0  0  0  0  0  0  0  0
    8.1146   -0.4115   18.2393 H   0  0  0  0  0  0  0  0  0  0  0  0
    6.6321   -0.0132   19.7637 C   0  0  0  0  0  0  0  0  0  0  0  0
    7.3120   -0.7257   20.8308 N   0  0  0  0  0  0  0  0  0  0  0  0
    8.5607   -0.2786   21.2351 C   0  0  0  0  0  0  0  0  0  0  0  0
    8.9809    0.5315   20.6438 H   0  0  0  0  0  0  0  0  0  0  0  0
    9.2015   -0.8016   22.3144 C   0  0  0  0  0  0  0  0  0  0  0  0
   10.1780   -0.4167   22.5847 H   0  0  0  0  0  0  0  0  0  0  0  0
    8.5970   -1.8458   23.0856 C   0  0  0  0  0  0  0  0  0  0  0  0
    9.3284   -2.5052   24.2308 C   0  0  0  0  0  0  0  0  0  0  0  0
   10.0620   -1.8037   24.6461 H   0  0  0  0  0  0  0  0  0  0  0  0
    8.6106   -2.7285   25.0292 H   0  0  0  0  0  0  0  0  0  0  0  0
   10.0600   -3.7842   23.7864 C   0  0  0  0  0  0  0  0  0  0  0  0
    9.3538   -4.4710   23.3006 H   0  0  0  0  0  0  0  0  0  0  0  0
   10.8067   -3.4877   23.0394 H   0  0  0  0  0  0  0  0  0  0  0  0
   10.7656   -4.5689   24.8881 C   0  0  0  0  0  0  0  0  0  0  0  0
   11.3101   -3.8753   25.5286 H   0  0  0  0  0  0  0  0  0  0  0  0
   11.5243   -5.2233   24.4284 H   0  0  0  0  0  0  0  0  0  0  0  0
    9.8186   -5.2854   25.7430 N   0  0  0  0  0  0  0  0  0  0  0  0
   10.3205   -5.6842   26.5331 H   0  0  0  0  0  0  0  0  0  0  0  0
    9.4035   -6.0700   25.2472 H   0  0  0  0  0  0  0  0  0  0  0  0
    7.3655   -2.2888   22.7000 C   0  0  0  0  0  0  0  0  0  0  0  0
    6.8398   -3.0681   23.2300 H   0  0  0  0  0  0  0  0  0  0  0  0
    6.6587   -1.8124   21.5296 C   0  0  0  0  0  0  0  0  0  0  0  0
    5.6103   -2.2969   21.1449 O   0  0  0  0  0  0  0  0  0  0  0  0
    5.4167    0.6359   20.0058 C   0  0  0  0  0  0  0  0  0  0  0  0
    4.9576    0.5908   20.9943 H   0  0  0  0  0  0  0  0  0  0  0  0
    4.8172    1.3449   18.9602 C   0  0  0  0  0  0  0  0  0  0  0  0
    3.8959    1.8949   19.1158 H   0  0  0  0  0  0  0  0  0  0  0  0
  1  2  1  0
  2  3  2  0
  3  4  1  0
  4  5  1  0
  4  6  2  0
  6  7  1  0
  7  8  1  0
  8  9  1  0
  8 10  2  0
 10 11  1  0
 10 12  1  0
 12 13  1  0
 13 14  1  0
 13 15  1  0
 13 16  1  0
 16 17  1  0
 16 18  1  0
 16 19  1  0
 19 20  1  0
 19 21  1  0
 19 22  1  0
 22 23  1  0
 22 24  1  0
 12 25  2  0
 25 26  1  0
 25 27  1  0
 27 28  2  0
  6 29  1  0
 29 30  1  0
 29 31  2  0
 31 32  1  0
 31  2  1  0
 27  7  1  0
M  END
>  <cnnaffinity>  (1) 
-4.79033

>  <filename>  (1) 
NCCCc1ccn(-c2cccnc2)c(=O)c1

$$$$
