
     RDKit          3D

 30 32  0  0  0  0  0  0  0  0999 V2000
    4.9380    1.8131   16.9683 H   0  0  0  0  0  0  0  0  0  0  0  0
    5.4033    1.2977   17.8078 C   0  0  0  0  0  0  0  0  0  0  0  0
    6.5623    0.6693   17.5587 N   0  0  0  0  0  0  0  0  0  0  0  0
    7.1630    0.0341   18.5699 C   0  0  0  0  0  0  0  0  0  0  0  0
    8.1135   -0.4348   18.3268 H   0  0  0  0  0  0  0  0  0  0  0  0
    6.6376   -0.0300   19.8735 C   0  0  0  0  0  0  0  0  0  0  0  0
    7.3720   -0.7018   20.9599 C   0  0  0  0  0  0  0  0  0  0  0  0
    8.4892   -1.4046   20.7189 N   0  0  0  0  0  0  0  0  0  0  0  0
    8.8970   -1.7525   21.9598 N   0  0  0  0  0  0  0  0  0  0  0  0
   10.0815   -2.2475   22.4859 C   0  0  0  0  0  0  0  0  0  0  0  0
   10.8481   -2.6131   21.8251 H   0  0  0  0  0  0  0  0  0  0  0  0
    9.9723   -2.1026   23.8362 C   0  0  0  0  0  0  0  0  0  0  0  0
   10.6793   -2.2841   24.6324 H   0  0  0  0  0  0  0  0  0  0  0  0
    8.7206   -1.5662   24.1384 N   0  0  0  0  0  0  0  0  0  0  0  0
    8.3054   -0.9195   25.3712 C   0  0  0  0  0  0  0  0  0  0  0  0
    7.2231   -0.7690   25.2676 H   0  0  0  0  0  0  0  0  0  0  0  0
    8.4615   -1.5979   26.2187 H   0  0  0  0  0  0  0  0  0  0  0  0
    8.9956    0.4345   25.5962 C   0  0  0  0  0  0  0  0  0  0  0  0
   10.0848    0.2878   25.6399 H   0  0  0  0  0  0  0  0  0  0  0  0
    8.6941    0.8003   26.5852 H   0  0  0  0  0  0  0  0  0  0  0  0
    8.7213    1.4561   24.5966 N   0  0  0  0  0  0  0  0  0  0  0  0
    9.0479    1.1700   23.6741 H   0  0  0  0  0  0  0  0  0  0  0  0
    7.7271    1.6573   24.5131 H   0  0  0  0  0  0  0  0  0  0  0  0
    8.0939   -1.3075   22.9437 C   0  0  0  0  0  0  0  0  0  0  0  0
    7.0647   -0.6076   22.3430 C   0  0  0  0  0  0  0  0  0  0  0  0
    6.2819   -0.0189   22.7907 H   0  0  0  0  0  0  0  0  0  0  0  0
    5.4264    0.6416   20.1147 C   0  0  0  0  0  0  0  0  0  0  0  0
    4.9819    0.6517   21.1106 H   0  0  0  0  0  0  0  0  0  0  0  0
    4.7981    1.3100   19.0685 C   0  0  0  0  0  0  0  0  0  0  0  0
    3.8679    1.8499   19.2227 H   0  0  0  0  0  0  0  0  0  0  0  0
  1  2  1  0
  2  3  2  0
  3  4  1  0
  4  5  1  0
  4  6  2  0
  6  7  1  0
  7  8  2  0
  8  9  1  0
  9 10  1  0
 10 11  1  0
 10 12  2  0
 12 13  1  0
 12 14  1  0
 14 15  1  0
 15 16  1  0
 15 17  1  0
 15 18  1  0
 18 19  1  0
 18 20  1  0
 18 21  1  0
 21 22  1  0
 21 23  1  0
 14 24  1  0
 24 25  2  0
 25 26  1  0
  6 27  1  0
 27 28  1  0
 27 29  2  0
 29 30  1  0
 29  2  1  0
 25  7  1  0
 24  9  1  0
M  END
>  <cnnaffinity>  (1) 
-4.95288

>  <filename>  (1) 
NCCn1ccn2nc(-c3cccnc3)cc12

$$$$
