
     RDKit          3D

 28 29  0  0  0  0  0  0  0  0999 V2000
    4.9782    1.7644   16.9461 H   0  0  0  0  0  0  0  0  0  0  0  0
    5.4456    1.2637   17.7898 C   0  0  0  0  0  0  0  0  0  0  0  0
    6.5956    0.6155   17.5365 N   0  0  0  0  0  0  0  0  0  0  0  0
    7.1907   -0.0048   18.5615 C   0  0  0  0  0  0  0  0  0  0  0  0
    8.1248   -0.5168   18.3537 H   0  0  0  0  0  0  0  0  0  0  0  0
    6.6803   -0.0022   19.8774 C   0  0  0  0  0  0  0  0  0  0  0  0
    7.3556   -0.5993   20.9531 N   0  0  0  0  0  0  0  0  0  0  0  0
    7.3557   -0.1727   22.3084 C   0  0  0  0  0  0  0  0  0  0  0  0
    6.7847    0.8105   22.7468 O   0  0  0  0  0  0  0  0  0  0  0  0
    8.1614   -1.1489   22.9923 C   0  0  0  0  0  0  0  0  0  0  0  0
    8.3359   -1.1162   24.0475 H   0  0  0  0  0  0  0  0  0  0  0  0
    8.6027   -2.0277   22.0732 C   0  0  0  0  0  0  0  0  0  0  0  0
    9.2566   -3.1778   22.1947 O   0  0  0  0  0  0  0  0  0  0  0  0
    9.6391   -3.5442   23.5354 C   0  0  0  0  0  0  0  0  0  0  0  0
    9.8820   -2.6590   24.1275 H   0  0  0  0  0  0  0  0  0  0  0  0
   10.5571   -4.1251   23.4547 H   0  0  0  0  0  0  0  0  0  0  0  0
    8.5829   -4.3547   24.2845 C   0  0  0  0  0  0  0  0  0  0  0  0
    7.7411   -3.6851   24.4994 H   0  0  0  0  0  0  0  0  0  0  0  0
    8.1719   -5.1396   23.6301 H   0  0  0  0  0  0  0  0  0  0  0  0
    9.1659   -4.8332   25.5427 N   0  0  0  0  0  0  0  0  0  0  0  0
    8.4548   -5.2279   26.1528 H   0  0  0  0  0  0  0  0  0  0  0  0
    9.8311   -5.5867   25.3673 H   0  0  0  0  0  0  0  0  0  0  0  0
    8.2442   -1.6829   20.7783 N   0  0  0  0  0  0  0  0  0  0  0  0
    7.8400   -2.4677   20.2829 H   0  0  0  0  0  0  0  0  0  0  0  0
    5.4709    0.6631   20.1248 C   0  0  0  0  0  0  0  0  0  0  0  0
    5.0734    0.6901   21.1373 H   0  0  0  0  0  0  0  0  0  0  0  0
    4.8438    1.2977   19.0540 C   0  0  0  0  0  0  0  0  0  0  0  0
    3.9088    1.8271   19.2010 H   0  0  0  0  0  0  0  0  0  0  0  0
  1  2  1  0
  2  3  2  0
  3  4  1  0
  4  5  1  0
  4  6  2  0
  6  7  1  0
  7  8  1  0
  8  9  2  0
  8 10  1  0
 10 11  1  0
 10 12  2  0
 12 13  1  0
 13 14  1  0
 14 15  1  0
 14 16  1  0
 14 17  1  0
 17 18  1  0
 17 19  1  0
 17 20  1  0
 20 21  1  0
 20 22  1  0
 12 23  1  0
 23 24  1  0
  6 25  1  0
 25 26  1  0
 25 27  2  0
 27 28  1  0
 27  2  1  0
 23  7  1  0
M  END
>  <cnnaffinity>  (1) 
-4.68437

>  <filename>  (1) 
NCCOc1cc(=O)n(-c2cccnc2)[nH]1

$$$$
