
     RDKit          3D

 24 25  0  0  0  0  0  0  0  0999 V2000
    4.9638    1.7834   17.0396 H   0  0  0  0  0  0  0  0  0  0  0  0
    5.4420    1.2767   17.8742 C   0  0  0  0  0  0  0  0  0  0  0  0
    6.6031    0.6597   17.6039 N   0  0  0  0  0  0  0  0  0  0  0  0
    7.2165    0.0158   18.6073 C   0  0  0  0  0  0  0  0  0  0  0  0
    8.1663   -0.4621   18.3658 H   0  0  0  0  0  0  0  0  0  0  0  0
    6.6855   -0.0604   19.9132 C   0  0  0  0  0  0  0  0  0  0  0  0
    7.3466   -0.7929   20.9680 N   0  0  0  0  0  0  0  0  0  0  0  0
    8.6044   -0.5235   21.4995 C   0  0  0  0  0  0  0  0  0  0  0  0
    9.3855    0.7413   21.1620 C   0  0  0  0  0  0  0  0  0  0  0  0
    8.8349    1.7295   20.7044 O   0  0  0  0  0  0  0  0  0  0  0  0
   10.7336    0.6566   21.3997 N   0  0  0  0  0  0  0  0  0  0  0  0
   11.0382   -0.1152   21.9843 H   0  0  0  0  0  0  0  0  0  0  0  0
   11.7043    1.6624   21.1930 N   0  0  0  0  0  0  0  0  0  0  0  0
   11.3882    2.5656   21.5578 H   0  0  0  0  0  0  0  0  0  0  0  0
   11.8959    1.7977   20.1976 H   0  0  0  0  0  0  0  0  0  0  0  0
    8.9453   -1.4327   22.3788 N   0  0  0  0  0  0  0  0  0  0  0  0
    7.8743   -2.2621   22.4114 N   0  0  0  0  0  0  0  0  0  0  0  0
    7.7548   -3.0290   23.0540 H   0  0  0  0  0  0  0  0  0  0  0  0
    6.8575   -1.9350   21.5906 C   0  0  0  0  0  0  0  0  0  0  0  0
    5.4374   -2.7801   21.4145 S   0  0  0  0  0  0  0  0  0  0  0  0
    5.4828    0.5966   20.1825 C   0  0  0  0  0  0  0  0  0  0  0  0
    5.0606    0.5574   21.1876 H   0  0  0  0  0  0  0  0  0  0  0  0
    4.8454    1.2832   19.1400 C   0  0  0  0  0  0  0  0  0  0  0  0
    3.9068    1.8090   19.2939 H   0  0  0  0  0  0  0  0  0  0  0  0
  1  2  1  0
  2  3  2  0
  3  4  1  0
  4  5  1  0
  4  6  2  0
  6  7  1  0
  7  8  1  0
  8  9  1  0
  9 10  2  0
  9 11  1  0
 11 12  1  0
 11 13  1  0
 13 14  1  0
 13 15  1  0
  8 16  2  0
 16 17  1  0
 17 18  1  0
 17 19  1  0
 19 20  2  0
  6 21  1  0
 21 22  1  0
 21 23  2  0
 23 24  1  0
 23  2  1  0
 19  7  1  0
M  END
>  <cnnaffinity>  (1) 
-4.80953

>  <filename>  (1) 
NNC(=O)c1n[nH]c(=S)n1-c1cccnc1

$$$$
