
     RDKit          3D

 43 45  0  0  0  0  0  0  0  0999 V2000
    4.9561    1.8713   17.0581 H   0  0  0  0  0  0  0  0  0  0  0  0
    5.4453    1.3264   17.8633 C   0  0  0  0  0  0  0  0  0  0  0  0
    6.5865    0.6930   17.5505 N   0  0  0  0  0  0  0  0  0  0  0  0
    7.2124    0.0252   18.5323 C   0  0  0  0  0  0  0  0  0  0  0  0
    8.1420   -0.4692   18.2568 H   0  0  0  0  0  0  0  0  0  0  0  0
    6.7405   -0.0815   19.8691 C   0  0  0  0  0  0  0  0  0  0  0  0
    7.4530   -0.8271   20.8538 N   0  0  0  0  0  0  0  0  0  0  0  0
    6.6637   -1.6924   21.7414 C   0  0  0  0  0  0  0  0  0  0  0  0
    6.6903   -2.7210   21.3509 H   0  0  0  0  0  0  0  0  0  0  0  0
    5.6138   -1.3907   21.6844 H   0  0  0  0  0  0  0  0  0  0  0  0
    7.0561   -1.7798   23.2374 C   0  0  0  0  0  0  0  0  0  0  0  0
    8.0268   -2.2873   23.3214 H   0  0  0  0  0  0  0  0  0  0  0  0
    6.3182   -2.4494   23.6975 H   0  0  0  0  0  0  0  0  0  0  0  0
    7.1156   -0.5422   24.0094 N   0  0  0  0  0  0  0  0  0  0  0  0
    5.9061    0.0382   24.4412 C   0  0  0  0  0  0  0  0  0  0  0  0
    5.4988    1.3253   24.0488 C   0  0  0  0  0  0  0  0  0  0  0  0
    6.1549    1.9105   23.4165 H   0  0  0  0  0  0  0  0  0  0  0  0
    4.2749    1.8471   24.4526 C   0  0  0  0  0  0  0  0  0  0  0  0
    3.9936    2.8471   24.1215 H   0  0  0  0  0  0  0  0  0  0  0  0
    3.4201    1.0531   25.2305 C   0  0  0  0  0  0  0  0  0  0  0  0
    1.7808    1.5446   25.6187 S   0  0  0  0  0  0  0  0  0  0  0  0
    0.9028    0.3897   25.5647 O   0  0  0  0  0  0  0  0  0  0  0  0
    1.7302    2.4924   26.7128 O   0  0  0  0  0  0  0  0  0  0  0  0
    1.2905    2.4646   24.3341 N   0  0  0  0  0  0  0  0  0  0  0  0
    0.9447    3.2018   24.9448 H   0  0  0  0  0  0  0  0  0  0  0  0
    0.5055    1.8783   24.0679 H   0  0  0  0  0  0  0  0  0  0  0  0
    3.8430   -0.1986   25.7020 C   0  0  0  0  0  0  0  0  0  0  0  0
    3.2055   -0.8074   26.3404 H   0  0  0  0  0  0  0  0  0  0  0  0
    5.0800   -0.6908   25.3145 C   0  0  0  0  0  0  0  0  0  0  0  0
    5.4310   -1.6590   25.6547 H   0  0  0  0  0  0  0  0  0  0  0  0
    8.3020    0.2801   23.8367 C   0  0  0  0  0  0  0  0  0  0  0  0
    8.2393    1.1211   24.5410 H   0  0  0  0  0  0  0  0  0  0  0  0
    9.1789   -0.3123   24.1539 H   0  0  0  0  0  0  0  0  0  0  0  0
    8.5659    0.8176   22.4225 C   0  0  0  0  0  0  0  0  0  0  0  0
    9.4930    1.4011   22.4672 H   0  0  0  0  0  0  0  0  0  0  0  0
    7.7676    1.5073   22.1217 H   0  0  0  0  0  0  0  0  0  0  0  0
    8.7139   -0.2486   21.3273 C   0  0  0  0  0  0  0  0  0  0  0  0
    9.2086    0.1938   20.4532 H   0  0  0  0  0  0  0  0  0  0  0  0
    9.3713   -1.0651   21.6610 H   0  0  0  0  0  0  0  0  0  0  0  0
    5.5442    0.5989   20.1639 C   0  0  0  0  0  0  0  0  0  0  0  0
    5.1664    0.5840   21.1913 H   0  0  0  0  0  0  0  0  0  0  0  0
    4.8871    1.3070   19.1484 C   0  0  0  0  0  0  0  0  0  0  0  0
    3.9596    1.8381   19.3360 H   0  0  0  0  0  0  0  0  0  0  0  0
  1  2  1  0
  2  3  2  0
  3  4  1  0
  4  5  1  0
  4  6  2  0
  6  7  1  0
  7  8  1  0
  8  9  1  0
  8 10  1  0
  8 11  1  0
 11 12  1  0
 11 13  1  0
 11 14  1  0
 14 15  1  0
 15 16  2  0
 16 17  1  0
 16 18  1  0
 18 19  1  0
 18 20  2  0
 20 21  1  0
 21 22  2  0
 21 23  2  0
 21 24  1  0
 24 25  1  0
 24 26  1  0
 20 27  1  0
 27 28  1  0
 27 29  2  0
 29 30  1  0
 14 31  1  0
 31 32  1  0
 31 33  1  0
 31 34  1  0
 34 35  1  0
 34 36  1  0
 34 37  1  0
 37 38  1  0
 37 39  1  0
  6 40  1  0
 40 41  1  0
 40 42  2  0
 42 43  1  0
 42  2  1  0
 37  7  1  0
 29 15  1  0
M  END
>  <cnnaffinity>  (1) 
-5.00423

>  <filename>  (1) 
NS(=O)(=O)c1ccc(N2CCCN(c3cccnc3)CC2)cc1

$$$$
