
     RDKit          3D

 34 36  0  0  0  0  0  0  0  0999 V2000
    4.9840    1.8203   16.9331 H   0  0  0  0  0  0  0  0  0  0  0  0
    5.4477    1.3098   17.7736 C   0  0  0  0  0  0  0  0  0  0  0  0
    6.6025    0.6739   17.5165 N   0  0  0  0  0  0  0  0  0  0  0  0
    7.2013    0.0515   18.5393 C   0  0  0  0  0  0  0  0  0  0  0  0
    8.1246   -0.4696   18.2905 H   0  0  0  0  0  0  0  0  0  0  0  0
    6.6942    0.0183   19.8525 C   0  0  0  0  0  0  0  0  0  0  0  0
    7.3725   -0.6896   20.9430 C   0  0  0  0  0  0  0  0  0  0  0  0
    6.8606   -1.2571   22.0560 C   0  0  0  0  0  0  0  0  0  0  0  0
    5.8396   -1.4199   22.3463 H   0  0  0  0  0  0  0  0  0  0  0  0
    7.9051   -1.7730   22.8156 N   0  0  0  0  0  0  0  0  0  0  0  0
    7.7333   -2.4499   24.0626 C   0  0  0  0  0  0  0  0  0  0  0  0
    6.9126   -1.8997   25.0586 C   0  0  0  0  0  0  0  0  0  0  0  0
    6.4643   -0.9259   24.8886 H   0  0  0  0  0  0  0  0  0  0  0  0
    6.6553   -2.6059   26.2327 C   0  0  0  0  0  0  0  0  0  0  0  0
    6.0185   -2.1600   26.9940 H   0  0  0  0  0  0  0  0  0  0  0  0
    7.2064   -3.8852   26.3896 C   0  0  0  0  0  0  0  0  0  0  0  0
    6.7553   -5.0055   27.6694 S   0  0  0  0  0  0  0  0  0  0  0  0
    7.8311   -5.1469   28.6225 O   0  0  0  0  0  0  0  0  0  0  0  0
    6.0740   -6.1371   27.0699 O   0  0  0  0  0  0  0  0  0  0  0  0
    5.5577   -4.3270   28.5746 N   0  0  0  0  0  0  0  0  0  0  0  0
    4.9242   -5.1114   28.4427 H   0  0  0  0  0  0  0  0  0  0  0  0
    6.0318   -4.4230   29.4701 H   0  0  0  0  0  0  0  0  0  0  0  0
    8.0832   -4.4098   25.4222 C   0  0  0  0  0  0  0  0  0  0  0  0
    8.5639   -5.3779   25.5444 H   0  0  0  0  0  0  0  0  0  0  0  0
    8.3415   -3.6913   24.2645 C   0  0  0  0  0  0  0  0  0  0  0  0
    9.0119   -4.0743   23.5046 H   0  0  0  0  0  0  0  0  0  0  0  0
    9.0949   -1.5657   22.1564 C   0  0  0  0  0  0  0  0  0  0  0  0
   10.6572   -1.9844   22.5432 S   0  0  0  0  0  0  0  0  0  0  0  0
    8.7392   -0.9084   21.0189 N   0  0  0  0  0  0  0  0  0  0  0  0
    9.4679   -0.6152   20.3961 H   0  0  0  0  0  0  0  0  0  0  0  0
    5.4725    0.6749   20.0900 C   0  0  0  0  0  0  0  0  0  0  0  0
    5.0433    0.6814   21.0934 H   0  0  0  0  0  0  0  0  0  0  0  0
    4.8419    1.3307   19.0345 C   0  0  0  0  0  0  0  0  0  0  0  0
    3.9058    1.8603   19.1741 H   0  0  0  0  0  0  0  0  0  0  0  0
  1  2  1  0
  2  3  2  0
  3  4  1  0
  4  5  1  0
  4  6  2  0
  6  7  1  0
  7  8  2  0
  8  9  1  0
  8 10  1  0
 10 11  1  0
 11 12  2  0
 12 13  1  0
 12 14  1  0
 14 15  1  0
 14 16  2  0
 16 17  1  0
 17 18  2  0
 17 19  2  0
 17 20  1  0
 20 21  1  0
 20 22  1  0
 16 23  1  0
 23 24  1  0
 23 25  2  0
 25 26  1  0
 10 27  1  0
 27 28  2  0
 27 29  1  0
 29 30  1  0
  6 31  1  0
 31 32  1  0
 31 33  2  0
 33 34  1  0
 33  2  1  0
 29  7  1  0
 25 11  1  0
M  END
>  <cnnaffinity>  (1) 
-5.50626

>  <filename>  (1) 
NS(=O)(=O)c1ccc(-n2cc(-c3cccnc3)[nH]c2=S)cc1

$$$$
