
     RDKit          3D

 33 35  0  0  0  0  0  0  0  0999 V2000
    4.9489    1.8116   16.9760 H   0  0  0  0  0  0  0  0  0  0  0  0
    5.4010    1.3024   17.8231 C   0  0  0  0  0  0  0  0  0  0  0  0
    6.5600    0.6696   17.5783 N   0  0  0  0  0  0  0  0  0  0  0  0
    7.1520    0.0539   18.6048 C   0  0  0  0  0  0  0  0  0  0  0  0
    8.0858   -0.4626   18.3827 H   0  0  0  0  0  0  0  0  0  0  0  0
    6.6385    0.0474   19.9096 C   0  0  0  0  0  0  0  0  0  0  0  0
    7.3879   -0.6809   20.9377 C   0  0  0  0  0  0  0  0  0  0  0  0
    7.9875   -1.8124   20.7194 N   0  0  0  0  0  0  0  0  0  0  0  0
    8.4643   -2.1763   21.9481 N   0  0  0  0  0  0  0  0  0  0  0  0
    8.9635   -3.0272   22.1319 H   0  0  0  0  0  0  0  0  0  0  0  0
    8.1960   -1.2889   22.9389 C   0  0  0  0  0  0  0  0  0  0  0  0
    8.5059   -1.3810   24.1097 O   0  0  0  0  0  0  0  0  0  0  0  0
    7.4973   -0.2863   22.2598 N   0  0  0  0  0  0  0  0  0  0  0  0
    7.1437    0.9462   22.8591 C   0  0  0  0  0  0  0  0  0  0  0  0
    6.4899    0.9486   24.0939 C   0  0  0  0  0  0  0  0  0  0  0  0
    6.2983    0.0029   24.5843 H   0  0  0  0  0  0  0  0  0  0  0  0
    6.1135    2.1525   24.6778 C   0  0  0  0  0  0  0  0  0  0  0  0
    5.5698    2.1504   25.6234 H   0  0  0  0  0  0  0  0  0  0  0  0
    6.4315    3.3565   24.0264 C   0  0  0  0  0  0  0  0  0  0  0  0
    5.9857    4.8602   24.8235 S   0  0  0  0  0  0  0  0  0  0  0  0
    7.0921    5.4922   25.5103 O   0  0  0  0  0  0  0  0  0  0  0  0
    4.6826    4.7098   25.4474 O   0  0  0  0  0  0  0  0  0  0  0  0
    5.6006    5.8615   23.5717 N   0  0  0  0  0  0  0  0  0  0  0  0
    4.6654    5.5043   23.4018 H   0  0  0  0  0  0  0  0  0  0  0  0
    5.4354    6.6491   24.1892 H   0  0  0  0  0  0  0  0  0  0  0  0
    7.0934    3.3600   22.7872 C   0  0  0  0  0  0  0  0  0  0  0  0
    7.3130    4.2879   22.2572 H   0  0  0  0  0  0  0  0  0  0  0  0
    7.4499    2.1475   22.2119 C   0  0  0  0  0  0  0  0  0  0  0  0
    7.9319    2.1165   21.2427 H   0  0  0  0  0  0  0  0  0  0  0  0
    5.4077    0.6834   20.1424 C   0  0  0  0  0  0  0  0  0  0  0  0
    4.9707    0.6827   21.1436 H   0  0  0  0  0  0  0  0  0  0  0  0
    4.7822    1.3237   19.0780 C   0  0  0  0  0  0  0  0  0  0  0  0
    3.8433    1.8528   19.2053 H   0  0  0  0  0  0  0  0  0  0  0  0
  1  2  1  0
  2  3  2  0
  3  4  1  0
  4  5  1  0
  4  6  2  0
  6  7  1  0
  7  8  2  0
  8  9  1  0
  9 10  1  0
  9 11  1  0
 11 12  2  0
 11 13  1  0
 13 14  1  0
 14 15  2  0
 15 16  1  0
 15 17  1  0
 17 18  1  0
 17 19  2  0
 19 20  1  0
 20 21  2  0
 20 22  2  0
 20 23  1  0
 23 24  1  0
 23 25  1  0
 19 26  1  0
 26 27  1  0
 26 28  2  0
 28 29  1  0
  6 30  1  0
 30 31  1  0
 30 32  2  0
 32 33  1  0
 32  2  1  0
 13  7  1  0
 28 14  1  0
M  END
>  <cnnaffinity>  (1) 
-5.06053

>  <filename>  (1) 
NS(=O)(=O)c1ccc(-n2c(-c3cccnc3)n[nH]c2=O)cc1

$$$$
