
     RDKit          3D

 35 37  0  0  0  0  0  0  0  0999 V2000
    4.9510    1.7910   16.9961 H   0  0  0  0  0  0  0  0  0  0  0  0
    5.4177    1.2895   17.8403 C   0  0  0  0  0  0  0  0  0  0  0  0
    6.5765    0.6641   17.5868 N   0  0  0  0  0  0  0  0  0  0  0  0
    7.1791    0.0485   18.6107 C   0  0  0  0  0  0  0  0  0  0  0  0
    8.1184   -0.4440   18.3628 H   0  0  0  0  0  0  0  0  0  0  0  0
    6.6578   -0.0114   19.9181 C   0  0  0  0  0  0  0  0  0  0  0  0
    7.3996   -0.7465   20.9877 C   0  0  0  0  0  0  0  0  0  0  0  0
    6.4037   -1.7345   22.0510 S   0  0  0  0  0  0  0  0  0  0  0  0
    7.5499   -2.3731   23.2271 C   0  0  0  0  0  0  0  0  0  0  0  0
    6.9427   -3.2239   24.3064 C   0  0  0  0  0  0  0  0  0  0  0  0
    5.7028   -2.9055   24.9021 C   0  0  0  0  0  0  0  0  0  0  0  0
    5.1757   -2.0080   24.5968 H   0  0  0  0  0  0  0  0  0  0  0  0
    5.1544   -3.7028   25.9015 C   0  0  0  0  0  0  0  0  0  0  0  0
    4.1997   -3.4142   26.3394 H   0  0  0  0  0  0  0  0  0  0  0  0
    5.8551   -4.8421   26.3337 C   0  0  0  0  0  0  0  0  0  0  0  0
    5.1929   -5.8468   27.6160 S   0  0  0  0  0  0  0  0  0  0  0  0
    4.1377   -5.1247   28.3084 O   0  0  0  0  0  0  0  0  0  0  0  0
    6.1947   -6.6103   28.3217 O   0  0  0  0  0  0  0  0  0  0  0  0
    4.2605   -6.9555   26.8045 N   0  0  0  0  0  0  0  0  0  0  0  0
    4.0124   -7.3901   27.6953 H   0  0  0  0  0  0  0  0  0  0  0  0
    3.4804   -6.3164   26.6606 H   0  0  0  0  0  0  0  0  0  0  0  0
    7.0944   -5.1748   25.7765 C   0  0  0  0  0  0  0  0  0  0  0  0
    7.6579   -6.0383   26.1262 H   0  0  0  0  0  0  0  0  0  0  0  0
    7.6253   -4.3667   24.7734 C   0  0  0  0  0  0  0  0  0  0  0  0
    8.5878   -4.6424   24.3538 H   0  0  0  0  0  0  0  0  0  0  0  0
    8.8785   -2.1425   23.1441 C   0  0  0  0  0  0  0  0  0  0  0  0
    9.5732   -2.5563   23.8754 H   0  0  0  0  0  0  0  0  0  0  0  0
    9.5559   -1.3223   22.1221 C   0  0  0  0  0  0  0  0  0  0  0  0
   10.7697   -1.1937   22.1337 O   0  0  0  0  0  0  0  0  0  0  0  0
    8.7408   -0.6679   21.0856 C   0  0  0  0  0  0  0  0  0  0  0  0
    9.3216   -0.0604   20.3928 H   0  0  0  0  0  0  0  0  0  0  0  0
    5.4400    0.6516   20.1590 C   0  0  0  0  0  0  0  0  0  0  0  0
    5.0076    0.6554   21.1610 H   0  0  0  0  0  0  0  0  0  0  0  0
    4.8125    1.3110   19.1012 C   0  0  0  0  0  0  0  0  0  0  0  0
    3.8778    1.8449   19.2436 H   0  0  0  0  0  0  0  0  0  0  0  0
  1  2  1  0
  2  3  2  0
  3  4  1  0
  4  5  1  0
  4  6  2  0
  6  7  1  0
  7  8  1  0
  8  9  1  0
  9 10  1  0
 10 11  2  0
 11 12  1  0
 11 13  1  0
 13 14  1  0
 13 15  2  0
 15 16  1  0
 16 17  2  0
 16 18  2  0
 16 19  1  0
 19 20  1  0
 19 21  1  0
 15 22  1  0
 22 23  1  0
 22 24  2  0
 24 25  1  0
  9 26  2  0
 26 27  1  0
 26 28  1  0
 28 29  2  0
 28 30  1  0
 30 31  1  0
  6 32  1  0
 32 33  1  0
 32 34  2  0
 34 35  1  0
 34  2  1  0
 30  7  2  0
 24 10  1  0
M  END
>  <cnnaffinity>  (1) 
-5.42165

>  <filename>  (1) 
NS(=O)(=O)c1ccc(-c2cc(=O)cc(-c3cccnc3)s2)cc1

$$$$
