
     RDKit          3D

 22 23  0  0  0  0  0  0  0  0999 V2000
    4.9470    1.8145   16.9680 H   0  0  0  0  0  0  0  0  0  0  0  0
    5.4005    1.3134   17.8200 C   0  0  0  0  0  0  0  0  0  0  0  0
    6.5606    0.6821   17.5869 N   0  0  0  0  0  0  0  0  0  0  0  0
    7.1632    0.0851   18.6166 C   0  0  0  0  0  0  0  0  0  0  0  0
    8.0887   -0.4441   18.3872 H   0  0  0  0  0  0  0  0  0  0  0  0
    6.6554    0.0998   19.9214 C   0  0  0  0  0  0  0  0  0  0  0  0
    7.4220   -0.5915   20.9598 C   0  0  0  0  0  0  0  0  0  0  0  0
    7.8584   -1.8157   20.7838 N   0  0  0  0  0  0  0  0  0  0  0  0
    8.4668   -2.1963   21.9609 O   0  0  0  0  0  0  0  0  0  0  0  0
    8.4188   -1.1842   22.8276 C   0  0  0  0  0  0  0  0  0  0  0  0
    8.8455   -1.3552   23.8080 H   0  0  0  0  0  0  0  0  0  0  0  0
    7.8032   -0.1401   22.2367 C   0  0  0  0  0  0  0  0  0  0  0  0
    7.4562    1.3355   22.9802 S   0  0  0  0  0  0  0  0  0  0  0  0
    6.0247    1.4889   23.0596 O   0  0  0  0  0  0  0  0  0  0  0  0
    8.4122    1.4507   24.0492 O   0  0  0  0  0  0  0  0  0  0  0  0
    7.8684    2.3674   21.8028 N   0  0  0  0  0  0  0  0  0  0  0  0
    7.0686    2.2914   21.1960 H   0  0  0  0  0  0  0  0  0  0  0  0
    8.6782    1.9418   21.3939 H   0  0  0  0  0  0  0  0  0  0  0  0
    5.4108    0.7049   20.1443 C   0  0  0  0  0  0  0  0  0  0  0  0
    4.9441    0.6841   21.1297 H   0  0  0  0  0  0  0  0  0  0  0  0
    4.7848    1.3391   19.0734 C   0  0  0  0  0  0  0  0  0  0  0  0
    3.8448    1.8548   19.2095 H   0  0  0  0  0  0  0  0  0  0  0  0
  1  2  1  0
  2  3  2  0
  3  4  1  0
  4  5  1  0
  4  6  2  0
  6  7  1  0
  7  8  2  0
  8  9  1  0
  9 10  1  0
 10 11  1  0
 10 12  2  0
 12 13  1  0
 13 14  2  0
 13 15  2  0
 13 16  1  0
 16 17  1  0
 16 18  1  0
  6 19  1  0
 19 20  1  0
 19 21  2  0
 21 22  1  0
 21  2  1  0
 12  7  1  0
M  END
>  <cnnaffinity>  (1) 
-4.30815

>  <filename>  (1) 
NS(=O)(=O)c1conc1-c1cccnc1

$$$$
