
     RDKit          3D

 24 25  0  0  0  0  0  0  0  0999 V2000
    5.0735    1.9157   17.0156 H   0  0  0  0  0  0  0  0  0  0  0  0
    5.5403    1.3215   17.7991 C   0  0  0  0  0  0  0  0  0  0  0  0
    6.6852    0.7009   17.4705 N   0  0  0  0  0  0  0  0  0  0  0  0
    7.2921   -0.0414   18.4067 C   0  0  0  0  0  0  0  0  0  0  0  0
    8.2195   -0.5435   18.1275 H   0  0  0  0  0  0  0  0  0  0  0  0
    6.7780   -0.1963   19.7079 C   0  0  0  0  0  0  0  0  0  0  0  0
    7.4615   -0.9399   20.7298 N   0  0  0  0  0  0  0  0  0  0  0  0
    8.6295   -0.5059   21.3476 C   0  0  0  0  0  0  0  0  0  0  0  0
    9.1690    0.3409   20.9439 H   0  0  0  0  0  0  0  0  0  0  0  0
    8.8670   -1.3001   22.4116 C   0  0  0  0  0  0  0  0  0  0  0  0
   10.4251   -1.3324   23.2981 S   0  0  0  0  0  0  0  0  0  0  0  0
   11.1720   -0.1199   23.0381 O   0  0  0  0  0  0  0  0  0  0  0  0
   10.2170   -1.9035   24.6103 O   0  0  0  0  0  0  0  0  0  0  0  0
   11.2750   -2.4726   22.4765 N   0  0  0  0  0  0  0  0  0  0  0  0
   12.1857   -2.0328   22.5024 H   0  0  0  0  0  0  0  0  0  0  0  0
   11.2196   -3.2492   23.1193 H   0  0  0  0  0  0  0  0  0  0  0  0
    7.7572   -2.1774   22.4780 N   0  0  0  0  0  0  0  0  0  0  0  0
    7.4957   -2.8769   23.1640 H   0  0  0  0  0  0  0  0  0  0  0  0
    6.8946   -1.9774   21.4463 C   0  0  0  0  0  0  0  0  0  0  0  0
    5.5230   -2.8693   21.1812 S   0  0  0  0  0  0  0  0  0  0  0  0
    5.5743    0.4318   20.0373 C   0  0  0  0  0  0  0  0  0  0  0  0
    5.1536    0.3057   21.0375 H   0  0  0  0  0  0  0  0  0  0  0  0
    4.9555    1.2203   19.0654 C   0  0  0  0  0  0  0  0  0  0  0  0
    4.0380    1.7536   19.2755 H   0  0  0  0  0  0  0  0  0  0  0  0
  1  2  1  0
  2  3  2  0
  3  4  1  0
  4  5  1  0
  4  6  2  0
  6  7  1  0
  7  8  1  0
  8  9  1  0
  8 10  2  0
 10 11  1  0
 11 12  2  0
 11 13  2  0
 11 14  1  0
 14 15  1  0
 14 16  1  0
 10 17  1  0
 17 18  1  0
 17 19  1  0
 19 20  2  0
  6 21  1  0
 21 22  1  0
 21 23  2  0
 23 24  1  0
 23  2  1  0
 19  7  1  0
M  END
>  <cnnaffinity>  (1) 
-4.82458

>  <filename>  (1) 
NS(=O)(=O)c1cn(-c2cccnc2)c(=S)[nH]1

$$$$
