
     RDKit          3D

 25 26  0  0  0  0  0  0  0  0999 V2000
    5.0744    1.6788   16.9332 H   0  0  0  0  0  0  0  0  0  0  0  0
    5.4757    1.2103   17.8324 C   0  0  0  0  0  0  0  0  0  0  0  0
    6.6002    0.4952   17.6719 N   0  0  0  0  0  0  0  0  0  0  0  0
    7.1194   -0.0976   18.7557 C   0  0  0  0  0  0  0  0  0  0  0  0
    8.0577   -0.6381   18.6175 H   0  0  0  0  0  0  0  0  0  0  0  0
    6.5589   -0.0024   20.0470 C   0  0  0  0  0  0  0  0  0  0  0  0
    7.1830   -0.6184   21.1669 N   0  0  0  0  0  0  0  0  0  0  0  0
    7.4434   -0.0129   22.4273 C   0  0  0  0  0  0  0  0  0  0  0  0
    7.2085    1.1020   22.7819 O   0  0  0  0  0  0  0  0  0  0  0  0
    8.0318   -0.9728   23.1870 O   0  0  0  0  0  0  0  0  0  0  0  0
    8.4107   -2.1179   22.4200 C   0  0  0  0  0  0  0  0  0  0  0  0
    8.1961   -3.0115   23.0137 H   0  0  0  0  0  0  0  0  0  0  0  0
    9.4901   -2.0659   22.2156 H   0  0  0  0  0  0  0  0  0  0  0  0
    7.6335   -1.9955   21.1181 C   0  0  1  0  0  0  0  0  0  0  0  0
    8.2542   -2.1656   20.2422 H   0  0  0  0  0  0  0  0  0  0  0  0
    6.3743   -3.3197   20.8528 S   0  0  0  0  0  0  0  0  0  0  0  0
    5.8233   -3.2122   19.5145 O   0  0  0  0  0  0  0  0  0  0  0  0
    5.5538   -3.5878   22.0164 O   0  0  0  0  0  0  0  0  0  0  0  0
    7.3117   -4.6885   20.7928 N   0  0  0  0  0  0  0  0  0  0  0  0
    6.6549   -5.2580   21.3360 H   0  0  0  0  0  0  0  0  0  0  0  0
    7.1482   -4.8916   19.8116 H   0  0  0  0  0  0  0  0  0  0  0  0
    5.3862    0.7506   20.2002 C   0  0  0  0  0  0  0  0  0  0  0  0
    4.9405    0.8646   21.1875 H   0  0  0  0  0  0  0  0  0  0  0  0
    4.8366    1.3655   19.0681 C   0  0  0  0  0  0  0  0  0  0  0  0
    3.9386    1.9754   19.1289 H   0  0  0  0  0  0  0  0  0  0  0  0
  1  2  1  0
  2  3  2  0
  3  4  1  0
  4  5  1  0
  4  6  2  0
  6  7  1  0
  7  8  1  0
  8  9  2  0
  8 10  1  0
 10 11  1  0
 11 12  1  0
 11 13  1  0
 11 14  1  0
 14 15  1  6
 14 16  1  0
 16 17  2  0
 16 18  2  0
 16 19  1  0
 19 20  1  0
 19 21  1  0
  6 22  1  0
 22 23  1  0
 22 24  2  0
 24 25  1  0
 24  2  1  0
 14  7  1  0
M  END
>  <cnnaffinity>  (1) 
-4.64023

>  <filename>  (1) 
NS(=O)(=O)[C@@H]1COC(=O)N1c1cccnc1

$$$$
