
     RDKit          3D

 21 22  0  0  0  0  0  0  0  0999 V2000
    4.9277    1.7831   16.9978 H   0  0  0  0  0  0  0  0  0  0  0  0
    5.4046    1.2895   17.8430 C   0  0  0  0  0  0  0  0  0  0  0  0
    6.5664    0.6710   17.5835 N   0  0  0  0  0  0  0  0  0  0  0  0
    7.1879    0.0654   18.5990 C   0  0  0  0  0  0  0  0  0  0  0  0
    8.1256   -0.4366   18.3594 H   0  0  0  0  0  0  0  0  0  0  0  0
    6.6786    0.0223   19.9111 C   0  0  0  0  0  0  0  0  0  0  0  0
    7.3924   -0.6708   20.9426 N   0  0  0  0  0  0  0  0  0  0  0  0
    8.7412   -0.5000   21.2112 C   0  0  0  0  0  0  0  0  0  0  0  0
    9.3680    0.1730   20.6410 H   0  0  0  0  0  0  0  0  0  0  0  0
    9.0456   -1.3025   22.2524 C   0  0  0  0  0  0  0  0  0  0  0  0
   10.3338   -1.5124   22.8840 N   0  0  0  0  0  4  0  0  0  0  0  0
   10.4051   -2.3067   23.8095 O   0  0  0  0  0  0  0  0  0  0  0  0
   11.2699   -0.8716   22.4379 O   0  0  0  0  0  1  0  0  0  0  0  0
    7.8800   -1.9579   22.6154 N   0  0  0  0  0  0  0  0  0  0  0  0
    7.7419   -2.6708   23.3183 H   0  0  0  0  0  0  0  0  0  0  0  0
    6.8758   -1.6852   21.7446 C   0  0  0  0  0  0  0  0  0  0  0  0
    5.4725   -2.5672   21.6179 S   0  0  0  0  0  0  0  0  0  0  0  0
    5.4543    0.6463   20.1723 C   0  0  0  0  0  0  0  0  0  0  0  0
    5.0225    0.6126   21.1739 H   0  0  0  0  0  0  0  0  0  0  0  0
    4.8198    1.3047   19.1134 C   0  0  0  0  0  0  0  0  0  0  0  0
    3.8870    1.8323   19.2586 H   0  0  0  0  0  0  0  0  0  0  0  0
  1  2  1  0
  2  3  2  0
  3  4  1  0
  4  5  1  0
  4  6  2  0
  6  7  1  0
  7  8  1  0
  8  9  1  0
  8 10  2  0
 10 11  1  0
 11 12  2  0
 11 13  1  0
 10 14  1  0
 14 15  1  0
 14 16  1  0
 16 17  2  0
  6 18  1  0
 18 19  1  0
 18 20  2  0
 20 21  1  0
 20  2  1  0
 16  7  1  0
M  CHG  2  11   1  13  -1
M  END
>  <cnnaffinity>  (1) 
-4.64149

>  <filename>  (1) 
O=[N+]([O-])c1cn(-c2cccnc2)c(=S)[nH]1

$$$$
