
     RDKit          3D

 31 33  0  0  0  0  0  0  0  0999 V2000
    4.9782    1.7152   16.8034 H   0  0  0  0  0  0  0  0  0  0  0  0
    5.3772    1.3127   17.7313 C   0  0  0  0  0  0  0  0  0  0  0  0
    6.5913    0.7468   17.6419 N   0  0  0  0  0  0  0  0  0  0  0  0
    7.1328    0.2693   18.7666 C   0  0  0  0  0  0  0  0  0  0  0  0
    8.1246   -0.1735   18.6812 H   0  0  0  0  0  0  0  0  0  0  0  0
    6.4796    0.3151   20.0053 C   0  0  0  0  0  0  0  0  0  0  0  0
    7.4267   -0.1484   21.4574 S   0  0  0  0  0  4  0  0  0  0  0  0
    8.8374    0.2670   21.1241 O   0  0  0  0  0  0  0  0  0  0  0  0
    7.4094   -1.9716   21.1754 C   0  0  0  0  0  0  0  0  0  0  0  0
    8.0622   -2.0596   20.3021 H   0  0  0  0  0  0  0  0  0  0  0  0
    6.3964   -2.2763   20.8969 H   0  0  0  0  0  0  0  0  0  0  0  0
    7.9570   -2.7417   22.3470 C   0  0  0  0  0  0  0  0  0  0  0  0
    9.3255   -2.8063   22.5538 C   0  0  0  0  0  0  0  0  0  0  0  0
    9.9952   -2.2097   21.9339 H   0  0  0  0  0  0  0  0  0  0  0  0
    9.9318   -3.5910   23.4909 N   0  0  0  0  0  0  0  0  0  0  0  0
    9.1547   -4.3067   24.2753 C   0  0  0  0  0  0  0  0  0  0  0  0
    9.6312   -4.9719   24.9957 H   0  0  0  0  0  0  0  0  0  0  0  0
    7.7280   -4.2720   24.2439 C   0  0  0  0  0  0  0  0  0  0  0  0
    6.9321   -4.9917   25.1825 C   0  0  0  0  0  0  0  0  0  0  0  0
    7.4464   -5.6678   25.8623 H   0  0  0  0  0  0  0  0  0  0  0  0
    5.5702   -4.8071   25.2232 C   0  0  0  0  0  0  0  0  0  0  0  0
    4.9769   -5.3126   25.9838 H   0  0  0  0  0  0  0  0  0  0  0  0
    4.9398   -3.9628   24.2707 C   0  0  0  0  0  0  0  0  0  0  0  0
    3.8634   -3.8153   24.3124 H   0  0  0  0  0  0  0  0  0  0  0  0
    5.6826   -3.3412   23.2892 C   0  0  0  0  0  0  0  0  0  0  0  0
    5.2056   -2.7439   22.5213 H   0  0  0  0  0  0  0  0  0  0  0  0
    7.1051   -3.4431   23.2649 C   0  0  0  0  0  0  0  0  0  0  0  0
    5.1928    0.8543   20.0905 C   0  0  0  0  0  0  0  0  0  0  0  0
    4.6494    0.8805   21.0372 H   0  0  0  0  0  0  0  0  0  0  0  0
    4.6377    1.3748   18.9176 C   0  0  0  0  0  0  0  0  0  0  0  0
    3.6615    1.8494   18.9135 H   0  0  0  0  0  0  0  0  0  0  0  0
  1  2  1  0
  2  3  2  0
  3  4  1  0
  4  5  1  0
  4  6  2  0
  6  7  1  0
  7  8  2  0
  7  9  1  6
  9 10  1  0
  9 11  1  0
  9 12  1  0
 12 13  2  0
 13 14  1  0
 13 15  1  0
 15 16  2  0
 16 17  1  0
 16 18  1  0
 18 19  2  0
 19 20  1  0
 19 21  1  0
 21 22  1  0
 21 23  2  0
 23 24  1  0
 23 25  1  0
 25 26  1  0
 25 27  2  0
  6 28  1  0
 28 29  1  0
 28 30  2  0
 30 31  1  0
 30  2  1  0
 27 12  1  0
 27 18  1  0
M  END
>  <cnnaffinity>  (1) 
-5.01896

>  <filename>  (1) 
O=[S@](Cc1cncc2ccccc12)c1cccnc1

$$$$
