
     RDKit          3D

 36 38  0  0  0  0  0  0  0  0999 V2000
    4.9440    1.7713   17.0245 H   0  0  0  0  0  0  0  0  0  0  0  0
    5.4214    1.2712   17.8636 C   0  0  0  0  0  0  0  0  0  0  0  0
    6.5852    0.6545   17.6036 N   0  0  0  0  0  0  0  0  0  0  0  0
    7.1984    0.0341   18.6219 C   0  0  0  0  0  0  0  0  0  0  0  0
    8.1460   -0.4409   18.3732 H   0  0  0  0  0  0  0  0  0  0  0  0
    6.7000   -0.0322   19.9615 C   0  0  0  0  0  0  0  0  0  0  0  0
    7.3647   -0.6892   20.9719 N   0  0  0  0  0  0  0  0  0  0  0  0
    8.6227   -1.4194   21.0020 C   0  0  0  0  0  0  0  0  0  0  0  0
    9.5108   -0.8203   20.7657 H   0  0  0  0  0  0  0  0  0  0  0  0
    8.6593   -2.3125   20.3817 H   0  0  0  0  0  0  0  0  0  0  0  0
    8.3623   -1.7077   22.5006 C   0  0  0  0  0  0  0  0  0  0  0  0
    9.1112   -1.2620   23.1634 H   0  0  0  0  0  0  0  0  0  0  0  0
    8.2084   -3.1817   22.8648 C   0  0  0  0  0  0  0  0  0  0  0  0
    8.6433   -4.0504   22.1381 O   0  0  0  0  0  0  0  0  0  0  0  0
    7.5073   -3.5345   24.1645 C   0  0  0  0  0  0  0  0  0  0  0  0
    7.0768   -4.8618   24.3553 C   0  0  0  0  0  0  0  0  0  0  0  0
    7.2621   -5.6039   23.5851 H   0  0  0  0  0  0  0  0  0  0  0  0
    6.4119   -5.2305   25.5273 C   0  0  0  0  0  0  0  0  0  0  0  0
    6.0836   -6.2578   25.6618 H   0  0  0  0  0  0  0  0  0  0  0  0
    6.1732   -4.2911   26.5338 C   0  0  0  0  0  0  0  0  0  0  0  0
    5.6644   -4.5533   27.4583 H   0  0  0  0  0  0  0  0  0  0  0  0
    6.6097   -2.9811   26.3498 C   0  0  0  0  0  0  0  0  0  0  0  0
    6.3257   -2.1184   27.4070 O   0  0  0  0  0  0  0  0  0  0  0  0
    6.6643   -0.8135   27.3926 C   0  0  0  0  0  0  0  0  0  0  0  0
    7.9905   -0.6190   27.2996 F   0  0  0  0  0  0  0  0  0  0  0  0
    6.2390   -0.2900   28.5341 F   0  0  0  0  0  0  0  0  0  0  0  0
    6.1035   -0.1340   26.3764 F   0  0  0  0  0  0  0  0  0  0  0  0
    7.2784   -2.5903   25.1873 C   0  0  0  0  0  0  0  0  0  0  0  0
    7.6010   -1.5580   25.1131 H   0  0  0  0  0  0  0  0  0  0  0  0
    7.0509   -0.8820   22.3739 C   0  0  0  0  0  0  0  0  0  0  0  0
    7.0113    0.0385   22.9694 H   0  0  0  0  0  0  0  0  0  0  0  0
    6.1367   -1.4505   22.5742 H   0  0  0  0  0  0  0  0  0  0  0  0
    5.4690    0.6242   20.1939 C   0  0  0  0  0  0  0  0  0  0  0  0
    5.0258    0.6205   21.1887 H   0  0  0  0  0  0  0  0  0  0  0  0
    4.8367    1.2819   19.1335 C   0  0  0  0  0  0  0  0  0  0  0  0
    3.9038    1.8140   19.2823 H   0  0  0  0  0  0  0  0  0  0  0  0
  1  2  1  0
  2  3  2  0
  3  4  1  0
  4  5  1  0
  4  6  2  0
  6  7  1  0
  7  8  1  0
  8  9  1  0
  8 10  1  0
  8 11  1  0
 11 12  1  0
 11 13  1  0
 13 14  2  0
 13 15  1  0
 15 16  2  0
 16 17  1  0
 16 18  1  0
 18 19  1  0
 18 20  2  0
 20 21  1  0
 20 22  1  0
 22 23  1  0
 23 24  1  0
 24 25  1  0
 24 26  1  0
 24 27  1  0
 22 28  2  0
 28 29  1  0
 11 30  1  0
 30 31  1  0
 30 32  1  0
  6 33  1  0
 33 34  1  0
 33 35  2  0
 35 36  1  0
 35  2  1  0
 30  7  1  0
 28 15  1  0
M  END
>  <cnnaffinity>  (1) 
-5.43577

>  <filename>  (1) 
O=C(c1cccc(OC(F)(F)F)c1)C1CN(c2cccnc2)C1

$$$$
