
     RDKit          3D

 28 29  0  0  0  0  0  0  0  0999 V2000
    4.9131    1.7762   17.0018 H   0  0  0  0  0  0  0  0  0  0  0  0
    5.3998    1.2918   17.8451 C   0  0  0  0  0  0  0  0  0  0  0  0
    6.5656    0.6782   17.5795 N   0  0  0  0  0  0  0  0  0  0  0  0
    7.1791    0.0688   18.5936 C   0  0  0  0  0  0  0  0  0  0  0  0
    8.1246   -0.4265   18.3722 H   0  0  0  0  0  0  0  0  0  0  0  0
    6.6617    0.0141   19.9073 C   0  0  0  0  0  0  0  0  0  0  0  0
    7.3973   -0.6991   20.9826 C   0  0  0  0  0  0  0  0  0  0  0  0
    9.0208   -0.6436   21.0592 S   0  0  0  0  0  0  0  0  0  0  0  0
    6.5389   -1.5779   21.9191 C   0  0  0  0  0  0  0  0  0  0  0  0
    5.5440   -2.1306   21.4923 O   0  0  0  0  0  0  0  0  0  0  0  0
    7.0430   -1.7587   23.3960 C   0  0  0  0  0  0  0  0  0  0  0  0
    7.9312   -1.0574   23.8333 O   0  0  0  0  0  0  0  0  0  0  0  0
    6.4385   -2.7538   24.1330 N   0  0  0  0  0  0  0  0  0  0  0  0
    5.5411   -3.0976   23.8322 H   0  0  0  0  0  0  0  0  0  0  0  0
    6.9081   -3.2258   25.3672 C   0  0  0  0  0  0  0  0  0  0  0  0
    8.2750   -3.3173   25.6207 C   0  0  0  0  0  0  0  0  0  0  0  0
    9.0020   -3.0358   24.8736 H   0  0  0  0  0  0  0  0  0  0  0  0
    8.6817   -3.7986   26.8597 C   0  0  0  0  0  0  0  0  0  0  0  0
    9.7407   -3.8724   27.0817 H   0  0  0  0  0  0  0  0  0  0  0  0
    7.8427   -4.1878   27.8282 N   0  0  0  0  0  0  0  0  0  0  0  0
    6.5352   -4.1002   27.5592 C   0  0  0  0  0  0  0  0  0  0  0  0
    5.8649   -4.4180   28.3514 H   0  0  0  0  0  0  0  0  0  0  0  0
    6.0137   -3.6388   26.3515 C   0  0  0  0  0  0  0  0  0  0  0  0
    4.9428   -3.5942   26.2057 H   0  0  0  0  0  0  0  0  0  0  0  0
    5.4385    0.6498   20.1607 C   0  0  0  0  0  0  0  0  0  0  0  0
    4.9992    0.6291   21.1610 H   0  0  0  0  0  0  0  0  0  0  0  0
    4.8047    1.3130   19.1093 C   0  0  0  0  0  0  0  0  0  0  0  0
    3.8725    1.8457   19.2615 H   0  0  0  0  0  0  0  0  0  0  0  0
  1  2  1  0
  2  3  2  0
  3  4  1  0
  4  5  1  0
  4  6  2  0
  6  7  1  0
  7  8  2  0
  7  9  1  0
  9 10  2  0
  9 11  1  0
 11 12  2  0
 11 13  1  0
 13 14  1  0
 13 15  1  0
 15 16  2  0
 16 17  1  0
 16 18  1  0
 18 19  1  0
 18 20  2  0
 20 21  1  0
 21 22  1  0
 21 23  2  0
 23 24  1  0
  6 25  1  0
 25 26  1  0
 25 27  2  0
 27 28  1  0
 27  2  1  0
 23 15  1  0
M  END
>  <cnnaffinity>  (1) 
-4.70569

>  <filename>  (1) 
O=C(Nc1ccncc1)C(=O)C(=S)c1cccnc1

$$$$
