
     RDKit          3D

 26 27  0  0  0  0  0  0  0  0999 V2000
    4.9671    1.7698   17.0083 H   0  0  0  0  0  0  0  0  0  0  0  0
    5.4157    1.2828   17.8726 C   0  0  0  0  0  0  0  0  0  0  0  0
    6.5791    0.6593   17.6403 N   0  0  0  0  0  0  0  0  0  0  0  0
    7.1730    0.0627   18.6739 C   0  0  0  0  0  0  0  0  0  0  0  0
    8.1054   -0.4495   18.4498 H   0  0  0  0  0  0  0  0  0  0  0  0
    6.6562    0.0505   19.9792 C   0  0  0  0  0  0  0  0  0  0  0  0
    7.4466   -0.7446   20.9612 C   0  0  0  0  0  0  0  0  0  0  0  0
    8.2003   -1.6181   20.6070 O   0  0  0  0  0  0  0  0  0  0  0  0
    7.2651   -0.3793   22.2876 N   0  0  0  0  0  0  0  0  0  0  0  0
    6.9099    0.5403   22.4812 H   0  0  0  0  0  0  0  0  0  0  0  0
    7.6563   -1.1691   23.3653 C   0  0  0  0  0  0  0  0  0  0  0  0
    8.0199   -2.3127   23.2178 O   0  0  0  0  0  0  0  0  0  0  0  0
    7.5904   -0.5409   24.7968 C   0  0  0  0  0  0  0  0  0  0  0  0
    7.1686    0.7269   24.9995 N   0  0  0  0  0  0  0  0  0  0  0  0
    7.1375    1.2016   26.2538 C   0  0  0  0  0  0  0  0  0  0  0  0
    6.7980    2.2233   26.4093 H   0  0  0  0  0  0  0  0  0  0  0  0
    7.5262    0.4352   27.3575 C   0  0  0  0  0  0  0  0  0  0  0  0
    7.4674    0.9561   28.5909 F   0  0  0  0  0  0  0  0  0  0  0  0
    7.9756   -0.8667   27.1732 C   0  0  0  0  0  0  0  0  0  0  0  0
    8.3144   -1.4715   28.0071 H   0  0  0  0  0  0  0  0  0  0  0  0
    7.9984   -1.3606   25.8706 C   0  0  0  0  0  0  0  0  0  0  0  0
    8.3273   -2.3700   25.6571 H   0  0  0  0  0  0  0  0  0  0  0  0
    5.4244    0.6854   20.2069 C   0  0  0  0  0  0  0  0  0  0  0  0
    4.9219    0.6648   21.1772 H   0  0  0  0  0  0  0  0  0  0  0  0
    4.8011    1.3172   19.1291 C   0  0  0  0  0  0  0  0  0  0  0  0
    3.8589    1.8415   19.2396 H   0  0  0  0  0  0  0  0  0  0  0  0
  1  2  1  0
  2  3  2  0
  3  4  1  0
  4  5  1  0
  4  6  2  0
  6  7  1  0
  7  8  2  0
  7  9  1  0
  9 10  1  0
  9 11  1  0
 11 12  2  0
 11 13  1  0
 13 14  2  0
 14 15  1  0
 15 16  1  0
 15 17  2  0
 17 18  1  0
 17 19  1  0
 19 20  1  0
 19 21  2  0
 21 22  1  0
  6 23  1  0
 23 24  1  0
 23 25  2  0
 25 26  1  0
 25  2  1  0
 21 13  1  0
M  END
>  <cnnaffinity>  (1) 
-4.47968

>  <filename>  (1) 
O=C(NC(=O)c1ccc(F)cn1)c1cccnc1

$$$$
