
     RDKit          3D

 37 39  0  0  0  0  0  0  0  0999 V2000
    4.9668    1.8167   16.9905 H   0  0  0  0  0  0  0  0  0  0  0  0
    5.4213    1.2996   17.8324 C   0  0  0  0  0  0  0  0  0  0  0  0
    6.5737    0.6600   17.5849 N   0  0  0  0  0  0  0  0  0  0  0  0
    7.1520    0.0152   18.6077 C   0  0  0  0  0  0  0  0  0  0  0  0
    8.0918   -0.4751   18.3552 H   0  0  0  0  0  0  0  0  0  0  0  0
    6.6217   -0.0536   19.9121 C   0  0  0  0  0  0  0  0  0  0  0  0
    7.3426   -0.7821   21.0128 C   0  0  0  0  0  0  0  0  0  0  0  0
    6.5629   -1.3844   21.9801 N   0  0  0  0  0  0  0  0  0  0  0  0
    7.1596   -2.0221   22.9792 C   0  0  0  0  0  0  0  0  0  0  0  0
    6.4224   -2.5628   24.1756 C   0  0  0  0  0  0  0  0  0  0  0  0
    5.6090   -1.9037   24.7973 O   0  0  0  0  0  0  0  0  0  0  0  0
    6.7514   -3.8436   24.5504 N   0  0  0  0  0  0  0  0  0  0  0  0
    7.7187   -4.1084   24.4166 H   0  0  0  0  0  0  0  0  0  0  0  0
    5.9747   -4.4588   25.6320 C   0  0  0  0  0  0  0  0  0  0  0  0
    6.5979   -5.1981   26.1435 H   0  0  0  0  0  0  0  0  0  0  0  0
    5.7268   -3.7000   26.3865 H   0  0  0  0  0  0  0  0  0  0  0  0
    4.7060   -5.1251   25.1090 C   0  0  0  0  0  0  0  0  0  0  0  0
    3.4326   -4.5587   25.2952 C   0  0  0  0  0  0  0  0  0  0  0  0
    3.3342   -3.6171   25.8323 H   0  0  0  0  0  0  0  0  0  0  0  0
    2.2929   -5.1730   24.7623 C   0  0  0  0  0  0  0  0  0  0  0  0
    1.3136   -4.7302   24.9221 H   0  0  0  0  0  0  0  0  0  0  0  0
    2.4094   -6.3582   24.0331 C   0  0  0  0  0  0  0  0  0  0  0  0
    1.5241   -6.8317   23.6156 H   0  0  0  0  0  0  0  0  0  0  0  0
    3.6708   -6.9279   23.8344 C   0  0  0  0  0  0  0  0  0  0  0  0
    3.7689   -7.8449   23.2605 H   0  0  0  0  0  0  0  0  0  0  0  0
    4.8058   -6.3122   24.3669 C   0  0  0  0  0  0  0  0  0  0  0  0
    5.7867   -6.7354   24.1754 H   0  0  0  0  0  0  0  0  0  0  0  0
    8.6122   -2.1601   23.1197 C   0  0  0  0  0  0  0  0  0  0  0  0
    9.2439   -2.8061   23.9518 O   0  0  0  0  0  0  0  0  0  0  0  0
    9.3206   -1.4586   22.1613 N   0  0  0  0  0  0  0  0  0  0  0  0
   10.3160   -1.5456   22.3373 H   0  0  0  0  0  0  0  0  0  0  0  0
    8.7131   -0.7967   21.1028 C   0  0  0  0  0  0  0  0  0  0  0  0
    9.3554   -0.2868   20.3940 H   0  0  0  0  0  0  0  0  0  0  0  0
    5.4099    0.6258   20.1413 C   0  0  0  0  0  0  0  0  0  0  0  0
    4.9690    0.6220   21.1390 H   0  0  0  0  0  0  0  0  0  0  0  0
    4.8050    1.3136   19.0865 C   0  0  0  0  0  0  0  0  0  0  0  0
    3.8758    1.8569   19.2233 H   0  0  0  0  0  0  0  0  0  0  0  0
  1  2  1  0
  2  3  2  0
  3  4  1  0
  4  5  1  0
  4  6  2  0
  6  7  1  0
  7  8  1  0
  8  9  2  0
  9 10  1  0
 10 11  2  0
 10 12  1  0
 12 13  1  0
 12 14  1  0
 14 15  1  0
 14 16  1  0
 14 17  1  0
 17 18  2  0
 18 19  1  0
 18 20  1  0
 20 21  1  0
 20 22  2  0
 22 23  1  0
 22 24  1  0
 24 25  1  0
 24 26  2  0
 26 27  1  0
  9 28  1  0
 28 29  2  0
 28 30  1  0
 30 31  1  0
 30 32  1  0
 32 33  1  0
  6 34  1  0
 34 35  1  0
 34 36  2  0
 36 37  1  0
 36  2  1  0
 32  7  2  0
 26 17  1  0
M  END
>  <cnnaffinity>  (1) 
-5.19809

>  <filename>  (1) 
O=C(NCc1ccccc1)c1nc(-c2cccnc2)c[nH]c1=O

$$$$
