
     RDKit          3D

 30 32  0  0  0  0  0  0  0  0999 V2000
    4.9780    1.7219   17.0456 H   0  0  0  0  0  0  0  0  0  0  0  0
    5.4727    1.2286   17.8780 C   0  0  0  0  0  0  0  0  0  0  0  0
    6.6436    0.6313   17.5995 N   0  0  0  0  0  0  0  0  0  0  0  0
    7.2893    0.0364   18.6093 C   0  0  0  0  0  0  0  0  0  0  0  0
    8.2329   -0.4576   18.3884 H   0  0  0  0  0  0  0  0  0  0  0  0
    6.7912    0.0153   19.9179 C   0  0  0  0  0  0  0  0  0  0  0  0
    7.6033   -0.5368   20.9204 O   0  0  0  0  0  0  0  0  0  0  0  0
    7.0810   -1.4440   21.7527 C   0  0  0  0  0  0  0  0  0  0  0  0
    5.9766   -2.1193   21.6222 N   0  0  0  0  0  0  0  0  0  0  0  0
    5.9450   -2.9507   22.7030 N   0  0  0  0  0  0  0  0  0  0  0  0
    6.9647   -2.8117   23.4430 N   0  0  0  0  0  0  0  0  0  0  0  0
    7.7352   -1.8258   22.8693 N   0  0  0  0  0  0  0  0  0  0  0  0
    9.0421   -1.5266   23.3819 C   0  0  0  0  0  0  0  0  0  0  0  0
    9.5372   -2.2318   24.2217 O   0  0  0  0  0  0  0  0  0  0  0  0
    9.6079   -0.3846   22.8739 N   0  0  0  0  0  0  0  0  0  0  0  0
    9.2811   -0.0730   21.9808 H   0  0  0  0  0  0  0  0  0  0  0  0
   10.9328   -0.0333   23.1797 C   0  0  0  0  0  0  0  0  0  0  0  0
   11.8126    0.2698   22.1426 C   0  0  0  0  0  0  0  0  0  0  0  0
   11.4956    0.2898   21.1054 H   0  0  0  0  0  0  0  0  0  0  0  0
   13.1327    0.5496   22.4853 C   0  0  0  0  0  0  0  0  0  0  0  0
   13.8711    0.7647   21.7204 H   0  0  0  0  0  0  0  0  0  0  0  0
   13.5877    0.5984   23.7401 N   0  0  0  0  0  0  0  0  0  0  0  0
   12.7060    0.3646   24.7217 C   0  0  0  0  0  0  0  0  0  0  0  0
   13.1053    0.4193   25.7304 H   0  0  0  0  0  0  0  0  0  0  0  0
   11.3740    0.0206   24.5029 C   0  0  0  0  0  0  0  0  0  0  0  0
   10.7179   -0.2532   25.3202 H   0  0  0  0  0  0  0  0  0  0  0  0
    5.5554    0.5931   20.2088 C   0  0  0  0  0  0  0  0  0  0  0  0
    5.1330    0.5152   21.2142 H   0  0  0  0  0  0  0  0  0  0  0  0
    4.8942    1.2325   19.1538 C   0  0  0  0  0  0  0  0  0  0  0  0
    3.9384    1.7209   19.3108 H   0  0  0  0  0  0  0  0  0  0  0  0
  1  2  1  0
  2  3  2  0
  3  4  1  0
  4  5  1  0
  4  6  2  0
  6  7  1  0
  7  8  1  0
  8  9  2  0
  9 10  1  0
 10 11  2  0
 11 12  1  0
 12 13  1  0
 13 14  2  0
 13 15  1  0
 15 16  1  0
 15 17  1  0
 17 18  2  0
 18 19  1  0
 18 20  1  0
 20 21  1  0
 20 22  2  0
 22 23  1  0
 23 24  1  0
 23 25  2  0
 25 26  1  0
  6 27  1  0
 27 28  1  0
 27 29  2  0
 29 30  1  0
 29  2  1  0
 12  8  1  0
 25 17  1  0
M  END
>  <cnnaffinity>  (1) 
-5.58057

>  <filename>  (1) 
O=C(Nc1ccncc1)n1nnnc1Oc1cccnc1

$$$$
