
     RDKit          3D

 33 35  0  0  0  0  0  0  0  0999 V2000
    5.0850    1.7272   17.0568 H   0  0  0  0  0  0  0  0  0  0  0  0
    5.5280    1.2162   17.9074 C   0  0  0  0  0  0  0  0  0  0  0  0
    6.6859    0.5742   17.6719 N   0  0  0  0  0  0  0  0  0  0  0  0
    7.2651   -0.0570   18.7012 C   0  0  0  0  0  0  0  0  0  0  0  0
    8.1995   -0.5815   18.4909 H   0  0  0  0  0  0  0  0  0  0  0  0
    6.7349   -0.0854   20.0250 C   0  0  0  0  0  0  0  0  0  0  0  0
    7.3652   -0.7125   21.0671 N   0  0  0  0  0  0  0  0  0  0  0  0
    6.9140   -0.9548   22.4208 C   0  0  0  0  0  0  0  0  0  0  0  0
    6.8029   -0.0431   23.0270 H   0  0  0  0  0  0  0  0  0  0  0  0
    5.9968   -1.5538   22.4962 H   0  0  0  0  0  0  0  0  0  0  0  0
    8.2371   -1.7398   22.6396 C   0  0  0  0  0  0  0  0  0  0  0  0
    8.8542   -1.3109   23.4327 H   0  0  0  0  0  0  0  0  0  0  0  0
    8.0676   -3.2343   22.8195 C   0  0  0  0  0  0  0  0  0  0  0  0
    8.4942   -4.0449   22.0348 O   0  0  0  0  0  0  0  0  0  0  0  0
    7.3552   -3.5772   23.9494 N   0  0  0  0  0  0  0  0  0  0  0  0
    7.0081   -2.8498   24.5533 H   0  0  0  0  0  0  0  0  0  0  0  0
    7.0403   -4.8888   24.2811 C   0  0  0  0  0  0  0  0  0  0  0  0
    7.3507   -5.8455   23.6082 O   0  0  0  0  0  0  0  0  0  0  0  0
    6.2647   -5.0582   25.5549 C   0  0  0  0  0  0  0  0  0  0  0  0
    5.8834   -3.9700   26.3105 O   0  0  0  0  0  0  0  0  0  0  0  0
    5.1884   -4.4456   27.3696 C   0  0  0  0  0  0  0  0  0  0  0  0
    4.8111   -3.7074   28.0652 H   0  0  0  0  0  0  0  0  0  0  0  0
    5.1109   -5.7977   27.3175 C   0  0  0  0  0  0  0  0  0  0  0  0
    4.6079   -6.4331   28.0320 H   0  0  0  0  0  0  0  0  0  0  0  0
    5.8115   -6.2011   26.1442 C   0  0  0  0  0  0  0  0  0  0  0  0
    5.9744   -7.2041   25.7692 H   0  0  0  0  0  0  0  0  0  0  0  0
    8.6492   -1.3782   21.1887 C   0  0  0  0  0  0  0  0  0  0  0  0
    8.7603   -2.2509   20.5327 H   0  0  0  0  0  0  0  0  0  0  0  0
    9.5298   -0.7309   21.0728 H   0  0  0  0  0  0  0  0  0  0  0  0
    5.5055    0.5758   20.2352 C   0  0  0  0  0  0  0  0  0  0  0  0
    5.0584    0.5735   21.2296 H   0  0  0  0  0  0  0  0  0  0  0  0
    4.9043    1.2338   19.1611 C   0  0  0  0  0  0  0  0  0  0  0  0
    3.9687    1.7701   19.2858 H   0  0  0  0  0  0  0  0  0  0  0  0
  1  2  1  0
  2  3  2  0
  3  4  1  0
  4  5  1  0
  4  6  2  0
  6  7  1  0
  7  8  1  0
  8  9  1  0
  8 10  1  0
  8 11  1  0
 11 12  1  0
 11 13  1  0
 13 14  2  0
 13 15  1  0
 15 16  1  0
 15 17  1  0
 17 18  2  0
 17 19  1  0
 19 20  1  0
 20 21  1  0
 21 22  1  0
 21 23  2  0
 23 24  1  0
 23 25  1  0
 25 26  1  0
 11 27  1  0
 27 28  1  0
 27 29  1  0
  6 30  1  0
 30 31  1  0
 30 32  2  0
 32 33  1  0
 32  2  1  0
 27  7  1  0
 25 19  2  0
M  END
>  <cnnaffinity>  (1) 
-4.88827

>  <filename>  (1) 
O=C(NC(=O)C1CN(c2cccnc2)C1)c1ccco1

$$$$
