
     RDKit          3D

 16 16  0  0  0  0  0  0  0  0999 V2000
    7.2577   -1.7412   23.6579 H   0  0  0  0  0  0  0  0  0  0  0  0
    7.7530   -0.9594   23.3474 O   0  0  0  0  0  0  0  0  0  0  0  0
    7.0566   -0.4540   22.2497 N   0  0  0  0  0  0  0  0  0  0  0  0
    6.9000    0.5432   22.3407 H   0  0  0  0  0  0  0  0  0  0  0  0
    7.4206   -0.7730   20.9455 C   0  0  0  0  0  0  0  0  0  0  0  0
    8.1979   -1.6365   20.5988 O   0  0  0  0  0  0  0  0  0  0  0  0
    6.6577    0.0514   19.9567 C   0  0  0  0  0  0  0  0  0  0  0  0
    7.1791    0.0663   18.6569 C   0  0  0  0  0  0  0  0  0  0  0  0
    8.1116   -0.4547   18.4441 H   0  0  0  0  0  0  0  0  0  0  0  0
    6.5812    0.6699   17.6263 N   0  0  0  0  0  0  0  0  0  0  0  0
    5.4162    1.2914   17.8589 C   0  0  0  0  0  0  0  0  0  0  0  0
    4.9568    1.7765   16.9990 H   0  0  0  0  0  0  0  0  0  0  0  0
    4.8037    1.3296   19.1143 C   0  0  0  0  0  0  0  0  0  0  0  0
    3.8551    1.8453   19.2282 H   0  0  0  0  0  0  0  0  0  0  0  0
    5.4312    0.6972   20.1838 C   0  0  0  0  0  0  0  0  0  0  0  0
    4.9280    0.6769   21.1497 H   0  0  0  0  0  0  0  0  0  0  0  0
  1  2  1  0
  2  3  1  0
  3  4  1  0
  3  5  1  0
  5  6  2  0
  5  7  1  0
  7  8  2  0
  8  9  1  0
  8 10  1  0
 10 11  2  0
 11 12  1  0
 11 13  1  0
 13 14  1  0
 13 15  2  0
 15 16  1  0
 15  7  1  0
M  END
>  <cnnaffinity>  (1) 
-3.59229

>  <filename>  (1) 
O=C(NO)c1cccnc1

$$$$
