
     RDKit          3D

 34 36  0  0  0  0  0  0  0  0999 V2000
    5.0150    1.7153   17.0102 H   0  0  0  0  0  0  0  0  0  0  0  0
    5.4571    1.2572   17.8948 C   0  0  0  0  0  0  0  0  0  0  0  0
    6.6289    0.6285   17.7203 N   0  0  0  0  0  0  0  0  0  0  0  0
    7.2108    0.0817   18.7833 C   0  0  0  0  0  0  0  0  0  0  0  0
    8.1653   -0.4204   18.6148 H   0  0  0  0  0  0  0  0  0  0  0  0
    6.6303    0.1361   20.0401 C   0  0  0  0  0  0  0  0  0  0  0  0
    7.5516   -0.7421   21.2050 S   0  0  0  0  0  0  0  0  0  0  0  0
    8.9471   -0.5883   20.8671 O   0  0  0  0  0  0  0  0  0  0  0  0
    6.9366   -2.0293   21.4723 O   0  0  0  0  0  0  0  0  0  0  0  0
    7.1990    0.0257   22.5931 N   0  0  0  0  0  0  0  0  0  0  0  0
    6.7030   -0.5976   23.1996 H   0  0  0  0  0  0  0  0  0  0  0  0
    7.5143    1.3545   22.7301 C   0  0  0  0  0  0  0  0  0  0  0  0
    8.0040    1.9391   21.7918 O   0  0  0  0  0  0  0  0  0  0  0  0
    7.1467    1.9874   24.0468 C   0  0  0  0  0  0  0  0  0  0  0  0
    7.5236    1.4231   25.2582 C   0  0  0  0  0  0  0  0  0  0  0  0
    8.0463    0.4683   25.2937 H   0  0  0  0  0  0  0  0  0  0  0  0
    7.2340    2.0686   26.4870 C   0  0  0  0  0  0  0  0  0  0  0  0
    7.5540    1.6006   27.4130 H   0  0  0  0  0  0  0  0  0  0  0  0
    6.5632    3.2671   26.5084 C   0  0  0  0  0  0  0  0  0  0  0  0
    6.3593    3.7753   27.4475 H   0  0  0  0  0  0  0  0  0  0  0  0
    6.1465    3.8847   25.2956 C   0  0  0  0  0  0  0  0  0  0  0  0
    5.4572    5.1341   25.3110 C   0  0  0  0  0  0  0  0  0  0  0  0
    5.2802    5.6177   26.2717 H   0  0  0  0  0  0  0  0  0  0  0  0
    5.0430    5.7185   24.1398 C   0  0  0  0  0  0  0  0  0  0  0  0
    4.5263    6.6755   24.1583 H   0  0  0  0  0  0  0  0  0  0  0  0
    5.2991    5.0837   22.8935 C   0  0  0  0  0  0  0  0  0  0  0  0
    4.9709    5.5630   21.9728 H   0  0  0  0  0  0  0  0  0  0  0  0
    5.9785    3.8857   22.8423 C   0  0  0  0  0  0  0  0  0  0  0  0
    6.2070    3.4195   21.8865 H   0  0  0  0  0  0  0  0  0  0  0  0
    6.4326    3.2464   24.0410 C   0  0  0  0  0  0  0  0  0  0  0  0
    5.3797    0.7282   20.2406 C   0  0  0  0  0  0  0  0  0  0  0  0
    4.8720    0.7357   21.2095 H   0  0  0  0  0  0  0  0  0  0  0  0
    4.7981    1.3192   19.1260 C   0  0  0  0  0  0  0  0  0  0  0  0
    3.8514    1.8344   19.2041 H   0  0  0  0  0  0  0  0  0  0  0  0
  1  2  1  0
  2  3  2  0
  3  4  1  0
  4  5  1  0
  4  6  2  0
  6  7  1  0
  7  8  2  0
  7  9  2  0
  7 10  1  0
 10 11  1  0
 10 12  1  0
 12 13  2  0
 12 14  1  0
 14 15  2  0
 15 16  1  0
 15 17  1  0
 17 18  1  0
 17 19  2  0
 19 20  1  0
 19 21  1  0
 21 22  2  0
 22 23  1  0
 22 24  1  0
 24 25  1  0
 24 26  2  0
 26 27  1  0
 26 28  1  0
 28 29  1  0
 28 30  2  0
  6 31  1  0
 31 32  1  0
 31 33  2  0
 33 34  1  0
 33  2  1  0
 30 14  1  0
 30 21  1  0
M  END
>  <cnnaffinity>  (1) 
-4.96812

>  <filename>  (1) 
O=C(NS(=O)(=O)c1cccnc1)c1cccc2ccccc12

$$$$
