
     RDKit          3D

 45 47  0  0  0  0  0  0  0  0999 V2000
    4.9821    1.8313   16.8355 H   0  0  0  0  0  0  0  0  0  0  0  0
    5.4152    1.3204   17.6916 C   0  0  0  0  0  0  0  0  0  0  0  0
    6.6129    0.7414   17.5014 N   0  0  0  0  0  0  0  0  0  0  0  0
    7.1898    0.1502   18.5584 C   0  0  0  0  0  0  0  0  0  0  0  0
    8.1690   -0.2939   18.3819 H   0  0  0  0  0  0  0  0  0  0  0  0
    6.6149    0.0692   19.8573 C   0  0  0  0  0  0  0  0  0  0  0  0
    7.2812   -0.5160   20.9479 N   0  0  0  0  0  0  0  0  0  0  0  0
    8.6969   -0.2469   21.1821 C   0  0  0  0  0  0  0  0  0  0  0  0
    8.9990    0.6604   20.6436 H   0  0  0  0  0  0  0  0  0  0  0  0
    8.8665   -0.0400   22.2476 H   0  0  0  0  0  0  0  0  0  0  0  0
    9.6108   -1.4012   20.7325 C   0  0  0  0  0  0  0  0  0  0  0  0
    9.3187   -1.6829   19.7139 H   0  0  0  0  0  0  0  0  0  0  0  0
   10.6444   -1.0461   20.6847 H   0  0  0  0  0  0  0  0  0  0  0  0
    9.5621   -2.6139   21.5669 N   0  0  0  0  0  0  0  0  0  0  0  0
   10.3134   -2.5516   22.7548 C   0  0  0  0  0  0  0  0  0  0  0  0
   10.8925   -1.5500   23.1472 O   0  0  0  0  0  0  0  0  0  0  0  0
   10.3125   -3.7309   23.4358 N   0  0  0  0  0  0  0  0  0  0  0  0
    9.9558   -4.5082   22.9094 H   0  0  0  0  0  0  0  0  0  0  0  0
   10.4083   -3.7610   24.8818 C   0  0  0  0  0  0  0  0  0  0  0  0
   11.3246   -3.2277   25.1238 H   0  0  0  0  0  0  0  0  0  0  0  0
   10.5454   -4.7937   25.2103 H   0  0  0  0  0  0  0  0  0  0  0  0
    9.2174   -3.1375   25.6019 C   0  0  0  0  0  0  0  0  0  0  0  0
    8.1934   -3.9457   26.1238 C   0  0  0  0  0  0  0  0  0  0  0  0
    8.2257   -5.0234   25.9687 H   0  0  0  0  0  0  0  0  0  0  0  0
    7.1406   -3.3826   26.8533 C   0  0  0  0  0  0  0  0  0  0  0  0
    6.3882   -4.0237   27.3041 H   0  0  0  0  0  0  0  0  0  0  0  0
    7.0574   -1.9967   27.0106 C   0  0  0  0  0  0  0  0  0  0  0  0
    6.2355   -1.5586   27.5724 H   0  0  0  0  0  0  0  0  0  0  0  0
    8.0387   -1.1751   26.4472 C   0  0  0  0  0  0  0  0  0  0  0  0
    7.9426   -0.0956   26.5435 H   0  0  0  0  0  0  0  0  0  0  0  0
    9.1196   -1.7394   25.7582 C   0  0  0  0  0  0  0  0  0  0  0  0
    9.8833   -1.0978   25.3230 H   0  0  0  0  0  0  0  0  0  0  0  0
    8.2099   -3.2180   21.6499 C   0  0  0  0  0  0  0  0  0  0  0  0
    8.2826   -4.2751   21.9340 H   0  0  0  0  0  0  0  0  0  0  0  0
    7.7731   -3.2251   20.6515 H   0  0  0  0  0  0  0  0  0  0  0  0
    7.2943   -2.4431   22.6013 C   0  0  0  0  0  0  0  0  0  0  0  0
    6.5563   -3.1186   23.0469 H   0  0  0  0  0  0  0  0  0  0  0  0
    7.8977   -2.0645   23.4337 H   0  0  0  0  0  0  0  0  0  0  0  0
    6.5349   -1.2655   21.9584 C   0  0  0  0  0  0  0  0  0  0  0  0
    6.1955   -0.6024   22.7723 H   0  0  0  0  0  0  0  0  0  0  0  0
    5.6278   -1.6599   21.4810 H   0  0  0  0  0  0  0  0  0  0  0  0
    5.3327    0.6356   20.0035 C   0  0  0  0  0  0  0  0  0  0  0  0
    4.8406    0.5805   20.9735 H   0  0  0  0  0  0  0  0  0  0  0  0
    4.7424    1.2858   18.9176 C   0  0  0  0  0  0  0  0  0  0  0  0
    3.7796    1.7778   19.0160 H   0  0  0  0  0  0  0  0  0  0  0  0
  1  2  1  0
  2  3  2  0
  3  4  1  0
  4  5  1  0
  4  6  2  0
  6  7  1  0
  7  8  1  0
  8  9  1  0
  8 10  1  0
  8 11  1  0
 11 12  1  0
 11 13  1  0
 11 14  1  0
 14 15  1  0
 15 16  2  0
 15 17  1  0
 17 18  1  0
 17 19  1  0
 19 20  1  0
 19 21  1  0
 19 22  1  0
 22 23  2  0
 23 24  1  0
 23 25  1  0
 25 26  1  0
 25 27  2  0
 27 28  1  0
 27 29  1  0
 29 30  1  0
 29 31  2  0
 31 32  1  0
 14 33  1  0
 33 34  1  0
 33 35  1  0
 33 36  1  0
 36 37  1  0
 36 38  1  0
 36 39  1  0
 39 40  1  0
 39 41  1  0
  6 42  1  0
 42 43  1  0
 42 44  2  0
 44 45  1  0
 44  2  1  0
 39  7  1  0
 31 22  1  0
M  END
>  <cnnaffinity>  (1) 
-5.4655

>  <filename>  (1) 
O=C(NCc1ccccc1)N1CCCN(c2cccnc2)CC1

$$$$
