
     RDKit          3D

 40 42  0  0  0  0  0  0  0  0999 V2000
    4.9604    1.8212   16.9928 H   0  0  0  0  0  0  0  0  0  0  0  0
    5.3919    1.2865   17.8369 C   0  0  0  0  0  0  0  0  0  0  0  0
    6.5423    0.6406   17.5974 N   0  0  0  0  0  0  0  0  0  0  0  0
    7.1196    0.0125   18.6238 C   0  0  0  0  0  0  0  0  0  0  0  0
    8.0891   -0.4427   18.4269 H   0  0  0  0  0  0  0  0  0  0  0  0
    6.5697   -0.0576   19.9228 C   0  0  0  0  0  0  0  0  0  0  0  0
    7.2927   -0.7937   21.0215 C   0  0  0  0  0  0  0  0  0  0  0  0
    6.5935   -1.5501   21.8402 N   0  0  0  0  0  0  0  0  0  0  0  0
    7.2543   -2.2635   22.7616 N   0  0  0  0  0  0  0  0  0  0  0  0
    6.4303   -2.9441   23.6093 N   0  0  0  0  0  0  0  0  0  0  0  0
    5.5041   -2.5400   23.5831 H   0  0  0  0  0  0  0  0  0  0  0  0
    6.7306   -4.2448   24.0614 C   0  0  0  0  0  0  0  0  0  0  0  0
    7.7133   -4.8178   23.6254 O   0  0  0  0  0  0  0  0  0  0  0  0
    5.8137   -4.8738   25.1062 C   0  0  0  0  0  0  0  0  0  0  0  0
    5.1119   -4.0998   25.4444 H   0  0  0  0  0  0  0  0  0  0  0  0
    6.6464   -5.3725   26.3263 C   0  0  0  0  0  0  0  0  0  0  0  0
    7.3775   -6.1114   25.9637 H   0  0  0  0  0  0  0  0  0  0  0  0
    7.2224   -4.5583   26.7831 H   0  0  0  0  0  0  0  0  0  0  0  0
    5.7695   -6.0625   27.3797 C   0  0  0  0  0  0  0  0  0  0  0  0
    6.3907   -6.4542   28.1971 H   0  0  0  0  0  0  0  0  0  0  0  0
    5.0803   -5.3502   27.8484 H   0  0  0  0  0  0  0  0  0  0  0  0
    5.0192   -7.2213   26.7177 C   0  0  0  0  0  0  0  0  0  0  0  0
    4.4388   -7.8200   27.4314 H   0  0  0  0  0  0  0  0  0  0  0  0
    5.8217   -7.8584   26.3410 H   0  0  0  0  0  0  0  0  0  0  0  0
    4.1656   -6.7838   25.5202 C   0  0  0  0  0  0  0  0  0  0  0  0
    3.6866   -7.6595   25.0619 H   0  0  0  0  0  0  0  0  0  0  0  0
    3.3526   -6.1318   25.8698 H   0  0  0  0  0  0  0  0  0  0  0  0
    5.0110   -6.0446   24.4721 C   0  0  0  0  0  0  0  0  0  0  0  0
    4.3677   -5.6701   23.6654 H   0  0  0  0  0  0  0  0  0  0  0  0
    5.7098   -6.7514   24.0005 H   0  0  0  0  0  0  0  0  0  0  0  0
    8.5791   -2.1147   23.0734 C   0  0  0  0  0  0  0  0  0  0  0  0
    8.8566   -2.6859   23.9555 H   0  0  0  0  0  0  0  0  0  0  0  0
    9.3613   -1.3412   22.3214 C   0  0  0  0  0  0  0  0  0  0  0  0
   10.4189   -1.1996   22.4962 H   0  0  0  0  0  0  0  0  0  0  0  0
    8.7760   -0.6092   21.2136 C   0  0  0  0  0  0  0  0  0  0  0  0
    9.4736    0.1217   20.5084 O   0  0  0  0  0  0  0  0  0  0  0  0
    5.3582    0.6198   20.1472 C   0  0  0  0  0  0  0  0  0  0  0  0
    4.9135    0.6280   21.1424 H   0  0  0  0  0  0  0  0  0  0  0  0
    4.7652    1.3089   19.0867 C   0  0  0  0  0  0  0  0  0  0  0  0
    3.8566    1.8905   19.2173 H   0  0  0  0  0  0  0  0  0  0  0  0
  1  2  1  0
  2  3  2  0
  3  4  1  0
  4  5  1  0
  4  6  2  0
  6  7  1  0
  7  8  2  0
  8  9  1  0
  9 10  1  0
 10 11  1  0
 10 12  1  0
 12 13  2  0
 12 14  1  0
 14 15  1  0
 14 16  1  0
 16 17  1  0
 16 18  1  0
 16 19  1  0
 19 20  1  0
 19 21  1  0
 19 22  1  0
 22 23  1  0
 22 24  1  0
 22 25  1  0
 25 26  1  0
 25 27  1  0
 25 28  1  0
 28 29  1  0
 28 30  1  0
  9 31  1  0
 31 32  1  0
 31 33  2  0
 33 34  1  0
 33 35  1  0
 35 36  2  0
  6 37  1  0
 37 38  1  0
 37 39  2  0
 39 40  1  0
 39  2  1  0
 35  7  1  0
 28 14  1  0
M  END
>  <cnnaffinity>  (1) 
-5.48336

>  <filename>  (1) 
O=C(Nn1ccc(=O)c(-c2cccnc2)n1)C1CCCCC1

$$$$
