
     RDKit          3D

 31 33  0  0  0  0  0  0  0  0999 V2000
    5.1680    1.7814   16.9856 H   0  0  0  0  0  0  0  0  0  0  0  0
    5.6148    1.2722   17.8405 C   0  0  0  0  0  0  0  0  0  0  0  0
    6.8122    0.6939   17.6439 N   0  0  0  0  0  0  0  0  0  0  0  0
    7.3875    0.0714   18.6825 C   0  0  0  0  0  0  0  0  0  0  0  0
    8.3513   -0.3994   18.4911 H   0  0  0  0  0  0  0  0  0  0  0  0
    6.7989   -0.0189   19.9659 C   0  0  0  0  0  0  0  0  0  0  0  0
    7.3791   -0.7584   21.0396 N   0  0  0  0  0  0  0  0  0  0  0  0
    8.2076   -0.4806   21.5466 H   0  0  0  0  0  0  0  0  0  0  0  0
    6.7148   -1.7489   21.6992 C   0  0  0  0  0  0  0  0  0  0  0  0
    5.5924   -2.1449   21.5066 O   0  0  0  0  0  0  0  0  0  0  0  0
    7.5898   -2.2620   22.5989 O   0  0  0  0  0  0  0  0  0  0  0  0
    7.0945   -3.1800   23.4860 C   0  0  0  0  0  0  0  0  0  0  0  0
    7.4342   -2.9598   24.7103 N   0  0  0  0  0  0  0  0  0  0  0  0
    7.0898   -3.9208   25.6267 C   0  0  0  0  0  0  0  0  0  0  0  0
    7.5122   -3.7158   26.9650 C   0  0  0  0  0  0  0  0  0  0  0  0
    8.0586   -2.7939   27.1339 H   0  0  0  0  0  0  0  0  0  0  0  0
    7.2327   -4.6514   27.9386 C   0  0  0  0  0  0  0  0  0  0  0  0
    7.5985   -4.5108   28.9515 H   0  0  0  0  0  0  0  0  0  0  0  0
    6.4974   -5.8263   27.6162 C   0  0  0  0  0  0  0  0  0  0  0  0
    6.2905   -6.5487   28.4004 H   0  0  0  0  0  0  0  0  0  0  0  0
    6.0639   -6.0575   26.3299 C   0  0  0  0  0  0  0  0  0  0  0  0
    5.5047   -6.9610   26.0854 H   0  0  0  0  0  0  0  0  0  0  0  0
    6.3632   -5.1152   25.2993 C   0  0  0  0  0  0  0  0  0  0  0  0
    6.0018   -5.2808   23.9254 C   0  0  0  0  0  0  0  0  0  0  0  0
    5.4256   -6.1542   23.6068 H   0  0  0  0  0  0  0  0  0  0  0  0
    6.3607   -4.3189   23.0196 C   0  0  0  0  0  0  0  0  0  0  0  0
    6.0963   -4.3657   21.9747 H   0  0  0  0  0  0  0  0  0  0  0  0
    5.5566    0.5980   20.1538 C   0  0  0  0  0  0  0  0  0  0  0  0
    5.0809    0.5360   21.1316 H   0  0  0  0  0  0  0  0  0  0  0  0
    4.9639    1.2669   19.0779 C   0  0  0  0  0  0  0  0  0  0  0  0
    4.0065    1.7653   19.1869 H   0  0  0  0  0  0  0  0  0  0  0  0
  1  2  1  0
  2  3  2  0
  3  4  1  0
  4  5  1  0
  4  6  2  0
  6  7  1  0
  7  8  1  0
  7  9  1  0
  9 10  2  0
  9 11  1  0
 11 12  1  0
 12 13  2  0
 13 14  1  0
 14 15  2  0
 15 16  1  0
 15 17  1  0
 17 18  1  0
 17 19  2  0
 19 20  1  0
 19 21  1  0
 21 22  1  0
 21 23  2  0
 23 24  1  0
 24 25  1  0
 24 26  2  0
 26 27  1  0
  6 28  1  0
 28 29  1  0
 28 30  2  0
 30 31  1  0
 30  2  1  0
 26 12  1  0
 23 14  1  0
M  END
>  <cnnaffinity>  (1) 
-4.90492

>  <filename>  (1) 
O=C(Nc1cccnc1)Oc1ccc2ccccc2n1

$$$$
