
     RDKit          3D

 37 38  0  0  0  0  0  0  0  0999 V2000
    8.2192   -1.5140   23.7527 O   0  0  0  0  0  0  0  0  0  0  0  0
    7.7894   -0.3893   23.6969 C   0  0  0  0  0  0  0  0  0  0  0  0
    7.7281    0.5351   24.8820 C   0  0  0  0  0  0  0  0  0  0  0  0
    6.3688    0.4676   25.6260 C   0  0  0  0  0  0  0  0  0  0  0  0
    5.1949    1.0570   24.8248 C   0  0  0  0  0  0  0  0  0  0  0  0
    3.8672    0.9979   25.5530 C   0  0  0  0  0  0  0  0  0  0  0  0
    3.0499   -0.1432   25.4819 C   0  0  0  0  0  0  0  0  0  0  0  0
    1.8143   -0.2009   26.1330 C   0  0  0  0  0  0  0  0  0  0  0  0
    1.4068    0.8873   26.9069 C   0  0  0  0  0  0  0  0  0  0  0  0
   -0.1177    0.8216   27.7423 Cl  0  0  0  0  0  0  0  0  0  0  0  0
    2.2089    2.0239   27.0247 C   0  0  0  0  0  0  0  0  0  0  0  0
    3.4291    2.0728   26.3423 C   0  0  0  0  0  0  0  0  0  0  0  0
    4.0424    2.9682   26.4274 H   0  0  0  0  0  0  0  0  0  0  0  0
    1.8850    2.8523   27.6462 H   0  0  0  0  0  0  0  0  0  0  0  0
    1.1763   -1.0757   26.0503 H   0  0  0  0  0  0  0  0  0  0  0  0
    3.3803   -1.0126   24.9186 H   0  0  0  0  0  0  0  0  0  0  0  0
    5.1124    0.5398   23.8633 H   0  0  0  0  0  0  0  0  0  0  0  0
    5.4368    2.0959   24.5663 H   0  0  0  0  0  0  0  0  0  0  0  0
    6.1358   -0.5747   25.8886 H   0  0  0  0  0  0  0  0  0  0  0  0
    6.4666    1.0077   26.5771 H   0  0  0  0  0  0  0  0  0  0  0  0
    8.5194    0.2007   25.5552 H   0  0  0  0  0  0  0  0  0  0  0  0
    7.9563    1.5737   24.5938 H   0  0  0  0  0  0  0  0  0  0  0  0
    7.2411    0.1843   22.5441 N   0  0  0  0  0  0  0  0  0  0  0  0
    7.4327   -0.8528   21.2502 S   0  0  0  0  0  0  0  0  0  0  0  0
    8.8446   -0.8599   20.9322 O   0  0  0  0  0  0  0  0  0  0  0  0
    6.6623   -2.0446   21.5011 O   0  0  0  0  0  0  0  0  0  0  0  0
    6.6134    0.0784   20.0579 C   0  0  0  0  0  0  0  0  0  0  0  0
    5.3790    0.7009   20.2522 C   0  0  0  0  0  0  0  0  0  0  0  0
    4.8114    1.3065   19.1394 C   0  0  0  0  0  0  0  0  0  0  0  0
    5.4840    1.2473   17.9133 C   0  0  0  0  0  0  0  0  0  0  0  0
    6.6637    0.6268   17.7486 N   0  0  0  0  0  0  0  0  0  0  0  0
    7.2182    0.0513   18.8123 C   0  0  0  0  0  0  0  0  0  0  0  0
    8.1704   -0.4586   18.6773 H   0  0  0  0  0  0  0  0  0  0  0  0
    5.0527    1.7100   17.0258 H   0  0  0  0  0  0  0  0  0  0  0  0
    3.8674    1.8322   19.2107 H   0  0  0  0  0  0  0  0  0  0  0  0
    4.8813    0.7224   21.2248 H   0  0  0  0  0  0  0  0  0  0  0  0
    7.6965    1.0551   22.3144 H   0  0  0  0  0  0  0  0  0  0  0  0
  1  2  2  0
  2  3  1  0
  3  4  1  0
  4  5  1  0
  5  6  1  0
  6  7  2  0
  7  8  1  0
  8  9  2  0
  9 10  1  0
  9 11  1  0
 11 12  2  0
 12 13  1  0
 11 14  1  0
  8 15  1  0
  7 16  1  0
  5 17  1  0
  5 18  1  0
  4 19  1  0
  4 20  1  0
  3 21  1  0
  3 22  1  0
  2 23  1  0
 23 24  1  0
 24 25  2  0
 24 26  2  0
 24 27  1  0
 27 28  2  0
 28 29  1  0
 29 30  2  0
 30 31  1  0
 31 32  2  0
 32 33  1  0
 30 34  1  0
 29 35  1  0
 28 36  1  0
 23 37  1  0
 12  6  1  0
 32 27  1  0
M  END
>  <cnnaffinity>  (1) 
-4.99666

>  <filename>  (1) 
O=C(CCCc1ccc(Cl)cc1)NS(=O)(=O)c1cccnc1

$$$$
