
     RDKit          3D

 31 33  0  0  0  0  0  0  0  0999 V2000
   11.7334    0.6925   26.1051 H   0  0  0  0  0  0  0  0  0  0  0  0
   10.8483    0.3506   26.3135 O   0  0  0  0  0  0  0  0  0  0  0  0
   10.1658    0.8827   25.2870 C   0  0  0  0  0  0  0  0  0  0  0  0
   10.7621    1.5141   24.4534 O   0  0  0  0  0  0  0  0  0  0  0  0
    8.6846    0.6214   25.3434 C   0  0  0  0  0  0  0  0  0  0  0  0
    8.2743    1.1455   26.2108 H   0  0  0  0  0  0  0  0  0  0  0  0
    8.2440    1.0582   24.4418 H   0  0  0  0  0  0  0  0  0  0  0  0
    8.3418   -0.8802   25.3891 C   0  0  0  0  0  0  0  0  0  0  0  0
    8.8219   -1.3910   26.2357 H   0  0  0  0  0  0  0  0  0  0  0  0
    7.2586   -1.0201   25.4925 H   0  0  0  0  0  0  0  0  0  0  0  0
    8.7298   -1.5153   24.1366 N   0  0  0  0  0  0  0  0  0  0  0  0
    9.9378   -2.1372   23.8252 C   0  0  0  0  0  0  0  0  0  0  0  0
   10.6138   -2.4291   24.6149 H   0  0  0  0  0  0  0  0  0  0  0  0
   10.0749   -2.2231   22.4789 C   0  0  0  0  0  0  0  0  0  0  0  0
   10.8305   -2.6424   21.8385 H   0  0  0  0  0  0  0  0  0  0  0  0
    8.9437   -1.6230   21.9482 N   0  0  0  0  0  0  0  0  0  0  0  0
    8.5225   -1.3041   20.7049 N   0  0  0  0  0  0  0  0  0  0  0  0
    7.3748   -0.6509   20.9407 C   0  0  0  0  0  0  0  0  0  0  0  0
    6.6111   -0.0387   19.8388 C   0  0  0  0  0  0  0  0  0  0  0  0
    7.1435   -0.0097   18.5354 C   0  0  0  0  0  0  0  0  0  0  0  0
    8.0767   -0.5215   18.3135 H   0  0  0  0  0  0  0  0  0  0  0  0
    6.5738    0.6330   17.5104 N   0  0  0  0  0  0  0  0  0  0  0  0
    5.4287    1.2914   17.7468 C   0  0  0  0  0  0  0  0  0  0  0  0
    5.0026    1.8434   16.9094 H   0  0  0  0  0  0  0  0  0  0  0  0
    4.7936    1.2981   18.9932 C   0  0  0  0  0  0  0  0  0  0  0  0
    3.8740    1.8574   19.1286 H   0  0  0  0  0  0  0  0  0  0  0  0
    5.3895    0.6223   20.0544 C   0  0  0  0  0  0  0  0  0  0  0  0
    4.9166    0.6305   21.0380 H   0  0  0  0  0  0  0  0  0  0  0  0
    7.0624   -0.5591   22.3214 C   0  0  0  0  0  0  0  0  0  0  0  0
    6.1810   -0.1173   22.7464 H   0  0  0  0  0  0  0  0  0  0  0  0
    8.1305   -1.1953   22.9349 C   0  0  0  0  0  0  0  0  0  0  0  0
  1  2  1  0
  2  3  1  0
  3  4  2  0
  3  5  1  0
  5  6  1  0
  5  7  1  0
  5  8  1  0
  8  9  1  0
  8 10  1  0
  8 11  1  0
 11 12  1  0
 12 13  1  0
 12 14  2  0
 14 15  1  0
 14 16  1  0
 16 17  1  0
 17 18  2  0
 18 19  1  0
 19 20  2  0
 20 21  1  0
 20 22  1  0
 22 23  2  0
 23 24  1  0
 23 25  1  0
 25 26  1  0
 25 27  2  0
 27 28  1  0
 18 29  1  0
 29 30  1  0
 29 31  2  0
 31 11  1  0
 31 16  1  0
 27 19  1  0
M  END
>  <cnnaffinity>  (1) 
-4.87123

>  <filename>  (1) 
O=C(O)CCn1ccn2nc(-c3cccnc3)cc12

$$$$
