
     RDKit          3D

 32 33  0  0  0  0  0  0  0  0999 V2000
    4.9839    1.7730   17.0050 H   0  0  0  0  0  0  0  0  0  0  0  0
    5.4447    1.2728   17.8530 C   0  0  0  0  0  0  0  0  0  0  0  0
    6.6077    0.6450   17.6193 N   0  0  0  0  0  0  0  0  0  0  0  0
    7.1974    0.0401   18.6535 C   0  0  0  0  0  0  0  0  0  0  0  0
    8.1469   -0.4633   18.4656 H   0  0  0  0  0  0  0  0  0  0  0  0
    6.6493    0.0357   19.9373 C   0  0  0  0  0  0  0  0  0  0  0  0
    7.4097   -0.6687   20.9764 C   0  0  0  0  0  0  0  0  0  0  0  0
    8.4852   -1.1922   20.8198 O   0  0  0  0  0  0  0  0  0  0  0  0
    6.6903   -0.7048   22.1547 O   0  0  0  0  0  0  0  0  0  0  0  0
    7.3514   -1.1993   23.3123 N   0  0  0  0  0  0  0  0  0  0  0  0
    7.6723   -2.1613   23.1235 H   0  0  0  0  0  0  0  0  0  0  0  0
    8.4364   -0.3593   23.5791 N   0  0  0  0  0  0  0  0  0  0  0  0
    9.3828   -0.5216   23.2417 H   0  0  0  0  0  0  0  0  0  0  0  0
    8.3884    0.6988   24.4447 C   0  0  0  0  0  0  0  0  0  0  0  0
    9.8222    1.4645   24.8039 S   0  0  0  0  0  0  0  0  0  0  0  0
    7.1719    0.9956   24.9547 N   0  0  0  0  0  0  0  0  0  0  0  0
    6.3951    0.5080   24.5254 H   0  0  0  0  0  0  0  0  0  0  0  0
    6.9016    1.7576   26.1150 C   0  0  0  0  0  0  0  0  0  0  0  0
    5.8228    2.6440   26.0849 C   0  0  0  0  0  0  0  0  0  0  0  0
    5.2560    2.7355   25.1622 H   0  0  0  0  0  0  0  0  0  0  0  0
    5.5250    3.4126   27.2150 C   0  0  0  0  0  0  0  0  0  0  0  0
    4.6980    4.1164   27.1890 H   0  0  0  0  0  0  0  0  0  0  0  0
    6.2922    3.2742   28.3799 C   0  0  0  0  0  0  0  0  0  0  0  0
    6.0632    3.8648   29.2613 H   0  0  0  0  0  0  0  0  0  0  0  0
    7.3580    2.3677   28.4072 C   0  0  0  0  0  0  0  0  0  0  0  0
    7.9587    2.2347   29.3041 H   0  0  0  0  0  0  0  0  0  0  0  0
    7.6690    1.6107   27.2785 C   0  0  0  0  0  0  0  0  0  0  0  0
    8.5082    0.9210   27.2641 H   0  0  0  0  0  0  0  0  0  0  0  0
    5.4226    0.6713   20.1765 C   0  0  0  0  0  0  0  0  0  0  0  0
    4.9804    0.6628   21.1759 H   0  0  0  0  0  0  0  0  0  0  0  0
    4.8160    1.3071   19.1022 C   0  0  0  0  0  0  0  0  0  0  0  0
    3.8772    1.8280   19.2329 H   0  0  0  0  0  0  0  0  0  0  0  0
  1  2  1  0
  2  3  2  0
  3  4  1  0
  4  5  1  0
  4  6  2  0
  6  7  1  0
  7  8  2  0
  7  9  1  0
  9 10  1  0
 10 11  1  0
 10 12  1  0
 12 13  1  0
 12 14  1  0
 14 15  2  0
 14 16  1  0
 16 17  1  0
 16 18  1  0
 18 19  2  0
 19 20  1  0
 19 21  1  0
 21 22  1  0
 21 23  2  0
 23 24  1  0
 23 25  1  0
 25 26  1  0
 25 27  2  0
 27 28  1  0
  6 29  1  0
 29 30  1  0
 29 31  2  0
 31 32  1  0
 31  2  1  0
 27 18  1  0
M  END
>  <cnnaffinity>  (1) 
-5.10303

>  <filename>  (1) 
O=C(ONNC(=S)Nc1ccccc1)c1cccnc1

$$$$
