
     RDKit          3D

 39 42  0  0  0  0  0  0  0  0999 V2000
    4.9955    1.8296   16.8251 H   0  0  0  0  0  0  0  0  0  0  0  0
    5.3890    1.3623   17.7247 C   0  0  0  0  0  0  0  0  0  0  0  0
    6.5424    0.6911   17.5755 N   0  0  0  0  0  0  0  0  0  0  0  0
    7.0519    0.1108   18.6661 C   0  0  0  0  0  0  0  0  0  0  0  0
    7.9847   -0.4346   18.5183 H   0  0  0  0  0  0  0  0  0  0  0  0
    6.4874    0.1746   19.9629 C   0  0  0  0  0  0  0  0  0  0  0  0
    7.1551   -0.5080   21.0957 C   0  0  0  0  0  0  0  0  0  0  0  0
    7.3472   -0.0842   22.3661 C   0  0  0  0  0  0  0  0  0  0  0  0
    7.2184    1.2398   22.8056 N   0  0  0  0  0  0  0  0  0  0  0  0
    7.3106    1.9467   22.0923 H   0  0  0  0  0  0  0  0  0  0  0  0
    7.3196    1.6812   24.1036 C   0  0  0  0  0  0  0  0  0  0  0  0
    7.1753    0.9504   25.0670 O   0  0  0  0  0  0  0  0  0  0  0  0
    7.6016    3.1763   24.2719 C   0  0  0  0  0  0  0  0  0  0  0  0
    8.3011    3.9859   23.3507 C   0  0  0  0  0  0  0  0  0  0  0  0
    8.6971    3.6233   22.4061 H   0  0  0  0  0  0  0  0  0  0  0  0
    8.5506    5.3275   23.6590 C   0  0  0  0  0  0  0  0  0  0  0  0
    9.0866    5.9583   22.9519 H   0  0  0  0  0  0  0  0  0  0  0  0
    8.1600    5.9170   24.7967 N   0  0  0  0  0  0  0  0  0  0  0  0
    7.4947    5.1577   25.6749 C   0  0  0  0  0  0  0  0  0  0  0  0
    7.1777    5.6493   26.5939 H   0  0  0  0  0  0  0  0  0  0  0  0
    7.2019    3.8075   25.4667 C   0  0  0  0  0  0  0  0  0  0  0  0
    6.6763    3.2549   26.2367 H   0  0  0  0  0  0  0  0  0  0  0  0
    7.8920   -1.1511   23.2806 C   0  0  0  0  0  0  0  0  0  0  0  0
    7.1283   -1.4500   24.0119 H   0  0  0  0  0  0  0  0  0  0  0  0
    8.7160   -0.7468   23.8834 H   0  0  0  0  0  0  0  0  0  0  0  0
    8.3524   -2.2469   22.2994 C   0  0  0  0  0  0  0  0  0  0  0  0
    7.8195   -1.8532   20.9146 C   0  0  0  0  0  0  0  0  0  0  0  0
    8.6628   -1.7812   20.2079 H   0  0  0  0  0  0  0  0  0  0  0  0
    7.1149   -2.5955   20.5097 H   0  0  0  0  0  0  0  0  0  0  0  0
    8.5413   -3.6998   22.6188 C   0  0  0  0  0  0  0  0  0  0  0  0
    8.2851   -4.4435   21.8669 H   0  0  0  0  0  0  0  0  0  0  0  0
    8.3217   -4.0125   23.6312 H   0  0  0  0  0  0  0  0  0  0  0  0
    9.7427   -2.8222   22.4145 C   0  0  0  0  0  0  0  0  0  0  0  0
   10.3191   -2.8703   21.4974 H   0  0  0  0  0  0  0  0  0  0  0  0
   10.3540   -2.5789   23.2810 H   0  0  0  0  0  0  0  0  0  0  0  0
    5.2726    0.8812   20.0842 C   0  0  0  0  0  0  0  0  0  0  0  0
    4.7732    0.9492   21.0521 H   0  0  0  0  0  0  0  0  0  0  0  0
    4.7187    1.4728   18.9463 C   0  0  0  0  0  0  0  0  0  0  0  0
    3.7813    2.0147   18.9869 H   0  0  0  0  0  0  0  0  0  0  0  0
  1  2  1  0
  2  3  2  0
  3  4  1  0
  4  5  1  0
  4  6  2  0
  6  7  1  0
  7  8  2  0
  8  9  1  0
  9 10  1  0
  9 11  1  0
 11 12  2  0
 11 13  1  0
 13 14  2  0
 14 15  1  0
 14 16  1  0
 16 17  1  0
 16 18  2  0
 18 19  1  0
 19 20  1  0
 19 21  2  0
 21 22  1  0
  8 23  1  0
 23 24  1  0
 23 25  1  0
 23 26  1  0
 26 27  1  0
 27 28  1  0
 27 29  1  0
 26 30  1  0
 30 31  1  0
 30 32  1  0
 30 33  1  0
 33 34  1  0
 33 35  1  0
  6 36  1  0
 36 37  1  0
 36 38  2  0
 38 39  1  0
 38  2  1  0
 27  7  1  0
 21 13  1  0
 33 26  1  0
M  END
>  <cnnaffinity>  (1) 
-5.16931

>  <filename>  (1) 
O=C(NC1=C(c2cccnc2)CC2(CC2)C1)c1ccncc1

$$$$
