
     RDKit          3D

 31 33  0  0  0  0  0  0  0  0999 V2000
    7.0583    4.5614   27.3328 H   0  0  0  0  0  0  0  0  0  0  0  0
    7.2925    4.4010   26.2813 C   0  0  0  0  0  0  0  0  0  0  0  0
    7.2197    3.1382   25.8658 N   0  0  0  0  0  0  0  0  0  0  0  0
    7.5192    2.8415   24.5819 C   0  0  0  0  0  0  0  0  0  0  0  0
    7.4813    1.3300   24.1673 C   0  0  0  0  0  0  0  0  0  0  0  0
    7.4608    0.4220   24.9642 O   0  0  0  0  0  0  0  0  0  0  0  0
    7.4899    1.0805   22.7883 N   0  0  0  0  0  0  0  0  0  0  0  0
    7.1185    1.7606   22.1504 H   0  0  0  0  0  0  0  0  0  0  0  0
    7.7996   -0.1542   22.2722 C   0  0  0  0  0  0  0  0  0  0  0  0
    8.5716   -1.0153   22.8509 N   0  0  0  0  0  0  0  0  0  0  0  0
    8.4112   -2.1433   22.0643 N   0  0  0  0  0  0  0  0  0  0  0  0
    8.5605   -3.0614   22.4400 H   0  0  0  0  0  0  0  0  0  0  0  0
    7.4449   -2.0093   21.1164 C   0  0  0  0  0  0  0  0  0  0  0  0
    6.8815   -2.8762   20.4895 O   0  0  0  0  0  0  0  0  0  0  0  0
    7.2635   -0.6146   21.0749 N   0  0  0  0  0  0  0  0  0  0  0  0
    6.6547    0.0709   19.9691 C   0  0  0  0  0  0  0  0  0  0  0  0
    7.1929    0.0973   18.6563 C   0  0  0  0  0  0  0  0  0  0  0  0
    8.1390   -0.3991   18.4389 H   0  0  0  0  0  0  0  0  0  0  0  0
    6.5897    0.7073   17.6257 N   0  0  0  0  0  0  0  0  0  0  0  0
    5.4105    1.3129   17.8540 C   0  0  0  0  0  0  0  0  0  0  0  0
    4.9269    1.7761   16.9931 H   0  0  0  0  0  0  0  0  0  0  0  0
    4.7960    1.3387   19.1106 C   0  0  0  0  0  0  0  0  0  0  0  0
    3.8351    1.8278   19.2408 H   0  0  0  0  0  0  0  0  0  0  0  0
    5.4365    0.7110   20.1862 C   0  0  0  0  0  0  0  0  0  0  0  0
    5.0056    0.6729   21.1865 H   0  0  0  0  0  0  0  0  0  0  0  0
    7.8958    3.8564   23.6747 C   0  0  0  0  0  0  0  0  0  0  0  0
    8.1704    3.6348   22.6478 H   0  0  0  0  0  0  0  0  0  0  0  0
    7.9595    5.1821   24.1156 C   0  0  0  0  0  0  0  0  0  0  0  0
    8.2403    5.9773   23.4238 H   0  0  0  0  0  0  0  0  0  0  0  0
    7.6548    5.4648   25.4475 C   0  0  0  0  0  0  0  0  0  0  0  0
    7.6936    6.4711   25.8482 H   0  0  0  0  0  0  0  0  0  0  0  0
  1  2  1  0
  2  3  2  0
  3  4  1  0
  4  5  1  0
  5  6  2  0
  5  7  1  0
  7  8  1  0
  7  9  1  0
  9 10  2  0
 10 11  1  0
 11 12  1  0
 11 13  1  0
 13 14  2  0
 13 15  1  0
 15 16  1  0
 16 17  2  0
 17 18  1  0
 17 19  1  0
 19 20  2  0
 20 21  1  0
 20 22  1  0
 22 23  1  0
 22 24  2  0
 24 25  1  0
  4 26  2  0
 26 27  1  0
 26 28  1  0
 28 29  1  0
 28 30  2  0
 30 31  1  0
 30  2  1  0
 15  9  1  0
 24 16  1  0
M  END
>  <cnnaffinity>  (1) 
-4.97296

>  <filename>  (1) 
O=C(Nc1n[nH]c(=O)n1-c1cccnc1)c1ccccn1

$$$$
