
     RDKit          3D

 28 29  0  0  0  0  0  0  0  0999 V2000
    4.9703    1.7223   16.9663 H   0  0  0  0  0  0  0  0  0  0  0  0
    5.4153    1.2576   17.8424 C   0  0  0  0  0  0  0  0  0  0  0  0
    6.5806    0.6300   17.6334 N   0  0  0  0  0  0  0  0  0  0  0  0
    7.1582    0.0592   18.6922 C   0  0  0  0  0  0  0  0  0  0  0  0
    8.1083   -0.4440   18.5209 H   0  0  0  0  0  0  0  0  0  0  0  0
    6.6069    0.0678   19.9787 C   0  0  0  0  0  0  0  0  0  0  0  0
    7.4744   -0.5558   21.0195 C   0  0  0  0  0  0  0  0  0  0  0  0
    8.6858   -0.4696   20.9755 O   0  0  0  0  0  0  0  0  0  0  0  0
    6.7512   -1.2329   21.9968 N   0  0  0  0  0  0  0  0  0  0  0  0
    5.8315   -1.5366   21.6955 H   0  0  0  0  0  0  0  0  0  0  0  0
    7.3291   -2.0337   22.9887 N   0  0  0  0  0  0  0  0  0  0  0  0
    7.5944   -1.5260   23.8226 H   0  0  0  0  0  0  0  0  0  0  0  0
    8.1360   -3.1394   22.7180 C   0  0  0  0  0  0  0  0  0  0  0  0
    8.2106   -3.6983   21.6446 O   0  0  0  0  0  0  0  0  0  0  0  0
    8.9091   -3.6105   23.9651 C   0  0  0  0  0  0  0  0  0  0  0  0
    8.2810   -3.9122   25.1938 C   0  0  0  0  0  0  0  0  0  0  0  0
    7.2405   -3.6638   25.3807 H   0  0  0  0  0  0  0  0  0  0  0  0
    9.0016   -4.6063   26.1748 C   0  0  0  0  0  0  0  0  0  0  0  0
    8.5147   -4.9200   27.0919 H   0  0  0  0  0  0  0  0  0  0  0  0
   10.2990   -4.9238   26.0606 N   0  0  0  0  0  0  0  0  0  0  0  0
   10.9249   -4.5354   24.9434 C   0  0  0  0  0  0  0  0  0  0  0  0
   11.9792   -4.7830   24.8744 H   0  0  0  0  0  0  0  0  0  0  0  0
   10.2857   -3.8893   23.8802 C   0  0  0  0  0  0  0  0  0  0  0  0
   10.8630   -3.5838   23.0097 H   0  0  0  0  0  0  0  0  0  0  0  0
    5.3729    0.7080   20.1868 C   0  0  0  0  0  0  0  0  0  0  0  0
    4.9013    0.7615   21.1738 H   0  0  0  0  0  0  0  0  0  0  0  0
    4.7745    1.3214   19.0854 C   0  0  0  0  0  0  0  0  0  0  0  0
    3.8278    1.8431   19.1724 H   0  0  0  0  0  0  0  0  0  0  0  0
  1  2  1  0
  2  3  2  0
  3  4  1  0
  4  5  1  0
  4  6  2  0
  6  7  1  0
  7  8  2  0
  7  9  1  0
  9 10  1  0
  9 11  1  0
 11 12  1  0
 11 13  1  0
 13 14  2  0
 13 15  1  0
 15 16  2  0
 16 17  1  0
 16 18  1  0
 18 19  1  0
 18 20  2  0
 20 21  1  0
 21 22  1  0
 21 23  2  0
 23 24  1  0
  6 25  1  0
 25 26  1  0
 25 27  2  0
 27 28  1  0
 27  2  1  0
 23 15  1  0
M  END
>  <cnnaffinity>  (1) 
-4.82904

>  <filename>  (1) 
O=C(NNC(=O)c1cccnc1)c1ccncc1

$$$$
