
     RDKit          3D

 33 35  0  0  0  0  0  0  0  0999 V2000
    4.9356    1.7983   16.9941 H   0  0  0  0  0  0  0  0  0  0  0  0
    5.3976    1.2949   17.8408 C   0  0  0  0  0  0  0  0  0  0  0  0
    6.5490    0.6603   17.5755 N   0  0  0  0  0  0  0  0  0  0  0  0
    7.1585    0.0364   18.5875 C   0  0  0  0  0  0  0  0  0  0  0  0
    8.1198   -0.4212   18.3731 H   0  0  0  0  0  0  0  0  0  0  0  0
    6.6357   -0.0210   19.8899 C   0  0  0  0  0  0  0  0  0  0  0  0
    7.3301   -0.7217   20.9285 N   0  0  0  0  0  0  0  0  0  0  0  0
    6.5675   -1.6152   21.6280 N   0  0  0  0  0  0  0  0  0  0  0  0
    7.1307   -2.2986   22.5963 C   0  0  0  0  0  0  0  0  0  0  0  0
    6.2920   -3.3076   23.4231 C   0  0  0  0  0  0  0  0  0  0  0  0
    6.7800   -3.8854   24.3825 O   0  0  0  0  0  0  0  0  0  0  0  0
    4.9923   -3.5334   23.0280 N   0  0  0  0  0  0  0  0  0  0  0  0
    4.6989   -3.1087   22.1650 H   0  0  0  0  0  0  0  0  0  0  0  0
    4.0189   -4.1695   23.8092 C   0  0  0  0  0  0  0  0  0  0  0  0
    4.0338   -4.0779   25.2018 C   0  0  0  0  0  0  0  0  0  0  0  0
    4.8018   -3.5141   25.7089 H   0  0  0  0  0  0  0  0  0  0  0  0
    3.0429   -4.7472   25.9129 C   0  0  0  0  0  0  0  0  0  0  0  0
    3.0255   -4.7168   27.0010 H   0  0  0  0  0  0  0  0  0  0  0  0
    2.0706   -5.4712   25.3430 N   0  0  0  0  0  0  0  0  0  0  0  0
    2.0667   -5.5321   24.0084 C   0  0  0  0  0  0  0  0  0  0  0  0
    1.2632   -6.1235   23.5743 H   0  0  0  0  0  0  0  0  0  0  0  0
    3.0016   -4.8960   23.1944 C   0  0  0  0  0  0  0  0  0  0  0  0
    2.9439   -4.9886   22.1197 H   0  0  0  0  0  0  0  0  0  0  0  0
    8.5157   -2.1131   22.9566 C   0  0  0  0  0  0  0  0  0  0  0  0
    8.9042   -2.7119   23.7742 H   0  0  0  0  0  0  0  0  0  0  0  0
    9.2687   -1.2029   22.2859 C   0  0  0  0  0  0  0  0  0  0  0  0
   10.3147   -1.0014   22.4860 H   0  0  0  0  0  0  0  0  0  0  0  0
    8.7117   -0.4111   21.2028 C   0  0  0  0  0  0  0  0  0  0  0  0
    9.3323    0.4255   20.5656 O   0  0  0  0  0  0  0  0  0  0  0  0
    5.4284    0.6271   20.1612 C   0  0  0  0  0  0  0  0  0  0  0  0
    5.0229    0.5859   21.1730 H   0  0  0  0  0  0  0  0  0  0  0  0
    4.8073    1.3123   19.1112 C   0  0  0  0  0  0  0  0  0  0  0  0
    3.8789    1.8513   19.2548 H   0  0  0  0  0  0  0  0  0  0  0  0
  1  2  1  0
  2  3  2  0
  3  4  1  0
  4  5  1  0
  4  6  2  0
  6  7  1  0
  7  8  1  0
  8  9  2  0
  9 10  1  0
 10 11  2  0
 10 12  1  0
 12 13  1  0
 12 14  1  0
 14 15  2  0
 15 16  1  0
 15 17  1  0
 17 18  1  0
 17 19  2  0
 19 20  1  0
 20 21  1  0
 20 22  2  0
 22 23  1  0
  9 24  1  0
 24 25  1  0
 24 26  2  0
 26 27  1  0
 26 28  1  0
 28 29  2  0
  6 30  1  0
 30 31  1  0
 30 32  2  0
 32 33  1  0
 32  2  1  0
 28  7  1  0
 22 14  1  0
M  END
>  <cnnaffinity>  (1) 
-5.39975

>  <filename>  (1) 
O=C(Nc1ccncc1)c1ccc(=O)n(-c2cccnc2)n1

$$$$
