
     RDKit          3D

 32 33  0  0  0  0  0  0  0  0999 V2000
    5.0960    1.7859   17.0114 H   0  0  0  0  0  0  0  0  0  0  0  0
    5.5078    1.2768   17.8768 C   0  0  0  0  0  0  0  0  0  0  0  0
    6.6666    0.6258   17.6832 N   0  0  0  0  0  0  0  0  0  0  0  0
    7.1838   -0.0281   18.7261 C   0  0  0  0  0  0  0  0  0  0  0  0
    8.1277   -0.5490   18.5666 H   0  0  0  0  0  0  0  0  0  0  0  0
    6.5837   -0.0535   19.9856 C   0  0  0  0  0  0  0  0  0  0  0  0
    7.2242   -0.8989   21.0056 C   0  0  0  0  0  0  0  0  0  0  0  0
    7.9754   -1.8217   20.7503 O   0  0  0  0  0  0  0  0  0  0  0  0
    6.8657   -0.5639   22.2978 N   0  0  0  0  0  0  0  0  0  0  0  0
    6.9537    0.4187   22.4791 H   0  0  0  0  0  0  0  0  0  0  0  0
    7.3361   -1.2972   23.3689 C   0  0  0  0  0  0  0  0  0  0  0  0
    8.1206   -0.4812   24.5646 S   0  0  0  0  0  0  0  0  0  0  0  0
    7.0977   -2.6347   23.2933 N   0  0  0  0  0  0  0  0  0  0  0  0
    5.8620   -3.1892   22.7174 C   0  0  0  0  0  0  0  0  0  0  0  0
    5.2992   -3.7217   23.5014 H   0  0  0  0  0  0  0  0  0  0  0  0
    5.2485   -2.3811   22.3254 H   0  0  0  0  0  0  0  0  0  0  0  0
    6.1553   -4.0997   21.5350 C   0  0  0  0  0  0  0  0  0  0  0  0
    5.2793   -4.6475   21.1894 H   0  0  0  0  0  0  0  0  0  0  0  0
    6.6210   -3.5604   20.7141 H   0  0  0  0  0  0  0  0  0  0  0  0
    7.2986   -5.3496   21.9911 S   0  0  0  0  0  0  0  0  0  0  0  0
    7.8087   -5.9443   20.7707 O   0  0  0  0  0  0  0  0  0  0  0  0
    6.6616   -6.1491   23.0324 O   0  0  0  0  0  0  0  0  0  0  0  0
    8.5991   -4.4245   22.7410 C   0  0  0  0  0  0  0  0  0  0  0  0
    9.0108   -3.8129   21.9335 H   0  0  0  0  0  0  0  0  0  0  0  0
    9.2910   -5.1920   23.0736 H   0  0  0  0  0  0  0  0  0  0  0  0
    8.0767   -3.5547   23.8691 C   0  0  0  0  0  0  0  0  0  0  0  0
    8.9133   -2.9766   24.2865 H   0  0  0  0  0  0  0  0  0  0  0  0
    7.6368   -4.1406   24.6907 H   0  0  0  0  0  0  0  0  0  0  0  0
    5.3925    0.6652   20.1921 C   0  0  0  0  0  0  0  0  0  0  0  0
    4.9316    0.6925   21.1828 H   0  0  0  0  0  0  0  0  0  0  0  0
    4.8353    1.3262   19.1045 C   0  0  0  0  0  0  0  0  0  0  0  0
    3.9095    1.8849   19.2041 H   0  0  0  0  0  0  0  0  0  0  0  0
  1  2  1  0
  2  3  2  0
  3  4  1  0
  4  5  1  0
  4  6  2  0
  6  7  1  0
  7  8  2  0
  7  9  1  0
  9 10  1  0
  9 11  1  0
 11 12  2  0
 11 13  1  0
 13 14  1  0
 14 15  1  0
 14 16  1  0
 14 17  1  0
 17 18  1  0
 17 19  1  0
 17 20  1  0
 20 21  2  0
 20 22  2  0
 20 23  1  0
 23 24  1  0
 23 25  1  0
 23 26  1  0
 26 27  1  0
 26 28  1  0
  6 29  1  0
 29 30  1  0
 29 31  2  0
 31 32  1  0
 31  2  1  0
 26 13  1  0
M  END
>  <cnnaffinity>  (1) 
-4.82487

>  <filename>  (1) 
O=C(NC(=S)N1CCS(=O)(=O)CC1)c1cccnc1

$$$$
