
     RDKit          3D

 27 28  0  0  0  0  0  0  0  0999 V2000
    4.8748    1.8738   17.0138 H   0  0  0  0  0  0  0  0  0  0  0  0
    5.3902    1.3198   17.7976 C   0  0  0  0  0  0  0  0  0  0  0  0
    6.5405    0.6797   17.5226 N   0  0  0  0  0  0  0  0  0  0  0  0
    7.1581    0.0431   18.5456 C   0  0  0  0  0  0  0  0  0  0  0  0
    8.0977   -0.4586   18.3485 H   0  0  0  0  0  0  0  0  0  0  0  0
    6.6830    0.0002   19.8723 C   0  0  0  0  0  0  0  0  0  0  0  0
    7.3898   -0.7084   20.8645 N   0  0  0  0  0  0  0  0  0  0  0  0
    8.1277   -1.3357   20.5298 H   0  0  0  0  0  0  0  0  0  0  0  0
    7.2466   -0.5088   22.2933 N   0  0  0  0  0  0  0  0  0  0  0  0
    6.7137    0.2955   22.6200 H   0  0  0  0  0  0  0  0  0  0  0  0
    7.8902   -1.2305   23.3051 C   0  0  0  0  0  0  0  0  0  0  0  0
    8.6734   -2.1414   23.0387 O   0  0  0  0  0  0  0  0  0  0  0  0
    7.6132   -0.8914   24.7217 C   0  0  0  0  0  0  0  0  0  0  0  0
    6.4316   -0.2141   25.0837 C   0  0  0  0  0  0  0  0  0  0  0  0
    5.7034    0.0609   24.3247 H   0  0  0  0  0  0  0  0  0  0  0  0
    6.1668    0.0979   26.4197 C   0  0  0  0  0  0  0  0  0  0  0  0
    5.2379    0.5906   26.6919 H   0  0  0  0  0  0  0  0  0  0  0  0
    7.0935   -0.2064   27.4179 C   0  0  0  0  0  0  0  0  0  0  0  0
    6.7693    0.4226   29.1903 Br  0  0  0  0  0  0  0  0  0  0  0  0
    8.2573   -0.9139   27.0926 C   0  0  0  0  0  0  0  0  0  0  0  0
    8.9527   -1.1833   27.8895 H   0  0  0  0  0  0  0  0  0  0  0  0
    8.5120   -1.2556   25.7530 C   0  0  0  0  0  0  0  0  0  0  0  0
    9.4248   -1.8023   25.5223 H   0  0  0  0  0  0  0  0  0  0  0  0
    5.4863    0.6586   20.1377 C   0  0  0  0  0  0  0  0  0  0  0  0
    5.0829    0.6453   21.1444 H   0  0  0  0  0  0  0  0  0  0  0  0
    4.8346    1.3112   19.0814 C   0  0  0  0  0  0  0  0  0  0  0  0
    3.8960    1.8268   19.2373 H   0  0  0  0  0  0  0  0  0  0  0  0
  1  2  1  0
  2  3  2  0
  3  4  1  0
  4  5  1  0
  4  6  2  0
  6  7  1  0
  7  8  1  0
  7  9  1  0
  9 10  1  0
  9 11  1  0
 11 12  2  0
 11 13  1  0
 13 14  2  0
 14 15  1  0
 14 16  1  0
 16 17  1  0
 16 18  2  0
 18 19  1  0
 18 20  1  0
 20 21  1  0
 20 22  2  0
 22 23  1  0
  6 24  1  0
 24 25  1  0
 24 26  2  0
 26 27  1  0
 26  2  1  0
 22 13  1  0
M  END
>  <cnnaffinity>  (1) 
-4.55359

>  <filename>  (1) 
O=C(NNc1cccnc1)c1ccc(Br)cc1

$$$$
