
     RDKit          3D

 33 35  0  0  0  0  0  0  0  0999 V2000
    5.0117    1.7125   17.1231 H   0  0  0  0  0  0  0  0  0  0  0  0
    5.4783    1.1598   17.9353 C   0  0  0  0  0  0  0  0  0  0  0  0
    6.6287    0.5343   17.6384 N   0  0  0  0  0  0  0  0  0  0  0  0
    7.2252   -0.1395   18.6319 C   0  0  0  0  0  0  0  0  0  0  0  0
    8.1736   -0.6194   18.4027 H   0  0  0  0  0  0  0  0  0  0  0  0
    6.7151   -0.2549   19.9453 C   0  0  0  0  0  0  0  0  0  0  0  0
    7.4908   -0.8642   20.9684 N   0  0  0  0  0  0  0  0  0  0  0  0
    7.0718   -1.7505   21.9633 C   0  0  0  0  0  0  0  0  0  0  0  0
    5.9033   -2.7785   21.8074 C   0  0  0  0  0  0  0  0  0  0  0  0
    5.3654   -3.0795   20.7563 O   0  0  0  0  0  0  0  0  0  0  0  0
    5.5234   -3.3293   23.0120 N   0  0  0  0  0  0  0  0  0  0  0  0
    5.9469   -2.9207   23.8346 H   0  0  0  0  0  0  0  0  0  0  0  0
    4.3444   -4.0499   23.2124 C   0  0  0  0  0  0  0  0  0  0  0  0
    3.5230   -3.7232   24.2899 C   0  0  0  0  0  0  0  0  0  0  0  0
    3.8399   -2.9813   25.0179 H   0  0  0  0  0  0  0  0  0  0  0  0
    2.2794   -4.3454   24.3734 C   0  0  0  0  0  0  0  0  0  0  0  0
    1.5682   -4.0404   25.1444 H   0  0  0  0  0  0  0  0  0  0  0  0
    1.8685   -5.2991   23.5231 N   0  0  0  0  0  0  0  0  0  0  0  0
    2.7239   -5.6688   22.5563 C   0  0  0  0  0  0  0  0  0  0  0  0
    2.3740   -6.4626   21.8924 H   0  0  0  0  0  0  0  0  0  0  0  0
    3.9691   -5.0790   22.3531 C   0  0  0  0  0  0  0  0  0  0  0  0
    4.6206   -5.4061   21.5505 H   0  0  0  0  0  0  0  0  0  0  0  0
    7.7806   -1.7148   23.0382 N   0  0  0  0  0  0  0  0  0  0  0  0
    8.8797   -0.7789   22.8384 C   0  0  0  0  0  0  0  0  0  0  0  0
    9.8443   -1.2763   23.0137 H   0  0  0  0  0  0  0  0  0  0  0  0
    8.7932    0.0429   23.5605 H   0  0  0  0  0  0  0  0  0  0  0  0
    8.7553   -0.2648   21.3890 C   0  0  0  0  0  0  0  0  0  0  0  0
    9.5812   -0.5934   20.7404 H   0  0  0  0  0  0  0  0  0  0  0  0
    8.7037    0.8304   21.3254 H   0  0  0  0  0  0  0  0  0  0  0  0
    5.4882    0.3639   20.2217 C   0  0  0  0  0  0  0  0  0  0  0  0
    5.0752    0.3289   21.2308 H   0  0  0  0  0  0  0  0  0  0  0  0
    4.8722    1.0958   19.1958 C   0  0  0  0  0  0  0  0  0  0  0  0
    3.9508    1.6383   19.3695 H   0  0  0  0  0  0  0  0  0  0  0  0
  1  2  1  0
  2  3  2  0
  3  4  1  0
  4  5  1  0
  4  6  2  0
  6  7  1  0
  7  8  1  0
  8  9  1  0
  9 10  2  0
  9 11  1  0
 11 12  1  0
 11 13  1  0
 13 14  2  0
 14 15  1  0
 14 16  1  0
 16 17  1  0
 16 18  2  0
 18 19  1  0
 19 20  1  0
 19 21  2  0
 21 22  1  0
  8 23  2  0
 23 24  1  0
 24 25  1  0
 24 26  1  0
 24 27  1  0
 27 28  1  0
 27 29  1  0
  6 30  1  0
 30 31  1  0
 30 32  2  0
 32 33  1  0
 32  2  1  0
 27  7  1  0
 21 13  1  0
M  END
>  <cnnaffinity>  (1) 
-5.15816

>  <filename>  (1) 
O=C(Nc1ccncc1)C1=NCCN1c1cccnc1

$$$$
