
     RDKit          3D

 16 16  0  0  0  0  0  0  0  0999 V2000
    4.9249    1.7770   17.0016 H   0  0  0  0  0  0  0  0  0  0  0  0
    5.4073    1.2877   17.8462 C   0  0  0  0  0  0  0  0  0  0  0  0
    6.5707    0.6686   17.5788 N   0  0  0  0  0  0  0  0  0  0  0  0
    7.1750    0.0613   18.6051 C   0  0  0  0  0  0  0  0  0  0  0  0
    8.1209   -0.4247   18.3820 H   0  0  0  0  0  0  0  0  0  0  0  0
    6.6566    0.0060   19.9114 C   0  0  0  0  0  0  0  0  0  0  0  0
    7.4552   -0.7160   20.9390 C   0  0  0  0  0  0  0  0  0  0  0  0
    8.5730   -1.1321   20.7049 O   0  0  0  0  0  0  0  0  0  0  0  0
    6.8221   -0.9560   22.3136 C   0  0  0  0  0  0  0  0  0  0  0  0
    7.4256   -1.6841   22.8552 H   0  0  0  0  0  0  0  0  0  0  0  0
    5.8194   -1.3498   22.1713 H   0  0  0  0  0  0  0  0  0  0  0  0
    6.7368    0.2294   23.0345 F   0  0  0  0  0  0  0  0  0  0  0  0
    5.4364    0.6486   20.1703 C   0  0  0  0  0  0  0  0  0  0  0  0
    4.9944    0.6553   21.1756 H   0  0  0  0  0  0  0  0  0  0  0  0
    4.8061    1.3063   19.1126 C   0  0  0  0  0  0  0  0  0  0  0  0
    3.8756    1.8419   19.2595 H   0  0  0  0  0  0  0  0  0  0  0  0
  1  2  1  0
  2  3  2  0
  3  4  1  0
  4  5  1  0
  4  6  2  0
  6  7  1  0
  7  8  2  0
  7  9  1  0
  9 10  1  0
  9 11  1  0
  9 12  1  0
  6 13  1  0
 13 14  1  0
 13 15  2  0
 15 16  1  0
 15  2  1  0
M  END
>  <cnnaffinity>  (1) 
-3.28307

>  <filename>  (1) 
O=C(CF)c1cccnc1

$$$$
