
     RDKit          3D

 32 34  0  0  0  0  0  0  0  0999 V2000
    5.0588    1.7909   16.9983 H   0  0  0  0  0  0  0  0  0  0  0  0
    5.4910    1.2714   17.8525 C   0  0  0  0  0  0  0  0  0  0  0  0
    6.6224    0.5903   17.6240 N   0  0  0  0  0  0  0  0  0  0  0  0
    7.1835   -0.0787   18.6403 C   0  0  0  0  0  0  0  0  0  0  0  0
    8.1084   -0.6039   18.4059 H   0  0  0  0  0  0  0  0  0  0  0  0
    6.6433   -0.1024   19.9406 C   0  0  0  0  0  0  0  0  0  0  0  0
    7.1776   -0.8334   20.9829 O   0  0  0  0  0  0  0  0  0  0  0  0
    8.5434   -0.8922   21.1725 C   0  0  0  0  0  0  0  0  0  0  0  0
    9.5522   -0.0163   20.7162 C   0  0  0  0  0  0  0  0  0  0  0  0
    9.4266    0.8718   20.1097 H   0  0  0  0  0  0  0  0  0  0  0  0
   10.7478   -0.3759   21.1527 N   0  0  0  0  0  0  0  0  0  0  0  0
   10.5242   -1.4743   21.8929 N   0  0  0  0  0  0  0  0  0  0  0  0
   11.2270   -1.9618   22.4420 H   0  0  0  0  0  0  0  0  0  0  0  0
    9.2158   -1.8031   21.9705 C   0  0  0  0  0  0  0  0  0  0  0  0
    8.7655   -2.8067   22.8452 N   0  0  0  0  0  0  0  0  0  0  0  0
    7.7899   -3.0348   22.8065 H   0  0  0  0  0  0  0  0  0  0  0  0
    9.5497   -3.5129   23.7223 C   0  0  0  0  0  0  0  0  0  0  0  0
   10.7715   -3.4657   23.6974 O   0  0  0  0  0  0  0  0  0  0  0  0
    8.8318   -4.3708   24.6909 C   0  0  0  0  0  0  0  0  0  0  0  0
    7.7056   -3.8919   25.3644 C   0  0  0  0  0  0  0  0  0  0  0  0
    7.2695   -2.9177   25.1424 H   0  0  0  0  0  0  0  0  0  0  0  0
    7.1008   -4.5692   26.3443 N   0  0  0  0  0  0  0  0  0  0  0  0
    7.5670   -5.7850   26.6485 C   0  0  0  0  0  0  0  0  0  0  0  0
    7.0364   -6.3078   27.4413 H   0  0  0  0  0  0  0  0  0  0  0  0
    8.6621   -6.3705   26.0058 C   0  0  0  0  0  0  0  0  0  0  0  0
    9.0037   -7.3566   26.2868 H   0  0  0  0  0  0  0  0  0  0  0  0
    9.3325   -5.6372   25.0325 C   0  0  0  0  0  0  0  0  0  0  0  0
   10.2373   -6.0316   24.5721 H   0  0  0  0  0  0  0  0  0  0  0  0
    5.4531    0.6024   20.1693 C   0  0  0  0  0  0  0  0  0  0  0  0
    5.0026    0.5938   21.1590 H   0  0  0  0  0  0  0  0  0  0  0  0
    4.8736    1.3061   19.1070 C   0  0  0  0  0  0  0  0  0  0  0  0
    3.9519    1.8675   19.2283 H   0  0  0  0  0  0  0  0  0  0  0  0
  1  2  1  0
  2  3  2  0
  3  4  1  0
  4  5  1  0
  4  6  2  0
  6  7  1  0
  7  8  1  0
  8  9  1  0
  9 10  1  0
  9 11  2  0
 11 12  1  0
 12 13  1  0
 12 14  1  0
 14 15  1  0
 15 16  1  0
 15 17  1  0
 17 18  2  0
 17 19  1  0
 19 20  2  0
 20 21  1  0
 20 22  1  0
 22 23  2  0
 23 24  1  0
 23 25  1  0
 25 26  1  0
 25 27  2  0
 27 28  1  0
  6 29  1  0
 29 30  1  0
 29 31  2  0
 31 32  1  0
 31  2  1  0
 14  8  2  0
 27 19  1  0
M  END
>  <cnnaffinity>  (1) 
-5.56693

>  <filename>  (1) 
O=C(Nc1[nH]ncc1Oc1cccnc1)c1cccnc1

$$$$
