
     RDKit          3D

 39 42  0  0  0  0  0  0  0  0999 V2000
    4.8271    1.9104   16.7100 H   0  0  0  0  0  0  0  0  0  0  0  0
    5.2240    1.3594   17.5554 C   0  0  0  0  0  0  0  0  0  0  0  0
    6.3371    0.6513   17.3141 N   0  0  0  0  0  0  0  0  0  0  0  0
    6.8738    0.0090   18.3492 C   0  0  0  0  0  0  0  0  0  0  0  0
    7.7618   -0.5752   18.1186 H   0  0  0  0  0  0  0  0  0  0  0  0
    6.3704    0.0437   19.6593 C   0  0  0  0  0  0  0  0  0  0  0  0
    7.1838   -0.5762   20.7169 C   0  0  0  0  0  0  0  0  0  0  0  0
    6.7380   -0.6957   21.9758 N   0  0  0  0  0  0  0  0  0  0  0  0
    7.7991   -1.2351   22.6151 N   0  0  0  0  0  0  0  0  0  0  0  0
    8.1295   -1.5131   23.9382 C   0  0  0  0  0  0  0  0  0  0  0  0
    7.3935   -1.3891   24.7139 H   0  0  0  0  0  0  0  0  0  0  0  0
    9.4387   -1.8714   23.9234 C   0  0  0  0  0  0  0  0  0  0  0  0
   10.0883   -2.1575   24.7376 H   0  0  0  0  0  0  0  0  0  0  0  0
    9.9236   -1.8407   22.6063 N   0  0  0  0  0  0  0  0  0  0  0  0
   11.2961   -1.6686   22.1618 C   0  0  0  0  0  0  0  0  0  0  0  0
   11.9774   -2.1104   22.8896 H   0  0  0  0  0  0  0  0  0  0  0  0
   11.4153   -2.2052   21.2165 H   0  0  0  0  0  0  0  0  0  0  0  0
   11.6598   -0.2708   21.9499 N   0  0  0  0  0  0  0  0  0  0  0  0
   11.0713    0.1901   21.2658 H   0  0  0  0  0  0  0  0  0  0  0  0
   11.8354    0.5307   23.0657 C   0  0  0  0  0  0  0  0  0  0  0  0
   11.9620    0.0604   24.1817 O   0  0  0  0  0  0  0  0  0  0  0  0
   11.8516    2.0165   22.8099 C   0  0  0  0  0  0  0  0  0  0  0  0
   11.6366    2.8819   23.9015 C   0  0  0  0  0  0  0  0  0  0  0  0
   11.4270    2.4479   24.8786 H   0  0  0  0  0  0  0  0  0  0  0  0
   11.6607    4.2693   23.7240 C   0  0  0  0  0  0  0  0  0  0  0  0
   11.4896    4.9378   24.5631 H   0  0  0  0  0  0  0  0  0  0  0  0
   11.9012    4.8086   22.4551 C   0  0  0  0  0  0  0  0  0  0  0  0
   11.8783    5.8832   22.2930 H   0  0  0  0  0  0  0  0  0  0  0  0
   12.1400    3.9573   21.3728 C   0  0  0  0  0  0  0  0  0  0  0  0
   12.3051    4.3668   20.3794 H   0  0  0  0  0  0  0  0  0  0  0  0
   12.1040    2.5736   21.5408 C   0  0  0  0  0  0  0  0  0  0  0  0
   12.2922    1.9355   20.6804 H   0  0  0  0  0  0  0  0  0  0  0  0
    8.8666   -1.4379   21.8200 C   0  0  0  0  0  0  0  0  0  0  0  0
    8.5169   -1.0428   20.5464 C   0  0  0  0  0  0  0  0  0  0  0  0
    9.1211   -1.0339   19.6582 H   0  0  0  0  0  0  0  0  0  0  0  0
    5.1604    0.7289   19.8806 C   0  0  0  0  0  0  0  0  0  0  0  0
    4.7075    0.7404   20.8754 H   0  0  0  0  0  0  0  0  0  0  0  0
    4.5882    1.3991   18.8017 C   0  0  0  0  0  0  0  0  0  0  0  0
    3.6807    1.9780   18.9209 H   0  0  0  0  0  0  0  0  0  0  0  0
  1  2  1  0
  2  3  2  0
  3  4  1  0
  4  5  1  0
  4  6  2  0
  6  7  1  0
  7  8  2  0
  8  9  1  0
  9 10  1  0
 10 11  1  0
 10 12  2  0
 12 13  1  0
 12 14  1  0
 14 15  1  0
 15 16  1  0
 15 17  1  0
 15 18  1  0
 18 19  1  0
 18 20  1  0
 20 21  2  0
 20 22  1  0
 22 23  2  0
 23 24  1  0
 23 25  1  0
 25 26  1  0
 25 27  2  0
 27 28  1  0
 27 29  1  0
 29 30  1  0
 29 31  2  0
 31 32  1  0
 14 33  1  0
 33 34  2  0
 34 35  1  0
  6 36  1  0
 36 37  1  0
 36 38  2  0
 38 39  1  0
 38  2  1  0
 34  7  1  0
 33  9  1  0
 31 22  1  0
M  END
>  <cnnaffinity>  (1) 
-5.70262

>  <filename>  (1) 
O=C(NCn1ccn2nc(-c3cccnc3)cc12)c1ccccc1

$$$$
