
     RDKit          3D

 28 29  0  0  0  0  0  0  0  0999 V2000
    4.9905    1.7821   16.9919 H   0  0  0  0  0  0  0  0  0  0  0  0
    5.4655    1.2795   17.8296 C   0  0  0  0  0  0  0  0  0  0  0  0
    6.6183    0.6209   17.6171 N   0  0  0  0  0  0  0  0  0  0  0  0
    7.1807   -0.0135   18.6536 C   0  0  0  0  0  0  0  0  0  0  0  0
    8.1081   -0.5528   18.4912 H   0  0  0  0  0  0  0  0  0  0  0  0
    6.6294   -0.0018   19.9295 C   0  0  0  0  0  0  0  0  0  0  0  0
    7.3456   -0.7183   20.9507 C   0  0  0  0  0  0  0  0  0  0  0  0
    8.1829   -1.5612   20.6551 O   0  0  0  0  0  0  0  0  0  0  0  0
    7.1216   -0.3927   22.2668 N   0  0  0  0  0  0  0  0  0  0  0  0
    6.6093    0.4662   22.4427 H   0  0  0  0  0  0  0  0  0  0  0  0
    7.8541   -1.0214   23.3642 C   0  0  0  0  0  0  0  0  0  0  0  0
    7.4714   -0.6491   24.3196 H   0  0  0  0  0  0  0  0  0  0  0  0
    7.7057   -2.1100   23.3413 H   0  0  0  0  0  0  0  0  0  0  0  0
    9.3242   -0.7066   23.2628 C   0  0  0  0  0  0  0  0  0  0  0  0
   10.1991   -1.6227   22.6570 C   0  0  0  0  0  0  0  0  0  0  0  0
    9.8092   -2.5637   22.2679 H   0  0  0  0  0  0  0  0  0  0  0  0
   11.5581   -1.3263   22.5331 C   0  0  0  0  0  0  0  0  0  0  0  0
   12.2285   -2.0344   22.0531 H   0  0  0  0  0  0  0  0  0  0  0  0
   12.0789   -0.1268   23.0350 C   0  0  0  0  0  0  0  0  0  0  0  0
   13.9498    0.2421   22.8631 Br  0  0  0  0  0  0  0  0  0  0  0  0
   11.2118    0.7927   23.6382 C   0  0  0  0  0  0  0  0  0  0  0  0
   11.6015    1.7441   23.9913 H   0  0  0  0  0  0  0  0  0  0  0  0
    9.8425    0.5110   23.7422 C   0  0  0  0  0  0  0  0  0  0  0  0
    9.1752    1.2596   24.1586 H   0  0  0  0  0  0  0  0  0  0  0  0
    5.4439    0.6996   20.1771 C   0  0  0  0  0  0  0  0  0  0  0  0
    4.9971    0.7525   21.1747 H   0  0  0  0  0  0  0  0  0  0  0  0
    4.8536    1.3321   19.0887 C   0  0  0  0  0  0  0  0  0  0  0  0
    3.9261    1.8758   19.2116 H   0  0  0  0  0  0  0  0  0  0  0  0
  1  2  1  0
  2  3  2  0
  3  4  1  0
  4  5  1  0
  4  6  2  0
  6  7  1  0
  7  8  2  0
  7  9  1  0
  9 10  1  0
  9 11  1  0
 11 12  1  0
 11 13  1  0
 11 14  1  0
 14 15  2  0
 15 16  1  0
 15 17  1  0
 17 18  1  0
 17 19  2  0
 19 20  1  0
 19 21  1  0
 21 22  1  0
 21 23  2  0
 23 24  1  0
  6 25  1  0
 25 26  1  0
 25 27  2  0
 27 28  1  0
 27  2  1  0
 23 14  1  0
M  END
>  <cnnaffinity>  (1) 
-4.64172

>  <filename>  (1) 
O=C(NCc1ccc(Br)cc1)c1cccnc1

$$$$
