
     RDKit          3D

 35 37  0  0  0  0  0  0  0  0999 V2000
    4.9698    1.7601   17.0197 H   0  0  0  0  0  0  0  0  0  0  0  0
    5.4266    1.2778   17.8820 C   0  0  0  0  0  0  0  0  0  0  0  0
    6.5916    0.6530   17.6537 N   0  0  0  0  0  0  0  0  0  0  0  0
    7.1776    0.0532   18.6923 C   0  0  0  0  0  0  0  0  0  0  0  0
    8.1143   -0.4568   18.4722 H   0  0  0  0  0  0  0  0  0  0  0  0
    6.6538    0.0473   19.9969 C   0  0  0  0  0  0  0  0  0  0  0  0
    7.4389   -0.7291   21.0042 C   0  0  0  0  0  0  0  0  0  0  0  0
    8.1912   -1.6108   20.6689 O   0  0  0  0  0  0  0  0  0  0  0  0
    7.2656   -0.3464   22.3262 N   0  0  0  0  0  0  0  0  0  0  0  0
    6.8628    0.5481   22.5060 H   0  0  0  0  0  0  0  0  0  0  0  0
    7.6534   -1.1263   23.3959 C   0  0  0  0  0  0  0  0  0  0  0  0
    8.0481   -2.2570   23.2717 O   0  0  0  0  0  0  0  0  0  0  0  0
    7.5378   -0.5089   24.7665 C   0  0  0  0  0  0  0  0  0  0  0  0
    7.9185   -1.2794   25.4354 H   0  0  0  0  0  0  0  0  0  0  0  0
    8.1572    0.8964   25.0195 C   0  0  0  0  0  0  0  0  0  0  0  0
    8.8464    0.9426   25.8775 H   0  0  0  0  0  0  0  0  0  0  0  0
    8.6482    1.4073   24.1769 H   0  0  0  0  0  0  0  0  0  0  0  0
    6.8157    1.3525   25.3266 N   0  0  0  0  0  0  0  0  0  0  0  0
    6.3366    2.5857   25.6995 C   0  0  0  0  0  0  0  0  0  0  0  0
    4.9614    2.8288   25.9953 C   0  0  0  0  0  0  0  0  0  0  0  0
    4.2408    2.0125   25.9674 H   0  0  0  0  0  0  0  0  0  0  0  0
    4.4522    4.0252   26.3183 N   0  0  0  0  0  0  0  0  0  0  0  0
    5.2938    5.0697   26.3711 C   0  0  0  0  0  0  0  0  0  0  0  0
    4.8505    6.0296   26.6294 H   0  0  0  0  0  0  0  0  0  0  0  0
    6.6668    4.9545   26.1158 C   0  0  0  0  0  0  0  0  0  0  0  0
    7.2977    5.8420   26.1756 H   0  0  0  0  0  0  0  0  0  0  0  0
    7.1991    3.7048   25.7817 C   0  0  0  0  0  0  0  0  0  0  0  0
    8.2649    3.5897   25.5828 H   0  0  0  0  0  0  0  0  0  0  0  0
    6.1599    0.0670   25.2057 C   0  0  0  0  0  0  0  0  0  0  0  0
    5.3305    0.0329   24.4841 H   0  0  0  0  0  0  0  0  0  0  0  0
    5.7781   -0.3318   26.1581 H   0  0  0  0  0  0  0  0  0  0  0  0
    5.4218    0.6851   20.2136 C   0  0  0  0  0  0  0  0  0  0  0  0
    4.9216    0.6723   21.1845 H   0  0  0  0  0  0  0  0  0  0  0  0
    4.8033    1.3152   19.1339 C   0  0  0  0  0  0  0  0  0  0  0  0
    3.8590    1.8404   19.2478 H   0  0  0  0  0  0  0  0  0  0  0  0
  1  2  1  0
  2  3  2  0
  3  4  1  0
  4  5  1  0
  4  6  2  0
  6  7  1  0
  7  8  2  0
  7  9  1  0
  9 10  1  0
  9 11  1  0
 11 12  2  0
 11 13  1  0
 13 14  1  0
 13 15  1  0
 15 16  1  0
 15 17  1  0
 15 18  1  0
 18 19  1  0
 19 20  2  0
 20 21  1  0
 20 22  1  0
 22 23  2  0
 23 24  1  0
 23 25  1  0
 25 26  1  0
 25 27  2  0
 27 28  1  0
 18 29  1  0
 29 30  1  0
 29 31  1  0
  6 32  1  0
 32 33  1  0
 32 34  2  0
 34 35  1  0
 34  2  1  0
 29 13  1  0
 27 19  1  0
M  END
>  <cnnaffinity>  (1) 
-4.68873

>  <filename>  (1) 
O=C(NC(=O)C1CN(c2cccnc2)C1)c1cccnc1

$$$$
