
     RDKit          3D

 32 34  0  0  0  0  0  0  0  0999 V2000
    4.9226    1.8266   16.9471 H   0  0  0  0  0  0  0  0  0  0  0  0
    5.3777    1.3357   17.8030 C   0  0  0  0  0  0  0  0  0  0  0  0
    6.5428    0.7125   17.5718 N   0  0  0  0  0  0  0  0  0  0  0  0
    7.1325    0.1121   18.6063 C   0  0  0  0  0  0  0  0  0  0  0  0
    8.0585   -0.4289   18.4133 H   0  0  0  0  0  0  0  0  0  0  0  0
    6.6196    0.1362   19.9099 C   0  0  0  0  0  0  0  0  0  0  0  0
    7.3709   -0.5954   20.9494 C   0  0  0  0  0  0  0  0  0  0  0  0
    8.0255   -1.6413   20.5436 N   0  0  0  0  0  0  0  0  0  0  0  0
    8.4963   -2.5000   21.4930 C   0  0  0  0  0  0  0  0  0  0  0  0
    8.7492   -3.6682   21.3212 O   0  0  0  0  0  0  0  0  0  0  0  0
    8.6846   -1.9891   22.7882 N   0  0  0  0  0  0  0  0  0  0  0  0
    9.0795   -2.7161   23.3618 H   0  0  0  0  0  0  0  0  0  0  0  0
    8.0431   -0.8688   23.2616 C   0  0  0  0  0  0  0  0  0  0  0  0
    8.1040   -0.5287   24.7696 C   0  0  0  0  0  0  0  0  0  0  0  0
    8.2103   -1.4254   25.5850 O   0  0  0  0  0  0  0  0  0  0  0  0
    8.0405    0.9223   25.1618 C   0  0  0  0  0  0  0  0  0  0  0  0
    8.6416    1.9132   24.3592 C   0  0  0  0  0  0  0  0  0  0  0  0
    9.1451    1.6388   23.4329 H   0  0  0  0  0  0  0  0  0  0  0  0
    8.5968    3.2546   24.7341 C   0  0  0  0  0  0  0  0  0  0  0  0
    9.0357    4.0325   24.1191 H   0  0  0  0  0  0  0  0  0  0  0  0
    7.9379    3.5935   25.9133 C   0  0  0  0  0  0  0  0  0  0  0  0
    7.8721    4.8838   26.2714 F   0  0  0  0  0  0  0  0  0  0  0  0
    7.3368    2.6401   26.7332 C   0  0  0  0  0  0  0  0  0  0  0  0
    6.8141    2.9546   27.6301 H   0  0  0  0  0  0  0  0  0  0  0  0
    7.4045    1.2990   26.3589 C   0  0  0  0  0  0  0  0  0  0  0  0
    6.9652    0.5309   26.9914 H   0  0  0  0  0  0  0  0  0  0  0  0
    7.3453   -0.1603   22.3119 C   0  0  0  0  0  0  0  0  0  0  0  0
    6.8107    0.7365   22.5604 H   0  0  0  0  0  0  0  0  0  0  0  0
    5.3833    0.7511   20.1342 C   0  0  0  0  0  0  0  0  0  0  0  0
    4.9151    0.7062   21.1187 H   0  0  0  0  0  0  0  0  0  0  0  0
    4.7545    1.3659   19.0544 C   0  0  0  0  0  0  0  0  0  0  0  0
    3.8051    1.8739   19.1700 H   0  0  0  0  0  0  0  0  0  0  0  0
  1  2  1  0
  2  3  2  0
  3  4  1  0
  4  5  1  0
  4  6  2  0
  6  7  1  0
  7  8  2  0
  8  9  1  0
  9 10  2  0
  9 11  1  0
 11 12  1  0
 11 13  1  0
 13 14  1  0
 14 15  2  0
 14 16  1  0
 16 17  2  0
 17 18  1  0
 17 19  1  0
 19 20  1  0
 19 21  2  0
 21 22  1  0
 21 23  1  0
 23 24  1  0
 23 25  2  0
 25 26  1  0
 13 27  2  0
 27 28  1  0
  6 29  1  0
 29 30  1  0
 29 31  2  0
 31 32  1  0
 31  2  1  0
 27  7  1  0
 25 16  1  0
M  END
>  <cnnaffinity>  (1) 
-5.2121

>  <filename>  (1) 
O=C(c1ccc(F)cc1)c1cc(-c2cccnc2)nc(=O)[nH]1

$$$$
