
     RDKit          3D

 37 39  0  0  0  0  0  0  0  0999 V2000
    5.2309    1.8044   16.8138 H   0  0  0  0  0  0  0  0  0  0  0  0
    5.5140    1.3010   17.7351 C   0  0  0  0  0  0  0  0  0  0  0  0
    6.5503    0.4522   17.6585 N   0  0  0  0  0  0  0  0  0  0  0  0
    6.9280   -0.1708   18.7852 C   0  0  0  0  0  0  0  0  0  0  0  0
    7.7890   -0.8275   18.6837 H   0  0  0  0  0  0  0  0  0  0  0  0
    6.3150    0.0043   20.0599 C   0  0  0  0  0  0  0  0  0  0  0  0
    6.7488   -0.6092   21.2547 N   0  0  0  0  0  0  0  0  0  0  0  0
    6.8589    0.2515   22.4426 C   0  0  0  0  0  0  0  0  0  0  0  0
    6.9460    1.2961   22.1197 H   0  0  0  0  0  0  0  0  0  0  0  0
    5.9617    0.1881   23.0802 H   0  0  0  0  0  0  0  0  0  0  0  0
    8.0548    0.0074   23.3748 C   0  0  0  0  0  0  0  0  0  0  0  0
    8.0089    0.7830   24.1435 H   0  0  0  0  0  0  0  0  0  0  0  0
    7.9447   -0.9621   23.8693 H   0  0  0  0  0  0  0  0  0  0  0  0
    9.3879    0.0660   22.7676 N   0  0  0  0  0  0  0  0  0  0  0  0
    9.9828    1.3094   22.6647 C   0  0  0  0  0  0  0  0  0  0  0  0
    9.3158    2.3366   22.5872 O   0  0  0  0  0  0  0  0  0  0  0  0
   11.4666    1.3681   22.7318 C   0  0  0  0  0  0  0  0  0  0  0  0
   12.2196    2.8671   22.3188 S   0  0  0  0  0  0  0  0  0  0  0  0
   13.7590    2.2653   22.7462 C   0  0  0  0  0  0  0  0  0  0  0  0
   14.6222    2.8970   22.5851 H   0  0  0  0  0  0  0  0  0  0  0  0
   13.7142    0.9806   23.2010 C   0  0  0  0  0  0  0  0  0  0  0  0
   14.5895    0.4163   23.5108 H   0  0  0  0  0  0  0  0  0  0  0  0
   12.3941    0.4620   23.1920 C   0  0  0  0  0  0  0  0  0  0  0  0
   12.1669   -0.5309   23.5577 H   0  0  0  0  0  0  0  0  0  0  0  0
    9.8750   -1.1641   22.1472 C   0  0  0  0  0  0  0  0  0  0  0  0
   10.8948   -1.0033   21.7794 H   0  0  0  0  0  0  0  0  0  0  0  0
    9.9131   -1.9487   22.9219 H   0  0  0  0  0  0  0  0  0  0  0  0
    9.0402   -1.6599   20.9611 C   0  0  0  0  0  0  0  0  0  0  0  0
    9.4483   -2.6381   20.6850 H   0  0  0  0  0  0  0  0  0  0  0  0
    9.2118   -0.9908   20.1108 H   0  0  0  0  0  0  0  0  0  0  0  0
    7.5312   -1.8410   21.1936 C   0  0  0  0  0  0  0  0  0  0  0  0
    7.3532   -2.4138   22.1153 H   0  0  0  0  0  0  0  0  0  0  0  0
    7.1111   -2.4515   20.3856 H   0  0  0  0  0  0  0  0  0  0  0  0
    5.2188    0.8933   20.0927 C   0  0  0  0  0  0  0  0  0  0  0  0
    4.7195    1.0674   21.0456 H   0  0  0  0  0  0  0  0  0  0  0  0
    4.8197    1.5476   18.9233 C   0  0  0  0  0  0  0  0  0  0  0  0
    4.0191    2.2825   18.9392 H   0  0  0  0  0  0  0  0  0  0  0  0
  1  2  1  0
  2  3  2  0
  3  4  1  0
  4  5  1  0
  4  6  2  0
  6  7  1  0
  7  8  1  0
  8  9  1  0
  8 10  1  0
  8 11  1  0
 11 12  1  0
 11 13  1  0
 11 14  1  0
 14 15  1  0
 15 16  2  0
 15 17  1  0
 17 18  1  0
 18 19  1  0
 19 20  1  0
 19 21  2  0
 21 22  1  0
 21 23  1  0
 23 24  1  0
 14 25  1  0
 25 26  1  0
 25 27  1  0
 25 28  1  0
 28 29  1  0
 28 30  1  0
 28 31  1  0
 31 32  1  0
 31 33  1  0
  6 34  1  0
 34 35  1  0
 34 36  2  0
 36 37  1  0
 36  2  1  0
 31  7  1  0
 23 17  2  0
M  END
>  <cnnaffinity>  (1) 
-5.29365

>  <filename>  (1) 
O=C(c1cccs1)N1CCCN(c2cccnc2)CC1

$$$$
