
     RDKit          3D

 33 35  0  0  0  0  0  0  0  0999 V2000
    5.5546   -5.7943   28.2783 H   0  0  0  0  0  0  0  0  0  0  0  0
    5.1594   -5.7562   27.3917 O   0  0  0  0  0  0  0  0  0  0  0  0
    6.0119   -4.8691   26.8469 C   0  0  0  0  0  0  0  0  0  0  0  0
    6.8982   -4.4367   27.5505 O   0  0  0  0  0  0  0  0  0  0  0  0
    5.7257   -4.5372   25.4139 C   0  0  0  0  0  0  0  0  0  0  0  0
    4.6493   -5.1412   24.7308 C   0  0  0  0  0  0  0  0  0  0  0  0
    4.0106   -5.8551   25.2485 H   0  0  0  0  0  0  0  0  0  0  0  0
    4.3997   -4.8135   23.3985 C   0  0  0  0  0  0  0  0  0  0  0  0
    3.5625   -5.2748   22.8801 H   0  0  0  0  0  0  0  0  0  0  0  0
    5.2087   -3.8863   22.7322 C   0  0  0  0  0  0  0  0  0  0  0  0
    5.0146   -3.6213   21.6982 H   0  0  0  0  0  0  0  0  0  0  0  0
    6.2918   -3.2707   23.3888 C   0  0  0  0  0  0  0  0  0  0  0  0
    7.1500   -2.2833   22.6403 C   0  0  0  0  0  0  0  0  0  0  0  0
    6.5854   -1.6064   21.6627 N   0  0  0  0  0  0  0  0  0  0  0  0
    7.3394   -0.7165   20.9473 N   0  0  0  0  0  0  0  0  0  0  0  0
    6.6419   -0.0217   19.9012 C   0  0  0  0  0  0  0  0  0  0  0  0
    7.1650    0.0380   18.5972 C   0  0  0  0  0  0  0  0  0  0  0  0
    8.1235   -0.4251   18.3771 H   0  0  0  0  0  0  0  0  0  0  0  0
    6.5550    0.6630   17.5846 N   0  0  0  0  0  0  0  0  0  0  0  0
    5.3992    1.2920   17.8466 C   0  0  0  0  0  0  0  0  0  0  0  0
    4.9291    1.7891   17.0002 H   0  0  0  0  0  0  0  0  0  0  0  0
    4.8083    1.3099   19.1155 C   0  0  0  0  0  0  0  0  0  0  0  0
    3.8787    1.8479   19.2599 H   0  0  0  0  0  0  0  0  0  0  0  0
    5.4327    0.6278   20.1657 C   0  0  0  0  0  0  0  0  0  0  0  0
    5.0216    0.5890   21.1734 H   0  0  0  0  0  0  0  0  0  0  0  0
    8.7219   -0.4059   21.2036 C   0  0  0  0  0  0  0  0  0  0  0  0
    9.3316    0.4366   20.5644 O   0  0  0  0  0  0  0  0  0  0  0  0
    9.2910   -1.2064   22.2763 C   0  0  0  0  0  0  0  0  0  0  0  0
   10.3368   -1.0071   22.4693 H   0  0  0  0  0  0  0  0  0  0  0  0
    8.5441   -2.1087   22.9628 C   0  0  0  0  0  0  0  0  0  0  0  0
    8.9752   -2.7268   23.7449 H   0  0  0  0  0  0  0  0  0  0  0  0
    6.5374   -3.6077   24.7356 C   0  0  0  0  0  0  0  0  0  0  0  0
    7.3540   -3.1438   25.2904 H   0  0  0  0  0  0  0  0  0  0  0  0
  1  2  1  0
  2  3  1  0
  3  4  2  0
  3  5  1  0
  5  6  2  0
  6  7  1  0
  6  8  1  0
  8  9  1  0
  8 10  2  0
 10 11  1  0
 10 12  1  0
 12 13  1  0
 13 14  2  0
 14 15  1  0
 15 16  1  0
 16 17  2  0
 17 18  1  0
 17 19  1  0
 19 20  2  0
 20 21  1  0
 20 22  1  0
 22 23  1  0
 22 24  2  0
 24 25  1  0
 15 26  1  0
 26 27  2  0
 26 28  1  0
 28 29  1  0
 28 30  2  0
 30 31  1  0
 12 32  2  0
 32 33  1  0
 32  5  1  0
 30 13  1  0
 24 16  1  0
M  END
>  <cnnaffinity>  (1) 
-5.24069

>  <filename>  (1) 
O=C(O)c1cccc(-c2ccc(=O)n(-c3cccnc3)n2)c1

$$$$
