
     RDKit          3D

 40 42  0  0  0  0  0  0  0  0999 V2000
    5.0566    1.2871   16.8206 H   0  0  0  0  0  0  0  0  0  0  0  0
    5.5693    0.9759   17.7270 C   0  0  0  0  0  0  0  0  0  0  0  0
    6.7370    0.3353   17.5556 N   0  0  0  0  0  0  0  0  0  0  0  0
    7.3833   -0.0739   18.6549 C   0  0  0  0  0  0  0  0  0  0  0  0
    8.3281   -0.5981   18.5102 H   0  0  0  0  0  0  0  0  0  0  0  0
    6.9183    0.1459   19.9670 C   0  0  0  0  0  0  0  0  0  0  0  0
    7.6370   -0.3739   21.1038 N   0  0  0  0  0  0  0  0  0  0  0  0
    7.9266    0.4940   22.1760 C   0  0  0  0  0  0  0  0  0  0  0  0
    7.4604    1.6137   22.2750 O   0  0  0  0  0  0  0  0  0  0  0  0
    8.8214   -0.0261   23.1460 N   0  0  0  0  0  0  0  0  0  0  0  0
    8.5298    0.1076   24.5087 N   0  0  0  0  0  0  0  0  0  0  0  0
    8.6899    1.0282   24.8903 H   0  0  0  0  0  0  0  0  0  0  0  0
    7.5187   -0.5955   25.1398 C   0  0  0  0  0  0  0  0  0  0  0  0
    6.9482   -1.5491   24.6418 O   0  0  0  0  0  0  0  0  0  0  0  0
    7.1670   -0.0505   26.5330 C   0  0  0  0  0  0  0  0  0  0  0  0
    6.0600   -0.5833   27.2262 C   0  0  0  0  0  0  0  0  0  0  0  0
    5.4347   -1.3453   26.7808 H   0  0  0  0  0  0  0  0  0  0  0  0
    5.7635   -0.1402   28.5214 C   0  0  0  0  0  0  0  0  0  0  0  0
    4.9407   -0.5880   29.0798 H   0  0  0  0  0  0  0  0  0  0  0  0
    6.4622    0.8075   29.1579 N   0  0  0  0  0  0  0  0  0  0  0  0
    7.5023    1.3343   28.4987 C   0  0  0  0  0  0  0  0  0  0  0  0
    8.0759    2.1005   29.0152 H   0  0  0  0  0  0  0  0  0  0  0  0
    7.8913    0.9499   27.2148 C   0  0  0  0  0  0  0  0  0  0  0  0
    8.7843    1.4269   26.8151 H   0  0  0  0  0  0  0  0  0  0  0  0
   10.0084   -0.8311   22.8301 C   0  0  0  0  0  0  0  0  0  0  0  0
   10.7362   -0.6793   23.6404 H   0  0  0  0  0  0  0  0  0  0  0  0
   10.4590   -0.4491   21.9000 H   0  0  0  0  0  0  0  0  0  0  0  0
    9.6552   -2.3131   22.6625 C   0  0  0  0  0  0  0  0  0  0  0  0
   10.5859   -2.8934   22.6637 H   0  0  0  0  0  0  0  0  0  0  0  0
    9.0608   -2.6260   23.5348 H   0  0  0  0  0  0  0  0  0  0  0  0
    8.8732   -2.5527   21.3648 C   0  0  0  0  0  0  0  0  0  0  0  0
    8.7053   -3.6266   21.2123 H   0  0  0  0  0  0  0  0  0  0  0  0
    9.4622   -2.1992   20.5057 H   0  0  0  0  0  0  0  0  0  0  0  0
    7.5174   -1.8378   21.3345 C   0  0  0  0  0  0  0  0  0  0  0  0
    6.9758   -2.0347   22.2748 H   0  0  0  0  0  0  0  0  0  0  0  0
    6.9195   -2.2487   20.5154 H   0  0  0  0  0  0  0  0  0  0  0  0
    5.6995    0.8173   20.1304 C   0  0  0  0  0  0  0  0  0  0  0  0
    5.3314    1.0200   21.1345 H   0  0  0  0  0  0  0  0  0  0  0  0
    5.0094    1.2270   18.9848 C   0  0  0  0  0  0  0  0  0  0  0  0
    4.0645    1.7545   19.0551 H   0  0  0  0  0  0  0  0  0  0  0  0
  1  2  1  0
  2  3  2  0
  3  4  1  0
  4  5  1  0
  4  6  2  0
  6  7  1  0
  7  8  1  0
  8  9  2  0
  8 10  1  0
 10 11  1  0
 11 12  1  0
 11 13  1  0
 13 14  2  0
 13 15  1  0
 15 16  2  0
 16 17  1  0
 16 18  1  0
 18 19  1  0
 18 20  2  0
 20 21  1  0
 21 22  1  0
 21 23  2  0
 23 24  1  0
 10 25  1  0
 25 26  1  0
 25 27  1  0
 25 28  1  0
 28 29  1  0
 28 30  1  0
 28 31  1  0
 31 32  1  0
 31 33  1  0
 31 34  1  0
 34 35  1  0
 34 36  1  0
  6 37  1  0
 37 38  1  0
 37 39  2  0
 39 40  1  0
 39  2  1  0
 34  7  1  0
 23 15  1  0
M  END
>  <cnnaffinity>  (1) 
-4.96935

>  <filename>  (1) 
O=C(NN1CCCCN(c2cccnc2)C1=O)c1ccncc1

$$$$
