
     RDKit          3D

 31 32  0  0  0  0  0  0  0  0999 V2000
    4.9439    1.7714   16.9972 H   0  0  0  0  0  0  0  0  0  0  0  0
    5.4082    1.2830   17.8506 C   0  0  0  0  0  0  0  0  0  0  0  0
    6.5729    0.6618   17.6139 N   0  0  0  0  0  0  0  0  0  0  0  0
    7.1835    0.0707   18.6494 C   0  0  0  0  0  0  0  0  0  0  0  0
    8.1192   -0.4366   18.4105 H   0  0  0  0  0  0  0  0  0  0  0  0
    6.6646    0.0641   19.9485 C   0  0  0  0  0  0  0  0  0  0  0  0
    7.3425   -0.6826   21.0241 C   0  0  0  0  0  0  0  0  0  0  0  0
    8.0124   -2.1660   20.8861 S   0  0  0  0  0  0  0  0  0  0  0  0
    7.2908   -0.1409   22.2865 N   0  0  0  0  0  0  0  0  0  0  0  0
    7.4937   -0.8221   23.0035 H   0  0  0  0  0  0  0  0  0  0  0  0
    7.4493    1.2184   22.5531 C   0  0  0  0  0  0  0  0  0  0  0  0
    7.7321    1.9972   21.6684 O   0  0  0  0  0  0  0  0  0  0  0  0
    7.2217    1.6525   24.0162 C   0  0  0  0  0  0  0  0  0  0  0  0
    6.9260    0.7714   24.6085 H   0  0  0  0  0  0  0  0  0  0  0  0
    6.0763    2.7019   24.0975 C   0  0  0  0  0  0  0  0  0  0  0  0
    6.2936    3.5124   23.3904 H   0  0  0  0  0  0  0  0  0  0  0  0
    5.1098    2.2652   23.8091 H   0  0  0  0  0  0  0  0  0  0  0  0
    5.9698    3.2896   25.5083 C   0  0  0  0  0  0  0  0  0  0  0  0
    5.6445    2.5049   26.2164 H   0  0  0  0  0  0  0  0  0  0  0  0
    5.2372    4.0990   25.5469 H   0  0  0  0  0  0  0  0  0  0  0  0
    7.1988    3.8457   25.9420 O   0  0  0  0  0  0  0  0  0  0  0  0
    8.2299    2.8754   26.0051 C   0  0  0  0  0  0  0  0  0  0  0  0
    9.1087    3.3913   26.3968 H   0  0  0  0  0  0  0  0  0  0  0  0
    7.9532    2.0820   26.7243 H   0  0  0  0  0  0  0  0  0  0  0  0
    8.5148    2.2557   24.6318 C   0  0  0  0  0  0  0  0  0  0  0  0
    9.3011    1.4944   24.7279 H   0  0  0  0  0  0  0  0  0  0  0  0
    8.8907    3.0400   23.9629 H   0  0  0  0  0  0  0  0  0  0  0  0
    5.4251    0.6863   20.1727 C   0  0  0  0  0  0  0  0  0  0  0  0
    4.9697    0.6580   21.1645 H   0  0  0  0  0  0  0  0  0  0  0  0
    4.7962    1.3142   19.1061 C   0  0  0  0  0  0  0  0  0  0  0  0
    3.8656    1.8422   19.2442 H   0  0  0  0  0  0  0  0  0  0  0  0
  1  2  1  0
  2  3  2  0
  3  4  1  0
  4  5  1  0
  4  6  2  0
  6  7  1  0
  7  8  2  0
  7  9  1  0
  9 10  1  0
  9 11  1  0
 11 12  2  0
 11 13  1  0
 13 14  1  0
 13 15  1  0
 15 16  1  0
 15 17  1  0
 15 18  1  0
 18 19  1  0
 18 20  1  0
 18 21  1  0
 21 22  1  0
 22 23  1  0
 22 24  1  0
 22 25  1  0
 25 26  1  0
 25 27  1  0
  6 28  1  0
 28 29  1  0
 28 30  2  0
 30 31  1  0
 30  2  1  0
 25 13  1  0
M  END
>  <cnnaffinity>  (1) 
-4.40638

>  <filename>  (1) 
O=C(NC(=S)c1cccnc1)C1CCOCC1

$$$$
