
     RDKit          3D

 15 15  0  0  0  0  0  0  0  0999 V2000
    5.0128    1.7580   16.9771 H   0  0  0  0  0  0  0  0  0  0  0  0
    5.4420    1.2705   17.8497 C   0  0  0  0  0  0  0  0  0  0  0  0
    6.6003    0.6244   17.6547 N   0  0  0  0  0  0  0  0  0  0  0  0
    7.1340    0.0043   18.7139 C   0  0  0  0  0  0  0  0  0  0  0  0
    8.0953   -0.4710   18.5395 H   0  0  0  0  0  0  0  0  0  0  0  0
    6.5403   -0.0427   19.9867 C   0  0  0  0  0  0  0  0  0  0  0  0
    7.3551   -0.8391   21.1134 C   0  0  0  0  0  0  0  0  0  0  0  0
    8.5658   -0.8550   20.8936 O   0  0  0  0  0  0  0  0  0  0  0  0
    6.5702   -1.3530   22.0049 N   0  0  0  0  0  0  0  0  0  0  0  0
    5.6284   -1.1198   21.6976 H   0  0  0  0  0  0  0  0  0  0  0  0
    7.9582   -1.8072   22.9511 F   0  0  0  0  0  0  0  0  0  0  0  0
    5.3538    0.6835   20.1819 C   0  0  0  0  0  0  0  0  0  0  0  0
    4.8992    0.7906   21.1742 H   0  0  0  0  0  0  0  0  0  0  0  0
    4.7914    1.3405   19.0866 C   0  0  0  0  0  0  0  0  0  0  0  0
    3.8611    1.8879   19.1844 H   0  0  0  0  0  0  0  0  0  0  0  0
  1  2  1  0
  2  3  2  0
  3  4  1  0
  4  5  1  0
  4  6  2  0
  6  7  1  0
  7  8  2  0
  7  9  1  0
  9 10  1  0
  9 11  1  0
  6 12  1  0
 12 13  1  0
 12 14  2  0
 14 15  1  0
 14  2  1  0
M  END
>  <cnnaffinity>  (1) 
-3.57245

>  <filename>  (1) 
O=C(NF)c1cccnc1

$$$$
