
     RDKit          3D

 29 30  0  0  0  0  0  0  0  0999 V2000
    5.1768    1.6448   16.9405 H   0  0  0  0  0  0  0  0  0  0  0  0
    5.6013    1.2329   17.8540 C   0  0  0  0  0  0  0  0  0  0  0  0
    6.7501    0.5550   17.7138 N   0  0  0  0  0  0  0  0  0  0  0  0
    7.2854    0.0272   18.8225 C   0  0  0  0  0  0  0  0  0  0  0  0
    8.2531   -0.4543   18.6991 H   0  0  0  0  0  0  0  0  0  0  0  0
    6.7031    0.0994   20.1078 C   0  0  0  0  0  0  0  0  0  0  0  0
    7.2828   -0.5945   21.3366 C   0  0  0  0  0  0  0  0  0  0  0  0
    6.4871   -1.0681   21.9246 H   0  0  0  0  0  0  0  0  0  0  0  0
    7.9665   -1.3920   21.0191 H   0  0  0  0  0  0  0  0  0  0  0  0
    8.0672    0.2936   22.3139 C   0  0  0  0  0  0  0  0  0  0  0  0
    7.7310    0.4284   23.4708 O   0  0  0  0  0  0  0  0  0  0  0  0
    9.3891    0.9378   21.7220 C   0  0  0  0  0  0  0  0  0  0  0  0
    9.5778    0.8728   20.5206 O   0  0  0  0  0  0  0  0  0  0  0  0
   10.2691    1.5000   22.6174 N   0  0  0  0  0  0  0  0  0  0  0  0
   10.0941    1.3612   23.6009 H   0  0  0  0  0  0  0  0  0  0  0  0
   11.3005    2.3961   22.3480 C   0  0  0  0  0  0  0  0  0  0  0  0
   11.9921    2.9632   23.4210 C   0  0  0  0  0  0  0  0  0  0  0  0
   11.7858    2.6762   24.4462 H   0  0  0  0  0  0  0  0  0  0  0  0
   12.9455    3.9362   23.1401 C   0  0  0  0  0  0  0  0  0  0  0  0
   13.5174    4.3914   23.9471 H   0  0  0  0  0  0  0  0  0  0  0  0
   13.2068    4.4017   21.9103 N   0  0  0  0  0  0  0  0  0  0  0  0
   12.5329    3.8301   20.9030 C   0  0  0  0  0  0  0  0  0  0  0  0
   12.7230    4.2259   19.9071 H   0  0  0  0  0  0  0  0  0  0  0  0
   11.6105    2.8029   21.0509 C   0  0  0  0  0  0  0  0  0  0  0  0
   11.1047    2.3581   20.2139 H   0  0  0  0  0  0  0  0  0  0  0  0
    5.5202    0.8403   20.2254 C   0  0  0  0  0  0  0  0  0  0  0  0
    5.0537    0.9666   21.2045 H   0  0  0  0  0  0  0  0  0  0  0  0
    4.9589    1.4134   19.0816 C   0  0  0  0  0  0  0  0  0  0  0  0
    4.0410    1.9896   19.1278 H   0  0  0  0  0  0  0  0  0  0  0  0
  1  2  1  0
  2  3  2  0
  3  4  1  0
  4  5  1  0
  4  6  2  0
  6  7  1  0
  7  8  1  0
  7  9  1  0
  7 10  1  0
 10 11  2  0
 10 12  1  0
 12 13  2  0
 12 14  1  0
 14 15  1  0
 14 16  1  0
 16 17  2  0
 17 18  1  0
 17 19  1  0
 19 20  1  0
 19 21  2  0
 21 22  1  0
 22 23  1  0
 22 24  2  0
 24 25  1  0
  6 26  1  0
 26 27  1  0
 26 28  2  0
 28 29  1  0
 28  2  1  0
 24 16  1  0
M  END
>  <cnnaffinity>  (1) 
-4.87567

>  <filename>  (1) 
O=C(Cc1cccnc1)C(=O)Nc1ccncc1

$$$$
