
     RDKit          3D

 38 40  0  0  0  0  0  0  0  0999 V2000
    5.0633    2.0656   16.8237 H   0  0  0  0  0  0  0  0  0  0  0  0
    5.4930    1.4558   17.6171 C   0  0  0  0  0  0  0  0  0  0  0  0
    6.6473    0.8313   17.3334 N   0  0  0  0  0  0  0  0  0  0  0  0
    7.2181    0.1010   18.2995 C   0  0  0  0  0  0  0  0  0  0  0  0
    8.1469   -0.4031   18.0362 H   0  0  0  0  0  0  0  0  0  0  0  0
    6.6681   -0.0558   19.5868 C   0  0  0  0  0  0  0  0  0  0  0  0
    7.3388   -0.8087   20.6221 N   0  0  0  0  0  0  0  0  0  0  0  0
    8.5932   -0.3963   21.0357 C   0  0  0  0  0  0  0  0  0  0  0  0
    9.0229    0.4250   20.4696 H   0  0  0  0  0  0  0  0  0  0  0  0
    9.2308   -0.9650   22.0941 C   0  0  0  0  0  0  0  0  0  0  0  0
   10.2258   -0.6241   22.3584 H   0  0  0  0  0  0  0  0  0  0  0  0
    8.5966   -2.0069   22.8539 C   0  0  0  0  0  0  0  0  0  0  0  0
    9.2725   -2.5852   24.1036 C   0  0  0  0  0  0  0  0  0  0  0  0
    8.9247   -3.6136   24.2401 H   0  0  0  0  0  0  0  0  0  0  0  0
   10.3548   -2.6151   23.9424 H   0  0  0  0  0  0  0  0  0  0  0  0
    9.0373   -1.8696   25.3557 N   0  0  0  0  0  0  0  0  0  0  0  0
    9.5735   -1.0356   25.5340 H   0  0  0  0  0  0  0  0  0  0  0  0
    7.8157   -1.8973   25.9821 C   0  0  0  0  0  0  0  0  0  0  0  0
    6.9107   -2.6270   25.6201 O   0  0  0  0  0  0  0  0  0  0  0  0
    7.6980   -0.9550   27.1534 C   0  0  0  0  0  0  0  0  0  0  0  0
    8.8166   -0.6185   27.9422 C   0  0  0  0  0  0  0  0  0  0  0  0
    9.7844   -1.0941   27.7738 H   0  0  0  0  0  0  0  0  0  0  0  0
    8.6876    0.2731   29.0083 C   0  0  0  0  0  0  0  0  0  0  0  0
    9.5478    0.4294   29.6570 H   0  0  0  0  0  0  0  0  0  0  0  0
    7.4554    0.8836   29.2670 C   0  0  0  0  0  0  0  0  0  0  0  0
    7.3610    1.6186   30.0634 H   0  0  0  0  0  0  0  0  0  0  0  0
    6.3380    0.5421   28.4946 C   0  0  0  0  0  0  0  0  0  0  0  0
    5.3839    1.0140   28.7157 H   0  0  0  0  0  0  0  0  0  0  0  0
    6.4412   -0.4105   27.4772 C   0  0  0  0  0  0  0  0  0  0  0  0
    5.5545   -0.7247   26.9255 H   0  0  0  0  0  0  0  0  0  0  0  0
    7.3854   -2.4642   22.4161 C   0  0  0  0  0  0  0  0  0  0  0  0
    6.8469   -3.2633   22.9079 H   0  0  0  0  0  0  0  0  0  0  0  0
    6.6799   -1.9172   21.2665 C   0  0  0  0  0  0  0  0  0  0  0  0
    5.6259   -2.3750   20.8606 O   0  0  0  0  0  0  0  0  0  0  0  0
    5.4482    0.5707   19.8574 C   0  0  0  0  0  0  0  0  0  0  0  0
    4.9821    0.4373   20.8304 H   0  0  0  0  0  0  0  0  0  0  0  0
    4.8603    1.3501   18.8579 C   0  0  0  0  0  0  0  0  0  0  0  0
    3.9343    1.8817   19.0347 H   0  0  0  0  0  0  0  0  0  0  0  0
  1  2  1  0
  2  3  2  0
  3  4  1  0
  4  5  1  0
  4  6  2  0
  6  7  1  0
  7  8  1  0
  8  9  1  0
  8 10  2  0
 10 11  1  0
 10 12  1  0
 12 13  1  0
 13 14  1  0
 13 15  1  0
 13 16  1  0
 16 17  1  0
 16 18  1  0
 18 19  2  0
 18 20  1  0
 20 21  2  0
 21 22  1  0
 21 23  1  0
 23 24  1  0
 23 25  2  0
 25 26  1  0
 25 27  1  0
 27 28  1  0
 27 29  2  0
 29 30  1  0
 12 31  2  0
 31 32  1  0
 31 33  1  0
 33 34  2  0
  6 35  1  0
 35 36  1  0
 35 37  2  0
 37 38  1  0
 37  2  1  0
 33  7  1  0
 29 20  1  0
M  END
>  <cnnaffinity>  (1) 
-4.90148

>  <filename>  (1) 
O=C(NCc1ccn(-c2cccnc2)c(=O)c1)c1ccccc1

$$$$
