
     RDKit          3D

 35 36  0  0  0  0  0  0  0  0999 V2000
    8.4771   -0.3246   21.1495 H   0  0  0  0  0  0  0  0  0  0  0  0
    7.4639   -0.6650   20.9645 C   0  0  0  0  0  0  0  0  0  0  0  0
    7.0344   -1.7284   21.7248 C   0  0  0  0  0  0  0  0  0  0  0  0
    5.3861   -2.6471   21.4040 Br  0  0  0  0  0  0  0  0  0  0  0  0
    7.8534   -2.2322   22.7304 N   0  0  0  0  0  0  0  0  0  0  0  0
    8.5431   -1.6454   23.1888 H   0  0  0  0  0  0  0  0  0  0  0  0
    7.6185   -3.4818   23.2637 C   0  0  0  0  0  0  0  0  0  0  0  0
    6.8778   -4.2803   22.7050 O   0  0  0  0  0  0  0  0  0  0  0  0
    8.3009   -3.8637   24.5677 C   0  0  0  0  0  0  0  0  0  0  0  0
    8.6433   -2.9468   25.0524 H   0  0  0  0  0  0  0  0  0  0  0  0
    9.5198   -4.7419   24.2628 C   0  0  0  0  0  0  0  0  0  0  0  0
   10.2200   -4.1969   23.6182 H   0  0  0  0  0  0  0  0  0  0  0  0
    9.1955   -5.6491   23.7385 H   0  0  0  0  0  0  0  0  0  0  0  0
   10.2376   -5.1257   25.5511 C   0  0  0  0  0  0  0  0  0  0  0  0
   10.6514   -4.2256   26.0170 H   0  0  0  0  0  0  0  0  0  0  0  0
   11.0641   -5.8035   25.3193 H   0  0  0  0  0  0  0  0  0  0  0  0
    9.2919   -5.7985   26.5381 C   0  0  0  0  0  0  0  0  0  0  0  0
    9.0023   -6.7861   26.1578 H   0  0  0  0  0  0  0  0  0  0  0  0
    9.8198   -5.9047   27.4830 H   0  0  0  0  0  0  0  0  0  0  0  0
    8.0455   -4.9707   26.8149 C   0  0  0  0  0  0  0  0  0  0  0  0
    7.3665   -5.5453   27.4551 H   0  0  0  0  0  0  0  0  0  0  0  0
    8.3429   -4.0621   27.3501 H   0  0  0  0  0  0  0  0  0  0  0  0
    7.3277   -4.5858   25.5241 C   0  0  0  0  0  0  0  0  0  0  0  0
    6.9318   -5.4902   25.0445 H   0  0  0  0  0  0  0  0  0  0  0  0
    6.4802   -3.9329   25.7706 H   0  0  0  0  0  0  0  0  0  0  0  0
    6.6882   -0.0067   19.8933 C   0  0  0  0  0  0  0  0  0  0  0  0
    7.1943    0.0609   18.5833 C   0  0  0  0  0  0  0  0  0  0  0  0
    8.1491   -0.4140   18.3813 H   0  0  0  0  0  0  0  0  0  0  0  0
    6.5648    0.6782   17.5635 N   0  0  0  0  0  0  0  0  0  0  0  0
    5.3954    1.2887   17.8229 C   0  0  0  0  0  0  0  0  0  0  0  0
    4.8890    1.8240   17.0232 H   0  0  0  0  0  0  0  0  0  0  0  0
    4.8190    1.2713   19.0956 C   0  0  0  0  0  0  0  0  0  0  0  0
    3.8874    1.8048   19.2485 H   0  0  0  0  0  0  0  0  0  0  0  0
    5.4595    0.6099   20.1481 C   0  0  0  0  0  0  0  0  0  0  0  0
    5.0262    0.6110   21.1441 H   0  0  0  0  0  0  0  0  0  0  0  0
  1  2  1  0
  2  3  2  3
  3  4  1  0
  3  5  1  0
  5  6  1  0
  5  7  1  0
  7  8  2  0
  7  9  1  0
  9 10  1  0
  9 11  1  0
 11 12  1  0
 11 13  1  0
 11 14  1  0
 14 15  1  0
 14 16  1  0
 14 17  1  0
 17 18  1  0
 17 19  1  0
 17 20  1  0
 20 21  1  0
 20 22  1  0
 20 23  1  0
 23 24  1  0
 23 25  1  0
  2 26  1  0
 26 27  2  0
 27 28  1  0
 27 29  1  0
 29 30  2  0
 30 31  1  0
 30 32  1  0
 32 33  1  0
 32 34  2  0
 34 35  1  0
 23  9  1  0
 34 26  1  0
M  END
>  <cnnaffinity>  (1) 
-4.86391

>  <filename>  (1) 
O=C(NC(Br)=Cc1cccnc1)C1CCCCC1

$$$$
