
     RDKit          3D

 30 32  0  0  0  0  0  0  0  0999 V2000
   10.0002   -0.9964   22.8416 H   0  0  0  0  0  0  0  0  0  0  0  0
    9.0167   -1.0945   22.4028 C   0  0  0  0  0  0  0  0  0  0  0  0
    8.6983   -0.5147   21.2135 N   0  0  0  0  0  0  0  0  0  0  0  0
    7.4377   -0.8253   21.0507 C   0  0  0  0  0  0  0  0  0  0  0  0
    6.5976   -0.2143   20.0246 C   0  0  0  0  0  0  0  0  0  0  0  0
    7.1821   -0.1330   18.7560 C   0  0  0  0  0  0  0  0  0  0  0  0
    8.1393   -0.6224   18.5730 H   0  0  0  0  0  0  0  0  0  0  0  0
    6.6395    0.5183   17.7282 N   0  0  0  0  0  0  0  0  0  0  0  0
    5.4833    1.1625   17.9522 C   0  0  0  0  0  0  0  0  0  0  0  0
    5.0838    1.7203   17.1074 H   0  0  0  0  0  0  0  0  0  0  0  0
    4.8167    1.1530   19.1821 C   0  0  0  0  0  0  0  0  0  0  0  0
    3.9024    1.7272   19.2946 H   0  0  0  0  0  0  0  0  0  0  0  0
    5.3686    0.4345   20.2447 C   0  0  0  0  0  0  0  0  0  0  0  0
    4.8703    0.4090   21.2161 H   0  0  0  0  0  0  0  0  0  0  0  0
    7.0348   -1.6619   22.0417 N   0  0  0  0  0  0  0  0  0  0  0  0
    5.9407   -2.5646   21.8654 C   0  0  0  0  0  0  0  0  0  0  0  0
    5.4702   -2.7606   20.7689 O   0  0  0  0  0  0  0  0  0  0  0  0
    5.5696   -3.1316   23.0519 N   0  0  0  0  0  0  0  0  0  0  0  0
    5.9025   -2.5969   23.8370 H   0  0  0  0  0  0  0  0  0  0  0  0
    4.3858   -3.8317   23.2420 C   0  0  0  0  0  0  0  0  0  0  0  0
    3.9697   -4.7798   22.3196 C   0  0  0  0  0  0  0  0  0  0  0  0
    4.6205   -5.0115   21.4925 H   0  0  0  0  0  0  0  0  0  0  0  0
    2.7145   -5.3522   22.5002 C   0  0  0  0  0  0  0  0  0  0  0  0
    2.3254   -6.0738   21.7863 H   0  0  0  0  0  0  0  0  0  0  0  0
    1.9028   -5.0559   23.5234 N   0  0  0  0  0  0  0  0  0  0  0  0
    2.3634   -4.1911   24.4346 C   0  0  0  0  0  0  0  0  0  0  0  0
    1.7020   -3.9830   25.2703 H   0  0  0  0  0  0  0  0  0  0  0  0
    3.6028   -3.5680   24.3560 C   0  0  0  0  0  0  0  0  0  0  0  0
    3.9372   -2.8823   25.1204 H   0  0  0  0  0  0  0  0  0  0  0  0
    8.0613   -1.7964   22.9676 N   0  0  0  0  0  0  0  0  0  0  0  0
  1  2  1  0
  2  3  1  0
  3  4  2  0
  4  5  1  0
  5  6  2  0
  6  7  1  0
  6  8  1  0
  8  9  2  0
  9 10  1  0
  9 11  1  0
 11 12  1  0
 11 13  2  0
 13 14  1  0
  4 15  1  0
 15 16  1  0
 16 17  2  0
 16 18  1  0
 18 19  1  0
 18 20  1  0
 20 21  2  0
 21 22  1  0
 21 23  1  0
 23 24  1  0
 23 25  2  0
 25 26  1  0
 26 27  1  0
 26 28  2  0
 28 29  1  0
 15 30  1  0
 30  2  2  0
 13  5  1  0
 28 20  1  0
M  END
>  <cnnaffinity>  (1) 
-5.1708

>  <filename>  (1) 
O=C(Nc1ccncc1)n1ncnc1-c1cccnc1

$$$$
