
     RDKit          3D

 38 41  0  0  0  0  0  0  0  0999 V2000
    4.9650    1.7617   17.0062 H   0  0  0  0  0  0  0  0  0  0  0  0
    5.4195    1.2745   17.8668 C   0  0  0  0  0  0  0  0  0  0  0  0
    6.5828    0.6463   17.6407 N   0  0  0  0  0  0  0  0  0  0  0  0
    7.1822    0.0491   18.6778 C   0  0  0  0  0  0  0  0  0  0  0  0
    8.1161   -0.4605   18.4413 H   0  0  0  0  0  0  0  0  0  0  0  0
    6.6655    0.0556   19.9838 C   0  0  0  0  0  0  0  0  0  0  0  0
    7.4360   -0.6755   21.0473 C   0  0  0  0  0  0  0  0  0  0  0  0
    8.0467   -1.7024   20.7989 O   0  0  0  0  0  0  0  0  0  0  0  0
    7.4359   -0.1358   22.3011 N   0  0  0  0  0  0  0  0  0  0  0  0
    8.0792   -0.6829   23.4895 C   0  0  0  0  0  0  0  0  0  0  0  0
    9.1394   -0.9205   23.3464 H   0  0  0  0  0  0  0  0  0  0  0  0
    7.6119   -1.5934   23.8866 H   0  0  0  0  0  0  0  0  0  0  0  0
    7.7678    0.6569   24.2363 C   0  0  0  0  0  0  0  0  0  0  0  0
    8.6855    1.1934   24.5038 H   0  0  0  0  0  0  0  0  0  0  0  0
    6.8409    0.5907   25.4326 C   0  0  0  0  0  0  0  0  0  0  0  0
    5.5984   -0.0918   25.3054 C   0  0  0  0  0  0  0  0  0  0  0  0
    5.4074   -0.5598   24.3538 H   0  0  0  0  0  0  0  0  0  0  0  0
    4.7033   -0.1777   26.3425 C   0  0  0  0  0  0  0  0  0  0  0  0
    3.7575   -0.6948   26.2150 H   0  0  0  0  0  0  0  0  0  0  0  0
    5.0075    0.4063   27.6071 C   0  0  0  0  0  0  0  0  0  0  0  0
    4.1154    0.3313   28.7208 C   0  0  0  0  0  0  0  0  0  0  0  0
    3.1687   -0.1896   28.5959 H   0  0  0  0  0  0  0  0  0  0  0  0
    4.4486    0.9014   29.9281 C   0  0  0  0  0  0  0  0  0  0  0  0
    3.7689    0.8401   30.7746 H   0  0  0  0  0  0  0  0  0  0  0  0
    5.6947    1.5750   30.0799 C   0  0  0  0  0  0  0  0  0  0  0  0
    5.9440    2.0166   31.0391 H   0  0  0  0  0  0  0  0  0  0  0  0
    6.5760    1.6627   29.0276 C   0  0  0  0  0  0  0  0  0  0  0  0
    7.5314    2.1691   29.1363 H   0  0  0  0  0  0  0  0  0  0  0  0
    6.2628    1.0851   27.7616 C   0  0  0  0  0  0  0  0  0  0  0  0
    7.1578    1.1596   26.6482 C   0  0  0  0  0  0  0  0  0  0  0  0
    8.1082    1.6729   26.7842 H   0  0  0  0  0  0  0  0  0  0  0  0
    7.1614    1.1775   22.8917 C   0  0  0  0  0  0  0  0  0  0  0  0
    6.1006    1.4489   22.9295 H   0  0  0  0  0  0  0  0  0  0  0  0
    7.6857    2.0104   22.4096 H   0  0  0  0  0  0  0  0  0  0  0  0
    5.4319    0.6908   20.1964 C   0  0  0  0  0  0  0  0  0  0  0  0
    4.9484    0.6780   21.1736 H   0  0  0  0  0  0  0  0  0  0  0  0
    4.8058    1.3151   19.1217 C   0  0  0  0  0  0  0  0  0  0  0  0
    3.8633    1.8364   19.2420 H   0  0  0  0  0  0  0  0  0  0  0  0
  1  2  1  0
  2  3  2  0
  3  4  1  0
  4  5  1  0
  4  6  2  0
  6  7  1  0
  7  8  2  0
  7  9  1  0
  9 10  1  0
 10 11  1  0
 10 12  1  0
 10 13  1  0
 13 14  1  0
 13 15  1  0
 15 16  2  0
 16 17  1  0
 16 18  1  0
 18 19  1  0
 18 20  2  0
 20 21  1  0
 21 22  1  0
 21 23  2  0
 23 24  1  0
 23 25  1  0
 25 26  1  0
 25 27  2  0
 27 28  1  0
 27 29  1  0
 29 30  2  0
 30 31  1  0
 13 32  1  0
 32 33  1  0
 32 34  1  0
  6 35  1  0
 35 36  1  0
 35 37  2  0
 37 38  1  0
 37  2  1  0
 32  9  1  0
 30 15  1  0
 29 20  1  0
M  END
>  <cnnaffinity>  (1) 
-4.83179

>  <filename>  (1) 
O=C(c1cccnc1)N1CC(c2ccc3ccccc3c2)C1

$$$$
