
     RDKit          3D

 35 37  0  0  0  0  0  0  0  0999 V2000
    4.9431    1.8359   16.9573 H   0  0  0  0  0  0  0  0  0  0  0  0
    5.3902    1.3120   17.8002 C   0  0  0  0  0  0  0  0  0  0  0  0
    6.5439    0.6680   17.5650 N   0  0  0  0  0  0  0  0  0  0  0  0
    7.1260    0.0439   18.6017 C   0  0  0  0  0  0  0  0  0  0  0  0
    8.0614   -0.4689   18.3700 H   0  0  0  0  0  0  0  0  0  0  0  0
    6.6011    0.0087   19.9121 C   0  0  0  0  0  0  0  0  0  0  0  0
    7.3302   -0.6816   21.0049 C   0  0  0  0  0  0  0  0  0  0  0  0
    8.6576   -0.6165   21.4047 C   0  0  0  0  0  0  0  0  0  0  0  0
    9.7832    0.2678   20.9019 C   0  0  0  0  0  0  0  0  0  0  0  0
    9.4326    0.8630   20.0562 H   0  0  0  0  0  0  0  0  0  0  0  0
   10.6286   -0.3390   20.5643 H   0  0  0  0  0  0  0  0  0  0  0  0
   10.4101    1.2235   21.9333 C   0  0  0  0  0  0  0  0  0  0  0  0
   11.5291    1.0229   22.3807 O   0  0  0  0  0  0  0  0  0  0  0  0
    9.6750    2.3125   22.3033 N   0  0  0  0  0  0  0  0  0  0  0  0
    8.4206    2.7425   21.6996 C   0  0  0  0  0  0  0  0  0  0  0  0
    8.5776    2.9526   20.6407 H   0  0  0  0  0  0  0  0  0  0  0  0
    7.6601    1.9579   21.7678 H   0  0  0  0  0  0  0  0  0  0  0  0
    8.0215    3.9946   22.4803 C   0  0  0  0  0  0  0  0  0  0  0  0
    7.5715    4.7501   21.8271 H   0  0  0  0  0  0  0  0  0  0  0  0
    7.2812    3.7170   23.2328 H   0  0  0  0  0  0  0  0  0  0  0  0
    9.3067    4.4968   23.1488 C   0  0  0  0  0  0  0  0  0  0  0  0
    9.7846    5.2676   22.5391 H   0  0  0  0  0  0  0  0  0  0  0  0
    9.1130    4.9319   24.1328 H   0  0  0  0  0  0  0  0  0  0  0  0
   10.2225    3.2760   23.2557 C   0  0  0  0  0  0  0  0  0  0  0  0
   11.2545    3.5027   22.9780 H   0  0  0  0  0  0  0  0  0  0  0  0
   10.2462    2.8405   24.2614 H   0  0  0  0  0  0  0  0  0  0  0  0
    8.7560   -1.5594   22.4584 C   0  0  0  0  0  0  0  0  0  0  0  0
    9.6497   -1.8013   23.0208 H   0  0  0  0  0  0  0  0  0  0  0  0
    7.5978   -2.1466   22.7218 N   0  0  0  0  0  0  0  0  0  0  0  0
    6.7475   -1.5951   21.8365 N   0  0  0  0  0  0  0  0  0  0  0  0
    5.7712   -1.8536   21.8732 H   0  0  0  0  0  0  0  0  0  0  0  0
    5.3740    0.6689   20.1180 C   0  0  0  0  0  0  0  0  0  0  0  0
    4.9181    0.6870   21.1087 H   0  0  0  0  0  0  0  0  0  0  0  0
    4.7674    1.3350   19.0516 C   0  0  0  0  0  0  0  0  0  0  0  0
    3.8393    1.8849   19.1798 H   0  0  0  0  0  0  0  0  0  0  0  0
  1  2  1  0
  2  3  2  0
  3  4  1  0
  4  5  1  0
  4  6  2  0
  6  7  1  0
  7  8  2  0
  8  9  1  0
  9 10  1  0
  9 11  1  0
  9 12  1  0
 12 13  2  0
 12 14  1  0
 14 15  1  0
 15 16  1  0
 15 17  1  0
 15 18  1  0
 18 19  1  0
 18 20  1  0
 18 21  1  0
 21 22  1  0
 21 23  1  0
 21 24  1  0
 24 25  1  0
 24 26  1  0
  8 27  1  0
 27 28  1  0
 27 29  2  0
 29 30  1  0
 30 31  1  0
  6 32  1  0
 32 33  1  0
 32 34  2  0
 34 35  1  0
 34  2  1  0
 30  7  1  0
 24 14  1  0
M  END
>  <cnnaffinity>  (1) 
-5.0294

>  <filename>  (1) 
O=C(Cc1cn[nH]c1-c1cccnc1)N1CCCC1

$$$$
