
     RDKit          3D

 22 22  0  0  0  0  0  0  0  0999 V2000
    9.6567   -4.2276   25.3590 H   0  0  0  0  0  0  0  0  0  0  0  0
    9.0969   -3.6100   24.8662 O   0  0  0  0  0  0  0  0  0  0  0  0
    9.0995   -4.1031   23.5968 N   0  0  0  0  0  0  0  0  0  0  0  0
    8.4298   -3.3681   22.8105 C   0  0  0  0  0  0  0  0  0  0  0  0
    8.3218   -3.6414   21.7746 H   0  0  0  0  0  0  0  0  0  0  0  0
    7.5649   -1.8993   23.3321 S   0  0  0  0  0  0  0  0  0  0  0  0
    8.5005   -0.8767   23.7195 O   0  0  0  0  0  0  0  0  0  0  0  0
    6.4204   -2.2400   24.1518 O   0  0  0  0  0  0  0  0  0  0  0  0
    6.7601   -1.5068   21.9463 N   0  0  0  0  0  0  0  0  0  0  0  0
    5.8088   -1.3320   22.2344 H   0  0  0  0  0  0  0  0  0  0  0  0
    7.4401   -0.8017   20.9903 C   0  0  0  0  0  0  0  0  0  0  0  0
    8.6371   -0.9350   20.8932 O   0  0  0  0  0  0  0  0  0  0  0  0
    6.6259   -0.0352   20.0254 C   0  0  0  0  0  0  0  0  0  0  0  0
    7.1887    0.0004   18.7394 C   0  0  0  0  0  0  0  0  0  0  0  0
    8.1475   -0.4895   18.5645 H   0  0  0  0  0  0  0  0  0  0  0  0
    6.6155    0.5987   17.6966 N   0  0  0  0  0  0  0  0  0  0  0  0
    5.4543    1.2297   17.9173 C   0  0  0  0  0  0  0  0  0  0  0  0
    5.0167    1.7378   17.0630 H   0  0  0  0  0  0  0  0  0  0  0  0
    4.8205    1.2740   19.1634 C   0  0  0  0  0  0  0  0  0  0  0  0
    3.8933    1.8203   19.2755 H   0  0  0  0  0  0  0  0  0  0  0  0
    5.4074    0.6273   20.2507 C   0  0  0  0  0  0  0  0  0  0  0  0
    4.9288    0.6768   21.2352 H   0  0  0  0  0  0  0  0  0  0  0  0
  1  2  1  0
  2  3  1  0
  3  4  2  3
  4  5  1  0
  4  6  1  0
  6  7  2  0
  6  8  2  0
  6  9  1  0
  9 10  1  0
  9 11  1  0
 11 12  2  0
 11 13  1  0
 13 14  2  0
 14 15  1  0
 14 16  1  0
 16 17  2  0
 17 18  1  0
 17 19  1  0
 19 20  1  0
 19 21  2  0
 21 22  1  0
 21 13  1  0
M  END
>  <cnnaffinity>  (1) 
-4.43984

>  <filename>  (1) 
O=C(NS(=O)(=O)C=NO)c1cccnc1

$$$$
