
     RDKit          3D

 31 33  0  0  0  0  0  0  0  0999 V2000
    4.9209    1.8158   16.8066 H   0  0  0  0  0  0  0  0  0  0  0  0
    5.4347    1.3560   17.6504 C   0  0  0  0  0  0  0  0  0  0  0  0
    6.6093    0.7656   17.3882 N   0  0  0  0  0  0  0  0  0  0  0  0
    7.2746    0.1948   18.3989 C   0  0  0  0  0  0  0  0  0  0  0  0
    8.2233   -0.2742   18.1294 H   0  0  0  0  0  0  0  0  0  0  0  0
    6.7725    0.1459   19.7032 C   0  0  0  0  0  0  0  0  0  0  0  0
    7.4885   -0.6509   20.7186 C   0  0  0  0  0  0  0  0  0  0  0  0
    8.7921   -0.5882   20.7336 N   0  0  0  0  0  0  0  0  0  0  0  0
    9.4526   -1.2625   21.7227 C   0  0  0  0  0  0  0  0  0  0  0  0
   10.6532   -1.2927   21.8836 O   0  0  0  0  0  0  0  0  0  0  0  0
    8.6912   -1.9963   22.6557 N   0  0  0  0  0  0  0  0  0  0  0  0
    9.3366   -2.3797   23.3265 H   0  0  0  0  0  0  0  0  0  0  0  0
    7.3233   -2.1387   22.6176 C   0  0  0  0  0  0  0  0  0  0  0  0
    6.4824   -2.9515   23.6270 C   0  0  0  0  0  0  0  0  0  0  0  0
    5.4291   -3.4632   23.2974 O   0  0  0  0  0  0  0  0  0  0  0  0
    7.0393   -3.0714   25.0345 C   0  0  0  0  0  0  0  0  0  0  0  0
    6.8086   -4.2232   25.8056 C   0  0  0  0  0  0  0  0  0  0  0  0
    6.1094   -4.9894   25.4817 H   0  0  0  0  0  0  0  0  0  0  0  0
    7.4991   -4.3722   27.0119 C   0  0  0  0  0  0  0  0  0  0  0  0
    7.3784   -5.2741   27.6046 H   0  0  0  0  0  0  0  0  0  0  0  0
    8.3339   -3.4529   27.5139 N   0  0  0  0  0  0  0  0  0  0  0  0
    8.4734   -2.3146   26.8281 C   0  0  0  0  0  0  0  0  0  0  0  0
    9.1384   -1.5727   27.2607 H   0  0  0  0  0  0  0  0  0  0  0  0
    7.8398   -2.0618   25.6072 C   0  0  0  0  0  0  0  0  0  0  0  0
    7.9792   -1.0948   25.1289 H   0  0  0  0  0  0  0  0  0  0  0  0
    6.7124   -1.4628   21.5975 C   0  0  0  0  0  0  0  0  0  0  0  0
    5.6503   -1.5626   21.4425 H   0  0  0  0  0  0  0  0  0  0  0  0
    5.5576    0.7937   19.9735 C   0  0  0  0  0  0  0  0  0  0  0  0
    5.1641    0.8209   20.9893 H   0  0  0  0  0  0  0  0  0  0  0  0
    4.8727    1.4062   18.9283 C   0  0  0  0  0  0  0  0  0  0  0  0
    3.9276    1.9111   19.0875 H   0  0  0  0  0  0  0  0  0  0  0  0
  1  2  1  0
  2  3  2  0
  3  4  1  0
  4  5  1  0
  4  6  2  0
  6  7  1  0
  7  8  2  0
  8  9  1  0
  9 10  2  0
  9 11  1  0
 11 12  1  0
 11 13  1  0
 13 14  1  0
 14 15  2  0
 14 16  1  0
 16 17  2  0
 17 18  1  0
 17 19  1  0
 19 20  1  0
 19 21  2  0
 21 22  1  0
 22 23  1  0
 22 24  2  0
 24 25  1  0
 13 26  2  0
 26 27  1  0
  6 28  1  0
 28 29  1  0
 28 30  2  0
 30 31  1  0
 30  2  1  0
 26  7  1  0
 24 16  1  0
M  END
>  <cnnaffinity>  (1) 
-5.00971

>  <filename>  (1) 
O=C(c1ccncc1)c1cc(-c2cccnc2)nc(=O)[nH]1

$$$$
