
     RDKit          3D

 21 21  0  0  0  0  0  0  0  0999 V2000
    9.6877   -2.7694   23.3297 H   0  0  0  0  0  0  0  0  0  0  0  0
    9.2181   -1.9588   23.0897 O   0  0  0  0  0  0  0  0  0  0  0  0
    7.8808   -2.6277   22.5959 P   0  0  0  0  0  0  0  0  0  0  0  0
    8.3016   -3.7067   21.6842 O   0  0  0  0  0  0  0  0  0  0  0  0
    7.3559   -3.4010   23.8762 O   0  0  0  0  0  0  0  0  0  0  0  0
    8.0253   -4.1014   23.9156 H   0  0  0  0  0  0  0  0  0  0  0  0
    6.7103   -1.4392   21.8043 C   0  0  0  0  0  0  0  0  0  0  0  0
    6.4053   -0.3331   22.5635 F   0  0  0  0  0  0  0  0  0  0  0  0
    5.5457   -2.0539   21.4050 F   0  0  0  0  0  0  0  0  0  0  0  0
    7.5108   -1.0004   20.5896 C   0  0  0  0  0  0  0  0  0  0  0  0
    8.6781   -1.3469   20.4026 O   0  0  0  0  0  0  0  0  0  0  0  0
    6.8881   -0.1405   19.5913 C   0  0  0  0  0  0  0  0  0  0  0  0
    7.5398    0.0316   18.3713 C   0  0  0  0  0  0  0  0  0  0  0  0
    8.4855   -0.4788   18.2047 H   0  0  0  0  0  0  0  0  0  0  0  0
    7.0477    0.7941   17.3880 N   0  0  0  0  0  0  0  0  0  0  0  0
    5.8812    1.4294   17.5861 C   0  0  0  0  0  0  0  0  0  0  0  0
    5.4866    2.0545   16.7908 H   0  0  0  0  0  0  0  0  0  0  0  0
    5.1730    1.3166   18.7822 C   0  0  0  0  0  0  0  0  0  0  0  0
    4.2426    1.8627   18.8989 H   0  0  0  0  0  0  0  0  0  0  0  0
    5.6643    0.5154   19.8076 C   0  0  0  0  0  0  0  0  0  0  0  0
    5.1039    0.4137   20.7376 H   0  0  0  0  0  0  0  0  0  0  0  0
  1  2  1  0
  2  3  1  0
  3  4  2  0
  3  5  1  0
  5  6  1  0
  3  7  1  0
  7  8  1  0
  7  9  1  0
  7 10  1  0
 10 11  2  0
 10 12  1  0
 12 13  2  0
 13 14  1  0
 13 15  1  0
 15 16  2  0
 16 17  1  0
 16 18  1  0
 18 19  1  0
 18 20  2  0
 20 21  1  0
 20 12  1  0
M  END
>  <cnnaffinity>  (1) 
-3.72495

>  <filename>  (1) 
O=C(c1cccnc1)C(F)(F)P(=O)(O)O

$$$$
