
     RDKit          3D

 33 35  0  0  0  0  0  0  0  0999 V2000
    4.9366    1.7755   17.0068 H   0  0  0  0  0  0  0  0  0  0  0  0
    5.4097    1.2787   17.8505 C   0  0  0  0  0  0  0  0  0  0  0  0
    6.5698    0.6584   17.5909 N   0  0  0  0  0  0  0  0  0  0  0  0
    7.1915    0.0596   18.6099 C   0  0  0  0  0  0  0  0  0  0  0  0
    8.1407   -0.4209   18.3745 H   0  0  0  0  0  0  0  0  0  0  0  0
    6.6797    0.0174   19.9121 C   0  0  0  0  0  0  0  0  0  0  0  0
    7.4523   -0.6925   20.9508 C   0  0  0  0  0  0  0  0  0  0  0  0
    8.7496   -0.6726   20.8518 N   0  0  0  0  0  0  0  0  0  0  0  0
    9.4711   -1.3050   21.8325 C   0  0  0  0  0  0  0  0  0  0  0  0
   10.6752   -1.3751   21.9024 O   0  0  0  0  0  0  0  0  0  0  0  0
    8.7653   -1.9588   22.8604 N   0  0  0  0  0  0  0  0  0  0  0  0
    9.4370   -2.4173   23.4526 H   0  0  0  0  0  0  0  0  0  0  0  0
    7.4022   -2.0316   22.9761 C   0  0  0  0  0  0  0  0  0  0  0  0
    6.7845   -2.8634   24.1651 C   0  0  0  0  0  0  0  0  0  0  0  0
    7.3756   -3.8031   24.6654 O   0  0  0  0  0  0  0  0  0  0  0  0
    5.5509   -2.4507   24.5939 N   0  0  0  0  0  0  0  0  0  0  0  0
    5.0911   -1.7059   24.1021 H   0  0  0  0  0  0  0  0  0  0  0  0
    4.8748   -2.9931   25.6871 C   0  0  0  0  0  0  0  0  0  0  0  0
    3.4887   -3.1310   25.6605 C   0  0  0  0  0  0  0  0  0  0  0  0
    2.9064   -2.8216   24.8015 H   0  0  0  0  0  0  0  0  0  0  0  0
    2.8768   -3.7286   26.7598 C   0  0  0  0  0  0  0  0  0  0  0  0
    1.7971   -3.8776   26.7765 H   0  0  0  0  0  0  0  0  0  0  0  0
    3.5351   -4.1510   27.8460 N   0  0  0  0  0  0  0  0  0  0  0  0
    4.8661   -3.9763   27.8591 C   0  0  0  0  0  0  0  0  0  0  0  0
    5.3887   -4.3231   28.7513 H   0  0  0  0  0  0  0  0  0  0  0  0
    5.5812   -3.4061   26.8158 C   0  0  0  0  0  0  0  0  0  0  0  0
    6.6546   -3.2922   26.8573 H   0  0  0  0  0  0  0  0  0  0  0  0
    6.7214   -1.3818   21.9806 C   0  0  0  0  0  0  0  0  0  0  0  0
    5.6520   -1.4307   21.8657 H   0  0  0  0  0  0  0  0  0  0  0  0
    5.4525    0.6482   20.1665 C   0  0  0  0  0  0  0  0  0  0  0  0
    5.0129    0.6414   21.1666 H   0  0  0  0  0  0  0  0  0  0  0  0
    4.8177    1.3023   19.1164 C   0  0  0  0  0  0  0  0  0  0  0  0
    3.8843    1.8324   19.2600 H   0  0  0  0  0  0  0  0  0  0  0  0
  1  2  1  0
  2  3  2  0
  3  4  1  0
  4  5  1  0
  4  6  2  0
  6  7  1  0
  7  8  2  0
  8  9  1  0
  9 10  2  0
  9 11  1  0
 11 12  1  0
 11 13  1  0
 13 14  1  0
 14 15  2  0
 14 16  1  0
 16 17  1  0
 16 18  1  0
 18 19  2  0
 19 20  1  0
 19 21  1  0
 21 22  1  0
 21 23  2  0
 23 24  1  0
 24 25  1  0
 24 26  2  0
 26 27  1  0
 13 28  2  0
 28 29  1  0
  6 30  1  0
 30 31  1  0
 30 32  2  0
 32 33  1  0
 32  2  1  0
 28  7  1  0
 26 18  1  0
M  END
>  <cnnaffinity>  (1) 
-5.08609

>  <filename>  (1) 
O=C(Nc1ccncc1)c1cc(-c2cccnc2)nc(=O)[nH]1

$$$$
