
     RDKit          3D

 43 45  0  0  0  0  0  0  0  0999 V2000
    4.9763    1.8171   16.9652 H   0  0  0  0  0  0  0  0  0  0  0  0
    5.4230    1.3118   17.8229 C   0  0  0  0  0  0  0  0  0  0  0  0
    6.5730    0.6622   17.5859 N   0  0  0  0  0  0  0  0  0  0  0  0
    7.1445    0.0287   18.6120 C   0  0  0  0  0  0  0  0  0  0  0  0
    8.0692   -0.5038   18.4050 H   0  0  0  0  0  0  0  0  0  0  0  0
    6.6352    0.0332   19.9150 C   0  0  0  0  0  0  0  0  0  0  0  0
    7.3979   -0.6933   20.9381 C   0  0  0  0  0  0  0  0  0  0  0  0
    7.7282   -1.9594   20.8570 N   0  0  0  0  0  0  0  0  0  0  0  0
    8.3836   -2.2436   22.0315 C   0  0  0  0  0  0  0  0  0  0  0  0
    8.7683   -3.2361   22.2359 H   0  0  0  0  0  0  0  0  0  0  0  0
    8.4763   -1.1291   22.8121 C   0  0  0  0  0  0  0  0  0  0  0  0
    8.8416   -0.9677   23.8166 H   0  0  0  0  0  0  0  0  0  0  0  0
    7.8613   -0.1215   22.0913 N   0  0  0  0  0  0  0  0  0  0  0  0
    7.6827    1.2527   22.4924 C   0  0  0  0  0  0  0  0  0  0  0  0
    8.4771    1.4852   23.2182 H   0  0  0  0  0  0  0  0  0  0  0  0
    7.8169    1.8827   21.6104 H   0  0  0  0  0  0  0  0  0  0  0  0
    6.3578    1.4590   23.0453 N   0  0  0  0  0  0  0  0  0  0  0  0
    5.9383    2.3618   22.9119 H   0  0  0  0  0  0  0  0  0  0  0  0
    6.1324    0.9971   24.3314 C   0  0  0  0  0  0  0  0  0  0  0  0
    6.9088    0.2830   24.9396 O   0  0  0  0  0  0  0  0  0  0  0  0
    4.9500    1.4652   24.8293 N   0  0  0  0  0  0  0  0  0  0  0  0
    4.3443    1.8897   24.1479 H   0  0  0  0  0  0  0  0  0  0  0  0
    4.3399    0.8378   25.9912 C   0  0  0  0  0  0  0  0  0  0  0  0
    5.0892    0.8331   26.8006 H   0  0  0  0  0  0  0  0  0  0  0  0
    3.1380    1.6742   26.4407 C   0  0  0  0  0  0  0  0  0  0  0  0
    2.4000    1.7090   25.6185 H   0  0  0  0  0  0  0  0  0  0  0  0
    3.4684    2.7056   26.6274 H   0  0  0  0  0  0  0  0  0  0  0  0
    2.4924    1.0696   27.6998 C   0  0  0  0  0  0  0  0  0  0  0  0
    3.2071    1.1427   28.5367 H   0  0  0  0  0  0  0  0  0  0  0  0
    1.6161    1.6602   27.9893 H   0  0  0  0  0  0  0  0  0  0  0  0
    2.1061   -0.4056   27.4878 C   0  0  0  0  0  0  0  0  0  0  0  0
    1.3030   -0.4611   26.7346 H   0  0  0  0  0  0  0  0  0  0  0  0
    1.6992   -0.8244   28.4174 H   0  0  0  0  0  0  0  0  0  0  0  0
    3.3045   -1.2413   27.0038 C   0  0  0  0  0  0  0  0  0  0  0  0
    2.9924   -2.2735   26.8025 H   0  0  0  0  0  0  0  0  0  0  0  0
    4.0670   -1.2924   27.7992 H   0  0  0  0  0  0  0  0  0  0  0  0
    3.9309   -0.6298   25.7419 C   0  0  0  0  0  0  0  0  0  0  0  0
    4.8145   -1.2016   25.4267 H   0  0  0  0  0  0  0  0  0  0  0  0
    3.1950   -0.6582   24.9224 H   0  0  0  0  0  0  0  0  0  0  0  0
    5.4188    0.6926   20.1528 C   0  0  0  0  0  0  0  0  0  0  0  0
    4.9775    0.6988   21.1496 H   0  0  0  0  0  0  0  0  0  0  0  0
    4.8070    1.3392   19.0787 C   0  0  0  0  0  0  0  0  0  0  0  0
    3.8711    1.8715   19.1942 H   0  0  0  0  0  0  0  0  0  0  0  0
  1  2  1  0
  2  3  2  0
  3  4  1  0
  4  5  1  0
  4  6  2  0
  6  7  1  0
  7  8  2  0
  8  9  1  0
  9 10  1  0
  9 11  2  0
 11 12  1  0
 11 13  1  0
 13 14  1  0
 14 15  1  0
 14 16  1  0
 14 17  1  0
 17 18  1  0
 17 19  1  0
 19 20  2  0
 19 21  1  0
 21 22  1  0
 21 23  1  0
 23 24  1  0
 23 25  1  0
 25 26  1  0
 25 27  1  0
 25 28  1  0
 28 29  1  0
 28 30  1  0
 28 31  1  0
 31 32  1  0
 31 33  1  0
 31 34  1  0
 34 35  1  0
 34 36  1  0
 34 37  1  0
 37 38  1  0
 37 39  1  0
  6 40  1  0
 40 41  1  0
 40 42  2  0
 42 43  1  0
 42  2  1  0
 13  7  1  0
 37 23  1  0
M  END
>  <cnnaffinity>  (1) 
-5.02154

>  <filename>  (1) 
O=C(NCn1ccnc1-c1cccnc1)NC1CCCCC1

$$$$
