
     RDKit          3D

 29 30  0  0  0  0  0  0  0  0999 V2000
    4.9651    1.7704   17.0072 H   0  0  0  0  0  0  0  0  0  0  0  0
    5.4154    1.2830   17.8708 C   0  0  0  0  0  0  0  0  0  0  0  0
    6.5776    0.6594   17.6400 N   0  0  0  0  0  0  0  0  0  0  0  0
    7.1725    0.0635   18.6720 C   0  0  0  0  0  0  0  0  0  0  0  0
    8.1046   -0.4481   18.4461 H   0  0  0  0  0  0  0  0  0  0  0  0
    6.6568    0.0526   19.9763 C   0  0  0  0  0  0  0  0  0  0  0  0
    7.4469   -0.7440   20.9610 C   0  0  0  0  0  0  0  0  0  0  0  0
    8.1981   -1.6206   20.6111 O   0  0  0  0  0  0  0  0  0  0  0  0
    7.2632   -0.3718   22.2883 N   0  0  0  0  0  0  0  0  0  0  0  0
    6.9051    0.5484   22.4758 H   0  0  0  0  0  0  0  0  0  0  0  0
    7.6527   -1.1594   23.3716 C   0  0  0  0  0  0  0  0  0  0  0  0
    8.0190   -2.3021   23.2182 O   0  0  0  0  0  0  0  0  0  0  0  0
    7.5843   -0.5404   24.8143 C   0  0  0  0  0  0  0  0  0  0  0  0
    7.1643    0.7246   25.0332 N   0  0  0  0  0  0  0  0  0  0  0  0
    7.1457    1.1915   26.2832 C   0  0  0  0  0  0  0  0  0  0  0  0
    6.8020    2.2145   26.4087 H   0  0  0  0  0  0  0  0  0  0  0  0
    7.5439    0.4341   27.3883 C   0  0  0  0  0  0  0  0  0  0  0  0
    7.4252    1.0393   28.7512 C   0  0  0  0  0  0  0  0  0  0  0  0
    8.3482    0.5726   29.6083 F   0  0  0  0  0  0  0  0  0  0  0  0
    7.5622    2.3793   28.7190 F   0  0  0  0  0  0  0  0  0  0  0  0
    6.2189    0.7907   29.2980 F   0  0  0  0  0  0  0  0  0  0  0  0
    7.9779   -0.8830   27.1773 C   0  0  0  0  0  0  0  0  0  0  0  0
    8.3214   -1.5281   27.9828 H   0  0  0  0  0  0  0  0  0  0  0  0
    7.9906   -1.3672   25.8815 C   0  0  0  0  0  0  0  0  0  0  0  0
    8.3143   -2.3755   25.6630 H   0  0  0  0  0  0  0  0  0  0  0  0
    5.4237    0.6858   20.2050 C   0  0  0  0  0  0  0  0  0  0  0  0
    4.9232    0.6630   21.1776 H   0  0  0  0  0  0  0  0  0  0  0  0
    4.8013    1.3166   19.1268 C   0  0  0  0  0  0  0  0  0  0  0  0
    3.8598    1.8416   19.2401 H   0  0  0  0  0  0  0  0  0  0  0  0
  1  2  1  0
  2  3  2  0
  3  4  1  0
  4  5  1  0
  4  6  2  0
  6  7  1  0
  7  8  2  0
  7  9  1  0
  9 10  1  0
  9 11  1  0
 11 12  2  0
 11 13  1  0
 13 14  2  0
 14 15  1  0
 15 16  1  0
 15 17  2  0
 17 18  1  0
 18 19  1  0
 18 20  1  0
 18 21  1  0
 17 22  1  0
 22 23  1  0
 22 24  2  0
 24 25  1  0
  6 26  1  0
 26 27  1  0
 26 28  2  0
 28 29  1  0
 28  2  1  0
 24 13  1  0
M  END
>  <cnnaffinity>  (1) 
-4.50313

>  <filename>  (1) 
O=C(NC(=O)c1ccc(C(F)(F)F)cn1)c1cccnc1

$$$$
