
     RDKit          3D

 42 44  0  0  0  0  0  0  0  0999 V2000
    4.9665    1.8085   16.9502 H   0  0  0  0  0  0  0  0  0  0  0  0
    5.4195    1.3159   17.8105 C   0  0  0  0  0  0  0  0  0  0  0  0
    6.5746    0.6660   17.5947 N   0  0  0  0  0  0  0  0  0  0  0  0
    7.1422    0.0471   18.6461 C   0  0  0  0  0  0  0  0  0  0  0  0
    8.0690   -0.4796   18.4266 H   0  0  0  0  0  0  0  0  0  0  0  0
    6.6249    0.0506   19.9753 C   0  0  0  0  0  0  0  0  0  0  0  0
    7.2473   -0.5976   21.0621 N   0  0  0  0  0  0  0  0  0  0  0  0
    7.2734    0.0134   22.3886 C   0  0  0  0  0  0  0  0  0  0  0  0
    7.2429    1.1060   22.2688 H   0  0  0  0  0  0  0  0  0  0  0  0
    6.3833   -0.2659   22.9840 H   0  0  0  0  0  0  0  0  0  0  0  0
    8.5043   -0.3940   23.2429 C   0  0  0  0  0  0  0  0  0  0  0  0
    8.3108   -1.4121   23.5972 H   0  0  0  0  0  0  0  0  0  0  0  0
    8.5495    0.2193   24.1487 H   0  0  0  0  0  0  0  0  0  0  0  0
    9.8197   -0.4248   22.5876 N   0  0  0  0  0  0  0  0  0  0  0  0
   10.5298    0.6820   22.1648 C   0  0  0  0  0  0  0  0  0  0  0  0
   11.4442    0.6098   21.3550 O   0  0  0  0  0  0  0  0  0  0  0  0
   10.1746    1.8509   22.7784 N   0  0  0  0  0  0  0  0  0  0  0  0
    9.2815    1.8822   23.2237 H   0  0  0  0  0  0  0  0  0  0  0  0
   10.9946    2.9888   22.8383 C   0  0  0  0  0  0  0  0  0  0  0  0
   12.3926    2.8782   22.8689 C   0  0  0  0  0  0  0  0  0  0  0  0
   12.8517    1.8985   22.8121 H   0  0  0  0  0  0  0  0  0  0  0  0
   13.1664    4.0367   22.9307 C   0  0  0  0  0  0  0  0  0  0  0  0
   14.2499    3.9466   22.9516 H   0  0  0  0  0  0  0  0  0  0  0  0
   12.5596    5.2978   22.9324 C   0  0  0  0  0  0  0  0  0  0  0  0
   13.1702    6.1956   22.9556 H   0  0  0  0  0  0  0  0  0  0  0  0
   11.1639    5.3960   22.8911 C   0  0  0  0  0  0  0  0  0  0  0  0
   10.6785    6.3661   22.8654 H   0  0  0  0  0  0  0  0  0  0  0  0
   10.3794    4.2397   22.8636 C   0  0  0  0  0  0  0  0  0  0  0  0
    9.2964    4.2827   22.7993 H   0  0  0  0  0  0  0  0  0  0  0  0
   10.1744   -1.6922   21.9516 C   0  0  0  0  0  0  0  0  0  0  0  0
   10.0616   -2.4964   22.6918 H   0  0  0  0  0  0  0  0  0  0  0  0
   11.2351   -1.6627   21.6742 H   0  0  0  0  0  0  0  0  0  0  0  0
    9.3372   -1.9453   20.7068 C   0  0  0  0  0  0  0  0  0  0  0  0
    9.5949   -1.1635   19.9812 H   0  0  0  0  0  0  0  0  0  0  0  0
    9.6692   -2.9090   20.3148 H   0  0  0  0  0  0  0  0  0  0  0  0
    7.8096   -1.9320   20.9014 C   0  0  0  0  0  0  0  0  0  0  0  0
    7.5243   -2.5631   21.7616 H   0  0  0  0  0  0  0  0  0  0  0  0
    7.3058   -2.3712   20.0379 H   0  0  0  0  0  0  0  0  0  0  0  0
    5.4091    0.7375   20.1562 C   0  0  0  0  0  0  0  0  0  0  0  0
    4.9639    0.7613   21.1504 H   0  0  0  0  0  0  0  0  0  0  0  0
    4.7975    1.3633   19.0625 C   0  0  0  0  0  0  0  0  0  0  0  0
    3.8571    1.8892   19.1784 H   0  0  0  0  0  0  0  0  0  0  0  0
  1  2  1  0
  2  3  2  0
  3  4  1  0
  4  5  1  0
  4  6  2  0
  6  7  1  0
  7  8  1  0
  8  9  1  0
  8 10  1  0
  8 11  1  0
 11 12  1  0
 11 13  1  0
 11 14  1  0
 14 15  1  0
 15 16  2  0
 15 17  1  0
 17 18  1  0
 17 19  1  0
 19 20  2  0
 20 21  1  0
 20 22  1  0
 22 23  1  0
 22 24  2  0
 24 25  1  0
 24 26  1  0
 26 27  1  0
 26 28  2  0
 28 29  1  0
 14 30  1  0
 30 31  1  0
 30 32  1  0
 30 33  1  0
 33 34  1  0
 33 35  1  0
 33 36  1  0
 36 37  1  0
 36 38  1  0
  6 39  1  0
 39 40  1  0
 39 41  2  0
 41 42  1  0
 41  2  1  0
 36  7  1  0
 28 19  1  0
M  END
>  <cnnaffinity>  (1) 
-4.78646

>  <filename>  (1) 
O=C(Nc1ccccc1)N1CCCN(c2cccnc2)CC1

$$$$
