
     RDKit          3D

 27 28  0  0  0  0  0  0  0  0999 V2000
    4.9338    1.7748   17.0023 H   0  0  0  0  0  0  0  0  0  0  0  0
    5.4063    1.2846   17.8537 C   0  0  0  0  0  0  0  0  0  0  0  0
    6.5685    0.6606   17.6173 N   0  0  0  0  0  0  0  0  0  0  0  0
    7.1558    0.0334   18.6371 C   0  0  0  0  0  0  0  0  0  0  0  0
    8.1095   -0.4261   18.3936 H   0  0  0  0  0  0  0  0  0  0  0  0
    6.6146   -0.0558   19.9350 C   0  0  0  0  0  0  0  0  0  0  0  0
    7.3964   -0.7486   21.0019 C   0  0  0  0  0  0  0  0  0  0  0  0
    9.0289   -0.7809   20.9878 S   0  0  0  0  0  0  0  0  0  0  0  0
    6.6186   -1.3652   21.9691 N   0  0  0  0  0  0  0  0  0  0  0  0
    5.6955   -1.6554   21.7072 H   0  0  0  0  0  0  0  0  0  0  0  0
    7.0461   -1.6320   23.2669 C   0  0  0  0  0  0  0  0  0  0  0  0
    7.9484   -0.9994   23.7655 O   0  0  0  0  0  0  0  0  0  0  0  0
    6.3177   -2.7015   24.0640 C   0  0  0  0  0  0  0  0  0  0  0  0
    6.0749   -2.4514   25.4344 C   0  0  0  0  0  0  0  0  0  0  0  0
    6.3990   -1.5100   25.8670 H   0  0  0  0  0  0  0  0  0  0  0  0
    5.4454   -3.3917   26.2476 C   0  0  0  0  0  0  0  0  0  0  0  0
    5.2514   -3.1667   27.2939 H   0  0  0  0  0  0  0  0  0  0  0  0
    5.0637   -4.6276   25.7177 C   0  0  0  0  0  0  0  0  0  0  0  0
    4.5615   -5.3630   26.3417 H   0  0  0  0  0  0  0  0  0  0  0  0
    5.3396   -4.9266   24.3812 C   0  0  0  0  0  0  0  0  0  0  0  0
    5.0600   -5.8834   23.9515 H   0  0  0  0  0  0  0  0  0  0  0  0
    5.9789   -3.9764   23.5744 C   0  0  0  0  0  0  0  0  0  0  0  0
    6.3705   -4.4426   21.9455 Cl  0  0  0  0  0  0  0  0  0  0  0  0
    5.4126    0.6323   20.1752 C   0  0  0  0  0  0  0  0  0  0  0  0
    4.9798    0.6559   21.1776 H   0  0  0  0  0  0  0  0  0  0  0  0
    4.8048    1.3088   19.1167 C   0  0  0  0  0  0  0  0  0  0  0  0
    3.8735    1.8475   19.2573 H   0  0  0  0  0  0  0  0  0  0  0  0
  1  2  1  0
  2  3  2  0
  3  4  1  0
  4  5  1  0
  4  6  2  0
  6  7  1  0
  7  8  2  0
  7  9  1  0
  9 10  1  0
  9 11  1  0
 11 12  2  0
 11 13  1  0
 13 14  2  0
 14 15  1  0
 14 16  1  0
 16 17  1  0
 16 18  2  0
 18 19  1  0
 18 20  1  0
 20 21  1  0
 20 22  2  0
 22 23  1  0
  6 24  1  0
 24 25  1  0
 24 26  2  0
 26 27  1  0
 26  2  1  0
 22 13  1  0
M  END
>  <cnnaffinity>  (1) 
-4.94312

>  <filename>  (1) 
O=C(NC(=S)c1cccnc1)c1ccccc1Cl

$$$$
