
     RDKit          3D

 33 34  0  0  0  0  0  0  0  0999 V2000
   10.2016   -5.1864   24.4869 H   0  0  0  0  0  0  0  0  0  0  0  0
    9.2904   -5.4548   24.3147 O   0  0  0  0  0  0  0  0  0  0  0  0
    8.6423   -4.5378   23.4412 C   0  0  2  0  0  0  0  0  0  0  0  0
    9.3294   -4.1691   22.6627 H   0  0  0  0  0  0  0  0  0  0  0  0
    8.1222   -3.3171   24.2257 C   0  0  0  0  0  0  0  0  0  0  0  0
    7.5914   -3.6808   25.1203 H   0  0  0  0  0  0  0  0  0  0  0  0
    8.9775   -2.7246   24.5652 H   0  0  0  0  0  0  0  0  0  0  0  0
    7.2575   -2.4685   23.3876 N   0  0  0  0  0  0  0  0  0  0  0  0
    7.4001   -1.1228   23.3649 C   0  0  0  0  0  0  0  0  0  0  0  0
    8.1104   -0.1674   24.5146 S   0  0  0  0  0  0  0  0  0  0  0  0
    6.8548   -0.4775   22.2643 N   0  0  0  0  0  0  0  0  0  0  0  0
    6.8449    0.5153   22.4200 H   0  0  0  0  0  0  0  0  0  0  0  0
    7.1811   -0.8441   20.9684 C   0  0  0  0  0  0  0  0  0  0  0  0
    7.9141   -1.7750   20.7156 O   0  0  0  0  0  0  0  0  0  0  0  0
    6.5483   -0.0102   19.9285 C   0  0  0  0  0  0  0  0  0  0  0  0
    7.1517   -0.0060   18.6659 C   0  0  0  0  0  0  0  0  0  0  0  0
    8.0884   -0.5359   18.4885 H   0  0  0  0  0  0  0  0  0  0  0  0
    6.6425    0.6447   17.6162 N   0  0  0  0  0  0  0  0  0  0  0  0
    5.4974    1.3214   17.7987 C   0  0  0  0  0  0  0  0  0  0  0  0
    5.1024    1.8404   16.9294 H   0  0  0  0  0  0  0  0  0  0  0  0
    4.8151    1.3794   19.0199 C   0  0  0  0  0  0  0  0  0  0  0  0
    3.8955    1.9522   19.1052 H   0  0  0  0  0  0  0  0  0  0  0  0
    5.3556    0.7113   20.1127 C   0  0  0  0  0  0  0  0  0  0  0  0
    4.8642    0.7368   21.0880 H   0  0  0  0  0  0  0  0  0  0  0  0
    6.1303   -3.1769   22.7457 C   0  0  0  0  0  0  0  0  0  0  0  0
    5.4390   -3.5267   23.5277 H   0  0  0  0  0  0  0  0  0  0  0  0
    5.5734   -2.4907   22.1096 H   0  0  0  0  0  0  0  0  0  0  0  0
    6.6248   -4.3686   21.9244 C   0  0  0  0  0  0  0  0  0  0  0  0
    5.7578   -4.9212   21.5454 H   0  0  0  0  0  0  0  0  0  0  0  0
    7.1995   -3.9908   21.0755 H   0  0  0  0  0  0  0  0  0  0  0  0
    7.4893   -5.2918   22.7796 C   0  0  0  0  0  0  0  0  0  0  0  0
    7.8876   -6.1267   22.1932 H   0  0  0  0  0  0  0  0  0  0  0  0
    6.8903   -5.7467   23.5778 H   0  0  0  0  0  0  0  0  0  0  0  0
  1  2  1  0
  2  3  1  0
  3  4  1  6
  3  5  1  0
  5  6  1  0
  5  7  1  0
  5  8  1  0
  8  9  1  0
  9 10  2  0
  9 11  1  0
 11 12  1  0
 11 13  1  0
 13 14  2  0
 13 15  1  0
 15 16  2  0
 16 17  1  0
 16 18  1  0
 18 19  2  0
 19 20  1  0
 19 21  1  0
 21 22  1  0
 21 23  2  0
 23 24  1  0
  8 25  1  0
 25 26  1  0
 25 27  1  0
 25 28  1  0
 28 29  1  0
 28 30  1  0
 28 31  1  0
 31 32  1  0
 31 33  1  0
 31  3  1  0
 23 15  1  0
M  END
>  <cnnaffinity>  (1) 
-4.50694

>  <filename>  (1) 
O=C(NC(=S)N1CCC[C@H](O)C1)c1cccnc1

$$$$
