
     RDKit          3D

 34 36  0  0  0  0  0  0  0  0999 V2000
    4.9371    1.8021   16.9951 H   0  0  0  0  0  0  0  0  0  0  0  0
    5.3970    1.2946   17.8402 C   0  0  0  0  0  0  0  0  0  0  0  0
    6.5477    0.6585   17.5725 N   0  0  0  0  0  0  0  0  0  0  0  0
    7.1581    0.0355   18.5852 C   0  0  0  0  0  0  0  0  0  0  0  0
    8.1198   -0.4225   18.3722 H   0  0  0  0  0  0  0  0  0  0  0  0
    6.6372   -0.0209   19.8877 C   0  0  0  0  0  0  0  0  0  0  0  0
    7.3304   -0.7227   20.9273 N   0  0  0  0  0  0  0  0  0  0  0  0
    6.5666   -1.6187   21.6239 N   0  0  0  0  0  0  0  0  0  0  0  0
    7.1304   -2.3009   22.5934 C   0  0  0  0  0  0  0  0  0  0  0  0
    6.2935   -3.3108   23.4191 C   0  0  0  0  0  0  0  0  0  0  0  0
    6.7886   -3.8864   24.3777 O   0  0  0  0  0  0  0  0  0  0  0  0
    4.9942   -3.5381   23.0276 N   0  0  0  0  0  0  0  0  0  0  0  0
    4.7042   -3.0823   22.1784 H   0  0  0  0  0  0  0  0  0  0  0  0
    4.0051   -4.1805   23.8223 C   0  0  0  0  0  0  0  0  0  0  0  0
    4.0215   -4.0754   25.2203 C   0  0  0  0  0  0  0  0  0  0  0  0
    4.8095   -3.4958   25.6846 H   0  0  0  0  0  0  0  0  0  0  0  0
    3.0494   -4.7281   25.9848 C   0  0  0  0  0  0  0  0  0  0  0  0
    3.0894   -4.6560   27.0722 H   0  0  0  0  0  0  0  0  0  0  0  0
    2.0541   -5.4896   25.3599 C   0  0  0  0  0  0  0  0  0  0  0  0
    1.3112   -6.0105   25.9595 H   0  0  0  0  0  0  0  0  0  0  0  0
    2.0251   -5.5799   23.9620 C   0  0  0  0  0  0  0  0  0  0  0  0
    1.2495   -6.1613   23.4648 H   0  0  0  0  0  0  0  0  0  0  0  0
    2.9950   -4.9197   23.1962 C   0  0  0  0  0  0  0  0  0  0  0  0
    2.9886   -4.9812   22.1138 H   0  0  0  0  0  0  0  0  0  0  0  0
    8.5144   -2.1133   22.9548 C   0  0  0  0  0  0  0  0  0  0  0  0
    8.8996   -2.7144   23.7742 H   0  0  0  0  0  0  0  0  0  0  0  0
    9.2682   -1.2022   22.2853 C   0  0  0  0  0  0  0  0  0  0  0  0
   10.3140   -1.0007   22.4870 H   0  0  0  0  0  0  0  0  0  0  0  0
    8.7132   -0.4101   21.2008 C   0  0  0  0  0  0  0  0  0  0  0  0
    9.3342    0.4258   20.5637 O   0  0  0  0  0  0  0  0  0  0  0  0
    5.4290    0.6257   20.1597 C   0  0  0  0  0  0  0  0  0  0  0  0
    5.0222    0.5824   21.1702 H   0  0  0  0  0  0  0  0  0  0  0  0
    4.8061    1.3111   19.1101 C   0  0  0  0  0  0  0  0  0  0  0  0
    3.8780    1.8525   19.2554 H   0  0  0  0  0  0  0  0  0  0  0  0
  1  2  1  0
  2  3  2  0
  3  4  1  0
  4  5  1  0
  4  6  2  0
  6  7  1  0
  7  8  1  0
  8  9  2  0
  9 10  1  0
 10 11  2  0
 10 12  1  0
 12 13  1  0
 12 14  1  0
 14 15  2  0
 15 16  1  0
 15 17  1  0
 17 18  1  0
 17 19  2  0
 19 20  1  0
 19 21  1  0
 21 22  1  0
 21 23  2  0
 23 24  1  0
  9 25  1  0
 25 26  1  0
 25 27  2  0
 27 28  1  0
 27 29  1  0
 29 30  2  0
  6 31  1  0
 31 32  1  0
 31 33  2  0
 33 34  1  0
 33  2  1  0
 29  7  1  0
 23 14  1  0
M  END
>  <cnnaffinity>  (1) 
-5.35663

>  <filename>  (1) 
O=C(Nc1ccccc1)c1ccc(=O)n(-c2cccnc2)n1

$$$$
