
     RDKit          3D

 33 35  0  0  0  0  0  0  0  0999 V2000
    4.9574    1.8316   16.9678 H   0  0  0  0  0  0  0  0  0  0  0  0
    5.4011    1.3028   17.8048 C   0  0  0  0  0  0  0  0  0  0  0  0
    6.5594    0.6647   17.5537 N   0  0  0  0  0  0  0  0  0  0  0  0
    7.1617    0.0350   18.5638 C   0  0  0  0  0  0  0  0  0  0  0  0
    8.1003   -0.4756   18.3550 H   0  0  0  0  0  0  0  0  0  0  0  0
    6.6328    0.0349   19.8655 C   0  0  0  0  0  0  0  0  0  0  0  0
    7.3364   -0.5770   20.9369 N   0  0  0  0  0  0  0  0  0  0  0  0
    7.8278   -1.8346   20.8155 N   0  0  0  0  0  0  0  0  0  0  0  0
    8.2733   -2.1669   21.9634 N   0  0  0  0  0  0  0  0  0  0  0  0
    8.1071   -1.1827   22.8738 N   0  0  0  0  0  0  0  0  0  0  0  0
    7.5376   -0.2024   22.2260 C   0  0  0  0  0  0  0  0  0  0  0  0
    7.2773    0.9800   22.8088 O   0  0  0  0  0  0  0  0  0  0  0  0
    6.9426    2.1168   22.0233 N   0  0  0  0  0  0  0  0  0  0  0  0
    7.7495    2.3865   21.4756 H   0  0  0  0  0  0  0  0  0  0  0  0
    6.5946    3.2045   22.8659 C   0  0  0  0  0  0  0  0  0  0  0  0
    6.1577    3.1068   23.9809 O   0  0  0  0  0  0  0  0  0  0  0  0
    6.8051    4.3761   22.1722 N   0  0  0  0  0  0  0  0  0  0  0  0
    6.8037    4.2653   21.1761 H   0  0  0  0  0  0  0  0  0  0  0  0
    6.4188    5.6425   22.6637 C   0  0  0  0  0  0  0  0  0  0  0  0
    5.8169    6.5872   21.8242 C   0  0  0  0  0  0  0  0  0  0  0  0
    5.6079    6.3380   20.7868 H   0  0  0  0  0  0  0  0  0  0  0  0
    5.4578    7.8422   22.3361 C   0  0  0  0  0  0  0  0  0  0  0  0
    4.9789    8.5746   21.6851 H   0  0  0  0  0  0  0  0  0  0  0  0
    5.7123    8.1530   23.6787 C   0  0  0  0  0  0  0  0  0  0  0  0
    5.4291    9.1242   24.0764 H   0  0  0  0  0  0  0  0  0  0  0  0
    6.3168    7.2053   24.5146 C   0  0  0  0  0  0  0  0  0  0  0  0
    6.5116    7.4312   25.5633 H   0  0  0  0  0  0  0  0  0  0  0  0
    6.6576    5.9494   24.0100 C   0  0  0  0  0  0  0  0  0  0  0  0
    7.0786    5.1700   24.6308 H   0  0  0  0  0  0  0  0  0  0  0  0
    5.4095    0.6435   20.1199 C   0  0  0  0  0  0  0  0  0  0  0  0
    4.9868    0.6373   21.1262 H   0  0  0  0  0  0  0  0  0  0  0  0
    4.7820    1.3046   19.0620 C   0  0  0  0  0  0  0  0  0  0  0  0
    3.8486    1.8410   19.2108 H   0  0  0  0  0  0  0  0  0  0  0  0
  1  2  1  0
  2  3  2  0
  3  4  1  0
  4  5  1  0
  4  6  2  0
  6  7  1  0
  7  8  1  0
  8  9  2  0
  9 10  1  0
 10 11  2  0
 11 12  1  0
 12 13  1  0
 13 14  1  0
 13 15  1  0
 15 16  2  0
 15 17  1  0
 17 18  1  0
 17 19  1  0
 19 20  2  0
 20 21  1  0
 20 22  1  0
 22 23  1  0
 22 24  2  0
 24 25  1  0
 24 26  1  0
 26 27  1  0
 26 28  2  0
 28 29  1  0
  6 30  1  0
 30 31  1  0
 30 32  2  0
 32 33  1  0
 32  2  1  0
 11  7  1  0
 28 19  1  0
M  END
>  <cnnaffinity>  (1) 
-4.96786

>  <filename>  (1) 
O=C(NOc1nnnn1-c1cccnc1)Nc1ccccc1

$$$$
