
     RDKit          3D

 48 50  0  0  0  0  0  0  0  0999 V2000
    4.8657    1.7590   17.0078 H   0  0  0  0  0  0  0  0  0  0  0  0
    5.3756    1.2974   17.8510 C   0  0  0  0  0  0  0  0  0  0  0  0
    6.5276    0.6624   17.5759 N   0  0  0  0  0  0  0  0  0  0  0  0
    7.1880    0.1196   18.6066 C   0  0  0  0  0  0  0  0  0  0  0  0
    8.1289   -0.3650   18.3604 H   0  0  0  0  0  0  0  0  0  0  0  0
    6.7814    0.1613   19.9720 C   0  0  0  0  0  0  0  0  0  0  0  0
    7.6074   -0.3498   20.9966 N   0  0  0  0  0  0  0  0  0  0  0  0
    7.6492    0.1847   22.3529 C   0  0  0  0  0  0  0  0  0  0  0  0
    7.3866    1.2532   22.3397 H   0  0  0  0  0  0  0  0  0  0  0  0
    8.7031    0.1169   22.6719 H   0  0  0  0  0  0  0  0  0  0  0  0
    6.7711   -0.5101   23.4306 C   0  0  0  0  0  0  0  0  0  0  0  0
    5.7593   -0.1059   23.3383 H   0  0  0  0  0  0  0  0  0  0  0  0
    7.1525   -0.1974   24.4070 H   0  0  0  0  0  0  0  0  0  0  0  0
    6.7172   -1.9890   23.4353 N   0  0  0  0  0  0  0  0  0  0  0  0
    7.6482   -2.6584   24.2265 C   0  0  0  0  0  0  0  0  0  0  0  0
    8.4501   -2.0717   24.9373 O   0  0  0  0  0  0  0  0  0  0  0  0
    7.5796   -4.0411   24.1672 N   0  0  0  0  0  0  0  0  0  0  0  0
    6.6349   -4.3214   23.9446 H   0  0  0  0  0  0  0  0  0  0  0  0
    8.1810   -4.8100   25.2556 C   0  0  0  0  0  0  0  0  0  0  0  0
    9.2053   -4.4463   25.3937 H   0  0  0  0  0  0  0  0  0  0  0  0
    8.2359   -5.8583   24.9329 H   0  0  0  0  0  0  0  0  0  0  0  0
    7.4124   -4.6797   26.5859 C   0  0  0  0  0  0  0  0  0  0  0  0
    7.9278   -5.2610   27.3596 H   0  0  0  0  0  0  0  0  0  0  0  0
    7.4556   -3.6311   26.9069 H   0  0  0  0  0  0  0  0  0  0  0  0
    5.9749   -5.1342   26.4634 C   0  0  0  0  0  0  0  0  0  0  0  0
    5.6401   -6.4929   26.5799 C   0  0  0  0  0  0  0  0  0  0  0  0
    6.4179   -7.2155   26.8134 H   0  0  0  0  0  0  0  0  0  0  0  0
    4.3233   -6.9261   26.3957 C   0  0  0  0  0  0  0  0  0  0  0  0
    4.0711   -7.9773   26.5120 H   0  0  0  0  0  0  0  0  0  0  0  0
    3.3211   -6.0036   26.0759 C   0  0  0  0  0  0  0  0  0  0  0  0
    2.2951   -6.3352   25.9376 H   0  0  0  0  0  0  0  0  0  0  0  0
    3.6437   -4.6485   25.9459 C   0  0  0  0  0  0  0  0  0  0  0  0
    2.8723   -3.9247   25.7011 H   0  0  0  0  0  0  0  0  0  0  0  0
    4.9610   -4.2181   26.1359 C   0  0  0  0  0  0  0  0  0  0  0  0
    5.2176   -3.1677   26.0059 H   0  0  0  0  0  0  0  0  0  0  0  0
    6.1996   -2.5977   22.2031 C   0  0  0  0  0  0  0  0  0  0  0  0
    5.4471   -1.9284   21.7816 H   0  0  0  0  0  0  0  0  0  0  0  0
    5.6441   -3.5182   22.4265 H   0  0  0  0  0  0  0  0  0  0  0  0
    7.2807   -2.8678   21.1507 C   0  0  0  0  0  0  0  0  0  0  0  0
    7.9030   -3.7136   21.4609 H   0  0  0  0  0  0  0  0  0  0  0  0
    6.7659   -3.1673   20.2351 H   0  0  0  0  0  0  0  0  0  0  0  0
    8.2142   -1.6683   20.8566 C   0  0  0  0  0  0  0  0  0  0  0  0
    9.0768   -1.6950   21.5346 H   0  0  0  0  0  0  0  0  0  0  0  0
    8.6354   -1.7448   19.8484 H   0  0  0  0  0  0  0  0  0  0  0  0
    5.5528    0.8148   20.2146 C   0  0  0  0  0  0  0  0  0  0  0  0
    5.1654    0.8727   21.2289 H   0  0  0  0  0  0  0  0  0  0  0  0
    4.8516    1.3855   19.1433 C   0  0  0  0  0  0  0  0  0  0  0  0
    3.9134    1.9119   19.3021 H   0  0  0  0  0  0  0  0  0  0  0  0
  1  2  1  0
  2  3  2  0
  3  4  1  0
  4  5  1  0
  4  6  2  0
  6  7  1  0
  7  8  1  0
  8  9  1  0
  8 10  1  0
  8 11  1  0
 11 12  1  0
 11 13  1  0
 11 14  1  0
 14 15  1  0
 15 16  2  0
 15 17  1  0
 17 18  1  0
 17 19  1  0
 19 20  1  0
 19 21  1  0
 19 22  1  0
 22 23  1  0
 22 24  1  0
 22 25  1  0
 25 26  2  0
 26 27  1  0
 26 28  1  0
 28 29  1  0
 28 30  2  0
 30 31  1  0
 30 32  1  0
 32 33  1  0
 32 34  2  0
 34 35  1  0
 14 36  1  0
 36 37  1  0
 36 38  1  0
 36 39  1  0
 39 40  1  0
 39 41  1  0
 39 42  1  0
 42 43  1  0
 42 44  1  0
  6 45  1  0
 45 46  1  0
 45 47  2  0
 47 48  1  0
 47  2  1  0
 42  7  1  0
 34 25  1  0
M  END
>  <cnnaffinity>  (1) 
-5.63471

>  <filename>  (1) 
O=C(NCCc1ccccc1)N1CCCN(c2cccnc2)CC1

$$$$
