
     RDKit          3D

 36 38  0  0  0  0  0  0  0  0999 V2000
   10.1495   -1.8516   21.7526 O   0  0  0  0  0  0  0  0  0  0  0  0
    9.7308   -1.3244   22.7780 C   0  0  0  0  0  0  0  0  0  0  0  0
    8.6031   -1.7960   23.3912 N   0  0  0  0  0  0  0  0  0  0  0  0
    7.5716   -2.4773   22.6166 C   0  0  0  0  0  0  0  0  0  0  0  0
    6.8277   -1.5523   21.6712 C   0  0  0  0  0  0  0  0  0  0  0  0
    7.3536   -1.0133   20.5630 C   0  0  0  0  0  0  0  0  0  0  0  0
    6.6556   -0.1160   19.6146 C   0  0  0  0  0  0  0  0  0  0  0  0
    5.4610    0.5707   19.8967 C   0  0  0  0  0  0  0  0  0  0  0  0
    4.8763    1.3574   18.8995 C   0  0  0  0  0  0  0  0  0  0  0  0
    5.4949    1.4323   17.6473 C   0  0  0  0  0  0  0  0  0  0  0  0
    6.6435    0.7993   17.3539 N   0  0  0  0  0  0  0  0  0  0  0  0
    7.2006    0.0718   18.3277 C   0  0  0  0  0  0  0  0  0  0  0  0
    8.1388   -0.4156   18.0636 H   0  0  0  0  0  0  0  0  0  0  0  0
    5.0590    2.0306   16.8485 H   0  0  0  0  0  0  0  0  0  0  0  0
    3.9599    1.9118   19.0772 H   0  0  0  0  0  0  0  0  0  0  0  0
    5.0104    0.5114   20.8881 H   0  0  0  0  0  0  0  0  0  0  0  0
    8.3889   -1.2407   20.2951 H   0  0  0  0  0  0  0  0  0  0  0  0
    5.8095   -1.2953   21.9436 H   0  0  0  0  0  0  0  0  0  0  0  0
    8.0664   -3.2841   22.0661 H   0  0  0  0  0  0  0  0  0  0  0  0
    6.8830   -2.9378   23.3292 H   0  0  0  0  0  0  0  0  0  0  0  0
    8.3682   -1.3604   24.2644 H   0  0  0  0  0  0  0  0  0  0  0  0
   10.3871   -0.0539   23.4143 C   0  0  0  0  0  0  0  0  0  0  0  0
   10.3550    0.0818   24.7345 N   0  0  0  0  0  0  0  0  0  0  0  0
   10.9253    1.1650   25.3203 C   0  0  0  0  0  0  0  0  0  0  0  0
   11.5057    2.1827   24.6099 C   0  0  0  0  0  0  0  0  0  0  0  0
   11.5205    2.1154   23.2090 C   0  0  0  0  0  0  0  0  0  0  0  0
   12.0864    3.1401   22.4133 C   0  0  0  0  0  0  0  0  0  0  0  0
   11.9970    3.0423   21.0517 C   0  0  0  0  0  0  0  0  0  0  0  0
   11.3696    2.0153   20.4379 N   0  0  0  0  0  0  0  0  0  0  0  0
   10.8671    1.0389   21.1661 C   0  0  0  0  0  0  0  0  0  0  0  0
   10.9276    0.9918   22.5799 C   0  0  0  0  0  0  0  0  0  0  0  0
   10.4043    0.1989   20.6459 H   0  0  0  0  0  0  0  0  0  0  0  0
   12.4634    3.7835   20.3988 H   0  0  0  0  0  0  0  0  0  0  0  0
   12.5750    3.9952   22.8616 H   0  0  0  0  0  0  0  0  0  0  0  0
   11.9416    3.0530   25.0632 H   0  0  0  0  0  0  0  0  0  0  0  0
   10.8681    1.1969   26.4025 H   0  0  0  0  0  0  0  0  0  0  0  0
  1  2  2  0
  2  3  1  0
  3  4  1  0
  4  5  1  0
  5  6  2  3
  6  7  1  0
  7  8  2  0
  8  9  1  0
  9 10  2  0
 10 11  1  0
 11 12  2  0
 12 13  1  0
 10 14  1  0
  9 15  1  0
  8 16  1  0
  6 17  1  0
  5 18  1  0
  4 19  1  0
  4 20  1  0
  3 21  1  0
  2 22  1  0
 22 23  2  0
 23 24  1  0
 24 25  2  0
 25 26  1  0
 26 27  2  0
 27 28  1  0
 28 29  2  0
 29 30  1  0
 30 31  2  0
 30 32  1  0
 28 33  1  0
 27 34  1  0
 25 35  1  0
 24 36  1  0
 12  7  1  0
 31 22  1  0
 31 26  1  0
M  END
>  <cnnaffinity>  (1) 
-5.35079

>  <filename>  (1) 
O=C(NCC=Cc1cccnc1)c1nccc2ccncc12

$$$$
