
     RDKit          3D

 27 28  0  0  0  0  0  0  0  0999 V2000
    4.9952    1.8033   17.0067 H   0  0  0  0  0  0  0  0  0  0  0  0
    5.4534    1.2947   17.8509 C   0  0  0  0  0  0  0  0  0  0  0  0
    6.6186    0.6760   17.6154 N   0  0  0  0  0  0  0  0  0  0  0  0
    7.2161    0.0707   18.6455 C   0  0  0  0  0  0  0  0  0  0  0  0
    8.1549   -0.4250   18.4110 H   0  0  0  0  0  0  0  0  0  0  0  0
    6.7047    0.0629   19.9517 C   0  0  0  0  0  0  0  0  0  0  0  0
    7.5384   -0.6857   20.9557 C   0  0  0  0  0  0  0  0  0  0  0  0
    8.4198   -1.4537   20.6241 O   0  0  0  0  0  0  0  0  0  0  0  0
    7.1973   -0.4240   22.2721 N   0  0  0  0  0  0  0  0  0  0  0  0
    6.3734    0.1409   22.3853 H   0  0  0  0  0  0  0  0  0  0  0  0
    7.5392   -1.1752   23.4104 N   0  0  0  0  0  0  0  0  0  0  0  0
    8.4584   -0.9444   23.7873 H   0  0  0  0  0  0  0  0  0  0  0  0
    7.3706   -2.5764   23.3944 C   0  0  0  0  0  0  0  0  0  0  0  0
    6.3493   -3.2257   22.6740 C   0  0  0  0  0  0  0  0  0  0  0  0
    5.6329   -2.6421   22.1045 H   0  0  0  0  0  0  0  0  0  0  0  0
    6.2478   -4.6195   22.7080 C   0  0  0  0  0  0  0  0  0  0  0  0
    5.4508   -5.1098   22.1537 H   0  0  0  0  0  0  0  0  0  0  0  0
    7.1485   -5.3747   23.4660 C   0  0  0  0  0  0  0  0  0  0  0  0
    7.0597   -6.4546   23.4843 H   0  0  0  0  0  0  0  0  0  0  0  0
    8.1437   -4.7326   24.2118 C   0  0  0  0  0  0  0  0  0  0  0  0
    8.8199   -5.3102   24.8400 H   0  0  0  0  0  0  0  0  0  0  0  0
    8.2521   -3.3423   24.1770 C   0  0  0  0  0  0  0  0  0  0  0  0
    9.0105   -2.8409   24.7765 H   0  0  0  0  0  0  0  0  0  0  0  0
    5.4654    0.6966   20.1763 C   0  0  0  0  0  0  0  0  0  0  0  0
    4.9768    0.7098   21.1560 H   0  0  0  0  0  0  0  0  0  0  0  0
    4.8332    1.3228   19.1048 C   0  0  0  0  0  0  0  0  0  0  0  0
    3.8976    1.8589   19.2427 H   0  0  0  0  0  0  0  0  0  0  0  0
  1  2  1  0
  2  3  2  0
  3  4  1  0
  4  5  1  0
  4  6  2  0
  6  7  1  0
  7  8  2  0
  7  9  1  0
  9 10  1  0
  9 11  1  0
 11 12  1  0
 11 13  1  0
 13 14  2  0
 14 15  1  0
 14 16  1  0
 16 17  1  0
 16 18  2  0
 18 19  1  0
 18 20  1  0
 20 21  1  0
 20 22  2  0
 22 23  1  0
  6 24  1  0
 24 25  1  0
 24 26  2  0
 26 27  1  0
 26  2  1  0
 22 13  1  0
M  END
>  <cnnaffinity>  (1) 
-4.61692

>  <filename>  (1) 
O=C(NNc1ccccc1)c1cccnc1

$$$$
