
     RDKit          3D

 31 32  0  0  0  0  0  0  0  0999 V2000
    4.9946    1.7747   16.9937 H   0  0  0  0  0  0  0  0  0  0  0  0
    5.4389    1.2893   17.8589 C   0  0  0  0  0  0  0  0  0  0  0  0
    6.6006    0.6561   17.6437 N   0  0  0  0  0  0  0  0  0  0  0  0
    7.1617    0.0380   18.6854 C   0  0  0  0  0  0  0  0  0  0  0  0
    8.1001   -0.4845   18.5077 H   0  0  0  0  0  0  0  0  0  0  0  0
    6.6100    0.0284   19.9665 C   0  0  0  0  0  0  0  0  0  0  0  0
    7.3700   -0.7749   20.9573 C   0  0  0  0  0  0  0  0  0  0  0  0
    8.1218   -1.6736   20.6198 O   0  0  0  0  0  0  0  0  0  0  0  0
    7.1485   -0.4127   22.2486 N   0  0  0  0  0  0  0  0  0  0  0  0
    6.8200    0.5340   22.3344 H   0  0  0  0  0  0  0  0  0  0  0  0
    7.8765   -1.0211   23.3565 C   0  0  0  0  0  0  0  0  0  0  0  0
    7.3975   -0.6805   24.2821 H   0  0  0  0  0  0  0  0  0  0  0  0
    7.7254   -2.1028   23.3039 H   0  0  0  0  0  0  0  0  0  0  0  0
    9.3681   -0.7279   23.3505 C   0  0  0  0  0  0  0  0  0  0  0  0
    9.8539    0.5184   23.7648 C   0  0  0  0  0  0  0  0  0  0  0  0
    9.1777    1.2633   24.1731 H   0  0  0  0  0  0  0  0  0  0  0  0
   11.2148    0.8102   23.7025 C   0  0  0  0  0  0  0  0  0  0  0  0
   11.5836    1.7627   24.0735 H   0  0  0  0  0  0  0  0  0  0  0  0
   12.1141   -0.1330   23.1807 C   0  0  0  0  0  0  0  0  0  0  0  0
   13.5936    0.1846   23.2196 C   0  0  0  0  0  0  0  0  0  0  0  0
   14.0057    0.3291   24.4973 F   0  0  0  0  0  0  0  0  0  0  0  0
   13.8942    1.3430   22.6046 F   0  0  0  0  0  0  0  0  0  0  0  0
   14.3539   -0.7722   22.6582 F   0  0  0  0  0  0  0  0  0  0  0  0
   11.6344   -1.3703   22.7180 C   0  0  0  0  0  0  0  0  0  0  0  0
   12.3161   -2.1065   22.2885 H   0  0  0  0  0  0  0  0  0  0  0  0
   10.2824   -1.6779   22.8629 C   0  0  0  0  0  0  0  0  0  0  0  0
    9.9262   -2.6650   22.5855 H   0  0  0  0  0  0  0  0  0  0  0  0
    5.3956    0.6980   20.1889 C   0  0  0  0  0  0  0  0  0  0  0  0
    4.9017    0.7061   21.1660 H   0  0  0  0  0  0  0  0  0  0  0  0
    4.7972    1.3319   19.1035 C   0  0  0  0  0  0  0  0  0  0  0  0
    3.8559    1.8602   19.2069 H   0  0  0  0  0  0  0  0  0  0  0  0
  1  2  1  0
  2  3  2  0
  3  4  1  0
  4  5  1  0
  4  6  2  0
  6  7  1  0
  7  8  2  0
  7  9  1  0
  9 10  1  0
  9 11  1  0
 11 12  1  0
 11 13  1  0
 11 14  1  0
 14 15  2  0
 15 16  1  0
 15 17  1  0
 17 18  1  0
 17 19  2  0
 19 20  1  0
 20 21  1  0
 20 22  1  0
 20 23  1  0
 19 24  1  0
 24 25  1  0
 24 26  2  0
 26 27  1  0
  6 28  1  0
 28 29  1  0
 28 30  2  0
 30 31  1  0
 30  2  1  0
 26 14  1  0
M  END
>  <cnnaffinity>  (1) 
-4.87912

>  <filename>  (1) 
O=C(NCc1ccc(C(F)(F)F)cc1)c1cccnc1

$$$$
