
     RDKit          3D

 25 26  0  0  0  0  0  0  0  0999 V2000
    4.9605    1.7679   17.0009 H   0  0  0  0  0  0  0  0  0  0  0  0
    5.4145    1.2797   17.8623 C   0  0  0  0  0  0  0  0  0  0  0  0
    6.5770    0.6533   17.6319 N   0  0  0  0  0  0  0  0  0  0  0  0
    7.1764    0.0559   18.6678 C   0  0  0  0  0  0  0  0  0  0  0  0
    8.1094   -0.4544   18.4368 H   0  0  0  0  0  0  0  0  0  0  0  0
    6.6601    0.0518   19.9676 C   0  0  0  0  0  0  0  0  0  0  0  0
    7.4176   -0.7349   20.9825 C   0  0  0  0  0  0  0  0  0  0  0  0
    8.1494   -1.6622   20.6727 O   0  0  0  0  0  0  0  0  0  0  0  0
    7.1961   -0.3637   22.2731 N   0  0  0  0  0  0  0  0  0  0  0  0
    6.8360    0.5629   22.4065 H   0  0  0  0  0  0  0  0  0  0  0  0
    7.8664   -1.0405   23.3723 C   0  0  0  0  0  0  0  0  0  0  0  0
    7.3959   -0.7049   24.3036 H   0  0  0  0  0  0  0  0  0  0  0  0
    7.6839   -2.1183   23.2838 H   0  0  0  0  0  0  0  0  0  0  0  0
    9.3575   -0.8022   23.4033 C   0  0  0  0  0  0  0  0  0  0  0  0
   10.0432    0.3849   23.7655 C   0  0  0  0  0  0  0  0  0  0  0  0
    9.6541    1.3125   24.1754 H   0  0  0  0  0  0  0  0  0  0  0  0
   11.3490    0.2786   23.5601 N   0  0  0  0  0  0  0  0  0  0  0  0
   11.5117   -0.9485   23.0524 N   0  0  0  0  0  0  0  0  0  0  0  0
   12.4551   -1.2895   22.9099 H   0  0  0  0  0  0  0  0  0  0  0  0
   10.3567   -1.6455   22.9672 C   0  0  0  0  0  0  0  0  0  0  0  0
   10.3136   -2.6588   22.5770 H   0  0  0  0  0  0  0  0  0  0  0  0
    5.4286    0.6903   20.1933 C   0  0  0  0  0  0  0  0  0  0  0  0
    4.9388    0.6641   21.1702 H   0  0  0  0  0  0  0  0  0  0  0  0
    4.8007    1.3167   19.1193 C   0  0  0  0  0  0  0  0  0  0  0  0
    3.8609    1.8449   19.2384 H   0  0  0  0  0  0  0  0  0  0  0  0
  1  2  1  0
  2  3  2  0
  3  4  1  0
  4  5  1  0
  4  6  2  0
  6  7  1  0
  7  8  2  0
  7  9  1  0
  9 10  1  0
  9 11  1  0
 11 12  1  0
 11 13  1  0
 11 14  1  0
 14 15  1  0
 15 16  1  0
 15 17  2  0
 17 18  1  0
 18 19  1  0
 18 20  1  0
 20 21  1  0
  6 22  1  0
 22 23  1  0
 22 24  2  0
 24 25  1  0
 24  2  1  0
 20 14  2  0
M  END
>  <cnnaffinity>  (1) 
-4.23828

>  <filename>  (1) 
O=C(NCc1cn[nH]c1)c1cccnc1

$$$$
