
     RDKit          3D

 34 36  0  0  0  0  0  0  0  0999 V2000
    4.9614    1.8393   16.9180 H   0  0  0  0  0  0  0  0  0  0  0  0
    5.4044    1.2894   17.7464 C   0  0  0  0  0  0  0  0  0  0  0  0
    6.5052    0.5820   17.4526 N   0  0  0  0  0  0  0  0  0  0  0  0
    7.0912   -0.0878   18.4465 C   0  0  0  0  0  0  0  0  0  0  0  0
    7.9794   -0.6603   18.1881 H   0  0  0  0  0  0  0  0  0  0  0  0
    6.6329   -0.0601   19.7714 C   0  0  0  0  0  0  0  0  0  0  0  0
    7.4475   -0.6716   20.8905 C   0  0  0  0  0  0  0  0  0  0  0  0
    6.7008   -1.5759   21.5671 F   0  0  0  0  0  0  0  0  0  0  0  0
    8.5094   -1.3774   20.3573 F   0  0  0  0  0  0  0  0  0  0  0  0
    7.9982    0.4148   21.9094 C   0  0  0  0  0  0  0  0  0  0  0  0
    7.4010    0.7240   22.9163 O   0  0  0  0  0  0  0  0  0  0  0  0
    9.1571    1.0136   21.4790 N   0  0  0  0  0  0  0  0  0  0  0  0
    9.7191    0.4726   20.8413 H   0  0  0  0  0  0  0  0  0  0  0  0
    9.8255    2.0877   22.1196 C   0  0  0  0  0  0  0  0  0  0  0  0
    9.1889    3.2818   22.3548 C   0  0  0  0  0  0  0  0  0  0  0  0
    8.1165    3.3397   22.1964 H   0  0  0  0  0  0  0  0  0  0  0  0
    9.9277    4.4119   22.8226 C   0  0  0  0  0  0  0  0  0  0  0  0
    9.4118    5.3623   22.9627 H   0  0  0  0  0  0  0  0  0  0  0  0
   11.2839    4.3170   23.0422 C   0  0  0  0  0  0  0  0  0  0  0  0
   11.8662    5.1792   23.3630 H   0  0  0  0  0  0  0  0  0  0  0  0
   11.9646    3.0704   22.8558 C   0  0  0  0  0  0  0  0  0  0  0  0
   13.3736    2.9361   23.0350 C   0  0  0  0  0  0  0  0  0  0  0  0
   13.9465    3.8081   23.3350 H   0  0  0  0  0  0  0  0  0  0  0  0
   13.9950    1.7238   22.8372 C   0  0  0  0  0  0  0  0  0  0  0  0
   15.0741    1.6407   22.8495 H   0  0  0  0  0  0  0  0  0  0  0  0
   13.2412    0.5696   22.5206 C   0  0  0  0  0  0  0  0  0  0  0  0
   13.7551   -0.3791   22.3950 H   0  0  0  0  0  0  0  0  0  0  0  0
   11.8840    0.6588   22.3477 C   0  0  0  0  0  0  0  0  0  0  0  0
   11.2919   -0.2392   22.1793 H   0  0  0  0  0  0  0  0  0  0  0  0
   11.2184    1.9213   22.4343 C   0  0  0  0  0  0  0  0  0  0  0  0
    5.4570    0.6440   20.0646 C   0  0  0  0  0  0  0  0  0  0  0  0
    5.0611    0.6661   21.0822 H   0  0  0  0  0  0  0  0  0  0  0  0
    4.8329    1.3287   19.0225 C   0  0  0  0  0  0  0  0  0  0  0  0
    3.9305    1.9056   19.1802 H   0  0  0  0  0  0  0  0  0  0  0  0
  1  2  1  0
  2  3  2  0
  3  4  1  0
  4  5  1  0
  4  6  2  0
  6  7  1  0
  7  8  1  0
  7  9  1  0
  7 10  1  0
 10 11  2  0
 10 12  1  0
 12 13  1  0
 12 14  1  0
 14 15  2  0
 15 16  1  0
 15 17  1  0
 17 18  1  0
 17 19  2  0
 19 20  1  0
 19 21  1  0
 21 22  2  0
 22 23  1  0
 22 24  1  0
 24 25  1  0
 24 26  2  0
 26 27  1  0
 26 28  1  0
 28 29  1  0
 28 30  2  0
  6 31  1  0
 31 32  1  0
 31 33  2  0
 33 34  1  0
 33  2  1  0
 30 14  1  0
 30 21  1  0
M  END
>  <cnnaffinity>  (1) 
-5.00022

>  <filename>  (1) 
O=C(Nc1cccc2ccccc12)C(F)(F)c1cccnc1

$$$$
