
     RDKit          3D

 34 35  0  0  0  0  0  0  0  0999 V2000
    5.0614    1.6494   16.9489 H   0  0  0  0  0  0  0  0  0  0  0  0
    5.4913    1.2366   17.8608 C   0  0  0  0  0  0  0  0  0  0  0  0
    6.6823    0.6350   17.7323 N   0  0  0  0  0  0  0  0  0  0  0  0
    7.2607    0.1624   18.8325 C   0  0  0  0  0  0  0  0  0  0  0  0
    8.2394   -0.2966   18.6988 H   0  0  0  0  0  0  0  0  0  0  0  0
    6.6544    0.2431   20.0774 C   0  0  0  0  0  0  0  0  0  0  0  0
    7.5280   -0.6067   21.2953 S   0  0  0  0  0  0  0  0  0  0  0  0
    6.8930   -1.8481   21.6835 O   0  0  0  0  0  0  0  0  0  0  0  0
    8.9275   -0.5876   20.9411 O   0  0  0  0  0  0  0  0  0  0  0  0
    7.1712    0.3346   22.5858 N   0  0  0  0  0  0  0  0  0  0  0  0
    7.2529   -0.3033   23.3568 H   0  0  0  0  0  0  0  0  0  0  0  0
    7.9672    1.4377   22.7065 C   0  0  0  0  0  0  0  0  0  0  0  0
    8.5889    1.9657   21.8244 O   0  0  0  0  0  0  0  0  0  0  0  0
    7.8884    1.8428   23.9960 N   0  0  0  0  0  0  0  0  0  0  0  0
    6.9995    1.6664   24.4220 H   0  0  0  0  0  0  0  0  0  0  0  0
    8.2527    3.1104   24.4055 C   0  0  0  0  0  0  0  0  0  0  0  0
    7.5368    3.6445   25.2232 O   0  0  0  0  0  0  0  0  0  0  0  0
    9.4035    3.5555   23.8685 N   0  0  0  0  0  0  0  0  0  0  0  0
    9.6268    3.1015   22.9947 H   0  0  0  0  0  0  0  0  0  0  0  0
   10.1192    4.6801   24.2951 C   0  0  0  0  0  0  0  0  0  0  0  0
    9.8927    5.2766   25.5443 C   0  0  0  0  0  0  0  0  0  0  0  0
    9.1061    4.8826   26.1722 H   0  0  0  0  0  0  0  0  0  0  0  0
   10.6712    6.3673   25.9387 C   0  0  0  0  0  0  0  0  0  0  0  0
   10.5250    6.8225   26.9133 H   0  0  0  0  0  0  0  0  0  0  0  0
   11.6604    6.8573   25.0804 C   0  0  0  0  0  0  0  0  0  0  0  0
   12.6601    8.1948   25.5744 Cl  0  0  0  0  0  0  0  0  0  0  0  0
   11.8892    6.2652   23.8349 C   0  0  0  0  0  0  0  0  0  0  0  0
   12.6627    6.6669   23.1889 H   0  0  0  0  0  0  0  0  0  0  0  0
   11.1130    5.1701   23.4456 C   0  0  0  0  0  0  0  0  0  0  0  0
   11.2552    4.6901   22.4802 H   0  0  0  0  0  0  0  0  0  0  0  0
    5.3968    0.8378   20.2343 C   0  0  0  0  0  0  0  0  0  0  0  0
    4.8806    0.9216   21.1942 H   0  0  0  0  0  0  0  0  0  0  0  0
    4.8148    1.3502   19.0792 C   0  0  0  0  0  0  0  0  0  0  0  0
    3.8559    1.8549   19.1049 H   0  0  0  0  0  0  0  0  0  0  0  0
  1  2  1  0
  2  3  2  0
  3  4  1  0
  4  5  1  0
  4  6  2  0
  6  7  1  0
  7  8  2  0
  7  9  2  0
  7 10  1  0
 10 11  1  0
 10 12  1  0
 12 13  2  0
 12 14  1  0
 14 15  1  0
 14 16  1  0
 16 17  2  0
 16 18  1  0
 18 19  1  0
 18 20  1  0
 20 21  2  0
 21 22  1  0
 21 23  1  0
 23 24  1  0
 23 25  2  0
 25 26  1  0
 25 27  1  0
 27 28  1  0
 27 29  2  0
 29 30  1  0
  6 31  1  0
 31 32  1  0
 31 33  2  0
 33 34  1  0
 33  2  1  0
 29 20  1  0
M  END
>  <cnnaffinity>  (1) 
-5.19278

>  <filename>  (1) 
O=C(NC(=O)NS(=O)(=O)c1cccnc1)Nc1ccc(Cl)cc1

$$$$
