
     RDKit          3D

 37 39  0  0  0  0  0  0  0  0999 V2000
   11.4456   -1.8653   21.2543 O   0  0  0  0  0  0  0  0  0  0  0  0
   11.0301   -1.1633   22.1551 C   0  0  0  0  0  0  0  0  0  0  0  0
    9.8831   -1.4625   22.8462 N   0  0  0  0  0  0  0  0  0  0  0  0
    8.8405   -2.2209   22.1665 C   0  0  0  0  0  0  0  0  0  0  0  0
    8.2685   -1.4196   21.0213 C   0  0  0  0  0  0  0  0  0  0  0  0
    7.1735   -0.6497   21.0947 C   0  0  0  0  0  0  0  0  0  0  0  0
    6.5516    0.0636   19.9607 C   0  0  0  0  0  0  0  0  0  0  0  0
    5.3439    0.7678   20.1201 C   0  0  0  0  0  0  0  0  0  0  0  0
    4.7658    1.3933   19.0145 C   0  0  0  0  0  0  0  0  0  0  0  0
    5.4214    1.3156   17.7806 C   0  0  0  0  0  0  0  0  0  0  0  0
    6.5782    0.6592   17.6031 N   0  0  0  0  0  0  0  0  0  0  0  0
    7.1131    0.0554   18.6703 C   0  0  0  0  0  0  0  0  0  0  0  0
    8.0429   -0.4817   18.4894 H   0  0  0  0  0  0  0  0  0  0  0  0
    4.9956    1.7903   16.8977 H   0  0  0  0  0  0  0  0  0  0  0  0
    3.8291    1.9368   19.0893 H   0  0  0  0  0  0  0  0  0  0  0  0
    4.8622    0.8192   21.0971 H   0  0  0  0  0  0  0  0  0  0  0  0
    6.6583   -0.5060   22.0490 H   0  0  0  0  0  0  0  0  0  0  0  0
    8.9030   -1.4235   20.1291 H   0  0  0  0  0  0  0  0  0  0  0  0
    8.0783   -2.4965   22.9085 H   0  0  0  0  0  0  0  0  0  0  0  0
    9.3024   -3.1368   21.7844 H   0  0  0  0  0  0  0  0  0  0  0  0
    9.5736   -0.7193   23.4539 H   0  0  0  0  0  0  0  0  0  0  0  0
   11.8041    0.0414   22.6890 C   0  0  0  0  0  0  0  0  0  0  0  0
   13.1537   -0.1321   22.9215 C   0  0  0  0  0  0  0  0  0  0  0  0
   13.9001    0.8829   23.5617 C   0  0  0  0  0  0  0  0  0  0  0  0
   13.4154    2.0482   23.9109 N   0  0  0  0  0  0  0  0  0  0  0  0
   12.0983    2.2929   23.6302 C   0  0  0  0  0  0  0  0  0  0  0  0
   11.5989    3.5728   24.0048 C   0  0  0  0  0  0  0  0  0  0  0  0
   10.3009    3.9291   23.7452 C   0  0  0  0  0  0  0  0  0  0  0  0
    9.4450    3.0091   23.0831 C   0  0  0  0  0  0  0  0  0  0  0  0
    9.8779    1.7550   22.7052 C   0  0  0  0  0  0  0  0  0  0  0  0
   11.2263    1.3374   22.9932 C   0  0  0  0  0  0  0  0  0  0  0  0
    9.1855    1.1109   22.1612 H   0  0  0  0  0  0  0  0  0  0  0  0
    8.4205    3.3037   22.8860 H   0  0  0  0  0  0  0  0  0  0  0  0
    9.9223    4.9101   24.0319 H   0  0  0  0  0  0  0  0  0  0  0  0
   12.3032    4.2476   24.4739 H   0  0  0  0  0  0  0  0  0  0  0  0
   14.9386    0.6858   23.7875 H   0  0  0  0  0  0  0  0  0  0  0  0
   13.6663   -1.0405   22.6240 H   0  0  0  0  0  0  0  0  0  0  0  0
  1  2  2  0
  2  3  1  0
  3  4  1  0
  4  5  1  0
  5  6  2  3
  6  7  1  0
  7  8  2  0
  8  9  1  0
  9 10  2  0
 10 11  1  0
 11 12  2  0
 12 13  1  0
 10 14  1  0
  9 15  1  0
  8 16  1  0
  6 17  1  0
  5 18  1  0
  4 19  1  0
  4 20  1  0
  3 21  1  0
  2 22  1  0
 22 23  2  0
 23 24  1  0
 24 25  2  0
 25 26  1  0
 26 27  2  0
 27 28  1  0
 28 29  2  0
 29 30  1  0
 30 31  2  0
 30 32  1  0
 29 33  1  0
 28 34  1  0
 27 35  1  0
 24 36  1  0
 23 37  1  0
 12  7  1  0
 31 22  1  0
 31 26  1  0
M  END
>  <cnnaffinity>  (1) 
-5.7442

>  <filename>  (1) 
O=C(NCC=Cc1cccnc1)c1ccnc2ccccc12

$$$$
