
     RDKit          3D

 32 33  0  0  0  0  0  0  0  0999 V2000
    4.9447    1.7706   16.9970 H   0  0  0  0  0  0  0  0  0  0  0  0
    5.4076    1.2832   17.8507 C   0  0  0  0  0  0  0  0  0  0  0  0
    6.5742    0.6623   17.6138 N   0  0  0  0  0  0  0  0  0  0  0  0
    7.1830    0.0713   18.6488 C   0  0  0  0  0  0  0  0  0  0  0  0
    8.1210   -0.4376   18.4134 H   0  0  0  0  0  0  0  0  0  0  0  0
    6.6640    0.0632   19.9459 C   0  0  0  0  0  0  0  0  0  0  0  0
    7.3414   -0.6787   21.0190 C   0  0  0  0  0  0  0  0  0  0  0  0
    8.0111   -2.1644   20.8902 S   0  0  0  0  0  0  0  0  0  0  0  0
    7.2900   -0.1276   22.2729 N   0  0  0  0  0  0  0  0  0  0  0  0
    7.4714   -0.8067   22.9978 H   0  0  0  0  0  0  0  0  0  0  0  0
    7.4600    1.2295   22.5349 C   0  0  0  0  0  0  0  0  0  0  0  0
    7.7685    2.0039   21.6533 O   0  0  0  0  0  0  0  0  0  0  0  0
    7.2217    1.6636   23.9908 C   0  0  0  0  0  0  0  0  0  0  0  0
    7.2394    2.7599   23.9288 H   0  0  0  0  0  0  0  0  0  0  0  0
    5.8374    1.2367   24.5561 C   0  0  0  0  0  0  0  0  0  0  0  0
    5.0280    1.6512   23.9423 H   0  0  0  0  0  0  0  0  0  0  0  0
    5.7401    0.1403   24.5146 H   0  0  0  0  0  0  0  0  0  0  0  0
    5.6599    1.6881   26.0173 C   0  0  0  0  0  0  0  0  0  0  0  0
    4.7083    1.3226   26.4227 H   0  0  0  0  0  0  0  0  0  0  0  0
    5.6189    2.7878   26.0730 H   0  0  0  0  0  0  0  0  0  0  0  0
    6.7437    1.2359   26.8945 N   0  0  0  0  0  0  0  0  0  0  0  0
    6.7487    0.2157   26.8709 H   0  0  0  0  0  0  0  0  0  0  0  0
    8.0535    1.6820   26.4082 C   0  0  0  0  0  0  0  0  0  0  0  0
    8.0847    2.7813   26.4785 H   0  0  0  0  0  0  0  0  0  0  0  0
    8.8207    1.3037   27.0906 H   0  0  0  0  0  0  0  0  0  0  0  0
    8.3530    1.2307   24.9645 C   0  0  0  0  0  0  0  0  0  0  0  0
    9.3147    1.6471   24.6417 H   0  0  0  0  0  0  0  0  0  0  0  0
    8.4572    0.1333   24.9602 H   0  0  0  0  0  0  0  0  0  0  0  0
    5.4240    0.6869   20.1702 C   0  0  0  0  0  0  0  0  0  0  0  0
    4.9659    0.6563   21.1608 H   0  0  0  0  0  0  0  0  0  0  0  0
    4.7963    1.3151   19.1064 C   0  0  0  0  0  0  0  0  0  0  0  0
    3.8638    1.8425   19.2435 H   0  0  0  0  0  0  0  0  0  0  0  0
  1  2  1  0
  2  3  2  0
  3  4  1  0
  4  5  1  0
  4  6  2  0
  6  7  1  0
  7  8  2  0
  7  9  1  0
  9 10  1  0
  9 11  1  0
 11 12  2  0
 11 13  1  0
 13 14  1  0
 13 15  1  0
 15 16  1  0
 15 17  1  0
 15 18  1  0
 18 19  1  0
 18 20  1  0
 18 21  1  0
 21 22  1  0
 21 23  1  0
 23 24  1  0
 23 25  1  0
 23 26  1  0
 26 27  1  0
 26 28  1  0
  6 29  1  0
 29 30  1  0
 29 31  2  0
 31 32  1  0
 31  2  1  0
 26 13  1  0
M  END
>  <cnnaffinity>  (1) 
-4.22029

>  <filename>  (1) 
O=C(NC(=S)c1cccnc1)C1CCNCC1

$$$$
