
     RDKit          3D

 27 28  0  0  0  0  0  0  0  0999 V2000
    4.9166    2.0162   16.8500 H   0  0  0  0  0  0  0  0  0  0  0  0
    5.4259    1.4915   17.6548 C   0  0  0  0  0  0  0  0  0  0  0  0
    6.6107    0.9455   17.3338 N   0  0  0  0  0  0  0  0  0  0  0  0
    7.2489    0.2618   18.2801 C   0  0  0  0  0  0  0  0  0  0  0  0
    8.2206   -0.1461   17.9972 H   0  0  0  0  0  0  0  0  0  0  0  0
    6.7231    0.0329   19.5730 C   0  0  0  0  0  0  0  0  0  0  0  0
    7.4010   -0.9169   20.4855 C   0  0  0  0  0  0  0  0  0  0  0  0
    8.9955   -1.2206   20.4187 S   0  0  0  0  0  0  0  0  0  0  0  0
    6.5546   -1.7815   21.4294 C   0  0  0  0  0  0  0  0  0  0  0  0
    5.6721   -2.4798   20.9608 O   0  0  0  0  0  0  0  0  0  0  0  0
    6.9351   -1.8219   22.9033 C   0  0  0  0  0  0  0  0  0  0  0  0
    7.7346   -0.8633   23.4085 N   0  0  0  0  0  0  0  0  0  0  0  0
    8.0831   -0.9323   24.6906 C   0  0  0  0  0  0  0  0  0  0  0  0
    8.7725   -0.1682   25.0470 H   0  0  0  0  0  0  0  0  0  0  0  0
    7.6451   -1.9550   25.5337 C   0  0  0  0  0  0  0  0  0  0  0  0
    8.0154   -1.9274   26.9774 C   0  0  0  0  0  0  0  0  0  0  0  0
    8.2838   -3.1555   27.4555 F   0  0  0  0  0  0  0  0  0  0  0  0
    9.1006   -1.1707   27.2143 F   0  0  0  0  0  0  0  0  0  0  0  0
    7.0136   -1.4337   27.7284 F   0  0  0  0  0  0  0  0  0  0  0  0
    6.8359   -2.9781   25.0176 C   0  0  0  0  0  0  0  0  0  0  0  0
    6.5472   -3.8257   25.6397 H   0  0  0  0  0  0  0  0  0  0  0  0
    6.4400   -2.8819   23.6920 C   0  0  0  0  0  0  0  0  0  0  0  0
    5.7511   -3.5986   23.2654 H   0  0  0  0  0  0  0  0  0  0  0  0
    5.5254    0.6863   19.9173 C   0  0  0  0  0  0  0  0  0  0  0  0
    5.1351    0.6467   20.9356 H   0  0  0  0  0  0  0  0  0  0  0  0
    4.8598    1.4111   18.9273 C   0  0  0  0  0  0  0  0  0  0  0  0
    3.9188    1.9119   19.1228 H   0  0  0  0  0  0  0  0  0  0  0  0
  1  2  1  0
  2  3  2  0
  3  4  1  0
  4  5  1  0
  4  6  2  0
  6  7  1  0
  7  8  2  0
  7  9  1  0
  9 10  2  0
  9 11  1  0
 11 12  2  0
 12 13  1  0
 13 14  1  0
 13 15  2  0
 15 16  1  0
 16 17  1  0
 16 18  1  0
 16 19  1  0
 15 20  1  0
 20 21  1  0
 20 22  2  0
 22 23  1  0
  6 24  1  0
 24 25  1  0
 24 26  2  0
 26 27  1  0
 26  2  1  0
 22 11  1  0
M  END
>  <cnnaffinity>  (1) 
-4.61412

>  <filename>  (1) 
O=C(C(=S)c1cccnc1)c1ccc(C(F)(F)F)cn1

$$$$
