
     RDKit          3D

 26 27  0  0  0  0  0  0  0  0999 V2000
    4.9778    1.7579   17.0199 H   0  0  0  0  0  0  0  0  0  0  0  0
    5.4291    1.2775   17.8868 C   0  0  0  0  0  0  0  0  0  0  0  0
    6.5938    0.6529   17.6643 N   0  0  0  0  0  0  0  0  0  0  0  0
    7.1817    0.0584   18.7034 C   0  0  0  0  0  0  0  0  0  0  0  0
    8.1130   -0.4583   18.4825 H   0  0  0  0  0  0  0  0  0  0  0  0
    6.6619    0.0535   20.0083 C   0  0  0  0  0  0  0  0  0  0  0  0
    7.4464   -0.7532   20.9970 C   0  0  0  0  0  0  0  0  0  0  0  0
    8.1592   -1.6608   20.6405 O   0  0  0  0  0  0  0  0  0  0  0  0
    7.3006   -0.3853   22.3218 N   0  0  0  0  0  0  0  0  0  0  0  0
    6.8651    0.4912   22.5085 H   0  0  0  0  0  0  0  0  0  0  0  0
    7.8162   -1.0890   23.3965 C   0  0  0  0  0  0  0  0  0  0  0  0
    8.5688   -2.0262   23.2799 O   0  0  0  0  0  0  0  0  0  0  0  0
    7.3859   -0.6102   24.7457 C   0  0  0  0  0  0  0  0  0  0  0  0
    8.2231   -1.0131   25.7994 C   0  0  0  0  0  0  0  0  0  0  0  0
    9.1236   -1.5951   25.5997 H   0  0  0  0  0  0  0  0  0  0  0  0
    7.9803   -0.7448   27.0812 N   0  0  0  0  0  0  0  0  0  0  0  0
    6.8688   -0.0654   27.3806 C   0  0  0  0  0  0  0  0  0  0  0  0
    6.7134    0.1325   28.4425 H   0  0  0  0  0  0  0  0  0  0  0  0
    5.9507    0.3649   26.4158 C   0  0  0  0  0  0  0  0  0  0  0  0
    5.0579    0.8964   26.7321 H   0  0  0  0  0  0  0  0  0  0  0  0
    6.2069    0.0827   25.0712 C   0  0  0  0  0  0  0  0  0  0  0  0
    5.4611    0.3612   24.3220 H   0  0  0  0  0  0  0  0  0  0  0  0
    5.4286    0.6939   20.2218 C   0  0  0  0  0  0  0  0  0  0  0  0
    4.9094    0.6817   21.1818 H   0  0  0  0  0  0  0  0  0  0  0  0
    4.8077    1.3199   19.1389 C   0  0  0  0  0  0  0  0  0  0  0  0
    3.8580    1.8386   19.2422 H   0  0  0  0  0  0  0  0  0  0  0  0
  1  2  1  0
  2  3  2  0
  3  4  1  0
  4  5  1  0
  4  6  2  0
  6  7  1  0
  7  8  2  0
  7  9  1  0
  9 10  1  0
  9 11  1  0
 11 12  2  0
 11 13  1  0
 13 14  2  0
 14 15  1  0
 14 16  1  0
 16 17  2  0
 17 18  1  0
 17 19  1  0
 19 20  1  0
 19 21  2  0
 21 22  1  0
  6 23  1  0
 23 24  1  0
 23 25  2  0
 25 26  1  0
 25  2  1  0
 21 13  1  0
M  END
>  <cnnaffinity>  (1) 
-4.37522

>  <filename>  (1) 
O=C(NC(=O)c1cccnc1)c1cccnc1

$$$$
