
     RDKit          3D

 37 39  0  0  0  0  0  0  0  0999 V2000
    4.9372    1.7930   16.9987 H   0  0  0  0  0  0  0  0  0  0  0  0
    5.4085    1.2849   17.8383 C   0  0  0  0  0  0  0  0  0  0  0  0
    6.5719    0.6625   17.5785 N   0  0  0  0  0  0  0  0  0  0  0  0
    7.1686    0.0139   18.5844 C   0  0  0  0  0  0  0  0  0  0  0  0
    8.1230   -0.4565   18.3590 H   0  0  0  0  0  0  0  0  0  0  0  0
    6.6443   -0.0342   19.8927 C   0  0  0  0  0  0  0  0  0  0  0  0
    7.3415   -0.7056   20.9495 N   0  0  0  0  0  0  0  0  0  0  0  0
    7.7309   -1.9862   20.6551 N   0  0  0  0  0  0  0  0  0  0  0  0
    8.3224   -2.6792   21.5779 C   0  0  0  0  0  0  0  0  0  0  0  0
    8.5856   -3.6873   21.2669 H   0  0  0  0  0  0  0  0  0  0  0  0
    8.6633   -2.1569   22.8897 C   0  0  0  0  0  0  0  0  0  0  0  0
    9.3725   -3.0249   23.8985 C   0  0  0  0  0  0  0  0  0  0  0  0
    9.9942   -2.4021   24.5578 H   0  0  0  0  0  0  0  0  0  0  0  0
   10.0720   -3.7161   23.4120 H   0  0  0  0  0  0  0  0  0  0  0  0
    8.4201   -3.8073   24.6788 N   0  0  0  0  0  0  0  0  0  0  0  0
    7.4378   -3.6023   24.6103 H   0  0  0  0  0  0  0  0  0  0  0  0
    8.8542   -4.5780   25.7220 C   0  0  0  0  0  0  0  0  0  0  0  0
   10.0370   -4.5965   26.0361 O   0  0  0  0  0  0  0  0  0  0  0  0
    7.8004   -5.4133   26.4396 C   0  0  0  0  0  0  0  0  0  0  0  0
    6.5913   -5.8229   25.8381 C   0  0  0  0  0  0  0  0  0  0  0  0
    6.3526   -5.5469   24.8112 H   0  0  0  0  0  0  0  0  0  0  0  0
    5.6882   -6.6421   26.5261 C   0  0  0  0  0  0  0  0  0  0  0  0
    4.7596   -6.9446   26.0466 H   0  0  0  0  0  0  0  0  0  0  0  0
    5.9709   -7.0691   27.8282 C   0  0  0  0  0  0  0  0  0  0  0  0
    5.2734   -7.7122   28.3619 H   0  0  0  0  0  0  0  0  0  0  0  0
    7.1734   -6.6850   28.4322 C   0  0  0  0  0  0  0  0  0  0  0  0
    7.4169   -7.0425   29.4302 H   0  0  0  0  0  0  0  0  0  0  0  0
    8.0807   -5.8747   27.7434 C   0  0  0  0  0  0  0  0  0  0  0  0
    9.0364   -5.6208   28.1985 H   0  0  0  0  0  0  0  0  0  0  0  0
    8.3277   -0.8608   23.1489 C   0  0  0  0  0  0  0  0  0  0  0  0
    8.5503   -0.3586   24.0854 H   0  0  0  0  0  0  0  0  0  0  0  0
    7.6238   -0.0213   22.1865 C   0  0  0  0  0  0  0  0  0  0  0  0
    7.3043    1.1377   22.3781 O   0  0  0  0  0  0  0  0  0  0  0  0
    5.4431    0.6268   20.1583 C   0  0  0  0  0  0  0  0  0  0  0  0
    5.0464    0.6432   21.1706 H   0  0  0  0  0  0  0  0  0  0  0  0
    4.8135    1.2893   19.1017 C   0  0  0  0  0  0  0  0  0  0  0  0
    3.8900    1.8313   19.2582 H   0  0  0  0  0  0  0  0  0  0  0  0
  1  2  1  0
  2  3  2  0
  3  4  1  0
  4  5  1  0
  4  6  2  0
  6  7  1  0
  7  8  1  0
  8  9  2  0
  9 10  1  0
  9 11  1  0
 11 12  1  0
 12 13  1  0
 12 14  1  0
 12 15  1  0
 15 16  1  0
 15 17  1  0
 17 18  2  0
 17 19  1  0
 19 20  2  0
 20 21  1  0
 20 22  1  0
 22 23  1  0
 22 24  2  0
 24 25  1  0
 24 26  1  0
 26 27  1  0
 26 28  2  0
 28 29  1  0
 11 30  2  0
 30 31  1  0
 30 32  1  0
 32 33  2  0
  6 34  1  0
 34 35  1  0
 34 36  2  0
 36 37  1  0
 36  2  1  0
 32  7  1  0
 28 19  1  0
M  END
>  <cnnaffinity>  (1) 
-4.98133

>  <filename>  (1) 
O=C(NCc1cnn(-c2cccnc2)c(=O)c1)c1ccccc1

$$$$
