
     RDKit          3D

 15 15  0  0  0  0  0  0  0  0999 V2000
    4.9961    1.7809   17.0013 H   0  0  0  0  0  0  0  0  0  0  0  0
    5.4380    1.2880   17.8626 C   0  0  0  0  0  0  0  0  0  0  0  0
    6.5985    0.6568   17.6349 N   0  0  0  0  0  0  0  0  0  0  0  0
    7.1752    0.0500   18.6731 C   0  0  0  0  0  0  0  0  0  0  0  0
    8.1116   -0.4722   18.4793 H   0  0  0  0  0  0  0  0  0  0  0  0
    6.6399    0.0476   19.9674 C   0  0  0  0  0  0  0  0  0  0  0  0
    7.4001   -0.7692   20.9584 C   0  0  0  0  0  0  0  0  0  0  0  0
    8.2404   -1.5706   20.6239 O   0  0  0  0  0  0  0  0  0  0  0  0
    6.9743   -0.5021   22.2717 N   0  0  0  0  0  0  0  0  0  0  0  0
    6.9854    0.5180   22.3517 H   0  0  0  0  0  0  0  0  0  0  0  0
    8.0289   -1.1234   23.5058 Cl  0  0  0  0  0  0  0  0  0  0  0  0
    5.4101    0.6907   20.1908 C   0  0  0  0  0  0  0  0  0  0  0  0
    4.9214    0.6658   21.1692 H   0  0  0  0  0  0  0  0  0  0  0  0
    4.8020    1.3244   19.1095 C   0  0  0  0  0  0  0  0  0  0  0  0
    3.8517    1.8385   19.2135 H   0  0  0  0  0  0  0  0  0  0  0  0
  1  2  1  0
  2  3  2  0
  3  4  1  0
  4  5  1  0
  4  6  2  0
  6  7  1  0
  7  8  2  0
  7  9  1  0
  9 10  1  0
  9 11  1  0
  6 12  1  0
 12 13  1  0
 12 14  2  0
 14 15  1  0
 14  2  1  0
M  END
>  <cnnaffinity>  (1) 
-3.76038

>  <filename>  (1) 
O=C(NCl)c1cccnc1

$$$$
