
     RDKit          3D

 38 39  0  0  0  0  0  0  0  0999 V2000
    9.1684    0.1386   21.1875 H   0  0  0  0  0  0  0  0  0  0  0  0
    8.7430   -0.6586   20.8204 O   0  0  0  0  0  0  0  0  0  0  0  0
    7.3634   -0.4688   21.0457 N   0  0  0  0  0  0  0  0  0  0  0  0
    6.7213   -1.3053   22.0313 C   0  0  0  0  0  0  0  0  0  0  0  0
    5.8774   -2.1284   21.7686 O   0  0  0  0  0  0  0  0  0  0  0  0
    7.1198   -1.1210   23.3428 N   0  0  0  0  0  0  0  0  0  0  0  0
    7.0958   -1.9550   23.8963 H   0  0  0  0  0  0  0  0  0  0  0  0
    7.9799   -0.1814   23.8833 C   0  0  0  0  0  0  0  0  0  0  0  0
    8.6594   -0.4597   24.8443 O   0  0  0  0  0  0  0  0  0  0  0  0
    7.9401    1.0164   23.2384 N   0  0  0  0  0  0  0  0  0  0  0  0
    7.1009    1.1286   22.6957 H   0  0  0  0  0  0  0  0  0  0  0  0
    8.5868    2.2065   23.7769 C   0  0  0  0  0  0  0  0  0  0  0  0
    9.5030    1.8483   24.2616 H   0  0  0  0  0  0  0  0  0  0  0  0
    7.7811    2.9816   24.8433 C   0  0  0  0  0  0  0  0  0  0  0  0
    7.4722    2.3064   25.6490 H   0  0  0  0  0  0  0  0  0  0  0  0
    8.4977    3.6889   25.2881 H   0  0  0  0  0  0  0  0  0  0  0  0
    6.5878    3.7891   24.2942 C   0  0  0  0  0  0  0  0  0  0  0  0
    5.8001    3.1073   23.9382 H   0  0  0  0  0  0  0  0  0  0  0  0
    6.1316    4.3798   25.1000 H   0  0  0  0  0  0  0  0  0  0  0  0
    7.0240    4.7147   23.1461 C   0  0  0  0  0  0  0  0  0  0  0  0
    6.1602    5.2423   22.7201 H   0  0  0  0  0  0  0  0  0  0  0  0
    7.6898    5.4986   23.5359 H   0  0  0  0  0  0  0  0  0  0  0  0
    7.7703    3.9389   22.0508 C   0  0  0  0  0  0  0  0  0  0  0  0
    8.1352    4.6416   21.2933 H   0  0  0  0  0  0  0  0  0  0  0  0
    7.0698    3.2585   21.5376 H   0  0  0  0  0  0  0  0  0  0  0  0
    8.9615    3.1433   22.6199 C   0  0  0  0  0  0  0  0  0  0  0  0
    9.7197    3.8499   22.9881 H   0  0  0  0  0  0  0  0  0  0  0  0
    9.4346    2.5545   21.8257 H   0  0  0  0  0  0  0  0  0  0  0  0
    6.6669    0.0481   19.9284 C   0  0  0  0  0  0  0  0  0  0  0  0
    7.2108    0.0741   18.6242 C   0  0  0  0  0  0  0  0  0  0  0  0
    8.1607   -0.4155   18.4222 H   0  0  0  0  0  0  0  0  0  0  0  0
    6.5922    0.6671   17.5961 N   0  0  0  0  0  0  0  0  0  0  0  0
    5.4219    1.2863   17.8325 C   0  0  0  0  0  0  0  0  0  0  0  0
    4.9622    1.7915   16.9840 H   0  0  0  0  0  0  0  0  0  0  0  0
    4.7988    1.3021   19.0872 C   0  0  0  0  0  0  0  0  0  0  0  0
    3.8614    1.8339   19.2240 H   0  0  0  0  0  0  0  0  0  0  0  0
    5.4218    0.6493   20.1534 C   0  0  0  0  0  0  0  0  0  0  0  0
    4.9671    0.5991   21.1436 H   0  0  0  0  0  0  0  0  0  0  0  0
  1  2  1  0
  2  3  1  0
  3  4  1  0
  4  5  2  0
  4  6  1  0
  6  7  1  0
  6  8  1  0
  8  9  2  0
  8 10  1  0
 10 11  1  0
 10 12  1  0
 12 13  1  0
 12 14  1  0
 14 15  1  0
 14 16  1  0
 14 17  1  0
 17 18  1  0
 17 19  1  0
 17 20  1  0
 20 21  1  0
 20 22  1  0
 20 23  1  0
 23 24  1  0
 23 25  1  0
 23 26  1  0
 26 27  1  0
 26 28  1  0
  3 29  1  0
 29 30  2  0
 30 31  1  0
 30 32  1  0
 32 33  2  0
 33 34  1  0
 33 35  1  0
 35 36  1  0
 35 37  2  0
 37 38  1  0
 26 12  1  0
 37 29  1  0
M  END
>  <cnnaffinity>  (1) 
-5.00216

>  <filename>  (1) 
O=C(NC(=O)N(O)c1cccnc1)NC1CCCCC1

$$$$
