
     RDKit          3D

 37 39  0  0  0  0  0  0  0  0999 V2000
    4.9541    1.8047   16.9879 H   0  0  0  0  0  0  0  0  0  0  0  0
    5.4149    1.3004   17.8335 C   0  0  0  0  0  0  0  0  0  0  0  0
    6.5700    0.6624   17.5880 N   0  0  0  0  0  0  0  0  0  0  0  0
    7.1527    0.0342   18.6131 C   0  0  0  0  0  0  0  0  0  0  0  0
    8.0870   -0.4783   18.3878 H   0  0  0  0  0  0  0  0  0  0  0  0
    6.6342    0.0349   19.9154 C   0  0  0  0  0  0  0  0  0  0  0  0
    7.3886   -0.6973   20.9409 C   0  0  0  0  0  0  0  0  0  0  0  0
    7.7482   -1.9539   20.8393 N   0  0  0  0  0  0  0  0  0  0  0  0
    8.4069   -2.2489   22.0117 C   0  0  0  0  0  0  0  0  0  0  0  0
    8.7700   -3.2477   22.2156 H   0  0  0  0  0  0  0  0  0  0  0  0
    8.4866   -1.1424   22.8058 C   0  0  0  0  0  0  0  0  0  0  0  0
    8.8995   -0.9681   23.7928 H   0  0  0  0  0  0  0  0  0  0  0  0
    7.8477   -0.1381   22.1023 N   0  0  0  0  0  0  0  0  0  0  0  0
    7.6493    1.2262   22.5183 C   0  0  0  0  0  0  0  0  0  0  0  0
    7.7593    1.8789   21.6502 H   0  0  0  0  0  0  0  0  0  0  0  0
    8.4397    1.4787   23.2379 H   0  0  0  0  0  0  0  0  0  0  0  0
    6.3289    1.3889   23.1091 N   0  0  0  0  0  0  0  0  0  0  0  0
    5.8631    2.2677   22.9647 H   0  0  0  0  0  0  0  0  0  0  0  0
    6.2010    0.9916   24.4351 C   0  0  0  0  0  0  0  0  0  0  0  0
    7.0625    0.4100   25.0659 O   0  0  0  0  0  0  0  0  0  0  0  0
    4.9837    1.3831   24.9276 N   0  0  0  0  0  0  0  0  0  0  0  0
    4.3306    1.6685   24.2269 H   0  0  0  0  0  0  0  0  0  0  0  0
    4.5024    1.0772   26.2159 C   0  0  0  0  0  0  0  0  0  0  0  0
    3.1533    0.7487   26.4018 C   0  0  0  0  0  0  0  0  0  0  0  0
    2.4834    0.6946   25.5461 H   0  0  0  0  0  0  0  0  0  0  0  0
    2.6893    0.4517   27.6897 C   0  0  0  0  0  0  0  0  0  0  0  0
    1.6486    0.1722   27.8407 H   0  0  0  0  0  0  0  0  0  0  0  0
    3.5608    0.5080   28.7849 C   0  0  0  0  0  0  0  0  0  0  0  0
    3.2065    0.2776   29.7843 H   0  0  0  0  0  0  0  0  0  0  0  0
    4.9033    0.8543   28.5906 C   0  0  0  0  0  0  0  0  0  0  0  0
    5.5948    0.9032   29.4307 H   0  0  0  0  0  0  0  0  0  0  0  0
    5.3787    1.1276   27.3082 C   0  0  0  0  0  0  0  0  0  0  0  0
    6.4200    1.3565   27.1127 H   0  0  0  0  0  0  0  0  0  0  0  0
    5.4176    0.6923   20.1566 C   0  0  0  0  0  0  0  0  0  0  0  0
    4.9786    0.6802   21.1539 H   0  0  0  0  0  0  0  0  0  0  0  0
    4.7954    1.3333   19.0873 C   0  0  0  0  0  0  0  0  0  0  0  0
    3.8555    1.8599   19.2119 H   0  0  0  0  0  0  0  0  0  0  0  0
  1  2  1  0
  2  3  2  0
  3  4  1  0
  4  5  1  0
  4  6  2  0
  6  7  1  0
  7  8  2  0
  8  9  1  0
  9 10  1  0
  9 11  2  0
 11 12  1  0
 11 13  1  0
 13 14  1  0
 14 15  1  0
 14 16  1  0
 14 17  1  0
 17 18  1  0
 17 19  1  0
 19 20  2  0
 19 21  1  0
 21 22  1  0
 21 23  1  0
 23 24  2  0
 24 25  1  0
 24 26  1  0
 26 27  1  0
 26 28  2  0
 28 29  1  0
 28 30  1  0
 30 31  1  0
 30 32  2  0
 32 33  1  0
  6 34  1  0
 34 35  1  0
 34 36  2  0
 36 37  1  0
 36  2  1  0
 13  7  1  0
 32 23  1  0
M  END
>  <cnnaffinity>  (1) 
-5.1236

>  <filename>  (1) 
O=C(NCn1ccnc1-c1cccnc1)Nc1ccccc1

$$$$
