
     RDKit          3D

 40 43  0  0  0  0  0  0  0  0999 V2000
    5.0333    1.8298   17.2277 H   0  0  0  0  0  0  0  0  0  0  0  0
    5.4875    1.1977   17.9909 C   0  0  0  0  0  0  0  0  0  0  0  0
    6.5984    0.5416   17.6208 N   0  0  0  0  0  0  0  0  0  0  0  0
    7.2127   -0.2083   18.5428 C   0  0  0  0  0  0  0  0  0  0  0  0
    8.1245   -0.7078   18.2078 H   0  0  0  0  0  0  0  0  0  0  0  0
    6.7507   -0.3663   19.8689 C   0  0  0  0  0  0  0  0  0  0  0  0
    7.5586   -1.0847   20.8722 C   0  0  0  0  0  0  0  0  0  0  0  0
    8.8903   -0.9455   21.1787 C   0  0  0  0  0  0  0  0  0  0  0  0
    9.5920   -0.3536   20.6030 H   0  0  0  0  0  0  0  0  0  0  0  0
    9.2555   -1.6036   22.3253 N   0  0  0  0  0  0  0  0  0  0  0  0
    8.1280   -2.1409   22.7234 C   0  0  0  0  0  0  0  0  0  0  0  0
    7.5951   -2.9719   24.1548 S   0  0  0  0  0  0  0  0  0  0  0  0
    5.9899   -2.8739   23.4645 C   0  0  0  0  0  0  0  0  0  0  0  0
    4.8422   -3.2912   24.1000 N   0  0  0  0  0  0  0  0  0  0  0  0
    4.0224   -3.0520   23.5655 H   0  0  0  0  0  0  0  0  0  0  0  0
    4.7467   -3.6569   25.4272 C   0  0  0  0  0  0  0  0  0  0  0  0
    5.7532   -3.9280   26.0529 O   0  0  0  0  0  0  0  0  0  0  0  0
    3.3295   -3.7589   26.0180 C   0  0  0  0  0  0  0  0  0  0  0  0
    2.6658   -3.0817   25.4607 H   0  0  0  0  0  0  0  0  0  0  0  0
    3.3009   -3.3205   27.5071 C   0  0  0  0  0  0  0  0  0  0  0  0
    3.5348   -2.2511   27.5871 H   0  0  0  0  0  0  0  0  0  0  0  0
    4.1004   -3.8481   28.0466 H   0  0  0  0  0  0  0  0  0  0  0  0
    1.9452   -3.5934   28.1801 C   0  0  0  0  0  0  0  0  0  0  0  0
    2.0045   -3.3328   29.2449 H   0  0  0  0  0  0  0  0  0  0  0  0
    1.1747   -2.9326   27.7543 H   0  0  0  0  0  0  0  0  0  0  0  0
    1.5092   -5.0547   28.0106 C   0  0  0  0  0  0  0  0  0  0  0  0
    2.2356   -5.7033   28.5222 H   0  0  0  0  0  0  0  0  0  0  0  0
    0.5412   -5.2293   28.4975 H   0  0  0  0  0  0  0  0  0  0  0  0
    1.4535   -5.4469   26.5282 C   0  0  0  0  0  0  0  0  0  0  0  0
    0.6641   -4.8657   26.0279 H   0  0  0  0  0  0  0  0  0  0  0  0
    1.1615   -6.4994   26.4227 H   0  0  0  0  0  0  0  0  0  0  0  0
    2.8051   -5.2103   25.8338 C   0  0  0  0  0  0  0  0  0  0  0  0
    2.7136   -5.4394   24.7645 H   0  0  0  0  0  0  0  0  0  0  0  0
    3.5486   -5.9117   26.2432 H   0  0  0  0  0  0  0  0  0  0  0  0
    5.8541   -2.3615   22.2780 N   0  0  0  0  0  0  0  0  0  0  0  0
    7.0797   -1.9068   21.8824 N   0  0  0  0  0  0  0  0  0  0  0  0
    5.5505    0.2801   20.2147 C   0  0  0  0  0  0  0  0  0  0  0  0
    5.1375    0.1443   21.2139 H   0  0  0  0  0  0  0  0  0  0  0  0
    4.9255    1.0918   19.2666 C   0  0  0  0  0  0  0  0  0  0  0  0
    4.0279    1.6537   19.4983 H   0  0  0  0  0  0  0  0  0  0  0  0
  1  2  1  0
  2  3  2  0
  3  4  1  0
  4  5  1  0
  4  6  2  0
  6  7  1  0
  7  8  2  0
  8  9  1  0
  8 10  1  0
 10 11  2  0
 11 12  1  0
 12 13  1  0
 13 14  1  0
 14 15  1  0
 14 16  1  0
 16 17  2  0
 16 18  1  0
 18 19  1  0
 18 20  1  0
 20 21  1  0
 20 22  1  0
 20 23  1  0
 23 24  1  0
 23 25  1  0
 23 26  1  0
 26 27  1  0
 26 28  1  0
 26 29  1  0
 29 30  1  0
 29 31  1  0
 29 32  1  0
 32 33  1  0
 32 34  1  0
 13 35  2  0
 35 36  1  0
  6 37  1  0
 37 38  1  0
 37 39  2  0
 39 40  1  0
 39  2  1  0
 36  7  1  0
 36 11  1  0
 32 18  1  0
M  END
>  <cnnaffinity>  (1) 
-5.36305

>  <filename>  (1) 
O=C(Nc1nn2c(-c3cccnc3)cnc2s1)C1CCCCC1

$$$$
