
     RDKit          3D

 29 30  0  0  0  0  0  0  0  0999 V2000
    5.3078    1.7318   17.1300 H   0  0  0  0  0  0  0  0  0  0  0  0
    5.5662    1.1389   18.0060 C   0  0  0  0  0  0  0  0  0  0  0  0
    6.6479    0.3583   17.8743 N   0  0  0  0  0  0  0  0  0  0  0  0
    6.9970   -0.3847   18.9195 C   0  0  0  0  0  0  0  0  0  0  0  0
    7.8720   -1.0217   18.7938 H   0  0  0  0  0  0  0  0  0  0  0  0
    6.3085   -0.3593   20.1250 C   0  0  0  0  0  0  0  0  0  0  0  0
    7.2643   -1.0439   21.4022 S   0  0  0  0  0  0  0  0  0  0  0  0
    7.6962   -0.0111   22.3177 O   0  0  0  0  0  0  0  0  0  0  0  0
    8.1789   -2.0006   20.8247 O   0  0  0  0  0  0  0  0  0  0  0  0
    6.1839   -1.8382   22.3079 N   0  0  0  0  0  0  0  0  0  0  0  0
    6.1833   -1.4970   23.2484 H   0  0  0  0  0  0  0  0  0  0  0  0
    5.5546   -2.9398   21.8011 C   0  0  0  0  0  0  0  0  0  0  0  0
    5.5925   -3.1692   20.6180 O   0  0  0  0  0  0  0  0  0  0  0  0
    4.8453   -3.7417   22.8778 C   0  0  2  0  0  0  0  0  0  0  0  0
    4.1452   -3.0607   23.3719 H   0  0  0  0  0  0  0  0  0  0  0  0
    5.7709   -4.2741   23.9962 C   0  0  0  0  0  0  0  0  0  0  0  0
    6.0316   -3.5266   24.7597 H   0  0  0  0  0  0  0  0  0  0  0  0
    6.7155   -4.6785   23.6019 H   0  0  0  0  0  0  0  0  0  0  0  0
    5.0391   -5.3216   24.6109 O   0  0  0  0  0  0  0  0  0  0  0  0
    3.8708   -5.6275   23.8633 C   0  0  0  0  0  0  0  0  0  0  0  0
    2.9734   -5.1827   24.3277 H   0  0  0  0  0  0  0  0  0  0  0  0
    3.7366   -6.7111   23.8469 H   0  0  0  0  0  0  0  0  0  0  0  0
    4.0875   -5.0209   22.4844 C   0  0  0  0  0  0  0  0  0  0  0  0
    3.1390   -4.8924   21.9550 H   0  0  0  0  0  0  0  0  0  0  0  0
    4.7333   -5.6613   21.8742 H   0  0  0  0  0  0  0  0  0  0  0  0
    5.1498    0.4204   20.2744 C   0  0  0  0  0  0  0  0  0  0  0  0
    4.5383    0.4728   21.1813 H   0  0  0  0  0  0  0  0  0  0  0  0
    4.7880    1.1852   19.1670 C   0  0  0  0  0  0  0  0  0  0  0  0
    3.9272    1.8460   19.1888 H   0  0  0  0  0  0  0  0  0  0  0  0
  1  2  1  0
  2  3  2  0
  3  4  1  0
  4  5  1  0
  4  6  2  0
  6  7  1  0
  7  8  2  0
  7  9  2  0
  7 10  1  0
 10 11  1  0
 10 12  1  0
 12 13  2  0
 12 14  1  0
 14 15  1  1
 14 16  1  0
 16 17  1  0
 16 18  1  0
 16 19  1  0
 19 20  1  0
 20 21  1  0
 20 22  1  0
 20 23  1  0
 23 24  1  0
 23 25  1  0
  6 26  1  0
 26 27  1  0
 26 28  2  0
 28 29  1  0
 28  2  1  0
 23 14  1  0
M  END
>  <cnnaffinity>  (1) 
-4.5733

>  <filename>  (1) 
O=C(NS(=O)(=O)c1cccnc1)[C@H]1CCOC1

$$$$
