
     RDKit          3D

 27 29  0  0  0  0  0  0  0  0999 V2000
    5.0372    1.7380   17.0491 H   0  0  0  0  0  0  0  0  0  0  0  0
    5.4704    1.2134   17.8991 C   0  0  0  0  0  0  0  0  0  0  0  0
    6.6019    0.5383   17.6646 N   0  0  0  0  0  0  0  0  0  0  0  0
    7.1666   -0.0980   18.6991 C   0  0  0  0  0  0  0  0  0  0  0  0
    8.1042   -0.6097   18.5005 H   0  0  0  0  0  0  0  0  0  0  0  0
    6.6373   -0.1044   19.9988 C   0  0  0  0  0  0  0  0  0  0  0  0
    7.3158   -0.8563   21.0497 C   0  0  0  0  0  0  0  0  0  0  0  0
    6.7333   -1.9491   21.6209 N   0  0  0  0  0  0  0  0  0  0  0  0
    7.5487   -2.3520   22.5573 C   0  0  0  0  0  0  0  0  0  0  0  0
    7.3927   -3.2225   23.1813 H   0  0  0  0  0  0  0  0  0  0  0  0
    8.6555   -1.5777   22.6437 N   0  0  0  0  0  0  0  0  0  0  0  0
    9.3903   -1.6953   23.3322 H   0  0  0  0  0  0  0  0  0  0  0  0
    8.5437   -0.6158   21.6501 C   0  0  0  0  0  0  0  0  0  0  0  0
    9.5171    0.3887   21.1864 C   0  0  0  0  0  0  0  0  0  0  0  0
    9.3825    0.8537   20.0669 O   0  0  0  0  0  0  0  0  0  0  0  0
   10.6623    0.8695   22.0141 C   0  0  0  0  0  0  0  0  0  0  0  0
   10.8753    0.4005   23.2873 O   0  0  0  0  0  0  0  0  0  0  0  0
   11.9786    1.0366   23.7631 C   0  0  0  0  0  0  0  0  0  0  0  0
   12.2904    0.8090   24.7730 H   0  0  0  0  0  0  0  0  0  0  0  0
   12.4803    1.8848   22.8313 C   0  0  0  0  0  0  0  0  0  0  0  0
   13.3583    2.5091   22.9209 H   0  0  0  0  0  0  0  0  0  0  0  0
   11.6258    1.7886   21.6978 C   0  0  0  0  0  0  0  0  0  0  0  0
   11.6926    2.3426   20.7700 H   0  0  0  0  0  0  0  0  0  0  0  0
    5.4303    0.5755   20.2191 C   0  0  0  0  0  0  0  0  0  0  0  0
    4.9672    0.5959   21.2076 H   0  0  0  0  0  0  0  0  0  0  0  0
    4.8491    1.2515   19.1513 C   0  0  0  0  0  0  0  0  0  0  0  0
    3.9397    1.8236   19.2741 H   0  0  0  0  0  0  0  0  0  0  0  0
  1  2  1  0
  2  3  2  0
  3  4  1  0
  4  5  1  0
  4  6  2  0
  6  7  1  0
  7  8  1  0
  8  9  2  0
  9 10  1  0
  9 11  1  0
 11 12  1  0
 11 13  1  0
 13 14  1  0
 14 15  2  0
 14 16  1  0
 16 17  1  0
 17 18  1  0
 18 19  1  0
 18 20  2  0
 20 21  1  0
 20 22  1  0
 22 23  1  0
  6 24  1  0
 24 25  1  0
 24 26  2  0
 26 27  1  0
 26  2  1  0
 13  7  2  0
 22 16  2  0
M  END
>  <cnnaffinity>  (1) 
-5.25896

>  <filename>  (1) 
O=C(c1ccco1)c1[nH]cnc1-c1cccnc1

$$$$
