
     RDKit          3D

 19 19  0  0  0  0  0  0  0  0999 V2000
    9.2771   -2.6423   22.4571 H   0  0  0  0  0  0  0  0  0  0  0  0
    8.4124   -3.6789   22.3196 S   0  0  0  0  0  0  0  0  0  0  0  0
    7.4689   -1.7852   23.3716 S   0  0  0  0  0  0  0  0  0  0  0  0
    8.6956   -1.0746   23.6476 O   0  0  0  0  0  0  0  0  0  0  0  0
    6.4377   -2.1935   24.2886 O   0  0  0  0  0  0  0  0  0  0  0  0
    6.7511   -1.3965   21.9856 N   0  0  0  0  0  0  0  0  0  0  0  0
    5.7613   -1.3582   22.0830 H   0  0  0  0  0  0  0  0  0  0  0  0
    7.4479   -0.8273   20.9716 C   0  0  0  0  0  0  0  0  0  0  0  0
    8.6436   -0.9668   20.8453 O   0  0  0  0  0  0  0  0  0  0  0  0
    6.6283   -0.0604   20.0032 C   0  0  0  0  0  0  0  0  0  0  0  0
    7.1856   -0.0021   18.7177 C   0  0  0  0  0  0  0  0  0  0  0  0
    8.1441   -0.4865   18.5384 H   0  0  0  0  0  0  0  0  0  0  0  0
    6.6167    0.6095   17.6774 N   0  0  0  0  0  0  0  0  0  0  0  0
    5.4552    1.2418   17.8987 C   0  0  0  0  0  0  0  0  0  0  0  0
    5.0097    1.7490   17.0427 H   0  0  0  0  0  0  0  0  0  0  0  0
    4.8287    1.2784   19.1509 C   0  0  0  0  0  0  0  0  0  0  0  0
    3.8965    1.8202   19.2668 H   0  0  0  0  0  0  0  0  0  0  0  0
    5.4184    0.6175   20.2312 C   0  0  0  0  0  0  0  0  0  0  0  0
    4.9527    0.6648   21.2207 H   0  0  0  0  0  0  0  0  0  0  0  0
  1  2  1  0
  2  3  1  0
  3  4  2  0
  3  5  2  0
  3  6  1  0
  6  7  1  0
  6  8  1  0
  8  9  2  0
  8 10  1  0
 10 11  2  0
 11 12  1  0
 11 13  1  0
 13 14  2  0
 14 15  1  0
 14 16  1  0
 16 17  1  0
 16 18  2  0
 18 19  1  0
 18 10  1  0
M  END
>  <cnnaffinity>  (1) 
-4.15684

>  <filename>  (1) 
O=C(NS(=O)(=O)S)c1cccnc1

$$$$
