
     RDKit          3D

 36 37  0  0  0  0  0  0  0  0999 V2000
    5.2642    1.6918   16.9919 H   0  0  0  0  0  0  0  0  0  0  0  0
    5.5850    1.1239   17.8659 C   0  0  0  0  0  0  0  0  0  0  0  0
    6.6804    0.3648   17.7026 N   0  0  0  0  0  0  0  0  0  0  0  0
    7.1308   -0.3014   18.7630 C   0  0  0  0  0  0  0  0  0  0  0  0
    8.0494   -0.8759   18.6285 H   0  0  0  0  0  0  0  0  0  0  0  0
    6.5035   -0.2299   19.9950 C   0  0  0  0  0  0  0  0  0  0  0  0
    7.4370   -0.8868   21.2795 S   0  0  0  0  0  0  0  0  0  0  0  0
    8.4022   -1.8167   20.7418 O   0  0  0  0  0  0  0  0  0  0  0  0
    7.8095    0.1383   22.2312 O   0  0  0  0  0  0  0  0  0  0  0  0
    6.2965   -1.7207   22.1131 N   0  0  0  0  0  0  0  0  0  0  0  0
    6.6263   -1.7829   23.0602 H   0  0  0  0  0  0  0  0  0  0  0  0
    5.7359   -2.8018   21.4738 C   0  0  0  0  0  0  0  0  0  0  0  0
    5.7435   -2.8781   20.2685 O   0  0  0  0  0  0  0  0  0  0  0  0
    4.9480   -3.7567   22.4058 C   0  0  0  0  0  0  0  0  0  0  0  0
    4.5696   -4.5619   21.7621 H   0  0  0  0  0  0  0  0  0  0  0  0
    4.0881   -3.1445   22.6963 H   0  0  0  0  0  0  0  0  0  0  0  0
    5.5891   -4.2645   23.6268 N   0  0  0  0  0  0  0  0  0  0  0  0
    4.6293   -4.6195   24.6875 C   0  0  0  0  0  0  0  0  0  0  0  0
    3.9993   -3.7424   24.8880 H   0  0  0  0  0  0  0  0  0  0  0  0
    3.9465   -5.4364   24.3783 H   0  0  0  0  0  0  0  0  0  0  0  0
    5.3518   -5.0157   25.9778 C   0  0  0  0  0  0  0  0  0  0  0  0
    4.6196   -5.3667   26.7154 H   0  0  0  0  0  0  0  0  0  0  0  0
    5.8388   -4.1232   26.3887 H   0  0  0  0  0  0  0  0  0  0  0  0
    6.3926   -6.1152   25.7323 C   0  0  0  0  0  0  0  0  0  0  0  0
    6.9891   -6.2905   26.6358 H   0  0  0  0  0  0  0  0  0  0  0  0
    5.8559   -7.0519   25.5097 H   0  0  0  0  0  0  0  0  0  0  0  0
    7.3247   -5.7171   24.5748 C   0  0  0  0  0  0  0  0  0  0  0  0
    8.0496   -6.5047   24.3339 H   0  0  0  0  0  0  0  0  0  0  0  0
    7.9114   -4.8354   24.8676 H   0  0  0  0  0  0  0  0  0  0  0  0
    6.5326   -5.3468   23.3236 C   0  0  0  0  0  0  0  0  0  0  0  0
    6.0133   -6.2365   22.9042 H   0  0  0  0  0  0  0  0  0  0  0  0
    7.2209   -4.9906   22.5439 H   0  0  0  0  0  0  0  0  0  0  0  0
    5.3284    0.5095   20.1858 C   0  0  0  0  0  0  0  0  0  0  0  0
    4.7965    0.5591   21.1426 H   0  0  0  0  0  0  0  0  0  0  0  0
    4.8830    1.2214   19.0737 C   0  0  0  0  0  0  0  0  0  0  0  0
    4.0111    1.8669   19.1214 H   0  0  0  0  0  0  0  0  0  0  0  0
  1  2  1  0
  2  3  2  0
  3  4  1  0
  4  5  1  0
  4  6  2  0
  6  7  1  0
  7  8  2  0
  7  9  2  0
  7 10  1  0
 10 11  1  0
 10 12  1  0
 12 13  2  0
 12 14  1  0
 14 15  1  0
 14 16  1  0
 14 17  1  0
 17 18  1  0
 18 19  1  0
 18 20  1  0
 18 21  1  0
 21 22  1  0
 21 23  1  0
 21 24  1  0
 24 25  1  0
 24 26  1  0
 24 27  1  0
 27 28  1  0
 27 29  1  0
 27 30  1  0
 30 31  1  0
 30 32  1  0
  6 33  1  0
 33 34  1  0
 33 35  2  0
 35 36  1  0
 35  2  1  0
 30 17  1  0
M  END
>  <cnnaffinity>  (1) 
-4.93609

>  <filename>  (1) 
O=C(CN1CCCCC1)NS(=O)(=O)c1cccnc1

$$$$
