
     RDKit          3D

 48 51  0  0  0  0  0  0  0  0999 V2000
    4.9579    1.7996   16.9474 H   0  0  0  0  0  0  0  0  0  0  0  0
    5.4110    1.3152   17.8094 C   0  0  0  0  0  0  0  0  0  0  0  0
    6.5590    0.6631   17.5801 N   0  0  0  0  0  0  0  0  0  0  0  0
    7.1356    0.0654   18.6293 C   0  0  0  0  0  0  0  0  0  0  0  0
    8.0661   -0.4502   18.3955 H   0  0  0  0  0  0  0  0  0  0  0  0
    6.6386    0.0854   19.9551 C   0  0  0  0  0  0  0  0  0  0  0  0
    7.4314   -0.5071   21.1524 C   0  0  2  0  0  0  0  0  0  0  0  0
    8.2259    0.6478   21.8184 C   0  0  0  0  0  0  0  0  0  0  0  0
    7.9945    1.0993   22.9242 O   0  0  0  0  0  0  0  0  0  0  0  0
    9.2533    1.0905   21.0324 N   0  0  0  0  0  0  0  0  0  0  0  0
    9.4330    0.5375   20.2149 H   0  0  0  0  0  0  0  0  0  0  0  0
   10.3246    1.9071   21.5336 C   0  0  0  0  0  0  0  0  0  0  0  0
   11.0234    2.0975   20.7115 H   0  0  0  0  0  0  0  0  0  0  0  0
    9.9235    2.8836   21.8362 H   0  0  0  0  0  0  0  0  0  0  0  0
   11.0989    1.2738   22.7109 C   0  0  0  0  0  0  0  0  0  0  0  0
   11.6557    0.3973   22.3539 H   0  0  0  0  0  0  0  0  0  0  0  0
   10.3939    0.9447   23.4836 H   0  0  0  0  0  0  0  0  0  0  0  0
   12.0261    2.3337   23.2335 C   0  0  0  0  0  0  0  0  0  0  0  0
   11.5182    3.3801   24.0182 C   0  0  0  0  0  0  0  0  0  0  0  0
   10.5236    3.2792   24.4561 H   0  0  0  0  0  0  0  0  0  0  0  0
   12.2498    4.5579   24.1819 C   0  0  0  0  0  0  0  0  0  0  0  0
   11.8287    5.3652   24.7769 H   0  0  0  0  0  0  0  0  0  0  0  0
   13.4827    4.7063   23.5295 C   0  0  0  0  0  0  0  0  0  0  0  0
   14.0103    5.6526   23.5778 H   0  0  0  0  0  0  0  0  0  0  0  0
   14.0329    3.6373   22.8155 C   0  0  0  0  0  0  0  0  0  0  0  0
   15.0101    3.7102   22.3411 H   0  0  0  0  0  0  0  0  0  0  0  0
   13.3240    2.4377   22.7186 C   0  0  0  0  0  0  0  0  0  0  0  0
   13.7463    1.5749   22.2135 H   0  0  0  0  0  0  0  0  0  0  0  0
    8.4203   -1.6724   20.7510 C   0  0  0  0  0  0  0  0  0  0  0  0
    9.4747   -1.4300   20.9314 H   0  0  0  0  0  0  0  0  0  0  0  0
    8.3054   -1.8212   19.6901 H   0  0  0  0  0  0  0  0  0  0  0  0
    8.0329   -2.8790   21.6257 C   0  0  2  0  0  0  0  0  0  0  0  0
    8.8358   -3.6153   21.7283 H   0  0  0  0  0  0  0  0  0  0  0  0
    6.6886   -3.4759   21.1676 C   0  0  0  0  0  0  0  0  0  0  0  0
    6.6604   -3.7669   20.1119 H   0  0  0  0  0  0  0  0  0  0  0  0
    6.4487   -4.3680   21.7598 H   0  0  0  0  0  0  0  0  0  0  0  0
    5.6943   -2.3276   21.4884 C   0  0  0  0  0  0  0  0  0  0  0  0
    5.3053   -1.8989   20.5626 H   0  0  0  0  0  0  0  0  0  0  0  0
    4.8534   -2.6810   22.0916 H   0  0  0  0  0  0  0  0  0  0  0  0
    6.5717   -1.2765   22.2173 C   0  0  1  0  0  0  0  0  0  0  0  0
    6.0579   -0.5902   22.8930 H   0  0  0  0  0  0  0  0  0  0  0  0
    7.6133   -2.1657   22.9181 C   0  0  0  0  0  0  0  0  0  0  0  0
    8.4185   -1.5918   23.3954 H   0  0  0  0  0  0  0  0  0  0  0  0
    7.1820   -2.8441   23.6685 H   0  0  0  0  0  0  0  0  0  0  0  0
    5.4355    0.7781   20.1604 C   0  0  0  0  0  0  0  0  0  0  0  0
    4.9880    0.8335   21.1567 H   0  0  0  0  0  0  0  0  0  0  0  0
    4.8056    1.3890   19.0683 C   0  0  0  0  0  0  0  0  0  0  0  0
    3.8710    1.9290   19.1807 H   0  0  0  0  0  0  0  0  0  0  0  0
  1  2  1  0
  2  3  2  0
  3  4  1  0
  4  5  1  0
  4  6  2  0
  6  7  1  0
  7  8  1  1
  8  9  2  0
  8 10  1  0
 10 11  1  0
 10 12  1  0
 12 13  1  0
 12 14  1  0
 12 15  1  0
 15 16  1  0
 15 17  1  0
 15 18  1  0
 18 19  2  0
 19 20  1  0
 19 21  1  0
 21 22  1  0
 21 23  2  0
 23 24  1  0
 23 25  1  0
 25 26  1  0
 25 27  2  0
 27 28  1  0
  7 29  1  0
 29 30  1  0
 29 31  1  0
 29 32  1  0
 32 33  1  1
 32 34  1  0
 34 35  1  0
 34 36  1  0
 34 37  1  0
 37 38  1  0
 37 39  1  0
 37 40  1  0
 40 41  1  1
 40 42  1  0
 42 43  1  0
 42 44  1  0
  6 45  1  0
 45 46  1  0
 45 47  2  0
 47 48  1  0
 47  2  1  0
 40  7  1  0
 27 18  1  0
 42 32  1  0
M  END
>  <cnnaffinity>  (1) 
-5.42923

>  <filename>  (1) 
O=C(NCCc1ccccc1)[C@@]1(c2cccnc2)C[C@@H]2CC[C@H]1C2

$$$$
