
     RDKit          3D

 31 33  0  0  0  0  0  0  0  0999 V2000
    6.9693    5.6933   23.4418 H   0  0  0  0  0  0  0  0  0  0  0  0
    6.8400    4.9076   24.1842 C   0  0  0  0  0  0  0  0  0  0  0  0
    6.9448    3.6512   23.7279 N   0  0  0  0  0  0  0  0  0  0  0  0
    6.8029    2.6330   24.6044 C   0  0  0  0  0  0  0  0  0  0  0  0
    6.9444    1.1614   24.1274 C   0  0  0  0  0  0  0  0  0  0  0  0
    6.8786    0.2396   24.9248 O   0  0  0  0  0  0  0  0  0  0  0  0
    7.1299    0.9536   22.7738 N   0  0  0  0  0  0  0  0  0  0  0  0
    7.1507    1.7808   22.1908 H   0  0  0  0  0  0  0  0  0  0  0  0
    7.5597   -0.2710   22.2493 C   0  0  0  0  0  0  0  0  0  0  0  0
    8.2601   -1.2717   22.8721 C   0  0  0  0  0  0  0  0  0  0  0  0
    8.5419   -1.2739   23.9142 H   0  0  0  0  0  0  0  0  0  0  0  0
    8.4628   -2.2273   21.8564 C   0  0  0  0  0  0  0  0  0  0  0  0
    8.9719   -3.1857   21.9048 H   0  0  0  0  0  0  0  0  0  0  0  0
    7.9370   -1.8594   20.6989 N   0  0  0  0  0  0  0  0  0  0  0  0
    7.3665   -0.6563   20.9431 N   0  0  0  0  0  0  0  0  0  0  0  0
    6.6497    0.0045   19.9158 C   0  0  0  0  0  0  0  0  0  0  0  0
    7.1734    0.0325   18.6105 C   0  0  0  0  0  0  0  0  0  0  0  0
    8.1193   -0.4535   18.3802 H   0  0  0  0  0  0  0  0  0  0  0  0
    6.5750    0.6619   17.5973 N   0  0  0  0  0  0  0  0  0  0  0  0
    5.4109    1.2860   17.8440 C   0  0  0  0  0  0  0  0  0  0  0  0
    4.9493    1.7878   16.9966 H   0  0  0  0  0  0  0  0  0  0  0  0
    4.8060    1.2982   19.1033 C   0  0  0  0  0  0  0  0  0  0  0  0
    3.8769    1.8349   19.2494 H   0  0  0  0  0  0  0  0  0  0  0  0
    5.4282    0.6416   20.1676 C   0  0  0  0  0  0  0  0  0  0  0  0
    4.9901    0.6262   21.1651 H   0  0  0  0  0  0  0  0  0  0  0  0
    6.5443    2.8660   25.9689 C   0  0  0  0  0  0  0  0  0  0  0  0
    6.4480    2.0037   26.6178 H   0  0  0  0  0  0  0  0  0  0  0  0
    6.4275    4.1753   26.4393 C   0  0  0  0  0  0  0  0  0  0  0  0
    6.2202    4.3688   27.4931 H   0  0  0  0  0  0  0  0  0  0  0  0
    6.5800    5.2203   25.5235 C   0  0  0  0  0  0  0  0  0  0  0  0
    6.4962    6.2591   25.8241 H   0  0  0  0  0  0  0  0  0  0  0  0
  1  2  1  0
  2  3  2  0
  3  4  1  0
  4  5  1  0
  5  6  2  0
  5  7  1  0
  7  8  1  0
  7  9  1  0
  9 10  2  0
 10 11  1  0
 10 12  1  0
 12 13  1  0
 12 14  2  0
 14 15  1  0
 15 16  1  0
 16 17  2  0
 17 18  1  0
 17 19  1  0
 19 20  2  0
 20 21  1  0
 20 22  1  0
 22 23  1  0
 22 24  2  0
 24 25  1  0
  4 26  2  0
 26 27  1  0
 26 28  1  0
 28 29  1  0
 28 30  2  0
 30 31  1  0
 30  2  1  0
 15  9  1  0
 24 16  1  0
M  END
>  <cnnaffinity>  (1) 
-5.01326

>  <filename>  (1) 
O=C(Nc1ccnn1-c1cccnc1)c1ccccn1

$$$$
