
     RDKit          3D

 31 32  0  0  0  0  0  0  0  0999 V2000
    4.9389    1.7713   17.0006 H   0  0  0  0  0  0  0  0  0  0  0  0
    5.4092    1.2844   17.8528 C   0  0  0  0  0  0  0  0  0  0  0  0
    6.5734    0.6594   17.6207 N   0  0  0  0  0  0  0  0  0  0  0  0
    7.1747    0.0577   18.6518 C   0  0  0  0  0  0  0  0  0  0  0  0
    8.1097   -0.4418   18.4095 H   0  0  0  0  0  0  0  0  0  0  0  0
    6.6648    0.0518   19.9556 C   0  0  0  0  0  0  0  0  0  0  0  0
    7.4222   -0.7277   20.9828 C   0  0  0  0  0  0  0  0  0  0  0  0
    8.1570   -1.6548   20.6815 O   0  0  0  0  0  0  0  0  0  0  0  0
    7.2157   -0.3631   22.2807 N   0  0  0  0  0  0  0  0  0  0  0  0
    6.8625    0.5632   22.4520 H   0  0  0  0  0  0  0  0  0  0  0  0
    7.9060   -0.9956   23.4014 C   0  0  0  0  0  0  0  0  0  0  0  0
    8.1193   -2.0223   23.0924 H   0  0  0  0  0  0  0  0  0  0  0  0
    7.2168   -1.0477   24.2482 H   0  0  0  0  0  0  0  0  0  0  0  0
    9.2117   -0.3061   23.7837 C   0  0  0  0  0  0  0  0  0  0  0  0
   10.3532   -0.5901   23.0174 C   0  0  0  0  0  0  0  0  0  0  0  0
   10.2566   -1.2973   22.1971 H   0  0  0  0  0  0  0  0  0  0  0  0
   11.5780    0.0271   23.2811 C   0  0  0  0  0  0  0  0  0  0  0  0
   12.4446   -0.2062   22.6688 H   0  0  0  0  0  0  0  0  0  0  0  0
   11.6850    0.9401   24.3312 C   0  0  0  0  0  0  0  0  0  0  0  0
   12.6318    1.4273   24.5504 H   0  0  0  0  0  0  0  0  0  0  0  0
   10.5643    1.2311   25.1101 C   0  0  0  0  0  0  0  0  0  0  0  0
   10.6359    1.9349   25.9348 H   0  0  0  0  0  0  0  0  0  0  0  0
    9.3254    0.6215   24.8466 C   0  0  0  0  0  0  0  0  0  0  0  0
    8.1293    0.9560   25.7263 C   0  0  0  0  0  0  0  0  0  0  0  0
    7.7370   -0.1054   26.4660 F   0  0  0  0  0  0  0  0  0  0  0  0
    8.3687    1.9617   26.5877 F   0  0  0  0  0  0  0  0  0  0  0  0
    7.0479    1.3197   24.9927 F   0  0  0  0  0  0  0  0  0  0  0  0
    5.4294    0.6797   20.1838 C   0  0  0  0  0  0  0  0  0  0  0  0
    4.9621    0.6478   21.1727 H   0  0  0  0  0  0  0  0  0  0  0  0
    4.8001    1.3113   19.1120 C   0  0  0  0  0  0  0  0  0  0  0  0
    3.8665    1.8454   19.2508 H   0  0  0  0  0  0  0  0  0  0  0  0
  1  2  1  0
  2  3  2  0
  3  4  1  0
  4  5  1  0
  4  6  2  0
  6  7  1  0
  7  8  2  0
  7  9  1  0
  9 10  1  0
  9 11  1  0
 11 12  1  0
 11 13  1  0
 11 14  1  0
 14 15  2  0
 15 16  1  0
 15 17  1  0
 17 18  1  0
 17 19  2  0
 19 20  1  0
 19 21  1  0
 21 22  1  0
 21 23  2  0
 23 24  1  0
 24 25  1  0
 24 26  1  0
 24 27  1  0
  6 28  1  0
 28 29  1  0
 28 30  2  0
 30 31  1  0
 30  2  1  0
 23 14  1  0
M  END
>  <cnnaffinity>  (1) 
-4.82891

>  <filename>  (1) 
O=C(NCc1ccccc1C(F)(F)F)c1cccnc1

$$$$
