
     RDKit          3D

 32 34  0  0  0  0  0  0  0  0999 V2000
    5.0499    1.8901   16.7107 H   0  0  0  0  0  0  0  0  0  0  0  0
    5.4043    1.3698   17.5993 C   0  0  0  0  0  0  0  0  0  0  0  0
    6.5505    0.6831   17.4658 N   0  0  0  0  0  0  0  0  0  0  0  0
    7.0249    0.0595   18.5484 C   0  0  0  0  0  0  0  0  0  0  0  0
    7.9611   -0.4881   18.4395 H   0  0  0  0  0  0  0  0  0  0  0  0
    6.3771    0.0837   19.7860 C   0  0  0  0  0  0  0  0  0  0  0  0
    7.0414   -0.6348   20.8924 C   0  0  0  0  0  0  0  0  0  0  0  0
    7.9417   -1.4201   20.7679 O   0  0  0  0  0  0  0  0  0  0  0  0
    6.4561   -0.2523   22.0991 O   0  0  0  0  0  0  0  0  0  0  0  0
    6.9923   -0.6687   23.3406 N   0  0  0  0  0  0  0  0  0  0  0  0
    6.6444   -1.6085   23.5102 H   0  0  0  0  0  0  0  0  0  0  0  0
    8.4045   -0.6451   23.3971 C   0  0  0  0  0  0  0  0  0  0  0  0
    9.0723   -1.8147   23.6871 C   0  0  0  0  0  0  0  0  0  0  0  0
    8.4977   -2.6900   23.9651 H   0  0  0  0  0  0  0  0  0  0  0  0
   10.4761   -1.8864   23.5464 C   0  0  0  0  0  0  0  0  0  0  0  0
   10.9608   -2.8440   23.7113 H   0  0  0  0  0  0  0  0  0  0  0  0
   11.2055   -0.7631   23.2269 C   0  0  0  0  0  0  0  0  0  0  0  0
   12.2868   -0.8051   23.1273 H   0  0  0  0  0  0  0  0  0  0  0  0
   10.5558    0.4946   23.0425 C   0  0  0  0  0  0  0  0  0  0  0  0
   11.2741    1.7138   22.8151 C   0  0  0  0  0  0  0  0  0  0  0  0
   12.3625    1.6981   22.8083 H   0  0  0  0  0  0  0  0  0  0  0  0
   10.6000    2.9015   22.6296 C   0  0  0  0  0  0  0  0  0  0  0  0
   11.1470    3.8281   22.4658 H   0  0  0  0  0  0  0  0  0  0  0  0
    9.1794    2.9423   22.6646 C   0  0  0  0  0  0  0  0  0  0  0  0
    8.6585    3.8844   22.5119 H   0  0  0  0  0  0  0  0  0  0  0  0
    8.4554    1.7978   22.8978 C   0  0  0  0  0  0  0  0  0  0  0  0
    7.3708    1.8114   22.9583 H   0  0  0  0  0  0  0  0  0  0  0  0
    9.1245    0.5522   23.1030 C   0  0  0  0  0  0  0  0  0  0  0  0
    5.1714    0.7846   19.9217 C   0  0  0  0  0  0  0  0  0  0  0  0
    4.6547    0.8115   20.8810 H   0  0  0  0  0  0  0  0  0  0  0  0
    4.6789    1.4413   18.7952 C   0  0  0  0  0  0  0  0  0  0  0  0
    3.7612    2.0171   18.8425 H   0  0  0  0  0  0  0  0  0  0  0  0
  1  2  1  0
  2  3  2  0
  3  4  1  0
  4  5  1  0
  4  6  2  0
  6  7  1  0
  7  8  2  0
  7  9  1  0
  9 10  1  0
 10 11  1  0
 10 12  1  0
 12 13  2  0
 13 14  1  0
 13 15  1  0
 15 16  1  0
 15 17  2  0
 17 18  1  0
 17 19  1  0
 19 20  2  0
 20 21  1  0
 20 22  1  0
 22 23  1  0
 22 24  2  0
 24 25  1  0
 24 26  1  0
 26 27  1  0
 26 28  2  0
  6 29  1  0
 29 30  1  0
 29 31  2  0
 31 32  1  0
 31  2  1  0
 28 12  1  0
 28 19  1  0
M  END
>  <cnnaffinity>  (1) 
-5.15626

>  <filename>  (1) 
O=C(ONc1cccc2ccccc12)c1cccnc1

$$$$
