
     RDKit          3D

 29 30  0  0  0  0  0  0  0  0999 V2000
    5.0377    1.7114   16.9818 H   0  0  0  0  0  0  0  0  0  0  0  0
    5.4964    1.2196   17.8398 C   0  0  0  0  0  0  0  0  0  0  0  0
    6.6596    0.5854   17.6205 N   0  0  0  0  0  0  0  0  0  0  0  0
    7.2373   -0.0225   18.6628 C   0  0  0  0  0  0  0  0  0  0  0  0
    8.1858   -0.5154   18.4490 H   0  0  0  0  0  0  0  0  0  0  0  0
    6.7011   -0.0220   19.9503 C   0  0  0  0  0  0  0  0  0  0  0  0
    7.4315   -0.6303   21.0983 C   0  0  0  0  0  0  0  0  0  0  0  0
    7.3877   -0.1577   22.2181 O   0  0  0  0  0  0  0  0  0  0  0  0
    8.1200   -1.7875   20.7566 N   0  0  0  0  0  0  0  0  0  0  0  0
    7.7670   -2.2299   19.9171 H   0  0  0  0  0  0  0  0  0  0  0  0
    8.7627   -2.6600   21.6514 N   0  0  0  0  0  0  0  0  0  0  0  0
    9.7281   -2.3791   21.8461 H   0  0  0  0  0  0  0  0  0  0  0  0
    8.1130   -2.9986   22.8541 C   0  0  0  0  0  0  0  0  0  0  0  0
    6.7051   -3.0913   23.0069 C   0  0  0  0  0  0  0  0  0  0  0  0
    6.0391   -2.8462   22.1840 H   0  0  0  0  0  0  0  0  0  0  0  0
    6.1049   -3.4734   24.1352 N   0  0  0  0  0  0  0  0  0  0  0  0
    6.8712   -3.7547   25.2063 C   0  0  0  0  0  0  0  0  0  0  0  0
    6.1972   -4.1828   26.5218 C   0  0  0  0  0  0  0  0  0  0  0  0
    6.6124   -5.4079   26.9112 F   0  0  0  0  0  0  0  0  0  0  0  0
    6.5333   -3.3391   27.5194 F   0  0  0  0  0  0  0  0  0  0  0  0
    4.8652   -4.2199   26.4647 F   0  0  0  0  0  0  0  0  0  0  0  0
    8.2789   -3.6698   25.1632 C   0  0  0  0  0  0  0  0  0  0  0  0
    8.8655   -3.8791   26.0520 H   0  0  0  0  0  0  0  0  0  0  0  0
    8.9035   -3.3043   23.9742 C   0  0  0  0  0  0  0  0  0  0  0  0
    9.9944   -3.2453   23.9174 H   0  0  0  0  0  0  0  0  0  0  0  0
    5.4817    0.6336   20.1708 C   0  0  0  0  0  0  0  0  0  0  0  0
    5.0440    0.6430   21.1704 H   0  0  0  0  0  0  0  0  0  0  0  0
    4.8671    1.2563   19.0888 C   0  0  0  0  0  0  0  0  0  0  0  0
    3.9250    1.7791   19.2098 H   0  0  0  0  0  0  0  0  0  0  0  0
  1  2  1  0
  2  3  2  0
  3  4  1  0
  4  5  1  0
  4  6  2  0
  6  7  1  0
  7  8  2  0
  7  9  1  0
  9 10  1  0
  9 11  1  0
 11 12  1  0
 11 13  1  0
 13 14  2  0
 14 15  1  0
 14 16  1  0
 16 17  2  0
 17 18  1  0
 18 19  1  0
 18 20  1  0
 18 21  1  0
 17 22  1  0
 22 23  1  0
 22 24  2  0
 24 25  1  0
  6 26  1  0
 26 27  1  0
 26 28  2  0
 28 29  1  0
 28  2  1  0
 24 13  1  0
M  END
>  <cnnaffinity>  (1) 
-4.85062

>  <filename>  (1) 
O=C(NNc1ccc(C(F)(F)F)nc1)c1cccnc1

$$$$
