
     RDKit          3D

 37 39  0  0  0  0  0  0  0  0999 V2000
    7.4528   -4.6845   21.2815 O   0  0  0  0  0  0  0  0  0  0  0  0
    7.1642   -4.2252   22.3725 C   0  0  0  0  0  0  0  0  0  0  0  0
    7.8334   -3.1324   22.8820 N   0  0  0  0  0  0  0  0  0  0  0  0
    8.8124   -2.3701   22.1110 C   0  0  0  0  0  0  0  0  0  0  0  0
    8.2533   -1.5172   20.9867 C   0  0  0  0  0  0  0  0  0  0  0  0
    7.2988   -0.5885   21.0805 C   0  0  0  0  0  0  0  0  0  0  0  0
    6.6380    0.0664   19.9301 C   0  0  0  0  0  0  0  0  0  0  0  0
    5.4114    0.7235   20.1368 C   0  0  0  0  0  0  0  0  0  0  0  0
    4.7734    1.3452   19.0645 C   0  0  0  0  0  0  0  0  0  0  0  0
    5.3911    1.3040   17.8105 C   0  0  0  0  0  0  0  0  0  0  0  0
    6.5503    0.6697   17.5746 N   0  0  0  0  0  0  0  0  0  0  0  0
    7.1486    0.0699   18.6128 C   0  0  0  0  0  0  0  0  0  0  0  0
    8.0961   -0.4166   18.3759 H   0  0  0  0  0  0  0  0  0  0  0  0
    4.9426    1.8066   16.9578 H   0  0  0  0  0  0  0  0  0  0  0  0
    3.8327    1.8712   19.1869 H   0  0  0  0  0  0  0  0  0  0  0  0
    4.9658    0.7301   21.1329 H   0  0  0  0  0  0  0  0  0  0  0  0
    6.9160   -0.2739   22.0555 H   0  0  0  0  0  0  0  0  0  0  0  0
    8.6354   -1.7553   19.9970 H   0  0  0  0  0  0  0  0  0  0  0  0
    9.3850   -1.7668   22.8297 H   0  0  0  0  0  0  0  0  0  0  0  0
    9.5238   -3.0704   21.6697 H   0  0  0  0  0  0  0  0  0  0  0  0
    7.4376   -2.6871   23.6918 H   0  0  0  0  0  0  0  0  0  0  0  0
    6.0702   -4.8239   23.3135 C   0  0  0  0  0  0  0  0  0  0  0  0
    4.8586   -5.0086   22.8056 N   0  0  0  0  0  0  0  0  0  0  0  0
    3.8903   -5.5488   23.5900 C   0  0  0  0  0  0  0  0  0  0  0  0
    4.0817   -5.8969   24.9008 C   0  0  0  0  0  0  0  0  0  0  0  0
    5.3574   -5.7053   25.4962 C   0  0  0  0  0  0  0  0  0  0  0  0
    5.6169   -6.0387   26.8598 C   0  0  0  0  0  0  0  0  0  0  0  0
    6.8723   -5.8692   27.3924 C   0  0  0  0  0  0  0  0  0  0  0  0
    7.9239   -5.3596   26.5879 C   0  0  0  0  0  0  0  0  0  0  0  0
    7.7028   -5.0224   25.2731 C   0  0  0  0  0  0  0  0  0  0  0  0
    6.4044   -5.1737   24.6830 C   0  0  0  0  0  0  0  0  0  0  0  0
    8.5245   -4.6495   24.6742 H   0  0  0  0  0  0  0  0  0  0  0  0
    8.9149   -5.2430   27.0194 H   0  0  0  0  0  0  0  0  0  0  0  0
    7.0746   -6.1278   28.4287 H   0  0  0  0  0  0  0  0  0  0  0  0
    4.8098   -6.4403   27.4682 H   0  0  0  0  0  0  0  0  0  0  0  0
    3.2788   -6.3401   25.4774 H   0  0  0  0  0  0  0  0  0  0  0  0
    2.9339   -5.7163   23.1020 H   0  0  0  0  0  0  0  0  0  0  0  0
  1  2  2  0
  2  3  1  0
  3  4  1  0
  4  5  1  0
  5  6  2  3
  6  7  1  0
  7  8  2  0
  8  9  1  0
  9 10  2  0
 10 11  1  0
 11 12  2  0
 12 13  1  0
 10 14  1  0
  9 15  1  0
  8 16  1  0
  6 17  1  0
  5 18  1  0
  4 19  1  0
  4 20  1  0
  3 21  1  0
  2 22  1  0
 22 23  2  0
 23 24  1  0
 24 25  2  0
 25 26  1  0
 26 27  2  0
 27 28  1  0
 28 29  2  0
 29 30  1  0
 30 31  2  0
 30 32  1  0
 29 33  1  0
 28 34  1  0
 27 35  1  0
 25 36  1  0
 24 37  1  0
 12  7  1  0
 31 22  1  0
 31 26  1  0
M  END
>  <cnnaffinity>  (1) 
-5.32473

>  <filename>  (1) 
O=C(NCC=Cc1cccnc1)c1nccc2ccccc12

$$$$
