
     RDKit          3D

 37 38  0  0  0  0  0  0  0  0999 V2000
    5.1519    1.7602   17.0502 H   0  0  0  0  0  0  0  0  0  0  0  0
    5.5051    1.2094   17.9220 C   0  0  0  0  0  0  0  0  0  0  0  0
    6.6287    0.4987   17.7564 N   0  0  0  0  0  0  0  0  0  0  0  0
    7.0974   -0.1674   18.8085 C   0  0  0  0  0  0  0  0  0  0  0  0
    8.0094   -0.7438   18.6569 H   0  0  0  0  0  0  0  0  0  0  0  0
    6.4696   -0.1470   20.0438 C   0  0  0  0  0  0  0  0  0  0  0  0
    7.4667   -0.8801   21.2577 S   0  0  0  0  0  0  0  0  0  0  0  0
    8.0009    0.1203   22.1599 O   0  0  0  0  0  0  0  0  0  0  0  0
    8.3070   -1.8807   20.6433 O   0  0  0  0  0  0  0  0  0  0  0  0
    6.3460   -1.6294   22.1689 N   0  0  0  0  0  0  0  0  0  0  0  0
    6.3470   -1.3613   23.1278 H   0  0  0  0  0  0  0  0  0  0  0  0
    5.6648   -2.6763   21.6134 C   0  0  0  0  0  0  0  0  0  0  0  0
    5.7138   -2.8707   20.4207 O   0  0  0  0  0  0  0  0  0  0  0  0
    4.7965   -3.4781   22.5539 C   0  0  0  0  0  0  0  0  0  0  0  0
    4.5071   -2.9012   23.4283 H   0  0  0  0  0  0  0  0  0  0  0  0
    3.8856   -3.6617   21.9873 H   0  0  0  0  0  0  0  0  0  0  0  0
    5.2606   -4.8394   23.1091 C   0  0  0  0  0  0  0  0  0  0  0  0
    5.5099   -5.4988   22.2668 H   0  0  0  0  0  0  0  0  0  0  0  0
    6.4958   -4.7126   24.0217 C   0  0  0  0  0  0  0  0  0  0  0  0
    7.2816   -4.1428   23.5081 H   0  0  0  0  0  0  0  0  0  0  0  0
    6.8967   -5.7206   24.1945 H   0  0  0  0  0  0  0  0  0  0  0  0
    6.1828   -4.0731   25.3863 C   0  0  0  0  0  0  0  0  0  0  0  0
    5.8832   -3.0228   25.2557 H   0  0  0  0  0  0  0  0  0  0  0  0
    7.0895   -4.0464   25.9992 H   0  0  0  0  0  0  0  0  0  0  0  0
    5.0628   -4.8242   26.1161 C   0  0  0  0  0  0  0  0  0  0  0  0
    4.8539   -4.3542   27.0843 H   0  0  0  0  0  0  0  0  0  0  0  0
    5.3956   -5.8484   26.3343 H   0  0  0  0  0  0  0  0  0  0  0  0
    3.7908   -4.8807   25.2618 C   0  0  0  0  0  0  0  0  0  0  0  0
    3.0168   -5.4738   25.7660 H   0  0  0  0  0  0  0  0  0  0  0  0
    3.3791   -3.8649   25.1696 H   0  0  0  0  0  0  0  0  0  0  0  0
    4.0631   -5.4801   23.8667 C   0  0  0  0  0  0  0  0  0  0  0  0
    4.2422   -6.5572   23.9828 H   0  0  0  0  0  0  0  0  0  0  0  0
    3.1562   -5.3884   23.2524 H   0  0  0  0  0  0  0  0  0  0  0  0
    5.2751    0.5633   20.2372 C   0  0  0  0  0  0  0  0  0  0  0  0
    4.7210    0.5872   21.1815 H   0  0  0  0  0  0  0  0  0  0  0  0
    4.7968    1.2605   19.1282 C   0  0  0  0  0  0  0  0  0  0  0  0
    3.8951    1.8594   19.1781 H   0  0  0  0  0  0  0  0  0  0  0  0
  1  2  1  0
  2  3  2  0
  3  4  1  0
  4  5  1  0
  4  6  2  0
  6  7  1  0
  7  8  2  0
  7  9  2  0
  7 10  1  0
 10 11  1  0
 10 12  1  0
 12 13  2  0
 12 14  1  0
 14 15  1  0
 14 16  1  0
 14 17  1  0
 17 18  1  0
 17 19  1  0
 19 20  1  0
 19 21  1  0
 19 22  1  0
 22 23  1  0
 22 24  1  0
 22 25  1  0
 25 26  1  0
 25 27  1  0
 25 28  1  0
 28 29  1  0
 28 30  1  0
 28 31  1  0
 31 32  1  0
 31 33  1  0
  6 34  1  0
 34 35  1  0
 34 36  2  0
 36 37  1  0
 36  2  1  0
 31 17  1  0
M  END
>  <cnnaffinity>  (1) 
-5.2315

>  <filename>  (1) 
O=C(CC1CCCCC1)NS(=O)(=O)c1cccnc1

$$$$
