
     RDKit          3D

 37 38  0  0  0  0  0  0  0  0999 V2000
    7.8221    5.7996   26.6279 H   0  0  0  0  0  0  0  0  0  0  0  0
    7.5994    5.4252   25.7579 O   0  0  0  0  0  0  0  0  0  0  0  0
    8.1603    4.1467   25.7324 N   0  0  0  0  0  0  0  0  0  0  0  0
    7.5054    3.4797   25.3430 H   0  0  0  0  0  0  0  0  0  0  0  0
    9.4606    3.9298   25.2768 C   0  0  0  0  0  0  0  0  0  0  0  0
   10.2982    4.7878   25.1090 O   0  0  0  0  0  0  0  0  0  0  0  0
    9.7485    2.4388   25.1004 C   0  0  0  0  0  0  0  0  0  0  0  0
    8.9264    1.8311   25.4939 H   0  0  0  0  0  0  0  0  0  0  0  0
   10.6171    2.1770   25.7107 H   0  0  0  0  0  0  0  0  0  0  0  0
   10.0605    2.0889   23.6387 C   0  0  0  0  0  0  0  0  0  0  0  0
   10.4568    1.0622   23.5711 H   0  0  0  0  0  0  0  0  0  0  0  0
   10.8625    2.7643   23.3028 H   0  0  0  0  0  0  0  0  0  0  0  0
    8.8176    2.2303   22.7559 C   0  0  0  0  0  0  0  0  0  0  0  0
    8.3933    3.2386   22.8759 H   0  0  0  0  0  0  0  0  0  0  0  0
    8.0508    1.5167   23.1072 H   0  0  0  0  0  0  0  0  0  0  0  0
    9.0851    1.9916   21.2681 C   0  0  0  0  0  0  0  0  0  0  0  0
    9.8500    2.6971   20.9205 H   0  0  0  0  0  0  0  0  0  0  0  0
    8.1720    2.2055   20.6980 H   0  0  0  0  0  0  0  0  0  0  0  0
    9.5510    0.5599   20.9423 C   0  0  0  0  0  0  0  0  0  0  0  0
    9.6073    0.4513   19.8572 H   0  0  0  0  0  0  0  0  0  0  0  0
   10.5469    0.3527   21.3480 H   0  0  0  0  0  0  0  0  0  0  0  0
    8.6281   -0.4928   21.4561 C   0  0  0  0  0  0  0  0  0  0  0  0
    8.8555   -1.3172   22.4448 N   0  0  0  0  0  0  0  0  0  0  0  0
    7.7131   -2.0476   22.6597 N   0  0  0  0  0  0  0  0  0  0  0  0
    6.8323   -1.6360   21.7938 C   0  0  0  0  0  0  0  0  0  0  0  0
    5.8266   -2.0118   21.6949 H   0  0  0  0  0  0  0  0  0  0  0  0
    7.3451   -0.6597   20.9748 N   0  0  0  0  0  0  0  0  0  0  0  0
    6.6738    0.0154   19.8985 C   0  0  0  0  0  0  0  0  0  0  0  0
    7.1734    0.0626   18.5781 C   0  0  0  0  0  0  0  0  0  0  0  0
    8.1105   -0.4309   18.3272 H   0  0  0  0  0  0  0  0  0  0  0  0
    6.5525    0.6811   17.5658 N   0  0  0  0  0  0  0  0  0  0  0  0
    5.3924    1.3035   17.8241 C   0  0  0  0  0  0  0  0  0  0  0  0
    4.9203    1.8133   16.9839 H   0  0  0  0  0  0  0  0  0  0  0  0
    4.8088    1.3124   19.0939 C   0  0  0  0  0  0  0  0  0  0  0  0
    3.8741    1.8394   19.2453 H   0  0  0  0  0  0  0  0  0  0  0  0
    5.4542    0.6531   20.1467 C   0  0  0  0  0  0  0  0  0  0  0  0
    5.0446    0.6314   21.1558 H   0  0  0  0  0  0  0  0  0  0  0  0
  1  2  1  0
  2  3  1  0
  3  4  1  0
  3  5  1  0
  5  6  2  0
  5  7  1  0
  7  8  1  0
  7  9  1  0
  7 10  1  0
 10 11  1  0
 10 12  1  0
 10 13  1  0
 13 14  1  0
 13 15  1  0
 13 16  1  0
 16 17  1  0
 16 18  1  0
 16 19  1  0
 19 20  1  0
 19 21  1  0
 19 22  1  0
 22 23  2  0
 23 24  1  0
 24 25  2  0
 25 26  1  0
 25 27  1  0
 27 28  1  0
 28 29  2  0
 29 30  1  0
 29 31  1  0
 31 32  2  0
 32 33  1  0
 32 34  1  0
 34 35  1  0
 34 36  2  0
 36 37  1  0
 27 22  1  0
 36 28  1  0
M  END
>  <cnnaffinity>  (1) 
-4.89669

>  <filename>  (1) 
O=C(CCCCCc1nncn1-c1cccnc1)NO

$$$$
