
     RDKit          3D

 32 34  0  0  0  0  0  0  0  0999 V2000
    4.9396    1.8094   16.9634 H   0  0  0  0  0  0  0  0  0  0  0  0
    5.4118    1.3077   17.8032 C   0  0  0  0  0  0  0  0  0  0  0  0
    6.5609    0.6664   17.5347 N   0  0  0  0  0  0  0  0  0  0  0  0
    7.1691    0.0373   18.5483 C   0  0  0  0  0  0  0  0  0  0  0  0
    8.1073   -0.4623   18.3194 H   0  0  0  0  0  0  0  0  0  0  0  0
    6.6492   -0.0041   19.8598 C   0  0  0  0  0  0  0  0  0  0  0  0
    7.3023   -0.7130   20.9110 N   0  0  0  0  0  0  0  0  0  0  0  0
    6.6811   -1.6955   21.6946 C   0  0  0  0  0  0  0  0  0  0  0  0
    5.6365   -1.9382   21.5950 H   0  0  0  0  0  0  0  0  0  0  0  0
    7.6032   -2.1060   22.5797 C   0  0  0  0  0  0  0  0  0  0  0  0
    7.5539   -3.0320   23.6035 N   0  0  0  0  0  0  0  0  0  0  0  0
    6.7683   -3.6551   23.6003 H   0  0  0  0  0  0  0  0  0  0  0  0
    8.4790   -3.1525   24.6054 C   0  0  0  0  0  0  0  0  0  0  0  0
    9.5132   -2.4965   24.6436 O   0  0  0  0  0  0  0  0  0  0  0  0
    8.1663   -4.1784   25.6864 C   0  0  0  0  0  0  0  0  0  0  0  0
    6.9105   -4.7777   25.8980 C   0  0  0  0  0  0  0  0  0  0  0  0
    6.0306   -4.5370   25.3076 H   0  0  0  0  0  0  0  0  0  0  0  0
    6.7575   -5.7108   26.9295 C   0  0  0  0  0  0  0  0  0  0  0  0
    5.8104   -6.2310   27.0590 H   0  0  0  0  0  0  0  0  0  0  0  0
    7.7340   -6.0454   27.7826 N   0  0  0  0  0  0  0  0  0  0  0  0
    8.9277   -5.4722   27.5917 C   0  0  0  0  0  0  0  0  0  0  0  0
    9.7242   -5.7166   28.2882 H   0  0  0  0  0  0  0  0  0  0  0  0
    9.1949   -4.5664   26.5673 C   0  0  0  0  0  0  0  0  0  0  0  0
   10.1969   -4.1795   26.4413 H   0  0  0  0  0  0  0  0  0  0  0  0
    8.7451   -1.3968   22.3689 N   0  0  0  0  0  0  0  0  0  0  0  0
    9.5038   -1.4131   23.0310 H   0  0  0  0  0  0  0  0  0  0  0  0
    8.5880   -0.4909   21.3669 C   0  0  0  0  0  0  0  0  0  0  0  0
    9.7115    0.6291   20.8970 S   0  0  0  0  0  0  0  0  0  0  0  0
    5.4511    0.6678   20.1265 C   0  0  0  0  0  0  0  0  0  0  0  0
    5.0443    0.6681   21.1419 H   0  0  0  0  0  0  0  0  0  0  0  0
    4.8203    1.3380   19.0735 C   0  0  0  0  0  0  0  0  0  0  0  0
    3.8869    1.8746   19.2242 H   0  0  0  0  0  0  0  0  0  0  0  0
  1  2  1  0
  2  3  2  0
  3  4  1  0
  4  5  1  0
  4  6  2  0
  6  7  1  0
  7  8  1  0
  8  9  1  0
  8 10  2  0
 10 11  1  0
 11 12  1  0
 11 13  1  0
 13 14  2  0
 13 15  1  0
 15 16  2  0
 16 17  1  0
 16 18  1  0
 18 19  1  0
 18 20  2  0
 20 21  1  0
 21 22  1  0
 21 23  2  0
 23 24  1  0
 10 25  1  0
 25 26  1  0
 25 27  1  0
 27 28  2  0
  6 29  1  0
 29 30  1  0
 29 31  2  0
 31 32  1  0
 31  2  1  0
 27  7  1  0
 23 15  1  0
M  END
>  <cnnaffinity>  (1) 
-5.2247

>  <filename>  (1) 
O=C(Nc1cn(-c2cccnc2)c(=S)[nH]1)c1ccncc1

$$$$
