
     RDKit          3D

 44 46  0  0  0  0  0  0  0  0999 V2000
    5.0714    1.7240   17.0745 H   0  0  0  0  0  0  0  0  0  0  0  0
    5.5222    1.2171   17.9216 C   0  0  0  0  0  0  0  0  0  0  0  0
    6.6819    0.5803   17.6819 N   0  0  0  0  0  0  0  0  0  0  0  0
    7.2568   -0.0546   18.7122 C   0  0  0  0  0  0  0  0  0  0  0  0
    8.1967   -0.5664   18.5029 H   0  0  0  0  0  0  0  0  0  0  0  0
    6.7239   -0.1003   20.0370 C   0  0  0  0  0  0  0  0  0  0  0  0
    7.3495   -0.7457   21.0757 N   0  0  0  0  0  0  0  0  0  0  0  0
    8.6126   -1.4532   21.1871 C   0  0  0  0  0  0  0  0  0  0  0  0
    8.6747   -2.3458   20.5558 H   0  0  0  0  0  0  0  0  0  0  0  0
    9.5110   -0.8429   21.0308 H   0  0  0  0  0  0  0  0  0  0  0  0
    8.2250   -1.7763   22.6472 C   0  0  0  0  0  0  0  0  0  0  0  0
    8.8614   -1.3294   23.4101 H   0  0  0  0  0  0  0  0  0  0  0  0
    8.0798   -3.2695   22.8658 C   0  0  0  0  0  0  0  0  0  0  0  0
    8.5833   -4.0911   22.1418 O   0  0  0  0  0  0  0  0  0  0  0  0
    7.2848   -3.5877   23.9411 N   0  0  0  0  0  0  0  0  0  0  0  0
    7.0739   -2.8706   24.6039 H   0  0  0  0  0  0  0  0  0  0  0  0
    7.0659   -4.9065   24.3102 C   0  0  0  0  0  0  0  0  0  0  0  0
    7.3422   -5.8621   23.6273 O   0  0  0  0  0  0  0  0  0  0  0  0
    6.4951   -4.9764   25.5596 N   0  0  0  0  0  0  0  0  0  0  0  0
    5.9643   -4.1608   25.8165 H   0  0  0  0  0  0  0  0  0  0  0  0
    5.9260   -6.2653   25.9747 C   0  0  0  0  0  0  0  0  0  0  0  0
    6.7459   -6.9916   25.9326 H   0  0  0  0  0  0  0  0  0  0  0  0
    5.5088   -6.2058   27.4511 C   0  0  0  0  0  0  0  0  0  0  0  0
    4.9541   -5.2812   27.6669 H   0  0  0  0  0  0  0  0  0  0  0  0
    6.4115   -6.1791   28.0711 H   0  0  0  0  0  0  0  0  0  0  0  0
    4.6423   -7.4249   27.7913 C   0  0  0  0  0  0  0  0  0  0  0  0
    4.4552   -7.4889   28.8683 H   0  0  0  0  0  0  0  0  0  0  0  0
    5.2072   -8.3324   27.5308 H   0  0  0  0  0  0  0  0  0  0  0  0
    3.3025   -7.3985   27.0083 C   0  0  0  0  0  0  0  0  0  0  0  0
    2.5356   -6.9004   27.6138 H   0  0  0  0  0  0  0  0  0  0  0  0
    2.9564   -8.4261   26.8536 H   0  0  0  0  0  0  0  0  0  0  0  0
    3.3913   -6.6786   25.6388 C   0  0  0  0  0  0  0  0  0  0  0  0
    2.6606   -7.1011   24.9384 H   0  0  0  0  0  0  0  0  0  0  0  0
    3.1303   -5.6159   25.7574 H   0  0  0  0  0  0  0  0  0  0  0  0
    4.7938   -6.7826   25.0267 C   0  0  0  0  0  0  0  0  0  0  0  0
    4.8326   -6.2520   24.0683 H   0  0  0  0  0  0  0  0  0  0  0  0
    5.0103   -7.8317   24.7881 H   0  0  0  0  0  0  0  0  0  0  0  0
    6.9124   -0.9700   22.4402 C   0  0  0  0  0  0  0  0  0  0  0  0
    5.9878   -1.5538   22.5369 H   0  0  0  0  0  0  0  0  0  0  0  0
    6.8315   -0.0418   23.0291 H   0  0  0  0  0  0  0  0  0  0  0  0
    5.4988    0.5695   20.2499 C   0  0  0  0  0  0  0  0  0  0  0  0
    5.0589    0.5679   21.2487 H   0  0  0  0  0  0  0  0  0  0  0  0
    4.9005    1.2322   19.1762 C   0  0  0  0  0  0  0  0  0  0  0  0
    3.9686    1.7718   19.3096 H   0  0  0  0  0  0  0  0  0  0  0  0
  1  2  1  0
  2  3  2  0
  3  4  1  0
  4  5  1  0
  4  6  2  0
  6  7  1  0
  7  8  1  0
  8  9  1  0
  8 10  1  0
  8 11  1  0
 11 12  1  0
 11 13  1  0
 13 14  2  0
 13 15  1  0
 15 16  1  0
 15 17  1  0
 17 18  2  0
 17 19  1  0
 19 20  1  0
 19 21  1  0
 21 22  1  0
 21 23  1  0
 23 24  1  0
 23 25  1  0
 23 26  1  0
 26 27  1  0
 26 28  1  0
 26 29  1  0
 29 30  1  0
 29 31  1  0
 29 32  1  0
 32 33  1  0
 32 34  1  0
 32 35  1  0
 35 36  1  0
 35 37  1  0
 11 38  1  0
 38 39  1  0
 38 40  1  0
  6 41  1  0
 41 42  1  0
 41 43  2  0
 43 44  1  0
 43  2  1  0
 38  7  1  0
 35 21  1  0
M  END
>  <cnnaffinity>  (1) 
-5.23912

>  <filename>  (1) 
O=C(NC(=O)C1CN(c2cccnc2)C1)NC1CCCCC1

$$$$
