
     RDKit          3D

 36 37  0  0  0  0  0  0  0  0999 V2000
   14.4653   -0.0078   24.2669 H   0  0  0  0  0  0  0  0  0  0  0  0
   14.4387    0.1394   23.3007 O   0  0  0  0  0  0  0  0  0  0  0  0
   13.0817    0.2784   22.9712 N   0  0  0  0  0  0  0  0  0  0  0  0
   13.0300    0.4254   21.9724 H   0  0  0  0  0  0  0  0  0  0  0  0
   12.2635    1.1135   23.7242 C   0  0  0  0  0  0  0  0  0  0  0  0
   12.5716    1.4737   24.8434 O   0  0  0  0  0  0  0  0  0  0  0  0
   10.9105    1.3625   23.0940 C   0  0  0  0  0  0  0  0  0  0  0  0
   10.7831    2.4461   23.0060 H   0  0  0  0  0  0  0  0  0  0  0  0
   10.9067    0.9495   22.0785 H   0  0  0  0  0  0  0  0  0  0  0  0
    9.7557    0.7738   23.9391 C   0  0  0  0  0  0  0  0  0  0  0  0
    8.8071    0.9367   23.4052 H   0  0  0  0  0  0  0  0  0  0  0  0
    9.6790    1.3420   24.8768 H   0  0  0  0  0  0  0  0  0  0  0  0
    9.9205   -0.7192   24.2797 C   0  0  0  0  0  0  0  0  0  0  0  0
    9.0210   -1.0558   24.8127 H   0  0  0  0  0  0  0  0  0  0  0  0
   10.7492   -0.8390   24.9941 H   0  0  0  0  0  0  0  0  0  0  0  0
   10.1485   -1.6454   23.0593 C   0  0  0  0  0  0  0  0  0  0  0  0
   11.0874   -1.3712   22.5699 H   0  0  0  0  0  0  0  0  0  0  0  0
   10.2906   -2.6711   23.4196 H   0  0  0  0  0  0  0  0  0  0  0  0
    9.0300   -1.6016   22.0637 C   0  0  0  0  0  0  0  0  0  0  0  0
    8.7246   -0.7445   21.0582 C   0  0  0  0  0  0  0  0  0  0  0  0
    9.2731    0.0768   20.6244 H   0  0  0  0  0  0  0  0  0  0  0  0
    7.4264   -1.0173   20.6206 N   0  0  0  0  0  0  0  0  0  0  0  0
    6.7300   -0.2322   19.6474 C   0  0  0  0  0  0  0  0  0  0  0  0
    7.2468   -0.0289   18.3518 C   0  0  0  0  0  0  0  0  0  0  0  0
    8.1728   -0.5203   18.0482 H   0  0  0  0  0  0  0  0  0  0  0  0
    6.6411    0.7346   17.4337 N   0  0  0  0  0  0  0  0  0  0  0  0
    5.4897    1.3368   17.7728 C   0  0  0  0  0  0  0  0  0  0  0  0
    5.0286    1.9664   17.0136 H   0  0  0  0  0  0  0  0  0  0  0  0
    4.8926    1.1795   19.0282 C   0  0  0  0  0  0  0  0  0  0  0  0
    3.9728    1.7062   19.2473 H   0  0  0  0  0  0  0  0  0  0  0  0
    5.5110    0.3665   19.9815 C   0  0  0  0  0  0  0  0  0  0  0  0
    5.0729    0.1912   20.9654 H   0  0  0  0  0  0  0  0  0  0  0  0
    6.9071   -2.0679   21.3499 C   0  0  0  0  0  0  0  0  0  0  0  0
    5.4386   -2.8531   21.3108 S   0  0  0  0  0  0  0  0  0  0  0  0
    7.9107   -2.4113   22.1939 N   0  0  0  0  0  0  0  0  0  0  0  0
    7.7754   -3.2107   22.7910 H   0  0  0  0  0  0  0  0  0  0  0  0
  1  2  1  0
  2  3  1  0
  3  4  1  0
  3  5  1  0
  5  6  2  0
  5  7  1  0
  7  8  1  0
  7  9  1  0
  7 10  1  0
 10 11  1  0
 10 12  1  0
 10 13  1  0
 13 14  1  0
 13 15  1  0
 13 16  1  0
 16 17  1  0
 16 18  1  0
 16 19  1  0
 19 20  2  0
 20 21  1  0
 20 22  1  0
 22 23  1  0
 23 24  2  0
 24 25  1  0
 24 26  1  0
 26 27  2  0
 27 28  1  0
 27 29  1  0
 29 30  1  0
 29 31  2  0
 31 32  1  0
 22 33  1  0
 33 34  2  0
 33 35  1  0
 35 36  1  0
 35 19  1  0
 31 23  1  0
M  END
>  <cnnaffinity>  (1) 
-5.60445

>  <filename>  (1) 
O=C(CCCCc1cn(-c2cccnc2)c(=S)[nH]1)NO

$$$$
