
     RDKit          3D

 33 34  0  0  0  0  0  0  0  0999 V2000
    5.0679    1.6564   17.0050 H   0  0  0  0  0  0  0  0  0  0  0  0
    5.4919    1.2391   17.9188 C   0  0  0  0  0  0  0  0  0  0  0  0
    6.6828    0.6369   17.7942 N   0  0  0  0  0  0  0  0  0  0  0  0
    7.2245    0.1232   18.8925 C   0  0  0  0  0  0  0  0  0  0  0  0
    8.1965   -0.3476   18.7626 H   0  0  0  0  0  0  0  0  0  0  0  0
    6.6024    0.1736   20.1307 C   0  0  0  0  0  0  0  0  0  0  0  0
    7.5299   -0.7264   21.2814 S   0  0  0  0  0  0  0  0  0  0  0  0
    6.9455   -2.0400   21.4521 O   0  0  0  0  0  0  0  0  0  0  0  0
    8.9246   -0.5171   20.9732 O   0  0  0  0  0  0  0  0  0  0  0  0
    7.2237   -0.0295   22.7064 N   0  0  0  0  0  0  0  0  0  0  0  0
    6.5677   -0.5388   23.2530 H   0  0  0  0  0  0  0  0  0  0  0  0
    7.4128    1.3235   22.7702 C   0  0  0  0  0  0  0  0  0  0  0  0
    7.7913    1.9317   21.7886 O   0  0  0  0  0  0  0  0  0  0  0  0
    7.1447    1.8905   23.9848 N   0  0  0  0  0  0  0  0  0  0  0  0
    6.7592    1.1493   25.1776 C   0  0  0  0  0  0  0  0  0  0  0  0
    7.1999    0.1433   25.1866 H   0  0  0  0  0  0  0  0  0  0  0  0
    7.1777    1.6597   26.0515 H   0  0  0  0  0  0  0  0  0  0  0  0
    5.2422    1.0953   25.2776 C   0  0  0  0  0  0  0  0  0  0  0  0
    4.7668    0.5247   24.4813 H   0  0  0  0  0  0  0  0  0  0  0  0
    4.8840    0.7399   26.2455 H   0  0  0  0  0  0  0  0  0  0  0  0
    4.5589    2.7375   25.1935 S   0  0  0  0  0  0  0  0  0  0  0  0
    4.9520    3.3987   26.4331 O   0  0  0  0  0  0  0  0  0  0  0  0
    3.1672    2.6054   24.7845 O   0  0  0  0  0  0  0  0  0  0  0  0
    5.4269    3.5902   23.8954 C   0  0  0  0  0  0  0  0  0  0  0  0
    5.0121    3.2288   22.9532 H   0  0  0  0  0  0  0  0  0  0  0  0
    5.1479    4.6351   24.0466 H   0  0  0  0  0  0  0  0  0  0  0  0
    6.9228    3.3361   24.0039 C   0  0  0  0  0  0  0  0  0  0  0  0
    7.3468    3.7625   24.9228 H   0  0  0  0  0  0  0  0  0  0  0  0
    7.4454    3.7894   23.1522 H   0  0  0  0  0  0  0  0  0  0  0  0
    5.3454    0.7762   20.2842 C   0  0  0  0  0  0  0  0  0  0  0  0
    4.7938    0.8437   21.2298 H   0  0  0  0  0  0  0  0  0  0  0  0
    4.7942    1.3287   19.1279 C   0  0  0  0  0  0  0  0  0  0  0  0
    3.8367    1.8396   19.1456 H   0  0  0  0  0  0  0  0  0  0  0  0
  1  2  1  0
  2  3  2  0
  3  4  1  0
  4  5  1  0
  4  6  2  0
  6  7  1  0
  7  8  2  0
  7  9  2  0
  7 10  1  0
 10 11  1  0
 10 12  1  0
 12 13  2  0
 12 14  1  0
 14 15  1  0
 15 16  1  0
 15 17  1  0
 15 18  1  0
 18 19  1  0
 18 20  1  0
 18 21  1  0
 21 22  2  0
 21 23  2  0
 21 24  1  0
 24 25  1  0
 24 26  1  0
 24 27  1  0
 27 28  1  0
 27 29  1  0
  6 30  1  0
 30 31  1  0
 30 32  2  0
 32 33  1  0
 32  2  1  0
 27 14  1  0
M  END
>  <cnnaffinity>  (1) 
-4.91622

>  <filename>  (1) 
O=C(NS(=O)(=O)c1cccnc1)N1CCS(=O)(=O)CC1

$$$$
