
     RDKit          3D

 29 32  0  0  0  0  0  0  0  0999 V2000
    4.9117    1.8124   16.9762 H   0  0  0  0  0  0  0  0  0  0  0  0
    5.3775    1.3035   17.8231 C   0  0  0  0  0  0  0  0  0  0  0  0
    6.5401    0.6848   17.5671 N   0  0  0  0  0  0  0  0  0  0  0  0
    7.1549    0.0756   18.5841 C   0  0  0  0  0  0  0  0  0  0  0  0
    8.1047   -0.3924   18.3347 H   0  0  0  0  0  0  0  0  0  0  0  0
    6.6669    0.0230   19.9075 C   0  0  0  0  0  0  0  0  0  0  0  0
    7.4252   -0.6870   20.9513 C   0  0  0  0  0  0  0  0  0  0  0  0
    8.3478   -1.7061   20.8994 C   0  0  0  0  0  0  0  0  0  0  0  0
    8.7630   -2.1227   20.0024 H   0  0  0  0  0  0  0  0  0  0  0  0
    8.7950   -2.1111   22.1279 N   0  0  0  0  0  0  0  0  0  0  0  0
    8.1696   -1.3009   22.9436 C   0  0  0  0  0  0  0  0  0  0  0  0
    8.2244   -0.9237   24.6257 S   0  0  0  0  0  0  0  0  0  0  0  0
    7.0997    0.3901   24.2686 C   0  0  0  0  0  0  0  0  0  0  0  0
    6.6828    1.2471   25.4184 C   0  0  0  0  0  0  0  0  0  0  0  0
    7.1253    1.0231   26.5326 O   0  0  0  0  0  0  0  0  0  0  0  0
    5.7373    2.3595   25.2102 C   0  0  0  0  0  0  0  0  0  0  0  0
    5.2138    2.6438   23.9836 O   0  0  0  0  0  0  0  0  0  0  0  0
    4.4007    3.7070   24.1395 C   0  0  0  0  0  0  0  0  0  0  0  0
    3.9195    4.0453   23.2331 H   0  0  0  0  0  0  0  0  0  0  0  0
    4.3766    4.1159   25.4339 C   0  0  0  0  0  0  0  0  0  0  0  0
    3.8084    4.9422   25.8421 H   0  0  0  0  0  0  0  0  0  0  0  0
    5.2503    3.2371   26.1361 C   0  0  0  0  0  0  0  0  0  0  0  0
    5.5245    3.2069   27.1840 H   0  0  0  0  0  0  0  0  0  0  0  0
    6.7150    0.5313   23.0364 N   0  0  0  0  0  0  0  0  0  0  0  0
    7.3255   -0.4305   22.3096 N   0  0  0  0  0  0  0  0  0  0  0  0
    5.4388    0.6672   20.1504 C   0  0  0  0  0  0  0  0  0  0  0  0
    5.0272    0.6605   21.1573 H   0  0  0  0  0  0  0  0  0  0  0  0
    4.7904    1.3142   19.0926 C   0  0  0  0  0  0  0  0  0  0  0  0
    3.8559    1.8488   19.2309 H   0  0  0  0  0  0  0  0  0  0  0  0
  1  2  1  0
  2  3  2  0
  3  4  1  0
  4  5  1  0
  4  6  2  0
  6  7  1  0
  7  8  2  0
  8  9  1  0
  8 10  1  0
 10 11  2  0
 11 12  1  0
 12 13  1  0
 13 14  1  0
 14 15  2  0
 14 16  1  0
 16 17  1  0
 17 18  1  0
 18 19  1  0
 18 20  2  0
 20 21  1  0
 20 22  1  0
 22 23  1  0
 13 24  2  0
 24 25  1  0
  6 26  1  0
 26 27  1  0
 26 28  2  0
 28 29  1  0
 28  2  1  0
 25  7  1  0
 25 11  1  0
 22 16  2  0
M  END
>  <cnnaffinity>  (1) 
-5.08506

>  <filename>  (1) 
O=C(c1ccco1)c1nn2c(-c3cccnc3)cnc2s1

$$$$
