
     RDKit          3D

 36 37  0  0  0  0  0  0  0  0999 V2000
    4.9407    1.7704   17.0025 H   0  0  0  0  0  0  0  0  0  0  0  0
    5.4129    1.2810   17.8551 C   0  0  0  0  0  0  0  0  0  0  0  0
    6.5748    0.6576   17.6218 N   0  0  0  0  0  0  0  0  0  0  0  0
    7.1718    0.0458   18.6527 C   0  0  0  0  0  0  0  0  0  0  0  0
    8.1170   -0.4350   18.4145 H   0  0  0  0  0  0  0  0  0  0  0  0
    6.6429    0.0020   19.9500 C   0  0  0  0  0  0  0  0  0  0  0  0
    7.4284   -0.7323   20.9879 C   0  0  0  0  0  0  0  0  0  0  0  0
    8.4955   -1.2670   20.7781 O   0  0  0  0  0  0  0  0  0  0  0  0
    6.8168   -0.7210   22.1902 O   0  0  0  0  0  0  0  0  0  0  0  0
    7.4698   -1.2832   23.3497 C   0  0  0  0  0  0  0  0  0  0  0  0
    8.1777   -2.0641   23.0527 H   0  0  0  0  0  0  0  0  0  0  0  0
    6.6670   -1.7521   23.9239 H   0  0  0  0  0  0  0  0  0  0  0  0
    8.1338   -0.2065   24.2030 C   0  0  0  0  0  0  0  0  0  0  0  0
    7.3634    0.5211   24.4889 H   0  0  0  0  0  0  0  0  0  0  0  0
    8.4724   -0.6578   25.1467 H   0  0  0  0  0  0  0  0  0  0  0  0
    9.3173    0.5203   23.5492 C   0  0  0  0  0  0  0  0  0  0  0  0
    8.9996    0.8546   22.5542 H   0  0  0  0  0  0  0  0  0  0  0  0
   10.5373   -0.3996   23.3628 C   0  0  0  0  0  0  0  0  0  0  0  0
   10.8370   -0.7870   24.3462 H   0  0  0  0  0  0  0  0  0  0  0  0
   10.2658   -1.2692   22.7507 H   0  0  0  0  0  0  0  0  0  0  0  0
   11.7205    0.3380   22.7258 C   0  0  0  0  0  0  0  0  0  0  0  0
   12.5852   -0.3331   22.6426 H   0  0  0  0  0  0  0  0  0  0  0  0
   11.4491    0.6133   21.6980 H   0  0  0  0  0  0  0  0  0  0  0  0
   12.0945    1.6025   23.5110 C   0  0  0  0  0  0  0  0  0  0  0  0
   12.9144    2.1371   23.0117 H   0  0  0  0  0  0  0  0  0  0  0  0
   12.4751    1.3107   24.4985 H   0  0  0  0  0  0  0  0  0  0  0  0
   10.8839    2.5261   23.6972 C   0  0  0  0  0  0  0  0  0  0  0  0
   10.5718    2.9125   22.7175 H   0  0  0  0  0  0  0  0  0  0  0  0
   11.1551    3.4044   24.2976 H   0  0  0  0  0  0  0  0  0  0  0  0
    9.7050    1.7841   24.3400 C   0  0  0  0  0  0  0  0  0  0  0  0
    8.8355    2.4526   24.4179 H   0  0  0  0  0  0  0  0  0  0  0  0
    9.9649    1.4989   25.3690 H   0  0  0  0  0  0  0  0  0  0  0  0
    5.4208    0.6551   20.1838 C   0  0  0  0  0  0  0  0  0  0  0  0
    4.9775    0.6445   21.1812 H   0  0  0  0  0  0  0  0  0  0  0  0
    4.8047    1.3067   19.1172 C   0  0  0  0  0  0  0  0  0  0  0  0
    3.8706    1.8456   19.2523 H   0  0  0  0  0  0  0  0  0  0  0  0
  1  2  1  0
  2  3  2  0
  3  4  1  0
  4  5  1  0
  4  6  2  0
  6  7  1  0
  7  8  2  0
  7  9  1  0
  9 10  1  0
 10 11  1  0
 10 12  1  0
 10 13  1  0
 13 14  1  0
 13 15  1  0
 13 16  1  0
 16 17  1  0
 16 18  1  0
 18 19  1  0
 18 20  1  0
 18 21  1  0
 21 22  1  0
 21 23  1  0
 21 24  1  0
 24 25  1  0
 24 26  1  0
 24 27  1  0
 27 28  1  0
 27 29  1  0
 27 30  1  0
 30 31  1  0
 30 32  1  0
  6 33  1  0
 33 34  1  0
 33 35  2  0
 35 36  1  0
 35  2  1  0
 30 16  1  0
M  END
>  <cnnaffinity>  (1) 
-4.92154

>  <filename>  (1) 
O=C(OCCC1CCCCC1)c1cccnc1

$$$$
