
     RDKit          3D

 40 42  0  0  0  0  0  0  0  0999 V2000
    4.9324    1.7949   16.9928 H   0  0  0  0  0  0  0  0  0  0  0  0
    5.3978    1.2956   17.8402 C   0  0  0  0  0  0  0  0  0  0  0  0
    6.5503    0.6632   17.5739 N   0  0  0  0  0  0  0  0  0  0  0  0
    7.1604    0.0408   18.5869 C   0  0  0  0  0  0  0  0  0  0  0  0
    8.1207   -0.4200   18.3734 H   0  0  0  0  0  0  0  0  0  0  0  0
    6.6401   -0.0126   19.8898 C   0  0  0  0  0  0  0  0  0  0  0  0
    7.3386   -0.7069   20.9292 N   0  0  0  0  0  0  0  0  0  0  0  0
    6.5682   -1.5666   21.6527 N   0  0  0  0  0  0  0  0  0  0  0  0
    7.1289   -2.2640   22.6151 C   0  0  0  0  0  0  0  0  0  0  0  0
    6.2813   -3.2943   23.4060 C   0  0  0  0  0  0  0  0  0  0  0  0
    6.7884   -3.9840   24.2841 O   0  0  0  0  0  0  0  0  0  0  0  0
    4.9684   -3.4176   23.0790 N   0  0  0  0  0  0  0  0  0  0  0  0
    4.6257   -2.7564   22.3974 H   0  0  0  0  0  0  0  0  0  0  0  0
    4.1109   -4.4055   23.7227 C   0  0  0  0  0  0  0  0  0  0  0  0
    4.2659   -4.3688   24.8116 H   0  0  0  0  0  0  0  0  0  0  0  0
    3.0661   -4.1450   23.5340 H   0  0  0  0  0  0  0  0  0  0  0  0
    4.3915   -5.8276   23.2048 C   0  0  0  0  0  0  0  0  0  0  0  0
    5.4463   -6.0514   23.4079 H   0  0  0  0  0  0  0  0  0  0  0  0
    4.2574   -5.8392   22.1175 H   0  0  0  0  0  0  0  0  0  0  0  0
    3.4946   -6.8502   23.8540 C   0  0  0  0  0  0  0  0  0  0  0  0
    3.8672   -7.4193   25.0760 C   0  0  0  0  0  0  0  0  0  0  0  0
    4.8210   -7.1586   25.5345 H   0  0  0  0  0  0  0  0  0  0  0  0
    3.0068   -8.2926   25.7339 C   0  0  0  0  0  0  0  0  0  0  0  0
    3.2942   -8.6061   26.7221 H   0  0  0  0  0  0  0  0  0  0  0  0
    1.7789   -8.6579   25.1726 C   0  0  0  0  0  0  0  0  0  0  0  0
    1.1380   -9.3682   25.6916 H   0  0  0  0  0  0  0  0  0  0  0  0
    1.3847   -8.0809   23.9591 C   0  0  0  0  0  0  0  0  0  0  0  0
    0.4146   -8.3197   23.5243 H   0  0  0  0  0  0  0  0  0  0  0  0
    2.2373   -7.1711   23.3173 C   0  0  0  0  0  0  0  0  0  0  0  0
    1.9321   -6.6943   22.3895 H   0  0  0  0  0  0  0  0  0  0  0  0
    8.5180   -2.1024   22.9618 C   0  0  0  0  0  0  0  0  0  0  0  0
    8.9096   -2.7120   23.7714 H   0  0  0  0  0  0  0  0  0  0  0  0
    9.2752   -1.2007   22.2849 C   0  0  0  0  0  0  0  0  0  0  0  0
   10.3230   -1.0032   22.4814 H   0  0  0  0  0  0  0  0  0  0  0  0
    8.7218   -0.4031   21.2004 C   0  0  0  0  0  0  0  0  0  0  0  0
    9.3411    0.4297   20.5628 O   0  0  0  0  0  0  0  0  0  0  0  0
    5.4302    0.6317   20.1616 C   0  0  0  0  0  0  0  0  0  0  0  0
    5.0240    0.5886   21.1729 H   0  0  0  0  0  0  0  0  0  0  0  0
    4.8084    1.3139   19.1108 C   0  0  0  0  0  0  0  0  0  0  0  0
    3.8788    1.8494   19.2550 H   0  0  0  0  0  0  0  0  0  0  0  0
  1  2  1  0
  2  3  2  0
  3  4  1  0
  4  5  1  0
  4  6  2  0
  6  7  1  0
  7  8  1  0
  8  9  2  0
  9 10  1  0
 10 11  2  0
 10 12  1  0
 12 13  1  0
 12 14  1  0
 14 15  1  0
 14 16  1  0
 14 17  1  0
 17 18  1  0
 17 19  1  0
 17 20  1  0
 20 21  2  0
 21 22  1  0
 21 23  1  0
 23 24  1  0
 23 25  2  0
 25 26  1  0
 25 27  1  0
 27 28  1  0
 27 29  2  0
 29 30  1  0
  9 31  1  0
 31 32  1  0
 31 33  2  0
 33 34  1  0
 33 35  1  0
 35 36  2  0
  6 37  1  0
 37 38  1  0
 37 39  2  0
 39 40  1  0
 39  2  1  0
 35  7  1  0
 29 20  1  0
M  END
>  <cnnaffinity>  (1) 
-5.40757

>  <filename>  (1) 
O=C(NCCc1ccccc1)c1ccc(=O)n(-c2cccnc2)n1

$$$$
