
     RDKit          3D

 18 18  0  0  0  0  0  0  0  0999 V2000
   11.0385   -2.1547   22.2406 H   0  0  0  0  0  0  0  0  0  0  0  0
   10.7372   -1.4846   21.6019 O   0  0  0  0  0  0  0  0  0  0  0  0
    9.4313   -1.7154   21.7600 C   0  0  0  0  0  0  0  0  0  0  0  0
    9.0250   -2.5273   22.5401 O   0  0  0  0  0  0  0  0  0  0  0  0
    8.7378   -0.9396   20.8885 N   0  0  0  0  0  0  0  0  0  0  0  0
    9.3279   -0.3044   20.3922 H   0  0  0  0  0  0  0  0  0  0  0  0
    7.3738   -0.7605   21.0179 C   0  0  0  0  0  0  0  0  0  0  0  0
    6.7398   -1.1925   21.9498 O   0  0  0  0  0  0  0  0  0  0  0  0
    6.7320    0.0143   19.9339 C   0  0  0  0  0  0  0  0  0  0  0  0
    7.2511    0.0377   18.6397 C   0  0  0  0  0  0  0  0  0  0  0  0
    8.1802   -0.4675   18.3813 H   0  0  0  0  0  0  0  0  0  0  0  0
    6.6429    0.6485   17.6181 N   0  0  0  0  0  0  0  0  0  0  0  0
    5.4803    1.2666   17.8690 C   0  0  0  0  0  0  0  0  0  0  0  0
    4.9970    1.7447   17.0201 H   0  0  0  0  0  0  0  0  0  0  0  0
    4.8719    1.2979   19.1309 C   0  0  0  0  0  0  0  0  0  0  0  0
    3.9200    1.8027   19.2682 H   0  0  0  0  0  0  0  0  0  0  0  0
    5.5027    0.6524   20.1858 C   0  0  0  0  0  0  0  0  0  0  0  0
    5.0605    0.6214   21.1877 H   0  0  0  0  0  0  0  0  0  0  0  0
  1  2  1  0
  2  3  1  0
  3  4  2  0
  3  5  1  0
  5  6  1  0
  5  7  1  0
  7  8  2  0
  7  9  1  0
  9 10  2  0
 10 11  1  0
 10 12  1  0
 12 13  2  0
 13 14  1  0
 13 15  1  0
 15 16  1  0
 15 17  2  0
 17 18  1  0
 17  9  1  0
M  END
>  <cnnaffinity>  (1) 
-3.76618

>  <filename>  (1) 
O=C(O)NC(=O)c1cccnc1

$$$$
