
     RDKit          3D

 31 33  0  0  0  0  0  0  0  0999 V2000
    4.7700    2.0743   16.9165 H   0  0  0  0  0  0  0  0  0  0  0  0
    5.0501    1.3434   17.6699 C   0  0  0  0  0  0  0  0  0  0  0  0
    5.8370    0.3437   17.2414 N   0  0  0  0  0  0  0  0  0  0  0  0
    6.2407   -0.5530   18.1449 C   0  0  0  0  0  0  0  0  0  0  0  0
    6.8526   -1.3838   17.7945 H   0  0  0  0  0  0  0  0  0  0  0  0
    5.9390   -0.4618   19.5189 C   0  0  0  0  0  0  0  0  0  0  0  0
    6.6539   -1.2643   20.4610 N   0  0  0  0  0  0  0  0  0  0  0  0
    6.1938   -2.1805   21.3708 C   0  0  0  0  0  0  0  0  0  0  0  0
    5.1447   -2.3601   21.5502 H   0  0  0  0  0  0  0  0  0  0  0  0
    7.1829   -2.7659   21.9854 N   0  0  0  0  0  0  0  0  0  0  0  0
    8.3460   -2.2036   21.5169 N   0  0  0  0  0  0  0  0  0  0  0  0
    8.0236   -1.2827   20.6487 C   0  0  0  0  0  0  0  0  0  0  0  0
    8.9913   -0.3401   19.9575 C   0  0  0  0  0  0  0  0  0  0  0  0
    8.4333    0.4151   19.4024 H   0  0  0  0  0  0  0  0  0  0  0  0
    9.5567   -0.8912   19.2048 H   0  0  0  0  0  0  0  0  0  0  0  0
    9.9266    0.3568   20.8356 N   0  0  0  0  0  0  0  0  0  0  0  0
   10.7037   -0.1628   21.1997 H   0  0  0  0  0  0  0  0  0  0  0  0
    9.6180    1.5228   21.4723 C   0  0  0  0  0  0  0  0  0  0  0  0
    8.5956    2.1397   21.2219 O   0  0  0  0  0  0  0  0  0  0  0  0
   10.6216    2.0147   22.4497 C   0  0  0  0  0  0  0  0  0  0  0  0
   10.4033    3.6540   22.9518 S   0  0  0  0  0  0  0  0  0  0  0  0
   11.7749    3.5759   23.9626 C   0  0  0  0  0  0  0  0  0  0  0  0
   12.1034    4.4659   24.4804 H   0  0  0  0  0  0  0  0  0  0  0  0
   12.3684    2.3441   23.9311 C   0  0  0  0  0  0  0  0  0  0  0  0
   13.2419    2.0651   24.5035 H   0  0  0  0  0  0  0  0  0  0  0  0
   11.7195    1.4432   23.0454 C   0  0  0  0  0  0  0  0  0  0  0  0
   12.1012    0.4380   22.8633 H   0  0  0  0  0  0  0  0  0  0  0  0
    5.0418    0.5218   19.9413 C   0  0  0  0  0  0  0  0  0  0  0  0
    4.7339    0.5729   20.9858 H   0  0  0  0  0  0  0  0  0  0  0  0
    4.5997    1.4512   18.9910 C   0  0  0  0  0  0  0  0  0  0  0  0
    3.9306    2.2583   19.2666 H   0  0  0  0  0  0  0  0  0  0  0  0
  1  2  1  0
  2  3  2  0
  3  4  1  0
  4  5  1  0
  4  6  2  0
  6  7  1  0
  7  8  1  0
  8  9  1  0
  8 10  2  0
 10 11  1  0
 11 12  2  0
 12 13  1  0
 13 14  1  0
 13 15  1  0
 13 16  1  0
 16 17  1  0
 16 18  1  0
 18 19  2  0
 18 20  1  0
 20 21  1  0
 21 22  1  0
 22 23  1  0
 22 24  2  0
 24 25  1  0
 24 26  1  0
 26 27  1  0
  6 28  1  0
 28 29  1  0
 28 30  2  0
 30 31  1  0
 30  2  1  0
 12  7  1  0
 26 20  2  0
M  END
>  <cnnaffinity>  (1) 
-5.13294

>  <filename>  (1) 
O=C(NCc1nncn1-c1cccnc1)c1cccs1

$$$$
