
     RDKit          3D

 31 33  0  0  0  0  0  0  0  0999 V2000
    4.9595    1.8448   16.9597 H   0  0  0  0  0  0  0  0  0  0  0  0
    5.3954    1.3165   17.8039 C   0  0  0  0  0  0  0  0  0  0  0  0
    6.5379    0.6543   17.5606 N   0  0  0  0  0  0  0  0  0  0  0  0
    7.0930   -0.0065   18.5805 C   0  0  0  0  0  0  0  0  0  0  0  0
    8.0398   -0.4994   18.3741 H   0  0  0  0  0  0  0  0  0  0  0  0
    6.5387   -0.0565   19.8789 C   0  0  0  0  0  0  0  0  0  0  0  0
    7.1713   -0.7609   20.9452 N   0  0  0  0  0  0  0  0  0  0  0  0
    6.6399   -1.6555   21.8395 C   0  0  0  0  0  0  0  0  0  0  0  0
    5.6184   -2.0022   21.7999 H   0  0  0  0  0  0  0  0  0  0  0  0
    7.5402   -2.0547   22.6940 N   0  0  0  0  0  0  0  0  0  0  0  0
    8.7084   -1.4101   22.3818 N   0  0  0  0  0  0  0  0  0  0  0  0
    8.4785   -0.6517   21.3502 C   0  0  0  0  0  0  0  0  0  0  0  0
    9.4599    0.1533   20.5433 C   0  0  0  0  0  0  0  0  0  0  0  0
    9.7038   -0.4371   19.6526 H   0  0  0  0  0  0  0  0  0  0  0  0
    8.9697    1.0681   20.1969 H   0  0  0  0  0  0  0  0  0  0  0  0
   10.6708    0.5009   21.2315 N   0  0  0  0  0  0  0  0  0  0  0  0
   10.6331    1.2676   21.8874 H   0  0  0  0  0  0  0  0  0  0  0  0
   11.6492   -0.4251   21.4472 C   0  0  0  0  0  0  0  0  0  0  0  0
   11.6547   -1.5443   20.9636 O   0  0  0  0  0  0  0  0  0  0  0  0
   12.7383    0.0258   22.3322 C   0  0  0  0  0  0  0  0  0  0  0  0
   12.6084    1.2351   22.9661 O   0  0  0  0  0  0  0  0  0  0  0  0
   13.6128    1.3203   23.8526 C   0  0  0  0  0  0  0  0  0  0  0  0
   13.6107    2.2099   24.4504 H   0  0  0  0  0  0  0  0  0  0  0  0
   14.3832    0.2078   23.7959 C   0  0  0  0  0  0  0  0  0  0  0  0
   15.1141   -0.0831   24.5246 H   0  0  0  0  0  0  0  0  0  0  0  0
   13.8512   -0.6175   22.7697 C   0  0  0  0  0  0  0  0  0  0  0  0
   14.2345   -1.5684   22.4103 H   0  0  0  0  0  0  0  0  0  0  0  0
    5.3637    0.6512   20.1288 C   0  0  0  0  0  0  0  0  0  0  0  0
    4.9622    0.6865   21.1459 H   0  0  0  0  0  0  0  0  0  0  0  0
    4.7800    1.3402   19.0620 C   0  0  0  0  0  0  0  0  0  0  0  0
    3.8614    1.8952   19.1999 H   0  0  0  0  0  0  0  0  0  0  0  0
  1  2  1  0
  2  3  2  0
  3  4  1  0
  4  5  1  0
  4  6  2  0
  6  7  1  0
  7  8  1  0
  8  9  1  0
  8 10  2  0
 10 11  1  0
 11 12  2  0
 12 13  1  0
 13 14  1  0
 13 15  1  0
 13 16  1  0
 16 17  1  0
 16 18  1  0
 18 19  2  0
 18 20  1  0
 20 21  1  0
 21 22  1  0
 22 23  1  0
 22 24  2  0
 24 25  1  0
 24 26  1  0
 26 27  1  0
  6 28  1  0
 28 29  1  0
 28 30  2  0
 30 31  1  0
 30  2  1  0
 12  7  1  0
 26 20  2  0
M  END
>  <cnnaffinity>  (1) 
-5.42275

>  <filename>  (1) 
O=C(NCc1nncn1-c1cccnc1)c1ccco1

$$$$
