
     RDKit          3D

 23 24  0  0  0  0  0  0  0  0999 V2000
    5.0142    1.8203   17.0448 H   0  0  0  0  0  0  0  0  0  0  0  0
    5.4784    1.2790   17.8673 C   0  0  0  0  0  0  0  0  0  0  0  0
    6.6392    0.6585   17.5997 N   0  0  0  0  0  0  0  0  0  0  0  0
    7.2303   -0.0038   18.6039 C   0  0  0  0  0  0  0  0  0  0  0  0
    8.1719   -0.5036   18.3874 H   0  0  0  0  0  0  0  0  0  0  0  0
    6.6808   -0.1068   19.8988 C   0  0  0  0  0  0  0  0  0  0  0  0
    7.3123   -0.8728   20.9308 N   0  0  0  0  0  0  0  0  0  0  0  0
    8.5429   -0.6435   21.5317 C   0  0  0  0  0  0  0  0  0  0  0  0
    9.3896    0.5570   21.2482 C   0  0  0  0  0  0  0  0  0  0  0  0
    8.9730    1.5765   20.7521 O   0  0  0  0  0  0  0  0  0  0  0  0
   10.8922    0.3639   21.6441 C   0  0  0  0  0  0  0  0  0  0  0  0
   11.6361    1.4273   21.3286 F   0  0  0  0  0  0  0  0  0  0  0  0
   11.0033    0.1391   22.9574 F   0  0  0  0  0  0  0  0  0  0  0  0
   11.3989   -0.7004   21.0006 F   0  0  0  0  0  0  0  0  0  0  0  0
    8.8350   -1.5473   22.4165 N   0  0  0  0  0  0  0  0  0  0  0  0
    7.7555   -2.3767   22.3942 N   0  0  0  0  0  0  0  0  0  0  0  0
    7.5672   -3.0365   23.1295 H   0  0  0  0  0  0  0  0  0  0  0  0
    6.7277   -1.9683   21.5921 C   0  0  0  0  0  0  0  0  0  0  0  0
    5.6147   -2.4385   21.4890 O   0  0  0  0  0  0  0  0  0  0  0  0
    5.4750    0.5425   20.1637 C   0  0  0  0  0  0  0  0  0  0  0  0
    5.0375    0.4894   21.1627 H   0  0  0  0  0  0  0  0  0  0  0  0
    4.8673    1.2569   19.1266 C   0  0  0  0  0  0  0  0  0  0  0  0
    3.9553    1.8169   19.2979 H   0  0  0  0  0  0  0  0  0  0  0  0
  1  2  1  0
  2  3  2  0
  3  4  1  0
  4  5  1  0
  4  6  2  0
  6  7  1  0
  7  8  1  0
  8  9  1  0
  9 10  2  0
  9 11  1  0
 11 12  1  0
 11 13  1  0
 11 14  1  0
  8 15  2  0
 15 16  1  0
 16 17  1  0
 16 18  1  0
 18 19  2  0
  6 20  1  0
 20 21  1  0
 20 22  2  0
 22 23  1  0
 22  2  1  0
 18  7  1  0
M  END
>  <cnnaffinity>  (1) 
-4.7241

>  <filename>  (1) 
O=C(c1n[nH]c(=O)n1-c1cccnc1)C(F)(F)F

$$$$
