
     RDKit          3D

 38 39  0  0  0  0  0  0  0  0999 V2000
    5.3293    1.6539   16.9985 H   0  0  0  0  0  0  0  0  0  0  0  0
    5.7168    1.2001   17.9110 C   0  0  0  0  0  0  0  0  0  0  0  0
    6.8595    0.5056   17.7882 N   0  0  0  0  0  0  0  0  0  0  0  0
    7.3552   -0.0630   18.8801 C   0  0  0  0  0  0  0  0  0  0  0  0
    8.2826   -0.6230   18.7602 H   0  0  0  0  0  0  0  0  0  0  0  0
    6.7220    0.0389   20.1104 C   0  0  0  0  0  0  0  0  0  0  0  0
    7.5659   -0.8034   21.3425 S   0  0  0  0  0  0  0  0  0  0  0  0
    7.8133   -2.1422   20.8852 O   0  0  0  0  0  0  0  0  0  0  0  0
    6.9686   -0.4615   22.6141 O   0  0  0  0  0  0  0  0  0  0  0  0
    8.9987    0.0393   21.2140 N   0  0  0  0  0  0  0  0  0  0  0  0
    8.8169    1.0332   21.2496 H   0  0  0  0  0  0  0  0  0  0  0  0
    9.7041   -0.2948   22.3412 C   0  0  0  0  0  0  0  0  0  0  0  0
    9.9024   -1.3956   22.7732 O   0  0  0  0  0  0  0  0  0  0  0  0
   10.1548    0.7859   23.0601 N   0  0  0  0  0  0  0  0  0  0  0  0
   10.6437    0.3770   23.8329 H   0  0  0  0  0  0  0  0  0  0  0  0
   10.7040    1.9158   22.4969 C   0  0  0  0  0  0  0  0  0  0  0  0
   10.3712    2.2673   21.3783 O   0  0  0  0  0  0  0  0  0  0  0  0
   11.6893    2.6719   23.4019 C   0  0  0  0  0  0  0  0  0  0  0  0
   12.1002    1.9381   24.1053 H   0  0  0  0  0  0  0  0  0  0  0  0
   10.9733    3.7629   24.2194 C   0  0  0  0  0  0  0  0  0  0  0  0
   11.7180    4.1978   24.9010 H   0  0  0  0  0  0  0  0  0  0  0  0
   10.1631    3.3352   24.8184 H   0  0  0  0  0  0  0  0  0  0  0  0
   10.4517    4.8713   23.3146 C   0  0  0  0  0  0  0  0  0  0  0  0
    9.9022    5.6147   23.9046 H   0  0  0  0  0  0  0  0  0  0  0  0
    9.7489    4.4451   22.5875 H   0  0  0  0  0  0  0  0  0  0  0  0
   11.6074    5.5445   22.5658 C   0  0  0  0  0  0  0  0  0  0  0  0
   11.1643    6.2431   21.8499 H   0  0  0  0  0  0  0  0  0  0  0  0
   12.2135    6.1312   23.2754 H   0  0  0  0  0  0  0  0  0  0  0  0
   12.5089    4.5457   21.8102 C   0  0  0  0  0  0  0  0  0  0  0  0
   13.4311    5.0463   21.4809 H   0  0  0  0  0  0  0  0  0  0  0  0
   12.0059    4.2213   20.8973 H   0  0  0  0  0  0  0  0  0  0  0  0
   12.8754    3.2949   22.6326 C   0  0  0  0  0  0  0  0  0  0  0  0
   13.3041    2.5291   21.9830 H   0  0  0  0  0  0  0  0  0  0  0  0
   13.6566    3.5580   23.3610 H   0  0  0  0  0  0  0  0  0  0  0  0
    5.5134    0.7230   20.2704 C   0  0  0  0  0  0  0  0  0  0  0  0
    4.9790    0.7610   21.2268 H   0  0  0  0  0  0  0  0  0  0  0  0
    5.0162    1.3299   19.1184 C   0  0  0  0  0  0  0  0  0  0  0  0
    4.0964    1.9062   19.1337 H   0  0  0  0  0  0  0  0  0  0  0  0
  1  2  1  0
  2  3  2  0
  3  4  1  0
  4  5  1  0
  4  6  2  0
  6  7  1  0
  7  8  2  0
  7  9  2  0
  7 10  1  0
 10 11  1  0
 10 12  1  0
 12 13  2  0
 12 14  1  0
 14 15  1  0
 14 16  1  0
 16 17  2  0
 16 18  1  0
 18 19  1  0
 18 20  1  0
 20 21  1  0
 20 22  1  0
 20 23  1  0
 23 24  1  0
 23 25  1  0
 23 26  1  0
 26 27  1  0
 26 28  1  0
 26 29  1  0
 29 30  1  0
 29 31  1  0
 29 32  1  0
 32 33  1  0
 32 34  1  0
  6 35  1  0
 35 36  1  0
 35 37  2  0
 37 38  1  0
 37  2  1  0
 32 18  1  0
M  END
>  <cnnaffinity>  (1) 
-5.15408

>  <filename>  (1) 
O=C(NC(=O)C1CCCCC1)NS(=O)(=O)c1cccnc1

$$$$
