
     RDKit          3D

 35 36  0  0  0  0  0  0  0  0999 V2000
    4.9551    1.7456   17.0257 H   0  0  0  0  0  0  0  0  0  0  0  0
    5.4592    1.2661   17.8606 C   0  0  0  0  0  0  0  0  0  0  0  0
    6.6136    0.6344   17.5786 N   0  0  0  0  0  0  0  0  0  0  0  0
    7.2406    0.0304   18.5928 C   0  0  0  0  0  0  0  0  0  0  0  0
    8.1686   -0.4907   18.3717 H   0  0  0  0  0  0  0  0  0  0  0  0
    6.7716    0.0150   19.9273 C   0  0  0  0  0  0  0  0  0  0  0  0
    7.5662   -0.6524   20.8260 O   0  0  0  0  0  0  0  0  0  0  0  0
    7.1474   -0.7841   22.1868 C   0  0  0  0  0  0  0  0  0  0  0  0
    7.8510   -1.4920   22.6234 H   0  0  0  0  0  0  0  0  0  0  0  0
    6.1402   -1.1982   22.2632 H   0  0  0  0  0  0  0  0  0  0  0  0
    7.1811    0.4960   23.0400 C   0  0  0  0  0  0  0  0  0  0  0  0
    6.3133    0.7455   23.8547 O   0  0  0  0  0  0  0  0  0  0  0  0
    8.2601    1.3042   22.8164 N   0  0  0  0  0  0  0  0  0  0  0  0
    8.8007    1.0491   22.0081 H   0  0  0  0  0  0  0  0  0  0  0  0
    8.1658    2.7309   23.1096 C   0  0  0  0  0  0  0  0  0  0  0  0
    8.0432    2.8558   24.1902 H   0  0  0  0  0  0  0  0  0  0  0  0
    9.1212    3.1923   22.8404 H   0  0  0  0  0  0  0  0  0  0  0  0
    7.0193    3.4086   22.3350 C   0  0  0  0  0  0  0  0  0  0  0  0
    7.1530    3.1784   21.2677 H   0  0  0  0  0  0  0  0  0  0  0  0
    6.0809    2.9252   22.6319 H   0  0  0  0  0  0  0  0  0  0  0  0
    6.9376    4.8987   22.5519 C   0  0  0  0  0  0  0  0  0  0  0  0
    6.2131    5.4221   23.6341 C   0  0  0  0  0  0  0  0  0  0  0  0
    5.6595    4.7371   24.2792 H   0  0  0  0  0  0  0  0  0  0  0  0
    6.1772    6.8010   23.8687 C   0  0  0  0  0  0  0  0  0  0  0  0
    5.6144    7.1956   24.7078 H   0  0  0  0  0  0  0  0  0  0  0  0
    6.8317    7.6799   22.9981 C   0  0  0  0  0  0  0  0  0  0  0  0
    6.8119    8.7543   23.1732 H   0  0  0  0  0  0  0  0  0  0  0  0
    7.5199    7.1659   21.8952 C   0  0  0  0  0  0  0  0  0  0  0  0
    7.9504    7.8478   21.1742 H   0  0  0  0  0  0  0  0  0  0  0  0
    7.6071    5.7837   21.6914 C   0  0  0  0  0  0  0  0  0  0  0  0
    8.2008    5.3875   20.8694 H   0  0  0  0  0  0  0  0  0  0  0  0
    5.5697    0.6785   20.2093 C   0  0  0  0  0  0  0  0  0  0  0  0
    5.1630    0.7015   21.2225 H   0  0  0  0  0  0  0  0  0  0  0  0
    4.9063    1.3118   19.1441 C   0  0  0  0  0  0  0  0  0  0  0  0
    3.9694    1.8402   19.3027 H   0  0  0  0  0  0  0  0  0  0  0  0
  1  2  1  0
  2  3  2  0
  3  4  1  0
  4  5  1  0
  4  6  2  0
  6  7  1  0
  7  8  1  0
  8  9  1  0
  8 10  1  0
  8 11  1  0
 11 12  2  0
 11 13  1  0
 13 14  1  0
 13 15  1  0
 15 16  1  0
 15 17  1  0
 15 18  1  0
 18 19  1  0
 18 20  1  0
 18 21  1  0
 21 22  2  0
 22 23  1  0
 22 24  1  0
 24 25  1  0
 24 26  2  0
 26 27  1  0
 26 28  1  0
 28 29  1  0
 28 30  2  0
 30 31  1  0
  6 32  1  0
 32 33  1  0
 32 34  2  0
 34 35  1  0
 34  2  1  0
 30 21  1  0
M  END
>  <cnnaffinity>  (1) 
-4.82371

>  <filename>  (1) 
O=C(COc1cccnc1)NCCc1ccccc1

$$$$
