
     RDKit          3D

 40 42  0  0  0  0  0  0  0  0999 V2000
    5.0189    1.8809   17.0160 H   0  0  0  0  0  0  0  0  0  0  0  0
    5.5143    1.3241   17.8091 C   0  0  0  0  0  0  0  0  0  0  0  0
    6.6884    0.7522   17.4956 N   0  0  0  0  0  0  0  0  0  0  0  0
    7.3388    0.0879   18.4618 C   0  0  0  0  0  0  0  0  0  0  0  0
    8.2729   -0.3890   18.1674 H   0  0  0  0  0  0  0  0  0  0  0  0
    6.8679   -0.0578   19.7953 C   0  0  0  0  0  0  0  0  0  0  0  0
    7.6009   -0.7285   20.7970 N   0  0  0  0  0  0  0  0  0  0  0  0
    6.9390   -1.5438   21.7999 C   0  0  0  0  0  0  0  0  0  0  0  0
    7.5926   -2.4000   21.9985 H   0  0  0  0  0  0  0  0  0  0  0  0
    6.0138   -1.9436   21.3727 H   0  0  0  0  0  0  0  0  0  0  0  0
    6.6213   -0.9060   23.1673 C   0  0  0  0  0  0  0  0  0  0  0  0
    5.9065   -0.0887   23.0226 H   0  0  0  0  0  0  0  0  0  0  0  0
    6.1241   -1.6677   23.7720 H   0  0  0  0  0  0  0  0  0  0  0  0
    7.7585   -0.3493   23.8930 N   0  0  0  0  0  0  0  0  0  0  0  0
    8.5545   -1.0351   24.8000 C   0  0  0  0  0  0  0  0  0  0  0  0
    9.7547   -0.7909   24.8823 O   0  0  0  0  0  0  0  0  0  0  0  0
    7.8936   -2.0766   25.6920 C   0  0  0  0  0  0  0  0  0  0  0  0
    8.6396   -3.2052   26.0896 C   0  0  0  0  0  0  0  0  0  0  0  0
    9.6763   -3.3079   25.7767 H   0  0  0  0  0  0  0  0  0  0  0  0
    8.0653   -4.1843   26.9057 C   0  0  0  0  0  0  0  0  0  0  0  0
    8.6473   -5.0544   27.1926 H   0  0  0  0  0  0  0  0  0  0  0  0
    6.7553   -4.0374   27.3708 C   0  0  0  0  0  0  0  0  0  0  0  0
    6.3188   -4.7912   28.0202 H   0  0  0  0  0  0  0  0  0  0  0  0
    6.0196   -2.9038   27.0174 C   0  0  0  0  0  0  0  0  0  0  0  0
    5.0056   -2.7757   27.3795 H   0  0  0  0  0  0  0  0  0  0  0  0
    6.5862   -1.9228   26.1978 C   0  0  0  0  0  0  0  0  0  0  0  0
    5.9996   -1.0324   25.9754 H   0  0  0  0  0  0  0  0  0  0  0  0
    8.2430    0.9291   23.3661 C   0  0  0  0  0  0  0  0  0  0  0  0
    7.3532    1.5559   23.2095 H   0  0  0  0  0  0  0  0  0  0  0  0
    8.8189    1.4229   24.1562 H   0  0  0  0  0  0  0  0  0  0  0  0
    9.1022    0.8817   22.0796 C   0  0  0  0  0  0  0  0  0  0  0  0
    8.8980    1.8058   21.5223 H   0  0  0  0  0  0  0  0  0  0  0  0
   10.1562    0.9083   22.3737 H   0  0  0  0  0  0  0  0  0  0  0  0
    8.9577   -0.3302   21.1357 C   0  0  0  0  0  0  0  0  0  0  0  0
    9.4434   -1.2047   21.5894 H   0  0  0  0  0  0  0  0  0  0  0  0
    9.5078   -0.1249   20.2065 H   0  0  0  0  0  0  0  0  0  0  0  0
    5.6019    0.4906   20.0669 C   0  0  0  0  0  0  0  0  0  0  0  0
    5.1783    0.3353   21.0550 H   0  0  0  0  0  0  0  0  0  0  0  0
    4.9328    1.2160   19.0763 C   0  0  0  0  0  0  0  0  0  0  0  0
    3.9782    1.6904   19.2762 H   0  0  0  0  0  0  0  0  0  0  0  0
  1  2  1  0
  2  3  2  0
  3  4  1  0
  4  5  1  0
  4  6  2  0
  6  7  1  0
  7  8  1  0
  8  9  1  0
  8 10  1  0
  8 11  1  0
 11 12  1  0
 11 13  1  0
 11 14  1  0
 14 15  1  0
 15 16  2  0
 15 17  1  0
 17 18  2  0
 18 19  1  0
 18 20  1  0
 20 21  1  0
 20 22  2  0
 22 23  1  0
 22 24  1  0
 24 25  1  0
 24 26  2  0
 26 27  1  0
 14 28  1  0
 28 29  1  0
 28 30  1  0
 28 31  1  0
 31 32  1  0
 31 33  1  0
 31 34  1  0
 34 35  1  0
 34 36  1  0
  6 37  1  0
 37 38  1  0
 37 39  2  0
 39 40  1  0
 39  2  1  0
 34  7  1  0
 26 17  1  0
M  END
>  <cnnaffinity>  (1) 
-4.92977

>  <filename>  (1) 
O=C(c1ccccc1)N1CCCN(c2cccnc2)CC1

$$$$
