
     RDKit          3D

 30 31  0  0  0  0  0  0  0  0999 V2000
    5.1630    1.7014   16.9341 H   0  0  0  0  0  0  0  0  0  0  0  0
    5.5549    1.2029   17.8165 C   0  0  0  0  0  0  0  0  0  0  0  0
    6.7078    0.5405   17.6494 N   0  0  0  0  0  0  0  0  0  0  0  0
    7.2451   -0.0509   18.7227 C   0  0  0  0  0  0  0  0  0  0  0  0
    8.1723   -0.5958   18.5575 H   0  0  0  0  0  0  0  0  0  0  0  0
    6.6681    0.0147   19.9964 C   0  0  0  0  0  0  0  0  0  0  0  0
    7.3597   -0.5612   21.1786 C   0  0  0  0  0  0  0  0  0  0  0  0
    7.0772   -0.3148   22.3183 O   0  0  0  0  0  0  0  0  0  0  0  0
    8.3673   -1.4325   20.7868 O   0  0  0  0  0  0  0  0  0  0  0  0
    9.0787   -2.1221   21.8103 N   0  0  0  0  0  0  0  0  0  0  0  0
    9.9771   -2.3216   21.3831 H   0  0  0  0  0  0  0  0  0  0  0  0
    8.5071   -3.3968   22.1795 C   0  0  0  0  0  0  0  0  0  0  0  0
    7.5404   -3.8977   21.6488 O   0  0  0  0  0  0  0  0  0  0  0  0
    9.1682   -3.9684   23.2368 N   0  0  0  0  0  0  0  0  0  0  0  0
   10.3991   -3.5093   23.8916 C   0  0  0  0  0  0  0  0  0  0  0  0
   10.2174   -2.5624   24.4163 H   0  0  0  0  0  0  0  0  0  0  0  0
   11.2153   -3.3348   23.1761 H   0  0  0  0  0  0  0  0  0  0  0  0
   10.7360   -4.6532   24.8560 C   0  0  0  0  0  0  0  0  0  0  0  0
   11.2695   -4.3127   25.7461 H   0  0  0  0  0  0  0  0  0  0  0  0
   11.3781   -5.3811   24.3543 H   0  0  0  0  0  0  0  0  0  0  0  0
    9.3843   -5.2751   25.2098 C   0  0  0  0  0  0  0  0  0  0  0  0
    9.4677   -6.3356   25.4654 H   0  0  0  0  0  0  0  0  0  0  0  0
    8.9568   -4.7706   26.0819 H   0  0  0  0  0  0  0  0  0  0  0  0
    8.4950   -5.0399   23.9854 C   0  0  0  0  0  0  0  0  0  0  0  0
    8.3726   -5.9305   23.3596 H   0  0  0  0  0  0  0  0  0  0  0  0
    7.4844   -4.7319   24.2764 H   0  0  0  0  0  0  0  0  0  0  0  0
    5.4392    0.6742   20.1571 C   0  0  0  0  0  0  0  0  0  0  0  0
    4.9633    0.7103   21.1400 H   0  0  0  0  0  0  0  0  0  0  0  0
    4.8742    1.2793   19.0392 C   0  0  0  0  0  0  0  0  0  0  0  0
    3.9475    1.8347   19.1073 H   0  0  0  0  0  0  0  0  0  0  0  0
  1  2  1  0
  2  3  2  0
  3  4  1  0
  4  5  1  0
  4  6  2  0
  6  7  1  0
  7  8  2  0
  7  9  1  0
  9 10  1  0
 10 11  1  0
 10 12  1  0
 12 13  2  0
 12 14  1  0
 14 15  1  0
 15 16  1  0
 15 17  1  0
 15 18  1  0
 18 19  1  0
 18 20  1  0
 18 21  1  0
 21 22  1  0
 21 23  1  0
 21 24  1  0
 24 25  1  0
 24 26  1  0
  6 27  1  0
 27 28  1  0
 27 29  2  0
 29 30  1  0
 29  2  1  0
 24 14  1  0
M  END
>  <cnnaffinity>  (1) 
-4.91217

>  <filename>  (1) 
O=C(ONC(=O)N1CCCC1)c1cccnc1

$$$$
