
     RDKit          3D

 26 27  0  0  0  0  0  0  0  0999 V2000
    4.9595    1.7685   17.0053 H   0  0  0  0  0  0  0  0  0  0  0  0
    5.4134    1.2841   17.8678 C   0  0  0  0  0  0  0  0  0  0  0  0
    6.5783    0.6631   17.6337 N   0  0  0  0  0  0  0  0  0  0  0  0
    7.1759    0.0685   18.6666 C   0  0  0  0  0  0  0  0  0  0  0  0
    8.1080   -0.4474   18.4437 H   0  0  0  0  0  0  0  0  0  0  0  0
    6.6608    0.0585   19.9733 C   0  0  0  0  0  0  0  0  0  0  0  0
    7.4421   -0.7510   20.9526 C   0  0  0  0  0  0  0  0  0  0  0  0
    8.1423   -1.6613   20.5900 O   0  0  0  0  0  0  0  0  0  0  0  0
    7.2948   -0.3761   22.2803 N   0  0  0  0  0  0  0  0  0  0  0  0
    6.8703    0.5114   22.4665 H   0  0  0  0  0  0  0  0  0  0  0  0
    7.8287   -1.1101   23.3355 C   0  0  0  0  0  0  0  0  0  0  0  0
    8.5534   -2.0580   23.1652 O   0  0  0  0  0  0  0  0  0  0  0  0
    7.4380   -0.6514   24.7635 C   0  0  0  0  0  0  0  0  0  0  0  0
    8.2724   -1.0192   25.8470 C   0  0  0  0  0  0  0  0  0  0  0  0
    9.1736   -1.6014   25.6873 H   0  0  0  0  0  0  0  0  0  0  0  0
    7.9189   -0.6793   27.1570 C   0  0  0  0  0  0  0  0  0  0  0  0
    8.5630   -0.9681   27.9898 H   0  0  0  0  0  0  0  0  0  0  0  0
    6.7994   -0.0168   27.4747 N   0  0  0  0  0  0  0  0  0  0  0  0
    5.9964    0.3317   26.4650 C   0  0  0  0  0  0  0  0  0  0  0  0
    5.0911    0.8694   26.7505 H   0  0  0  0  0  0  0  0  0  0  0  0
    6.2591    0.0430   25.1170 C   0  0  0  0  0  0  0  0  0  0  0  0
    5.4963    0.3306   24.4025 H   0  0  0  0  0  0  0  0  0  0  0  0
    5.4292    0.6910   20.2004 C   0  0  0  0  0  0  0  0  0  0  0  0
    4.9267    0.6675   21.1699 H   0  0  0  0  0  0  0  0  0  0  0  0
    4.8017    1.3200   19.1250 C   0  0  0  0  0  0  0  0  0  0  0  0
    3.8596    1.8432   19.2398 H   0  0  0  0  0  0  0  0  0  0  0  0
  1  2  1  0
  2  3  2  0
  3  4  1  0
  4  5  1  0
  4  6  2  0
  6  7  1  0
  7  8  2  0
  7  9  1  0
  9 10  1  0
  9 11  1  0
 11 12  2  0
 11 13  1  0
 13 14  2  0
 14 15  1  0
 14 16  1  0
 16 17  1  0
 16 18  2  0
 18 19  1  0
 19 20  1  0
 19 21  2  0
 21 22  1  0
  6 23  1  0
 23 24  1  0
 23 25  2  0
 25 26  1  0
 25  2  1  0
 21 13  1  0
M  END
>  <cnnaffinity>  (1) 
-4.34471

>  <filename>  (1) 
O=C(NC(=O)c1cccnc1)c1ccncc1

$$$$
