
     RDKit          3D

 34 35  0  0  0  0  0  0  0  0999 V2000
    5.0475    1.6648   16.9804 H   0  0  0  0  0  0  0  0  0  0  0  0
    5.4768    1.2398   17.8840 C   0  0  0  0  0  0  0  0  0  0  0  0
    6.6659    0.6381   17.7433 N   0  0  0  0  0  0  0  0  0  0  0  0
    7.2403    0.1302   18.8304 C   0  0  0  0  0  0  0  0  0  0  0  0
    8.2119   -0.3499   18.6873 H   0  0  0  0  0  0  0  0  0  0  0  0
    6.6372    0.2104   20.0772 C   0  0  0  0  0  0  0  0  0  0  0  0
    7.5367   -0.6098   21.2967 S   0  0  0  0  0  0  0  0  0  0  0  0
    6.9101   -1.8528   21.6943 O   0  0  0  0  0  0  0  0  0  0  0  0
    8.9395   -0.5743   20.9581 O   0  0  0  0  0  0  0  0  0  0  0  0
    7.1550    0.3533   22.5622 N   0  0  0  0  0  0  0  0  0  0  0  0
    7.2051   -0.2546   23.3622 H   0  0  0  0  0  0  0  0  0  0  0  0
    7.9737    1.4418   22.6761 C   0  0  0  0  0  0  0  0  0  0  0  0
    8.6070    1.9786   21.8081 O   0  0  0  0  0  0  0  0  0  0  0  0
    7.9077    1.8302   23.9708 N   0  0  0  0  0  0  0  0  0  0  0  0
    7.0093    1.6517   24.3680 H   0  0  0  0  0  0  0  0  0  0  0  0
    8.2346    3.1123   24.3711 C   0  0  0  0  0  0  0  0  0  0  0  0
    7.4701    3.6683   25.1318 O   0  0  0  0  0  0  0  0  0  0  0  0
    9.4345    3.5232   23.9188 N   0  0  0  0  0  0  0  0  0  0  0  0
    9.7085    3.0497   23.0698 H   0  0  0  0  0  0  0  0  0  0  0  0
   10.1251    4.6745   24.3288 C   0  0  0  0  0  0  0  0  0  0  0  0
   11.0759    5.1944   23.4443 C   0  0  0  0  0  0  0  0  0  0  0  0
   11.1941    4.7173   22.4745 H   0  0  0  0  0  0  0  0  0  0  0  0
   11.8396    6.3035   23.8148 C   0  0  0  0  0  0  0  0  0  0  0  0
   12.6132    6.6789   23.1519 H   0  0  0  0  0  0  0  0  0  0  0  0
   11.6358    6.9043   25.0592 C   0  0  0  0  0  0  0  0  0  0  0  0
   12.2259    7.7713   25.3308 H   0  0  0  0  0  0  0  0  0  0  0  0
   10.6667    6.3978   25.9330 C   0  0  0  0  0  0  0  0  0  0  0  0
   10.5096    6.8682   26.9015 H   0  0  0  0  0  0  0  0  0  0  0  0
    9.9038    5.2782   25.5779 C   0  0  0  0  0  0  0  0  0  0  0  0
    9.1568    4.8598   26.2465 H   0  0  0  0  0  0  0  0  0  0  0  0
    5.3820    0.8095   20.2496 C   0  0  0  0  0  0  0  0  0  0  0  0
    4.8730    0.8839   21.2167 H   0  0  0  0  0  0  0  0  0  0  0  0
    4.8002    1.3379   19.1032 C   0  0  0  0  0  0  0  0  0  0  0  0
    3.8484    1.8508   19.1410 H   0  0  0  0  0  0  0  0  0  0  0  0
  1  2  1  0
  2  3  2  0
  3  4  1  0
  4  5  1  0
  4  6  2  0
  6  7  1  0
  7  8  2  0
  7  9  2  0
  7 10  1  0
 10 11  1  0
 10 12  1  0
 12 13  2  0
 12 14  1  0
 14 15  1  0
 14 16  1  0
 16 17  2  0
 16 18  1  0
 18 19  1  0
 18 20  1  0
 20 21  2  0
 21 22  1  0
 21 23  1  0
 23 24  1  0
 23 25  2  0
 25 26  1  0
 25 27  1  0
 27 28  1  0
 27 29  2  0
 29 30  1  0
  6 31  1  0
 31 32  1  0
 31 33  2  0
 33 34  1  0
 33  2  1  0
 29 20  1  0
M  END
>  <cnnaffinity>  (1) 
-5.02806

>  <filename>  (1) 
O=C(NC(=O)NS(=O)(=O)c1cccnc1)Nc1ccccc1

$$$$
