
     RDKit          3D

 34 36  0  0  0  0  0  0  0  0999 V2000
    2.1810    3.3394   23.3347 H   0  0  0  0  0  0  0  0  0  0  0  0
    2.7380    2.7307   24.0457 C   0  0  0  0  0  0  0  0  0  0  0  0
    3.9795    2.4037   23.6724 N   0  0  0  0  0  0  0  0  0  0  0  0
    4.7360    1.6506   24.5069 C   0  0  0  0  0  0  0  0  0  0  0  0
    6.1955    1.2731   24.0987 C   0  0  0  0  0  0  0  0  0  0  0  0
    6.8845    0.5512   24.8096 O   0  0  0  0  0  0  0  0  0  0  0  0
    6.6912    1.7587   22.9209 N   0  0  0  0  0  0  0  0  0  0  0  0
    6.1310    2.4449   22.4378 H   0  0  0  0  0  0  0  0  0  0  0  0
    7.9490    1.2874   22.3753 C   0  0  0  0  0  0  0  0  0  0  0  0
    8.1860    1.8692   21.4802 H   0  0  0  0  0  0  0  0  0  0  0  0
    8.7452    1.4403   23.1123 H   0  0  0  0  0  0  0  0  0  0  0  0
    7.9573   -0.1235   22.0340 N   0  0  0  0  0  0  0  0  0  0  0  0
    7.3862   -0.7037   20.9324 C   0  0  0  0  0  0  0  0  0  0  0  0
    6.6512    0.0342   19.9040 C   0  0  0  0  0  0  0  0  0  0  0  0
    7.1652    0.0541   18.6012 C   0  0  0  0  0  0  0  0  0  0  0  0
    8.1120   -0.4336   18.3749 H   0  0  0  0  0  0  0  0  0  0  0  0
    6.5650    0.6758   17.5813 N   0  0  0  0  0  0  0  0  0  0  0  0
    5.4019    1.2958   17.8393 C   0  0  0  0  0  0  0  0  0  0  0  0
    4.9231    1.7821   16.9938 H   0  0  0  0  0  0  0  0  0  0  0  0
    4.7978    1.3197   19.1004 C   0  0  0  0  0  0  0  0  0  0  0  0
    3.8651    1.8468   19.2529 H   0  0  0  0  0  0  0  0  0  0  0  0
    5.4266    0.6679   20.1570 C   0  0  0  0  0  0  0  0  0  0  0  0
    4.9904    0.6312   21.1595 H   0  0  0  0  0  0  0  0  0  0  0  0
    7.5962   -1.9943   20.9006 N   0  0  0  0  0  0  0  0  0  0  0  0
    8.3018   -2.2838   22.0461 C   0  0  0  0  0  0  0  0  0  0  0  0
    8.6076   -3.2963   22.2784 H   0  0  0  0  0  0  0  0  0  0  0  0
    8.5452   -1.1487   22.7586 C   0  0  0  0  0  0  0  0  0  0  0  0
    9.0357   -0.9689   23.7067 H   0  0  0  0  0  0  0  0  0  0  0  0
    4.2286    1.1924   25.7401 C   0  0  0  0  0  0  0  0  0  0  0  0
    4.8494    0.5859   26.3895 H   0  0  0  0  0  0  0  0  0  0  0  0
    2.9239    1.5251   26.1162 C   0  0  0  0  0  0  0  0  0  0  0  0
    2.5030    1.1844   27.0659 H   0  0  0  0  0  0  0  0  0  0  0  0
    2.1618    2.3122   25.2480 C   0  0  0  0  0  0  0  0  0  0  0  0
    1.1421    2.6007   25.4835 H   0  0  0  0  0  0  0  0  0  0  0  0
  1  2  1  0
  2  3  2  0
  3  4  1  0
  4  5  1  0
  5  6  2  0
  5  7  1  0
  7  8  1  0
  7  9  1  0
  9 10  1  0
  9 11  1  0
  9 12  1  0
 12 13  1  0
 13 14  1  0
 14 15  2  0
 15 16  1  0
 15 17  1  0
 17 18  2  0
 18 19  1  0
 18 20  1  0
 20 21  1  0
 20 22  2  0
 22 23  1  0
 13 24  2  0
 24 25  1  0
 25 26  1  0
 25 27  2  0
 27 28  1  0
  4 29  2  0
 29 30  1  0
 29 31  1  0
 31 32  1  0
 31 33  2  0
 33 34  1  0
 33  2  1  0
 27 12  1  0
 22 14  1  0
M  END
>  <cnnaffinity>  (1) 
-5.04295

>  <filename>  (1) 
O=C(NCn1ccnc1-c1cccnc1)c1ccccn1

$$$$
