
     RDKit          3D

 35 35  0  0  0  0  0  0  0  0999 V2000
    4.3659   -7.1882   27.4233 H   0  0  0  0  0  0  0  0  0  0  0  0
    4.9026   -6.4249   27.7062 O   0  0  0  0  0  0  0  0  0  0  0  0
    5.5770   -5.9564   26.5734 N   0  0  0  0  0  0  0  0  0  0  0  0
    6.5763   -6.0893   26.6807 H   0  0  0  0  0  0  0  0  0  0  0  0
    5.2492   -4.7218   26.0042 C   0  0  0  0  0  0  0  0  0  0  0  0
    4.1487   -4.2153   25.9950 O   0  0  0  0  0  0  0  0  0  0  0  0
    6.4408   -4.1243   25.2577 C   0  0  0  0  0  0  0  0  0  0  0  0
    6.1939   -3.0711   25.0938 H   0  0  0  0  0  0  0  0  0  0  0  0
    7.3447   -4.1276   25.8838 H   0  0  0  0  0  0  0  0  0  0  0  0
    6.7323   -4.8043   23.8988 C   0  0  0  0  0  0  0  0  0  0  0  0
    7.5404   -4.2442   23.4047 H   0  0  0  0  0  0  0  0  0  0  0  0
    7.1276   -5.8146   24.0738 H   0  0  0  0  0  0  0  0  0  0  0  0
    5.5153   -4.9313   22.9660 C   0  0  0  0  0  0  0  0  0  0  0  0
    4.7438   -5.5415   23.4592 H   0  0  0  0  0  0  0  0  0  0  0  0
    5.8129   -5.4950   22.0717 H   0  0  0  0  0  0  0  0  0  0  0  0
    4.8620   -3.5974   22.5486 C   0  0  0  0  0  0  0  0  0  0  0  0
    3.9395   -3.7995   22.0038 H   0  0  0  0  0  0  0  0  0  0  0  0
    4.5635   -3.0540   23.4517 H   0  0  0  0  0  0  0  0  0  0  0  0
    5.6935   -2.7461   21.6238 C   0  0  0  0  0  0  0  0  0  0  0  0
    5.7154   -2.8731   20.4209 O   0  0  0  0  0  0  0  0  0  0  0  0
    6.4386   -1.7913   22.2430 N   0  0  0  0  0  0  0  0  0  0  0  0
    6.2210   -1.3223   23.0998 H   0  0  0  0  0  0  0  0  0  0  0  0
    7.4427   -0.9024   21.3300 S   0  0  0  0  0  0  0  0  0  0  0  0
    8.4082   -1.7998   20.7427 O   0  0  0  0  0  0  0  0  0  0  0  0
    7.7756    0.1537   22.2662 O   0  0  0  0  0  0  0  0  0  0  0  0
    6.4520   -0.2596   20.0654 C   0  0  0  0  0  0  0  0  0  0  0  0
    7.0884   -0.3015   18.8331 C   0  0  0  0  0  0  0  0  0  0  0  0
    7.9810   -0.9080   18.6838 H   0  0  0  0  0  0  0  0  0  0  0  0
    6.6642    0.4054   17.7898 N   0  0  0  0  0  0  0  0  0  0  0  0
    5.5579    1.1479   17.9423 C   0  0  0  0  0  0  0  0  0  0  0  0
    5.2481    1.7357   17.0747 H   0  0  0  0  0  0  0  0  0  0  0  0
    4.8275    1.1949   19.1360 C   0  0  0  0  0  0  0  0  0  0  0  0
    3.9434    1.8222   19.1860 H   0  0  0  0  0  0  0  0  0  0  0  0
    5.2643    0.4639   20.2405 C   0  0  0  0  0  0  0  0  0  0  0  0
    4.6946    0.5024   21.1755 H   0  0  0  0  0  0  0  0  0  0  0  0
  1  2  1  0
  2  3  1  0
  3  4  1  0
  3  5  1  0
  5  6  2  0
  5  7  1  0
  7  8  1  0
  7  9  1  0
  7 10  1  0
 10 11  1  0
 10 12  1  0
 10 13  1  0
 13 14  1  0
 13 15  1  0
 13 16  1  0
 16 17  1  0
 16 18  1  0
 16 19  1  0
 19 20  2  0
 19 21  1  0
 21 22  1  0
 21 23  1  0
 23 24  2  0
 23 25  2  0
 23 26  1  0
 26 27  2  0
 27 28  1  0
 27 29  1  0
 29 30  2  0
 30 31  1  0
 30 32  1  0
 32 33  1  0
 32 34  2  0
 34 35  1  0
 34 26  1  0
M  END
>  <cnnaffinity>  (1) 
-5.0244

>  <filename>  (1) 
O=C(CCCCC(=O)NS(=O)(=O)c1cccnc1)NO

$$$$
