
     RDKit          3D

 34 36  0  0  0  0  0  0  0  0999 V2000
    5.0080    1.7137   17.1198 H   0  0  0  0  0  0  0  0  0  0  0  0
    5.4704    1.1569   17.9321 C   0  0  0  0  0  0  0  0  0  0  0  0
    6.6239    0.5341   17.6394 N   0  0  0  0  0  0  0  0  0  0  0  0
    7.2242   -0.1381   18.6325 C   0  0  0  0  0  0  0  0  0  0  0  0
    8.1715   -0.6232   18.4021 H   0  0  0  0  0  0  0  0  0  0  0  0
    6.7119   -0.2556   19.9450 C   0  0  0  0  0  0  0  0  0  0  0  0
    7.4856   -0.8610   20.9736 N   0  0  0  0  0  0  0  0  0  0  0  0
    7.0598   -1.7423   21.9713 C   0  0  0  0  0  0  0  0  0  0  0  0
    5.8702   -2.7452   21.8165 C   0  0  0  0  0  0  0  0  0  0  0  0
    5.3298   -3.0341   20.7664 O   0  0  0  0  0  0  0  0  0  0  0  0
    5.5022   -3.3157   23.0155 N   0  0  0  0  0  0  0  0  0  0  0  0
    5.9545   -2.9443   23.8356 H   0  0  0  0  0  0  0  0  0  0  0  0
    4.3157   -4.0568   23.2123 C   0  0  0  0  0  0  0  0  0  0  0  0
    3.9683   -5.1025   22.3513 C   0  0  0  0  0  0  0  0  0  0  0  0
    4.6377   -5.3934   21.5525 H   0  0  0  0  0  0  0  0  0  0  0  0
    2.7317   -5.7382   22.5107 C   0  0  0  0  0  0  0  0  0  0  0  0
    2.4549   -6.5498   21.8409 H   0  0  0  0  0  0  0  0  0  0  0  0
    1.8452   -5.3217   23.5101 C   0  0  0  0  0  0  0  0  0  0  0  0
    0.8541   -5.7607   23.5729 H   0  0  0  0  0  0  0  0  0  0  0  0
    2.2213   -4.3141   24.4060 C   0  0  0  0  0  0  0  0  0  0  0  0
    1.5393   -3.9934   25.1945 H   0  0  0  0  0  0  0  0  0  0  0  0
    3.4748   -3.7067   24.2739 C   0  0  0  0  0  0  0  0  0  0  0  0
    3.7926   -2.9265   24.9588 H   0  0  0  0  0  0  0  0  0  0  0  0
    7.7868   -1.7359   23.0348 N   0  0  0  0  0  0  0  0  0  0  0  0
    8.8799   -0.7913   22.8424 C   0  0  0  0  0  0  0  0  0  0  0  0
    8.7836    0.0273   23.5683 H   0  0  0  0  0  0  0  0  0  0  0  0
    9.8468   -1.2840   23.0158 H   0  0  0  0  0  0  0  0  0  0  0  0
    8.7551   -0.2688   21.3944 C   0  0  0  0  0  0  0  0  0  0  0  0
    8.7089    0.8285   21.3414 H   0  0  0  0  0  0  0  0  0  0  0  0
    9.5776   -0.6036   20.7443 H   0  0  0  0  0  0  0  0  0  0  0  0
    5.4849    0.3657   20.2184 C   0  0  0  0  0  0  0  0  0  0  0  0
    5.0654    0.3252   21.2242 H   0  0  0  0  0  0  0  0  0  0  0  0
    4.8674    1.0955   19.1932 C   0  0  0  0  0  0  0  0  0  0  0  0
    3.9481    1.6397   19.3706 H   0  0  0  0  0  0  0  0  0  0  0  0
  1  2  1  0
  2  3  2  0
  3  4  1  0
  4  5  1  0
  4  6  2  0
  6  7  1  0
  7  8  1  0
  8  9  1  0
  9 10  2  0
  9 11  1  0
 11 12  1  0
 11 13  1  0
 13 14  2  0
 14 15  1  0
 14 16  1  0
 16 17  1  0
 16 18  2  0
 18 19  1  0
 18 20  1  0
 20 21  1  0
 20 22  2  0
 22 23  1  0
  8 24  2  0
 24 25  1  0
 25 26  1  0
 25 27  1  0
 25 28  1  0
 28 29  1  0
 28 30  1  0
  6 31  1  0
 31 32  1  0
 31 33  2  0
 33 34  1  0
 33  2  1  0
 28  7  1  0
 22 13  1  0
M  END
>  <cnnaffinity>  (1) 
-5.10956

>  <filename>  (1) 
O=C(Nc1ccccc1)C1=NCCN1c1cccnc1

$$$$
