
     RDKit          3D

 32 33  0  0  0  0  0  0  0  0999 V2000
    7.1294    3.9530   27.4086 H   0  0  0  0  0  0  0  0  0  0  0  0
    6.7483    3.8248   26.5314 O   0  0  0  0  0  0  0  0  0  0  0  0
    7.0670    2.5046   26.1147 C   0  0  2  0  0  0  0  0  0  0  0  0
    8.1562    2.3305   26.1748 H   0  0  0  0  0  0  0  0  0  0  0  0
    6.6443    2.3924   24.6517 C   0  0  0  0  0  0  0  0  0  0  0  0
    5.5872    2.6975   24.5668 H   0  0  0  0  0  0  0  0  0  0  0  0
    7.2415    3.0907   24.0550 H   0  0  0  0  0  0  0  0  0  0  0  0
    6.8460    1.0342   24.1172 N   0  0  0  0  0  0  0  0  0  0  0  0
    7.2316    0.9571   22.7997 C   0  0  0  0  0  0  0  0  0  0  0  0
    7.6707    1.8951   22.1739 O   0  0  0  0  0  0  0  0  0  0  0  0
    7.0126   -0.3144   22.2770 O   0  0  0  0  0  0  0  0  0  0  0  0
    7.5146   -0.5077   20.9699 N   0  0  0  0  0  0  0  0  0  0  0  0
    7.7413   -1.4937   20.8846 H   0  0  0  0  0  0  0  0  0  0  0  0
    6.6796    0.0179   19.9334 C   0  0  0  0  0  0  0  0  0  0  0  0
    7.1741    0.0401   18.6110 C   0  0  0  0  0  0  0  0  0  0  0  0
    8.1304   -0.4459   18.4037 H   0  0  0  0  0  0  0  0  0  0  0  0
    6.5611    0.6395   17.5800 N   0  0  0  0  0  0  0  0  0  0  0  0
    5.4010    1.2711   17.8392 C   0  0  0  0  0  0  0  0  0  0  0  0
    4.9475    1.7895   17.0005 H   0  0  0  0  0  0  0  0  0  0  0  0
    4.7947    1.2824   19.0988 C   0  0  0  0  0  0  0  0  0  0  0  0
    3.8638    1.8282   19.2478 H   0  0  0  0  0  0  0  0  0  0  0  0
    5.4335    0.6305   20.1588 C   0  0  0  0  0  0  0  0  0  0  0  0
    4.9834    0.6118   21.1486 H   0  0  0  0  0  0  0  0  0  0  0  0
    6.2304   -0.0528   24.8918 C   0  0  0  0  0  0  0  0  0  0  0  0
    5.1354   -0.0033   24.7837 H   0  0  0  0  0  0  0  0  0  0  0  0
    6.5454   -1.0192   24.4950 H   0  0  0  0  0  0  0  0  0  0  0  0
    6.6227    0.0460   26.3761 C   0  0  0  0  0  0  0  0  0  0  0  0
    6.0907   -0.7304   26.9436 H   0  0  0  0  0  0  0  0  0  0  0  0
    7.6993   -0.1616   26.4709 H   0  0  0  0  0  0  0  0  0  0  0  0
    6.3410    1.4430   26.9518 C   0  0  0  0  0  0  0  0  0  0  0  0
    6.6694    1.5096   27.9967 H   0  0  0  0  0  0  0  0  0  0  0  0
    5.2641    1.6726   26.9459 H   0  0  0  0  0  0  0  0  0  0  0  0
  1  2  1  0
  2  3  1  0
  3  4  1  6
  3  5  1  0
  5  6  1  0
  5  7  1  0
  5  8  1  0
  8  9  1  0
  9 10  2  0
  9 11  1  0
 11 12  1  0
 12 13  1  0
 12 14  1  0
 14 15  2  0
 15 16  1  0
 15 17  1  0
 17 18  2  0
 18 19  1  0
 18 20  1  0
 20 21  1  0
 20 22  2  0
 22 23  1  0
  8 24  1  0
 24 25  1  0
 24 26  1  0
 24 27  1  0
 27 28  1  0
 27 29  1  0
 27 30  1  0
 30 31  1  0
 30 32  1  0
 30  3  1  0
 22 14  1  0
M  END
>  <cnnaffinity>  (1) 
-4.27531

>  <filename>  (1) 
O=C(ONc1cccnc1)N1CCC[C@H](O)C1

$$$$
