
     RDKit          3D

 28 29  0  0  0  0  0  0  0  0999 V2000
    4.9697    1.7742   17.0079 H   0  0  0  0  0  0  0  0  0  0  0  0
    5.4076    1.2714   17.8690 C   0  0  0  0  0  0  0  0  0  0  0  0
    6.5679    0.6422   17.6402 N   0  0  0  0  0  0  0  0  0  0  0  0
    7.1517    0.0250   18.6709 C   0  0  0  0  0  0  0  0  0  0  0  0
    8.1164   -0.4258   18.4551 H   0  0  0  0  0  0  0  0  0  0  0  0
    6.6063   -0.0365   19.9616 C   0  0  0  0  0  0  0  0  0  0  0  0
    7.4543   -0.7401   20.9722 C   0  0  0  0  0  0  0  0  0  0  0  0
    8.6693   -0.7480   20.8793 O   0  0  0  0  0  0  0  0  0  0  0  0
    6.7666   -1.3881   21.9621 N   0  0  0  0  0  0  0  0  0  0  0  0
    5.7736   -1.2584   21.9796 H   0  0  0  0  0  0  0  0  0  0  0  0
    7.3389   -2.1882   22.9767 C   0  0  0  0  0  0  0  0  0  0  0  0
    6.7891   -2.1851   24.2653 C   0  0  0  0  0  0  0  0  0  0  0  0
    5.9161   -1.5693   24.4682 H   0  0  0  0  0  0  0  0  0  0  0  0
    7.3869   -2.9386   25.2816 C   0  0  0  0  0  0  0  0  0  0  0  0
    6.9621   -2.9085   26.2850 H   0  0  0  0  0  0  0  0  0  0  0  0
    8.5246   -3.7186   25.0137 C   0  0  0  0  0  0  0  0  0  0  0  0
    9.1538   -4.5780   26.0909 C   0  0  0  0  0  0  0  0  0  0  0  0
    8.9990   -4.0503   27.3202 F   0  0  0  0  0  0  0  0  0  0  0  0
    8.6039   -5.8083   26.1206 F   0  0  0  0  0  0  0  0  0  0  0  0
   10.4759   -4.7485   25.8978 F   0  0  0  0  0  0  0  0  0  0  0  0
    9.0413   -3.7451   23.7075 C   0  0  0  0  0  0  0  0  0  0  0  0
    9.9264   -4.3309   23.4750 H   0  0  0  0  0  0  0  0  0  0  0  0
    8.4546   -2.9866   22.6958 C   0  0  0  0  0  0  0  0  0  0  0  0
    8.8508   -2.9669   21.6889 H   0  0  0  0  0  0  0  0  0  0  0  0
    5.3900    0.6280   20.1931 C   0  0  0  0  0  0  0  0  0  0  0  0
    4.9316    0.6927   21.1833 H   0  0  0  0  0  0  0  0  0  0  0  0
    4.7884    1.2968   19.1232 C   0  0  0  0  0  0  0  0  0  0  0  0
    3.8671    1.8543   19.2398 H   0  0  0  0  0  0  0  0  0  0  0  0
  1  2  1  0
  2  3  2  0
  3  4  1  0
  4  5  1  0
  4  6  2  0
  6  7  1  0
  7  8  2  0
  7  9  1  0
  9 10  1  0
  9 11  1  0
 11 12  2  0
 12 13  1  0
 12 14  1  0
 14 15  1  0
 14 16  2  0
 16 17  1  0
 17 18  1  0
 17 19  1  0
 17 20  1  0
 16 21  1  0
 21 22  1  0
 21 23  2  0
 23 24  1  0
  6 25  1  0
 25 26  1  0
 25 27  2  0
 27 28  1  0
 27  2  1  0
 23 11  1  0
M  END
>  <cnnaffinity>  (1) 
-4.65989

>  <filename>  (1) 
O=C(Nc1ccc(C(F)(F)F)cc1)c1cccnc1

$$$$
