
     RDKit          3D

 31 32  0  0  0  0  0  0  0  0999 V2000
    5.0233    1.7603   16.9852 H   0  0  0  0  0  0  0  0  0  0  0  0
    5.4544    1.2855   17.8660 C   0  0  0  0  0  0  0  0  0  0  0  0
    6.6218    0.6497   17.6929 N   0  0  0  0  0  0  0  0  0  0  0  0
    7.1510    0.0428   18.7606 C   0  0  0  0  0  0  0  0  0  0  0  0
    8.1083   -0.4554   18.6077 H   0  0  0  0  0  0  0  0  0  0  0  0
    6.5600    0.0323   20.0268 C   0  0  0  0  0  0  0  0  0  0  0  0
    7.2763   -0.6497   21.1215 C   0  0  0  0  0  0  0  0  0  0  0  0
    8.1513   -2.0220   20.9705 S   0  0  0  0  0  0  0  0  0  0  0  0
    7.1892   -0.0538   22.3446 N   0  0  0  0  0  0  0  0  0  0  0  0
    7.6072   -0.5869   23.0870 H   0  0  0  0  0  0  0  0  0  0  0  0
    7.4146    1.3177   22.4939 C   0  0  0  0  0  0  0  0  0  0  0  0
    7.8073    2.0511   21.6240 O   0  0  0  0  0  0  0  0  0  0  0  0
    7.0898    1.6503   23.7853 N   0  0  0  0  0  0  0  0  0  0  0  0
    6.4980    0.9072   24.1238 H   0  0  0  0  0  0  0  0  0  0  0  0
    6.5455    2.9899   24.0128 C   0  0  0  0  0  0  0  0  0  0  0  0
    7.3057    3.7315   23.7497 H   0  0  0  0  0  0  0  0  0  0  0  0
    6.3700    3.1004   25.0849 H   0  0  0  0  0  0  0  0  0  0  0  0
    5.2538    3.2888   23.2587 C   0  0  0  0  0  0  0  0  0  0  0  0
    4.0250    2.6978   23.6003 C   0  0  0  0  0  0  0  0  0  0  0  0
    3.9348    2.0170   24.4405 H   0  0  0  0  0  0  0  0  0  0  0  0
    2.8775    3.0392   22.8799 C   0  0  0  0  0  0  0  0  0  0  0  0
    1.9304    2.5544   23.0951 H   0  0  0  0  0  0  0  0  0  0  0  0
    2.8488    3.9424   21.8943 N   0  0  0  0  0  0  0  0  0  0  0  0
    4.0190    4.5084   21.5621 C   0  0  0  0  0  0  0  0  0  0  0  0
    3.9650    5.2819   20.7948 H   0  0  0  0  0  0  0  0  0  0  0  0
    5.2354    4.1817   22.1725 C   0  0  0  0  0  0  0  0  0  0  0  0
    6.1466    4.6446   21.7944 H   0  0  0  0  0  0  0  0  0  0  0  0
    5.3458    0.7167   20.2007 C   0  0  0  0  0  0  0  0  0  0  0  0
    4.8791    0.7946   21.1868 H   0  0  0  0  0  0  0  0  0  0  0  0
    4.7832    1.3441   19.0933 C   0  0  0  0  0  0  0  0  0  0  0  0
    3.8531    1.8953   19.1689 H   0  0  0  0  0  0  0  0  0  0  0  0
  1  2  1  0
  2  3  2  0
  3  4  1  0
  4  5  1  0
  4  6  2  0
  6  7  1  0
  7  8  2  0
  7  9  1  0
  9 10  1  0
  9 11  1  0
 11 12  2  0
 11 13  1  0
 13 14  1  0
 13 15  1  0
 15 16  1  0
 15 17  1  0
 15 18  1  0
 18 19  2  0
 19 20  1  0
 19 21  1  0
 21 22  1  0
 21 23  2  0
 23 24  1  0
 24 25  1  0
 24 26  2  0
 26 27  1  0
  6 28  1  0
 28 29  1  0
 28 30  2  0
 30 31  1  0
 30  2  1  0
 26 18  1  0
M  END
>  <cnnaffinity>  (1) 
-4.08467

>  <filename>  (1) 
O=C(NCc1ccncc1)NC(=S)c1cccnc1

$$$$
