
     RDKit          3D

 39 42  0  0  0  0  0  0  0  0999 V2000
    5.0533    1.7703   17.1810 H   0  0  0  0  0  0  0  0  0  0  0  0
    5.5154    1.1865   17.9723 C   0  0  0  0  0  0  0  0  0  0  0  0
    6.6669    0.5842   17.6392 N   0  0  0  0  0  0  0  0  0  0  0  0
    7.2995   -0.0939   18.5987 C   0  0  0  0  0  0  0  0  0  0  0  0
    8.2586   -0.5370   18.3350 H   0  0  0  0  0  0  0  0  0  0  0  0
    6.7952   -0.2468   19.9007 C   0  0  0  0  0  0  0  0  0  0  0  0
    7.6307   -0.9656   20.8712 C   0  0  0  0  0  0  0  0  0  0  0  0
    8.9397   -0.8881   20.9428 N   0  0  0  0  0  0  0  0  0  0  0  0
    9.3691   -1.5223   22.0892 N   0  0  0  0  0  0  0  0  0  0  0  0
    8.2936   -1.9824   22.6695 C   0  0  0  0  0  0  0  0  0  0  0  0
    7.8519   -2.7933   24.1491 S   0  0  0  0  0  0  0  0  0  0  0  0
    6.1878   -2.6721   23.5899 C   0  0  0  0  0  0  0  0  0  0  0  0
    5.0813   -3.0393   24.3144 N   0  0  0  0  0  0  0  0  0  0  0  0
    4.2243   -2.7884   23.8595 H   0  0  0  0  0  0  0  0  0  0  0  0
    5.0444   -3.4497   25.6257 C   0  0  0  0  0  0  0  0  0  0  0  0
    6.0801   -3.6140   26.2355 O   0  0  0  0  0  0  0  0  0  0  0  0
    3.5973   -3.6564   26.1376 C   0  0  0  0  0  0  0  0  0  0  0  0
    3.0674   -2.7245   25.8876 H   0  0  0  0  0  0  0  0  0  0  0  0
    3.4937   -3.8826   27.6603 C   0  0  0  0  0  0  0  0  0  0  0  0
    3.9451   -3.0587   28.2238 H   0  0  0  0  0  0  0  0  0  0  0  0
    2.4235   -3.8687   27.9149 H   0  0  0  0  0  0  0  0  0  0  0  0
    4.0937   -5.2310   28.0912 C   0  0  0  0  0  0  0  0  0  0  0  0
    5.1732   -5.1967   27.9054 H   0  0  0  0  0  0  0  0  0  0  0  0
    3.9518   -5.3714   29.1692 H   0  0  0  0  0  0  0  0  0  0  0  0
    3.4797   -6.4138   27.3239 C   0  0  0  0  0  0  0  0  0  0  0  0
    3.9959   -7.3462   27.5852 H   0  0  0  0  0  0  0  0  0  0  0  0
    2.4356   -6.5627   27.6397 H   0  0  0  0  0  0  0  0  0  0  0  0
    3.5198   -6.1860   25.8037 C   0  0  0  0  0  0  0  0  0  0  0  0
    3.0058   -7.0049   25.2866 H   0  0  0  0  0  0  0  0  0  0  0  0
    4.5634   -6.1966   25.4541 H   0  0  0  0  0  0  0  0  0  0  0  0
    2.8754   -4.8413   25.4326 C   0  0  0  0  0  0  0  0  0  0  0  0
    2.8215   -4.7093   24.3458 H   0  0  0  0  0  0  0  0  0  0  0  0
    1.8322   -4.8389   25.7792 H   0  0  0  0  0  0  0  0  0  0  0  0
    5.9825   -2.1883   22.4050 N   0  0  0  0  0  0  0  0  0  0  0  0
    7.1795   -1.7171   21.9331 N   0  0  0  0  0  0  0  0  0  0  0  0
    5.5752    0.3652   20.2331 C   0  0  0  0  0  0  0  0  0  0  0  0
    5.1544    0.2690   21.2384 H   0  0  0  0  0  0  0  0  0  0  0  0
    4.9344    1.1143   19.2454 C   0  0  0  0  0  0  0  0  0  0  0  0
    4.0244    1.6743   19.4434 H   0  0  0  0  0  0  0  0  0  0  0  0
  1  2  1  0
  2  3  2  0
  3  4  1  0
  4  5  1  0
  4  6  2  0
  6  7  1  0
  7  8  2  0
  8  9  1  0
  9 10  2  0
 10 11  1  0
 11 12  1  0
 12 13  1  0
 13 14  1  0
 13 15  1  0
 15 16  2  0
 15 17  1  0
 17 18  1  0
 17 19  1  0
 19 20  1  0
 19 21  1  0
 19 22  1  0
 22 23  1  0
 22 24  1  0
 22 25  1  0
 25 26  1  0
 25 27  1  0
 25 28  1  0
 28 29  1  0
 28 30  1  0
 28 31  1  0
 31 32  1  0
 31 33  1  0
 12 34  2  0
 34 35  1  0
  6 36  1  0
 36 37  1  0
 36 38  2  0
 38 39  1  0
 38  2  1  0
 35  7  1  0
 35 10  1  0
 31 17  1  0
M  END
>  <cnnaffinity>  (1) 
-5.52381

>  <filename>  (1) 
O=C(Nc1nn2c(-c3cccnc3)nnc2s1)C1CCCCC1

$$$$
