
     RDKit          3D

 42 44  0  0  0  0  0  0  0  0999 V2000
    8.0984   -1.6079   20.6427 O   0  0  0  0  0  0  0  0  0  0  0  0
    7.3859   -0.6571   20.9559 C   0  0  0  0  0  0  0  0  0  0  0  0
    6.6095    0.0188   19.8877 C   0  0  0  0  0  0  0  0  0  0  0  0
    5.4223    0.7308   20.1006 C   0  0  0  0  0  0  0  0  0  0  0  0
    4.8274    1.3447   19.0015 C   0  0  0  0  0  0  0  0  0  0  0  0
    5.4605    1.2648   17.7588 C   0  0  0  0  0  0  0  0  0  0  0  0
    6.5784    0.5566   17.5407 N   0  0  0  0  0  0  0  0  0  0  0  0
    7.1203   -0.0734   18.5831 C   0  0  0  0  0  0  0  0  0  0  0  0
    8.0107   -0.6675   18.3898 H   0  0  0  0  0  0  0  0  0  0  0  0
    5.0505    1.7953   16.9005 H   0  0  0  0  0  0  0  0  0  0  0  0
    3.9004    1.8956   19.0996 H   0  0  0  0  0  0  0  0  0  0  0  0
    4.9963    0.8250   21.1000 H   0  0  0  0  0  0  0  0  0  0  0  0
    7.3328   -0.1480   22.3777 C   0  0  0  0  0  0  0  0  0  0  0  0
    7.0597    1.0897   22.7677 N   0  0  0  0  0  0  0  0  0  0  0  0
    7.2551    1.1123   24.1105 C   0  0  0  0  0  0  0  0  0  0  0  0
    7.6215   -0.1269   24.5478 C   0  0  0  0  0  0  0  0  0  0  0  0
    7.6569   -0.9477   23.4442 N   0  0  0  0  0  0  0  0  0  0  0  0
    7.8733   -2.4028   23.3632 C   0  0  0  0  0  0  0  0  0  0  0  0
    7.9038   -3.0833   24.7270 C   0  0  0  0  0  0  0  0  0  0  0  0
    9.2555   -2.9334   25.4597 C   0  0  0  0  0  0  0  0  0  0  0  0
   10.3302   -3.9104   24.8784 C   0  0  0  0  0  0  0  0  0  0  0  0
   10.8347   -4.9902   25.8528 C   0  0  0  0  0  0  0  0  0  0  0  0
    9.6727   -5.5331   26.6564 N   0  0  0  0  0  4  0  0  0  0  0  0
    9.0647   -4.4963   27.5797 C   0  0  0  0  0  0  0  0  0  0  0  0
    9.0524   -3.0697   26.9837 C   0  0  0  0  0  0  0  0  0  0  0  0
    9.8230   -2.4595   27.4656 H   0  0  0  0  0  0  0  0  0  0  0  0
    8.0955   -2.6023   27.2556 H   0  0  0  0  0  0  0  0  0  0  0  0
    9.6291   -4.4607   28.5156 H   0  0  0  0  0  0  0  0  0  0  0  0
    8.0478   -4.8146   27.8222 H   0  0  0  0  0  0  0  0  0  0  0  0
    9.9487   -6.3758   27.2034 H   0  0  0  0  0  0  0  0  0  0  0  0
    8.9171   -5.7830   25.9636 H   0  0  0  0  0  0  0  0  0  0  0  0
   11.2950   -5.8113   25.2963 H   0  0  0  0  0  0  0  0  0  0  0  0
   11.5850   -4.5724   26.5326 H   0  0  0  0  0  0  0  0  0  0  0  0
   11.1947   -3.3590   24.4925 H   0  0  0  0  0  0  0  0  0  0  0  0
    9.9129   -4.4343   24.0072 H   0  0  0  0  0  0  0  0  0  0  0  0
    9.6127   -1.9004   25.2893 H   0  0  0  0  0  0  0  0  0  0  0  0
    7.0794   -2.6746   25.3319 H   0  0  0  0  0  0  0  0  0  0  0  0
    7.6957   -4.1566   24.6189 H   0  0  0  0  0  0  0  0  0  0  0  0
    7.0622   -2.8248   22.7685 H   0  0  0  0  0  0  0  0  0  0  0  0
    8.7940   -2.5809   22.7965 H   0  0  0  0  0  0  0  0  0  0  0  0
    7.8428   -0.4580   25.5473 H   0  0  0  0  0  0  0  0  0  0  0  0
    7.1294    2.0193   24.6924 H   0  0  0  0  0  0  0  0  0  0  0  0
  1  2  2  0
  2  3  1  0
  3  4  2  0
  4  5  1  0
  5  6  2  0
  6  7  1  0
  7  8  2  0
  8  9  1  0
  6 10  1  0
  5 11  1  0
  4 12  1  0
  2 13  1  0
 13 14  2  0
 14 15  1  0
 15 16  2  0
 16 17  1  0
 17 18  1  0
 18 19  1  0
 19 20  1  0
 20 21  1  0
 21 22  1  0
 22 23  1  0
 23 24  1  0
 24 25  1  0
 25 26  1  0
 25 27  1  0
 24 28  1  0
 24 29  1  0
 23 30  1  0
 23 31  1  0
 22 32  1  0
 22 33  1  0
 21 34  1  0
 21 35  1  0
 20 36  1  0
 19 37  1  0
 19 38  1  0
 18 39  1  0
 18 40  1  0
 16 41  1  0
 15 42  1  0
  8  3  1  0
 17 13  1  0
 25 20  1  0
M  CHG  1  23   1
M  END
>  <cnnaffinity>  (1) 
-5.02383

>  <filename>  (1) 
O=C(c1cccnc1)c1nccn1CCC1CC[NH2+]CC1

$$$$
