
     RDKit          3D

 32 34  0  0  0  0  0  0  0  0999 V2000
    4.9991    1.8096   16.9828 H   0  0  0  0  0  0  0  0  0  0  0  0
    5.4488    1.2865   17.8267 C   0  0  0  0  0  0  0  0  0  0  0  0
    6.5903    0.6255   17.5860 N   0  0  0  0  0  0  0  0  0  0  0  0
    7.1779   -0.0212   18.6051 C   0  0  0  0  0  0  0  0  0  0  0  0
    8.1003   -0.5425   18.3550 H   0  0  0  0  0  0  0  0  0  0  0  0
    6.6556   -0.0465   19.9161 C   0  0  0  0  0  0  0  0  0  0  0  0
    7.1978   -0.7698   20.9645 O   0  0  0  0  0  0  0  0  0  0  0  0
    8.5664   -0.8275   21.1586 C   0  0  0  0  0  0  0  0  0  0  0  0
    9.5634    0.0548   20.6966 C   0  0  0  0  0  0  0  0  0  0  0  0
    9.4485    0.9391   20.0931 H   0  0  0  0  0  0  0  0  0  0  0  0
   10.7702   -0.2987   21.1099 N   0  0  0  0  0  0  0  0  0  0  0  0
   10.5614   -1.3948   21.8502 N   0  0  0  0  0  0  0  0  0  0  0  0
   11.2988   -1.9131   22.3178 H   0  0  0  0  0  0  0  0  0  0  0  0
    9.2555   -1.7370   21.9414 C   0  0  0  0  0  0  0  0  0  0  0  0
    8.8141   -2.7704   22.7799 N   0  0  0  0  0  0  0  0  0  0  0  0
    7.8243   -2.9517   22.7954 H   0  0  0  0  0  0  0  0  0  0  0  0
    9.5979   -3.4712   23.6605 C   0  0  0  0  0  0  0  0  0  0  0  0
   10.8184   -3.4377   23.6232 O   0  0  0  0  0  0  0  0  0  0  0  0
    8.8227   -4.3433   24.6584 C   0  0  0  0  0  0  0  0  0  0  0  0
    7.7248   -3.8862   25.4260 C   0  0  0  0  0  0  0  0  0  0  0  0
    7.2818   -2.9047   25.2792 H   0  0  0  0  0  0  0  0  0  0  0  0
    7.1930   -4.7021   26.4380 C   0  0  0  0  0  0  0  0  0  0  0  0
    6.3634   -4.3523   27.0534 H   0  0  0  0  0  0  0  0  0  0  0  0
    7.6269   -5.9428   26.6933 N   0  0  0  0  0  0  0  0  0  0  0  0
    8.6414   -6.3928   25.9457 C   0  0  0  0  0  0  0  0  0  0  0  0
    8.9818   -7.4054   26.1428 H   0  0  0  0  0  0  0  0  0  0  0  0
    9.2596   -5.6552   24.9322 C   0  0  0  0  0  0  0  0  0  0  0  0
   10.0913   -6.1221   24.4171 H   0  0  0  0  0  0  0  0  0  0  0  0
    5.4530    0.6347   20.1527 C   0  0  0  0  0  0  0  0  0  0  0  0
    5.0121    0.6229   21.1485 H   0  0  0  0  0  0  0  0  0  0  0  0
    4.8442    1.3099   19.0883 C   0  0  0  0  0  0  0  0  0  0  0  0
    3.9168    1.8578   19.2225 H   0  0  0  0  0  0  0  0  0  0  0  0
  1  2  1  0
  2  3  2  0
  3  4  1  0
  4  5  1  0
  4  6  2  0
  6  7  1  0
  7  8  1  0
  8  9  1  0
  9 10  1  0
  9 11  2  0
 11 12  1  0
 12 13  1  0
 12 14  1  0
 14 15  1  0
 15 16  1  0
 15 17  1  0
 17 18  2  0
 17 19  1  0
 19 20  2  0
 20 21  1  0
 20 22  1  0
 22 23  1  0
 22 24  2  0
 24 25  1  0
 25 26  1  0
 25 27  2  0
 27 28  1  0
  6 29  1  0
 29 30  1  0
 29 31  2  0
 31 32  1  0
 31  2  1  0
 14  8  2  0
 27 19  1  0
M  END
>  <cnnaffinity>  (1) 
-5.67588

>  <filename>  (1) 
O=C(Nc1[nH]ncc1Oc1cccnc1)c1ccncc1

$$$$
