
     RDKit          3D

 20 20  0  0  0  0  0  0  0  0999 V2000
    4.9333    1.7729   17.0018 H   0  0  0  0  0  0  0  0  0  0  0  0
    5.4161    1.2834   17.8474 C   0  0  0  0  0  0  0  0  0  0  0  0
    6.5773    0.6633   17.5947 N   0  0  0  0  0  0  0  0  0  0  0  0
    7.2026    0.0661   18.6169 C   0  0  0  0  0  0  0  0  0  0  0  0
    8.1305   -0.4387   18.3528 H   0  0  0  0  0  0  0  0  0  0  0  0
    6.7055    0.0358   19.9252 C   0  0  0  0  0  0  0  0  0  0  0  0
    7.3721   -0.7416   21.0162 C   0  0  0  0  0  0  0  0  0  0  0  0
    6.7631   -1.1614   21.9748 O   0  0  0  0  0  0  0  0  0  0  0  0
    8.7435   -0.9700   20.8907 N   0  0  0  0  0  0  0  0  0  0  0  0
    9.3063   -0.2819   20.4141 H   0  0  0  0  0  0  0  0  0  0  0  0
    9.4863   -1.8810   21.6014 C   0  0  0  0  0  0  0  0  0  0  0  0
   11.0983   -1.6749   21.7698 S   0  0  0  0  0  0  0  0  0  0  0  0
    8.7741   -3.0838   22.2037 C   0  0  0  0  0  0  0  0  0  0  0  0
    8.1903   -2.7706   23.0686 H   0  0  0  0  0  0  0  0  0  0  0  0
    9.5350   -3.7929   22.5098 H   0  0  0  0  0  0  0  0  0  0  0  0
    7.9275   -3.6787   21.2881 F   0  0  0  0  0  0  0  0  0  0  0  0
    5.4625    0.6568   20.1674 C   0  0  0  0  0  0  0  0  0  0  0  0
    5.0142    0.6211   21.1629 H   0  0  0  0  0  0  0  0  0  0  0  0
    4.8228    1.3041   19.1145 C   0  0  0  0  0  0  0  0  0  0  0  0
    3.8871    1.8325   19.2588 H   0  0  0  0  0  0  0  0  0  0  0  0
  1  2  1  0
  2  3  2  0
  3  4  1  0
  4  5  1  0
  4  6  2  0
  6  7  1  0
  7  8  2  0
  7  9  1  0
  9 10  1  0
  9 11  1  0
 11 12  2  0
 11 13  1  0
 13 14  1  0
 13 15  1  0
 13 16  1  0
  6 17  1  0
 17 18  1  0
 17 19  2  0
 19 20  1  0
 19  2  1  0
M  END
>  <cnnaffinity>  (1) 
-4.16878

>  <filename>  (1) 
O=C(NC(=S)CF)c1cccnc1

$$$$
