
     RDKit          3D

 28 29  0  0  0  0  0  0  0  0999 V2000
    4.9285    2.1170   16.7561 H   0  0  0  0  0  0  0  0  0  0  0  0
    5.4177    1.5449   17.5427 C   0  0  0  0  0  0  0  0  0  0  0  0
    6.5940    0.9873   17.2137 N   0  0  0  0  0  0  0  0  0  0  0  0
    7.2207    0.2756   18.1530 C   0  0  0  0  0  0  0  0  0  0  0  0
    8.1816   -0.1472   17.8669 H   0  0  0  0  0  0  0  0  0  0  0  0
    6.6903    0.0404   19.4431 C   0  0  0  0  0  0  0  0  0  0  0  0
    7.4022   -0.8437   20.3997 C   0  0  0  0  0  0  0  0  0  0  0  0
    9.0193   -1.0248   20.4010 S   0  0  0  0  0  0  0  0  0  0  0  0
    6.5933   -1.7232   21.3805 C   0  0  0  0  0  0  0  0  0  0  0  0
    5.7347   -2.4460   20.9133 O   0  0  0  0  0  0  0  0  0  0  0  0
    6.9675   -1.7425   22.8505 C   0  0  0  0  0  0  0  0  0  0  0  0
    6.7200   -2.9188   23.5830 C   0  0  0  0  0  0  0  0  0  0  0  0
    6.2978   -3.7884   23.0909 H   0  0  0  0  0  0  0  0  0  0  0  0
    7.0419   -3.0035   24.9322 C   0  0  0  0  0  0  0  0  0  0  0  0
    6.9452   -3.9553   25.4558 H   0  0  0  0  0  0  0  0  0  0  0  0
    7.5727   -1.8890   25.5976 C   0  0  0  0  0  0  0  0  0  0  0  0
    7.8004   -1.9486   27.0919 C   0  0  0  0  0  0  0  0  0  0  0  0
    7.9841   -3.2099   27.5282 F   0  0  0  0  0  0  0  0  0  0  0  0
    8.8821   -1.2396   27.4638 F   0  0  0  0  0  0  0  0  0  0  0  0
    6.7528   -1.4560   27.7830 F   0  0  0  0  0  0  0  0  0  0  0  0
    7.8734   -0.7245   24.8720 C   0  0  0  0  0  0  0  0  0  0  0  0
    8.4106    0.0945   25.3477 H   0  0  0  0  0  0  0  0  0  0  0  0
    7.5633   -0.6466   23.5112 C   0  0  0  0  0  0  0  0  0  0  0  0
    7.8181    0.2575   22.9644 H   0  0  0  0  0  0  0  0  0  0  0  0
    5.4747    0.6577   19.7757 C   0  0  0  0  0  0  0  0  0  0  0  0
    5.0519    0.5566   20.7771 H   0  0  0  0  0  0  0  0  0  0  0  0
    4.8268    1.4207   18.8008 C   0  0  0  0  0  0  0  0  0  0  0  0
    3.8904    1.9255   19.0062 H   0  0  0  0  0  0  0  0  0  0  0  0
  1  2  1  0
  2  3  2  0
  3  4  1  0
  4  5  1  0
  4  6  2  0
  6  7  1  0
  7  8  2  0
  7  9  1  0
  9 10  2  0
  9 11  1  0
 11 12  2  0
 12 13  1  0
 12 14  1  0
 14 15  1  0
 14 16  2  0
 16 17  1  0
 17 18  1  0
 17 19  1  0
 17 20  1  0
 16 21  1  0
 21 22  1  0
 21 23  2  0
 23 24  1  0
  6 25  1  0
 25 26  1  0
 25 27  2  0
 27 28  1  0
 27  2  1  0
 23 11  1  0
M  END
>  <cnnaffinity>  (1) 
-4.33539

>  <filename>  (1) 
O=C(C(=S)c1cccnc1)c1ccc(C(F)(F)F)cc1

$$$$
