
     RDKit          3D

 18 18  0  0  0  0  0  0  0  0999 V2000
    4.9454    1.7725   17.0007 H   0  0  0  0  0  0  0  0  0  0  0  0
    5.4101    1.2807   17.8550 C   0  0  0  0  0  0  0  0  0  0  0  0
    6.5726    0.6552   17.6258 N   0  0  0  0  0  0  0  0  0  0  0  0
    7.1600    0.0345   18.6528 C   0  0  0  0  0  0  0  0  0  0  0  0
    8.1174   -0.4240   18.4180 H   0  0  0  0  0  0  0  0  0  0  0  0
    6.6073   -0.0369   19.9370 C   0  0  0  0  0  0  0  0  0  0  0  0
    7.4172   -0.7372   20.9778 C   0  0  0  0  0  0  0  0  0  0  0  0
    8.6307   -0.8313   20.9151 O   0  0  0  0  0  0  0  0  0  0  0  0
    6.7346   -1.2649   22.0205 N   0  0  0  0  0  0  0  0  0  0  0  0
    5.7318   -1.3358   22.0165 H   0  0  0  0  0  0  0  0  0  0  0  0
    7.4280   -1.8429   23.1359 C   0  0  0  0  0  0  0  0  0  0  0  0
    8.0159   -1.0864   23.6723 H   0  0  0  0  0  0  0  0  0  0  0  0
    8.0902   -2.6620   22.8242 H   0  0  0  0  0  0  0  0  0  0  0  0
    6.4450   -2.3284   23.9585 F   0  0  0  0  0  0  0  0  0  0  0  0
    5.4002    0.6385   20.1757 C   0  0  0  0  0  0  0  0  0  0  0  0
    4.9637    0.6723   21.1796 H   0  0  0  0  0  0  0  0  0  0  0  0
    4.7979    1.3098   19.1129 C   0  0  0  0  0  0  0  0  0  0  0  0
    3.8698    1.8505   19.2495 H   0  0  0  0  0  0  0  0  0  0  0  0
  1  2  1  0
  2  3  2  0
  3  4  1  0
  4  5  1  0
  4  6  2  0
  6  7  1  0
  7  8  2  0
  7  9  1  0
  9 10  1  0
  9 11  1  0
 11 12  1  0
 11 13  1  0
 11 14  1  0
  6 15  1  0
 15 16  1  0
 15 17  2  0
 17 18  1  0
 17  2  1  0
M  END
>  <cnnaffinity>  (1) 
-3.66406

>  <filename>  (1) 
O=C(NCF)c1cccnc1

$$$$
