
     RDKit          3D

 41 43  0  0  0  0  0  0  0  0999 V2000
    4.9672    1.8086   16.9517 H   0  0  0  0  0  0  0  0  0  0  0  0
    5.4190    1.3151   17.8111 C   0  0  0  0  0  0  0  0  0  0  0  0
    6.5744    0.6654   17.5964 N   0  0  0  0  0  0  0  0  0  0  0  0
    7.1425    0.0482   18.6468 C   0  0  0  0  0  0  0  0  0  0  0  0
    8.0690   -0.4792   18.4280 H   0  0  0  0  0  0  0  0  0  0  0  0
    6.6259    0.0516   19.9767 C   0  0  0  0  0  0  0  0  0  0  0  0
    7.2512   -0.5982   21.0616 N   0  0  0  0  0  0  0  0  0  0  0  0
    7.2770    0.0123   22.3888 C   0  0  0  0  0  0  0  0  0  0  0  0
    6.3817   -0.2630   22.9809 H   0  0  0  0  0  0  0  0  0  0  0  0
    7.2503    1.1055   22.2664 H   0  0  0  0  0  0  0  0  0  0  0  0
    8.5053   -0.4005   23.2455 C   0  0  0  0  0  0  0  0  0  0  0  0
    8.5471    0.2107   24.1541 H   0  0  0  0  0  0  0  0  0  0  0  0
    8.3083   -1.4217   23.5921 H   0  0  0  0  0  0  0  0  0  0  0  0
    9.8225   -0.4337   22.5912 N   0  0  0  0  0  0  0  0  0  0  0  0
   10.5433    0.6695   22.1748 C   0  0  0  0  0  0  0  0  0  0  0  0
   11.4661    0.6000   21.3764 O   0  0  0  0  0  0  0  0  0  0  0  0
   10.1797    1.8385   22.7887 N   0  0  0  0  0  0  0  0  0  0  0  0
    9.2680    1.8867   23.1903 H   0  0  0  0  0  0  0  0  0  0  0  0
   10.9844    2.9628   22.8498 C   0  0  0  0  0  0  0  0  0  0  0  0
   12.3742    2.8623   22.8749 C   0  0  0  0  0  0  0  0  0  0  0  0
   12.8553    1.8992   22.8034 H   0  0  0  0  0  0  0  0  0  0  0  0
   13.1027    4.0409   22.9420 C   0  0  0  0  0  0  0  0  0  0  0  0
   14.1911    3.9937   22.9685 H   0  0  0  0  0  0  0  0  0  0  0  0
   12.5523    5.2659   22.9639 N   0  0  0  0  0  0  0  0  0  0  0  0
   11.2140    5.3283   22.9219 C   0  0  0  0  0  0  0  0  0  0  0  0
   10.7755    6.3248   22.9113 H   0  0  0  0  0  0  0  0  0  0  0  0
   10.3851    4.2129   22.8937 C   0  0  0  0  0  0  0  0  0  0  0  0
    9.3085    4.2958   22.8306 H   0  0  0  0  0  0  0  0  0  0  0  0
   10.1741   -1.6983   21.9501 C   0  0  0  0  0  0  0  0  0  0  0  0
   10.0604   -2.5049   22.6873 H   0  0  0  0  0  0  0  0  0  0  0  0
   11.2353   -1.6672   21.6745 H   0  0  0  0  0  0  0  0  0  0  0  0
    9.3370   -1.9476   20.7046 C   0  0  0  0  0  0  0  0  0  0  0  0
    9.6696   -2.9103   20.3127 H   0  0  0  0  0  0  0  0  0  0  0  0
    9.5985   -1.1684   19.9780 H   0  0  0  0  0  0  0  0  0  0  0  0
    7.8094   -1.9349   20.8974 C   0  0  0  0  0  0  0  0  0  0  0  0
    7.5257   -2.5653   21.7585 H   0  0  0  0  0  0  0  0  0  0  0  0
    7.3063   -2.3724   20.0300 H   0  0  0  0  0  0  0  0  0  0  0  0
    5.4088    0.7367   20.1570 C   0  0  0  0  0  0  0  0  0  0  0  0
    4.9625    0.7597   21.1505 H   0  0  0  0  0  0  0  0  0  0  0  0
    4.7975    1.3614   19.0639 C   0  0  0  0  0  0  0  0  0  0  0  0
    3.8561    1.8881   19.1798 H   0  0  0  0  0  0  0  0  0  0  0  0
  1  2  1  0
  2  3  2  0
  3  4  1  0
  4  5  1  0
  4  6  2  0
  6  7  1  0
  7  8  1  0
  8  9  1  0
  8 10  1  0
  8 11  1  0
 11 12  1  0
 11 13  1  0
 11 14  1  0
 14 15  1  0
 15 16  2  0
 15 17  1  0
 17 18  1  0
 17 19  1  0
 19 20  2  0
 20 21  1  0
 20 22  1  0
 22 23  1  0
 22 24  2  0
 24 25  1  0
 25 26  1  0
 25 27  2  0
 27 28  1  0
 14 29  1  0
 29 30  1  0
 29 31  1  0
 29 32  1  0
 32 33  1  0
 32 34  1  0
 32 35  1  0
 35 36  1  0
 35 37  1  0
  6 38  1  0
 38 39  1  0
 38 40  2  0
 40 41  1  0
 40  2  1  0
 35  7  1  0
 27 19  1  0
M  END
>  <cnnaffinity>  (1) 
-5.48288

>  <filename>  (1) 
O=C(Nc1ccncc1)N1CCCN(c2cccnc2)CC1

$$$$
