
     RDKit          3D

 40 41  0  0  0  0  0  0  0  0999 V2000
    8.8975    0.2752   21.3124 H   0  0  0  0  0  0  0  0  0  0  0  0
    8.6540   -0.6122   20.9975 O   0  0  0  0  0  0  0  0  0  0  0  0
    7.2477   -0.6229   21.0652 N   0  0  0  0  0  0  0  0  0  0  0  0
    6.6244   -1.6884   21.7866 C   0  0  0  0  0  0  0  0  0  0  0  0
    5.4985   -2.0634   21.5321 O   0  0  0  0  0  0  0  0  0  0  0  0
    7.4035   -2.1612   22.8375 N   0  0  0  0  0  0  0  0  0  0  0  0
    8.3951   -2.1328   22.6511 H   0  0  0  0  0  0  0  0  0  0  0  0
    6.9691   -3.1090   23.7812 N   0  0  0  0  0  0  0  0  0  0  0  0
    6.3232   -2.7120   24.4529 H   0  0  0  0  0  0  0  0  0  0  0  0
    6.5535   -4.4062   23.4044 C   0  0  0  0  0  0  0  0  0  0  0  0
    6.8491   -4.9606   22.3675 O   0  0  0  0  0  0  0  0  0  0  0  0
    5.8025   -4.9844   24.3968 N   0  0  0  0  0  0  0  0  0  0  0  0
    5.4747   -4.3715   25.1229 H   0  0  0  0  0  0  0  0  0  0  0  0
    4.9711   -6.1399   24.0954 C   0  0  0  0  0  0  0  0  0  0  0  0
    5.5894   -6.8219   23.4982 H   0  0  0  0  0  0  0  0  0  0  0  0
    4.5455   -6.8358   25.4017 C   0  0  0  0  0  0  0  0  0  0  0  0
    5.4264   -7.3301   25.8213 H   0  0  0  0  0  0  0  0  0  0  0  0
    4.2624   -6.0552   26.1189 H   0  0  0  0  0  0  0  0  0  0  0  0
    3.3613   -7.8278   25.2204 C   0  0  0  0  0  0  0  0  0  0  0  0
    2.4422   -7.3688   25.6048 H   0  0  0  0  0  0  0  0  0  0  0  0
    3.5162   -8.7209   25.8340 H   0  0  0  0  0  0  0  0  0  0  0  0
    3.1883   -8.2046   23.7414 C   0  0  0  0  0  0  0  0  0  0  0  0
    2.4579   -9.0066   23.5951 H   0  0  0  0  0  0  0  0  0  0  0  0
    4.1540   -8.5826   23.3996 H   0  0  0  0  0  0  0  0  0  0  0  0
    2.8830   -6.9851   22.8510 C   0  0  0  0  0  0  0  0  0  0  0  0
    3.0885   -7.2558   21.8067 H   0  0  0  0  0  0  0  0  0  0  0  0
    1.8186   -6.7258   22.9083 H   0  0  0  0  0  0  0  0  0  0  0  0
    3.7302   -5.7545   23.2657 C   0  0  0  0  0  0  0  0  0  0  0  0
    4.0378   -5.1605   22.3955 H   0  0  0  0  0  0  0  0  0  0  0  0
    3.1202   -5.0943   23.8943 H   0  0  0  0  0  0  0  0  0  0  0  0
    6.6244    0.0201   19.9543 C   0  0  0  0  0  0  0  0  0  0  0  0
    7.2732    0.0837   18.7041 C   0  0  0  0  0  0  0  0  0  0  0  0
    8.2498   -0.3799   18.5852 H   0  0  0  0  0  0  0  0  0  0  0  0
    6.7501    0.6884   17.6341 N   0  0  0  0  0  0  0  0  0  0  0  0
    5.5583    1.2922   17.7750 C   0  0  0  0  0  0  0  0  0  0  0  0
    5.1629    1.7909   16.8899 H   0  0  0  0  0  0  0  0  0  0  0  0
    4.8531    1.3114   18.9837 C   0  0  0  0  0  0  0  0  0  0  0  0
    3.9096    1.8404   19.0376 H   0  0  0  0  0  0  0  0  0  0  0  0
    5.3778    0.6488   20.0984 C   0  0  0  0  0  0  0  0  0  0  0  0
    4.8614    0.6361   21.0592 H   0  0  0  0  0  0  0  0  0  0  0  0
  1  2  1  0
  2  3  1  0
  3  4  1  0
  4  5  2  0
  4  6  1  0
  6  7  1  0
  6  8  1  0
  8  9  1  0
  8 10  1  0
 10 11  2  0
 10 12  1  0
 12 13  1  0
 12 14  1  0
 14 15  1  0
 14 16  1  0
 16 17  1  0
 16 18  1  0
 16 19  1  0
 19 20  1  0
 19 21  1  0
 19 22  1  0
 22 23  1  0
 22 24  1  0
 22 25  1  0
 25 26  1  0
 25 27  1  0
 25 28  1  0
 28 29  1  0
 28 30  1  0
  3 31  1  0
 31 32  2  0
 32 33  1  0
 32 34  1  0
 34 35  2  0
 35 36  1  0
 35 37  1  0
 37 38  1  0
 37 39  2  0
 39 40  1  0
 28 14  1  0
 39 31  1  0
M  END
>  <cnnaffinity>  (1) 
-4.97594

>  <filename>  (1) 
O=C(NNC(=O)N(O)c1cccnc1)NC1CCCCC1

$$$$
