
     RDKit          3D

 34 37  0  0  0  0  0  0  0  0999 V2000
    4.9399    1.8048   16.9776 H   0  0  0  0  0  0  0  0  0  0  0  0
    5.3969    1.2954   17.8251 C   0  0  0  0  0  0  0  0  0  0  0  0
    6.5572    0.6708   17.5700 N   0  0  0  0  0  0  0  0  0  0  0  0
    7.1513    0.0423   18.5872 C   0  0  0  0  0  0  0  0  0  0  0  0
    8.0981   -0.4400   18.3507 H   0  0  0  0  0  0  0  0  0  0  0  0
    6.6389    0.0152   19.8962 C   0  0  0  0  0  0  0  0  0  0  0  0
    7.4086   -0.6799   20.9260 C   0  0  0  0  0  0  0  0  0  0  0  0
    8.0546   -1.7811   20.6881 N   0  0  0  0  0  0  0  0  0  0  0  0
    8.5628   -2.1351   21.9045 N   0  0  0  0  0  0  0  0  0  0  0  0
    9.1565   -2.9283   22.0735 H   0  0  0  0  0  0  0  0  0  0  0  0
    8.3069   -1.2571   22.9024 C   0  0  0  0  0  0  0  0  0  0  0  0
    8.6897   -1.3441   24.0531 O   0  0  0  0  0  0  0  0  0  0  0  0
    7.5140   -0.2954   22.2557 N   0  0  0  0  0  0  0  0  0  0  0  0
    7.1282    0.9411   22.8545 C   0  0  0  0  0  0  0  0  0  0  0  0
    7.6471    2.1040   22.3302 C   0  0  0  0  0  0  0  0  0  0  0  0
    8.3209    2.0418   21.4756 H   0  0  0  0  0  0  0  0  0  0  0  0
    7.2936    3.3522   22.9011 C   0  0  0  0  0  0  0  0  0  0  0  0
    7.7246    4.2598   22.4860 H   0  0  0  0  0  0  0  0  0  0  0  0
    6.4148    3.4170   23.9590 C   0  0  0  0  0  0  0  0  0  0  0  0
    6.1460    4.3693   24.4088 H   0  0  0  0  0  0  0  0  0  0  0  0
    5.8389    2.2296   24.5109 C   0  0  0  0  0  0  0  0  0  0  0  0
    4.9060    2.2732   25.5998 C   0  0  0  0  0  0  0  0  0  0  0  0
    4.6719    3.2446   26.0280 H   0  0  0  0  0  0  0  0  0  0  0  0
    4.3394    1.1263   26.1041 C   0  0  0  0  0  0  0  0  0  0  0  0
    3.6229    1.1740   26.9251 H   0  0  0  0  0  0  0  0  0  0  0  0
    4.7063   -0.1370   25.5677 C   0  0  0  0  0  0  0  0  0  0  0  0
    4.2111   -1.0428   25.9115 H   0  0  0  0  0  0  0  0  0  0  0  0
    5.6562   -0.2146   24.5724 C   0  0  0  0  0  0  0  0  0  0  0  0
    5.9551   -1.1776   24.1641 H   0  0  0  0  0  0  0  0  0  0  0  0
    6.2178    0.9597   23.9741 C   0  0  0  0  0  0  0  0  0  0  0  0
    5.4165    0.6550   20.1467 C   0  0  0  0  0  0  0  0  0  0  0  0
    5.0065    0.6638   21.1617 H   0  0  0  0  0  0  0  0  0  0  0  0
    4.7904    1.3064   19.0871 C   0  0  0  0  0  0  0  0  0  0  0  0
    3.8634    1.8459   19.2296 H   0  0  0  0  0  0  0  0  0  0  0  0
  1  2  1  0
  2  3  2  0
  3  4  1  0
  4  5  1  0
  4  6  2  0
  6  7  1  0
  7  8  2  0
  8  9  1  0
  9 10  1  0
  9 11  1  0
 11 12  2  0
 11 13  1  0
 13 14  1  0
 14 15  2  0
 15 16  1  0
 15 17  1  0
 17 18  1  0
 17 19  2  0
 19 20  1  0
 19 21  1  0
 21 22  2  0
 22 23  1  0
 22 24  1  0
 24 25  1  0
 24 26  2  0
 26 27  1  0
 26 28  1  0
 28 29  1  0
 28 30  2  0
  6 31  1  0
 31 32  1  0
 31 33  2  0
 33 34  1  0
 33  2  1  0
 13  7  1  0
 30 14  1  0
 30 21  1  0
M  END
>  <cnnaffinity>  (1) 
-4.9352

>  <filename>  (1) 
O=c1[nH]nc(-c2cccnc2)n1-c1cccc2ccccc12

$$$$
