
     RDKit          3D

 38 40  0  0  0  0  0  0  0  0999 V2000
    5.0268    2.0635   16.8224 H   0  0  0  0  0  0  0  0  0  0  0  0
    5.4310    1.4666   17.6367 C   0  0  0  0  0  0  0  0  0  0  0  0
    6.6400    0.9180   17.4239 N   0  0  0  0  0  0  0  0  0  0  0  0
    7.1738    0.2098   18.4201 C   0  0  0  0  0  0  0  0  0  0  0  0
    8.1696   -0.1977   18.2692 H   0  0  0  0  0  0  0  0  0  0  0  0
    6.5191   -0.0472   19.6428 C   0  0  0  0  0  0  0  0  0  0  0  0
    7.2177   -0.7899   20.6462 N   0  0  0  0  0  0  0  0  0  0  0  0
    8.5734   -0.5141   20.6868 N   0  0  0  0  0  0  0  0  0  0  0  0
    9.2786   -1.0348   21.6597 C   0  0  0  0  0  0  0  0  0  0  0  0
   10.5961   -0.6528   21.6710 N   0  0  0  0  0  0  0  0  0  0  0  0
   10.6529    0.2214   21.1734 H   0  0  0  0  0  0  0  0  0  0  0  0
   11.5092   -0.8344   22.7826 C   0  0  0  0  0  0  0  0  0  0  0  0
   11.5401   -1.9145   22.9560 H   0  0  0  0  0  0  0  0  0  0  0  0
   12.9251   -0.4187   22.3584 C   0  0  0  0  0  0  0  0  0  0  0  0
   13.6304   -0.8497   23.0774 H   0  0  0  0  0  0  0  0  0  0  0  0
   13.1585   -0.8822   21.3935 H   0  0  0  0  0  0  0  0  0  0  0  0
   13.1521    1.1050   22.3310 C   0  0  0  0  0  0  0  0  0  0  0  0
   12.7590    1.5290   21.4035 H   0  0  0  0  0  0  0  0  0  0  0  0
   14.2336    1.2750   22.3219 H   0  0  0  0  0  0  0  0  0  0  0  0
   12.5050    1.8669   23.5156 C   0  0  0  0  0  0  0  0  0  0  0  0
   11.6148    2.4106   23.1626 H   0  0  0  0  0  0  0  0  0  0  0  0
   13.1947    2.6334   23.8864 H   0  0  0  0  0  0  0  0  0  0  0  0
   12.0695    0.9199   24.6397 C   0  0  0  0  0  0  0  0  0  0  0  0
   11.6036    1.4873   25.4515 H   0  0  0  0  0  0  0  0  0  0  0  0
   12.9443    0.3993   25.0614 H   0  0  0  0  0  0  0  0  0  0  0  0
   11.0565   -0.1061   24.0912 C   0  0  0  0  0  0  0  0  0  0  0  0
   10.8191   -0.8430   24.8661 H   0  0  0  0  0  0  0  0  0  0  0  0
   10.1145    0.4181   23.8742 H   0  0  0  0  0  0  0  0  0  0  0  0
    8.7186   -1.9308   22.6377 C   0  0  0  0  0  0  0  0  0  0  0  0
    9.3551   -2.2806   23.4465 H   0  0  0  0  0  0  0  0  0  0  0  0
    7.4139   -2.2914   22.5260 C   0  0  0  0  0  0  0  0  0  0  0  0
    6.9093   -2.9757   23.1950 H   0  0  0  0  0  0  0  0  0  0  0  0
    6.5626   -1.7901   21.4478 C   0  0  0  0  0  0  0  0  0  0  0  0
    5.4314   -2.1894   21.2428 O   0  0  0  0  0  0  0  0  0  0  0  0
    5.2391    0.4870   19.8375 C   0  0  0  0  0  0  0  0  0  0  0  0
    4.6819    0.2898   20.7508 H   0  0  0  0  0  0  0  0  0  0  0  0
    4.7064    1.2906   18.8202 C   0  0  0  0  0  0  0  0  0  0  0  0
    3.7445    1.7848   18.9300 H   0  0  0  0  0  0  0  0  0  0  0  0
  1  2  1  0
  2  3  2  0
  3  4  1  0
  4  5  1  0
  4  6  2  0
  6  7  1  0
  7  8  1  0
  8  9  2  0
  9 10  1  0
 10 11  1  0
 10 12  1  0
 12 13  1  0
 12 14  1  0
 14 15  1  0
 14 16  1  0
 14 17  1  0
 17 18  1  0
 17 19  1  0
 17 20  1  0
 20 21  1  0
 20 22  1  0
 20 23  1  0
 23 24  1  0
 23 25  1  0
 23 26  1  0
 26 27  1  0
 26 28  1  0
  9 29  1  0
 29 30  1  0
 29 31  2  0
 31 32  1  0
 31 33  1  0
 33 34  2  0
  6 35  1  0
 35 36  1  0
 35 37  2  0
 37 38  1  0
 37  2  1  0
 33  7  1  0
 26 12  1  0
M  END
>  <cnnaffinity>  (1) 
-4.65015

>  <filename>  (1) 
O=c1ccc(NC2CCCCC2)nn1-c1cccnc1

$$$$
