
     RDKit          3D

 34 36  0  0  0  0  0  0  0  0999 V2000
    5.2819   -0.4686   27.9702 H   0  0  0  0  0  0  0  0  0  0  0  0
    5.3939    0.3226   28.5086 O   0  0  0  0  0  0  0  0  0  0  0  0
    6.2718    1.1954   27.8076 C   0  0  0  0  0  0  0  0  0  0  0  0
    5.7201    1.8323   27.0957 H   0  0  0  0  0  0  0  0  0  0  0  0
    6.6942    1.8610   28.5701 H   0  0  0  0  0  0  0  0  0  0  0  0
    7.3881    0.4690   27.0846 C   0  0  0  0  0  0  0  0  0  0  0  0
    8.5626    0.1177   27.7685 C   0  0  0  0  0  0  0  0  0  0  0  0
    8.6297    0.2947   28.8407 H   0  0  0  0  0  0  0  0  0  0  0  0
    9.6487   -0.4298   27.0813 C   0  0  0  0  0  0  0  0  0  0  0  0
   10.5667   -0.6256   27.6175 H   0  0  0  0  0  0  0  0  0  0  0  0
    9.5598   -0.6886   25.7124 C   0  0  0  0  0  0  0  0  0  0  0  0
   10.4199   -1.0740   25.1707 H   0  0  0  0  0  0  0  0  0  0  0  0
    8.3667   -0.4208   25.0201 C   0  0  0  0  0  0  0  0  0  0  0  0
    8.2211   -0.8148   23.5864 C   0  0  0  0  0  0  0  0  0  0  0  0
    7.6291    0.4681   22.5337 S   0  0  0  0  0  0  0  0  0  0  0  0
    7.2627   -0.4009   21.0609 C   0  0  0  0  0  0  0  0  0  0  0  0
    6.5777    0.3480   19.9708 C   0  0  0  0  0  0  0  0  0  0  0  0
    7.1480    0.3419   18.6817 C   0  0  0  0  0  0  0  0  0  0  0  0
    8.1375   -0.0819   18.5080 H   0  0  0  0  0  0  0  0  0  0  0  0
    6.5584    0.8490   17.5958 N   0  0  0  0  0  0  0  0  0  0  0  0
    5.3419    1.3877   17.7557 C   0  0  0  0  0  0  0  0  0  0  0  0
    4.8972    1.8015   16.8538 H   0  0  0  0  0  0  0  0  0  0  0  0
    4.6843    1.4618   18.9875 C   0  0  0  0  0  0  0  0  0  0  0  0
    3.7161    1.9483   19.0451 H   0  0  0  0  0  0  0  0  0  0  0  0
    5.3195    0.9539   20.1241 C   0  0  0  0  0  0  0  0  0  0  0  0
    4.8644    1.0229   21.1131 H   0  0  0  0  0  0  0  0  0  0  0  0
    7.5731   -1.6961   20.8704 C   0  0  0  0  0  0  0  0  0  0  0  0
    7.3552   -2.1630   19.9219 H   0  0  0  0  0  0  0  0  0  0  0  0
    8.2105   -2.5966   21.8359 C   0  0  0  0  0  0  0  0  0  0  0  0
    8.4622   -3.7580   21.5467 O   0  0  0  0  0  0  0  0  0  0  0  0
    8.5140   -2.0619   23.1647 C   0  0  0  0  0  0  0  0  0  0  0  0
    8.9640   -2.7804   23.8478 H   0  0  0  0  0  0  0  0  0  0  0  0
    7.2926    0.1616   25.7176 C   0  0  0  0  0  0  0  0  0  0  0  0
    6.3808    0.3662   25.1591 H   0  0  0  0  0  0  0  0  0  0  0  0
  1  2  1  0
  2  3  1  0
  3  4  1  0
  3  5  1  0
  3  6  1  0
  6  7  2  0
  7  8  1  0
  7  9  1  0
  9 10  1  0
  9 11  2  0
 11 12  1  0
 11 13  1  0
 13 14  1  0
 14 15  1  0
 15 16  1  0
 16 17  1  0
 17 18  2  0
 18 19  1  0
 18 20  1  0
 20 21  2  0
 21 22  1  0
 21 23  1  0
 23 24  1  0
 23 25  2  0
 25 26  1  0
 16 27  2  0
 27 28  1  0
 27 29  1  0
 29 30  2  0
 29 31  1  0
 31 32  1  0
 13 33  2  0
 33 34  1  0
 33  6  1  0
 31 14  2  0
 25 17  1  0
M  END
>  <cnnaffinity>  (1) 
-5.24609

>  <filename>  (1) 
O=c1cc(-c2cccnc2)sc(-c2cccc(CO)c2)c1

$$$$
