
     RDKit          3D

 33 35  0  0  0  0  0  0  0  0999 V2000
    5.0091    1.8000   17.0420 H   0  0  0  0  0  0  0  0  0  0  0  0
    5.4425    1.2704   17.8888 C   0  0  0  0  0  0  0  0  0  0  0  0
    6.5950    0.6284   17.6488 N   0  0  0  0  0  0  0  0  0  0  0  0
    7.1574   -0.0286   18.6653 C   0  0  0  0  0  0  0  0  0  0  0  0
    8.0848   -0.5502   18.4209 H   0  0  0  0  0  0  0  0  0  0  0  0
    6.6120   -0.1018   19.9605 C   0  0  0  0  0  0  0  0  0  0  0  0
    7.3878   -0.8361   20.9851 C   0  0  0  0  0  0  0  0  0  0  0  0
    6.6385   -1.4804   21.9458 O   0  0  0  0  0  0  0  0  0  0  0  0
    7.2732   -2.1659   22.9455 C   0  0  0  0  0  0  0  0  0  0  0  0
    6.3430   -2.7953   23.9604 C   0  0  0  0  0  0  0  0  0  0  0  0
    5.6398   -2.0346   24.3052 H   0  0  0  0  0  0  0  0  0  0  0  0
    6.9435   -3.0658   24.8360 H   0  0  0  0  0  0  0  0  0  0  0  0
    5.5828   -4.0243   23.4794 C   0  0  0  0  0  0  0  0  0  0  0  0
    4.2014   -3.9492   23.2495 C   0  0  0  0  0  0  0  0  0  0  0  0
    3.6969   -3.0387   23.5601 H   0  0  0  0  0  0  0  0  0  0  0  0
    3.4929   -5.0093   22.6702 C   0  0  0  0  0  0  0  0  0  0  0  0
    2.4257   -4.9161   22.4715 H   0  0  0  0  0  0  0  0  0  0  0  0
    4.1645   -6.1867   22.3290 C   0  0  0  0  0  0  0  0  0  0  0  0
    3.6372   -6.9891   21.8188 H   0  0  0  0  0  0  0  0  0  0  0  0
    5.5231   -6.3321   22.6419 C   0  0  0  0  0  0  0  0  0  0  0  0
    6.0527   -7.2598   22.4290 H   0  0  0  0  0  0  0  0  0  0  0  0
    6.2090   -5.2606   23.2216 C   0  0  0  0  0  0  0  0  0  0  0  0
    7.8833   -5.5091   23.6431 Cl  0  0  0  0  0  0  0  0  0  0  0  0
    8.6139   -2.2084   23.0468 C   0  0  0  0  0  0  0  0  0  0  0  0
    9.1044   -2.7353   23.8507 H   0  0  0  0  0  0  0  0  0  0  0  0
    9.4658   -1.5438   22.0683 C   0  0  0  0  0  0  0  0  0  0  0  0
   10.6827   -1.5525   22.1395 O   0  0  0  0  0  0  0  0  0  0  0  0
    8.7344   -0.8563   21.0150 C   0  0  0  0  0  0  0  0  0  0  0  0
    9.3342   -0.3221   20.2965 H   0  0  0  0  0  0  0  0  0  0  0  0
    5.3999    0.5723   20.1952 C   0  0  0  0  0  0  0  0  0  0  0  0
    4.9476    0.5596   21.1860 H   0  0  0  0  0  0  0  0  0  0  0  0
    4.8163    1.2738   19.1392 C   0  0  0  0  0  0  0  0  0  0  0  0
    3.8892    1.8212   19.2600 H   0  0  0  0  0  0  0  0  0  0  0  0
  1  2  1  0
  2  3  2  0
  3  4  1  0
  4  5  1  0
  4  6  2  0
  6  7  1  0
  7  8  1  0
  8  9  1  0
  9 10  1  0
 10 11  1  0
 10 12  1  0
 10 13  1  0
 13 14  2  0
 14 15  1  0
 14 16  1  0
 16 17  1  0
 16 18  2  0
 18 19  1  0
 18 20  1  0
 20 21  1  0
 20 22  2  0
 22 23  1  0
  9 24  2  0
 24 25  1  0
 24 26  1  0
 26 27  2  0
 26 28  1  0
 28 29  1  0
  6 30  1  0
 30 31  1  0
 30 32  2  0
 32 33  1  0
 32  2  1  0
 28  7  2  0
 22 13  1  0
M  END
>  <cnnaffinity>  (1) 
-5.53928

>  <filename>  (1) 
O=c1cc(Cc2ccccc2Cl)oc(-c2cccnc2)c1

$$$$
