
     RDKit          3D

 36 38  0  0  0  0  0  0  0  0999 V2000
    6.6962   -3.4429   22.7302 H   0  0  0  0  0  0  0  0  0  0  0  0
    7.2830   -2.6164   22.3482 C   0  0  0  0  0  0  0  0  0  0  0  0
    8.4817   -2.2606   22.8274 C   0  0  0  0  0  0  0  0  0  0  0  0
    9.1593   -2.9712   23.9806 C   0  0  0  0  0  0  0  0  0  0  0  0
    8.8093   -4.0056   24.0770 H   0  0  0  0  0  0  0  0  0  0  0  0
   10.2360   -3.0190   23.7778 H   0  0  0  0  0  0  0  0  0  0  0  0
    8.9399   -2.1794   25.2620 C   0  0  0  0  0  0  0  0  0  0  0  0
    9.8126   -1.1236   25.5673 C   0  0  0  0  0  0  0  0  0  0  0  0
   10.6819   -0.9779   24.9315 H   0  0  0  0  0  0  0  0  0  0  0  0
    9.5864   -0.2668   26.6420 C   0  0  0  0  0  0  0  0  0  0  0  0
   10.3167    0.5048   26.8546 H   0  0  0  0  0  0  0  0  0  0  0  0
    8.4300   -0.4126   27.4115 C   0  0  0  0  0  0  0  0  0  0  0  0
    8.2120    0.2960   28.2067 H   0  0  0  0  0  0  0  0  0  0  0  0
    7.5444   -1.4614   27.1498 C   0  0  0  0  0  0  0  0  0  0  0  0
    6.6489   -1.6034   27.7504 H   0  0  0  0  0  0  0  0  0  0  0  0
    7.8165   -2.3385   26.0902 C   0  0  0  0  0  0  0  0  0  0  0  0
    6.6827   -3.6378   25.8049 Cl  0  0  0  0  0  0  0  0  0  0  0  0
    9.0766   -0.9456   22.3749 C   0  0  0  0  0  0  0  0  0  0  0  0
    8.6764   -0.1409   23.0131 H   0  0  0  0  0  0  0  0  0  0  0  0
   10.1628   -0.9433   22.5019 H   0  0  0  0  0  0  0  0  0  0  0  0
    8.7207   -0.6449   20.9186 C   0  0  0  0  0  0  0  0  0  0  0  0
    8.9881    0.3909   20.6821 H   0  0  0  0  0  0  0  0  0  0  0  0
    9.2837   -1.3016   20.2336 H   0  0  0  0  0  0  0  0  0  0  0  0
    7.2758   -0.7950   20.7062 N   0  0  0  0  0  0  0  0  0  0  0  0
    6.6493   -0.0037   19.6909 C   0  0  0  0  0  0  0  0  0  0  0  0
    7.2156    0.1647   18.4075 C   0  0  0  0  0  0  0  0  0  0  0  0
    8.1713   -0.3051   18.1813 H   0  0  0  0  0  0  0  0  0  0  0  0
    6.6413    0.8520   17.4111 N   0  0  0  0  0  0  0  0  0  0  0  0
    5.4647    1.4446   17.6704 C   0  0  0  0  0  0  0  0  0  0  0  0
    5.0082    1.9882   16.8459 H   0  0  0  0  0  0  0  0  0  0  0  0
    4.8293    1.3678   18.9150 C   0  0  0  0  0  0  0  0  0  0  0  0
    3.8824    1.8747   19.0658 H   0  0  0  0  0  0  0  0  0  0  0  0
    5.4236    0.6279   19.9433 C   0  0  0  0  0  0  0  0  0  0  0  0
    4.9561    0.5267   20.9215 H   0  0  0  0  0  0  0  0  0  0  0  0
    6.5755   -1.8692   21.2874 C   0  0  0  0  0  0  0  0  0  0  0  0
    5.4644   -2.2075   20.9350 O   0  0  0  0  0  0  0  0  0  0  0  0
  1  2  1  0
  2  3  2  0
  3  4  1  0
  4  5  1  0
  4  6  1  0
  4  7  1  0
  7  8  2  0
  8  9  1  0
  8 10  1  0
 10 11  1  0
 10 12  2  0
 12 13  1  0
 12 14  1  0
 14 15  1  0
 14 16  2  0
 16 17  1  0
  3 18  1  0
 18 19  1  0
 18 20  1  0
 18 21  1  0
 21 22  1  0
 21 23  1  0
 21 24  1  0
 24 25  1  0
 25 26  2  0
 26 27  1  0
 26 28  1  0
 28 29  2  0
 29 30  1  0
 29 31  1  0
 31 32  1  0
 31 33  2  0
 33 34  1  0
 24 35  1  0
 35 36  2  0
 35  2  1  0
 16  7  1  0
 33 25  1  0
M  END
>  <cnnaffinity>  (1) 
-5.3908

>  <filename>  (1) 
O=C1C=C(Cc2ccccc2Cl)CCN1c1cccnc1

$$$$
