
     RDKit          3D

 30 32  0  0  0  0  0  0  0  0999 V2000
    6.4032    0.1169   24.8998 O   0  0  0  0  0  0  0  0  0  0  0  0
    6.6385    1.0509   24.1513 C   0  0  0  0  0  0  0  0  0  0  0  0
    6.3155    2.3315   24.6034 N   0  0  0  0  0  0  0  0  0  0  0  0
    6.4859    3.5158   24.0205 N   0  0  0  0  0  0  0  0  0  0  0  0
    7.0289    3.5250   22.8312 C   0  0  0  0  0  0  0  0  0  0  0  0
    7.2405    4.9086   22.2065 C   0  0  0  0  0  0  0  0  0  0  0  0
    6.4853    5.0641   21.1008 F   0  0  0  0  0  0  0  0  0  0  0  0
    6.9638    5.9158   23.0407 F   0  0  0  0  0  0  0  0  0  0  0  0
    8.5127    5.0754   21.7994 F   0  0  0  0  0  0  0  0  0  0  0  0
    7.4295    2.3076   22.1713 C   0  0  0  0  0  0  0  0  0  0  0  0
    7.2199    1.0760   22.7913 C   0  0  0  0  0  0  0  0  0  0  0  0
    7.5870   -0.2303   22.2286 C   0  0  0  0  0  0  0  0  0  0  0  0
    8.2142   -1.2949   22.8493 C   0  0  0  0  0  0  0  0  0  0  0  0
    8.4088   -2.2497   21.8406 C   0  0  0  0  0  0  0  0  0  0  0  0
    7.9252   -1.8431   20.6769 N   0  0  0  0  0  0  0  0  0  0  0  0
    7.4029   -0.6272   20.9185 N   0  0  0  0  0  0  0  0  0  0  0  0
    6.6680    0.0135   19.9031 C   0  0  0  0  0  0  0  0  0  0  0  0
    5.4440    0.6440   20.1534 C   0  0  0  0  0  0  0  0  0  0  0  0
    4.8258    1.2969   19.0899 C   0  0  0  0  0  0  0  0  0  0  0  0
    5.4386    1.2859   17.8327 C   0  0  0  0  0  0  0  0  0  0  0  0
    6.5898    0.6371   17.5831 N   0  0  0  0  0  0  0  0  0  0  0  0
    7.1808    0.0041   18.5943 C   0  0  0  0  0  0  0  0  0  0  0  0
    8.1090   -0.5252   18.3851 H   0  0  0  0  0  0  0  0  0  0  0  0
    4.9901    1.8170   16.9972 H   0  0  0  0  0  0  0  0  0  0  0  0
    3.8915    1.8279   19.2310 H   0  0  0  0  0  0  0  0  0  0  0  0
    5.0107    0.6385   21.1553 H   0  0  0  0  0  0  0  0  0  0  0  0
    8.8635   -3.2314   21.9034 H   0  0  0  0  0  0  0  0  0  0  0  0
    8.4671   -1.3604   23.8974 H   0  0  0  0  0  0  0  0  0  0  0  0
    7.8647    2.3326   21.1784 H   0  0  0  0  0  0  0  0  0  0  0  0
    5.9293    2.3149   25.5389 H   0  0  0  0  0  0  0  0  0  0  0  0
  1  2  2  0
  2  3  1  0
  3  4  1  0
  4  5  2  0
  5  6  1  0
  6  7  1  0
  6  8  1  0
  6  9  1  0
  5 10  1  0
 10 11  2  0
 11 12  1  0
 12 13  2  0
 13 14  1  0
 14 15  2  0
 15 16  1  0
 16 17  1  0
 17 18  2  0
 18 19  1  0
 19 20  2  0
 20 21  1  0
 21 22  2  0
 22 23  1  0
 20 24  1  0
 19 25  1  0
 18 26  1  0
 14 27  1  0
 13 28  1  0
 10 29  1  0
  3 30  1  0
 11  2  1  0
 16 12  1  0
 22 17  1  0
M  END
>  <cnnaffinity>  (1) 
-5.34536

>  <filename>  (1) 
O=c1[nH]nc(C(F)(F)F)cc1-c1ccnn1-c1cccnc1

$$$$
