
     RDKit          3D

 31 33  0  0  0  0  0  0  0  0999 V2000
    4.9590    1.7906   16.9962 H   0  0  0  0  0  0  0  0  0  0  0  0
    5.4025    1.2885   17.8562 C   0  0  0  0  0  0  0  0  0  0  0  0
    6.5628    0.6620   17.6191 N   0  0  0  0  0  0  0  0  0  0  0  0
    7.1458    0.0291   18.6417 C   0  0  0  0  0  0  0  0  0  0  0  0
    8.0969   -0.4384   18.3857 H   0  0  0  0  0  0  0  0  0  0  0  0
    6.6096   -0.0452   19.9427 C   0  0  0  0  0  0  0  0  0  0  0  0
    7.3734   -0.7350   21.0067 C   0  0  0  0  0  0  0  0  0  0  0  0
    6.6146   -1.2700   22.0218 O   0  0  0  0  0  0  0  0  0  0  0  0
    7.2009   -1.9852   23.0066 C   0  0  0  0  0  0  0  0  0  0  0  0
    6.2603   -2.5073   23.7989 O   0  0  0  0  0  0  0  0  0  0  0  0
    6.5193   -3.6162   24.6025 C   0  0  0  0  0  0  0  0  0  0  0  0
    7.2707   -4.6900   24.1146 C   0  0  0  0  0  0  0  0  0  0  0  0
    7.6815   -4.6455   23.1149 H   0  0  0  0  0  0  0  0  0  0  0  0
    7.4966   -5.7990   24.9248 C   0  0  0  0  0  0  0  0  0  0  0  0
    8.1646   -6.5719   24.5557 H   0  0  0  0  0  0  0  0  0  0  0  0
    6.9147   -5.8844   26.1906 C   0  0  0  0  0  0  0  0  0  0  0  0
    7.0397   -6.7505   26.8272 H   0  0  0  0  0  0  0  0  0  0  0  0
    6.1531   -4.8088   26.6545 C   0  0  0  0  0  0  0  0  0  0  0  0
    5.4467   -4.9139   28.2416 Cl  0  0  0  0  0  0  0  0  0  0  0  0
    5.9497   -3.6620   25.8789 C   0  0  0  0  0  0  0  0  0  0  0  0
    5.3466   -2.8448   26.2612 H   0  0  0  0  0  0  0  0  0  0  0  0
    8.5409   -2.0752   23.1532 C   0  0  0  0  0  0  0  0  0  0  0  0
    9.0126   -2.5972   23.9714 H   0  0  0  0  0  0  0  0  0  0  0  0
    9.4096   -1.4799   22.1553 C   0  0  0  0  0  0  0  0  0  0  0  0
   10.6280   -1.5373   22.2162 O   0  0  0  0  0  0  0  0  0  0  0  0
    8.7160   -0.8091   21.0523 C   0  0  0  0  0  0  0  0  0  0  0  0
    9.3231   -0.3200   20.3123 H   0  0  0  0  0  0  0  0  0  0  0  0
    5.3952    0.6261   20.1737 C   0  0  0  0  0  0  0  0  0  0  0  0
    4.9605    0.6356   21.1726 H   0  0  0  0  0  0  0  0  0  0  0  0
    4.7897    1.3030   19.1136 C   0  0  0  0  0  0  0  0  0  0  0  0
    3.8663    1.8563   19.2331 H   0  0  0  0  0  0  0  0  0  0  0  0
  1  2  1  0
  2  3  2  0
  3  4  1  0
  4  5  1  0
  4  6  2  0
  6  7  1  0
  7  8  1  0
  8  9  1  0
  9 10  1  0
 10 11  1  0
 11 12  2  0
 12 13  1  0
 12 14  1  0
 14 15  1  0
 14 16  2  0
 16 17  1  0
 16 18  1  0
 18 19  1  0
 18 20  2  0
 20 21  1  0
  9 22  2  0
 22 23  1  0
 22 24  1  0
 24 25  2  0
 24 26  1  0
 26 27  1  0
  6 28  1  0
 28 29  1  0
 28 30  2  0
 30 31  1  0
 30  2  1  0
 26  7  2  0
 20 11  1  0
M  END
>  <cnnaffinity>  (1) 
-5.17807

>  <filename>  (1) 
O=c1cc(Oc2cccc(Cl)c2)oc(-c2cccnc2)c1

$$$$
