
     RDKit          3D

 36 39  0  0  0  0  0  0  0  0999 V2000
    4.9554    1.8074   16.9571 H   0  0  0  0  0  0  0  0  0  0  0  0
    5.4391    1.3209   17.8033 C   0  0  0  0  0  0  0  0  0  0  0  0
    6.6227    0.7421   17.5480 N   0  0  0  0  0  0  0  0  0  0  0  0
    7.2293    0.1189   18.5625 C   0  0  0  0  0  0  0  0  0  0  0  0
    8.2039   -0.3147   18.3472 H   0  0  0  0  0  0  0  0  0  0  0  0
    6.6685   -0.0211   19.8489 C   0  0  0  0  0  0  0  0  0  0  0  0
    7.4107   -0.8026   20.8634 C   0  0  0  0  0  0  0  0  0  0  0  0
    8.7047   -0.5617   20.9638 N   0  0  0  0  0  0  0  0  0  0  0  0
    9.4203   -1.1166   22.0100 C   0  0  0  0  0  0  0  0  0  0  0  0
   10.8969   -0.8719   22.1095 C   0  0  0  0  0  0  0  0  0  0  0  0
   11.7502   -1.9647   22.0705 C   0  0  0  0  0  0  0  0  0  0  0  0
   11.3266   -2.9634   22.0451 H   0  0  0  0  0  0  0  0  0  0  0  0
   13.1608   -1.8155   22.0573 C   0  0  0  0  0  0  0  0  0  0  0  0
   13.7912   -2.6917   21.9034 H   0  0  0  0  0  0  0  0  0  0  0  0
   13.7170   -0.5766   22.2702 C   0  0  0  0  0  0  0  0  0  0  0  0
   14.7931   -0.4490   22.3415 H   0  0  0  0  0  0  0  0  0  0  0  0
   12.8855    0.5776   22.3940 C   0  0  0  0  0  0  0  0  0  0  0  0
   13.4566    1.8721   22.5884 C   0  0  0  0  0  0  0  0  0  0  0  0
   14.5370    1.9432   22.7068 H   0  0  0  0  0  0  0  0  0  0  0  0
   12.6869    3.0043   22.4868 C   0  0  0  0  0  0  0  0  0  0  0  0
   13.1534    3.9862   22.5491 H   0  0  0  0  0  0  0  0  0  0  0  0
   11.2935    2.8945   22.2401 C   0  0  0  0  0  0  0  0  0  0  0  0
   10.6963    3.7935   22.1149 H   0  0  0  0  0  0  0  0  0  0  0  0
   10.6930    1.6590   22.1420 C   0  0  0  0  0  0  0  0  0  0  0  0
    9.6209    1.5743   21.9820 H   0  0  0  0  0  0  0  0  0  0  0  0
   11.4622    0.4501   22.2341 C   0  0  0  0  0  0  0  0  0  0  0  0
    8.8209   -1.9279   22.9404 C   0  0  0  0  0  0  0  0  0  0  0  0
    9.3792   -2.3704   23.7578 H   0  0  0  0  0  0  0  0  0  0  0  0
    7.4824   -2.2178   22.8289 N   0  0  0  0  0  0  0  0  0  0  0  0
    6.9744   -2.8718   23.4151 H   0  0  0  0  0  0  0  0  0  0  0  0
    6.7053   -1.8322   21.7375 C   0  0  0  0  0  0  0  0  0  0  0  0
    5.6164   -2.3636   21.6037 O   0  0  0  0  0  0  0  0  0  0  0  0
    5.4467    0.6225   20.1108 C   0  0  0  0  0  0  0  0  0  0  0  0
    5.0037    0.6126   21.1097 H   0  0  0  0  0  0  0  0  0  0  0  0
    4.8289    1.3065   19.0609 C   0  0  0  0  0  0  0  0  0  0  0  0
    3.8924    1.8341   19.2001 H   0  0  0  0  0  0  0  0  0  0  0  0
  1  2  1  0
  2  3  2  0
  3  4  1  0
  4  5  1  0
  4  6  2  0
  6  7  1  0
  7  8  2  0
  8  9  1  0
  9 10  1  0
 10 11  2  0
 11 12  1  0
 11 13  1  0
 13 14  1  0
 13 15  2  0
 15 16  1  0
 15 17  1  0
 17 18  2  0
 18 19  1  0
 18 20  1  0
 20 21  1  0
 20 22  2  0
 22 23  1  0
 22 24  1  0
 24 25  1  0
 24 26  2  0
  9 27  2  0
 27 28  1  0
 27 29  1  0
 29 30  1  0
 29 31  1  0
 31 32  2  0
  6 33  1  0
 33 34  1  0
 33 35  2  0
 35 36  1  0
 35  2  1  0
 31  7  1  0
 26 10  1  0
 26 17  1  0
M  END
>  <cnnaffinity>  (1) 
-6.10848

>  <filename>  (1) 
O=c1[nH]cc(-c2cccc3ccccc23)nc1-c1cccnc1

$$$$
