
     RDKit          3D

 36 38  0  0  0  0  0  0  0  0999 V2000
    5.4383   -2.0904   21.1142 O   0  0  0  0  0  0  0  0  0  0  0  0
    6.4803   -1.5437   21.4148 C   0  0  0  0  0  0  0  0  0  0  0  0
    7.2302   -1.9988   22.6996 C   0  0  0  0  0  0  0  0  0  0  0  0
    8.6929   -1.7671   22.7676 N   0  0  0  0  0  0  0  0  0  0  0  0
    9.4716   -2.6167   23.5295 C   0  0  0  0  0  0  0  0  0  0  0  0
    8.9258   -3.3385   24.6269 C   0  0  0  0  0  0  0  0  0  0  0  0
    9.7122   -4.2829   25.2918 C   0  0  0  0  0  0  0  0  0  0  0  0
    9.1828   -5.1638   26.4259 C   0  0  0  0  0  0  0  0  0  0  0  0
    7.8498   -5.0731   26.5592 F   0  0  0  0  0  0  0  0  0  0  0  0
    9.7376   -4.8316   27.6071 F   0  0  0  0  0  0  0  0  0  0  0  0
    9.4757   -6.4576   26.2017 F   0  0  0  0  0  0  0  0  0  0  0  0
   11.0477   -4.4091   24.8691 C   0  0  0  0  0  0  0  0  0  0  0  0
   11.4845   -3.6290   23.8117 C   0  0  0  0  0  0  0  0  0  0  0  0
   10.7449   -2.7402   23.1603 N   0  0  0  0  0  0  0  0  0  0  0  0
   12.4943   -3.7297   23.4441 H   0  0  0  0  0  0  0  0  0  0  0  0
   11.7570   -5.0754   25.3419 H   0  0  0  0  0  0  0  0  0  0  0  0
    7.9172   -3.1090   24.9391 H   0  0  0  0  0  0  0  0  0  0  0  0
    9.2949   -1.1051   21.5900 C   0  0  0  0  0  0  0  0  0  0  0  0
    8.3701    0.0126   21.1213 C   0  0  0  0  0  0  0  0  0  0  0  0
    7.0837   -0.5414   20.6620 N   0  0  0  0  0  0  0  0  0  0  0  0
    6.4010    0.0939   19.5653 C   0  0  0  0  0  0  0  0  0  0  0  0
    5.1676    0.7301   19.7548 C   0  0  0  0  0  0  0  0  0  0  0  0
    4.6317    1.4827   18.7008 C   0  0  0  0  0  0  0  0  0  0  0  0
    5.3177    1.5349   17.4819 C   0  0  0  0  0  0  0  0  0  0  0  0
    6.4628    0.8681   17.2572 N   0  0  0  0  0  0  0  0  0  0  0  0
    6.9869    0.1807   18.2812 C   0  0  0  0  0  0  0  0  0  0  0  0
    7.9154   -0.3535   18.0838 H   0  0  0  0  0  0  0  0  0  0  0  0
    4.9342    2.1318   16.6547 H   0  0  0  0  0  0  0  0  0  0  0  0
    3.7106    2.0448   18.8203 H   0  0  0  0  0  0  0  0  0  0  0  0
    4.6564    0.6407   20.7121 H   0  0  0  0  0  0  0  0  0  0  0  0
    8.2208    0.7068   21.9603 H   0  0  0  0  0  0  0  0  0  0  0  0
    8.8233    0.5760   20.2999 H   0  0  0  0  0  0  0  0  0  0  0  0
   10.2783   -0.7084   21.8557 H   0  0  0  0  0  0  0  0  0  0  0  0
    9.4494   -1.8323   20.7804 H   0  0  0  0  0  0  0  0  0  0  0  0
    6.7207   -1.5155   23.5472 H   0  0  0  0  0  0  0  0  0  0  0  0
    6.9968   -3.0677   22.7706 H   0  0  0  0  0  0  0  0  0  0  0  0
  1  2  2  0
  2  3  1  0
  3  4  1  0
  4  5  1  0
  5  6  2  0
  6  7  1  0
  7  8  1  0
  8  9  1  0
  8 10  1  0
  8 11  1  0
  7 12  2  0
 12 13  1  0
 13 14  2  0
 13 15  1  0
 12 16  1  0
  6 17  1  0
  4 18  1  0
 18 19  1  0
 19 20  1  0
 20 21  1  0
 21 22  2  0
 22 23  1  0
 23 24  2  0
 24 25  1  0
 25 26  2  0
 26 27  1  0
 24 28  1  0
 23 29  1  0
 22 30  1  0
 19 31  1  0
 19 32  1  0
 18 33  1  0
 18 34  1  0
  3 35  1  0
  3 36  1  0
 20  2  1  0
 26 21  1  0
 14  5  1  0
M  END
>  <cnnaffinity>  (1) 
-5.3471

>  <filename>  (1) 
O=C1CN(c2cc(C(F)(F)F)ccn2)CCN1c1cccnc1

$$$$
