
     RDKit          3D

 34 36  0  0  0  0  0  0  0  0999 V2000
    7.8556   -4.3629   20.6401 H   0  0  0  0  0  0  0  0  0  0  0  0
    7.8618   -4.1269   21.6974 C   0  0  0  0  0  0  0  0  0  0  0  0
    7.8946   -5.1484   22.5697 C   0  0  0  0  0  0  0  0  0  0  0  0
    8.2760   -6.1015   22.1978 H   0  0  0  0  0  0  0  0  0  0  0  0
    7.4486   -5.1952   23.9858 C   0  0  0  0  0  0  0  0  0  0  0  0
    6.2320   -4.6369   24.4225 C   0  0  0  0  0  0  0  0  0  0  0  0
    5.5900   -4.1264   23.7085 H   0  0  0  0  0  0  0  0  0  0  0  0
    5.8258   -4.7613   25.7583 C   0  0  0  0  0  0  0  0  0  0  0  0
    4.8781   -4.3333   26.0855 H   0  0  0  0  0  0  0  0  0  0  0  0
    6.6350   -5.4414   26.6760 C   0  0  0  0  0  0  0  0  0  0  0  0
    6.3353   -5.5109   27.7204 H   0  0  0  0  0  0  0  0  0  0  0  0
    7.8344   -6.0293   26.2514 C   0  0  0  0  0  0  0  0  0  0  0  0
    8.4472   -6.5889   26.9587 H   0  0  0  0  0  0  0  0  0  0  0  0
    8.2333   -5.9048   24.9175 C   0  0  0  0  0  0  0  0  0  0  0  0
    9.1653   -6.3583   24.5880 H   0  0  0  0  0  0  0  0  0  0  0  0
    7.7985   -2.6764   21.9638 C   0  0  0  0  0  0  0  0  0  0  0  0
    7.3694   -1.9696   20.9468 N   0  0  0  0  0  0  0  0  0  0  0  0
    7.1766   -0.6282   21.1210 N   0  0  0  0  0  0  0  0  0  0  0  0
    6.6121    0.0331   19.9857 C   0  0  0  0  0  0  0  0  0  0  0  0
    7.1188   -0.2192   18.6980 C   0  0  0  0  0  0  0  0  0  0  0  0
    7.9970   -0.8523   18.5794 H   0  0  0  0  0  0  0  0  0  0  0  0
    6.5990    0.3224   17.5916 N   0  0  0  0  0  0  0  0  0  0  0  0
    5.5445    1.1461   17.7387 C   0  0  0  0  0  0  0  0  0  0  0  0
    5.1478    1.5861   16.8248 H   0  0  0  0  0  0  0  0  0  0  0  0
    4.9795    1.4595   18.9787 C   0  0  0  0  0  0  0  0  0  0  0  0
    4.1500    2.1591   19.0378 H   0  0  0  0  0  0  0  0  0  0  0  0
    5.5250    0.8939   20.1354 C   0  0  0  0  0  0  0  0  0  0  0  0
    5.1293    1.1030   21.1272 H   0  0  0  0  0  0  0  0  0  0  0  0
    7.5029    0.1114   22.3180 C   0  0  0  0  0  0  0  0  0  0  0  0
    7.3222    1.3112   22.4303 O   0  0  0  0  0  0  0  0  0  0  0  0
    8.0968   -0.7259   23.3515 C   0  0  0  0  0  0  0  0  0  0  0  0
    8.3675   -0.1756   24.2446 H   0  0  0  0  0  0  0  0  0  0  0  0
    8.2384   -2.0715   23.1906 C   0  0  0  0  0  0  0  0  0  0  0  0
    8.6951   -2.7118   23.9431 H   0  0  0  0  0  0  0  0  0  0  0  0
  1  2  1  0
  2  3  2  3
  3  4  1  0
  3  5  1  0
  5  6  2  0
  6  7  1  0
  6  8  1  0
  8  9  1  0
  8 10  2  0
 10 11  1  0
 10 12  1  0
 12 13  1  0
 12 14  2  0
 14 15  1  0
  2 16  1  0
 16 17  2  0
 17 18  1  0
 18 19  1  0
 19 20  2  0
 20 21  1  0
 20 22  1  0
 22 23  2  0
 23 24  1  0
 23 25  1  0
 25 26  1  0
 25 27  2  0
 27 28  1  0
 18 29  1  0
 29 30  2  0
 29 31  1  0
 31 32  1  0
 31 33  2  0
 33 34  1  0
 14  5  1  0
 33 16  1  0
 27 19  1  0
M  END
>  <cnnaffinity>  (1) 
-5.28005

>  <filename>  (1) 
O=c1ccc(C=Cc2ccccc2)nn1-c1cccnc1

$$$$
