
     RDKit          3D

 38 41  0  0  0  0  0  0  0  0999 V2000
   10.0832   -0.8015   21.8588 H   0  0  0  0  0  0  0  0  0  0  0  0
    9.0192   -0.9616   21.7297 C   0  0  0  0  0  0  0  0  0  0  0  0
    8.2467   -1.7377   22.5306 C   0  0  0  0  0  0  0  0  0  0  0  0
    8.7661   -2.6337   23.6319 C   0  0  0  0  0  0  0  0  0  0  0  0
    7.9052   -3.0914   24.5267 N   0  0  0  0  0  0  0  0  0  0  0  0
    8.3686   -3.8619   25.5580 C   0  0  0  0  0  0  0  0  0  0  0  0
    7.4175   -4.3176   26.5196 C   0  0  0  0  0  0  0  0  0  0  0  0
    6.3844   -4.0303   26.3489 H   0  0  0  0  0  0  0  0  0  0  0  0
    7.8199   -5.0756   27.5953 C   0  0  0  0  0  0  0  0  0  0  0  0
    7.1061   -5.4282   28.3372 H   0  0  0  0  0  0  0  0  0  0  0  0
    9.1979   -5.3861   27.7725 C   0  0  0  0  0  0  0  0  0  0  0  0
    9.4846   -5.9218   28.6730 H   0  0  0  0  0  0  0  0  0  0  0  0
   10.1374   -4.9779   26.8558 C   0  0  0  0  0  0  0  0  0  0  0  0
   11.1894   -5.2077   26.9955 H   0  0  0  0  0  0  0  0  0  0  0  0
    9.7458   -4.2239   25.7077 C   0  0  0  0  0  0  0  0  0  0  0  0
   10.6339   -3.7827   24.6805 C   0  0  0  0  0  0  0  0  0  0  0  0
   11.6794   -4.0805   24.7138 H   0  0  0  0  0  0  0  0  0  0  0  0
   10.1531   -2.9984   23.6609 C   0  0  0  0  0  0  0  0  0  0  0  0
   10.8164   -2.6243   22.8924 H   0  0  0  0  0  0  0  0  0  0  0  0
    6.7460   -1.6350   22.3099 C   0  0  0  0  0  0  0  0  0  0  0  0
    6.3944   -0.7100   22.7918 H   0  0  0  0  0  0  0  0  0  0  0  0
    6.2285   -2.4774   22.7760 H   0  0  0  0  0  0  0  0  0  0  0  0
    6.4492   -1.5473   20.8125 C   0  0  0  0  0  0  0  0  0  0  0  0
    5.3790   -1.4138   20.6324 H   0  0  0  0  0  0  0  0  0  0  0  0
    6.7416   -2.4862   20.3163 H   0  0  0  0  0  0  0  0  0  0  0  0
    7.1741   -0.4171   20.2247 N   0  0  0  0  0  0  0  0  0  0  0  0
    6.5488    0.3447   19.1876 C   0  0  0  0  0  0  0  0  0  0  0  0
    7.0713    0.4271   17.8798 C   0  0  0  0  0  0  0  0  0  0  0  0
    7.9969   -0.0927   17.6403 H   0  0  0  0  0  0  0  0  0  0  0  0
    6.4941    1.1213   16.8910 N   0  0  0  0  0  0  0  0  0  0  0  0
    5.3702    1.8005   17.1775 C   0  0  0  0  0  0  0  0  0  0  0  0
    4.9268    2.3614   16.3579 H   0  0  0  0  0  0  0  0  0  0  0  0
    4.7704    1.7935   18.4415 C   0  0  0  0  0  0  0  0  0  0  0  0
    3.8614    2.3605   18.6141 H   0  0  0  0  0  0  0  0  0  0  0  0
    5.3678    1.0433   19.4596 C   0  0  0  0  0  0  0  0  0  0  0  0
    4.9666    1.0067   20.4718 H   0  0  0  0  0  0  0  0  0  0  0  0
    8.4914   -0.1340   20.6164 C   0  0  0  0  0  0  0  0  0  0  0  0
    9.1715    0.7305   20.0861 O   0  0  0  0  0  0  0  0  0  0  0  0
  1  2  1  0
  2  3  2  0
  3  4  1  0
  4  5  2  0
  5  6  1  0
  6  7  2  0
  7  8  1  0
  7  9  1  0
  9 10  1  0
  9 11  2  0
 11 12  1  0
 11 13  1  0
 13 14  1  0
 13 15  2  0
 15 16  1  0
 16 17  1  0
 16 18  2  0
 18 19  1  0
  3 20  1  0
 20 21  1  0
 20 22  1  0
 20 23  1  0
 23 24  1  0
 23 25  1  0
 23 26  1  0
 26 27  1  0
 27 28  2  0
 28 29  1  0
 28 30  1  0
 30 31  2  0
 31 32  1  0
 31 33  1  0
 33 34  1  0
 33 35  2  0
 35 36  1  0
 26 37  1  0
 37 38  2  0
 37  2  1  0
 18  4  1  0
 35 27  1  0
 15  6  1  0
M  END
>  <cnnaffinity>  (1) 
-5.60345

>  <filename>  (1) 
O=C1C=C(c2ccc3ccccc3n2)CCN1c1cccnc1

$$$$
