
     RDKit          3D

 30 32  0  0  0  0  0  0  0  0999 V2000
   10.1612   -4.6155   23.8868 H   0  0  0  0  0  0  0  0  0  0  0  0
    9.6490   -3.8911   23.5156 O   0  0  0  0  0  0  0  0  0  0  0  0
    8.5569   -3.7285   24.3109 C   0  0  0  0  0  0  0  0  0  0  0  0
    8.3752   -4.5056   25.4618 C   0  0  0  0  0  0  0  0  0  0  0  0
    9.1180   -5.2547   25.7441 H   0  0  0  0  0  0  0  0  0  0  0  0
    7.2422   -4.3079   26.2585 C   0  0  0  0  0  0  0  0  0  0  0  0
    7.0947   -4.8978   27.1601 H   0  0  0  0  0  0  0  0  0  0  0  0
    6.2898   -3.3460   25.9026 C   0  0  0  0  0  0  0  0  0  0  0  0
    5.4020   -3.1821   26.5071 H   0  0  0  0  0  0  0  0  0  0  0  0
    6.4811   -2.5868   24.7520 C   0  0  0  0  0  0  0  0  0  0  0  0
    5.7639   -1.8258   24.4606 H   0  0  0  0  0  0  0  0  0  0  0  0
    7.6103   -2.7523   23.9358 C   0  0  0  0  0  0  0  0  0  0  0  0
    7.7376   -1.9242   22.7359 C   0  0  0  0  0  0  0  0  0  0  0  0
    6.7697   -1.4282   21.9316 C   0  0  0  0  0  0  0  0  0  0  0  0
    5.7055   -1.5998   21.9610 H   0  0  0  0  0  0  0  0  0  0  0  0
    7.3620   -0.6611   20.9369 N   0  0  0  0  0  0  0  0  0  0  0  0
    6.6654    0.0079   19.8953 C   0  0  0  0  0  0  0  0  0  0  0  0
    7.1721    0.0531   18.5793 C   0  0  0  0  0  0  0  0  0  0  0  0
    8.1279   -0.4188   18.3633 H   0  0  0  0  0  0  0  0  0  0  0  0
    6.5512    0.6663   17.5666 N   0  0  0  0  0  0  0  0  0  0  0  0
    5.3934    1.2914   17.8351 C   0  0  0  0  0  0  0  0  0  0  0  0
    4.9222    1.7926   16.9946 H   0  0  0  0  0  0  0  0  0  0  0  0
    4.8087    1.3078   19.1053 C   0  0  0  0  0  0  0  0  0  0  0  0
    3.8789    1.8392   19.2598 H   0  0  0  0  0  0  0  0  0  0  0  0
    5.4464    0.6460   20.1580 C   0  0  0  0  0  0  0  0  0  0  0  0
    5.0339    0.6378   21.1684 H   0  0  0  0  0  0  0  0  0  0  0  0
    8.7570   -0.6671   21.1342 C   0  0  0  0  0  0  0  0  0  0  0  0
    9.6315   -0.1114   20.5029 O   0  0  0  0  0  0  0  0  0  0  0  0
    8.9388   -1.4652   22.2254 N   0  0  0  0  0  0  0  0  0  0  0  0
    9.8701   -1.6045   22.5628 H   0  0  0  0  0  0  0  0  0  0  0  0
  1  2  1  0
  2  3  1  0
  3  4  2  0
  4  5  1  0
  4  6  1  0
  6  7  1  0
  6  8  2  0
  8  9  1  0
  8 10  1  0
 10 11  1  0
 10 12  2  0
 12 13  1  0
 13 14  2  0
 14 15  1  0
 14 16  1  0
 16 17  1  0
 17 18  2  0
 18 19  1  0
 18 20  1  0
 20 21  2  0
 21 22  1  0
 21 23  1  0
 23 24  1  0
 23 25  2  0
 25 26  1  0
 16 27  1  0
 27 28  2  0
 27 29  1  0
 29 30  1  0
 12  3  1  0
 29 13  1  0
 25 17  1  0
M  END
>  <cnnaffinity>  (1) 
-5.0986

>  <filename>  (1) 
O=c1[nH]c(-c2ccccc2O)cn1-c1cccnc1

$$$$
