
     RDKit          3D

 34 37  0  0  0  0  0  0  0  0999 V2000
    4.9232    1.7899   17.0070 H   0  0  0  0  0  0  0  0  0  0  0  0
    5.3975    1.2870   17.8478 C   0  0  0  0  0  0  0  0  0  0  0  0
    6.5530    0.6619   17.5740 N   0  0  0  0  0  0  0  0  0  0  0  0
    7.1823    0.0530   18.5845 C   0  0  0  0  0  0  0  0  0  0  0  0
    8.1329   -0.4197   18.3541 H   0  0  0  0  0  0  0  0  0  0  0  0
    6.6896    0.0074   19.9144 C   0  0  0  0  0  0  0  0  0  0  0  0
    7.4063   -0.6524   20.9892 N   0  0  0  0  0  0  0  0  0  0  0  0
    8.7888   -0.6511   21.1501 C   0  0  0  0  0  0  0  0  0  0  0  0
    9.5684   -0.0653   20.4416 O   0  0  0  0  0  0  0  0  0  0  0  0
    9.0628   -1.5842   22.3614 C   0  0  0  0  0  0  0  0  0  0  0  0
   10.1078   -1.9044   22.8610 O   0  0  0  0  0  0  0  0  0  0  0  0
    7.8054   -2.0414   22.7556 N   0  0  0  0  0  0  0  0  0  0  0  0
    7.5963   -3.1339   23.6961 C   0  0  0  0  0  0  0  0  0  0  0  0
    8.2230   -4.3564   23.5007 C   0  0  0  0  0  0  0  0  0  0  0  0
    8.9142   -4.4822   22.6702 H   0  0  0  0  0  0  0  0  0  0  0  0
    8.0462   -5.4600   24.2763 N   0  0  0  0  0  0  0  0  0  0  0  0
    7.2426   -5.3624   25.3106 C   0  0  0  0  0  0  0  0  0  0  0  0
    7.1295   -6.2603   25.9187 H   0  0  0  0  0  0  0  0  0  0  0  0
    6.5352   -4.1714   25.6652 C   0  0  0  0  0  0  0  0  0  0  0  0
    5.6652   -4.1144   26.8000 C   0  0  0  0  0  0  0  0  0  0  0  0
    5.5302   -5.0064   27.4091 H   0  0  0  0  0  0  0  0  0  0  0  0
    5.0151   -2.9460   27.1135 C   0  0  0  0  0  0  0  0  0  0  0  0
    4.3551   -2.9048   27.9775 H   0  0  0  0  0  0  0  0  0  0  0  0
    5.2021   -1.7834   26.3186 C   0  0  0  0  0  0  0  0  0  0  0  0
    4.6850   -0.8642   26.5823 H   0  0  0  0  0  0  0  0  0  0  0  0
    6.0328   -1.8110   25.2140 C   0  0  0  0  0  0  0  0  0  0  0  0
    6.1734   -0.9184   24.6115 H   0  0  0  0  0  0  0  0  0  0  0  0
    6.7200   -3.0103   24.8418 C   0  0  0  0  0  0  0  0  0  0  0  0
    6.8351   -1.6069   21.8385 C   0  0  0  0  0  0  0  0  0  0  0  0
    5.7249   -2.0442   21.7489 O   0  0  0  0  0  0  0  0  0  0  0  0
    5.4656    0.6297   20.1743 C   0  0  0  0  0  0  0  0  0  0  0  0
    5.0436    0.5900   21.1766 H   0  0  0  0  0  0  0  0  0  0  0  0
    4.8230    1.2971   19.1208 C   0  0  0  0  0  0  0  0  0  0  0  0
    3.8931    1.8281   19.2708 H   0  0  0  0  0  0  0  0  0  0  0  0
  1  2  1  0
  2  3  2  0
  3  4  1  0
  4  5  1  0
  4  6  2  0
  6  7  1  0
  7  8  1  0
  8  9  2  0
  8 10  1  0
 10 11  2  0
 10 12  1  0
 12 13  1  0
 13 14  2  0
 14 15  1  0
 14 16  1  0
 16 17  2  0
 17 18  1  0
 17 19  1  0
 19 20  2  0
 20 21  1  0
 20 22  1  0
 22 23  1  0
 22 24  2  0
 24 25  1  0
 24 26  1  0
 26 27  1  0
 26 28  2  0
 12 29  1  0
 29 30  2  0
  6 31  1  0
 31 32  1  0
 31 33  2  0
 33 34  1  0
 33  2  1  0
 29  7  1  0
 28 13  1  0
 28 19  1  0
M  END
>  <cnnaffinity>  (1) 
-5.34457

>  <filename>  (1) 
O=C1C(=O)N(c2cncc3ccccc23)C(=O)N1c1cccnc1

$$$$
