
     RDKit          3D

 31 33  0  0  0  0  0  0  0  0999 V2000
    7.1185    3.4072   25.2330 H   0  0  0  0  0  0  0  0  0  0  0  0
    7.4475    2.3688   25.2184 C   0  0  0  0  0  0  0  0  0  0  0  0
    7.3044    1.7262   24.0619 N   0  0  0  0  0  0  0  0  0  0  0  0
    7.7194    0.4489   24.0231 C   0  0  0  0  0  0  0  0  0  0  0  0
    7.5686   -0.3789   22.7631 C   0  0  0  0  0  0  0  0  0  0  0  0
    6.9727    0.1505   21.7199 N   0  0  0  0  0  0  0  0  0  0  0  0
    6.6731   -0.6463   20.6658 N   0  0  0  0  0  0  0  0  0  0  0  0
    6.1746    0.0463   19.5087 C   0  0  0  0  0  0  0  0  0  0  0  0
    6.7972   -0.1155   18.2590 C   0  0  0  0  0  0  0  0  0  0  0  0
    7.6336   -0.8034   18.1562 H   0  0  0  0  0  0  0  0  0  0  0  0
    6.4396    0.5639   17.1652 N   0  0  0  0  0  0  0  0  0  0  0  0
    5.4026    1.4085   17.2776 C   0  0  0  0  0  0  0  0  0  0  0  0
    5.1603    1.9862   16.3905 H   0  0  0  0  0  0  0  0  0  0  0  0
    4.6704    1.5841   18.4584 C   0  0  0  0  0  0  0  0  0  0  0  0
    3.8184    2.2585   18.4603 H   0  0  0  0  0  0  0  0  0  0  0  0
    5.0952    0.9295   19.6181 C   0  0  0  0  0  0  0  0  0  0  0  0
    4.6460    1.1051   20.5970 H   0  0  0  0  0  0  0  0  0  0  0  0
    6.7308   -2.0919   20.6935 C   0  0  0  0  0  0  0  0  0  0  0  0
    6.1050   -2.7959   19.9246 O   0  0  0  0  0  0  0  0  0  0  0  0
    7.6328   -2.5700   21.7396 C   0  0  0  0  0  0  0  0  0  0  0  0
    7.8838   -3.6220   21.6955 H   0  0  0  0  0  0  0  0  0  0  0  0
    8.0299   -1.7554   22.7468 C   0  0  0  0  0  0  0  0  0  0  0  0
    8.6286   -2.1197   23.5820 H   0  0  0  0  0  0  0  0  0  0  0  0
    8.2450   -0.2013   25.0764 N   0  0  0  0  0  0  0  0  0  0  0  0
    8.3393    0.4335   26.2491 C   0  0  0  0  0  0  0  0  0  0  0  0
    8.8195   -0.4069   27.4594 C   0  0  0  0  0  0  0  0  0  0  0  0
   10.1351   -0.6738   27.3988 F   0  0  0  0  0  0  0  0  0  0  0  0
    8.1835   -1.5886   27.5283 F   0  0  0  0  0  0  0  0  0  0  0  0
    8.5814    0.2388   28.6198 F   0  0  0  0  0  0  0  0  0  0  0  0
    7.9795    1.7772   26.3602 C   0  0  0  0  0  0  0  0  0  0  0  0
    8.0835    2.3342   27.2819 H   0  0  0  0  0  0  0  0  0  0  0  0
  1  2  1  0
  2  3  2  0
  3  4  1  0
  4  5  1  0
  5  6  2  0
  6  7  1  0
  7  8  1  0
  8  9  2  0
  9 10  1  0
  9 11  1  0
 11 12  2  0
 12 13  1  0
 12 14  1  0
 14 15  1  0
 14 16  2  0
 16 17  1  0
  7 18  1  0
 18 19  2  0
 18 20  1  0
 20 21  1  0
 20 22  2  0
 22 23  1  0
  4 24  2  0
 24 25  1  0
 25 26  1  0
 26 27  1  0
 26 28  1  0
 26 29  1  0
 25 30  2  0
 30 31  1  0
 30  2  1  0
 22  5  1  0
 16  8  1  0
M  END
>  <cnnaffinity>  (1) 
-5.51351

>  <filename>  (1) 
O=c1ccc(-c2nccc(C(F)(F)F)n2)nn1-c1cccnc1

$$$$
