
     RDKit          3D

 31 33  0  0  0  0  0  0  0  0999 V2000
    4.9899    1.7600   17.0248 H   0  0  0  0  0  0  0  0  0  0  0  0
    5.4411    1.2535   17.8769 C   0  0  0  0  0  0  0  0  0  0  0  0
    6.6036    0.6211   17.6418 N   0  0  0  0  0  0  0  0  0  0  0  0
    7.2071    0.0178   18.6741 C   0  0  0  0  0  0  0  0  0  0  0  0
    8.1628   -0.4724   18.4881 H   0  0  0  0  0  0  0  0  0  0  0  0
    6.6761    0.0069   19.9764 C   0  0  0  0  0  0  0  0  0  0  0  0
    7.4544   -0.5502   20.9887 O   0  0  0  0  0  0  0  0  0  0  0  0
    6.8998   -1.3782   21.8910 C   0  0  0  0  0  0  0  0  0  0  0  0
    5.8655   -2.2139   21.7230 C   0  0  0  0  0  0  0  0  0  0  0  0
    5.3398   -2.3497   20.7991 H   0  0  0  0  0  0  0  0  0  0  0  0
    5.4296   -3.0665   22.8000 C   0  0  0  0  0  0  0  0  0  0  0  0
    4.6146   -3.9458   22.6088 O   0  0  0  0  0  0  0  0  0  0  0  0
    5.9712   -2.8230   24.1000 N   0  0  0  0  0  0  0  0  0  0  0  0
    5.3889   -3.4452   25.2950 C   0  0  0  0  0  0  0  0  0  0  0  0
    5.0742   -2.7496   26.4917 C   0  0  0  0  0  0  0  0  0  0  0  0
    5.2422   -1.6786   26.5731 H   0  0  0  0  0  0  0  0  0  0  0  0
    4.5569   -3.3423   27.5769 N   0  0  0  0  0  0  0  0  0  0  0  0
    4.3439   -4.6630   27.5311 C   0  0  0  0  0  0  0  0  0  0  0  0
    3.9233   -5.1155   28.4256 H   0  0  0  0  0  0  0  0  0  0  0  0
    4.6167   -5.4365   26.4048 C   0  0  0  0  0  0  0  0  0  0  0  0
    4.4066   -6.4974   26.4061 H   0  0  0  0  0  0  0  0  0  0  0  0
    5.1312   -4.8172   25.2633 C   0  0  0  0  0  0  0  0  0  0  0  0
    5.3048   -5.3685   24.3470 H   0  0  0  0  0  0  0  0  0  0  0  0
    7.1577   -2.0922   24.1963 C   0  0  0  0  0  0  0  0  0  0  0  0
    7.8100   -1.9933   25.2064 O   0  0  0  0  0  0  0  0  0  0  0  0
    7.5729   -1.4255   23.0670 N   0  0  0  0  0  0  0  0  0  0  0  0
    8.3863   -0.8759   23.2573 H   0  0  0  0  0  0  0  0  0  0  0  0
    5.4455    0.6296   20.2132 C   0  0  0  0  0  0  0  0  0  0  0  0
    5.0014    0.6216   21.2091 H   0  0  0  0  0  0  0  0  0  0  0  0
    4.8301    1.2769   19.1337 C   0  0  0  0  0  0  0  0  0  0  0  0
    3.8986    1.8155   19.2581 H   0  0  0  0  0  0  0  0  0  0  0  0
  1  2  1  0
  2  3  2  0
  3  4  1  0
  4  5  1  0
  4  6  2  0
  6  7  1  0
  7  8  1  0
  8  9  2  0
  9 10  1  0
  9 11  1  0
 11 12  2  0
 11 13  1  0
 13 14  1  0
 14 15  2  0
 15 16  1  0
 15 17  1  0
 17 18  2  0
 18 19  1  0
 18 20  1  0
 20 21  1  0
 20 22  2  0
 22 23  1  0
 13 24  1  0
 24 25  2  0
 24 26  1  0
 26 27  1  0
  6 28  1  0
 28 29  1  0
 28 30  2  0
 30 31  1  0
 30  2  1  0
 26  8  1  0
 22 14  1  0
M  END
>  <cnnaffinity>  (1) 
-5.27848

>  <filename>  (1) 
O=c1cc(Oc2cccnc2)[nH]c(=O)n1-c1cccnc1

$$$$
