
     RDKit          3D

 22 23  0  0  0  0  0  0  0  0999 V2000
    4.9830    1.8888   16.9937 H   0  0  0  0  0  0  0  0  0  0  0  0
    5.4749    1.3301   17.7858 C   0  0  0  0  0  0  0  0  0  0  0  0
    6.6314    0.7294   17.4636 N   0  0  0  0  0  0  0  0  0  0  0  0
    7.2592    0.0406   18.4254 C   0  0  0  0  0  0  0  0  0  0  0  0
    8.1896   -0.4288   18.1166 H   0  0  0  0  0  0  0  0  0  0  0  0
    6.7617   -0.1069   19.7427 C   0  0  0  0  0  0  0  0  0  0  0  0
    7.4536   -0.8550   20.7540 N   0  0  0  0  0  0  0  0  0  0  0  0
    8.7540   -0.6083   21.1941 C   0  0  0  0  0  0  0  0  0  0  0  0
    9.3944    0.0986   20.6894 H   0  0  0  0  0  0  0  0  0  0  0  0
    9.0167   -1.3852   22.2706 C   0  0  0  0  0  0  0  0  0  0  0  0
   10.3635   -1.5662   22.9512 C   0  0  0  0  0  0  0  0  0  0  0  0
   10.9678   -2.6828   22.5095 F   0  0  0  0  0  0  0  0  0  0  0  0
   11.1646   -0.5193   22.6766 F   0  0  0  0  0  0  0  0  0  0  0  0
   10.2866   -1.6558   24.2894 F   0  0  0  0  0  0  0  0  0  0  0  0
    7.8485   -2.1351   22.4926 N   0  0  0  0  0  0  0  0  0  0  0  0
    7.5848   -2.7280   23.2616 H   0  0  0  0  0  0  0  0  0  0  0  0
    6.8574   -1.8248   21.5894 C   0  0  0  0  0  0  0  0  0  0  0  0
    5.7604   -2.3395   21.5394 O   0  0  0  0  0  0  0  0  0  0  0  0
    5.5572    0.5387   20.0638 C   0  0  0  0  0  0  0  0  0  0  0  0
    5.1623    0.4774   21.0800 H   0  0  0  0  0  0  0  0  0  0  0  0
    4.9055    1.2655   19.0626 C   0  0  0  0  0  0  0  0  0  0  0  0
    3.9819    1.7976   19.2694 H   0  0  0  0  0  0  0  0  0  0  0  0
  1  2  1  0
  2  3  2  0
  3  4  1  0
  4  5  1  0
  4  6  2  0
  6  7  1  0
  7  8  1  0
  8  9  1  0
  8 10  2  0
 10 11  1  0
 11 12  1  0
 11 13  1  0
 11 14  1  0
 10 15  1  0
 15 16  1  0
 15 17  1  0
 17 18  2  0
  6 19  1  0
 19 20  1  0
 19 21  2  0
 21 22  1  0
 21  2  1  0
 17  7  1  0
M  END
>  <cnnaffinity>  (1) 
-4.87907

>  <filename>  (1) 
O=c1[nH]c(C(F)(F)F)cn1-c1cccnc1

$$$$
