
     RDKit          3D

 33 35  0  0  0  0  0  0  0  0999 V2000
    4.9758    1.8024   16.9318 H   0  0  0  0  0  0  0  0  0  0  0  0
    5.4067    1.3145   17.8025 C   0  0  0  0  0  0  0  0  0  0  0  0
    6.5800    0.6936   17.6029 N   0  0  0  0  0  0  0  0  0  0  0  0
    7.1542    0.0982   18.6547 C   0  0  0  0  0  0  0  0  0  0  0  0
    8.1248   -0.3682   18.4936 H   0  0  0  0  0  0  0  0  0  0  0  0
    6.5696    0.0707   19.9324 C   0  0  0  0  0  0  0  0  0  0  0  0
    7.1903   -0.6191   21.0258 N   0  0  0  0  0  0  0  0  0  0  0  0
    7.5019    0.1977   22.0666 N   0  0  0  0  0  0  0  0  0  0  0  0
    8.2602   -0.2966   22.9932 C   0  0  0  0  0  0  0  0  0  0  0  0
    8.5533    0.7493   24.4592 S   0  0  0  0  0  0  0  0  0  0  0  0
    8.0150    2.0801   24.2227 O   0  0  0  0  0  0  0  0  0  0  0  0
    9.9415    0.5371   24.8646 O   0  0  0  0  0  0  0  0  0  0  0  0
    7.5166   -0.0656   25.7014 C   0  0  0  0  0  0  0  0  0  0  0  0
    6.1849    0.3251   25.9012 C   0  0  0  0  0  0  0  0  0  0  0  0
    5.7429    1.1512   25.3423 H   0  0  0  0  0  0  0  0  0  0  0  0
    5.4161   -0.3745   26.8348 C   0  0  0  0  0  0  0  0  0  0  0  0
    4.3940   -0.0655   27.0245 H   0  0  0  0  0  0  0  0  0  0  0  0
    5.9417   -1.4782   27.5136 C   0  0  0  0  0  0  0  0  0  0  0  0
    5.3267   -2.0242   28.2251 H   0  0  0  0  0  0  0  0  0  0  0  0
    7.2633   -1.8676   27.2726 C   0  0  0  0  0  0  0  0  0  0  0  0
    7.6766   -2.7466   27.7505 H   0  0  0  0  0  0  0  0  0  0  0  0
    8.0715   -1.1467   26.3995 C   0  0  0  0  0  0  0  0  0  0  0  0
    9.1210   -1.4216   26.2841 H   0  0  0  0  0  0  0  0  0  0  0  0
    8.7576   -1.6491   22.9898 C   0  0  0  0  0  0  0  0  0  0  0  0
    9.5447   -1.9546   23.6787 H   0  0  0  0  0  0  0  0  0  0  0  0
    8.2026   -2.5173   22.1044 C   0  0  0  0  0  0  0  0  0  0  0  0
    8.3712   -3.5861   22.1120 H   0  0  0  0  0  0  0  0  0  0  0  0
    7.2393   -2.0620   21.0996 C   0  0  0  0  0  0  0  0  0  0  0  0
    6.5651   -2.7790   20.3902 O   0  0  0  0  0  0  0  0  0  0  0  0
    5.3861    0.7796   20.1491 C   0  0  0  0  0  0  0  0  0  0  0  0
    5.0008    0.8751   21.1664 H   0  0  0  0  0  0  0  0  0  0  0  0
    4.7675    1.3779   19.0480 C   0  0  0  0  0  0  0  0  0  0  0  0
    3.8426    1.9343   19.1556 H   0  0  0  0  0  0  0  0  0  0  0  0
  1  2  1  0
  2  3  2  0
  3  4  1  0
  4  5  1  0
  4  6  2  0
  6  7  1  0
  7  8  1  0
  8  9  2  0
  9 10  1  0
 10 11  2  0
 10 12  2  0
 10 13  1  0
 13 14  2  0
 14 15  1  0
 14 16  1  0
 16 17  1  0
 16 18  2  0
 18 19  1  0
 18 20  1  0
 20 21  1  0
 20 22  2  0
 22 23  1  0
  9 24  1  0
 24 25  1  0
 24 26  2  0
 26 27  1  0
 26 28  1  0
 28 29  2  0
  6 30  1  0
 30 31  1  0
 30 32  2  0
 32 33  1  0
 32  2  1  0
 28  7  1  0
 22 13  1  0
M  END
>  <cnnaffinity>  (1) 
-5.22018

>  <filename>  (1) 
O=c1ccc(S(=O)(=O)c2ccccc2)nn1-c1cccnc1

$$$$
