
     RDKit          3D

 39 42  0  0  0  0  0  0  0  0999 V2000
    4.9149    1.7769   17.0006 H   0  0  0  0  0  0  0  0  0  0  0  0
    5.4024    1.2923   17.8452 C   0  0  0  0  0  0  0  0  0  0  0  0
    6.5649    0.6715   17.5878 N   0  0  0  0  0  0  0  0  0  0  0  0
    7.1723    0.0482   18.6042 C   0  0  0  0  0  0  0  0  0  0  0  0
    8.1244   -0.4263   18.3815 H   0  0  0  0  0  0  0  0  0  0  0  0
    6.6420   -0.0209   19.9071 C   0  0  0  0  0  0  0  0  0  0  0  0
    7.3256   -0.7242   20.9498 N   0  0  0  0  0  0  0  0  0  0  0  0
    6.5540   -1.6358   21.6574 N   0  0  0  0  0  0  0  0  0  0  0  0
    7.1144   -2.3099   22.6468 C   0  0  0  0  0  0  0  0  0  0  0  0
    6.3545   -3.2243   23.3513 N   0  0  0  0  0  0  0  0  0  0  0  0
    5.1377   -3.7473   22.7145 C   0  0  0  0  0  0  0  0  0  0  0  0
    4.3512   -2.9853   22.7303 H   0  0  0  0  0  0  0  0  0  0  0  0
    5.3308   -3.9372   21.6535 H   0  0  0  0  0  0  0  0  0  0  0  0
    4.5858   -5.0174   23.3464 C   0  0  0  0  0  0  0  0  0  0  0  0
    3.8441   -5.9389   22.5963 C   0  0  0  0  0  0  0  0  0  0  0  0
    3.6780   -5.7657   21.5384 H   0  0  0  0  0  0  0  0  0  0  0  0
    3.3068   -7.0828   23.1948 C   0  0  0  0  0  0  0  0  0  0  0  0
    2.7396   -7.7941   22.5999 H   0  0  0  0  0  0  0  0  0  0  0  0
    3.4986   -7.3094   24.5615 C   0  0  0  0  0  0  0  0  0  0  0  0
    3.0802   -8.1917   25.0386 H   0  0  0  0  0  0  0  0  0  0  0  0
    4.2217   -6.3858   25.3211 C   0  0  0  0  0  0  0  0  0  0  0  0
    4.3649   -6.5461   26.3888 H   0  0  0  0  0  0  0  0  0  0  0  0
    4.7632   -5.2422   24.7230 C   0  0  0  0  0  0  0  0  0  0  0  0
    5.5234   -4.1995   25.5024 C   0  0  0  0  0  0  0  0  0  0  0  0
    4.8454   -3.3752   25.7554 H   0  0  0  0  0  0  0  0  0  0  0  0
    5.8732   -4.6169   26.4521 H   0  0  0  0  0  0  0  0  0  0  0  0
    6.7208   -3.6585   24.7098 C   0  0  0  0  0  0  0  0  0  0  0  0
    7.1446   -2.8177   25.2728 H   0  0  0  0  0  0  0  0  0  0  0  0
    7.4870   -4.4464   24.6617 H   0  0  0  0  0  0  0  0  0  0  0  0
    8.5216   -2.1215   22.9719 C   0  0  0  0  0  0  0  0  0  0  0  0
    8.9699   -2.7180   23.7633 H   0  0  0  0  0  0  0  0  0  0  0  0
    9.2657   -1.2219   22.2822 C   0  0  0  0  0  0  0  0  0  0  0  0
   10.3138   -1.0184   22.4755 H   0  0  0  0  0  0  0  0  0  0  0  0
    8.7078   -0.4093   21.2034 C   0  0  0  0  0  0  0  0  0  0  0  0
    9.3287    0.4283   20.5699 O   0  0  0  0  0  0  0  0  0  0  0  0
    5.4361    0.6391   20.1676 C   0  0  0  0  0  0  0  0  0  0  0  0
    5.0147    0.6112   21.1719 H   0  0  0  0  0  0  0  0  0  0  0  0
    4.8100    1.3142   19.1137 C   0  0  0  0  0  0  0  0  0  0  0  0
    3.8750    1.8452   19.2648 H   0  0  0  0  0  0  0  0  0  0  0  0
  1  2  1  0
  2  3  2  0
  3  4  1  0
  4  5  1  0
  4  6  2  0
  6  7  1  0
  7  8  1  0
  8  9  2  0
  9 10  1  0
 10 11  1  0
 11 12  1  0
 11 13  1  0
 11 14  1  0
 14 15  2  0
 15 16  1  0
 15 17  1  0
 17 18  1  0
 17 19  2  0
 19 20  1  0
 19 21  1  0
 21 22  1  0
 21 23  2  0
 23 24  1  0
 24 25  1  0
 24 26  1  0
 24 27  1  0
 27 28  1  0
 27 29  1  0
  9 30  1  0
 30 31  1  0
 30 32  2  0
 32 33  1  0
 32 34  1  0
 34 35  2  0
  6 36  1  0
 36 37  1  0
 36 38  2  0
 38 39  1  0
 38  2  1  0
 34  7  1  0
 27 10  1  0
 23 14  1  0
M  END
>  <cnnaffinity>  (1) 
-5.44449

>  <filename>  (1) 
O=c1ccc(N2CCc3ccccc3C2)nn1-c1cccnc1

$$$$
