
     RDKit          3D

 34 36  0  0  0  0  0  0  0  0999 V2000
    4.9546    1.8294   16.9456 H   0  0  0  0  0  0  0  0  0  0  0  0
    5.4083    1.3185   17.7933 C   0  0  0  0  0  0  0  0  0  0  0  0
    6.5554    0.6745   17.5478 N   0  0  0  0  0  0  0  0  0  0  0  0
    7.1412    0.0553   18.5763 C   0  0  0  0  0  0  0  0  0  0  0  0
    8.0823   -0.4439   18.3615 H   0  0  0  0  0  0  0  0  0  0  0  0
    6.6278    0.0297   19.8811 C   0  0  0  0  0  0  0  0  0  0  0  0
    7.3492   -0.6991   20.9425 C   0  0  0  0  0  0  0  0  0  0  0  0
    6.6085   -1.4973   21.6782 N   0  0  0  0  0  0  0  0  0  0  0  0
    7.1728   -2.2239   22.7010 C   0  0  0  0  0  0  0  0  0  0  0  0
    6.2513   -3.0943   23.4956 C   0  0  0  0  0  0  0  0  0  0  0  0
    5.0496   -3.5972   22.9695 C   0  0  0  0  0  0  0  0  0  0  0  0
    4.7584   -3.3245   21.9603 H   0  0  0  0  0  0  0  0  0  0  0  0
    4.2235   -4.4058   23.7560 C   0  0  0  0  0  0  0  0  0  0  0  0
    3.2884   -4.7645   23.3367 H   0  0  0  0  0  0  0  0  0  0  0  0
    4.5821   -4.7511   25.0655 C   0  0  0  0  0  0  0  0  0  0  0  0
    3.9333   -5.3629   25.6875 H   0  0  0  0  0  0  0  0  0  0  0  0
    5.7921   -4.2694   25.5684 C   0  0  0  0  0  0  0  0  0  0  0  0
    6.1386   -4.7112   26.8444 O   0  0  0  0  0  0  0  0  0  0  0  0
    7.3014   -4.3385   27.4254 C   0  0  0  0  0  0  0  0  0  0  0  0
    8.3866   -4.8202   26.8023 F   0  0  0  0  0  0  0  0  0  0  0  0
    7.2915   -4.8141   28.6615 F   0  0  0  0  0  0  0  0  0  0  0  0
    7.4579   -3.0004   27.4722 F   0  0  0  0  0  0  0  0  0  0  0  0
    6.5908   -3.4056   24.8206 C   0  0  0  0  0  0  0  0  0  0  0  0
    7.4313   -2.9231   25.2929 H   0  0  0  0  0  0  0  0  0  0  0  0
    8.5159   -2.1498   22.9841 C   0  0  0  0  0  0  0  0  0  0  0  0
    8.9903   -2.6989   23.7941 H   0  0  0  0  0  0  0  0  0  0  0  0
    9.3143   -1.3480   22.2110 N   0  0  0  0  0  0  0  0  0  0  0  0
   10.3102   -1.2182   22.3587 H   0  0  0  0  0  0  0  0  0  0  0  0
    8.8531   -0.5648   21.1548 C   0  0  0  0  0  0  0  0  0  0  0  0
    9.6801    0.1029   20.5553 O   0  0  0  0  0  0  0  0  0  0  0  0
    5.3886    0.6529   20.1093 C   0  0  0  0  0  0  0  0  0  0  0  0
    4.9022    0.5990   21.0886 H   0  0  0  0  0  0  0  0  0  0  0  0
    4.7884    1.3305   19.0501 C   0  0  0  0  0  0  0  0  0  0  0  0
    3.8502    1.8589   19.1697 H   0  0  0  0  0  0  0  0  0  0  0  0
  1  2  1  0
  2  3  2  0
  3  4  1  0
  4  5  1  0
  4  6  2  0
  6  7  1  0
  7  8  2  0
  8  9  1  0
  9 10  1  0
 10 11  2  0
 11 12  1  0
 11 13  1  0
 13 14  1  0
 13 15  2  0
 15 16  1  0
 15 17  1  0
 17 18  1  0
 18 19  1  0
 19 20  1  0
 19 21  1  0
 19 22  1  0
 17 23  2  0
 23 24  1  0
  9 25  2  0
 25 26  1  0
 25 27  1  0
 27 28  1  0
 27 29  1  0
 29 30  2  0
  6 31  1  0
 31 32  1  0
 31 33  2  0
 33 34  1  0
 33  2  1  0
 29  7  1  0
 23 10  1  0
M  END
>  <cnnaffinity>  (1) 
-5.65724

>  <filename>  (1) 
O=c1[nH]cc(-c2cccc(OC(F)(F)F)c2)nc1-c1cccnc1

$$$$
