
     RDKit          3D

 32 34  0  0  0  0  0  0  0  0999 V2000
    5.0521    1.9847   16.9057 H   0  0  0  0  0  0  0  0  0  0  0  0
    5.5105    1.3878   17.6914 C   0  0  0  0  0  0  0  0  0  0  0  0
    6.6759    0.7907   17.3870 N   0  0  0  0  0  0  0  0  0  0  0  0
    7.2664    0.0606   18.3395 C   0  0  0  0  0  0  0  0  0  0  0  0
    8.2240   -0.3788   18.0829 H   0  0  0  0  0  0  0  0  0  0  0  0
    6.7070   -0.1460   19.6199 C   0  0  0  0  0  0  0  0  0  0  0  0
    7.3390   -0.9197   20.6198 N   0  0  0  0  0  0  0  0  0  0  0  0
    6.7839   -1.9330   21.4408 C   0  0  0  0  0  0  0  0  0  0  0  0
    5.6132   -2.2689   21.4924 O   0  0  0  0  0  0  0  0  0  0  0  0
    7.9417   -2.4377   22.1602 C   0  0  0  0  0  0  0  0  0  0  0  0
    7.8572   -3.2169   22.8957 H   0  0  0  0  0  0  0  0  0  0  0  0
    9.0453   -1.7733   21.7503 C   0  0  0  0  0  0  0  0  0  0  0  0
   10.4388   -1.7827   22.2775 C   0  0  0  0  0  0  0  0  0  0  0  0
   11.1390   -1.5831   21.4625 H   0  0  0  0  0  0  0  0  0  0  0  0
   10.6608   -2.7830   22.6592 H   0  0  0  0  0  0  0  0  0  0  0  0
   10.5960   -0.7546   23.3882 C   0  0  0  0  0  0  0  0  0  0  0  0
   10.1888   -1.0999   24.6860 C   0  0  0  0  0  0  0  0  0  0  0  0
    9.8522   -2.1176   24.8583 H   0  0  0  0  0  0  0  0  0  0  0  0
   10.1643   -0.1653   25.7213 C   0  0  0  0  0  0  0  0  0  0  0  0
    9.7931   -0.4576   26.6996 H   0  0  0  0  0  0  0  0  0  0  0  0
   10.5804    1.1435   25.4737 C   0  0  0  0  0  0  0  0  0  0  0  0
   10.5676    1.8791   26.2690 H   0  0  0  0  0  0  0  0  0  0  0  0
   11.0403    1.5069   24.2065 C   0  0  0  0  0  0  0  0  0  0  0  0
   11.3897    2.5104   23.9951 H   0  0  0  0  0  0  0  0  0  0  0  0
   11.0454    0.5578   23.1782 C   0  0  0  0  0  0  0  0  0  0  0  0
   11.6241    1.0637   21.6084 Cl  0  0  0  0  0  0  0  0  0  0  0  0
    8.7332   -0.8363   20.7666 N   0  0  0  0  0  0  0  0  0  0  0  0
    9.0234    0.1200   21.0088 H   0  0  0  0  0  0  0  0  0  0  0  0
    5.4945    0.4786   19.9221 C   0  0  0  0  0  0  0  0  0  0  0  0
    5.0686    0.3200   20.9101 H   0  0  0  0  0  0  0  0  0  0  0  0
    4.8964    1.2793   18.9450 C   0  0  0  0  0  0  0  0  0  0  0  0
    3.9760    1.8166   19.1513 H   0  0  0  0  0  0  0  0  0  0  0  0
  1  2  1  0
  2  3  2  0
  3  4  1  0
  4  5  1  0
  4  6  2  0
  6  7  1  0
  7  8  1  0
  8  9  2  0
  8 10  1  0
 10 11  1  0
 10 12  2  0
 12 13  1  0
 13 14  1  0
 13 15  1  0
 13 16  1  0
 16 17  2  0
 17 18  1  0
 17 19  1  0
 19 20  1  0
 19 21  2  0
 21 22  1  0
 21 23  1  0
 23 24  1  0
 23 25  2  0
 25 26  1  0
 12 27  1  0
 27 28  1  0
  6 29  1  0
 29 30  1  0
 29 31  2  0
 31 32  1  0
 31  2  1  0
 27  7  1  0
 25 16  1  0
M  END
>  <cnnaffinity>  (1) 
-5.13887

>  <filename>  (1) 
O=c1cc(Cc2ccccc2Cl)[nH]n1-c1cccnc1

$$$$
