
     RDKit          3D

 32 34  0  0  0  0  0  0  0  0999 V2000
    4.7345   -2.3470   26.9979 H   0  0  0  0  0  0  0  0  0  0  0  0
    4.9859   -2.3289   26.0703 O   0  0  0  0  0  0  0  0  0  0  0  0
    5.8028   -3.3864   25.8363 C   0  0  0  0  0  0  0  0  0  0  0  0
    6.0335   -4.3608   26.8135 C   0  0  0  0  0  0  0  0  0  0  0  0
    5.5296   -4.3100   27.7777 H   0  0  0  0  0  0  0  0  0  0  0  0
    6.9064   -5.4204   26.5465 C   0  0  0  0  0  0  0  0  0  0  0  0
    7.3151   -6.5072   27.8280 Cl  0  0  0  0  0  0  0  0  0  0  0  0
    7.4788   -5.5886   25.2877 C   0  0  0  0  0  0  0  0  0  0  0  0
    8.1405   -6.4248   25.0971 H   0  0  0  0  0  0  0  0  0  0  0  0
    7.2104   -4.6416   24.2933 C   0  0  0  0  0  0  0  0  0  0  0  0
    7.6137   -4.7551   23.2877 H   0  0  0  0  0  0  0  0  0  0  0  0
    6.4392   -3.5158   24.5774 C   0  0  0  0  0  0  0  0  0  0  0  0
    6.2014   -2.5402   23.6066 O   0  0  0  0  0  0  0  0  0  0  0  0
    7.1870   -1.9699   22.9092 C   0  0  0  0  0  0  0  0  0  0  0  0
    6.6510   -1.1919   21.9519 O   0  0  0  0  0  0  0  0  0  0  0  0
    7.4341   -0.6611   20.9558 C   0  0  0  0  0  0  0  0  0  0  0  0
    6.6532    0.0008   19.9015 C   0  0  0  0  0  0  0  0  0  0  0  0
    7.1669    0.0331   18.5966 C   0  0  0  0  0  0  0  0  0  0  0  0
    8.0847   -0.5034   18.3511 H   0  0  0  0  0  0  0  0  0  0  0  0
    6.5738    0.6625   17.5784 N   0  0  0  0  0  0  0  0  0  0  0  0
    5.4210    1.2994   17.8341 C   0  0  0  0  0  0  0  0  0  0  0  0
    4.9705    1.8212   16.9935 H   0  0  0  0  0  0  0  0  0  0  0  0
    4.7985    1.2974   19.0883 C   0  0  0  0  0  0  0  0  0  0  0  0
    3.8584    1.8229   19.2224 H   0  0  0  0  0  0  0  0  0  0  0  0
    5.4128    0.6243   20.1412 C   0  0  0  0  0  0  0  0  0  0  0  0
    4.9601    0.5723   21.1309 H   0  0  0  0  0  0  0  0  0  0  0  0
    8.7787   -0.7562   21.0099 C   0  0  0  0  0  0  0  0  0  0  0  0
    9.4368   -0.3284   20.2708 H   0  0  0  0  0  0  0  0  0  0  0  0
    9.4265   -1.4428   22.1304 C   0  0  0  0  0  0  0  0  0  0  0  0
   10.6413   -1.5068   22.2386 O   0  0  0  0  0  0  0  0  0  0  0  0
    8.5207   -2.0615   23.0882 C   0  0  0  0  0  0  0  0  0  0  0  0
    8.9627   -2.5881   23.9160 H   0  0  0  0  0  0  0  0  0  0  0  0
  1  2  1  0
  2  3  1  0
  3  4  2  0
  4  5  1  0
  4  6  1  0
  6  7  1  0
  6  8  2  0
  8  9  1  0
  8 10  1  0
 10 11  1  0
 10 12  2  0
 12 13  1  0
 13 14  1  0
 14 15  1  0
 15 16  1  0
 16 17  1  0
 17 18  2  0
 18 19  1  0
 18 20  1  0
 20 21  2  0
 21 22  1  0
 21 23  1  0
 23 24  1  0
 23 25  2  0
 25 26  1  0
 16 27  2  0
 27 28  1  0
 27 29  1  0
 29 30  2  0
 29 31  1  0
 31 32  1  0
 12  3  1  0
 31 14  2  0
 25 17  1  0
M  END
>  <cnnaffinity>  (1) 
-5.38123

>  <filename>  (1) 
O=c1cc(Oc2ccc(Cl)cc2O)oc(-c2cccnc2)c1

$$$$
