
     RDKit          3D

 36 38  0  0  0  0  0  0  0  0999 V2000
    4.9567    1.7996   16.9705 H   0  0  0  0  0  0  0  0  0  0  0  0
    5.4191    1.2909   17.8157 C   0  0  0  0  0  0  0  0  0  0  0  0
    6.5694    0.6483   17.5606 N   0  0  0  0  0  0  0  0  0  0  0  0
    7.1719    0.0314   18.5848 C   0  0  0  0  0  0  0  0  0  0  0  0
    8.1071   -0.4824   18.3657 H   0  0  0  0  0  0  0  0  0  0  0  0
    6.6669    0.0111   19.8986 C   0  0  0  0  0  0  0  0  0  0  0  0
    7.3756   -0.7058   20.9924 C   0  0  0  0  0  0  0  0  0  0  0  0
    9.0978   -0.4177   21.0889 S   0  0  0  0  0  0  0  0  0  0  0  0
    9.5945   -1.5302   22.3318 C   0  0  0  0  0  0  0  0  0  0  0  0
   11.1005   -1.5476   22.5357 C   0  0  0  0  0  0  0  0  0  0  0  0
   11.3595   -2.4010   23.1948 H   0  0  0  0  0  0  0  0  0  0  0  0
   11.5887   -1.7663   21.5782 H   0  0  0  0  0  0  0  0  0  0  0  0
   11.5533   -0.2506   23.0382 N   0  0  0  0  0  0  0  0  0  0  0  0
   11.0776    0.0311   24.3994 C   0  0  0  0  0  0  0  0  0  0  0  0
    9.9833   -0.0018   24.3971 H   0  0  0  0  0  0  0  0  0  0  0  0
   11.4258   -0.7003   25.1547 H   0  0  0  0  0  0  0  0  0  0  0  0
   11.5258    1.4225   24.8277 C   0  0  0  0  0  0  0  0  0  0  0  0
   11.0642    2.1783   24.1715 H   0  0  0  0  0  0  0  0  0  0  0  0
   11.1994    1.6302   25.8488 H   0  0  0  0  0  0  0  0  0  0  0  0
   12.9417    1.5179   24.7961 O   0  0  0  0  0  0  0  0  0  0  0  0
   13.4259    1.3434   23.4749 C   0  0  0  0  0  0  0  0  0  0  0  0
   14.5172    1.3577   23.5287 H   0  0  0  0  0  0  0  0  0  0  0  0
   13.1032    2.1844   22.8433 H   0  0  0  0  0  0  0  0  0  0  0  0
   12.9786    0.0171   22.8443 C   0  0  0  0  0  0  0  0  0  0  0  0
   13.1689    0.0832   21.7697 H   0  0  0  0  0  0  0  0  0  0  0  0
   13.6319   -0.7856   23.2189 H   0  0  0  0  0  0  0  0  0  0  0  0
    8.7344   -2.2029   23.1184 C   0  0  0  0  0  0  0  0  0  0  0  0
    9.0941   -2.7675   23.9700 H   0  0  0  0  0  0  0  0  0  0  0  0
    7.2740   -2.2304   22.9739 C   0  0  0  0  0  0  0  0  0  0  0  0
    6.5817   -2.8638   23.7542 O   0  0  0  0  0  0  0  0  0  0  0  0
    6.6980   -1.4857   21.8596 C   0  0  0  0  0  0  0  0  0  0  0  0
    5.6307   -1.6136   21.7583 H   0  0  0  0  0  0  0  0  0  0  0  0
    5.4511    0.6682   20.1373 C   0  0  0  0  0  0  0  0  0  0  0  0
    5.0248    0.6975   21.1401 H   0  0  0  0  0  0  0  0  0  0  0  0
    4.8188    1.3222   19.0775 C   0  0  0  0  0  0  0  0  0  0  0  0
    3.8829    1.8476   19.2182 H   0  0  0  0  0  0  0  0  0  0  0  0
  1  2  1  0
  2  3  2  0
  3  4  1  0
  4  5  1  0
  4  6  2  0
  6  7  1  0
  7  8  1  0
  8  9  1  0
  9 10  1  0
 10 11  1  0
 10 12  1  0
 10 13  1  0
 13 14  1  0
 14 15  1  0
 14 16  1  0
 14 17  1  0
 17 18  1  0
 17 19  1  0
 17 20  1  0
 20 21  1  0
 21 22  1  0
 21 23  1  0
 21 24  1  0
 24 25  1  0
 24 26  1  0
  9 27  2  0
 27 28  1  0
 27 29  1  0
 29 30  2  0
 29 31  1  0
 31 32  1  0
  6 33  1  0
 33 34  1  0
 33 35  2  0
 35 36  1  0
 35  2  1  0
 31  7  2  0
 24 13  1  0
M  END
>  <cnnaffinity>  (1) 
-5.23787

>  <filename>  (1) 
O=c1cc(CN2CCOCC2)sc(-c2cccnc2)c1

$$$$
