
     RDKit          3D

 32 34  0  0  0  0  0  0  0  0999 V2000
    4.9574    1.8583   16.9401 H   0  0  0  0  0  0  0  0  0  0  0  0
    5.4531    1.3378   17.7597 C   0  0  0  0  0  0  0  0  0  0  0  0
    6.6304    0.7543   17.4782 N   0  0  0  0  0  0  0  0  0  0  0  0
    7.2541    0.1027   18.4659 C   0  0  0  0  0  0  0  0  0  0  0  0
    8.2015   -0.3656   18.2169 H   0  0  0  0  0  0  0  0  0  0  0  0
    6.7305   -0.0331   19.7679 C   0  0  0  0  0  0  0  0  0  0  0  0
    7.3785   -0.8073   20.7603 N   0  0  0  0  0  0  0  0  0  0  0  0
    6.7638   -1.6584   21.6912 C   0  0  0  0  0  0  0  0  0  0  0  0
    5.6114   -2.0477   21.6250 O   0  0  0  0  0  0  0  0  0  0  0  0
    7.8242   -1.9452   22.6638 C   0  0  0  0  0  0  0  0  0  0  0  0
    7.5387   -2.7451   23.9067 C   0  0  0  0  0  0  0  0  0  0  0  0
    8.3180   -2.5681   24.6572 H   0  0  0  0  0  0  0  0  0  0  0  0
    6.5915   -2.3920   24.3335 H   0  0  0  0  0  0  0  0  0  0  0  0
    7.4114   -4.2274   23.5766 C   0  0  0  0  0  0  0  0  0  0  0  0
    6.1659   -4.7790   23.2279 C   0  0  0  0  0  0  0  0  0  0  0  0
    5.2766   -4.1631   23.3440 H   0  0  0  0  0  0  0  0  0  0  0  0
    6.0585   -6.0535   22.6687 C   0  0  0  0  0  0  0  0  0  0  0  0
    5.0812   -6.4591   22.4077 H   0  0  0  0  0  0  0  0  0  0  0  0
    7.2188   -6.7930   22.4216 C   0  0  0  0  0  0  0  0  0  0  0  0
    7.1622   -7.7627   21.9355 H   0  0  0  0  0  0  0  0  0  0  0  0
    8.4634   -6.2996   22.8191 C   0  0  0  0  0  0  0  0  0  0  0  0
    9.3432   -6.8934   22.6094 H   0  0  0  0  0  0  0  0  0  0  0  0
    8.5415   -5.0523   23.4525 C   0  0  0  0  0  0  0  0  0  0  0  0
   10.0555   -4.5205   24.1342 Cl  0  0  0  0  0  0  0  0  0  0  0  0
    8.9666   -1.4138   22.1831 C   0  0  0  0  0  0  0  0  0  0  0  0
    9.9646   -1.4814   22.6039 H   0  0  0  0  0  0  0  0  0  0  0  0
    8.7671   -0.8103   20.9356 N   0  0  0  0  0  0  0  0  0  0  0  0
    9.1895    0.0997   20.7730 H   0  0  0  0  0  0  0  0  0  0  0  0
    5.5105    0.5943   20.0568 C   0  0  0  0  0  0  0  0  0  0  0  0
    5.0934    0.5381   21.0614 H   0  0  0  0  0  0  0  0  0  0  0  0
    4.8691    1.2922   19.0304 C   0  0  0  0  0  0  0  0  0  0  0  0
    3.9345    1.8088   19.2098 H   0  0  0  0  0  0  0  0  0  0  0  0
  1  2  1  0
  2  3  2  0
  3  4  1  0
  4  5  1  0
  4  6  2  0
  6  7  1  0
  7  8  1  0
  8  9  2  0
  8 10  1  0
 10 11  1  0
 11 12  1  0
 11 13  1  0
 11 14  1  0
 14 15  2  0
 15 16  1  0
 15 17  1  0
 17 18  1  0
 17 19  2  0
 19 20  1  0
 19 21  1  0
 21 22  1  0
 21 23  2  0
 23 24  1  0
 10 25  2  0
 25 26  1  0
 25 27  1  0
 27 28  1  0
  6 29  1  0
 29 30  1  0
 29 31  2  0
 31 32  1  0
 31  2  1  0
 27  7  1  0
 23 14  1  0
M  END
>  <cnnaffinity>  (1) 
-5.52992

>  <filename>  (1) 
O=c1c(Cc2ccccc2Cl)c[nH]n1-c1cccnc1

$$$$
