
     RDKit          3D

 32 34  0  0  0  0  0  0  0  0999 V2000
    5.0004    1.8284   16.9307 H   0  0  0  0  0  0  0  0  0  0  0  0
    5.4394    1.3080   17.7787 C   0  0  0  0  0  0  0  0  0  0  0  0
    6.5882    0.6553   17.5478 N   0  0  0  0  0  0  0  0  0  0  0  0
    7.1424   -0.0048   18.5691 C   0  0  0  0  0  0  0  0  0  0  0  0
    8.0735   -0.5242   18.3488 H   0  0  0  0  0  0  0  0  0  0  0  0
    6.6014   -0.0218   19.8608 C   0  0  0  0  0  0  0  0  0  0  0  0
    7.3527   -0.7109   20.9147 C   0  0  0  0  0  0  0  0  0  0  0  0
    8.0152   -1.8076   20.7072 N   0  0  0  0  0  0  0  0  0  0  0  0
    8.5179   -2.1209   21.9357 N   0  0  0  0  0  0  0  0  0  0  0  0
    8.9280   -3.0075   22.1688 H   0  0  0  0  0  0  0  0  0  0  0  0
    8.1586   -1.2856   22.9403 C   0  0  0  0  0  0  0  0  0  0  0  0
    8.4109   -1.4622   24.1187 O   0  0  0  0  0  0  0  0  0  0  0  0
    7.4481   -0.2715   22.2321 N   0  0  0  0  0  0  0  0  0  0  0  0
    6.9438    0.9897   22.6991 N   0  0  0  0  0  0  0  0  0  0  0  0
    7.3214    1.7421   22.1160 H   0  0  0  0  0  0  0  0  0  0  0  0
    7.2650    1.3175   24.0902 C   0  0  0  0  0  0  0  0  0  0  0  0
    6.6112    2.1564   24.3542 H   0  0  0  0  0  0  0  0  0  0  0  0
    6.9872    0.4606   24.7104 H   0  0  0  0  0  0  0  0  0  0  0  0
    8.7229    1.6651   24.3583 C   0  0  0  0  0  0  0  0  0  0  0  0
    9.5237    2.5148   23.5718 C   0  0  0  0  0  0  0  0  0  0  0  0
    9.1521    3.0553   22.7000 H   0  0  0  0  0  0  0  0  0  0  0  0
   10.8814    2.6465   23.9001 C   0  0  0  0  0  0  0  0  0  0  0  0
   11.5257    3.2962   23.3097 H   0  0  0  0  0  0  0  0  0  0  0  0
   11.4785    2.0020   24.9139 N   0  0  0  0  0  0  0  0  0  0  0  0
   10.7008    1.2133   25.6709 C   0  0  0  0  0  0  0  0  0  0  0  0
   11.1592    0.6582   26.4876 H   0  0  0  0  0  0  0  0  0  0  0  0
    9.3378    1.0428   25.4505 C   0  0  0  0  0  0  0  0  0  0  0  0
    8.7731    0.3638   26.0799 H   0  0  0  0  0  0  0  0  0  0  0  0
    5.3863    0.6450   20.0866 C   0  0  0  0  0  0  0  0  0  0  0  0
    4.9534    0.6636   21.0885 H   0  0  0  0  0  0  0  0  0  0  0  0
    4.7958    1.3160   19.0203 C   0  0  0  0  0  0  0  0  0  0  0  0
    3.8669    1.8579   19.1485 H   0  0  0  0  0  0  0  0  0  0  0  0
  1  2  1  0
  2  3  2  0
  3  4  1  0
  4  5  1  0
  4  6  2  0
  6  7  1  0
  7  8  2  0
  8  9  1  0
  9 10  1  0
  9 11  1  0
 11 12  2  0
 11 13  1  0
 13 14  1  0
 14 15  1  0
 14 16  1  0
 16 17  1  0
 16 18  1  0
 16 19  1  0
 19 20  2  0
 20 21  1  0
 20 22  1  0
 22 23  1  0
 22 24  2  0
 24 25  1  0
 25 26  1  0
 25 27  2  0
 27 28  1  0
  6 29  1  0
 29 30  1  0
 29 31  2  0
 31 32  1  0
 31  2  1  0
 13  7  1  0
 27 19  1  0
M  END
>  <cnnaffinity>  (1) 
-5.05544

>  <filename>  (1) 
O=c1[nH]nc(-c2cccnc2)n1NCc1ccncc1

$$$$
