
     RDKit          3D

 30 32  0  0  0  0  0  0  0  0999 V2000
    4.8987    1.8020   16.8533 H   0  0  0  0  0  0  0  0  0  0  0  0
    5.3442    1.3894   17.7542 C   0  0  0  0  0  0  0  0  0  0  0  0
    6.5600    0.8461   17.5952 N   0  0  0  0  0  0  0  0  0  0  0  0
    7.1502    0.3451   18.6839 C   0  0  0  0  0  0  0  0  0  0  0  0
    8.1408   -0.0764   18.5129 H   0  0  0  0  0  0  0  0  0  0  0  0
    6.5808    0.3555   19.9737 C   0  0  0  0  0  0  0  0  0  0  0  0
    7.2580   -0.3871   21.0732 C   0  0  0  0  0  0  0  0  0  0  0  0
    7.6014    0.4850   22.5494 S   0  0  0  0  0  0  0  0  0  0  0  0
    8.1920   -0.7914   23.6053 C   0  0  0  0  0  0  0  0  0  0  0  0
    8.3329   -0.4004   25.0398 C   0  0  0  0  0  0  0  0  0  0  0  0
    9.5349   -0.6526   25.7234 C   0  0  0  0  0  0  0  0  0  0  0  0
   10.3908   -1.0422   25.1792 H   0  0  0  0  0  0  0  0  0  0  0  0
    9.6307   -0.3906   27.0916 C   0  0  0  0  0  0  0  0  0  0  0  0
   10.5553   -0.5836   27.6190 H   0  0  0  0  0  0  0  0  0  0  0  0
    8.5453    0.1327   27.7991 C   0  0  0  0  0  0  0  0  0  0  0  0
    8.6145    0.3386   28.8638 H   0  0  0  0  0  0  0  0  0  0  0  0
    7.3616    0.4094   27.1117 C   0  0  0  0  0  0  0  0  0  0  0  0
    6.0289    1.1159   27.9798 Cl  0  0  0  0  0  0  0  0  0  0  0  0
    7.2430    0.1412   25.7469 C   0  0  0  0  0  0  0  0  0  0  0  0
    6.3076    0.3307   25.2305 H   0  0  0  0  0  0  0  0  0  0  0  0
    8.4872   -2.0424   23.1938 C   0  0  0  0  0  0  0  0  0  0  0  0
    8.9192   -2.7630   23.8848 H   0  0  0  0  0  0  0  0  0  0  0  0
    8.1940   -2.5772   21.8644 C   0  0  0  0  0  0  0  0  0  0  0  0
    8.4473   -3.7383   21.5753 O   0  0  0  0  0  0  0  0  0  0  0  0
    7.5710   -1.6821   20.8884 C   0  0  0  0  0  0  0  0  0  0  0  0
    7.3499   -2.1540   19.9424 H   0  0  0  0  0  0  0  0  0  0  0  0
    5.3223    0.9599   20.1255 C   0  0  0  0  0  0  0  0  0  0  0  0
    4.8670    1.0267   21.1152 H   0  0  0  0  0  0  0  0  0  0  0  0
    4.6848    1.4659   18.9881 C   0  0  0  0  0  0  0  0  0  0  0  0
    3.7166    1.9528   19.0460 H   0  0  0  0  0  0  0  0  0  0  0  0
  1  2  1  0
  2  3  2  0
  3  4  1  0
  4  5  1  0
  4  6  2  0
  6  7  1  0
  7  8  1  0
  8  9  1  0
  9 10  1  0
 10 11  2  0
 11 12  1  0
 11 13  1  0
 13 14  1  0
 13 15  2  0
 15 16  1  0
 15 17  1  0
 17 18  1  0
 17 19  2  0
 19 20  1  0
  9 21  2  0
 21 22  1  0
 21 23  1  0
 23 24  2  0
 23 25  1  0
 25 26  1  0
  6 27  1  0
 27 28  1  0
 27 29  2  0
 29 30  1  0
 29  2  1  0
 25  7  2  0
 19 10  1  0
M  END
>  <cnnaffinity>  (1) 
-5.27626

>  <filename>  (1) 
O=c1cc(-c2cccnc2)sc(-c2cccc(Cl)c2)c1

$$$$
