
     RDKit          3D

 34 36  0  0  0  0  0  0  0  0999 V2000
    4.9147    1.7884   16.9861 H   0  0  0  0  0  0  0  0  0  0  0  0
    5.3960    1.2999   17.8264 C   0  0  0  0  0  0  0  0  0  0  0  0
    6.5574    0.6819   17.5583 N   0  0  0  0  0  0  0  0  0  0  0  0
    7.1636    0.0771   18.5845 C   0  0  0  0  0  0  0  0  0  0  0  0
    8.1063   -0.4215   18.3653 H   0  0  0  0  0  0  0  0  0  0  0  0
    6.6470    0.0156   19.8909 C   0  0  0  0  0  0  0  0  0  0  0  0
    7.3676   -0.7064   20.9681 C   0  0  0  0  0  0  0  0  0  0  0  0
    8.7793   -0.5488   21.1263 C   0  0  0  0  0  0  0  0  0  0  0  0
    9.3089    0.1259   20.4452 H   0  0  0  0  0  0  0  0  0  0  0  0
    9.4213   -1.2054   22.1310 C   0  0  0  0  0  0  0  0  0  0  0  0
   10.4866   -1.1298   22.3041 H   0  0  0  0  0  0  0  0  0  0  0  0
    8.7219   -2.0862   23.0563 C   0  0  0  0  0  0  0  0  0  0  0  0
    9.2815   -2.6970   23.9587 O   0  0  0  0  0  0  0  0  0  0  0  0
    7.3253   -2.1993   22.8443 N   0  0  0  0  0  0  0  0  0  0  0  0
    6.5469   -3.0769   23.7423 C   0  0  0  0  0  0  0  0  0  0  0  0
    5.4984   -2.9666   23.4478 H   0  0  0  0  0  0  0  0  0  0  0  0
    6.6557   -2.7039   25.2387 C   0  0  0  0  0  0  0  0  0  0  0  0
    7.3132   -1.8441   25.3833 H   0  0  0  0  0  0  0  0  0  0  0  0
    5.6707   -2.4052   25.6157 H   0  0  0  0  0  0  0  0  0  0  0  0
    7.1755   -3.9561   25.9692 C   0  0  0  0  0  0  0  0  0  0  0  0
    6.7151   -4.0725   26.9560 H   0  0  0  0  0  0  0  0  0  0  0  0
    8.2570   -3.8637   26.1160 H   0  0  0  0  0  0  0  0  0  0  0  0
    6.8590   -5.1374   25.0389 C   0  0  0  0  0  0  0  0  0  0  0  0
    5.8517   -5.5266   25.2402 H   0  0  0  0  0  0  0  0  0  0  0  0
    7.5523   -5.9741   25.1811 H   0  0  0  0  0  0  0  0  0  0  0  0
    6.9347   -4.5651   23.6152 C   0  0  0  0  0  0  0  0  0  0  0  0
    7.9496   -4.6445   23.2191 H   0  0  0  0  0  0  0  0  0  0  0  0
    6.2726   -5.0903   22.9170 H   0  0  0  0  0  0  0  0  0  0  0  0
    6.6938   -1.5255   21.8326 C   0  0  0  0  0  0  0  0  0  0  0  0
    5.6184   -1.6868   21.7321 H   0  0  0  0  0  0  0  0  0  0  0  0
    5.4237    0.6512   20.1460 C   0  0  0  0  0  0  0  0  0  0  0  0
    5.0090    0.6357   21.1594 H   0  0  0  0  0  0  0  0  0  0  0  0
    4.7992    1.3199   19.0941 C   0  0  0  0  0  0  0  0  0  0  0  0
    3.8668    1.8494   19.2511 H   0  0  0  0  0  0  0  0  0  0  0  0
  1  2  1  0
  2  3  2  0
  3  4  1  0
  4  5  1  0
  4  6  2  0
  6  7  1  0
  7  8  1  0
  8  9  1  0
  8 10  2  0
 10 11  1  0
 10 12  1  0
 12 13  2  0
 12 14  1  0
 14 15  1  0
 15 16  1  0
 15 17  1  0
 17 18  1  0
 17 19  1  0
 17 20  1  0
 20 21  1  0
 20 22  1  0
 20 23  1  0
 23 24  1  0
 23 25  1  0
 23 26  1  0
 26 27  1  0
 26 28  1  0
 14 29  1  0
 29 30  1  0
  6 31  1  0
 31 32  1  0
 31 33  2  0
 33 34  1  0
 33  2  1  0
 29  7  2  0
 26 15  1  0
M  END
>  <cnnaffinity>  (1) 
-5.11269

>  <filename>  (1) 
O=c1ccc(-c2cccnc2)cn1C1CCCC1

$$$$
