
     RDKit          3D

 34 36  0  0  0  0  0  0  0  0999 V2000
    4.9102    1.7880   16.9901 H   0  0  0  0  0  0  0  0  0  0  0  0
    5.3959    1.2987   17.8283 C   0  0  0  0  0  0  0  0  0  0  0  0
    6.5538    0.6802   17.5496 N   0  0  0  0  0  0  0  0  0  0  0  0
    7.1655    0.0733   18.5750 C   0  0  0  0  0  0  0  0  0  0  0  0
    8.1119   -0.4224   18.3630 H   0  0  0  0  0  0  0  0  0  0  0  0
    6.6614    0.0294   19.8867 C   0  0  0  0  0  0  0  0  0  0  0  0
    7.3635   -0.7251   20.9519 C   0  0  0  0  0  0  0  0  0  0  0  0
    6.7420   -1.9056   21.4677 C   0  0  0  0  0  0  0  0  0  0  0  0
    5.7740   -2.1898   21.0410 H   0  0  0  0  0  0  0  0  0  0  0  0
    7.3545   -2.6528   22.4229 C   0  0  0  0  0  0  0  0  0  0  0  0
    6.9348   -3.5572   22.8387 H   0  0  0  0  0  0  0  0  0  0  0  0
    8.6457   -2.2541   22.9705 C   0  0  0  0  0  0  0  0  0  0  0  0
    9.2738   -2.8464   23.8294 O   0  0  0  0  0  0  0  0  0  0  0  0
    9.1689   -1.0891   22.4231 N   0  0  0  0  0  0  0  0  0  0  0  0
   10.0446   -0.8306   22.8508 H   0  0  0  0  0  0  0  0  0  0  0  0
    8.5906   -0.3204   21.4453 C   0  0  0  0  0  0  0  0  0  0  0  0
    9.2902    0.9616   21.0878 C   0  0  0  0  0  0  0  0  0  0  0  0
    8.8412    1.3413   20.1695 H   0  0  0  0  0  0  0  0  0  0  0  0
   10.3514    0.7717   20.8865 H   0  0  0  0  0  0  0  0  0  0  0  0
    9.1244    2.0329   22.1563 C   0  0  0  0  0  0  0  0  0  0  0  0
    7.8878    2.6937   22.2821 C   0  0  0  0  0  0  0  0  0  0  0  0
    7.0904    2.4493   21.5807 H   0  0  0  0  0  0  0  0  0  0  0  0
    7.6694    3.6395   23.2842 C   0  0  0  0  0  0  0  0  0  0  0  0
    6.7090    4.1418   23.3597 H   0  0  0  0  0  0  0  0  0  0  0  0
    8.6958    3.9443   24.1844 C   0  0  0  0  0  0  0  0  0  0  0  0
    8.5391    4.6833   24.9639 H   0  0  0  0  0  0  0  0  0  0  0  0
    9.9299    3.3034   24.0816 C   0  0  0  0  0  0  0  0  0  0  0  0
   10.7489    3.5286   24.7515 H   0  0  0  0  0  0  0  0  0  0  0  0
   10.1310    2.3572   23.0748 C   0  0  0  0  0  0  0  0  0  0  0  0
   11.6901    1.5744   22.9978 Cl  0  0  0  0  0  0  0  0  0  0  0  0
    5.4372    0.6534   20.1505 C   0  0  0  0  0  0  0  0  0  0  0  0
    5.0182    0.6198   21.1633 H   0  0  0  0  0  0  0  0  0  0  0  0
    4.8013    1.3157   19.0989 C   0  0  0  0  0  0  0  0  0  0  0  0
    3.8690    1.8457   19.2566 H   0  0  0  0  0  0  0  0  0  0  0  0
  1  2  1  0
  2  3  2  0
  3  4  1  0
  4  5  1  0
  4  6  2  0
  6  7  1  0
  7  8  1  0
  8  9  1  0
  8 10  2  0
 10 11  1  0
 10 12  1  0
 12 13  2  0
 12 14  1  0
 14 15  1  0
 14 16  1  0
 16 17  1  0
 17 18  1  0
 17 19  1  0
 17 20  1  0
 20 21  2  0
 21 22  1  0
 21 23  1  0
 23 24  1  0
 23 25  2  0
 25 26  1  0
 25 27  1  0
 27 28  1  0
 27 29  2  0
 29 30  1  0
  6 31  1  0
 31 32  1  0
 31 33  2  0
 33 34  1  0
 33  2  1  0
 16  7  2  0
 29 20  1  0
M  END
>  <cnnaffinity>  (1) 
-5.42161

>  <filename>  (1) 
O=c1ccc(-c2cccnc2)c(Cc2ccccc2Cl)[nH]1

$$$$
