
     RDKit          3D

 40 42  0  0  0  0  0  0  0  0999 V2000
    5.0007    1.8437   16.9196 H   0  0  0  0  0  0  0  0  0  0  0  0
    5.4488    1.3215   17.7617 C   0  0  0  0  0  0  0  0  0  0  0  0
    6.6013    0.6787   17.5108 N   0  0  0  0  0  0  0  0  0  0  0  0
    7.1791    0.0364   18.5335 C   0  0  0  0  0  0  0  0  0  0  0  0
    8.1109   -0.4819   18.3014 H   0  0  0  0  0  0  0  0  0  0  0  0
    6.6523   -0.0235   19.8408 C   0  0  0  0  0  0  0  0  0  0  0  0
    7.3769   -0.7447   20.9243 C   0  0  0  0  0  0  0  0  0  0  0  0
    6.7215   -1.6040   21.8614 C   0  0  0  0  0  0  0  0  0  0  0  0
    5.6503   -1.7854   21.7539 H   0  0  0  0  0  0  0  0  0  0  0  0
    7.4333   -2.2097   22.8547 C   0  0  0  0  0  0  0  0  0  0  0  0
    6.9919   -2.8642   23.5933 H   0  0  0  0  0  0  0  0  0  0  0  0
    8.8679   -1.9959   23.0259 C   0  0  0  0  0  0  0  0  0  0  0  0
    9.5188   -2.4761   23.9456 O   0  0  0  0  0  0  0  0  0  0  0  0
    9.4648   -1.1707   22.0419 N   0  0  0  0  0  0  0  0  0  0  0  0
   10.8782   -0.7910   22.1839 C   0  0  0  0  0  0  0  0  0  0  0  0
   11.3344   -1.4959   22.8794 H   0  0  0  0  0  0  0  0  0  0  0  0
   11.3761   -0.9259   21.2122 H   0  0  0  0  0  0  0  0  0  0  0  0
   11.0328    0.6618   22.6944 C   0  0  0  0  0  0  0  0  0  0  0  0
   10.4185    1.2985   22.0419 H   0  0  0  0  0  0  0  0  0  0  0  0
   10.5560    0.8377   24.1522 C   0  0  0  0  0  0  0  0  0  0  0  0
    9.5004    0.5649   24.2589 H   0  0  0  0  0  0  0  0  0  0  0  0
   10.6300    1.9099   24.3898 H   0  0  0  0  0  0  0  0  0  0  0  0
   11.4406    0.0687   25.1492 C   0  0  0  0  0  0  0  0  0  0  0  0
   11.1122    0.2899   26.1727 H   0  0  0  0  0  0  0  0  0  0  0  0
   11.2694   -1.0042   25.0242 H   0  0  0  0  0  0  0  0  0  0  0  0
   12.9260    0.4521   24.9811 C   0  0  0  0  0  0  0  0  0  0  0  0
   13.0146    1.5041   25.2699 H   0  0  0  0  0  0  0  0  0  0  0  0
   13.5670   -0.1220   25.6622 H   0  0  0  0  0  0  0  0  0  0  0  0
   13.4311    0.3982   23.5279 C   0  0  0  0  0  0  0  0  0  0  0  0
   14.4377    0.8272   23.4605 H   0  0  0  0  0  0  0  0  0  0  0  0
   13.5301   -0.6271   23.1541 H   0  0  0  0  0  0  0  0  0  0  0  0
   12.4798    1.1764   22.6114 C   0  0  0  0  0  0  0  0  0  0  0  0
   12.4906    2.2335   22.9209 H   0  0  0  0  0  0  0  0  0  0  0  0
   12.8246    1.1603   21.5782 H   0  0  0  0  0  0  0  0  0  0  0  0
    8.7277   -0.5691   21.0541 C   0  0  0  0  0  0  0  0  0  0  0  0
    9.2728    0.1008   20.3904 H   0  0  0  0  0  0  0  0  0  0  0  0
    5.4420    0.6460   20.0710 C   0  0  0  0  0  0  0  0  0  0  0  0
    5.0134    0.6528   21.0730 H   0  0  0  0  0  0  0  0  0  0  0  0
    4.8335    1.3310   19.0181 C   0  0  0  0  0  0  0  0  0  0  0  0
    3.9071    1.8756   19.1576 H   0  0  0  0  0  0  0  0  0  0  0  0
  1  2  1  0
  2  3  2  0
  3  4  1  0
  4  5  1  0
  4  6  2  0
  6  7  1  0
  7  8  1  0
  8  9  1  0
  8 10  2  0
 10 11  1  0
 10 12  1  0
 12 13  2  0
 12 14  1  0
 14 15  1  0
 15 16  1  0
 15 17  1  0
 15 18  1  0
 18 19  1  0
 18 20  1  0
 20 21  1  0
 20 22  1  0
 20 23  1  0
 23 24  1  0
 23 25  1  0
 23 26  1  0
 26 27  1  0
 26 28  1  0
 26 29  1  0
 29 30  1  0
 29 31  1  0
 29 32  1  0
 32 33  1  0
 32 34  1  0
 14 35  1  0
 35 36  1  0
  6 37  1  0
 37 38  1  0
 37 39  2  0
 39 40  1  0
 39  2  1  0
 35  7  2  0
 32 18  1  0
M  END
>  <cnnaffinity>  (1) 
-5.36246

>  <filename>  (1) 
O=c1ccc(-c2cccnc2)cn1CC1CCCCC1

$$$$
