
     RDKit          3D

 39 42  0  0  0  0  0  0  0  0999 V2000
    9.7516    0.3015   20.6361 O   0  0  0  0  0  0  0  0  0  0  0  0
   10.1470    0.5160   21.7526 C   0  0  0  0  0  0  0  0  0  0  0  0
   11.4607    0.1541   22.3533 C   0  0  0  0  0  0  0  0  0  0  0  0
   12.5311   -0.5640   21.8155 C   0  0  0  0  0  0  0  0  0  0  0  0
   13.7456   -0.5418   22.5061 C   0  0  0  0  0  0  0  0  0  0  0  0
   13.8649    0.1965   23.7032 C   0  0  0  0  0  0  0  0  0  0  0  0
   12.7706    0.8624   24.2644 C   0  0  0  0  0  0  0  0  0  0  0  0
   11.5513    0.7948   23.5830 C   0  0  0  0  0  0  0  0  0  0  0  0
   10.2143    1.3923   23.8716 C   0  0  0  0  0  0  0  0  0  0  0  0
    9.8091    1.9070   24.8889 O   0  0  0  0  0  0  0  0  0  0  0  0
    9.4638    1.2631   22.7089 N   0  0  0  0  0  0  0  0  0  0  0  0
    8.0247    1.5072   22.6692 C   0  0  0  0  0  0  0  0  0  0  0  0
    7.2436    0.2831   23.1225 C   0  0  0  0  0  0  0  0  0  0  0  0
    6.8560    0.1340   24.4679 C   0  0  0  0  0  0  0  0  0  0  0  0
    6.3443   -1.0759   24.9506 C   0  0  0  0  0  0  0  0  0  0  0  0
    6.2070   -2.1674   24.0876 C   0  0  0  0  0  0  0  0  0  0  0  0
    6.5466   -2.0291   22.7417 C   0  0  0  0  0  0  0  0  0  0  0  0
    7.0160   -0.8070   22.2599 C   0  0  0  0  0  0  0  0  0  0  0  0
    7.3148   -0.7921   20.9163 O   0  0  0  0  0  0  0  0  0  0  0  0
    6.6479   -0.0206   20.0042 C   0  0  0  0  0  0  0  0  0  0  0  0
    5.4244    0.6184   20.2215 C   0  0  0  0  0  0  0  0  0  0  0  0
    4.8450    1.2900   19.1339 C   0  0  0  0  0  0  0  0  0  0  0  0
    5.4968    1.2924   17.8973 C   0  0  0  0  0  0  0  0  0  0  0  0
    6.6793    0.6882   17.6901 N   0  0  0  0  0  0  0  0  0  0  0  0
    7.2422    0.0620   18.7313 C   0  0  0  0  0  0  0  0  0  0  0  0
    8.2075   -0.4195   18.5809 H   0  0  0  0  0  0  0  0  0  0  0  0
    5.0584    1.7898   17.0335 H   0  0  0  0  0  0  0  0  0  0  0  0
    3.8999    1.8110   19.2338 H   0  0  0  0  0  0  0  0  0  0  0  0
    4.9510    0.5932   21.2037 H   0  0  0  0  0  0  0  0  0  0  0  0
    6.4513   -2.8403   22.0290 H   0  0  0  0  0  0  0  0  0  0  0  0
    5.8331   -3.1207   24.4534 H   0  0  0  0  0  0  0  0  0  0  0  0
    6.0609   -1.1701   25.9950 H   0  0  0  0  0  0  0  0  0  0  0  0
    6.9815    0.9707   25.1537 H   0  0  0  0  0  0  0  0  0  0  0  0
    7.7688    1.8051   21.6507 H   0  0  0  0  0  0  0  0  0  0  0  0
    7.8187    2.3615   23.3206 H   0  0  0  0  0  0  0  0  0  0  0  0
   12.8756    1.3953   25.2037 H   0  0  0  0  0  0  0  0  0  0  0  0
   14.8190    0.2112   24.2138 H   0  0  0  0  0  0  0  0  0  0  0  0
   14.6044   -1.0751   22.0968 H   0  0  0  0  0  0  0  0  0  0  0  0
   12.4212   -1.1001   20.8743 H   0  0  0  0  0  0  0  0  0  0  0  0
  1  2  2  0
  2  3  1  0
  3  4  2  0
  4  5  1  0
  5  6  2  0
  6  7  1  0
  7  8  2  0
  8  9  1  0
  9 10  2  0
  9 11  1  0
 11 12  1  0
 12 13  1  0
 13 14  2  0
 14 15  1  0
 15 16  2  0
 16 17  1  0
 17 18  2  0
 18 19  1  0
 19 20  1  0
 20 21  2  0
 21 22  1  0
 22 23  2  0
 23 24  1  0
 24 25  2  0
 25 26  1  0
 23 27  1  0
 22 28  1  0
 21 29  1  0
 17 30  1  0
 16 31  1  0
 15 32  1  0
 14 33  1  0
 12 34  1  0
 12 35  1  0
  7 36  1  0
  6 37  1  0
  5 38  1  0
  4 39  1  0
 11  2  1  0
 18 13  1  0
 25 20  1  0
  8  3  1  0
M  END
>  <cnnaffinity>  (1) 
-5.68269

>  <filename>  (1) 
O=C1c2ccccc2C(=O)N1Cc1ccccc1Oc1cccnc1

$$$$
