
     RDKit          3D

 29 31  0  0  0  0  0  0  0  0999 V2000
    4.9335    1.8281   16.9756 H   0  0  0  0  0  0  0  0  0  0  0  0
    5.3803    1.3018   17.8168 C   0  0  0  0  0  0  0  0  0  0  0  0
    6.5331    0.6639   17.5645 N   0  0  0  0  0  0  0  0  0  0  0  0
    7.1275    0.0431   18.5879 C   0  0  0  0  0  0  0  0  0  0  0  0
    8.0930   -0.4193   18.3856 H   0  0  0  0  0  0  0  0  0  0  0  0
    6.5907   -0.0174   19.8886 C   0  0  0  0  0  0  0  0  0  0  0  0
    7.2958   -0.7481   20.9932 C   0  0  0  0  0  0  0  0  0  0  0  0
    6.5406   -1.4844   21.7597 N   0  0  0  0  0  0  0  0  0  0  0  0
    7.1227   -2.2176   22.7860 N   0  0  0  0  0  0  0  0  0  0  0  0
    6.3371   -3.0635   23.6062 C   0  0  0  0  0  0  0  0  0  0  0  0
    6.7710   -3.6615   24.6510 N   0  0  0  0  0  0  0  0  0  0  0  0
    5.6432   -4.3937   25.2238 C   0  0  0  0  0  0  0  0  0  0  0  0
    5.8428   -5.4753   25.1925 H   0  0  0  0  0  0  0  0  0  0  0  0
    5.5261   -4.1219   26.2832 H   0  0  0  0  0  0  0  0  0  0  0  0
    4.4037   -4.0030   24.3641 C   0  0  0  0  0  0  0  0  0  0  0  0
    3.6978   -3.3782   24.9283 H   0  0  0  0  0  0  0  0  0  0  0  0
    3.8615   -4.8853   24.0068 H   0  0  0  0  0  0  0  0  0  0  0  0
    5.0321   -3.2983   23.2405 N   0  0  0  0  0  0  0  0  0  0  0  0
    4.6616   -2.4583   22.8140 H   0  0  0  0  0  0  0  0  0  0  0  0
    8.4771   -2.1427   23.0621 C   0  0  0  0  0  0  0  0  0  0  0  0
    8.7945   -2.7488   23.9108 H   0  0  0  0  0  0  0  0  0  0  0  0
    9.3032   -1.3901   22.3246 C   0  0  0  0  0  0  0  0  0  0  0  0
   10.3649   -1.3209   22.5123 H   0  0  0  0  0  0  0  0  0  0  0  0
    8.7946   -0.5929   21.2104 C   0  0  0  0  0  0  0  0  0  0  0  0
    9.5243    0.1232   20.5364 O   0  0  0  0  0  0  0  0  0  0  0  0
    5.3763    0.6408   20.1264 C   0  0  0  0  0  0  0  0  0  0  0  0
    4.9476    0.6226   21.1277 H   0  0  0  0  0  0  0  0  0  0  0  0
    4.7642    1.3229   19.0731 C   0  0  0  0  0  0  0  0  0  0  0  0
    3.8465    1.8887   19.2128 H   0  0  0  0  0  0  0  0  0  0  0  0
  1  2  1  0
  2  3  2  0
  3  4  1  0
  4  5  1  0
  4  6  2  0
  6  7  1  0
  7  8  2  0
  8  9  1  0
  9 10  1  0
 10 11  2  0
 11 12  1  0
 12 13  1  0
 12 14  1  0
 12 15  1  0
 15 16  1  0
 15 17  1  0
 15 18  1  0
 18 19  1  0
  9 20  1  0
 20 21  1  0
 20 22  2  0
 22 23  1  0
 22 24  1  0
 24 25  2  0
  6 26  1  0
 26 27  1  0
 26 28  2  0
 28 29  1  0
 28  2  1  0
 24  7  1  0
 18 10  1  0
M  END
>  <cnnaffinity>  (1) 
-4.79803

>  <filename>  (1) 
O=c1ccn(C2=NCCN2)nc1-c1cccnc1

$$$$
