
     RDKit          3D

 30 32  0  0  0  0  0  0  0  0999 V2000
    4.9336    1.7964   16.9866 H   0  0  0  0  0  0  0  0  0  0  0  0
    5.4006    1.2969   17.8333 C   0  0  0  0  0  0  0  0  0  0  0  0
    6.5643    0.6763   17.5806 N   0  0  0  0  0  0  0  0  0  0  0  0
    7.1600    0.0500   18.5978 C   0  0  0  0  0  0  0  0  0  0  0  0
    8.1063   -0.4383   18.3653 H   0  0  0  0  0  0  0  0  0  0  0  0
    6.6397    0.0224   19.9010 C   0  0  0  0  0  0  0  0  0  0  0  0
    7.3772   -0.6966   20.9348 C   0  0  0  0  0  0  0  0  0  0  0  0
    7.9550   -1.8336   20.7046 N   0  0  0  0  0  0  0  0  0  0  0  0
    8.4366   -2.2101   21.9247 N   0  0  0  0  0  0  0  0  0  0  0  0
    8.9474   -3.0572   22.1015 H   0  0  0  0  0  0  0  0  0  0  0  0
    8.2039   -1.3191   22.9208 C   0  0  0  0  0  0  0  0  0  0  0  0
    8.5543   -1.4216   24.0793 O   0  0  0  0  0  0  0  0  0  0  0  0
    7.4968   -0.3056   22.2574 N   0  0  0  0  0  0  0  0  0  0  0  0
    7.1454    0.9338   22.8568 C   0  0  0  0  0  0  0  0  0  0  0  0
    6.4855    0.9299   24.0895 C   0  0  0  0  0  0  0  0  0  0  0  0
    6.2844   -0.0184   24.5754 H   0  0  0  0  0  0  0  0  0  0  0  0
    6.1250    2.1332   24.6891 C   0  0  0  0  0  0  0  0  0  0  0  0
    5.6338    2.1601   25.6554 H   0  0  0  0  0  0  0  0  0  0  0  0
    6.4302    3.3376   24.0428 C   0  0  0  0  0  0  0  0  0  0  0  0
    6.0581    4.6226   24.6792 N   0  0  0  0  0  4  0  0  0  0  0  0
    5.4980    4.5975   25.7639 O   0  0  0  0  0  0  0  0  0  0  0  0
    6.3335    5.6530   24.0854 O   0  0  0  0  0  1  0  0  0  0  0  0
    7.0901    3.3474   22.8059 C   0  0  0  0  0  0  0  0  0  0  0  0
    7.2992    4.2946   22.3207 H   0  0  0  0  0  0  0  0  0  0  0  0
    7.4519    2.1412   22.2159 C   0  0  0  0  0  0  0  0  0  0  0  0
    7.9281    2.1196   21.2410 H   0  0  0  0  0  0  0  0  0  0  0  0
    5.4169    0.6559   20.1490 C   0  0  0  0  0  0  0  0  0  0  0  0
    5.0019    0.6503   21.1596 H   0  0  0  0  0  0  0  0  0  0  0  0
    4.7926    1.3110   19.0946 C   0  0  0  0  0  0  0  0  0  0  0  0
    3.8639    1.8476   19.2392 H   0  0  0  0  0  0  0  0  0  0  0  0
  1  2  1  0
  2  3  2  0
  3  4  1  0
  4  5  1  0
  4  6  2  0
  6  7  1  0
  7  8  2  0
  8  9  1  0
  9 10  1  0
  9 11  1  0
 11 12  2  0
 11 13  1  0
 13 14  1  0
 14 15  2  0
 15 16  1  0
 15 17  1  0
 17 18  1  0
 17 19  2  0
 19 20  1  0
 20 21  2  0
 20 22  1  0
 19 23  1  0
 23 24  1  0
 23 25  2  0
 25 26  1  0
  6 27  1  0
 27 28  1  0
 27 29  2  0
 29 30  1  0
 29  2  1  0
 13  7  1  0
 25 14  1  0
M  CHG  2  20   1  22  -1
M  END
>  <cnnaffinity>  (1) 
-5.07869

>  <filename>  (1) 
O=c1[nH]nc(-c2cccnc2)n1-c1ccc([N+](=O)[O-])cc1

$$$$
