
     RDKit          3D

 28 30  0  0  0  0  0  0  0  0999 V2000
    4.9337    1.7962   16.9864 H   0  0  0  0  0  0  0  0  0  0  0  0
    5.4010    1.2963   17.8330 C   0  0  0  0  0  0  0  0  0  0  0  0
    6.5648    0.6762   17.5800 N   0  0  0  0  0  0  0  0  0  0  0  0
    7.1605    0.0486   18.5969 C   0  0  0  0  0  0  0  0  0  0  0  0
    8.1064   -0.4383   18.3647 H   0  0  0  0  0  0  0  0  0  0  0  0
    6.6402    0.0178   19.8993 C   0  0  0  0  0  0  0  0  0  0  0  0
    7.3782   -0.7038   20.9303 C   0  0  0  0  0  0  0  0  0  0  0  0
    7.9562   -1.8416   20.6983 N   0  0  0  0  0  0  0  0  0  0  0  0
    8.4381   -2.2185   21.9198 N   0  0  0  0  0  0  0  0  0  0  0  0
    8.9477   -3.0646   22.0980 H   0  0  0  0  0  0  0  0  0  0  0  0
    8.2065   -1.3289   22.9172 C   0  0  0  0  0  0  0  0  0  0  0  0
    8.5574   -1.4333   24.0770 O   0  0  0  0  0  0  0  0  0  0  0  0
    7.4999   -0.3144   22.2549 N   0  0  0  0  0  0  0  0  0  0  0  0
    7.1446    0.9275   22.8573 C   0  0  0  0  0  0  0  0  0  0  0  0
    7.4490    2.1356   22.2197 C   0  0  0  0  0  0  0  0  0  0  0  0
    7.9245    2.1145   21.2433 H   0  0  0  0  0  0  0  0  0  0  0  0
    7.0852    3.3414   22.8234 C   0  0  0  0  0  0  0  0  0  0  0  0
    7.3044    4.2797   22.3227 H   0  0  0  0  0  0  0  0  0  0  0  0
    6.4290    3.3439   24.0593 C   0  0  0  0  0  0  0  0  0  0  0  0
    6.1551    4.2849   24.5296 H   0  0  0  0  0  0  0  0  0  0  0  0
    6.1327    2.1303   24.6891 C   0  0  0  0  0  0  0  0  0  0  0  0
    5.6430    2.1234   25.6581 H   0  0  0  0  0  0  0  0  0  0  0  0
    6.4889    0.9192   24.0910 C   0  0  0  0  0  0  0  0  0  0  0  0
    6.2928   -0.0357   24.5687 H   0  0  0  0  0  0  0  0  0  0  0  0
    5.4166    0.6527   20.1481 C   0  0  0  0  0  0  0  0  0  0  0  0
    5.0022    0.6487   21.1586 H   0  0  0  0  0  0  0  0  0  0  0  0
    4.7928    1.3097   19.0938 C   0  0  0  0  0  0  0  0  0  0  0  0
    3.8642    1.8466   19.2393 H   0  0  0  0  0  0  0  0  0  0  0  0
  1  2  1  0
  2  3  2  0
  3  4  1  0
  4  5  1  0
  4  6  2  0
  6  7  1  0
  7  8  2  0
  8  9  1  0
  9 10  1  0
  9 11  1  0
 11 12  2  0
 11 13  1  0
 13 14  1  0
 14 15  2  0
 15 16  1  0
 15 17  1  0
 17 18  1  0
 17 19  2  0
 19 20  1  0
 19 21  1  0
 21 22  1  0
 21 23  2  0
 23 24  1  0
  6 25  1  0
 25 26  1  0
 25 27  2  0
 27 28  1  0
 27  2  1  0
 13  7  1  0
 23 14  1  0
M  END
>  <cnnaffinity>  (1) 
-4.77289

>  <filename>  (1) 
O=c1[nH]nc(-c2cccnc2)n1-c1ccccc1

$$$$
