
     RDKit          3D

 33 35  0  0  0  0  0  0  0  0999 V2000
    4.9410    1.7852   16.9939 H   0  0  0  0  0  0  0  0  0  0  0  0
    5.4070    1.2903   17.8438 C   0  0  0  0  0  0  0  0  0  0  0  0
    6.5675    0.6636   17.5961 N   0  0  0  0  0  0  0  0  0  0  0  0
    7.1637    0.0438   18.6231 C   0  0  0  0  0  0  0  0  0  0  0  0
    8.1059   -0.4395   18.3666 H   0  0  0  0  0  0  0  0  0  0  0  0
    6.6426   -0.0139   19.9311 C   0  0  0  0  0  0  0  0  0  0  0  0
    7.3555   -0.7301   21.0231 C   0  0  0  0  0  0  0  0  0  0  0  0
    6.5815   -1.3307   21.9912 N   0  0  0  0  0  0  0  0  0  0  0  0
    7.1563   -1.9720   22.9695 C   0  0  0  0  0  0  0  0  0  0  0  0
    6.3018   -2.5559   23.8303 O   0  0  0  0  0  0  0  0  0  0  0  0
    6.7022   -3.0616   25.1194 C   0  0  0  0  0  0  0  0  0  0  0  0
    5.7733   -3.5066   25.4897 H   0  0  0  0  0  0  0  0  0  0  0  0
    7.4541   -3.8443   24.9994 H   0  0  0  0  0  0  0  0  0  0  0  0
    7.1933   -2.0030   26.0956 C   0  0  0  0  0  0  0  0  0  0  0  0
    6.5007   -0.7925   26.2302 C   0  0  0  0  0  0  0  0  0  0  0  0
    5.6092   -0.5991   25.6444 H   0  0  0  0  0  0  0  0  0  0  0  0
    6.9789    0.1692   27.1244 C   0  0  0  0  0  0  0  0  0  0  0  0
    6.4616    1.1211   27.2425 H   0  0  0  0  0  0  0  0  0  0  0  0
    8.0730   -0.0011   27.8711 N   0  0  0  0  0  0  0  0  0  0  0  0
    8.7324   -1.1580   27.7525 C   0  0  0  0  0  0  0  0  0  0  0  0
    9.6127   -1.2632   28.3855 H   0  0  0  0  0  0  0  0  0  0  0  0
    8.3214   -2.1947   26.9056 C   0  0  0  0  0  0  0  0  0  0  0  0
    8.8936   -3.1166   26.8758 H   0  0  0  0  0  0  0  0  0  0  0  0
    8.6787   -2.1007   23.1106 C   0  0  0  0  0  0  0  0  0  0  0  0
    9.3571   -2.6942   23.9393 O   0  0  0  0  0  0  0  0  0  0  0  0
    9.3416   -1.4275   22.1029 N   0  0  0  0  0  0  0  0  0  0  0  0
   10.3447   -1.5381   22.2233 H   0  0  0  0  0  0  0  0  0  0  0  0
    8.7207   -0.7600   21.0635 C   0  0  0  0  0  0  0  0  0  0  0  0
    9.3460   -0.2583   20.3357 H   0  0  0  0  0  0  0  0  0  0  0  0
    5.4246    0.6469   20.1633 C   0  0  0  0  0  0  0  0  0  0  0  0
    4.9869    0.6263   21.1625 H   0  0  0  0  0  0  0  0  0  0  0  0
    4.8046    1.3132   19.1065 C   0  0  0  0  0  0  0  0  0  0  0  0
    3.8714    1.8491   19.2460 H   0  0  0  0  0  0  0  0  0  0  0  0
  1  2  1  0
  2  3  2  0
  3  4  1  0
  4  5  1  0
  4  6  2  0
  6  7  1  0
  7  8  1  0
  8  9  2  0
  9 10  1  0
 10 11  1  0
 11 12  1  0
 11 13  1  0
 11 14  1  0
 14 15  2  0
 15 16  1  0
 15 17  1  0
 17 18  1  0
 17 19  2  0
 19 20  1  0
 20 21  1  0
 20 22  2  0
 22 23  1  0
  9 24  1  0
 24 25  2  0
 24 26  1  0
 26 27  1  0
 26 28  1  0
 28 29  1  0
  6 30  1  0
 30 31  1  0
 30 32  2  0
 32 33  1  0
 32  2  1  0
 28  7  2  0
 22 14  1  0
M  END
>  <cnnaffinity>  (1) 
-5.10791

>  <filename>  (1) 
O=c1[nH]cc(-c2cccnc2)nc1OCc1ccncc1

$$$$
