
     RDKit          3D

 33 35  0  0  0  0  0  0  0  0999 V2000
    4.9343    1.7837   16.8747 H   0  0  0  0  0  0  0  0  0  0  0  0
    5.3855    1.2749   17.7244 C   0  0  0  0  0  0  0  0  0  0  0  0
    6.5501    0.6548   17.4885 N   0  0  0  0  0  0  0  0  0  0  0  0
    7.1503    0.0647   18.5241 C   0  0  0  0  0  0  0  0  0  0  0  0
    8.1159   -0.3962   18.3262 H   0  0  0  0  0  0  0  0  0  0  0  0
    6.6324    0.0442   19.8320 C   0  0  0  0  0  0  0  0  0  0  0  0
    7.4140   -0.5830   20.9399 C   0  0  0  0  0  0  0  0  0  0  0  0
    6.7235   -1.2808   21.8041 N   0  0  0  0  0  0  0  0  0  0  0  0
    7.3547   -1.8198   22.8776 N   0  0  0  0  0  0  0  0  0  0  0  0
    6.5435   -2.7522   23.6657 C   0  0  0  0  0  0  0  0  0  0  0  0
    5.5327   -2.3555   23.6537 H   0  0  0  0  0  0  0  0  0  0  0  0
    6.8878   -2.7085   24.7036 H   0  0  0  0  0  0  0  0  0  0  0  0
    6.5632   -4.1734   23.1276 C   0  0  0  0  0  0  0  0  0  0  0  0
    5.4470   -4.7020   22.4584 C   0  0  0  0  0  0  0  0  0  0  0  0
    4.6065   -4.0527   22.2330 H   0  0  0  0  0  0  0  0  0  0  0  0
    5.4188   -6.0439   22.0620 C   0  0  0  0  0  0  0  0  0  0  0  0
    4.5330   -6.5023   21.6314 H   0  0  0  0  0  0  0  0  0  0  0  0
    6.5544   -6.8321   22.2648 C   0  0  0  0  0  0  0  0  0  0  0  0
    6.5187   -8.5301   21.9892 Cl  0  0  0  0  0  0  0  0  0  0  0  0
    7.7168   -6.2710   22.8070 C   0  0  0  0  0  0  0  0  0  0  0  0
    9.1517   -7.2201   22.8942 Cl  0  0  0  0  0  0  0  0  0  0  0  0
    7.7143   -4.9585   23.2687 C   0  0  0  0  0  0  0  0  0  0  0  0
    8.6000   -4.5841   23.7818 H   0  0  0  0  0  0  0  0  0  0  0  0
    8.7044   -1.7229   23.0849 C   0  0  0  0  0  0  0  0  0  0  0  0
    9.0815   -2.1731   24.0056 H   0  0  0  0  0  0  0  0  0  0  0  0
    9.5106   -1.0909   22.2106 C   0  0  0  0  0  0  0  0  0  0  0  0
   10.5833   -1.0343   22.3244 H   0  0  0  0  0  0  0  0  0  0  0  0
    8.9174   -0.4291   21.0607 C   0  0  0  0  0  0  0  0  0  0  0  0
    9.6028    0.2072   20.2655 O   0  0  0  0  0  0  0  0  0  0  0  0
    5.3841    0.6497   20.0497 C   0  0  0  0  0  0  0  0  0  0  0  0
    4.9308    0.6302   21.0409 H   0  0  0  0  0  0  0  0  0  0  0  0
    4.7630    1.2909   18.9768 C   0  0  0  0  0  0  0  0  0  0  0  0
    3.8211    1.8142   19.0958 H   0  0  0  0  0  0  0  0  0  0  0  0
  1  2  1  0
  2  3  2  0
  3  4  1  0
  4  5  1  0
  4  6  2  0
  6  7  1  0
  7  8  2  0
  8  9  1  0
  9 10  1  0
 10 11  1  0
 10 12  1  0
 10 13  1  0
 13 14  2  0
 14 15  1  0
 14 16  1  0
 16 17  1  0
 16 18  2  0
 18 19  1  0
 18 20  1  0
 20 21  1  0
 20 22  2  0
 22 23  1  0
  9 24  1  0
 24 25  1  0
 24 26  2  0
 26 27  1  0
 26 28  1  0
 28 29  2  0
  6 30  1  0
 30 31  1  0
 30 32  2  0
 32 33  1  0
 32  2  1  0
 28  7  1  0
 22 13  1  0
M  END
>  <cnnaffinity>  (1) 
-5.6651

>  <filename>  (1) 
O=c1ccn(Cc2ccc(Cl)c(Cl)c2)nc1-c1cccnc1

$$$$
