
     RDKit          3D

 36 38  0  0  0  0  0  0  0  0999 V2000
    5.0627    1.9110   16.9056 H   0  0  0  0  0  0  0  0  0  0  0  0
    5.4882    1.3742   17.7509 C   0  0  0  0  0  0  0  0  0  0  0  0
    6.6876    0.8133   17.5344 N   0  0  0  0  0  0  0  0  0  0  0  0
    7.2628    0.1676   18.5537 C   0  0  0  0  0  0  0  0  0  0  0  0
    8.2709   -0.2135   18.3854 H   0  0  0  0  0  0  0  0  0  0  0  0
    6.6377   -0.0310   19.8007 C   0  0  0  0  0  0  0  0  0  0  0  0
    7.3541   -0.8821   20.8150 C   0  0  0  0  0  0  0  0  0  0  0  0
    8.6427   -0.6668   20.8792 N   0  0  0  0  0  0  0  0  0  0  0  0
    9.3650   -1.2439   21.8993 N   0  0  0  0  0  0  0  0  0  0  0  0
   11.0707   -0.9689   21.9794 S   0  0  0  0  0  0  0  0  0  0  0  0
   11.5956   -2.1060   22.6900 O   0  0  0  0  0  0  0  0  0  0  0  0
   11.5725   -0.5769   20.6890 O   0  0  0  0  0  0  0  0  0  0  0  0
   11.2143    0.4108   22.9461 N   0  0  0  0  0  0  0  0  0  0  0  0
   10.7549    1.6624   22.2928 C   0  0  0  0  0  0  0  0  0  0  0  0
   11.2699    1.7601   21.3286 H   0  0  0  0  0  0  0  0  0  0  0  0
    9.6682    1.6431   22.1110 H   0  0  0  0  0  0  0  0  0  0  0  0
   11.1206    2.8720   23.1628 C   0  0  0  0  0  0  0  0  0  0  0  0
   12.2099    3.0094   23.1213 H   0  0  0  0  0  0  0  0  0  0  0  0
   10.6471    3.7745   22.7700 H   0  0  0  0  0  0  0  0  0  0  0  0
   10.6953    2.7436   24.5107 O   0  0  0  0  0  0  0  0  0  0  0  0
   11.2410    1.5787   25.1110 C   0  0  0  0  0  0  0  0  0  0  0  0
   12.3367    1.6489   25.1537 H   0  0  0  0  0  0  0  0  0  0  0  0
   10.8636    1.5447   26.1335 H   0  0  0  0  0  0  0  0  0  0  0  0
   10.8451    0.2940   24.3728 C   0  0  0  0  0  0  0  0  0  0  0  0
   11.3860   -0.5455   24.8239 H   0  0  0  0  0  0  0  0  0  0  0  0
    9.7621    0.1384   24.5167 H   0  0  0  0  0  0  0  0  0  0  0  0
    8.7812   -2.0285   22.8926 C   0  0  0  0  0  0  0  0  0  0  0  0
    9.4175   -2.3017   23.7353 H   0  0  0  0  0  0  0  0  0  0  0  0
    7.5087   -2.4098   22.7729 C   0  0  0  0  0  0  0  0  0  0  0  0
    7.0334   -3.0809   23.4726 H   0  0  0  0  0  0  0  0  0  0  0  0
    6.6901   -1.9574   21.6583 C   0  0  0  0  0  0  0  0  0  0  0  0
    5.5787   -2.4320   21.4490 O   0  0  0  0  0  0  0  0  0  0  0  0
    5.3976    0.5979   20.0202 C   0  0  0  0  0  0  0  0  0  0  0  0
    4.9059    0.5313   20.9907 H   0  0  0  0  0  0  0  0  0  0  0  0
    4.8157    1.3194   18.9742 C   0  0  0  0  0  0  0  0  0  0  0  0
    3.8694    1.8428   19.0844 H   0  0  0  0  0  0  0  0  0  0  0  0
  1  2  1  0
  2  3  2  0
  3  4  1  0
  4  5  1  0
  4  6  2  0
  6  7  1  0
  7  8  2  0
  8  9  1  0
  9 10  1  0
 10 11  2  0
 10 12  2  0
 10 13  1  0
 13 14  1  0
 14 15  1  0
 14 16  1  0
 14 17  1  0
 17 18  1  0
 17 19  1  0
 17 20  1  0
 20 21  1  0
 21 22  1  0
 21 23  1  0
 21 24  1  0
 24 25  1  0
 24 26  1  0
  9 27  1  0
 27 28  1  0
 27 29  2  0
 29 30  1  0
 29 31  1  0
 31 32  2  0
  6 33  1  0
 33 34  1  0
 33 35  2  0
 35 36  1  0
 35  2  1  0
 31  7  1  0
 24 13  1  0
M  END
>  <cnnaffinity>  (1) 
-5.64152

>  <filename>  (1) 
O=c1ccn(S(=O)(=O)N2CCOCC2)nc1-c1cccnc1

$$$$
