
     RDKit          3D

 36 39  0  0  0  0  0  0  0  0999 V2000
    4.9761    1.8044   17.0172 H   0  0  0  0  0  0  0  0  0  0  0  0
    5.4366    1.2922   17.8570 C   0  0  0  0  0  0  0  0  0  0  0  0
    6.6039    0.6730   17.6061 N   0  0  0  0  0  0  0  0  0  0  0  0
    7.1891    0.0398   18.6290 C   0  0  0  0  0  0  0  0  0  0  0  0
    8.1309   -0.4696   18.4385 H   0  0  0  0  0  0  0  0  0  0  0  0
    6.6560   -0.0032   19.9299 C   0  0  0  0  0  0  0  0  0  0  0  0
    7.3779   -0.7140   20.8558 O   0  0  0  0  0  0  0  0  0  0  0  0
    7.2979   -0.4000   22.1842 C   0  0  0  0  0  0  0  0  0  0  0  0
    7.1812   -1.3483   23.2118 C   0  0  0  0  0  0  0  0  0  0  0  0
    7.1350   -2.4236   23.1096 H   0  0  0  0  0  0  0  0  0  0  0  0
    7.1464   -0.7513   24.4037 N   0  0  0  0  0  0  0  0  0  0  0  0
    7.2548    0.5541   24.1338 N   0  0  0  0  0  0  0  0  0  0  0  0
    7.2444    1.2215   24.8931 H   0  0  0  0  0  0  0  0  0  0  0  0
    7.3731    0.8329   22.8079 C   0  0  0  0  0  0  0  0  0  0  0  0
    7.4980    2.2295   22.2745 C   0  0  0  0  0  0  0  0  0  0  0  0
    7.8047    2.1874   21.2240 H   0  0  0  0  0  0  0  0  0  0  0  0
    6.5154    2.7216   22.2983 H   0  0  0  0  0  0  0  0  0  0  0  0
    8.4464    3.0485   23.0297 N   0  0  0  0  0  0  0  0  0  0  0  0
    8.1026    3.8610   24.1044 C   0  0  0  0  0  0  0  0  0  0  0  0
    6.9681    4.0534   24.4768 O   0  0  0  0  0  0  0  0  0  0  0  0
    9.3802    4.3889   24.6717 C   0  0  0  0  0  0  0  0  0  0  0  0
    9.6187    5.3544   25.6522 C   0  0  0  0  0  0  0  0  0  0  0  0
    8.8009    5.7842   26.2303 H   0  0  0  0  0  0  0  0  0  0  0  0
   10.9445    5.7719   25.8419 C   0  0  0  0  0  0  0  0  0  0  0  0
   11.1599    6.5347   26.5858 H   0  0  0  0  0  0  0  0  0  0  0  0
   12.0052    5.1906   25.1082 C   0  0  0  0  0  0  0  0  0  0  0  0
   13.0326    5.5153   25.2736 H   0  0  0  0  0  0  0  0  0  0  0  0
   11.7529    4.1862   24.1695 C   0  0  0  0  0  0  0  0  0  0  0  0
   12.5566    3.7181   23.6074 H   0  0  0  0  0  0  0  0  0  0  0  0
   10.4241    3.8067   23.9597 C   0  0  0  0  0  0  0  0  0  0  0  0
    9.8278    2.8783   22.9525 C   0  0  0  0  0  0  0  0  0  0  0  0
   10.3912    2.1247   22.1968 O   0  0  0  0  0  0  0  0  0  0  0  0
    5.4365    0.6321   20.1846 C   0  0  0  0  0  0  0  0  0  0  0  0
    5.0021    0.6180   21.1856 H   0  0  0  0  0  0  0  0  0  0  0  0
    4.8215    1.2915   19.1132 C   0  0  0  0  0  0  0  0  0  0  0  0
    3.8787    1.8116   19.2447 H   0  0  0  0  0  0  0  0  0  0  0  0
  1  2  1  0
  2  3  2  0
  3  4  1  0
  4  5  1  0
  4  6  2  0
  6  7  1  0
  7  8  1  0
  8  9  1  0
  9 10  1  0
  9 11  2  0
 11 12  1  0
 12 13  1  0
 12 14  1  0
 14 15  1  0
 15 16  1  0
 15 17  1  0
 15 18  1  0
 18 19  1  0
 19 20  2  0
 19 21  1  0
 21 22  2  0
 22 23  1  0
 22 24  1  0
 24 25  1  0
 24 26  2  0
 26 27  1  0
 26 28  1  0
 28 29  1  0
 28 30  2  0
 30 31  1  0
 31 32  2  0
  6 33  1  0
 33 34  1  0
 33 35  2  0
 35 36  1  0
 35  2  1  0
 14  8  2  0
 31 18  1  0
 30 21  1  0
M  END
>  <cnnaffinity>  (1) 
-5.31506

>  <filename>  (1) 
O=C1c2ccccc2C(=O)N1Cc1[nH]ncc1Oc1cccnc1

$$$$
