
     RDKit          3D

 33 35  0  0  0  0  0  0  0  0999 V2000
    4.9232    1.8001   16.9724 H   0  0  0  0  0  0  0  0  0  0  0  0
    5.3929    1.2985   17.8187 C   0  0  0  0  0  0  0  0  0  0  0  0
    6.5570    0.6756   17.5701 N   0  0  0  0  0  0  0  0  0  0  0  0
    7.1634    0.0540   18.5898 C   0  0  0  0  0  0  0  0  0  0  0  0
    8.1203   -0.4041   18.3416 H   0  0  0  0  0  0  0  0  0  0  0  0
    6.6487    0.0037   19.9010 C   0  0  0  0  0  0  0  0  0  0  0  0
    7.3350   -0.6516   21.0072 C   0  0  0  0  0  0  0  0  0  0  0  0
    7.2368   -0.4359   22.3389 C   0  0  0  0  0  0  0  0  0  0  0  0
    6.6478    0.2870   22.8751 H   0  0  0  0  0  0  0  0  0  0  0  0
    8.0859   -1.3196   22.9960 N   0  0  0  0  0  0  0  0  0  0  0  0
    8.2722   -1.4164   24.3955 C   0  0  0  0  0  0  0  0  0  0  0  0
    8.2584   -0.2478   25.1638 C   0  0  0  0  0  0  0  0  0  0  0  0
    8.1200    0.7114   24.6810 H   0  0  0  0  0  0  0  0  0  0  0  0
    8.4482   -0.3292   26.5420 C   0  0  0  0  0  0  0  0  0  0  0  0
    8.4432    0.5679   27.1549 H   0  0  0  0  0  0  0  0  0  0  0  0
    8.6462   -1.5699   27.1413 C   0  0  0  0  0  0  0  0  0  0  0  0
    8.8251   -1.6494   28.1997 H   0  0  0  0  0  0  0  0  0  0  0  0
    8.6364   -2.7215   26.3555 C   0  0  0  0  0  0  0  0  0  0  0  0
    8.8326   -3.8932   27.0628 O   0  0  0  0  0  0  0  0  0  0  0  0
    8.8532   -5.0975   26.4660 C   0  0  0  0  0  0  0  0  0  0  0  0
    7.7198   -5.3895   25.8070 F   0  0  0  0  0  0  0  0  0  0  0  0
    9.0134   -5.9736   27.4408 F   0  0  0  0  0  0  0  0  0  0  0  0
    9.8517   -5.2289   25.5769 F   0  0  0  0  0  0  0  0  0  0  0  0
    8.4576   -2.6731   24.9812 C   0  0  0  0  0  0  0  0  0  0  0  0
    8.4798   -3.5619   24.3619 H   0  0  0  0  0  0  0  0  0  0  0  0
    8.7263   -2.1202   22.0521 C   0  0  0  0  0  0  0  0  0  0  0  0
    9.5101   -3.0332   22.2077 O   0  0  0  0  0  0  0  0  0  0  0  0
    8.2693   -1.6612   20.8455 N   0  0  0  0  0  0  0  0  0  0  0  0
    8.5489   -2.1620   20.0239 H   0  0  0  0  0  0  0  0  0  0  0  0
    5.4279    0.6589   20.1335 C   0  0  0  0  0  0  0  0  0  0  0  0
    4.9881    0.6430   21.1297 H   0  0  0  0  0  0  0  0  0  0  0  0
    4.7947    1.3177   19.0831 C   0  0  0  0  0  0  0  0  0  0  0  0
    3.8641    1.8521   19.2313 H   0  0  0  0  0  0  0  0  0  0  0  0
  1  2  1  0
  2  3  2  0
  3  4  1  0
  4  5  1  0
  4  6  2  0
  6  7  1  0
  7  8  2  0
  8  9  1  0
  8 10  1  0
 10 11  1  0
 11 12  2  0
 12 13  1  0
 12 14  1  0
 14 15  1  0
 14 16  2  0
 16 17  1  0
 16 18  1  0
 18 19  1  0
 19 20  1  0
 20 21  1  0
 20 22  1  0
 20 23  1  0
 18 24  2  0
 24 25  1  0
 10 26  1  0
 26 27  2  0
 26 28  1  0
 28 29  1  0
  6 30  1  0
 30 31  1  0
 30 32  2  0
 32 33  1  0
 32  2  1  0
 28  7  1  0
 24 11  1  0
M  END
>  <cnnaffinity>  (1) 
-5.57432

>  <filename>  (1) 
O=c1[nH]c(-c2cccnc2)cn1-c1cccc(OC(F)(F)F)c1

$$$$
