
     RDKit          3D

 34 36  0  0  0  0  0  0  0  0999 V2000
    4.9290    1.7955   16.9842 H   0  0  0  0  0  0  0  0  0  0  0  0
    5.3921    1.2980   17.8315 C   0  0  0  0  0  0  0  0  0  0  0  0
    6.5542    0.6779   17.5749 N   0  0  0  0  0  0  0  0  0  0  0  0
    7.1657    0.0742   18.6037 C   0  0  0  0  0  0  0  0  0  0  0  0
    8.1123   -0.4089   18.3719 H   0  0  0  0  0  0  0  0  0  0  0  0
    6.6515    0.0411   19.9143 C   0  0  0  0  0  0  0  0  0  0  0  0
    7.3679   -0.7186   21.0013 C   0  0  2  0  0  0  0  0  0  0  0  0
    6.9840   -0.4074   21.9859 H   0  0  0  0  0  0  0  0  0  0  0  0
    8.8016   -0.4914   20.9314 N   0  0  0  0  0  0  0  0  0  0  0  0
    9.3839    0.7813   21.3297 C   0  0  0  0  0  0  0  0  0  0  0  0
    8.8227    1.5626   20.8058 H   0  0  0  0  0  0  0  0  0  0  0  0
   10.4190    0.7780   20.9647 H   0  0  0  0  0  0  0  0  0  0  0  0
    9.3689    0.9882   22.8403 C   0  0  0  0  0  0  0  0  0  0  0  0
   10.3660    0.3767   23.6281 C   0  0  0  0  0  0  0  0  0  0  0  0
   11.1301   -0.2113   23.1161 H   0  0  0  0  0  0  0  0  0  0  0  0
   10.3686    0.5000   25.0187 C   0  0  0  0  0  0  0  0  0  0  0  0
   11.1416    0.0082   25.6040 H   0  0  0  0  0  0  0  0  0  0  0  0
    9.3668    1.2391   25.6541 C   0  0  0  0  0  0  0  0  0  0  0  0
    9.3343    1.3103   26.7370 H   0  0  0  0  0  0  0  0  0  0  0  0
    8.3796    1.8721   24.9001 C   0  0  0  0  0  0  0  0  0  0  0  0
    7.5910    2.4525   25.3643 H   0  0  0  0  0  0  0  0  0  0  0  0
    8.3858    1.7422   23.5074 C   0  0  0  0  0  0  0  0  0  0  0  0
    7.1154    2.5580   22.6275 Cl  0  0  0  0  0  0  0  0  0  0  0  0
    9.5113   -1.6551   21.0644 C   0  0  0  0  0  0  0  0  0  0  0  0
   10.7133   -1.7790   21.1731 O   0  0  0  0  0  0  0  0  0  0  0  0
    8.6210   -2.6908   21.0549 N   0  0  0  0  0  0  0  0  0  0  0  0
    9.0453   -3.5363   20.7195 H   0  0  0  0  0  0  0  0  0  0  0  0
    7.2461   -2.2651   20.8756 C   0  0  0  0  0  0  0  0  0  0  0  0
    6.8009   -2.5447   19.9102 H   0  0  0  0  0  0  0  0  0  0  0  0
    6.5986   -2.6914   21.6480 H   0  0  0  0  0  0  0  0  0  0  0  0
    5.4285    0.6796   20.1587 C   0  0  0  0  0  0  0  0  0  0  0  0
    4.9989    0.6695   21.1603 H   0  0  0  0  0  0  0  0  0  0  0  0
    4.7929    1.3245   19.0947 C   0  0  0  0  0  0  0  0  0  0  0  0
    3.8580    1.8527   19.2357 H   0  0  0  0  0  0  0  0  0  0  0  0
  1  2  1  0
  2  3  2  0
  3  4  1  0
  4  5  1  0
  4  6  2  0
  6  7  1  0
  7  8  1  1
  7  9  1  0
  9 10  1  0
 10 11  1  0
 10 12  1  0
 10 13  1  0
 13 14  2  0
 14 15  1  0
 14 16  1  0
 16 17  1  0
 16 18  2  0
 18 19  1  0
 18 20  1  0
 20 21  1  0
 20 22  2  0
 22 23  1  0
  9 24  1  0
 24 25  2  0
 24 26  1  0
 26 27  1  0
 26 28  1  0
 28 29  1  0
 28 30  1  0
  6 31  1  0
 31 32  1  0
 31 33  2  0
 33 34  1  0
 33  2  1  0
 28  7  1  0
 22 13  1  0
M  END
>  <cnnaffinity>  (1) 
-5.08847

>  <filename>  (1) 
O=C1NC[C@H](c2cccnc2)N1Cc1ccccc1Cl

$$$$
