
     RDKit          3D

 34 36  0  0  0  0  0  0  0  0999 V2000
   10.0208   -1.3927   21.7269 H   0  0  0  0  0  0  0  0  0  0  0  0
    8.9529   -1.5291   21.6190 C   0  0  0  0  0  0  0  0  0  0  0  0
    8.2636   -2.5192   22.2475 C   0  0  0  0  0  0  0  0  0  0  0  0
    8.8755   -3.2820   23.3902 C   0  0  0  0  0  0  0  0  0  0  0  0
   10.1926   -3.0964   23.5723 N   0  0  0  0  0  0  0  0  0  0  0  0
   10.7780   -3.7990   24.5298 C   0  0  0  0  0  0  0  0  0  0  0  0
   11.8585   -3.7325   24.5828 H   0  0  0  0  0  0  0  0  0  0  0  0
   10.0741   -4.6547   25.3625 C   0  0  0  0  0  0  0  0  0  0  0  0
   10.5721   -5.2209   26.1361 H   0  0  0  0  0  0  0  0  0  0  0  0
    8.7084   -4.7890   25.1166 C   0  0  0  0  0  0  0  0  0  0  0  0
    7.9465   -5.8215   26.0034 C   0  0  0  0  0  0  0  0  0  0  0  0
    6.6999   -6.0851   25.6055 F   0  0  0  0  0  0  0  0  0  0  0  0
    7.8909   -5.4193   27.2884 F   0  0  0  0  0  0  0  0  0  0  0  0
    8.6488   -6.9768   26.0327 F   0  0  0  0  0  0  0  0  0  0  0  0
    8.1070   -4.0938   24.1338 N   0  0  0  0  0  0  0  0  0  0  0  0
    6.8619   -2.7982   21.7243 C   0  0  0  0  0  0  0  0  0  0  0  0
    6.9157   -3.3332   20.7630 H   0  0  0  0  0  0  0  0  0  0  0  0
    6.2715   -3.4216   22.4023 H   0  0  0  0  0  0  0  0  0  0  0  0
    6.1719   -1.4547   21.4527 C   0  0  0  0  0  0  0  0  0  0  0  0
    5.1791   -1.6179   21.0271 H   0  0  0  0  0  0  0  0  0  0  0  0
    6.0629   -0.8981   22.3978 H   0  0  0  0  0  0  0  0  0  0  0  0
    6.9683   -0.6708   20.4987 N   0  0  0  0  0  0  0  0  0  0  0  0
    6.3261    0.0900   19.4773 C   0  0  0  0  0  0  0  0  0  0  0  0
    6.8657    0.1353   18.1689 C   0  0  0  0  0  0  0  0  0  0  0  0
    7.7579   -0.4425   17.9455 H   0  0  0  0  0  0  0  0  0  0  0  0
    6.3573    0.8533   17.1648 N   0  0  0  0  0  0  0  0  0  0  0  0
    5.2610    1.5862   17.4256 C   0  0  0  0  0  0  0  0  0  0  0  0
    4.8859    2.1826   16.5972 H   0  0  0  0  0  0  0  0  0  0  0  0
    4.6242    1.5957   18.6719 C   0  0  0  0  0  0  0  0  0  0  0  0
    3.7320    2.1998   18.8091 H   0  0  0  0  0  0  0  0  0  0  0  0
    5.1569    0.8270   19.7176 C   0  0  0  0  0  0  0  0  0  0  0  0
    4.6985    0.8142   20.7083 H   0  0  0  0  0  0  0  0  0  0  0  0
    8.3620   -0.5486   20.6914 C   0  0  0  0  0  0  0  0  0  0  0  0
    9.0430    0.2903   20.1209 O   0  0  0  0  0  0  0  0  0  0  0  0
  1  2  1  0
  2  3  2  0
  3  4  1  0
  4  5  2  0
  5  6  1  0
  6  7  1  0
  6  8  2  0
  8  9  1  0
  8 10  1  0
 10 11  1  0
 11 12  1  0
 11 13  1  0
 11 14  1  0
 10 15  2  0
  3 16  1  0
 16 17  1  0
 16 18  1  0
 16 19  1  0
 19 20  1  0
 19 21  1  0
 19 22  1  0
 22 23  1  0
 23 24  2  0
 24 25  1  0
 24 26  1  0
 26 27  2  0
 27 28  1  0
 27 29  1  0
 29 30  1  0
 29 31  2  0
 31 32  1  0
 22 33  1  0
 33 34  2  0
 33  2  1  0
 15  4  1  0
 31 23  1  0
M  END
>  <cnnaffinity>  (1) 
-5.14911

>  <filename>  (1) 
O=C1C=C(c2nccc(C(F)(F)F)n2)CCN1c1cccnc1

$$$$
