
     RDKit          3D

 28 30  0  0  0  0  0  0  0  0999 V2000
   12.4913    2.3906   21.5742 H   0  0  0  0  0  0  0  0  0  0  0  0
   12.3032    1.3465   21.8170 C   0  0  0  0  0  0  0  0  0  0  0  0
   13.3605    0.6065   22.1639 N   0  0  0  0  0  0  0  0  0  0  0  0
   13.1025   -0.6731   22.4215 C   0  0  0  0  0  0  0  0  0  0  0  0
   13.9455   -1.3010   22.7053 H   0  0  0  0  0  0  0  0  0  0  0  0
   11.8276   -1.2144   22.3647 C   0  0  0  0  0  0  0  0  0  0  0  0
   11.7092   -2.2657   22.5767 H   0  0  0  0  0  0  0  0  0  0  0  0
   10.7850   -0.3578   21.9951 C   0  0  0  0  0  0  0  0  0  0  0  0
    9.3564   -0.8681   21.9176 C   0  0  0  0  0  0  0  0  0  0  0  0
    8.6467   -0.4452   20.9028 N   0  0  0  0  0  0  0  0  0  0  0  0
    7.3246   -0.7576   20.8599 N   0  0  0  0  0  0  0  0  0  0  0  0
    6.6135   -0.0300   19.8613 C   0  0  0  0  0  0  0  0  0  0  0  0
    7.2033    0.0968   18.5907 C   0  0  0  0  0  0  0  0  0  0  0  0
    8.1894   -0.3396   18.4403 H   0  0  0  0  0  0  0  0  0  0  0  0
    6.6135    0.7172   17.5680 N   0  0  0  0  0  0  0  0  0  0  0  0
    5.4312    1.3119   17.8144 C   0  0  0  0  0  0  0  0  0  0  0  0
    4.9693    1.8074   16.9647 H   0  0  0  0  0  0  0  0  0  0  0  0
    4.8076    1.3034   19.0668 C   0  0  0  0  0  0  0  0  0  0  0  0
    3.8776    1.8432   19.2006 H   0  0  0  0  0  0  0  0  0  0  0  0
    5.4026    0.6095   20.1279 C   0  0  0  0  0  0  0  0  0  0  0  0
    4.9694    0.5913   21.1283 H   0  0  0  0  0  0  0  0  0  0  0  0
    6.6801   -1.7654   21.6586 C   0  0  0  0  0  0  0  0  0  0  0  0
    5.5627   -2.1853   21.4193 O   0  0  0  0  0  0  0  0  0  0  0  0
    7.5333   -2.2310   22.7437 C   0  0  0  0  0  0  0  0  0  0  0  0
    7.0501   -2.9390   23.4024 H   0  0  0  0  0  0  0  0  0  0  0  0
    8.8184   -1.8053   22.8800 C   0  0  0  0  0  0  0  0  0  0  0  0
    9.4274   -2.1743   23.7067 H   0  0  0  0  0  0  0  0  0  0  0  0
   11.0422    0.9294   21.7039 N   0  0  0  0  0  0  0  0  0  0  0  0
  1  2  1  0
  2  3  2  0
  3  4  1  0
  4  5  1  0
  4  6  2  0
  6  7  1  0
  6  8  1  0
  8  9  1  0
  9 10  2  0
 10 11  1  0
 11 12  1  0
 12 13  2  0
 13 14  1  0
 13 15  1  0
 15 16  2  0
 16 17  1  0
 16 18  1  0
 18 19  1  0
 18 20  2  0
 20 21  1  0
 11 22  1  0
 22 23  2  0
 22 24  1  0
 24 25  1  0
 24 26  2  0
 26 27  1  0
  8 28  2  0
 28  2  1  0
 26  9  1  0
 20 12  1  0
M  END
>  <cnnaffinity>  (1) 
-4.93373

>  <filename>  (1) 
O=c1ccc(-c2ccncn2)nn1-c1cccnc1

$$$$
