
     RDKit          3D

 34 36  0  0  0  0  0  0  0  0999 V2000
    4.9397    1.8064   17.0347 H   0  0  0  0  0  0  0  0  0  0  0  0
    5.4388    1.2948   17.8581 C   0  0  0  0  0  0  0  0  0  0  0  0
    6.6071    0.6975   17.5709 N   0  0  0  0  0  0  0  0  0  0  0  0
    7.2369    0.0528   18.5618 C   0  0  0  0  0  0  0  0  0  0  0  0
    8.1828   -0.4276   18.3187 H   0  0  0  0  0  0  0  0  0  0  0  0
    6.7337   -0.0727   19.8738 C   0  0  0  0  0  0  0  0  0  0  0  0
    7.4344   -0.7987   20.8651 N   0  0  0  0  0  0  0  0  0  0  0  0
    6.8098   -1.6461   21.7703 C   0  0  0  0  0  0  0  0  0  0  0  0
    5.7162   -2.1586   21.6940 O   0  0  0  0  0  0  0  0  0  0  0  0
    7.7179   -1.8730   22.7842 N   0  0  0  0  0  0  0  0  0  0  0  0
    7.4408   -2.6971   23.2941 H   0  0  0  0  0  0  0  0  0  0  0  0
    9.0687   -1.7102   22.2687 C   0  0  0  0  0  0  0  0  0  0  0  0
    9.7342   -1.2894   23.0287 H   0  0  0  0  0  0  0  0  0  0  0  0
    9.5020   -2.6611   21.9256 H   0  0  0  0  0  0  0  0  0  0  0  0
    8.8857   -0.7454   21.0804 C   0  0  2  0  0  0  0  0  0  0  0  0
    9.3987   -1.1445   20.1945 H   0  0  0  0  0  0  0  0  0  0  0  0
    9.4688    0.6672   21.3059 C   0  0  0  0  0  0  0  0  0  0  0  0
    9.4290    1.1936   20.3496 H   0  0  0  0  0  0  0  0  0  0  0  0
   10.5347    0.5445   21.5271 H   0  0  0  0  0  0  0  0  0  0  0  0
    8.8023    1.4983   22.3788 C   0  0  0  0  0  0  0  0  0  0  0  0
    9.1596    1.3942   23.7323 C   0  0  0  0  0  0  0  0  0  0  0  0
    9.9660    0.7273   24.0356 H   0  0  0  0  0  0  0  0  0  0  0  0
    8.4884    2.1450   24.7038 C   0  0  0  0  0  0  0  0  0  0  0  0
    8.7675    2.0490   25.7496 H   0  0  0  0  0  0  0  0  0  0  0  0
    7.4502    3.0075   24.3391 C   0  0  0  0  0  0  0  0  0  0  0  0
    6.9046    3.5870   25.0767 H   0  0  0  0  0  0  0  0  0  0  0  0
    7.1026    3.1110   22.9924 C   0  0  0  0  0  0  0  0  0  0  0  0
    5.8032    4.1728   22.5217 Cl  0  0  0  0  0  0  0  0  0  0  0  0
    7.7710    2.3776   22.0144 C   0  0  0  0  0  0  0  0  0  0  0  0
    7.4728    2.4690   20.9745 H   0  0  0  0  0  0  0  0  0  0  0  0
    5.5119    0.5618   20.1586 C   0  0  0  0  0  0  0  0  0  0  0  0
    5.0952    0.5197   21.1672 H   0  0  0  0  0  0  0  0  0  0  0  0
    4.8650    1.2665   19.1355 C   0  0  0  0  0  0  0  0  0  0  0  0
    3.9272    1.7885   19.3106 H   0  0  0  0  0  0  0  0  0  0  0  0
  1  2  1  0
  2  3  2  0
  3  4  1  0
  4  5  1  0
  4  6  2  0
  6  7  1  0
  7  8  1  0
  8  9  2  0
  8 10  1  0
 10 11  1  0
 10 12  1  0
 12 13  1  0
 12 14  1  0
 12 15  1  0
 15 16  1  6
 15 17  1  0
 17 18  1  0
 17 19  1  0
 17 20  1  0
 20 21  2  0
 21 22  1  0
 21 23  1  0
 23 24  1  0
 23 25  2  0
 25 26  1  0
 25 27  1  0
 27 28  1  0
 27 29  2  0
 29 30  1  0
  6 31  1  0
 31 32  1  0
 31 33  2  0
 33 34  1  0
 33  2  1  0
 15  7  1  0
 29 20  1  0
M  END
>  <cnnaffinity>  (1) 
-5.11262

>  <filename>  (1) 
O=C1NC[C@H](Cc2cccc(Cl)c2)N1c1cccnc1

$$$$
