
     RDKit          3D

 30 32  0  0  0  0  0  0  0  0999 V2000
    4.9136    1.7742   17.0016 H   0  0  0  0  0  0  0  0  0  0  0  0
    5.4046    1.2899   17.8439 C   0  0  0  0  0  0  0  0  0  0  0  0
    6.5695    0.6762   17.5837 N   0  0  0  0  0  0  0  0  0  0  0  0
    7.1801    0.0649   18.6081 C   0  0  0  0  0  0  0  0  0  0  0  0
    8.1207   -0.4308   18.3695 H   0  0  0  0  0  0  0  0  0  0  0  0
    6.6617    0.0005   19.9148 C   0  0  0  0  0  0  0  0  0  0  0  0
    7.4038   -0.7183   20.9885 C   0  0  0  0  0  0  0  0  0  0  0  0
    6.3940   -1.6319   22.0928 S   0  0  0  0  0  0  0  0  0  0  0  0
    7.5500   -2.3204   23.2103 C   0  0  0  0  0  0  0  0  0  0  0  0
    6.9682   -3.1826   24.2820 C   0  0  0  0  0  0  0  0  0  0  0  0
    7.4700   -4.4681   24.5716 C   0  0  0  0  0  0  0  0  0  0  0  0
    8.4831   -4.9642   23.8388 F   0  0  0  0  0  0  0  0  0  0  0  0
    6.9582   -5.2889   25.5760 C   0  0  0  0  0  0  0  0  0  0  0  0
    7.3913   -6.2675   25.7468 H   0  0  0  0  0  0  0  0  0  0  0  0
    5.8939   -4.8188   26.3428 C   0  0  0  0  0  0  0  0  0  0  0  0
    5.4829   -5.4433   27.1294 H   0  0  0  0  0  0  0  0  0  0  0  0
    5.3515   -3.5567   26.1131 C   0  0  0  0  0  0  0  0  0  0  0  0
    4.5238   -3.1760   26.6998 H   0  0  0  0  0  0  0  0  0  0  0  0
    5.8980   -2.7675   25.1029 C   0  0  0  0  0  0  0  0  0  0  0  0
    5.3810   -1.5497   24.9346 F   0  0  0  0  0  0  0  0  0  0  0  0
    8.8831   -2.1299   23.1206 C   0  0  0  0  0  0  0  0  0  0  0  0
    9.5632   -2.5798   23.8353 H   0  0  0  0  0  0  0  0  0  0  0  0
    9.5559   -1.3119   22.1060 C   0  0  0  0  0  0  0  0  0  0  0  0
   10.7701   -1.1939   22.1122 O   0  0  0  0  0  0  0  0  0  0  0  0
    8.7444   -0.6512   21.0781 C   0  0  0  0  0  0  0  0  0  0  0  0
    9.3318   -0.0548   20.3886 H   0  0  0  0  0  0  0  0  0  0  0  0
    5.4400    0.6503   20.1599 C   0  0  0  0  0  0  0  0  0  0  0  0
    5.0091    0.6330   21.1632 H   0  0  0  0  0  0  0  0  0  0  0  0
    4.8061    1.3127   19.1087 C   0  0  0  0  0  0  0  0  0  0  0  0
    3.8742    1.8443   19.2638 H   0  0  0  0  0  0  0  0  0  0  0  0
  1  2  1  0
  2  3  2  0
  3  4  1  0
  4  5  1  0
  4  6  2  0
  6  7  1  0
  7  8  1  0
  8  9  1  0
  9 10  1  0
 10 11  2  0
 11 12  1  0
 11 13  1  0
 13 14  1  0
 13 15  2  0
 15 16  1  0
 15 17  1  0
 17 18  1  0
 17 19  2  0
 19 20  1  0
  9 21  2  0
 21 22  1  0
 21 23  1  0
 23 24  2  0
 23 25  1  0
 25 26  1  0
  6 27  1  0
 27 28  1  0
 27 29  2  0
 29 30  1  0
 29  2  1  0
 25  7  2  0
 19 10  1  0
M  END
>  <cnnaffinity>  (1) 
-5.50164

>  <filename>  (1) 
O=c1cc(-c2cccnc2)sc(-c2c(F)cccc2F)c1

$$$$
