
     RDKit          3D

 31 33  0  0  0  0  0  0  0  0999 V2000
    4.9139    1.7741   17.0041 H   0  0  0  0  0  0  0  0  0  0  0  0
    5.4047    1.2910   17.8452 C   0  0  0  0  0  0  0  0  0  0  0  0
    6.5714    0.6800   17.5859 N   0  0  0  0  0  0  0  0  0  0  0  0
    7.1749    0.0556   18.5994 C   0  0  0  0  0  0  0  0  0  0  0  0
    8.1222   -0.4334   18.3789 H   0  0  0  0  0  0  0  0  0  0  0  0
    6.6492    0.0144   19.8938 C   0  0  0  0  0  0  0  0  0  0  0  0
    7.3772   -0.7290   20.9089 C   0  0  0  0  0  0  0  0  0  0  0  0
    7.6155   -2.0065   20.8369 N   0  0  0  0  0  0  0  0  0  0  0  0
    8.3080   -2.2514   21.9921 N   0  0  0  0  0  0  0  0  0  0  0  0
    8.6653   -3.1557   22.2360 H   0  0  0  0  0  0  0  0  0  0  0  0
    8.5325   -1.1562   22.7646 C   0  0  0  0  0  0  0  0  0  0  0  0
    9.1322   -1.0709   23.8216 O   0  0  0  0  0  0  0  0  0  0  0  0
    7.9226   -0.1435   22.0318 N   0  0  0  0  0  0  0  0  0  0  0  0
    7.9229    1.2658   22.4256 C   0  0  0  0  0  0  0  0  0  0  0  0
    8.0849    1.8912   21.5394 H   0  0  0  0  0  0  0  0  0  0  0  0
    8.7726    1.4402   23.0938 H   0  0  0  0  0  0  0  0  0  0  0  0
    6.6518    1.7123   23.1336 C   0  0  0  0  0  0  0  0  0  0  0  0
    5.9323    2.8376   22.6956 C   0  0  0  0  0  0  0  0  0  0  0  0
    6.2724    3.3981   21.8243 H   0  0  0  0  0  0  0  0  0  0  0  0
    4.7553    3.2237   23.3452 C   0  0  0  0  0  0  0  0  0  0  0  0
    4.2011    4.0867   22.9866 H   0  0  0  0  0  0  0  0  0  0  0  0
    4.2926    2.5092   24.4538 C   0  0  0  0  0  0  0  0  0  0  0  0
    3.3848    2.8082   24.9673 H   0  0  0  0  0  0  0  0  0  0  0  0
    5.0251    1.4076   24.9018 C   0  0  0  0  0  0  0  0  0  0  0  0
    4.4641    0.5203   26.2905 Cl  0  0  0  0  0  0  0  0  0  0  0  0
    6.1987    1.0069   24.2598 C   0  0  0  0  0  0  0  0  0  0  0  0
    6.7571    0.1510   24.6351 H   0  0  0  0  0  0  0  0  0  0  0  0
    5.4339    0.6561   20.1577 C   0  0  0  0  0  0  0  0  0  0  0  0
    5.0078    0.6273   21.1630 H   0  0  0  0  0  0  0  0  0  0  0  0
    4.8023    1.3149   19.1085 C   0  0  0  0  0  0  0  0  0  0  0  0
    3.8696    1.8464   19.2622 H   0  0  0  0  0  0  0  0  0  0  0  0
  1  2  1  0
  2  3  2  0
  3  4  1  0
  4  5  1  0
  4  6  2  0
  6  7  1  0
  7  8  2  0
  8  9  1  0
  9 10  1  0
  9 11  1  0
 11 12  2  0
 11 13  1  0
 13 14  1  0
 14 15  1  0
 14 16  1  0
 14 17  1  0
 17 18  2  0
 18 19  1  0
 18 20  1  0
 20 21  1  0
 20 22  2  0
 22 23  1  0
 22 24  1  0
 24 25  1  0
 24 26  2  0
 26 27  1  0
  6 28  1  0
 28 29  1  0
 28 30  2  0
 30 31  1  0
 30  2  1  0
 13  7  1  0
 26 17  1  0
M  END
>  <cnnaffinity>  (1) 
-4.98884

>  <filename>  (1) 
O=c1[nH]nc(-c2cccnc2)n1Cc1cccc(Cl)c1

$$$$
