
     RDKit          3D

 38 40  0  0  0  0  0  0  0  0999 V2000
    5.0135    1.7016   16.6431 H   0  0  0  0  0  0  0  0  0  0  0  0
    5.4300    1.2708   17.5528 C   0  0  0  0  0  0  0  0  0  0  0  0
    6.5743    0.5786   17.4183 N   0  0  0  0  0  0  0  0  0  0  0  0
    7.1147    0.0336   18.5129 C   0  0  0  0  0  0  0  0  0  0  0  0
    8.0604   -0.4839   18.3624 H   0  0  0  0  0  0  0  0  0  0  0  0
    6.5414    0.1413   19.8031 C   0  0  0  0  0  0  0  0  0  0  0  0
    7.1218   -0.4459   20.9483 N   0  0  0  0  0  0  0  0  0  0  0  0
    7.1244    0.0326   22.2979 C   0  0  0  0  0  0  0  0  0  0  0  0
    6.4184    0.9125   22.7531 O   0  0  0  0  0  0  0  0  0  0  0  0
    8.1177   -0.7693   22.9772 C   0  0  0  0  0  0  0  0  0  0  0  0
    8.3612   -0.6718   24.0160 H   0  0  0  0  0  0  0  0  0  0  0  0
    8.6009   -1.6443   22.0765 C   0  0  0  0  0  0  0  0  0  0  0  0
    9.3669   -2.7193   22.1761 O   0  0  0  0  0  0  0  0  0  0  0  0
    9.7445   -3.1384   23.4914 C   0  0  0  0  0  0  0  0  0  0  0  0
   10.2934   -2.3379   24.0146 H   0  0  0  0  0  0  0  0  0  0  0  0
   10.4530   -3.9472   23.3077 H   0  0  0  0  0  0  0  0  0  0  0  0
    8.5800   -3.6467   24.3734 C   0  0  0  0  0  0  0  0  0  0  0  0
    7.9401   -2.7882   24.6075 H   0  0  0  0  0  0  0  0  0  0  0  0
    7.7075   -4.7436   23.7253 C   0  0  0  0  0  0  0  0  0  0  0  0
    7.2131   -4.3847   22.8120 H   0  0  0  0  0  0  0  0  0  0  0  0
    6.9173   -4.9961   24.4468 H   0  0  0  0  0  0  0  0  0  0  0  0
    8.5469   -5.9968   23.4307 C   0  0  0  0  0  0  0  0  0  0  0  0
    9.1468   -5.7810   22.5372 H   0  0  0  0  0  0  0  0  0  0  0  0
    7.8942   -6.8302   23.1482 H   0  0  0  0  0  0  0  0  0  0  0  0
    9.3951   -6.4554   24.5397 N   0  0  0  0  0  0  0  0  0  0  0  0
    8.8651   -7.0986   25.1214 H   0  0  0  0  0  0  0  0  0  0  0  0
   10.0247   -5.4563   25.4135 C   0  0  0  0  0  0  0  0  0  0  0  0
   10.9877   -5.1249   24.9955 H   0  0  0  0  0  0  0  0  0  0  0  0
   10.2832   -5.9584   26.3525 H   0  0  0  0  0  0  0  0  0  0  0  0
    9.1247   -4.2415   25.6894 C   0  0  0  0  0  0  0  0  0  0  0  0
    9.6434   -3.4905   26.2968 H   0  0  0  0  0  0  0  0  0  0  0  0
    8.2754   -4.5911   26.2915 H   0  0  0  0  0  0  0  0  0  0  0  0
    8.1450   -1.4064   20.7985 N   0  0  0  0  0  0  0  0  0  0  0  0
    7.8573   -2.2657   20.3388 H   0  0  0  0  0  0  0  0  0  0  0  0
    5.3476    0.8690   19.9305 C   0  0  0  0  0  0  0  0  0  0  0  0
    4.9123    0.9872   20.9188 H   0  0  0  0  0  0  0  0  0  0  0  0
    4.7864    1.4366   18.7833 C   0  0  0  0  0  0  0  0  0  0  0  0
    3.8700    2.0149   18.8350 H   0  0  0  0  0  0  0  0  0  0  0  0
  1  2  1  0
  2  3  2  0
  3  4  1  0
  4  5  1  0
  4  6  2  0
  6  7  1  0
  7  8  1  0
  8  9  2  0
  8 10  1  0
 10 11  1  0
 10 12  2  0
 12 13  1  0
 13 14  1  0
 14 15  1  0
 14 16  1  0
 14 17  1  0
 17 18  1  0
 17 19  1  0
 19 20  1  0
 19 21  1  0
 19 22  1  0
 22 23  1  0
 22 24  1  0
 22 25  1  0
 25 26  1  0
 25 27  1  0
 27 28  1  0
 27 29  1  0
 27 30  1  0
 30 31  1  0
 30 32  1  0
 12 33  1  0
 33 34  1  0
  6 35  1  0
 35 36  1  0
 35 37  2  0
 37 38  1  0
 37  2  1  0
 33  7  1  0
 30 17  1  0
M  END
>  <cnnaffinity>  (1) 
-5.32532

>  <filename>  (1) 
O=c1cc(OCC2CCNCC2)[nH]n1-c1cccnc1

$$$$
