
     RDKit          3D

 40 42  0  0  0  0  0  0  0  0999 V2000
    5.0074    1.8269   17.0225 H   0  0  0  0  0  0  0  0  0  0  0  0
    5.4452    1.2795   17.8545 C   0  0  0  0  0  0  0  0  0  0  0  0
    6.5926    0.6304   17.5986 N   0  0  0  0  0  0  0  0  0  0  0  0
    7.1715   -0.0270   18.6106 C   0  0  0  0  0  0  0  0  0  0  0  0
    8.1007   -0.5527   18.3892 H   0  0  0  0  0  0  0  0  0  0  0  0
    6.6313   -0.0956   19.9137 C   0  0  0  0  0  0  0  0  0  0  0  0
    7.3035   -0.7719   20.9857 N   0  0  0  0  0  0  0  0  0  0  0  0
    6.6003   -1.6912   21.7493 C   0  0  0  0  0  0  0  0  0  0  0  0
    5.6028   -2.2632   21.3691 O   0  0  0  0  0  0  0  0  0  0  0  0
    7.1349   -1.8843   23.0269 N   0  0  0  0  0  0  0  0  0  0  0  0
    6.7791   -3.4243   23.5311 S   0  0  0  0  0  0  0  0  0  0  0  0
    5.4905   -3.4022   24.1955 O   0  0  0  0  0  0  0  0  0  0  0  0
    7.0979   -4.3287   22.4465 O   0  0  0  0  0  0  0  0  0  0  0  0
    8.0624   -3.6326   24.7668 C   0  0  0  0  0  0  0  0  0  0  0  0
    9.3727   -3.8769   24.3265 C   0  0  0  0  0  0  0  0  0  0  0  0
    9.6423   -3.7858   23.2746 H   0  0  0  0  0  0  0  0  0  0  0  0
   10.3405   -4.2883   25.2444 C   0  0  0  0  0  0  0  0  0  0  0  0
   11.3432   -4.5211   24.8974 H   0  0  0  0  0  0  0  0  0  0  0  0
   10.0084   -4.4419   26.5951 C   0  0  0  0  0  0  0  0  0  0  0  0
   10.7468   -4.8068   27.2982 H   0  0  0  0  0  0  0  0  0  0  0  0
    8.7217   -4.1173   27.0399 C   0  0  0  0  0  0  0  0  0  0  0  0
    8.4702   -4.2313   28.0903 H   0  0  0  0  0  0  0  0  0  0  0  0
    7.7449   -3.6957   26.1338 C   0  0  0  0  0  0  0  0  0  0  0  0
    6.7476   -3.4425   26.4951 H   0  0  0  0  0  0  0  0  0  0  0  0
    7.2073   -0.7594   23.9828 C   0  0  0  0  0  0  0  0  0  0  0  0
    6.9896   -1.1002   25.0020 H   0  0  0  0  0  0  0  0  0  0  0  0
    6.4369   -0.0171   23.7348 H   0  0  0  0  0  0  0  0  0  0  0  0
    8.5938   -0.1367   23.8790 C   0  0  0  0  0  0  0  0  0  0  0  0
    8.7160    0.6052   24.6756 H   0  0  0  0  0  0  0  0  0  0  0  0
    9.3323   -0.9340   24.0482 H   0  0  0  0  0  0  0  0  0  0  0  0
    8.8313    0.5384   22.5218 C   0  0  0  0  0  0  0  0  0  0  0  0
    8.1365    1.3793   22.3957 H   0  0  0  0  0  0  0  0  0  0  0  0
    9.8398    0.9665   22.4986 H   0  0  0  0  0  0  0  0  0  0  0  0
    8.6921   -0.3994   21.3123 C   0  0  0  0  0  0  0  0  0  0  0  0
    9.1181    0.0955   20.4362 H   0  0  0  0  0  0  0  0  0  0  0  0
    9.2739   -1.3161   21.4730 H   0  0  0  0  0  0  0  0  0  0  0  0
    5.4101    0.5483   20.1492 C   0  0  0  0  0  0  0  0  0  0  0  0
    4.9502    0.4675   21.1356 H   0  0  0  0  0  0  0  0  0  0  0  0
    4.8196    1.2663   19.1065 C   0  0  0  0  0  0  0  0  0  0  0  0
    3.8956    1.8144   19.2553 H   0  0  0  0  0  0  0  0  0  0  0  0
  1  2  1  0
  2  3  2  0
  3  4  1  0
  4  5  1  0
  4  6  2  0
  6  7  1  0
  7  8  1  0
  8  9  2  0
  8 10  1  0
 10 11  1  0
 11 12  2  0
 11 13  2  0
 11 14  1  0
 14 15  2  0
 15 16  1  0
 15 17  1  0
 17 18  1  0
 17 19  2  0
 19 20  1  0
 19 21  1  0
 21 22  1  0
 21 23  2  0
 23 24  1  0
 10 25  1  0
 25 26  1  0
 25 27  1  0
 25 28  1  0
 28 29  1  0
 28 30  1  0
 28 31  1  0
 31 32  1  0
 31 33  1  0
 31 34  1  0
 34 35  1  0
 34 36  1  0
  6 37  1  0
 37 38  1  0
 37 39  2  0
 39 40  1  0
 39  2  1  0
 34  7  1  0
 23 14  1  0
M  END
>  <cnnaffinity>  (1) 
-5.59749

>  <filename>  (1) 
O=C1N(c2cccnc2)CCCCN1S(=O)(=O)c1ccccc1

$$$$
