
     RDKit          3D

 31 34  0  0  0  0  0  0  0  0999 V2000
    3.8898   -7.7680   23.3487 H   0  0  0  0  0  0  0  0  0  0  0  0
    4.0483   -6.7026   23.2655 C   0  0  0  0  0  0  0  0  0  0  0  0
    3.5068   -5.6831   23.9255 C   0  0  0  0  0  0  0  0  0  0  0  0
    2.7607   -5.6745   24.7079 H   0  0  0  0  0  0  0  0  0  0  0  0
    4.1549   -4.4141   23.4767 C   0  0  0  0  0  0  0  0  0  0  0  0
    4.0206   -3.3143   23.9284 O   0  0  0  0  0  0  0  0  0  0  0  0
    4.9956   -4.7796   22.4168 N   0  0  0  0  0  0  0  0  0  0  0  0
    6.0144   -3.9959   21.9531 C   0  0  0  0  0  0  0  0  0  0  0  0
    7.2120   -4.3536   21.6483 N   0  0  0  0  0  0  0  0  0  0  0  0
    7.8635   -3.1896   21.2911 N   0  0  0  0  0  0  0  0  0  0  0  0
    6.9988   -2.2307   21.3627 C   0  0  0  0  0  0  0  0  0  0  0  0
    7.2701   -0.7732   21.1154 C   0  0  0  0  0  0  0  0  0  0  0  0
    6.5429   -0.0735   19.9918 C   0  0  0  0  0  0  0  0  0  0  0  0
    7.1104   -0.0488   18.7047 C   0  0  0  0  0  0  0  0  0  0  0  0
    8.0542   -0.5733   18.5445 H   0  0  0  0  0  0  0  0  0  0  0  0
    6.5897    0.5964   17.6541 N   0  0  0  0  0  0  0  0  0  0  0  0
    5.4442    1.2625   17.8612 C   0  0  0  0  0  0  0  0  0  0  0  0
    5.0389    1.7828   16.9979 H   0  0  0  0  0  0  0  0  0  0  0  0
    4.7787    1.2923   19.0902 C   0  0  0  0  0  0  0  0  0  0  0  0
    3.8541    1.8465   19.1841 H   0  0  0  0  0  0  0  0  0  0  0  0
    5.3370    0.6141   20.1760 C   0  0  0  0  0  0  0  0  0  0  0  0
    4.8722    0.6278   21.1634 H   0  0  0  0  0  0  0  0  0  0  0  0
    8.7156   -0.3849   21.3293 C   0  0  0  0  0  0  0  0  0  0  0  0
    9.3705   -1.2032   21.6204 H   0  0  0  0  0  0  0  0  0  0  0  0
    9.1534    0.3479   20.6559 H   0  0  0  0  0  0  0  0  0  0  0  0
    7.6926    0.0650   22.3193 C   0  0  0  0  0  0  0  0  0  0  0  0
    7.4198    1.1205   22.3177 H   0  0  0  0  0  0  0  0  0  0  0  0
    7.6793   -0.4080   23.2972 H   0  0  0  0  0  0  0  0  0  0  0  0
    5.7773   -2.6816   21.7653 O   0  0  0  0  0  0  0  0  0  0  0  0
    5.0673   -6.1793   22.3203 C   0  0  0  0  0  0  0  0  0  0  0  0
    5.8139   -6.7947   21.6184 O   0  0  0  0  0  0  0  0  0  0  0  0
  1  2  1  0
  2  3  2  0
  3  4  1  0
  3  5  1  0
  5  6  2  0
  5  7  1  0
  7  8  1  0
  8  9  2  0
  9 10  1  0
 10 11  2  0
 11 12  1  0
 12 13  1  0
 13 14  2  0
 14 15  1  0
 14 16  1  0
 16 17  2  0
 17 18  1  0
 17 19  1  0
 19 20  1  0
 19 21  2  0
 21 22  1  0
 12 23  1  0
 23 24  1  0
 23 25  1  0
 23 26  1  0
 26 27  1  0
 26 28  1  0
 11 29  1  0
  7 30  1  0
 30 31  2  0
 30  2  1  0
 29  8  1  0
 26 12  1  0
 21 13  1  0
M  END
>  <cnnaffinity>  (1) 
-4.91473

>  <filename>  (1) 
O=C1C=CC(=O)N1c1nnc(C2(c3cccnc3)CC2)o1

$$$$
