
     RDKit          3D

 30 32  0  0  0  0  0  0  0  0999 V2000
    4.9856    1.7508   16.9301 H   0  0  0  0  0  0  0  0  0  0  0  0
    5.4461    1.2574   17.7800 C   0  0  0  0  0  0  0  0  0  0  0  0
    6.5988    0.6089   17.5345 N   0  0  0  0  0  0  0  0  0  0  0  0
    7.1984   -0.0053   18.5599 C   0  0  0  0  0  0  0  0  0  0  0  0
    8.1298   -0.5353   18.3625 H   0  0  0  0  0  0  0  0  0  0  0  0
    6.6823    0.0141   19.8729 C   0  0  0  0  0  0  0  0  0  0  0  0
    7.3436   -0.5927   20.9536 N   0  0  0  0  0  0  0  0  0  0  0  0
    7.3368   -0.1766   22.3129 C   0  0  0  0  0  0  0  0  0  0  0  0
    6.7624    0.8016   22.7561 O   0  0  0  0  0  0  0  0  0  0  0  0
    8.1412   -1.1636   22.9909 C   0  0  0  0  0  0  0  0  0  0  0  0
    8.2889   -1.1541   24.0503 H   0  0  0  0  0  0  0  0  0  0  0  0
    8.5799   -2.0435   22.0653 C   0  0  0  0  0  0  0  0  0  0  0  0
    9.2459   -3.1859   22.1899 O   0  0  0  0  0  0  0  0  0  0  0  0
    9.6402   -3.5135   23.5303 C   0  0  0  0  0  0  0  0  0  0  0  0
    9.9957   -2.6078   24.0365 H   0  0  0  0  0  0  0  0  0  0  0  0
   10.4988   -4.1654   23.4108 H   0  0  0  0  0  0  0  0  0  0  0  0
    8.5619   -4.2080   24.3324 C   0  0  0  0  0  0  0  0  0  0  0  0
    7.7906   -4.6657   23.7193 H   0  0  0  0  0  0  0  0  0  0  0  0
    8.9562   -4.9488   25.5919 C   0  0  0  0  0  0  0  0  0  0  0  0
    9.9959   -4.9140   25.9140 H   0  0  0  0  0  0  0  0  0  0  0  0
    8.4702   -5.8981   25.8147 H   0  0  0  0  0  0  0  0  0  0  0  0
    8.1395   -3.6954   25.6826 C   0  0  0  0  0  0  0  0  0  0  0  0
    7.0912   -3.7859   25.9391 H   0  0  0  0  0  0  0  0  0  0  0  0
    8.5943   -2.7837   26.0672 H   0  0  0  0  0  0  0  0  0  0  0  0
    8.2027   -1.6995   20.7771 N   0  0  0  0  0  0  0  0  0  0  0  0
    7.7684   -2.4759   20.2817 H   0  0  0  0  0  0  0  0  0  0  0  0
    5.4712    0.6826   20.1119 C   0  0  0  0  0  0  0  0  0  0  0  0
    5.0708    0.7136   21.1218 H   0  0  0  0  0  0  0  0  0  0  0  0
    4.8399    1.3088   19.0406 C   0  0  0  0  0  0  0  0  0  0  0  0
    3.9053    1.8458   19.1806 H   0  0  0  0  0  0  0  0  0  0  0  0
  1  2  1  0
  2  3  2  0
  3  4  1  0
  4  5  1  0
  4  6  2  0
  6  7  1  0
  7  8  1  0
  8  9  2  0
  8 10  1  0
 10 11  1  0
 10 12  2  0
 12 13  1  0
 13 14  1  0
 14 15  1  0
 14 16  1  0
 14 17  1  0
 17 18  1  0
 17 19  1  0
 19 20  1  0
 19 21  1  0
 19 22  1  0
 22 23  1  0
 22 24  1  0
 12 25  1  0
 25 26  1  0
  6 27  1  0
 27 28  1  0
 27 29  2  0
 29 30  1  0
 29  2  1  0
 25  7  1  0
 22 17  1  0
M  END
>  <cnnaffinity>  (1) 
-4.92626

>  <filename>  (1) 
O=c1cc(OCC2CC2)[nH]n1-c1cccnc1

$$$$
