
     RDKit          3D

 30 32  0  0  0  0  0  0  0  0999 V2000
    4.9256    1.8163   16.9642 H   0  0  0  0  0  0  0  0  0  0  0  0
    5.3858    1.3209   17.8151 C   0  0  0  0  0  0  0  0  0  0  0  0
    6.5487    0.7001   17.5711 N   0  0  0  0  0  0  0  0  0  0  0  0
    7.1481    0.0892   18.5982 C   0  0  0  0  0  0  0  0  0  0  0  0
    8.1053   -0.3853   18.3850 H   0  0  0  0  0  0  0  0  0  0  0  0
    6.6251    0.0438   19.9038 C   0  0  0  0  0  0  0  0  0  0  0  0
    7.3822   -0.6962   20.9936 C   0  0  2  0  0  0  0  0  0  0  0  0
    7.0165   -0.3623   21.9817 H   0  0  0  0  0  0  0  0  0  0  0  0
    8.8147   -0.5443   20.8705 N   0  0  0  0  0  0  0  0  0  0  0  0
    9.3382    0.2616   21.1639 H   0  0  0  0  0  0  0  0  0  0  0  0
    9.4900   -1.7110   21.1041 C   0  0  0  0  0  0  0  0  0  0  0  0
   10.6635   -1.8223   21.3135 O   0  0  0  0  0  0  0  0  0  0  0  0
    8.6195   -2.7422   21.0459 O   0  0  0  0  0  0  0  0  0  0  0  0
    7.2853   -2.2573   20.8975 C   0  0  1  0  0  0  0  0  0  0  0  0
    6.9371   -2.5258   19.8949 H   0  0  0  0  0  0  0  0  0  0  0  0
    6.4018   -2.9295   21.9146 C   0  0  0  0  0  0  0  0  0  0  0  0
    5.1561   -3.4353   21.5315 C   0  0  0  0  0  0  0  0  0  0  0  0
    4.8919   -3.3402   20.4845 H   0  0  0  0  0  0  0  0  0  0  0  0
    4.2890   -4.0140   22.4616 C   0  0  0  0  0  0  0  0  0  0  0  0
    3.3238   -4.4036   22.1555 H   0  0  0  0  0  0  0  0  0  0  0  0
    4.6720   -4.0748   23.8060 C   0  0  0  0  0  0  0  0  0  0  0  0
    3.9831   -4.4637   24.5480 H   0  0  0  0  0  0  0  0  0  0  0  0
    5.9283   -3.6106   24.2079 C   0  0  0  0  0  0  0  0  0  0  0  0
    6.2866   -3.6795   25.2311 H   0  0  0  0  0  0  0  0  0  0  0  0
    6.7699   -3.0458   23.2592 C   0  0  0  0  0  0  0  0  0  0  0  0
    7.9686   -2.5906   23.6722 F   0  0  0  0  0  0  0  0  0  0  0  0
    5.3977    0.6847   20.1319 C   0  0  0  0  0  0  0  0  0  0  0  0
    4.9523    0.6867   21.1277 H   0  0  0  0  0  0  0  0  0  0  0  0
    4.7692    1.3369   19.0678 C   0  0  0  0  0  0  0  0  0  0  0  0
    3.8298    1.8626   19.1944 H   0  0  0  0  0  0  0  0  0  0  0  0
  1  2  1  0
  2  3  2  0
  3  4  1  0
  4  5  1  0
  4  6  2  0
  6  7  1  0
  7  8  1  1
  7  9  1  0
  9 10  1  0
  9 11  1  0
 11 12  2  0
 11 13  1  0
 13 14  1  0
 14 15  1  6
 14 16  1  0
 16 17  2  0
 17 18  1  0
 17 19  1  0
 19 20  1  0
 19 21  2  0
 21 22  1  0
 21 23  1  0
 23 24  1  0
 23 25  2  0
 25 26  1  0
  6 27  1  0
 27 28  1  0
 27 29  2  0
 29 30  1  0
 29  2  1  0
 14  7  1  0
 25 16  1  0
M  END
>  <cnnaffinity>  (1) 
-4.53942

>  <filename>  (1) 
O=C1N[C@@H](c2cccnc2)[C@H](c2ccccc2F)O1

$$$$
