
     RDKit          3D

 22 23  0  0  0  0  0  0  0  0999 V2000
    4.9315    1.8171   16.9699 H   0  0  0  0  0  0  0  0  0  0  0  0
    5.3936    1.2939   17.8072 C   0  0  0  0  0  0  0  0  0  0  0  0
    6.5521    0.6643   17.5471 N   0  0  0  0  0  0  0  0  0  0  0  0
    7.1587    0.0288   18.5563 C   0  0  0  0  0  0  0  0  0  0  0  0
    8.1238   -0.4120   18.3113 H   0  0  0  0  0  0  0  0  0  0  0  0
    6.6436   -0.0175   19.8737 C   0  0  0  0  0  0  0  0  0  0  0  0
    7.3096   -0.6714   20.9487 N   0  0  0  0  0  0  0  0  0  0  0  0
    7.4562   -0.2728   22.3012 C   0  0  0  0  0  0  0  0  0  0  0  0
    7.0294    0.7482   22.8072 O   0  0  0  0  0  0  0  0  0  0  0  0
    8.2622   -1.3277   22.9063 C   0  0  0  0  0  0  0  0  0  0  0  0
    8.5992   -1.3181   24.3495 C   0  0  0  0  0  0  0  0  0  0  0  0
    9.5007   -1.9086   24.5648 H   0  0  0  0  0  0  0  0  0  0  0  0
    8.7631   -0.2875   24.6882 H   0  0  0  0  0  0  0  0  0  0  0  0
    7.5503   -1.8502   25.0874 F   0  0  0  0  0  0  0  0  0  0  0  0
    8.5570   -2.2237   21.9360 C   0  0  0  0  0  0  0  0  0  0  0  0
    9.0990   -3.1588   22.0151 H   0  0  0  0  0  0  0  0  0  0  0  0
    8.0828   -1.7953   20.7330 N   0  0  0  0  0  0  0  0  0  0  0  0
    7.9073   -2.3348   19.9026 H   0  0  0  0  0  0  0  0  0  0  0  0
    5.4405    0.6459   20.1330 C   0  0  0  0  0  0  0  0  0  0  0  0
    5.0700    0.6583   21.1544 H   0  0  0  0  0  0  0  0  0  0  0  0
    4.8045    1.3016   19.0760 C   0  0  0  0  0  0  0  0  0  0  0  0
    3.8800    1.8397   19.2336 H   0  0  0  0  0  0  0  0  0  0  0  0
  1  2  1  0
  2  3  2  0
  3  4  1  0
  4  5  1  0
  4  6  2  0
  6  7  1  0
  7  8  1  0
  8  9  2  0
  8 10  1  0
 10 11  1  0
 11 12  1  0
 11 13  1  0
 11 14  1  0
 10 15  2  0
 15 16  1  0
 15 17  1  0
 17 18  1  0
  6 19  1  0
 19 20  1  0
 19 21  2  0
 21 22  1  0
 21  2  1  0
 17  7  1  0
M  END
>  <cnnaffinity>  (1) 
-4.25223

>  <filename>  (1) 
O=c1c(CF)c[nH]n1-c1cccnc1

$$$$
