
     RDKit          3D

 20 21  0  0  0  0  0  0  0  0999 V2000
    4.9175    1.7814   17.0039 H   0  0  0  0  0  0  0  0  0  0  0  0
    5.4004    1.2887   17.8445 C   0  0  0  0  0  0  0  0  0  0  0  0
    6.5616    0.6695   17.5789 N   0  0  0  0  0  0  0  0  0  0  0  0
    7.1854    0.0572   18.5912 C   0  0  0  0  0  0  0  0  0  0  0  0
    8.1350   -0.4282   18.3766 H   0  0  0  0  0  0  0  0  0  0  0  0
    6.6853    0.0104   19.9134 C   0  0  0  0  0  0  0  0  0  0  0  0
    7.3759   -0.6658   20.9504 N   0  0  0  0  0  0  0  0  0  0  0  0
    8.7609   -0.7183   21.1151 C   0  0  0  0  0  0  0  0  0  0  0  0
    9.6240   -0.1696   20.4782 O   0  0  0  0  0  0  0  0  0  0  0  0
    9.0046   -1.5353   22.1886 N   0  0  0  0  0  0  0  0  0  0  0  0
    9.9320   -1.7018   22.5215 H   0  0  0  0  0  0  0  0  0  0  0  0
    7.8913   -2.0216   22.7929 C   0  0  0  0  0  0  0  0  0  0  0  0
    7.8714   -2.7041   23.7803 O   0  0  0  0  0  0  0  0  0  0  0  0
    6.7152   -1.4788   21.9643 C   0  0  2  0  0  0  0  0  0  0  0  0
    6.0935   -0.8780   22.6304 H   0  0  0  0  0  0  0  0  0  0  0  0
    5.7438   -2.7917   21.2891 Cl  0  0  0  0  0  0  0  0  0  0  0  0
    5.4592    0.6396   20.1681 C   0  0  0  0  0  0  0  0  0  0  0  0
    5.0250    0.6164   21.1660 H   0  0  0  0  0  0  0  0  0  0  0  0
    4.8202    1.2996   19.1154 C   0  0  0  0  0  0  0  0  0  0  0  0
    3.8893    1.8291   19.2714 H   0  0  0  0  0  0  0  0  0  0  0  0
  1  2  1  0
  2  3  2  0
  3  4  1  0
  4  5  1  0
  4  6  2  0
  6  7  1  0
  7  8  1  0
  8  9  2  0
  8 10  1  0
 10 11  1  0
 10 12  1  0
 12 13  2  0
 12 14  1  0
 14 15  1  1
 14 16  1  0
  6 17  1  0
 17 18  1  0
 17 19  2  0
 19 20  1  0
 19  2  1  0
 14  7  1  0
M  END
>  <cnnaffinity>  (1) 
-4.2006

>  <filename>  (1) 
O=C1NC(=O)N(c2cccnc2)[C@H]1Cl

$$$$
