
     RDKit          3D

 33 35  0  0  0  0  0  0  0  0999 V2000
    7.6694    0.5408   24.1289 H   0  0  0  0  0  0  0  0  0  0  0  0
    8.0750    0.9442   23.1931 C   0  0  0  0  0  0  0  0  0  0  0  0
    8.2841    2.2648   23.0674 C   0  0  0  0  0  0  0  0  0  0  0  0
    8.1551    3.4498   24.3752 S   0  0  0  0  0  0  0  0  0  0  0  0
    8.4858    4.8043   23.2308 C   0  0  0  0  0  0  0  0  0  0  0  0
    8.6333    5.9591   23.5092 O   0  0  0  0  0  0  0  0  0  0  0  0
    8.5345    4.2996   21.9643 N   0  0  0  0  0  0  0  0  0  0  0  0
    8.8927    4.8715   21.2214 H   0  0  0  0  0  0  0  0  0  0  0  0
    8.5468    2.9425   21.7826 C   0  0  0  0  0  0  0  0  0  0  0  0
    8.7568    2.4542   20.6943 O   0  0  0  0  0  0  0  0  0  0  0  0
    8.3618    0.0414   22.1795 N   0  0  0  0  0  0  0  0  0  0  0  0
    9.6821   -0.0518   21.5492 C   0  0  0  0  0  0  0  0  0  0  0  0
   10.4274    0.4166   22.2021 H   0  0  0  0  0  0  0  0  0  0  0  0
    9.6946    0.4431   20.5671 H   0  0  0  0  0  0  0  0  0  0  0  0
   10.0306   -1.5312   21.3927 C   0  0  0  0  0  0  0  0  0  0  0  0
   10.9676   -1.6541   20.8460 H   0  0  0  0  0  0  0  0  0  0  0  0
   10.1382   -1.9811   22.3940 H   0  0  0  0  0  0  0  0  0  0  0  0
    9.0335   -2.2219   20.6587 O   0  0  0  0  0  0  0  0  0  0  0  0
    7.7747   -2.1705   21.3213 C   0  0  0  0  0  0  0  0  0  0  0  0
    7.8566   -2.6885   22.2877 H   0  0  0  0  0  0  0  0  0  0  0  0
    7.0570   -2.7054   20.6953 H   0  0  0  0  0  0  0  0  0  0  0  0
    7.2806   -0.7247   21.5593 C   0  0  2  0  0  0  0  0  0  0  0  0
    6.4732   -0.7553   22.3041 H   0  0  0  0  0  0  0  0  0  0  0  0
    6.7173   -0.0637   20.2991 C   0  0  0  0  0  0  0  0  0  0  0  0
    7.3419   -0.1949   19.0486 C   0  0  0  0  0  0  0  0  0  0  0  0
    8.2351   -0.8041   18.9406 H   0  0  0  0  0  0  0  0  0  0  0  0
    6.8887    0.3640   17.9143 N   0  0  0  0  0  0  0  0  0  0  0  0
    5.7830    1.1135   18.0064 C   0  0  0  0  0  0  0  0  0  0  0  0
    5.4471    1.5721   17.0804 H   0  0  0  0  0  0  0  0  0  0  0  0
    5.0769    1.3163   19.1967 C   0  0  0  0  0  0  0  0  0  0  0  0
    4.1850    1.9368   19.2003 H   0  0  0  0  0  0  0  0  0  0  0  0
    5.5563    0.7167   20.3627 C   0  0  0  0  0  0  0  0  0  0  0  0
    5.0352    0.8557   21.3126 H   0  0  0  0  0  0  0  0  0  0  0  0
  1  2  1  0
  2  3  2  3
  3  4  1  0
  4  5  1  0
  5  6  2  0
  5  7  1  0
  7  8  1  0
  7  9  1  0
  9 10  2  0
  2 11  1  0
 11 12  1  0
 12 13  1  0
 12 14  1  0
 12 15  1  0
 15 16  1  0
 15 17  1  0
 15 18  1  0
 18 19  1  0
 19 20  1  0
 19 21  1  0
 19 22  1  0
 22 23  1  1
 22 24  1  0
 24 25  2  0
 25 26  1  0
 25 27  1  0
 27 28  2  0
 28 29  1  0
 28 30  1  0
 30 31  1  0
 30 32  2  0
 32 33  1  0
  9  3  1  0
 22 11  1  0
 32 24  1  0
M  END
>  <cnnaffinity>  (1) 
-4.68151

>  <filename>  (1) 
O=C1NC(=O)C(=CN2CCOC[C@@H]2c2cccnc2)S1

$$$$
