
     RDKit          3D

 31 34  0  0  0  0  0  0  0  0999 V2000
    4.9135    1.7746   17.0038 H   0  0  0  0  0  0  0  0  0  0  0  0
    5.4040    1.2923   17.8446 C   0  0  0  0  0  0  0  0  0  0  0  0
    6.5726    0.6816   17.5843 N   0  0  0  0  0  0  0  0  0  0  0  0
    7.1752    0.0549   18.5970 C   0  0  0  0  0  0  0  0  0  0  0  0
    8.1229   -0.4367   18.3776 H   0  0  0  0  0  0  0  0  0  0  0  0
    6.6522    0.0157   19.8938 C   0  0  0  0  0  0  0  0  0  0  0  0
    7.3659   -0.7419   20.9038 C   0  0  0  0  0  0  0  0  0  0  0  0
    7.8691   -1.9176   20.6930 N   0  0  0  0  0  0  0  0  0  0  0  0
    8.3510   -2.2904   21.9199 N   0  0  0  0  0  0  0  0  0  0  0  0
    8.8094   -3.1680   22.0914 H   0  0  0  0  0  0  0  0  0  0  0  0
    8.1951   -1.3587   22.8994 C   0  0  0  0  0  0  0  0  0  0  0  0
    8.5411   -1.4044   24.0561 O   0  0  0  0  0  0  0  0  0  0  0  0
    7.5287   -0.3103   22.2199 N   0  0  0  0  0  0  0  0  0  0  0  0
    7.2560    0.9590   22.7858 C   0  0  0  0  0  0  0  0  0  0  0  0
    6.7820    1.1062   24.4781 S   0  0  0  0  0  0  0  0  0  0  0  0
    6.6828    2.8524   24.3233 C   0  0  0  0  0  0  0  0  0  0  0  0
    6.3439    3.7875   25.3168 C   0  0  0  0  0  0  0  0  0  0  0  0
    6.0933    3.4543   26.3208 H   0  0  0  0  0  0  0  0  0  0  0  0
    6.3386    5.1427   24.9870 C   0  0  0  0  0  0  0  0  0  0  0  0
    6.0769    5.8823   25.7416 H   0  0  0  0  0  0  0  0  0  0  0  0
    6.6691    5.5724   23.6806 C   0  0  0  0  0  0  0  0  0  0  0  0
    6.6591    6.6322   23.4393 H   0  0  0  0  0  0  0  0  0  0  0  0
    7.0072    4.6495   22.6989 C   0  0  0  0  0  0  0  0  0  0  0  0
    7.2650    4.9585   21.6874 H   0  0  0  0  0  0  0  0  0  0  0  0
    7.0200    3.2741   23.0175 C   0  0  0  0  0  0  0  0  0  0  0  0
    7.3506    2.1660   22.1669 C   0  0  0  0  0  0  0  0  0  0  0  0
    7.6332    2.3131   21.1318 H   0  0  0  0  0  0  0  0  0  0  0  0
    5.4297    0.6498   20.1537 C   0  0  0  0  0  0  0  0  0  0  0  0
    5.0049    0.6328   21.1593 H   0  0  0  0  0  0  0  0  0  0  0  0
    4.8010    1.3111   19.1068 C   0  0  0  0  0  0  0  0  0  0  0  0
    3.8716    1.8447   19.2628 H   0  0  0  0  0  0  0  0  0  0  0  0
  1  2  1  0
  2  3  2  0
  3  4  1  0
  4  5  1  0
  4  6  2  0
  6  7  1  0
  7  8  2  0
  8  9  1  0
  9 10  1  0
  9 11  1  0
 11 12  2  0
 11 13  1  0
 13 14  1  0
 14 15  1  0
 15 16  1  0
 16 17  2  0
 17 18  1  0
 17 19  1  0
 19 20  1  0
 19 21  2  0
 21 22  1  0
 21 23  1  0
 23 24  1  0
 23 25  2  0
 25 26  1  0
 26 27  1  0
  6 28  1  0
 28 29  1  0
 28 30  2  0
 30 31  1  0
 30  2  1  0
 13  7  1  0
 26 14  2  0
 25 16  1  0
M  END
>  <cnnaffinity>  (1) 
-5.11934

>  <filename>  (1) 
O=c1[nH]nc(-c2cccnc2)n1-c1cc2ccccc2s1

$$$$
