
     RDKit          3D

 33 36  0  0  0  0  0  0  0  0999 V2000
    4.9373    1.8017   16.9825 H   0  0  0  0  0  0  0  0  0  0  0  0
    5.3989    1.2954   17.8292 C   0  0  0  0  0  0  0  0  0  0  0  0
    6.5589    0.6713   17.5722 N   0  0  0  0  0  0  0  0  0  0  0  0
    7.1538    0.0411   18.5880 C   0  0  0  0  0  0  0  0  0  0  0  0
    8.1009   -0.4402   18.3514 H   0  0  0  0  0  0  0  0  0  0  0  0
    6.6409    0.0081   19.8965 C   0  0  0  0  0  0  0  0  0  0  0  0
    7.4061   -0.7031   20.9194 C   0  0  0  0  0  0  0  0  0  0  0  0
    8.0475   -1.8053   20.6833 N   0  0  0  0  0  0  0  0  0  0  0  0
    8.5566   -2.1596   21.9005 N   0  0  0  0  0  0  0  0  0  0  0  0
    9.1535   -2.9507   22.0671 H   0  0  0  0  0  0  0  0  0  0  0  0
    8.3048   -1.2855   22.9011 C   0  0  0  0  0  0  0  0  0  0  0  0
    8.6817   -1.3777   24.0530 O   0  0  0  0  0  0  0  0  0  0  0  0
    7.5221   -0.3045   22.2489 N   0  0  0  0  0  0  0  0  0  0  0  0
    7.1155    0.9339   22.8442 C   0  0  0  0  0  0  0  0  0  0  0  0
    7.6009    2.1376   22.3604 C   0  0  0  0  0  0  0  0  0  0  0  0
    8.2928    2.1604   21.5186 H   0  0  0  0  0  0  0  0  0  0  0  0
    7.2931    3.3456   22.8954 N   0  0  0  0  0  0  0  0  0  0  0  0
    6.4582    3.3838   23.9093 C   0  0  0  0  0  0  0  0  0  0  0  0
    6.2394    4.3706   24.3134 H   0  0  0  0  0  0  0  0  0  0  0  0
    5.8505    2.2298   24.5006 C   0  0  0  0  0  0  0  0  0  0  0  0
    4.9303    2.3000   25.5977 C   0  0  0  0  0  0  0  0  0  0  0  0
    4.6990    3.2723   26.0278 H   0  0  0  0  0  0  0  0  0  0  0  0
    4.3626    1.1573   26.1091 C   0  0  0  0  0  0  0  0  0  0  0  0
    3.6556    1.2185   26.9347 H   0  0  0  0  0  0  0  0  0  0  0  0
    4.7087   -0.1143   25.5805 C   0  0  0  0  0  0  0  0  0  0  0  0
    4.2130   -1.0126   25.9423 H   0  0  0  0  0  0  0  0  0  0  0  0
    5.6478   -0.2092   24.5742 C   0  0  0  0  0  0  0  0  0  0  0  0
    5.9325   -1.1741   24.1633 H   0  0  0  0  0  0  0  0  0  0  0  0
    6.2119    0.9548   23.9682 C   0  0  0  0  0  0  0  0  0  0  0  0
    5.4223    0.6546   20.1512 C   0  0  0  0  0  0  0  0  0  0  0  0
    5.0108    0.6611   21.1651 H   0  0  0  0  0  0  0  0  0  0  0  0
    4.7956    1.3078   19.0928 C   0  0  0  0  0  0  0  0  0  0  0  0
    3.8677    1.8463   19.2353 H   0  0  0  0  0  0  0  0  0  0  0  0
  1  2  1  0
  2  3  2  0
  3  4  1  0
  4  5  1  0
  4  6  2  0
  6  7  1  0
  7  8  2  0
  8  9  1  0
  9 10  1  0
  9 11  1  0
 11 12  2  0
 11 13  1  0
 13 14  1  0
 14 15  2  0
 15 16  1  0
 15 17  1  0
 17 18  2  0
 18 19  1  0
 18 20  1  0
 20 21  2  0
 21 22  1  0
 21 23  1  0
 23 24  1  0
 23 25  2  0
 25 26  1  0
 25 27  1  0
 27 28  1  0
 27 29  2  0
  6 30  1  0
 30 31  1  0
 30 32  2  0
 32 33  1  0
 32  2  1  0
 13  7  1  0
 29 14  1  0
 29 20  1  0
M  END
>  <cnnaffinity>  (1) 
-5.12901

>  <filename>  (1) 
O=c1[nH]nc(-c2cccnc2)n1-c1cncc2ccccc12

$$$$
