
     RDKit          3D

 33 35  0  0  0  0  0  0  0  0999 V2000
    4.9647    1.7696   16.9460 H   0  0  0  0  0  0  0  0  0  0  0  0
    5.3997    1.3107   17.8304 C   0  0  0  0  0  0  0  0  0  0  0  0
    6.5802    0.6986   17.6545 N   0  0  0  0  0  0  0  0  0  0  0  0
    7.1460    0.1511   18.7327 C   0  0  0  0  0  0  0  0  0  0  0  0
    8.1045   -0.3314   18.5467 H   0  0  0  0  0  0  0  0  0  0  0  0
    6.6000    0.1808   20.0315 C   0  0  0  0  0  0  0  0  0  0  0  0
    7.3529   -0.4781   21.1464 C   0  0  0  0  0  0  0  0  0  0  0  0
    7.1730   -0.0672   22.3818 N   0  0  0  0  0  0  0  0  0  0  0  0
    7.8546   -0.6955   23.3823 N   0  0  0  0  0  0  0  0  0  0  0  0
    7.6315   -0.1512   24.7324 C   0  0  0  0  0  0  0  0  0  0  0  0
    7.4855    0.9285   24.6110 H   0  0  0  0  0  0  0  0  0  0  0  0
    8.5498   -0.2985   25.3007 H   0  0  0  0  0  0  0  0  0  0  0  0
    6.4504   -0.7881   25.4395 C   0  0  0  0  0  0  0  0  0  0  0  0
    6.6100   -1.8932   26.2932 C   0  0  0  0  0  0  0  0  0  0  0  0
    7.6006   -2.2955   26.4902 H   0  0  0  0  0  0  0  0  0  0  0  0
    5.4905   -2.5222   26.8450 C   0  0  0  0  0  0  0  0  0  0  0  0
    5.6128   -3.3851   27.4920 H   0  0  0  0  0  0  0  0  0  0  0  0
    4.2018   -2.0648   26.5544 C   0  0  0  0  0  0  0  0  0  0  0  0
    3.3166   -2.5642   26.9375 H   0  0  0  0  0  0  0  0  0  0  0  0
    4.0566   -0.9368   25.7481 C   0  0  0  0  0  0  0  0  0  0  0  0
    2.4652   -0.3242   25.4163 Cl  0  0  0  0  0  0  0  0  0  0  0  0
    5.1635   -0.2957   25.1896 C   0  0  0  0  0  0  0  0  0  0  0  0
    5.0167    0.5453   24.5164 H   0  0  0  0  0  0  0  0  0  0  0  0
    8.6051   -1.8899   23.2613 C   0  0  0  0  0  0  0  0  0  0  0  0
    9.1072   -2.4643   24.2141 O   0  0  0  0  0  0  0  0  0  0  0  0
    8.7510   -2.3302   21.8795 C   0  0  0  0  0  0  0  0  0  0  0  0
    9.3106   -3.2529   21.7723 H   0  0  0  0  0  0  0  0  0  0  0  0
    8.2290   -1.5940   20.8662 C   0  0  0  0  0  0  0  0  0  0  0  0
    8.4541   -1.8349   19.8451 H   0  0  0  0  0  0  0  0  0  0  0  0
    5.3487    0.8025   20.1893 C   0  0  0  0  0  0  0  0  0  0  0  0
    4.8649    0.8374   21.1681 H   0  0  0  0  0  0  0  0  0  0  0  0
    4.7446    1.3718   19.0649 C   0  0  0  0  0  0  0  0  0  0  0  0
    3.7816    1.8660   19.1294 H   0  0  0  0  0  0  0  0  0  0  0  0
  1  2  1  0
  2  3  2  0
  3  4  1  0
  4  5  1  0
  4  6  2  0
  6  7  1  0
  7  8  2  0
  8  9  1  0
  9 10  1  0
 10 11  1  0
 10 12  1  0
 10 13  1  0
 13 14  2  0
 14 15  1  0
 14 16  1  0
 16 17  1  0
 16 18  2  0
 18 19  1  0
 18 20  1  0
 20 21  1  0
 20 22  2  0
 22 23  1  0
  9 24  1  0
 24 25  2  0
 24 26  1  0
 26 27  1  0
 26 28  2  0
 28 29  1  0
  6 30  1  0
 30 31  1  0
 30 32  2  0
 32 33  1  0
 32  2  1  0
 28  7  1  0
 22 13  1  0
M  END
>  <cnnaffinity>  (1) 
-4.83255

>  <filename>  (1) 
O=c1ccc(-c2cccnc2)nn1Cc1cccc(Cl)c1

$$$$
