
     RDKit          3D

 34 37  0  0  0  0  0  0  0  0999 V2000
    4.9933    1.8322   16.9687 H   0  0  0  0  0  0  0  0  0  0  0  0
    5.4537    1.3147   17.8083 C   0  0  0  0  0  0  0  0  0  0  0  0
    6.6425    0.7405   17.5660 N   0  0  0  0  0  0  0  0  0  0  0  0
    7.2446    0.1151   18.5790 C   0  0  0  0  0  0  0  0  0  0  0  0
    8.2284   -0.3035   18.3672 H   0  0  0  0  0  0  0  0  0  0  0  0
    6.6650   -0.0391   19.8527 C   0  0  0  0  0  0  0  0  0  0  0  0
    7.3912   -0.8314   20.8616 C   0  0  0  0  0  0  0  0  0  0  0  0
    8.6871   -0.6177   20.9419 N   0  0  0  0  0  0  0  0  0  0  0  0
    9.4250   -1.1934   21.9540 C   0  0  0  0  0  0  0  0  0  0  0  0
   10.8880   -0.8966   21.9545 C   0  0  0  0  0  0  0  0  0  0  0  0
   11.8408   -1.9122   22.0990 C   0  0  0  0  0  0  0  0  0  0  0  0
   11.5153   -2.9464   22.1235 H   0  0  0  0  0  0  0  0  0  0  0  0
   13.2207   -1.6177   22.1792 C   0  0  0  0  0  0  0  0  0  0  0  0
   13.9471   -2.4293   22.1803 H   0  0  0  0  0  0  0  0  0  0  0  0
   13.6682   -0.3040   22.2644 C   0  0  0  0  0  0  0  0  0  0  0  0
   14.7249   -0.0788   22.3711 H   0  0  0  0  0  0  0  0  0  0  0  0
   12.7089    0.7145   22.1337 C   0  0  0  0  0  0  0  0  0  0  0  0
   11.3533    0.4399   21.8319 C   0  0  0  0  0  0  0  0  0  0  0  0
   10.7738    1.6973   21.4297 C   0  0  0  0  0  0  0  0  0  0  0  0
    9.7624    1.8056   21.0702 H   0  0  0  0  0  0  0  0  0  0  0  0
   11.7229    2.6621   21.5722 C   0  0  0  0  0  0  0  0  0  0  0  0
   11.6684    3.7343   21.4072 H   0  0  0  0  0  0  0  0  0  0  0  0
   12.8792    2.0771   22.0587 N   0  0  0  0  0  0  0  0  0  0  0  0
   13.7935    2.4937   21.9973 H   0  0  0  0  0  0  0  0  0  0  0  0
    8.8336   -1.9769   22.9198 C   0  0  0  0  0  0  0  0  0  0  0  0
    9.3653   -2.3802   23.7799 H   0  0  0  0  0  0  0  0  0  0  0  0
    7.4911   -2.2681   22.7992 N   0  0  0  0  0  0  0  0  0  0  0  0
    6.9620   -2.8827   23.4107 H   0  0  0  0  0  0  0  0  0  0  0  0
    6.6817   -1.8428   21.7441 C   0  0  0  0  0  0  0  0  0  0  0  0
    5.5682   -2.3268   21.6536 O   0  0  0  0  0  0  0  0  0  0  0  0
    5.4397    0.5971   20.1019 C   0  0  0  0  0  0  0  0  0  0  0  0
    4.9806    0.5577   21.0893 H   0  0  0  0  0  0  0  0  0  0  0  0
    4.8289    1.2882   19.0562 C   0  0  0  0  0  0  0  0  0  0  0  0
    3.8985    1.8235   19.1972 H   0  0  0  0  0  0  0  0  0  0  0  0
  1  2  1  0
  2  3  2  0
  3  4  1  0
  4  5  1  0
  4  6  2  0
  6  7  1  0
  7  8  2  0
  8  9  1  0
  9 10  1  0
 10 11  2  0
 11 12  1  0
 11 13  1  0
 13 14  1  0
 13 15  2  0
 15 16  1  0
 15 17  1  0
 17 18  2  0
 18 19  1  0
 19 20  1  0
 19 21  2  0
 21 22  1  0
 21 23  1  0
 23 24  1  0
  9 25  2  0
 25 26  1  0
 25 27  1  0
 27 28  1  0
 27 29  1  0
 29 30  2  0
  6 31  1  0
 31 32  1  0
 31 33  2  0
 33 34  1  0
 33  2  1  0
 29  7  1  0
 18 10  1  0
 23 17  1  0
M  END
>  <cnnaffinity>  (1) 
-6.33737

>  <filename>  (1) 
O=c1[nH]cc(-c2cccc3[nH]ccc23)nc1-c1cccnc1

$$$$
