
     RDKit          3D

 33 36  0  0  0  0  0  0  0  0999 V2000
    4.9142    1.8225   16.9646 H   0  0  0  0  0  0  0  0  0  0  0  0
    5.3875    1.3000   17.7978 C   0  0  0  0  0  0  0  0  0  0  0  0
    6.5401    0.6648   17.5326 N   0  0  0  0  0  0  0  0  0  0  0  0
    7.1756    0.0484   18.5378 C   0  0  0  0  0  0  0  0  0  0  0  0
    8.1253   -0.4258   18.2957 H   0  0  0  0  0  0  0  0  0  0  0  0
    6.6893    0.0082   19.8624 C   0  0  0  0  0  0  0  0  0  0  0  0
    7.3685   -0.6811   20.9169 N   0  0  0  0  0  0  0  0  0  0  0  0
    6.7463   -1.4296   21.9144 C   0  0  0  0  0  0  0  0  0  0  0  0
    5.6799   -1.5833   21.8687 H   0  0  0  0  0  0  0  0  0  0  0  0
    7.6837   -1.9120   22.7731 C   0  0  0  0  0  0  0  0  0  0  0  0
    7.5323   -2.7055   24.0089 C   0  0  0  0  0  0  0  0  0  0  0  0
    6.4246   -2.4952   24.8467 C   0  0  0  0  0  0  0  0  0  0  0  0
    5.7170   -1.7047   24.6035 H   0  0  0  0  0  0  0  0  0  0  0  0
    6.2350   -3.2468   26.0283 C   0  0  0  0  0  0  0  0  0  0  0  0
    5.3866   -3.0228   26.6680 H   0  0  0  0  0  0  0  0  0  0  0  0
    7.1219   -4.2510   26.4082 C   0  0  0  0  0  0  0  0  0  0  0  0
    6.9701   -4.8248   27.3197 H   0  0  0  0  0  0  0  0  0  0  0  0
    8.2349   -4.4674   25.5802 C   0  0  0  0  0  0  0  0  0  0  0  0
    8.4741   -3.7058   24.4047 C   0  0  0  0  0  0  0  0  0  0  0  0
    9.7301   -4.1757   23.8949 C   0  0  0  0  0  0  0  0  0  0  0  0
   10.2256   -3.8276   23.0054 H   0  0  0  0  0  0  0  0  0  0  0  0
   10.1952   -5.1520   24.7250 C   0  0  0  0  0  0  0  0  0  0  0  0
   11.1300   -5.6982   24.6773 H   0  0  0  0  0  0  0  0  0  0  0  0
    9.2848   -5.3405   25.7385 N   0  0  0  0  0  0  0  0  0  0  0  0
    9.3316   -6.0359   26.4648 H   0  0  0  0  0  0  0  0  0  0  0  0
    8.9079   -1.4897   22.2489 N   0  0  0  0  0  0  0  0  0  0  0  0
    9.7908   -1.4169   22.7158 H   0  0  0  0  0  0  0  0  0  0  0  0
    8.7515   -0.6840   21.1492 C   0  0  0  0  0  0  0  0  0  0  0  0
    9.6484   -0.1257   20.5506 O   0  0  0  0  0  0  0  0  0  0  0  0
    5.4777    0.6618   20.1189 C   0  0  0  0  0  0  0  0  0  0  0  0
    5.0783    0.6800   21.1302 H   0  0  0  0  0  0  0  0  0  0  0  0
    4.8189    1.3139   19.0727 C   0  0  0  0  0  0  0  0  0  0  0  0
    3.8848    1.8368   19.2355 H   0  0  0  0  0  0  0  0  0  0  0  0
  1  2  1  0
  2  3  2  0
  3  4  1  0
  4  5  1  0
  4  6  2  0
  6  7  1  0
  7  8  1  0
  8  9  1  0
  8 10  2  0
 10 11  1  0
 11 12  2  0
 12 13  1  0
 12 14  1  0
 14 15  1  0
 14 16  2  0
 16 17  1  0
 16 18  1  0
 18 19  2  0
 19 20  1  0
 20 21  1  0
 20 22  2  0
 22 23  1  0
 22 24  1  0
 24 25  1  0
 10 26  1  0
 26 27  1  0
 26 28  1  0
 28 29  2  0
  6 30  1  0
 30 31  1  0
 30 32  2  0
 32 33  1  0
 32  2  1  0
 28  7  1  0
 19 11  1  0
 24 18  1  0
M  END
>  <cnnaffinity>  (1) 
-5.34109

>  <filename>  (1) 
O=c1[nH]c(-c2cccc3[nH]ccc23)cn1-c1cccnc1

$$$$
