
     RDKit          3D

 33 35  0  0  0  0  0  0  0  0999 V2000
    5.2659    1.7440   16.9370 H   0  0  0  0  0  0  0  0  0  0  0  0
    5.6728    1.1927   17.7820 C   0  0  0  0  0  0  0  0  0  0  0  0
    6.8314    0.5539   17.5653 N   0  0  0  0  0  0  0  0  0  0  0  0
    7.3581   -0.1237   18.5962 C   0  0  0  0  0  0  0  0  0  0  0  0
    8.3090   -0.6217   18.4031 H   0  0  0  0  0  0  0  0  0  0  0  0
    6.7552   -0.2392   19.8630 C   0  0  0  0  0  0  0  0  0  0  0  0
    7.4121   -0.9588   20.9600 C   0  0  0  0  0  0  0  0  0  0  0  0
    8.5809   -0.5818   21.5546 C   0  0  0  0  0  0  0  0  0  0  0  0
    9.3985    0.6740   21.3687 C   0  0  0  0  0  0  0  0  0  0  0  0
    9.3049    1.0456   20.3374 H   0  0  0  0  0  0  0  0  0  0  0  0
   10.4613    0.3971   21.4987 H   0  0  0  0  0  0  0  0  0  0  0  0
    9.0032    1.8402   22.3072 C   0  0  0  0  0  0  0  0  0  0  0  0
    9.0747    1.8271   23.7421 C   0  0  0  0  0  0  0  0  0  0  0  0
    9.4754    1.0130   24.3666 H   0  0  0  0  0  0  0  0  0  0  0  0
    8.5801    3.0690   24.2518 C   0  0  0  0  0  0  0  0  0  0  0  0
    9.1850    3.8724   24.6527 H   0  0  0  0  0  0  0  0  0  0  0  0
    8.1020    3.9524   23.0937 C   0  0  0  0  0  0  0  0  0  0  0  0
    7.5523    5.0098   23.0335 H   0  0  0  0  0  0  0  0  0  0  0  0
    7.9800    3.8914   22.9816 C   0  0  0  0  0  0  0  0  0  0  0  0
    5.9294    2.7805   22.7748 Cl  0  0  0  0  0  0  0  0  0  0  0  0
    8.4730    3.0775   21.7748 C   0  0  0  0  0  0  0  0  0  0  0  0
    7.5652    3.0918   21.1718 H   0  0  0  0  0  0  0  0  0  0  0  0
    8.8098   -1.4530   22.7242 C   0  0  0  0  0  0  0  0  0  0  0  0
    9.6521   -1.3973   23.6027 O   0  0  0  0  0  0  0  0  0  0  0  0
    7.8364   -2.4155   22.6724 N   0  0  0  0  0  0  0  0  0  0  0  0
    7.7246   -2.9493   23.5192 H   0  0  0  0  0  0  0  0  0  0  0  0
    6.8250   -2.1504   21.6706 C   0  0  0  0  0  0  0  0  0  0  0  0
    6.6834   -3.0054   20.9916 H   0  0  0  0  0  0  0  0  0  0  0  0
    5.8404   -1.9099   22.1043 H   0  0  0  0  0  0  0  0  0  0  0  0
    5.5173    0.4001   20.0483 C   0  0  0  0  0  0  0  0  0  0  0  0
    5.0151    0.3350   21.0172 H   0  0  0  0  0  0  0  0  0  0  0  0
    4.9920    1.1611   19.0042 C   0  0  0  0  0  0  0  0  0  0  0  0
    4.0836    1.7398   19.1317 H   0  0  0  0  0  0  0  0  0  0  0  0
  1  2  1  0
  2  3  2  0
  3  4  1  0
  4  5  1  0
  4  6  2  0
  6  7  1  0
  7  8  2  0
  8  9  1  0
  9 10  1  0
  9 11  1  0
  9 12  1  0
 12 13  2  0
 13 14  1  0
 13 15  1  0
 15 16  1  0
 15 17  2  0
 17 18  1  0
 17 19  1  0
 19 20  1  0
 19 21  2  0
 21 22  1  0
  8 23  1  0
 23 24  2  0
 23 25  1  0
 25 26  1  0
 25 27  1  0
 27 28  1  0
 27 29  1  0
  6 30  1  0
 30 31  1  0
 30 32  2  0
 32 33  1  0
 32  2  1  0
 27  7  1  0
 21 12  1  0
M  END
>  <cnnaffinity>  (1) 
-5.00968

>  <filename>  (1) 
O=C1NCC(c2cccnc2)=C1Cc1cccc(Cl)c1

$$$$
