
     RDKit          3D

 31 34  0  0  0  0  0  0  0  0999 V2000
    4.9338    1.7976   16.9926 H   0  0  0  0  0  0  0  0  0  0  0  0
    5.4046    1.2945   17.8329 C   0  0  0  0  0  0  0  0  0  0  0  0
    6.5794    0.6901   17.5806 N   0  0  0  0  0  0  0  0  0  0  0  0
    7.1856    0.0628   18.5972 C   0  0  0  0  0  0  0  0  0  0  0  0
    8.1367   -0.4248   18.3784 H   0  0  0  0  0  0  0  0  0  0  0  0
    6.6445    0.0047   19.9057 C   0  0  0  0  0  0  0  0  0  0  0  0
    7.2637   -0.7082   20.9908 N   0  0  0  0  0  0  0  0  0  0  0  0
    7.8431   -0.2068   22.1558 C   0  0  0  0  0  0  0  0  0  0  0  0
    7.6970    1.1264   22.7218 C   0  0  0  0  0  0  0  0  0  0  0  0
    7.2894    2.1819   21.9366 O   0  0  0  0  0  0  0  0  0  0  0  0
    7.2802    3.2761   22.7451 C   0  0  0  0  0  0  0  0  0  0  0  0
    6.9612    4.5785   22.3589 C   0  0  0  0  0  0  0  0  0  0  0  0
    6.6668    4.7937   21.3385 H   0  0  0  0  0  0  0  0  0  0  0  0
    7.0408    5.5628   23.3441 C   0  0  0  0  0  0  0  0  0  0  0  0
    6.8019    6.5929   23.0805 H   0  0  0  0  0  0  0  0  0  0  0  0
    7.4208    5.2482   24.6679 C   0  0  0  0  0  0  0  0  0  0  0  0
    7.4716    6.0460   25.4044 H   0  0  0  0  0  0  0  0  0  0  0  0
    7.7265    3.9376   25.0359 C   0  0  0  0  0  0  0  0  0  0  0  0
    8.0230    3.6872   26.0506 H   0  0  0  0  0  0  0  0  0  0  0  0
    7.6528    2.9271   24.0531 C   0  0  0  0  0  0  0  0  0  0  0  0
    7.9076    1.5161   24.0108 C   0  0  0  0  0  0  0  0  0  0  0  0
    8.2035    0.8711   24.8309 H   0  0  0  0  0  0  0  0  0  0  0  0
    8.4812   -1.1396   22.8107 N   0  0  0  0  0  0  0  0  0  0  0  0
    8.2371   -2.2746   22.0978 N   0  0  0  0  0  0  0  0  0  0  0  0
    8.4818   -3.1905   22.4261 H   0  0  0  0  0  0  0  0  0  0  0  0
    7.3261   -2.1110   21.0901 C   0  0  0  0  0  0  0  0  0  0  0  0
    6.7156   -2.9538   20.4719 O   0  0  0  0  0  0  0  0  0  0  0  0
    5.4301    0.6406   20.1469 C   0  0  0  0  0  0  0  0  0  0  0  0
    5.0176    0.6114   21.1560 H   0  0  0  0  0  0  0  0  0  0  0  0
    4.7923    1.2993   19.0900 C   0  0  0  0  0  0  0  0  0  0  0  0
    3.8473    1.8134   19.2435 H   0  0  0  0  0  0  0  0  0  0  0  0
  1  2  1  0
  2  3  2  0
  3  4  1  0
  4  5  1  0
  4  6  2  0
  6  7  1  0
  7  8  1  0
  8  9  1  0
  9 10  1  0
 10 11  1  0
 11 12  2  0
 12 13  1  0
 12 14  1  0
 14 15  1  0
 14 16  2  0
 16 17  1  0
 16 18  1  0
 18 19  1  0
 18 20  2  0
 20 21  1  0
 21 22  1  0
  8 23  2  0
 23 24  1  0
 24 25  1  0
 24 26  1  0
 26 27  2  0
  6 28  1  0
 28 29  1  0
 28 30  2  0
 30 31  1  0
 30  2  1  0
 26  7  1  0
 21  9  2  0
 20 11  1  0
M  END
>  <cnnaffinity>  (1) 
-4.93078

>  <filename>  (1) 
O=c1[nH]nc(-c2cc3ccccc3o2)n1-c1cccnc1

$$$$
