
     RDKit          3D

 31 33  0  0  0  0  0  0  0  0999 V2000
   11.0551    2.3795   21.6424 H   0  0  0  0  0  0  0  0  0  0  0  0
   10.4969    1.6049   21.7941 O   0  0  0  0  0  0  0  0  0  0  0  0
   11.3298    0.5409   21.9265 C   0  0  0  0  0  0  0  0  0  0  0  0
   12.7083    0.7710   22.0769 C   0  0  0  0  0  0  0  0  0  0  0  0
   13.0626    1.7993   22.1290 H   0  0  0  0  0  0  0  0  0  0  0  0
   13.6203   -0.2885   22.1256 C   0  0  0  0  0  0  0  0  0  0  0  0
   14.6838   -0.0747   22.1727 H   0  0  0  0  0  0  0  0  0  0  0  0
   13.1631   -1.6043   22.0746 C   0  0  0  0  0  0  0  0  0  0  0  0
   13.8578   -2.4445   22.0646 H   0  0  0  0  0  0  0  0  0  0  0  0
   11.7859   -1.8395   22.0519 C   0  0  0  0  0  0  0  0  0  0  0  0
   11.4017   -2.8499   22.1262 H   0  0  0  0  0  0  0  0  0  0  0  0
   10.8524   -0.7934   21.9627 C   0  0  0  0  0  0  0  0  0  0  0  0
    9.4473   -1.1106   21.9321 N   0  0  0  0  0  0  0  0  0  0  0  0
    8.7081   -0.5582   20.9304 N   0  0  0  0  0  0  0  0  0  0  0  0
    7.4251   -0.8195   20.8665 C   0  0  0  0  0  0  0  0  0  0  0  0
    6.6831   -0.0142   19.8442 C   0  0  0  0  0  0  0  0  0  0  0  0
    7.2431    0.1259   18.5609 C   0  0  0  0  0  0  0  0  0  0  0  0
    8.2122   -0.3162   18.3459 H   0  0  0  0  0  0  0  0  0  0  0  0
    6.6381    0.7502   17.5431 N   0  0  0  0  0  0  0  0  0  0  0  0
    5.4524    1.3245   17.7963 C   0  0  0  0  0  0  0  0  0  0  0  0
    4.9655    1.8123   16.9509 H   0  0  0  0  0  0  0  0  0  0  0  0
    4.8415    1.3138   19.0542 C   0  0  0  0  0  0  0  0  0  0  0  0
    3.9029    1.8379   19.1956 H   0  0  0  0  0  0  0  0  0  0  0  0
    5.4651    0.6360   20.1049 C   0  0  0  0  0  0  0  0  0  0  0  0
    5.0198    0.6159   21.1037 H   0  0  0  0  0  0  0  0  0  0  0  0
    6.7415   -1.8561   21.7491 C   0  0  0  0  0  0  0  0  0  0  0  0
    5.6292   -2.3311   21.5618 O   0  0  0  0  0  0  0  0  0  0  0  0
    7.5731   -2.2493   22.8725 C   0  0  0  0  0  0  0  0  0  0  0  0
    7.1206   -2.8513   23.6458 H   0  0  0  0  0  0  0  0  0  0  0  0
    8.8699   -1.8966   22.9046 C   0  0  0  0  0  0  0  0  0  0  0  0
    9.5353   -2.2223   23.7063 H   0  0  0  0  0  0  0  0  0  0  0  0
  1  2  1  0
  2  3  1  0
  3  4  2  0
  4  5  1  0
  4  6  1  0
  6  7  1  0
  6  8  2  0
  8  9  1  0
  8 10  1  0
 10 11  1  0
 10 12  2  0
 12 13  1  0
 13 14  1  0
 14 15  2  0
 15 16  1  0
 16 17  2  0
 17 18  1  0
 17 19  1  0
 19 20  2  0
 20 21  1  0
 20 22  1  0
 22 23  1  0
 22 24  2  0
 24 25  1  0
 15 26  1  0
 26 27  2  0
 26 28  1  0
 28 29  1  0
 28 30  2  0
 30 31  1  0
 12  3  1  0
 30 13  1  0
 24 16  1  0
M  END
>  <cnnaffinity>  (1) 
-5.71007

>  <filename>  (1) 
O=c1ccn(-c2ccccc2O)nc1-c1cccnc1

$$$$
