
     RDKit          3D

 23 24  0  0  0  0  0  0  0  0999 V2000
    4.9453    1.7923   17.0096 H   0  0  0  0  0  0  0  0  0  0  0  0
    5.4148    1.2913   17.8487 C   0  0  0  0  0  0  0  0  0  0  0  0
    6.5780    0.6794   17.5720 N   0  0  0  0  0  0  0  0  0  0  0  0
    7.1934    0.0574   18.5819 C   0  0  0  0  0  0  0  0  0  0  0  0
    8.1444   -0.4252   18.3576 H   0  0  0  0  0  0  0  0  0  0  0  0
    6.6728   -0.0278   19.8929 C   0  0  0  0  0  0  0  0  0  0  0  0
    7.3530   -0.7701   20.8997 N   0  0  0  0  0  0  0  0  0  0  0  0
    6.7606   -1.7008   21.7666 C   0  0  0  0  0  0  0  0  0  0  0  0
    5.6846   -2.2293   21.7176 O   0  0  0  0  0  0  0  0  0  0  0  0
    7.7163   -1.9782   22.7195 N   0  0  0  0  0  0  0  0  0  0  0  0
    7.5601   -2.7296   23.3615 H   0  0  0  0  0  0  0  0  0  0  0  0
    8.9692   -1.6132   22.3374 C   0  0  0  0  0  0  0  0  0  0  0  0
    9.9882   -1.9879   22.8384 O   0  0  0  0  0  0  0  0  0  0  0  0
    8.7929   -0.6795   21.1615 C   0  0  2  0  0  0  0  0  0  0  0  0
    9.4344   -0.9868   20.3269 H   0  0  0  0  0  0  0  0  0  0  0  0
    9.2934    0.6890   21.5957 C   0  0  0  0  0  0  0  0  0  0  0  0
   10.6125    0.6219   21.8061 F   0  0  0  0  0  0  0  0  0  0  0  0
    9.0578    1.5854   20.6325 F   0  0  0  0  0  0  0  0  0  0  0  0
    8.7221    1.1348   22.7197 F   0  0  0  0  0  0  0  0  0  0  0  0
    5.4570    0.6224   20.1675 C   0  0  0  0  0  0  0  0  0  0  0  0
    5.0381    0.5819   21.1757 H   0  0  0  0  0  0  0  0  0  0  0  0
    4.8233    1.3006   19.1181 C   0  0  0  0  0  0  0  0  0  0  0  0
    3.8891    1.8343   19.2667 H   0  0  0  0  0  0  0  0  0  0  0  0
  1  2  1  0
  2  3  2  0
  3  4  1  0
  4  5  1  0
  4  6  2  0
  6  7  1  0
  7  8  1  0
  8  9  2  0
  8 10  1  0
 10 11  1  0
 10 12  1  0
 12 13  2  0
 12 14  1  0
 14 15  1  6
 14 16  1  0
 16 17  1  0
 16 18  1  0
 16 19  1  0
  6 20  1  0
 20 21  1  0
 20 22  2  0
 22 23  1  0
 22  2  1  0
 14  7  1  0
M  END
>  <cnnaffinity>  (1) 
-4.53754

>  <filename>  (1) 
O=C1NC(=O)N(c2cccnc2)[C@H]1C(F)(F)F

$$$$
