
     RDKit          3D

 39 42  0  0  0  0  0  0  0  0999 V2000
    4.9296    1.7805   16.9962 H   0  0  0  0  0  0  0  0  0  0  0  0
    5.4026    1.2908   17.8447 C   0  0  0  0  0  0  0  0  0  0  0  0
    6.5613    0.6633   17.5968 N   0  0  0  0  0  0  0  0  0  0  0  0
    7.1524    0.0390   18.6169 C   0  0  0  0  0  0  0  0  0  0  0  0
    8.1143   -0.4150   18.3873 H   0  0  0  0  0  0  0  0  0  0  0  0
    6.6167   -0.0299   19.9156 C   0  0  0  0  0  0  0  0  0  0  0  0
    7.3014   -0.7574   20.9959 C   0  0  0  0  0  0  0  0  0  0  0  0
    6.5667   -1.5448   21.7630 N   0  0  0  0  0  0  0  0  0  0  0  0
    7.1663   -2.2110   22.8120 C   0  0  0  0  0  0  0  0  0  0  0  0
    6.3447   -3.0024   23.6165 N   0  0  0  0  0  0  0  0  0  0  0  0
    6.4695   -3.0028   25.0799 C   0  0  0  0  0  0  0  0  0  0  0  0
    5.7475   -2.2913   25.5147 H   0  0  0  0  0  0  0  0  0  0  0  0
    7.4541   -2.6411   25.3803 H   0  0  0  0  0  0  0  0  0  0  0  0
    6.2319   -4.3771   25.6834 C   0  0  0  0  0  0  0  0  0  0  0  0
    6.9548   -4.8601   26.7792 C   0  0  0  0  0  0  0  0  0  0  0  0
    7.7412   -4.2527   27.2256 H   0  0  0  0  0  0  0  0  0  0  0  0
    6.6718   -6.1227   27.3139 C   0  0  0  0  0  0  0  0  0  0  0  0
    7.2456   -6.4994   28.1576 H   0  0  0  0  0  0  0  0  0  0  0  0
    5.6497   -6.9041   26.7612 C   0  0  0  0  0  0  0  0  0  0  0  0
    5.4265   -7.8838   27.1803 H   0  0  0  0  0  0  0  0  0  0  0  0
    4.9111   -6.4154   25.6777 C   0  0  0  0  0  0  0  0  0  0  0  0
    4.1053   -7.0105   25.2476 H   0  0  0  0  0  0  0  0  0  0  0  0
    5.1950   -5.1563   25.1364 C   0  0  0  0  0  0  0  0  0  0  0  0
    4.4073   -4.5471   23.9983 C   0  0  0  0  0  0  0  0  0  0  0  0
    3.8410   -5.3199   23.4749 H   0  0  0  0  0  0  0  0  0  0  0  0
    3.6608   -3.8551   24.4062 H   0  0  0  0  0  0  0  0  0  0  0  0
    5.2913   -3.8020   22.9836 C   0  0  0  0  0  0  0  0  0  0  0  0
    4.6742   -3.1540   22.3481 H   0  0  0  0  0  0  0  0  0  0  0  0
    5.7564   -4.5440   22.3183 H   0  0  0  0  0  0  0  0  0  0  0  0
    8.5219   -2.1234   23.0329 C   0  0  0  0  0  0  0  0  0  0  0  0
    9.0085   -2.7032   23.8104 H   0  0  0  0  0  0  0  0  0  0  0  0
    9.3100   -1.3264   22.2156 N   0  0  0  0  0  0  0  0  0  0  0  0
   10.3113   -1.1783   22.3073 H   0  0  0  0  0  0  0  0  0  0  0  0
    8.8000   -0.5590   21.1739 C   0  0  0  0  0  0  0  0  0  0  0  0
    9.5861    0.1413   20.5546 O   0  0  0  0  0  0  0  0  0  0  0  0
    5.4101    0.6423   20.1628 C   0  0  0  0  0  0  0  0  0  0  0  0
    4.9784    0.6343   21.1660 H   0  0  0  0  0  0  0  0  0  0  0  0
    4.8037    1.3179   19.1081 C   0  0  0  0  0  0  0  0  0  0  0  0
    3.8717    1.8518   19.2516 H   0  0  0  0  0  0  0  0  0  0  0  0
  1  2  1  0
  2  3  2  0
  3  4  1  0
  4  5  1  0
  4  6  2  0
  6  7  1  0
  7  8  2  0
  8  9  1  0
  9 10  1  0
 10 11  1  0
 11 12  1  0
 11 13  1  0
 11 14  1  0
 14 15  2  0
 15 16  1  0
 15 17  1  0
 17 18  1  0
 17 19  2  0
 19 20  1  0
 19 21  1  0
 21 22  1  0
 21 23  2  0
 23 24  1  0
 24 25  1  0
 24 26  1  0
 24 27  1  0
 27 28  1  0
 27 29  1  0
  9 30  2  0
 30 31  1  0
 30 32  1  0
 32 33  1  0
 32 34  1  0
 34 35  2  0
  6 36  1  0
 36 37  1  0
 36 38  2  0
 38 39  1  0
 38  2  1  0
 34  7  1  0
 27 10  1  0
 23 14  1  0
M  END
>  <cnnaffinity>  (1) 
-5.4517

>  <filename>  (1) 
O=c1[nH]cc(N2CCc3ccccc3C2)nc1-c1cccnc1

$$$$
