
     RDKit          3D

 34 36  0  0  0  0  0  0  0  0999 V2000
    7.4001   -0.5561   25.7273 H   0  0  0  0  0  0  0  0  0  0  0  0
    8.3365   -0.3662   25.5847 O   0  0  0  0  0  0  0  0  0  0  0  0
    8.4870    0.3754   24.3717 C   0  0  2  0  0  0  0  0  0  0  0  0
    7.7618    1.2029   24.3335 H   0  0  0  0  0  0  0  0  0  0  0  0
    8.2397   -0.4625   23.1026 C   0  0  0  0  0  0  0  0  0  0  0  0
    7.5472    0.1144   22.1536 N   0  0  0  0  0  0  0  0  0  0  0  0
    7.2342   -0.6283   21.0450 N   0  0  0  0  0  0  0  0  0  0  0  0
    6.6344    0.1001   19.9675 C   0  0  0  0  0  0  0  0  0  0  0  0
    7.1960    0.1391   18.6770 C   0  0  0  0  0  0  0  0  0  0  0  0
    8.1513   -0.3415   18.4822 H   0  0  0  0  0  0  0  0  0  0  0  0
    6.5997    0.7284   17.6315 N   0  0  0  0  0  0  0  0  0  0  0  0
    5.4094    1.3137   17.8397 C   0  0  0  0  0  0  0  0  0  0  0  0
    4.9466    1.7826   16.9711 H   0  0  0  0  0  0  0  0  0  0  0  0
    4.7887    1.3572   19.0937 C   0  0  0  0  0  0  0  0  0  0  0  0
    3.8422    1.8713   19.2105 H   0  0  0  0  0  0  0  0  0  0  0  0
    5.4337    0.7722   20.1887 C   0  0  0  0  0  0  0  0  0  0  0  0
    5.0472    0.8438   21.2038 H   0  0  0  0  0  0  0  0  0  0  0  0
    7.2527   -2.0745   21.0176 C   0  0  0  0  0  0  0  0  0  0  0  0
    6.5494   -2.7331   20.2743 O   0  0  0  0  0  0  0  0  0  0  0  0
    8.2332   -2.5949   21.9676 C   0  0  0  0  0  0  0  0  0  0  0  0
    8.4856   -3.6333   21.8305 H   0  0  0  0  0  0  0  0  0  0  0  0
    8.7167   -1.8162   22.9783 C   0  0  0  0  0  0  0  0  0  0  0  0
    9.4087   -2.1921   23.7306 H   0  0  0  0  0  0  0  0  0  0  0  0
    9.8845    0.9689   24.3545 C   0  0  0  0  0  0  0  0  0  0  0  0
   11.0013    0.2521   24.8171 C   0  0  0  0  0  0  0  0  0  0  0  0
   10.8496   -0.6971   25.3251 H   0  0  0  0  0  0  0  0  0  0  0  0
   12.2894    0.7628   24.6452 C   0  0  0  0  0  0  0  0  0  0  0  0
   13.1479    0.1857   24.9813 H   0  0  0  0  0  0  0  0  0  0  0  0
   12.4737    2.0101   24.0357 C   0  0  0  0  0  0  0  0  0  0  0  0
   13.4785    2.3962   23.8806 H   0  0  0  0  0  0  0  0  0  0  0  0
   11.3661    2.7494   23.6066 C   0  0  0  0  0  0  0  0  0  0  0  0
   11.5008    3.7231   23.1401 H   0  0  0  0  0  0  0  0  0  0  0  0
   10.0797    2.2245   23.7634 C   0  0  0  0  0  0  0  0  0  0  0  0
    9.2158    2.7923   23.4189 H   0  0  0  0  0  0  0  0  0  0  0  0
  1  2  1  0
  2  3  1  0
  3  4  1  1
  3  5  1  0
  5  6  2  0
  6  7  1  0
  7  8  1  0
  8  9  2  0
  9 10  1  0
  9 11  1  0
 11 12  2  0
 12 13  1  0
 12 14  1  0
 14 15  1  0
 14 16  2  0
 16 17  1  0
  7 18  1  0
 18 19  2  0
 18 20  1  0
 20 21  1  0
 20 22  2  0
 22 23  1  0
  3 24  1  0
 24 25  2  0
 25 26  1  0
 25 27  1  0
 27 28  1  0
 27 29  2  0
 29 30  1  0
 29 31  1  0
 31 32  1  0
 31 33  2  0
 33 34  1  0
 22  5  1  0
 33 24  1  0
 16  8  1  0
M  END
>  <cnnaffinity>  (1) 
-5.00335

>  <filename>  (1) 
O=c1ccc([C@@H](O)c2ccccc2)nn1-c1cccnc1

$$$$
