
     RDKit          3D

 32 35  0  0  0  0  0  0  0  0999 V2000
    4.9317    1.7979   16.9819 H   0  0  0  0  0  0  0  0  0  0  0  0
    5.3986    1.2977   17.8275 C   0  0  0  0  0  0  0  0  0  0  0  0
    6.5625    0.6792   17.5727 N   0  0  0  0  0  0  0  0  0  0  0  0
    7.1593    0.0489   18.5872 C   0  0  0  0  0  0  0  0  0  0  0  0
    8.1051   -0.4391   18.3559 H   0  0  0  0  0  0  0  0  0  0  0  0
    6.6402    0.0131   19.8898 C   0  0  0  0  0  0  0  0  0  0  0  0
    7.3771   -0.7244   20.9091 C   0  0  0  0  0  0  0  0  0  0  0  0
    7.9047   -1.8877   20.6932 N   0  0  0  0  0  0  0  0  0  0  0  0
    8.3885   -2.2640   21.9174 N   0  0  0  0  0  0  0  0  0  0  0  0
    8.8591   -3.1303   22.1109 H   0  0  0  0  0  0  0  0  0  0  0  0
    8.2054   -1.3555   22.9035 C   0  0  0  0  0  0  0  0  0  0  0  0
    8.5442   -1.4593   24.0645 O   0  0  0  0  0  0  0  0  0  0  0  0
    7.5534   -0.3093   22.2263 N   0  0  0  0  0  0  0  0  0  0  0  0
    7.2095    0.8821   22.8550 C   0  0  0  0  0  0  0  0  0  0  0  0
    6.7890    1.0659   24.1367 C   0  0  0  0  0  0  0  0  0  0  0  0
    6.6777    0.2733   24.8636 H   0  0  0  0  0  0  0  0  0  0  0  0
    6.6014    2.4722   24.3110 C   0  0  0  0  0  0  0  0  0  0  0  0
    6.2112    3.2772   25.4020 C   0  0  0  0  0  0  0  0  0  0  0  0
    5.9825    2.8043   26.3533 H   0  0  0  0  0  0  0  0  0  0  0  0
    6.1375    4.6536   25.2332 C   0  0  0  0  0  0  0  0  0  0  0  0
    5.8352    5.2785   26.0684 H   0  0  0  0  0  0  0  0  0  0  0  0
    6.4487    5.2492   23.9848 C   0  0  0  0  0  0  0  0  0  0  0  0
    6.3752    6.3298   23.8848 H   0  0  0  0  0  0  0  0  0  0  0  0
    6.8463    4.4815   22.8919 C   0  0  0  0  0  0  0  0  0  0  0  0
    7.0781    4.9472   21.9357 H   0  0  0  0  0  0  0  0  0  0  0  0
    6.9327    3.0924   23.0723 C   0  0  0  0  0  0  0  0  0  0  0  0
    7.3288    2.0872   22.2093 N   0  0  0  0  0  0  0  0  0  0  0  0
    7.5473    2.1961   21.2344 H   0  0  0  0  0  0  0  0  0  0  0  0
    5.4165    0.6481   20.1421 C   0  0  0  0  0  0  0  0  0  0  0  0
    4.9927    0.6442   21.1497 H   0  0  0  0  0  0  0  0  0  0  0  0
    4.7915    1.3093   19.0887 C   0  0  0  0  0  0  0  0  0  0  0  0
    3.8625    1.8453   19.2371 H   0  0  0  0  0  0  0  0  0  0  0  0
  1  2  1  0
  2  3  2  0
  3  4  1  0
  4  5  1  0
  4  6  2  0
  6  7  1  0
  7  8  2  0
  8  9  1  0
  9 10  1  0
  9 11  1  0
 11 12  2  0
 11 13  1  0
 13 14  1  0
 14 15  2  0
 15 16  1  0
 15 17  1  0
 17 18  2  0
 18 19  1  0
 18 20  1  0
 20 21  1  0
 20 22  2  0
 22 23  1  0
 22 24  1  0
 24 25  1  0
 24 26  2  0
 26 27  1  0
 27 28  1  0
  6 29  1  0
 29 30  1  0
 29 31  2  0
 31 32  1  0
 31  2  1  0
 13  7  1  0
 27 14  1  0
 26 17  1  0
M  END
>  <cnnaffinity>  (1) 
-5.15184

>  <filename>  (1) 
O=c1[nH]nc(-c2cccnc2)n1-c1cc2ccccc2[nH]1

$$$$
