
     RDKit          3D

 37 39  0  0  0  0  0  0  0  0999 V2000
    4.9141    1.7869   16.9878 H   0  0  0  0  0  0  0  0  0  0  0  0
    5.3964    1.2991   17.8282 C   0  0  0  0  0  0  0  0  0  0  0  0
    6.5583    0.6815   17.5612 N   0  0  0  0  0  0  0  0  0  0  0  0
    7.1647    0.0756   18.5869 C   0  0  0  0  0  0  0  0  0  0  0  0
    8.1076   -0.4223   18.3666 H   0  0  0  0  0  0  0  0  0  0  0  0
    6.6471    0.0129   19.8929 C   0  0  0  0  0  0  0  0  0  0  0  0
    7.3667   -0.7088   20.9713 C   0  0  0  0  0  0  0  0  0  0  0  0
    8.7766   -0.5458   21.1307 C   0  0  0  0  0  0  0  0  0  0  0  0
    9.3060    0.1310   20.4498 H   0  0  0  0  0  0  0  0  0  0  0  0
    9.4143   -1.1994   22.1355 C   0  0  0  0  0  0  0  0  0  0  0  0
   10.4783   -1.1200   22.3111 H   0  0  0  0  0  0  0  0  0  0  0  0
    8.7174   -2.0856   23.0650 C   0  0  0  0  0  0  0  0  0  0  0  0
    9.3028   -2.6787   23.9604 O   0  0  0  0  0  0  0  0  0  0  0  0
    7.3275   -2.2128   22.8500 N   0  0  0  0  0  0  0  0  0  0  0  0
    6.5160   -3.0874   23.7422 C   0  0  0  0  0  0  0  0  0  0  0  0
    5.4963   -2.9771   23.3490 H   0  0  0  0  0  0  0  0  0  0  0  0
    6.4523   -2.5750   25.2046 C   0  0  0  0  0  0  0  0  0  0  0  0
    6.6424   -1.4964   25.1969 H   0  0  0  0  0  0  0  0  0  0  0  0
    5.4150   -2.6936   25.5446 H   0  0  0  0  0  0  0  0  0  0  0  0
    7.3601   -3.2720   26.2326 C   0  0  0  0  0  0  0  0  0  0  0  0
    7.0354   -2.9935   27.2453 H   0  0  0  0  0  0  0  0  0  0  0  0
    8.3895   -2.9256   26.1059 H   0  0  0  0  0  0  0  0  0  0  0  0
    7.3192   -4.7932   26.0684 C   0  0  0  0  0  0  0  0  0  0  0  0
    7.9462   -5.2777   26.8265 H   0  0  0  0  0  0  0  0  0  0  0  0
    6.2945   -5.1511   26.2459 H   0  0  0  0  0  0  0  0  0  0  0  0
    7.7643   -5.2091   24.6643 C   0  0  0  0  0  0  0  0  0  0  0  0
    7.7362   -6.3000   24.5707 H   0  0  0  0  0  0  0  0  0  0  0  0
    8.8001   -4.8990   24.5053 H   0  0  0  0  0  0  0  0  0  0  0  0
    6.8633   -4.5893   23.5845 C   0  0  0  0  0  0  0  0  0  0  0  0
    7.3017   -4.7365   22.5916 H   0  0  0  0  0  0  0  0  0  0  0  0
    5.9161   -5.1447   23.5804 H   0  0  0  0  0  0  0  0  0  0  0  0
    6.6974   -1.5325   21.8349 C   0  0  0  0  0  0  0  0  0  0  0  0
    5.6229   -1.6903   21.7288 H   0  0  0  0  0  0  0  0  0  0  0  0
    5.4248    0.6505   20.1469 C   0  0  0  0  0  0  0  0  0  0  0  0
    5.0096    0.6341   21.1601 H   0  0  0  0  0  0  0  0  0  0  0  0
    4.7996    1.3197   19.0955 C   0  0  0  0  0  0  0  0  0  0  0  0
    3.8672    1.8493   19.2523 H   0  0  0  0  0  0  0  0  0  0  0  0
  1  2  1  0
  2  3  2  0
  3  4  1  0
  4  5  1  0
  4  6  2  0
  6  7  1  0
  7  8  1  0
  8  9  1  0
  8 10  2  0
 10 11  1  0
 10 12  1  0
 12 13  2  0
 12 14  1  0
 14 15  1  0
 15 16  1  0
 15 17  1  0
 17 18  1  0
 17 19  1  0
 17 20  1  0
 20 21  1  0
 20 22  1  0
 20 23  1  0
 23 24  1  0
 23 25  1  0
 23 26  1  0
 26 27  1  0
 26 28  1  0
 26 29  1  0
 29 30  1  0
 29 31  1  0
 14 32  1  0
 32 33  1  0
  6 34  1  0
 34 35  1  0
 34 36  2  0
 36 37  1  0
 36  2  1  0
 32  7  2  0
 29 15  1  0
M  END
>  <cnnaffinity>  (1) 
-5.35175

>  <filename>  (1) 
O=c1ccc(-c2cccnc2)cn1C1CCCCC1

$$$$
