
     RDKit          3D

 29 31  0  0  0  0  0  0  0  0999 V2000
    7.0588    4.0709   21.8277 H   0  0  0  0  0  0  0  0  0  0  0  0
    7.1273    3.2211   22.5004 C   0  0  0  0  0  0  0  0  0  0  0  0
    7.3513    2.0290   21.9465 N   0  0  0  0  0  0  0  0  0  0  0  0
    7.3924    1.0084   22.7918 C   0  0  0  0  0  0  0  0  0  0  0  0
    7.5748   -0.2274   22.2399 N   0  0  0  0  0  0  0  0  0  0  0  0
    7.3632   -0.6541   20.9396 C   0  0  0  0  0  0  0  0  0  0  0  0
    6.6304    0.0496   19.9031 C   0  0  0  0  0  0  0  0  0  0  0  0
    7.1584    0.0648   18.6051 C   0  0  0  0  0  0  0  0  0  0  0  0
    8.1041   -0.4322   18.3819 H   0  0  0  0  0  0  0  0  0  0  0  0
    6.5635    0.6804   17.5802 N   0  0  0  0  0  0  0  0  0  0  0  0
    5.3952    1.2982   17.8229 C   0  0  0  0  0  0  0  0  0  0  0  0
    4.9340    1.7987   16.9751 H   0  0  0  0  0  0  0  0  0  0  0  0
    4.7744    1.3082   19.0756 C   0  0  0  0  0  0  0  0  0  0  0  0
    3.8525    1.8517   19.2320 H   0  0  0  0  0  0  0  0  0  0  0  0
    5.3890    0.6526   20.1345 C   0  0  0  0  0  0  0  0  0  0  0  0
    4.9487    0.6427   21.1318 H   0  0  0  0  0  0  0  0  0  0  0  0
    7.8176   -1.8495   20.7558 N   0  0  0  0  0  0  0  0  0  0  0  0
    8.3059   -2.2178   21.9739 N   0  0  0  0  0  0  0  0  0  0  0  0
    8.7264   -3.1098   22.1532 H   0  0  0  0  0  0  0  0  0  0  0  0
    8.2024   -1.2577   22.9403 C   0  0  0  0  0  0  0  0  0  0  0  0
    8.5946   -1.3266   24.0788 O   0  0  0  0  0  0  0  0  0  0  0  0
    7.2662    1.0565   24.1143 N   0  0  0  0  0  0  0  0  0  0  0  0
    7.0571    2.2528   24.6681 C   0  0  0  0  0  0  0  0  0  0  0  0
    6.9235    2.3968   26.2168 C   0  0  0  0  0  0  0  0  0  0  0  0
    5.7440    2.9684   26.5416 F   0  0  0  0  0  0  0  0  0  0  0  0
    7.8784    3.2202   26.7000 F   0  0  0  0  0  0  0  0  0  0  0  0
    7.0102    1.2419   26.8750 F   0  0  0  0  0  0  0  0  0  0  0  0
    6.9751    3.3978   23.8708 C   0  0  0  0  0  0  0  0  0  0  0  0
    6.8162    4.3750   24.2890 H   0  0  0  0  0  0  0  0  0  0  0  0
  1  2  1  0
  2  3  2  0
  3  4  1  0
  4  5  1  0
  5  6  1  0
  6  7  1  0
  7  8  2  0
  8  9  1  0
  8 10  1  0
 10 11  2  0
 11 12  1  0
 11 13  1  0
 13 14  1  0
 13 15  2  0
 15 16  1  0
  6 17  2  0
 17 18  1  0
 18 19  1  0
 18 20  1  0
 20 21  2  0
  4 22  2  0
 22 23  1  0
 23 24  1  0
 24 25  1  0
 24 26  1  0
 24 27  1  0
 23 28  2  0
 28 29  1  0
 28  2  1  0
 20  5  1  0
 15  7  1  0
M  END
>  <cnnaffinity>  (1) 
-5.24733

>  <filename>  (1) 
O=c1[nH]nc(-c2cccnc2)n1-c1nccc(C(F)(F)F)n1

$$$$
