
     RDKit          3D

 30 32  0  0  0  0  0  0  0  0999 V2000
    4.9140    1.7749   17.0035 H   0  0  0  0  0  0  0  0  0  0  0  0
    5.4038    1.2920   17.8446 C   0  0  0  0  0  0  0  0  0  0  0  0
    6.5712    0.6812   17.5840 N   0  0  0  0  0  0  0  0  0  0  0  0
    7.1750    0.0551   18.5962 C   0  0  0  0  0  0  0  0  0  0  0  0
    8.1226   -0.4361   18.3769 H   0  0  0  0  0  0  0  0  0  0  0  0
    6.6526    0.0122   19.8940 C   0  0  0  0  0  0  0  0  0  0  0  0
    7.3799   -0.7374   20.9041 C   0  0  0  0  0  0  0  0  0  0  0  0
    7.9475   -1.8834   20.6759 N   0  0  0  0  0  0  0  0  0  0  0  0
    8.4342   -2.2512   21.8999 N   0  0  0  0  0  0  0  0  0  0  0  0
    8.9426   -3.1011   22.0662 H   0  0  0  0  0  0  0  0  0  0  0  0
    8.2202   -1.3485   22.8887 C   0  0  0  0  0  0  0  0  0  0  0  0
    8.5651   -1.4055   24.0505 O   0  0  0  0  0  0  0  0  0  0  0  0
    7.5019   -0.3321   22.2288 N   0  0  0  0  0  0  0  0  0  0  0  0
    7.1455    0.9212   22.8354 C   0  0  0  0  0  0  0  0  0  0  0  0
    6.5027    0.9767   24.0934 C   0  0  0  0  0  0  0  0  0  0  0  0
    6.2756    0.0549   24.6202 H   0  0  0  0  0  0  0  0  0  0  0  0
    6.1570    2.1158   24.6898 N   0  0  0  0  0  0  0  0  0  0  0  0
    6.4299    3.2829   24.0777 C   0  0  0  0  0  0  0  0  0  0  0  0
    6.0324    4.5955   24.7722 C   0  0  0  0  0  0  0  0  0  0  0  0
    7.1134    5.3772   24.9868 F   0  0  0  0  0  0  0  0  0  0  0  0
    5.2005    5.3218   23.9948 F   0  0  0  0  0  0  0  0  0  0  0  0
    5.4277    4.4182   25.9477 F   0  0  0  0  0  0  0  0  0  0  0  0
    7.0683    3.3370   22.8258 C   0  0  0  0  0  0  0  0  0  0  0  0
    7.2746    4.2906   22.3458 H   0  0  0  0  0  0  0  0  0  0  0  0
    7.4344    2.1407   22.2090 C   0  0  0  0  0  0  0  0  0  0  0  0
    7.9187    2.1543   21.2362 H   0  0  0  0  0  0  0  0  0  0  0  0
    5.4318    0.6502   20.1546 C   0  0  0  0  0  0  0  0  0  0  0  0
    5.0085    0.6330   21.1618 H   0  0  0  0  0  0  0  0  0  0  0  0
    4.8015    1.3110   19.1081 C   0  0  0  0  0  0  0  0  0  0  0  0
    3.8718    1.8448   19.2627 H   0  0  0  0  0  0  0  0  0  0  0  0
  1  2  1  0
  2  3  2  0
  3  4  1  0
  4  5  1  0
  4  6  2  0
  6  7  1  0
  7  8  2  0
  8  9  1  0
  9 10  1  0
  9 11  1  0
 11 12  2  0
 11 13  1  0
 13 14  1  0
 14 15  2  0
 15 16  1  0
 15 17  1  0
 17 18  2  0
 18 19  1  0
 19 20  1  0
 19 21  1  0
 19 22  1  0
 18 23  1  0
 23 24  1  0
 23 25  2  0
 25 26  1  0
  6 27  1  0
 27 28  1  0
 27 29  2  0
 29 30  1  0
 29  2  1  0
 13  7  1  0
 25 14  1  0
M  END
>  <cnnaffinity>  (1) 
-5.27536

>  <filename>  (1) 
O=c1[nH]nc(-c2cccnc2)n1-c1ccc(C(F)(F)F)nc1

$$$$
