
     RDKit          3D

 29 31  0  0  0  0  0  0  0  0999 V2000
    4.9077    1.7773   17.0006 H   0  0  0  0  0  0  0  0  0  0  0  0
    5.3979    1.2941   17.8415 C   0  0  0  0  0  0  0  0  0  0  0  0
    6.5623    0.6775   17.5784 N   0  0  0  0  0  0  0  0  0  0  0  0
    7.1790    0.0587   18.5913 C   0  0  0  0  0  0  0  0  0  0  0  0
    8.1280   -0.4292   18.3830 H   0  0  0  0  0  0  0  0  0  0  0  0
    6.6667    0.0022   19.9060 C   0  0  0  0  0  0  0  0  0  0  0  0
    7.3598   -0.6823   20.9454 N   0  0  0  0  0  0  0  0  0  0  0  0
    6.7689   -1.4395   21.9485 C   0  0  0  0  0  0  0  0  0  0  0  0
    5.7010   -1.5932   21.9970 H   0  0  0  0  0  0  0  0  0  0  0  0
    7.7443   -1.9266   22.7471 C   0  0  0  0  0  0  0  0  0  0  0  0
    7.6043   -2.7549   23.9377 C   0  0  0  0  0  0  0  0  0  0  0  0
    6.4357   -2.6366   24.7119 C   0  0  0  0  0  0  0  0  0  0  0  0
    5.6770   -1.9144   24.4193 H   0  0  0  0  0  0  0  0  0  0  0  0
    6.2492   -3.4106   25.8512 C   0  0  0  0  0  0  0  0  0  0  0  0
    5.3428   -3.3003   26.4346 H   0  0  0  0  0  0  0  0  0  0  0  0
    7.2345   -4.3249   26.2313 C   0  0  0  0  0  0  0  0  0  0  0  0
    7.0930   -4.9317   27.1190 H   0  0  0  0  0  0  0  0  0  0  0  0
    8.4008   -4.4724   25.4766 C   0  0  0  0  0  0  0  0  0  0  0  0
    9.1712   -5.1811   25.7551 H   0  0  0  0  0  0  0  0  0  0  0  0
    8.5696   -3.6922   24.3391 C   0  0  0  0  0  0  0  0  0  0  0  0
    9.6890   -3.8585   23.6043 F   0  0  0  0  0  0  0  0  0  0  0  0
    8.9461   -1.4715   22.2326 N   0  0  0  0  0  0  0  0  0  0  0  0
    9.8679   -1.6047   22.6045 H   0  0  0  0  0  0  0  0  0  0  0  0
    8.7538   -0.6760   21.1363 C   0  0  0  0  0  0  0  0  0  0  0  0
    9.5979   -0.1054   20.4780 O   0  0  0  0  0  0  0  0  0  0  0  0
    5.4473    0.6443   20.1626 C   0  0  0  0  0  0  0  0  0  0  0  0
    5.0147    0.6310   21.1639 H   0  0  0  0  0  0  0  0  0  0  0  0
    4.8088    1.3107   19.1107 C   0  0  0  0  0  0  0  0  0  0  0  0
    3.8736    1.8433   19.2675 H   0  0  0  0  0  0  0  0  0  0  0  0
  1  2  1  0
  2  3  2  0
  3  4  1  0
  4  5  1  0
  4  6  2  0
  6  7  1  0
  7  8  1  0
  8  9  1  0
  8 10  2  0
 10 11  1  0
 11 12  2  0
 12 13  1  0
 12 14  1  0
 14 15  1  0
 14 16  2  0
 16 17  1  0
 16 18  1  0
 18 19  1  0
 18 20  2  0
 20 21  1  0
 10 22  1  0
 22 23  1  0
 22 24  1  0
 24 25  2  0
  6 26  1  0
 26 27  1  0
 26 28  2  0
 28 29  1  0
 28  2  1  0
 24  7  1  0
 20 11  1  0
M  END
>  <cnnaffinity>  (1) 
-5.38779

>  <filename>  (1) 
O=c1[nH]c(-c2ccccc2F)cn1-c1cccnc1

$$$$
