
     RDKit          3D

 38 41  0  0  0  0  0  0  0  0999 V2000
    4.9767    1.8407   16.9343 H   0  0  0  0  0  0  0  0  0  0  0  0
    5.4661    1.3366   17.7676 C   0  0  0  0  0  0  0  0  0  0  0  0
    6.6446    0.7465   17.5025 N   0  0  0  0  0  0  0  0  0  0  0  0
    7.2473    0.0867   18.4987 C   0  0  0  0  0  0  0  0  0  0  0  0
    8.2002   -0.3803   18.2666 H   0  0  0  0  0  0  0  0  0  0  0  0
    6.7091   -0.0517   19.7952 C   0  0  0  0  0  0  0  0  0  0  0  0
    7.3623   -0.8325   20.7922 N   0  0  0  0  0  0  0  0  0  0  0  0
    6.7902   -1.7744   21.6670 C   0  0  0  0  0  0  0  0  0  0  0  0
    5.6521   -2.2019   21.5535 O   0  0  0  0  0  0  0  0  0  0  0  0
    7.9159   -2.0914   22.6294 C   0  0  0  0  0  0  0  0  0  0  0  0
    7.8628   -2.8236   23.8159 N   0  0  0  0  0  0  0  0  0  0  0  0
    6.5813   -2.9133   24.5232 C   0  0  0  0  0  0  0  0  0  0  0  0
    5.8668   -3.4559   23.8829 H   0  0  0  0  0  0  0  0  0  0  0  0
    6.1489   -1.9088   24.6310 H   0  0  0  0  0  0  0  0  0  0  0  0
    6.6477   -3.5511   25.9085 C   0  0  0  0  0  0  0  0  0  0  0  0
    5.6584   -3.2819   26.8680 C   0  0  0  0  0  0  0  0  0  0  0  0
    4.8579   -2.5748   26.6453 H   0  0  0  0  0  0  0  0  0  0  0  0
    5.6889   -3.9119   28.1181 C   0  0  0  0  0  0  0  0  0  0  0  0
    4.9229   -3.6917   28.8598 H   0  0  0  0  0  0  0  0  0  0  0  0
    6.7198   -4.8108   28.4217 C   0  0  0  0  0  0  0  0  0  0  0  0
    6.7541   -5.2919   29.3969 H   0  0  0  0  0  0  0  0  0  0  0  0
    7.7157   -5.0758   27.4741 C   0  0  0  0  0  0  0  0  0  0  0  0
    8.5273   -5.7633   27.7132 H   0  0  0  0  0  0  0  0  0  0  0  0
    7.6809   -4.4588   26.2153 C   0  0  0  0  0  0  0  0  0  0  0  0
    8.6991   -4.7349   25.1276 C   0  0  0  0  0  0  0  0  0  0  0  0
    8.2637   -5.4377   24.4038 H   0  0  0  0  0  0  0  0  0  0  0  0
    9.5974   -5.2014   25.5422 H   0  0  0  0  0  0  0  0  0  0  0  0
    9.0663   -3.4546   24.3663 C   0  0  0  0  0  0  0  0  0  0  0  0
    9.7422   -3.7123   23.5409 H   0  0  0  0  0  0  0  0  0  0  0  0
    9.6030   -2.7571   25.0300 H   0  0  0  0  0  0  0  0  0  0  0  0
    9.0152   -1.4667   22.1299 C   0  0  0  0  0  0  0  0  0  0  0  0
   10.0002   -1.4846   22.5689 H   0  0  0  0  0  0  0  0  0  0  0  0
    8.7656   -0.8010   20.9195 N   0  0  0  0  0  0  0  0  0  0  0  0
    9.1394    0.1447   20.8348 H   0  0  0  0  0  0  0  0  0  0  0  0
    5.4987    0.6059   20.0701 C   0  0  0  0  0  0  0  0  0  0  0  0
    5.0778    0.5793   21.0735 H   0  0  0  0  0  0  0  0  0  0  0  0
    4.8693    1.3040   19.0325 C   0  0  0  0  0  0  0  0  0  0  0  0
    3.9276    1.8196   19.1905 H   0  0  0  0  0  0  0  0  0  0  0  0
  1  2  1  0
  2  3  2  0
  3  4  1  0
  4  5  1  0
  4  6  2  0
  6  7  1  0
  7  8  1  0
  8  9  2  0
  8 10  1  0
 10 11  1  0
 11 12  1  0
 12 13  1  0
 12 14  1  0
 12 15  1  0
 15 16  2  0
 16 17  1  0
 16 18  1  0
 18 19  1  0
 18 20  2  0
 20 21  1  0
 20 22  1  0
 22 23  1  0
 22 24  2  0
 24 25  1  0
 25 26  1  0
 25 27  1  0
 25 28  1  0
 28 29  1  0
 28 30  1  0
 10 31  2  0
 31 32  1  0
 31 33  1  0
 33 34  1  0
  6 35  1  0
 35 36  1  0
 35 37  2  0
 37 38  1  0
 37  2  1  0
 33  7  1  0
 28 11  1  0
 24 15  1  0
M  END
>  <cnnaffinity>  (1) 
-5.00512

>  <filename>  (1) 
O=c1c(N2CCc3ccccc3C2)c[nH]n1-c1cccnc1

$$$$
