
     RDKit          3D

 38 40  0  0  0  0  0  0  0  0999 V2000
    4.9726    1.8650   16.9425 H   0  0  0  0  0  0  0  0  0  0  0  0
    5.4664    1.3385   17.7556 C   0  0  0  0  0  0  0  0  0  0  0  0
    6.6462    0.7651   17.4636 N   0  0  0  0  0  0  0  0  0  0  0  0
    7.2720    0.1009   18.4391 C   0  0  0  0  0  0  0  0  0  0  0  0
    8.2322   -0.3538   18.2019 H   0  0  0  0  0  0  0  0  0  0  0  0
    6.7434   -0.0542   19.7364 C   0  0  0  0  0  0  0  0  0  0  0  0
    7.4375   -0.8210   20.7052 N   0  0  0  0  0  0  0  0  0  0  0  0
    6.9187   -1.7852   21.5828 C   0  0  0  0  0  0  0  0  0  0  0  0
    5.7892   -2.2418   21.5585 O   0  0  0  0  0  0  0  0  0  0  0  0
    8.0467   -2.1006   22.4734 C   0  0  0  0  0  0  0  0  0  0  0  0
    7.8735   -2.8636   23.7584 C   0  0  0  0  0  0  0  0  0  0  0  0
    8.8252   -3.3183   24.0826 H   0  0  0  0  0  0  0  0  0  0  0  0
    7.1846   -3.6994   23.5786 H   0  0  0  0  0  0  0  0  0  0  0  0
    7.2804   -1.9828   24.8874 C   0  0  0  0  0  0  0  0  0  0  0  0
    6.3736   -1.5048   24.4831 H   0  0  0  0  0  0  0  0  0  0  0  0
    6.8237   -2.7991   26.1144 C   0  0  0  0  0  0  0  0  0  0  0  0
    6.1288   -3.5990   25.8276 H   0  0  0  0  0  0  0  0  0  0  0  0
    7.7024   -3.2873   26.5631 H   0  0  0  0  0  0  0  0  0  0  0  0
    6.1827   -1.8949   27.1779 C   0  0  0  0  0  0  0  0  0  0  0  0
    5.8276   -2.4809   28.0312 H   0  0  0  0  0  0  0  0  0  0  0  0
    5.2904   -1.4073   26.7594 H   0  0  0  0  0  0  0  0  0  0  0  0
    7.1996   -0.8372   27.6232 C   0  0  0  0  0  0  0  0  0  0  0  0
    6.8170   -0.2273   28.4508 H   0  0  0  0  0  0  0  0  0  0  0  0
    8.0890   -1.3709   27.9855 H   0  0  0  0  0  0  0  0  0  0  0  0
    7.6701    0.0278   26.4489 C   0  0  0  0  0  0  0  0  0  0  0  0
    8.4363    0.7378   26.7867 H   0  0  0  0  0  0  0  0  0  0  0  0
    6.8385    0.6410   26.0723 H   0  0  0  0  0  0  0  0  0  0  0  0
    8.2426   -0.8552   25.3249 C   0  0  0  0  0  0  0  0  0  0  0  0
    8.5214   -0.2356   24.4633 H   0  0  0  0  0  0  0  0  0  0  0  0
    9.1759   -1.3206   25.6845 H   0  0  0  0  0  0  0  0  0  0  0  0
    9.1283   -1.4570   21.9883 C   0  0  0  0  0  0  0  0  0  0  0  0
   10.1419   -1.4491   22.3710 H   0  0  0  0  0  0  0  0  0  0  0  0
    8.8365   -0.7370   20.8146 N   0  0  0  0  0  0  0  0  0  0  0  0
    9.1408    0.2415   20.8183 H   0  0  0  0  0  0  0  0  0  0  0  0
    5.5263    0.5690   20.0420 C   0  0  0  0  0  0  0  0  0  0  0  0
    5.1170    0.5185   21.0519 H   0  0  0  0  0  0  0  0  0  0  0  0
    4.8808    1.2788   19.0256 C   0  0  0  0  0  0  0  0  0  0  0  0
    3.9444    1.7933   19.2048 H   0  0  0  0  0  0  0  0  0  0  0  0
  1  2  1  0
  2  3  2  0
  3  4  1  0
  4  5  1  0
  4  6  2  0
  6  7  1  0
  7  8  1  0
  8  9  2  0
  8 10  1  0
 10 11  1  0
 11 12  1  0
 11 13  1  0
 11 14  1  0
 14 15  1  0
 14 16  1  0
 16 17  1  0
 16 18  1  0
 16 19  1  0
 19 20  1  0
 19 21  1  0
 19 22  1  0
 22 23  1  0
 22 24  1  0
 22 25  1  0
 25 26  1  0
 25 27  1  0
 25 28  1  0
 28 29  1  0
 28 30  1  0
 10 31  2  0
 31 32  1  0
 31 33  1  0
 33 34  1  0
  6 35  1  0
 35 36  1  0
 35 37  2  0
 37 38  1  0
 37  2  1  0
 33  7  1  0
 28 14  1  0
M  END
>  <cnnaffinity>  (1) 
-5.34974

>  <filename>  (1) 
O=c1c(CC2CCCCC2)c[nH]n1-c1cccnc1

$$$$
