
     RDKit          3D

 42 44  0  0  0  0  0  0  0  0999 V2000
    4.9569    1.9250   16.9247 H   0  0  0  0  0  0  0  0  0  0  0  0
    5.4684    1.4864   17.7796 C   0  0  0  0  0  0  0  0  0  0  0  0
    6.5756    0.7766   17.5035 N   0  0  0  0  0  0  0  0  0  0  0  0
    7.2057    0.1913   18.5306 C   0  0  0  0  0  0  0  0  0  0  0  0
    8.1149   -0.3593   18.2883 H   0  0  0  0  0  0  0  0  0  0  0  0
    6.7679    0.2645   19.8759 C   0  0  0  0  0  0  0  0  0  0  0  0
    7.3958   -0.4370   20.9615 N   0  0  0  0  0  0  0  0  0  0  0  0
    8.1626    0.3178   21.8928 C   0  0  0  0  0  0  0  0  0  0  0  0
    8.8607    1.2386   21.5168 O   0  0  0  0  0  0  0  0  0  0  0  0
    8.0693   -0.1097   23.2469 N   0  0  0  0  0  0  0  0  0  0  0  0
    8.4626    0.8849   24.3843 N   0  0  0  0  0  0  0  0  0  0  0  0
    9.1934    0.3959   24.8976 H   0  0  0  0  0  0  0  0  0  0  0  0
    7.7363    1.4518   25.9354 S   0  0  0  0  0  0  0  0  0  0  0  0
    7.9417    0.3180   26.8214 O   0  0  0  0  0  0  0  0  0  0  0  0
    8.3424    2.7410   26.1752 O   0  0  0  0  0  0  0  0  0  0  0  0
    6.0069    1.6445   25.5601 C   0  0  0  0  0  0  0  0  0  0  0  0
    5.0217    0.9730   26.3057 C   0  0  0  0  0  0  0  0  0  0  0  0
    5.2855    0.2547   27.0796 H   0  0  0  0  0  0  0  0  0  0  0  0
    3.6721    1.2610   26.0587 C   0  0  0  0  0  0  0  0  0  0  0  0
    2.8975    0.7407   26.6144 H   0  0  0  0  0  0  0  0  0  0  0  0
    3.3073    2.2149   25.1034 C   0  0  0  0  0  0  0  0  0  0  0  0
    2.2546    2.4603   24.9590 H   0  0  0  0  0  0  0  0  0  0  0  0
    4.3009    2.8529   24.3532 C   0  0  0  0  0  0  0  0  0  0  0  0
    4.0337    3.5942   23.6035 H   0  0  0  0  0  0  0  0  0  0  0  0
    5.6523    2.5736   24.5701 C   0  0  0  0  0  0  0  0  0  0  0  0
    6.4066    3.0968   23.9728 H   0  0  0  0  0  0  0  0  0  0  0  0
    7.1169   -1.1069   23.7728 C   0  0  0  0  0  0  0  0  0  0  0  0
    6.0898   -0.7570   23.6098 H   0  0  0  0  0  0  0  0  0  0  0  0
    7.2508   -1.1377   24.8611 H   0  0  0  0  0  0  0  0  0  0  0  0
    7.2813   -2.5414   23.2677 C   0  0  0  0  0  0  0  0  0  0  0  0
    6.6493   -3.1670   23.9103 H   0  0  0  0  0  0  0  0  0  0  0  0
    8.3178   -2.8799   23.4218 H   0  0  0  0  0  0  0  0  0  0  0  0
    6.8386   -2.7486   21.8259 C   0  0  0  0  0  0  0  0  0  0  0  0
    6.9996   -3.8019   21.5515 H   0  0  0  0  0  0  0  0  0  0  0  0
    5.7591   -2.5664   21.7202 H   0  0  0  0  0  0  0  0  0  0  0  0
    7.6027   -1.8835   20.8239 C   0  0  0  0  0  0  0  0  0  0  0  0
    7.2463   -2.1611   19.8294 H   0  0  0  0  0  0  0  0  0  0  0  0
    8.6765   -2.1202   20.8977 H   0  0  0  0  0  0  0  0  0  0  0  0
    5.6433    1.0517   20.1443 C   0  0  0  0  0  0  0  0  0  0  0  0
    5.3055    1.1434   21.1789 H   0  0  0  0  0  0  0  0  0  0  0  0
    4.9744    1.6632   19.0765 C   0  0  0  0  0  0  0  0  0  0  0  0
    4.0917    2.2747   19.2327 H   0  0  0  0  0  0  0  0  0  0  0  0
  1  2  1  0
  2  3  2  0
  3  4  1  0
  4  5  1  0
  4  6  2  0
  6  7  1  0
  7  8  1  0
  8  9  2  0
  8 10  1  0
 10 11  1  0
 11 12  1  0
 11 13  1  0
 13 14  2  0
 13 15  2  0
 13 16  1  0
 16 17  2  0
 17 18  1  0
 17 19  1  0
 19 20  1  0
 19 21  2  0
 21 22  1  0
 21 23  1  0
 23 24  1  0
 23 25  2  0
 25 26  1  0
 10 27  1  0
 27 28  1  0
 27 29  1  0
 27 30  1  0
 30 31  1  0
 30 32  1  0
 30 33  1  0
 33 34  1  0
 33 35  1  0
 33 36  1  0
 36 37  1  0
 36 38  1  0
  6 39  1  0
 39 40  1  0
 39 41  2  0
 41 42  1  0
 41  2  1  0
 36  7  1  0
 25 16  1  0
M  END
>  <cnnaffinity>  (1) 
-5.38618

>  <filename>  (1) 
O=C1N(NS(=O)(=O)c2ccccc2)CCCCN1c1cccnc1

$$$$
