
     RDKit          3D

 32 34  0  0  0  0  0  0  0  0999 V2000
    4.9565    1.7307   16.9491 H   0  0  0  0  0  0  0  0  0  0  0  0
    5.4137    1.3471   17.8612 C   0  0  0  0  0  0  0  0  0  0  0  0
    6.6225    0.7845   17.7203 N   0  0  0  0  0  0  0  0  0  0  0  0
    7.2127    0.3177   18.8272 C   0  0  0  0  0  0  0  0  0  0  0  0
    8.2070   -0.1033   18.6852 H   0  0  0  0  0  0  0  0  0  0  0  0
    6.6455    0.3571   20.1167 C   0  0  0  0  0  0  0  0  0  0  0  0
    7.3294   -0.3639   21.2338 C   0  0  0  0  0  0  0  0  0  0  0  0
    7.6380    0.5442   22.6934 S   0  0  0  0  0  0  0  0  0  0  0  0
    8.2010   -0.7024   23.8045 C   0  0  0  0  0  0  0  0  0  0  0  0
    8.1583   -0.3074   25.2338 C   0  0  0  0  0  0  0  0  0  0  0  0
    9.2198   -0.5267   26.1304 C   0  0  0  0  0  0  0  0  0  0  0  0
   10.1405   -1.0183   25.8244 H   0  0  0  0  0  0  0  0  0  0  0  0
    9.1785   -0.1580   27.4138 N   0  0  0  0  0  0  0  0  0  0  0  0
    8.0675    0.4300   27.8924 C   0  0  0  0  0  0  0  0  0  0  0  0
    7.9959    0.9663   29.3450 C   0  0  0  0  0  0  0  0  0  0  0  0
    7.9509    2.3161   29.3678 F   0  0  0  0  0  0  0  0  0  0  0  0
    6.8510    0.5539   29.9374 F   0  0  0  0  0  0  0  0  0  0  0  0
    8.9980    0.6008   30.1406 F   0  0  0  0  0  0  0  0  0  0  0  0
    6.9244    0.6055   27.0911 C   0  0  0  0  0  0  0  0  0  0  0  0
    6.0105    0.9992   27.5107 H   0  0  0  0  0  0  0  0  0  0  0  0
    6.9774    0.2426   25.7554 C   0  0  0  0  0  0  0  0  0  0  0  0
    6.1231    0.3482   25.0874 H   0  0  0  0  0  0  0  0  0  0  0  0
    8.5667   -1.9392   23.4227 C   0  0  0  0  0  0  0  0  0  0  0  0
    8.9859   -2.6428   24.1343 H   0  0  0  0  0  0  0  0  0  0  0  0
    8.3366   -2.5044   22.0897 C   0  0  0  0  0  0  0  0  0  0  0  0
    8.6361   -3.6590   21.8254 O   0  0  0  0  0  0  0  0  0  0  0  0
    7.6807   -1.6546   21.0881 C   0  0  0  0  0  0  0  0  0  0  0  0
    7.4162   -2.1795   20.1809 H   0  0  0  0  0  0  0  0  0  0  0  0
    5.3906    0.9770   20.2455 C   0  0  0  0  0  0  0  0  0  0  0  0
    4.9052    1.0501   21.2191 H   0  0  0  0  0  0  0  0  0  0  0  0
    4.7629    1.4641   19.0940 C   0  0  0  0  0  0  0  0  0  0  0  0
    3.7813    1.9226   19.1324 H   0  0  0  0  0  0  0  0  0  0  0  0
  1  2  1  0
  2  3  2  0
  3  4  1  0
  4  5  1  0
  4  6  2  0
  6  7  1  0
  7  8  1  0
  8  9  1  0
  9 10  1  0
 10 11  2  0
 11 12  1  0
 11 13  1  0
 13 14  2  0
 14 15  1  0
 15 16  1  0
 15 17  1  0
 15 18  1  0
 14 19  1  0
 19 20  1  0
 19 21  2  0
 21 22  1  0
  9 23  2  0
 23 24  1  0
 23 25  1  0
 25 26  2  0
 25 27  1  0
 27 28  1  0
  6 29  1  0
 29 30  1  0
 29 31  2  0
 31 32  1  0
 31  2  1  0
 27  7  2  0
 21 10  1  0
M  END
>  <cnnaffinity>  (1) 
-5.55337

>  <filename>  (1) 
O=c1cc(-c2cccnc2)sc(-c2ccc(C(F)(F)F)nc2)c1

$$$$
