
     RDKit          3D

 34 36  0  0  0  0  0  0  0  0999 V2000
    5.0979    1.7161   16.9606 H   0  0  0  0  0  0  0  0  0  0  0  0
    5.5488    1.2432   17.8299 C   0  0  0  0  0  0  0  0  0  0  0  0
    6.7236    0.6256   17.6261 N   0  0  0  0  0  0  0  0  0  0  0  0
    7.2979    0.0239   18.6786 C   0  0  0  0  0  0  0  0  0  0  0  0
    8.2623   -0.4463   18.4858 H   0  0  0  0  0  0  0  0  0  0  0  0
    6.7148   -0.0292   19.9588 C   0  0  0  0  0  0  0  0  0  0  0  0
    7.3471   -0.7651   21.0748 C   0  0  0  0  0  0  0  0  0  0  0  0
    8.7231   -0.6816   21.1640 N   0  0  0  0  0  0  0  0  0  0  0  0
    9.3113   -1.2695   22.1721 C   0  0  0  0  0  0  0  0  0  0  0  0
   10.6220   -1.1811   22.3631 O   0  0  0  0  0  0  0  0  0  0  0  0
   11.4819   -0.5614   21.3792 C   0  0  0  0  0  0  0  0  0  0  0  0
   11.0096   -0.6734   20.4009 H   0  0  0  0  0  0  0  0  0  0  0  0
   11.6921    0.9035   21.7749 C   0  0  0  0  0  0  0  0  0  0  0  0
   11.9614    1.5162   20.9056 H   0  0  0  0  0  0  0  0  0  0  0  0
   10.7699    1.3399   22.1669 H   0  0  0  0  0  0  0  0  0  0  0  0
   12.8247    0.8554   22.8110 C   0  0  0  0  0  0  0  0  0  0  0  0
   12.3934    0.6319   23.7908 H   0  0  0  0  0  0  0  0  0  0  0  0
   13.3400    1.8154   22.9223 H   0  0  0  0  0  0  0  0  0  0  0  0
   13.7467   -0.2954   22.3497 C   0  0  0  0  0  0  0  0  0  0  0  0
   14.2370   -0.7901   23.1950 H   0  0  0  0  0  0  0  0  0  0  0  0
   14.5480    0.0876   21.7102 H   0  0  0  0  0  0  0  0  0  0  0  0
   12.8501   -1.2577   21.5151 C   0  0  0  0  0  0  0  0  0  0  0  0
   12.7292   -2.2391   21.9849 H   0  0  0  0  0  0  0  0  0  0  0  0
   13.2827   -1.4561   20.5269 H   0  0  0  0  0  0  0  0  0  0  0  0
    8.5929   -2.1200   23.2221 C   0  0  0  0  0  0  0  0  0  0  0  0
    9.0253   -2.7684   24.1608 O   0  0  0  0  0  0  0  0  0  0  0  0
    7.2227   -2.1261   23.0112 N   0  0  0  0  0  0  0  0  0  0  0  0
    6.7511   -2.6554   23.7393 H   0  0  0  0  0  0  0  0  0  0  0  0
    6.5922   -1.4831   21.9632 C   0  0  0  0  0  0  0  0  0  0  0  0
    5.5203   -1.6033   21.8678 H   0  0  0  0  0  0  0  0  0  0  0  0
    5.5004    0.6469   20.1532 C   0  0  0  0  0  0  0  0  0  0  0  0
    5.0613    0.7082   21.1496 H   0  0  0  0  0  0  0  0  0  0  0  0
    4.9069    1.2913   19.0715 C   0  0  0  0  0  0  0  0  0  0  0  0
    3.9702    1.8248   19.1849 H   0  0  0  0  0  0  0  0  0  0  0  0
  1  2  1  0
  2  3  2  0
  3  4  1  0
  4  5  1  0
  4  6  2  0
  6  7  1  0
  7  8  1  0
  8  9  2  0
  9 10  1  0
 10 11  1  0
 11 12  1  0
 11 13  1  0
 13 14  1  0
 13 15  1  0
 13 16  1  0
 16 17  1  0
 16 18  1  0
 16 19  1  0
 19 20  1  0
 19 21  1  0
 19 22  1  0
 22 23  1  0
 22 24  1  0
  9 25  1  0
 25 26  2  0
 25 27  1  0
 27 28  1  0
 27 29  1  0
 29 30  1  0
  6 31  1  0
 31 32  1  0
 31 33  2  0
 33 34  1  0
 33  2  1  0
 29  7  2  0
 22 11  1  0
M  END
>  <cnnaffinity>  (1) 
-5.39312

>  <filename>  (1) 
O=c1[nH]cc(-c2cccnc2)nc1OC1CCCC1

$$$$
