
     RDKit          3D

 33 35  0  0  0  0  0  0  0  0999 V2000
    4.9878    1.7827   17.0027 H   0  0  0  0  0  0  0  0  0  0  0  0
    5.4390    1.2782   17.8566 C   0  0  0  0  0  0  0  0  0  0  0  0
    6.6013    0.6514   17.6200 N   0  0  0  0  0  0  0  0  0  0  0  0
    7.1807    0.0258   18.6515 C   0  0  0  0  0  0  0  0  0  0  0  0
    8.1391   -0.4457   18.4473 H   0  0  0  0  0  0  0  0  0  0  0  0
    6.6398   -0.0374   19.9502 C   0  0  0  0  0  0  0  0  0  0  0  0
    7.3748   -0.7687   21.0632 C   0  0  2  0  0  0  0  0  0  0  0  0
    7.0057   -0.3930   22.0334 H   0  0  0  0  0  0  0  0  0  0  0  0
    8.8009   -0.5949   20.9374 N   0  0  0  0  0  0  0  0  0  0  0  0
    9.2733    0.2328   21.2553 H   0  0  0  0  0  0  0  0  0  0  0  0
    9.5001   -1.7454   21.1686 C   0  0  0  0  0  0  0  0  0  0  0  0
   10.6747   -1.8240   21.3745 O   0  0  0  0  0  0  0  0  0  0  0  0
    8.6465   -2.7991   21.1073 O   0  0  0  0  0  0  0  0  0  0  0  0
    7.3021   -2.3359   21.0215 C   0  0  1  0  0  0  0  0  0  0  0  0
    6.9311   -2.6141   20.0326 H   0  0  0  0  0  0  0  0  0  0  0  0
    6.4013   -3.0265   22.0515 C   0  0  0  0  0  0  0  0  0  0  0  0
    5.1927   -3.5263   21.5430 C   0  0  0  0  0  0  0  0  0  0  0  0
    5.0368   -3.4357   20.4680 H   0  0  0  0  0  0  0  0  0  0  0  0
    4.2353   -4.1146   22.3740 C   0  0  0  0  0  0  0  0  0  0  0  0
    3.3141   -4.5174   21.9662 H   0  0  0  0  0  0  0  0  0  0  0  0
    4.4638   -4.1976   23.7434 C   0  0  0  0  0  0  0  0  0  0  0  0
    3.7275   -4.6590   24.3918 H   0  0  0  0  0  0  0  0  0  0  0  0
    5.6660   -3.7352   24.2726 C   0  0  0  0  0  0  0  0  0  0  0  0
    5.8333   -3.7747   25.3447 H   0  0  0  0  0  0  0  0  0  0  0  0
    6.6639   -3.2050   23.4348 C   0  0  0  0  0  0  0  0  0  0  0  0
    8.0486   -2.9745   24.0372 C   0  0  0  0  0  0  0  0  0  0  0  0
    8.5040   -1.7311   23.7616 F   0  0  0  0  0  0  0  0  0  0  0  0
    8.0814   -3.0906   25.3828 F   0  0  0  0  0  0  0  0  0  0  0  0
    8.9407   -3.8549   23.5610 F   0  0  0  0  0  0  0  0  0  0  0  0
    5.4226    0.6217   20.1714 C   0  0  0  0  0  0  0  0  0  0  0  0
    4.9751    0.6262   21.1673 H   0  0  0  0  0  0  0  0  0  0  0  0
    4.8096    1.2912   19.1061 C   0  0  0  0  0  0  0  0  0  0  0  0
    3.8709    1.8249   19.2296 H   0  0  0  0  0  0  0  0  0  0  0  0
  1  2  1  0
  2  3  2  0
  3  4  1  0
  4  5  1  0
  4  6  2  0
  6  7  1  0
  7  8  1  1
  7  9  1  0
  9 10  1  0
  9 11  1  0
 11 12  2  0
 11 13  1  0
 13 14  1  0
 14 15  1  6
 14 16  1  0
 16 17  2  0
 17 18  1  0
 17 19  1  0
 19 20  1  0
 19 21  2  0
 21 22  1  0
 21 23  1  0
 23 24  1  0
 23 25  2  0
 25 26  1  0
 26 27  1  0
 26 28  1  0
 26 29  1  0
  6 30  1  0
 30 31  1  0
 30 32  2  0
 32 33  1  0
 32  2  1  0
 14  7  1  0
 25 16  1  0
M  END
>  <cnnaffinity>  (1) 
-4.91876

>  <filename>  (1) 
O=C1N[C@@H](c2cccnc2)[C@H](c2ccccc2C(F)(F)F)O1

$$$$
