
     RDKit          3D

 37 39  0  0  0  0  0  0  0  0999 V2000
    4.9102    1.8079   16.9870 H   0  0  0  0  0  0  0  0  0  0  0  0
    5.3961    1.3072   17.8224 C   0  0  0  0  0  0  0  0  0  0  0  0
    6.5572    0.6902   17.5451 N   0  0  0  0  0  0  0  0  0  0  0  0
    7.1902    0.0754   18.5539 C   0  0  0  0  0  0  0  0  0  0  0  0
    8.1342   -0.4107   18.3178 H   0  0  0  0  0  0  0  0  0  0  0  0
    6.6925    0.0225   19.8741 C   0  0  0  0  0  0  0  0  0  0  0  0
    7.3711   -0.7036   20.9446 N   0  0  0  0  0  0  0  0  0  0  0  0
    6.7522   -1.8534   21.5168 C   0  0  0  0  0  0  0  0  0  0  0  0
    5.6957   -2.2557   21.0743 O   0  0  0  0  0  0  0  0  0  0  0  0
    7.4434   -2.4951   22.6003 C   0  0  0  0  0  0  0  0  0  0  0  0
    6.9866   -3.3860   22.9779 H   0  0  0  0  0  0  0  0  0  0  0  0
    8.5956   -1.9957   23.0654 C   0  0  0  0  0  0  0  0  0  0  0  0
    9.2999   -2.3855   24.1885 N   0  0  0  0  0  0  0  0  0  0  0  0
   10.2669   -2.6262   24.0222 H   0  0  0  0  0  0  0  0  0  0  0  0
    8.8262   -3.2876   25.1315 C   0  0  0  0  0  0  0  0  0  0  0  0
    9.8795   -4.3913   25.7533 S   0  0  0  0  0  0  0  0  0  0  0  0
    7.5316   -3.0934   25.4602 N   0  0  0  0  0  0  0  0  0  0  0  0
    7.1845   -2.1738   25.2408 H   0  0  0  0  0  0  0  0  0  0  0  0
    6.6168   -3.9983   26.0509 C   0  0  0  0  0  0  0  0  0  0  0  0
    6.6393   -5.3654   25.7430 C   0  0  0  0  0  0  0  0  0  0  0  0
    7.3963   -5.7341   25.0605 H   0  0  0  0  0  0  0  0  0  0  0  0
    5.7063   -6.2264   26.3298 C   0  0  0  0  0  0  0  0  0  0  0  0
    5.7271   -7.2892   26.0882 H   0  0  0  0  0  0  0  0  0  0  0  0
    4.7565   -5.7244   27.2289 C   0  0  0  0  0  0  0  0  0  0  0  0
    4.0337   -6.3949   27.6859 H   0  0  0  0  0  0  0  0  0  0  0  0
    4.7395   -4.3585   27.5420 C   0  0  0  0  0  0  0  0  0  0  0  0
    4.0079   -3.9632   28.2486 H   0  0  0  0  0  0  0  0  0  0  0  0
    5.6638   -3.4939   26.9439 C   0  0  0  0  0  0  0  0  0  0  0  0
    5.6770   -2.4336   27.1809 H   0  0  0  0  0  0  0  0  0  0  0  0
    9.2154   -1.0191   22.3677 N   0  0  0  0  0  0  0  0  0  0  0  0
   10.0296   -0.5510   22.7140 H   0  0  0  0  0  0  0  0  0  0  0  0
    8.6118   -0.2649   21.3931 C   0  0  0  0  0  0  0  0  0  0  0  0
    9.1859    0.7111   20.9687 O   0  0  0  0  0  0  0  0  0  0  0  0
    5.4742    0.6546   20.1365 C   0  0  0  0  0  0  0  0  0  0  0  0
    5.0439    0.6026   21.1340 H   0  0  0  0  0  0  0  0  0  0  0  0
    4.8147    1.3221   19.0939 C   0  0  0  0  0  0  0  0  0  0  0  0
    3.8721    1.8438   19.2513 H   0  0  0  0  0  0  0  0  0  0  0  0
  1  2  1  0
  2  3  2  0
  3  4  1  0
  4  5  1  0
  4  6  2  0
  6  7  1  0
  7  8  1  0
  8  9  2  0
  8 10  1  0
 10 11  1  0
 10 12  2  0
 12 13  1  0
 13 14  1  0
 13 15  1  0
 15 16  2  0
 15 17  1  0
 17 18  1  0
 17 19  1  0
 19 20  2  0
 20 21  1  0
 20 22  1  0
 22 23  1  0
 22 24  2  0
 24 25  1  0
 24 26  1  0
 26 27  1  0
 26 28  2  0
 28 29  1  0
 12 30  1  0
 30 31  1  0
 30 32  1  0
 32 33  2  0
  6 34  1  0
 34 35  1  0
 34 36  2  0
 36 37  1  0
 36  2  1  0
 32  7  1  0
 28 19  1  0
M  END
>  <cnnaffinity>  (1) 
-5.47021

>  <filename>  (1) 
O=c1cc(NC(=S)Nc2ccccc2)[nH]c(=O)n1-c1cccnc1

$$$$
