
     RDKit          3D

 30 32  0  0  0  0  0  0  0  0999 V2000
    5.0132    1.8300   16.9401 H   0  0  0  0  0  0  0  0  0  0  0  0
    5.4742    1.3269   17.7882 C   0  0  0  0  0  0  0  0  0  0  0  0
    6.6673    0.7583   17.5502 N   0  0  0  0  0  0  0  0  0  0  0  0
    7.2586    0.1332   18.5734 C   0  0  0  0  0  0  0  0  0  0  0  0
    8.2496   -0.2791   18.3906 H   0  0  0  0  0  0  0  0  0  0  0  0
    6.6686   -0.0142   19.8424 C   0  0  0  0  0  0  0  0  0  0  0  0
    7.3969   -0.7977   20.8798 C   0  0  0  0  0  0  0  0  0  0  0  0
    8.6687   -0.5018   20.9631 N   0  0  0  0  0  0  0  0  0  0  0  0
    9.4171   -1.0848   21.9404 N   0  0  0  0  0  0  0  0  0  0  0  0
   10.7983   -0.7225   21.9909 C   0  0  0  0  0  0  0  0  0  0  0  0
   11.1866    0.6225   22.0197 C   0  0  0  0  0  0  0  0  0  0  0  0
   10.4193    1.3887   21.9596 H   0  0  0  0  0  0  0  0  0  0  0  0
   12.5494    0.9321   22.1162 C   0  0  0  0  0  0  0  0  0  0  0  0
   12.8621    1.9751   22.1257 H   0  0  0  0  0  0  0  0  0  0  0  0
   13.5145   -0.0860   22.1033 C   0  0  0  0  0  0  0  0  0  0  0  0
   14.5755    0.1487   22.0879 H   0  0  0  0  0  0  0  0  0  0  0  0
   13.0931   -1.4115   21.9884 C   0  0  0  0  0  0  0  0  0  0  0  0
   14.2304   -2.6901   21.8182 Cl  0  0  0  0  0  0  0  0  0  0  0  0
   11.7445   -1.7469   21.9880 C   0  0  0  0  0  0  0  0  0  0  0  0
   11.4162   -2.7751   21.9274 H   0  0  0  0  0  0  0  0  0  0  0  0
    8.8646   -1.9038   22.8955 C   0  0  0  0  0  0  0  0  0  0  0  0
    9.5533   -2.2088   23.6844 H   0  0  0  0  0  0  0  0  0  0  0  0
    7.5743   -2.2775   22.8564 C   0  0  0  0  0  0  0  0  0  0  0  0
    7.1361   -2.9232   23.6036 H   0  0  0  0  0  0  0  0  0  0  0  0
    6.7291   -1.8640   21.7453 C   0  0  0  0  0  0  0  0  0  0  0  0
    5.6188   -2.3474   21.5512 O   0  0  0  0  0  0  0  0  0  0  0  0
    5.4433    0.6209   20.0876 C   0  0  0  0  0  0  0  0  0  0  0  0
    4.9947    0.5929   21.0834 H   0  0  0  0  0  0  0  0  0  0  0  0
    4.8378    1.3073   19.0336 C   0  0  0  0  0  0  0  0  0  0  0  0
    3.9006    1.8377   19.1655 H   0  0  0  0  0  0  0  0  0  0  0  0
  1  2  1  0
  2  3  2  0
  3  4  1  0
  4  5  1  0
  4  6  2  0
  6  7  1  0
  7  8  2  0
  8  9  1  0
  9 10  1  0
 10 11  2  0
 11 12  1  0
 11 13  1  0
 13 14  1  0
 13 15  2  0
 15 16  1  0
 15 17  1  0
 17 18  1  0
 17 19  2  0
 19 20  1  0
  9 21  1  0
 21 22  1  0
 21 23  2  0
 23 24  1  0
 23 25  1  0
 25 26  2  0
  6 27  1  0
 27 28  1  0
 27 29  2  0
 29 30  1  0
 29  2  1  0
 25  7  1  0
 19 10  1  0
M  END
>  <cnnaffinity>  (1) 
-5.71014

>  <filename>  (1) 
O=c1ccn(-c2cccc(Cl)c2)nc1-c1cccnc1

$$$$
