
     RDKit          3D

 33 35  0  0  0  0  0  0  0  0999 V2000
    7.0035    1.7671   22.2154 H   0  0  0  0  0  0  0  0  0  0  0  0
    7.3024    0.9315   22.8577 C   0  0  0  0  0  0  0  0  0  0  0  0
    7.5375   -0.2905   22.3575 C   0  0  0  0  0  0  0  0  0  0  0  0
    7.3830   -0.7377   20.9564 C   0  0  0  0  0  0  0  0  0  0  0  0
    6.6510    0.0198   19.9151 C   0  0  0  0  0  0  0  0  0  0  0  0
    7.1686    0.0529   18.6121 C   0  0  0  0  0  0  0  0  0  0  0  0
    8.1109   -0.4367   18.3811 H   0  0  0  0  0  0  0  0  0  0  0  0
    6.5720    0.6747   17.5909 N   0  0  0  0  0  0  0  0  0  0  0  0
    5.4063    1.2914   17.8417 C   0  0  0  0  0  0  0  0  0  0  0  0
    4.9275    1.7800   16.9958 H   0  0  0  0  0  0  0  0  0  0  0  0
    4.8014    1.3101   19.1036 C   0  0  0  0  0  0  0  0  0  0  0  0
    3.8690    1.8440   19.2523 H   0  0  0  0  0  0  0  0  0  0  0  0
    5.4314    0.6614   20.1638 C   0  0  0  0  0  0  0  0  0  0  0  0
    4.9875    0.6410   21.1635 H   0  0  0  0  0  0  0  0  0  0  0  0
    7.9458   -1.8600   20.6993 N   0  0  0  0  0  0  0  0  0  0  0  0
    8.5314   -2.4031   21.9233 C   0  0  0  0  0  0  0  0  0  0  0  0
    8.1439   -3.4094   22.0968 H   0  0  0  0  0  0  0  0  0  0  0  0
    9.6103   -2.4941   21.7727 H   0  0  0  0  0  0  0  0  0  0  0  0
    8.1961   -1.4450   23.0921 C   0  0  0  0  0  0  0  0  0  0  0  0
    9.0859   -1.1023   23.6303 H   0  0  0  0  0  0  0  0  0  0  0  0
    7.5114   -1.8808   23.8268 H   0  0  0  0  0  0  0  0  0  0  0  0
    7.4808    1.2732   24.2162 N   0  0  0  0  0  0  0  0  0  0  0  0
    6.8538    0.6311   25.2784 C   0  0  0  0  0  0  0  0  0  0  0  0
    6.1358   -0.3462   25.2307 O   0  0  0  0  0  0  0  0  0  0  0  0
    7.1874    1.4121   26.5309 C   0  0  0  0  0  0  0  0  0  0  0  0
    7.5938    0.7338   27.2783 H   0  0  0  0  0  0  0  0  0  0  0  0
    6.2453    1.7699   26.9449 H   0  0  0  0  0  0  0  0  0  0  0  0
    8.1494    2.5307   26.1279 C   0  0  0  0  0  0  0  0  0  0  0  0
    7.8417    3.5058   26.5146 H   0  0  0  0  0  0  0  0  0  0  0  0
    9.1577    2.3419   26.5120 H   0  0  0  0  0  0  0  0  0  0  0  0
    8.1393    2.5240   24.5895 C   0  0  0  0  0  0  0  0  0  0  0  0
    9.1570    2.5735   24.1833 H   0  0  0  0  0  0  0  0  0  0  0  0
    7.5887    3.3786   24.1762 H   0  0  0  0  0  0  0  0  0  0  0  0
  1  2  1  0
  2  3  2  3
  3  4  1  0
  4  5  1  0
  5  6  2  0
  6  7  1  0
  6  8  1  0
  8  9  2  0
  9 10  1  0
  9 11  1  0
 11 12  1  0
 11 13  2  0
 13 14  1  0
  4 15  2  0
 15 16  1  0
 16 17  1  0
 16 18  1  0
 16 19  1  0
 19 20  1  0
 19 21  1  0
  2 22  1  0
 22 23  1  0
 23 24  2  0
 23 25  1  0
 25 26  1  0
 25 27  1  0
 25 28  1  0
 28 29  1  0
 28 30  1  0
 28 31  1  0
 31 32  1  0
 31 33  1  0
 19  3  1  0
 31 22  1  0
 13  5  1  0
M  END
>  <cnnaffinity>  (1) 
-4.99424

>  <filename>  (1) 
O=C1CCCN1C=C1CCN=C1c1cccnc1

$$$$
