
     RDKit          3D

 30 32  0  0  0  0  0  0  0  0999 V2000
    4.9091    1.7739   17.0031 H   0  0  0  0  0  0  0  0  0  0  0  0
    5.4018    1.2928   17.8441 C   0  0  0  0  0  0  0  0  0  0  0  0
    6.5668    0.6766   17.5834 N   0  0  0  0  0  0  0  0  0  0  0  0
    7.1777    0.0555   18.5993 C   0  0  0  0  0  0  0  0  0  0  0  0
    8.1269   -0.4305   18.3837 H   0  0  0  0  0  0  0  0  0  0  0  0
    6.6461   -0.0070   19.9016 C   0  0  0  0  0  0  0  0  0  0  0  0
    7.3272   -0.7153   20.9478 N   0  0  0  0  0  0  0  0  0  0  0  0
    6.5685   -1.6153   21.6535 N   0  0  0  0  0  0  0  0  0  0  0  0
    7.1380   -2.2924   22.6287 C   0  0  0  0  0  0  0  0  0  0  0  0
    6.2951   -3.2759   23.3784 C   0  0  0  0  0  0  0  0  0  0  0  0
    6.5681   -3.6202   24.7177 C   0  0  0  0  0  0  0  0  0  0  0  0
    7.3954   -3.1672   25.2627 H   0  0  0  0  0  0  0  0  0  0  0  0
    5.7524   -4.5337   25.3880 C   0  0  0  0  0  0  0  0  0  0  0  0
    5.9635   -4.7915   26.4236 H   0  0  0  0  0  0  0  0  0  0  0  0
    4.6596   -5.1214   24.7432 C   0  0  0  0  0  0  0  0  0  0  0  0
    4.0240   -5.8295   25.2631 H   0  0  0  0  0  0  0  0  0  0  0  0
    4.3926   -4.7789   23.4154 C   0  0  0  0  0  0  0  0  0  0  0  0
    3.0305   -5.4924   22.6010 Cl  0  0  0  0  0  0  0  0  0  0  0  0
    5.1957   -3.8687   22.7303 C   0  0  0  0  0  0  0  0  0  0  0  0
    4.9741   -3.6096   21.7007 H   0  0  0  0  0  0  0  0  0  0  0  0
    8.5326   -2.1163   22.9601 C   0  0  0  0  0  0  0  0  0  0  0  0
    8.9966   -2.7149   23.7453 H   0  0  0  0  0  0  0  0  0  0  0  0
    9.2753   -1.2132   22.2726 C   0  0  0  0  0  0  0  0  0  0  0  0
   10.3201   -1.0142   22.4715 H   0  0  0  0  0  0  0  0  0  0  0  0
    8.7137   -0.4068   21.2056 C   0  0  0  0  0  0  0  0  0  0  0  0
    9.3286    0.4350   20.5690 O   0  0  0  0  0  0  0  0  0  0  0  0
    5.4389    0.6464   20.1648 C   0  0  0  0  0  0  0  0  0  0  0  0
    5.0165    0.6130   21.1671 H   0  0  0  0  0  0  0  0  0  0  0  0
    4.8077    1.3156   19.1123 C   0  0  0  0  0  0  0  0  0  0  0  0
    3.8714    1.8463   19.2673 H   0  0  0  0  0  0  0  0  0  0  0  0
  1  2  1  0
  2  3  2  0
  3  4  1  0
  4  5  1  0
  4  6  2  0
  6  7  1  0
  7  8  1  0
  8  9  2  0
  9 10  1  0
 10 11  2  0
 11 12  1  0
 11 13  1  0
 13 14  1  0
 13 15  2  0
 15 16  1  0
 15 17  1  0
 17 18  1  0
 17 19  2  0
 19 20  1  0
  9 21  1  0
 21 22  1  0
 21 23  2  0
 23 24  1  0
 23 25  1  0
 25 26  2  0
  6 27  1  0
 27 28  1  0
 27 29  2  0
 29 30  1  0
 29  2  1  0
 25  7  1  0
 19 10  1  0
M  END
>  <cnnaffinity>  (1) 
-5.33405

>  <filename>  (1) 
O=c1ccc(-c2cccc(Cl)c2)nn1-c1cccnc1

$$$$
