
     RDKit          3D

 33 36  0  0  0  0  0  0  0  0999 V2000
    4.9142    1.7751   17.0034 H   0  0  0  0  0  0  0  0  0  0  0  0
    5.4039    1.2920   17.8444 C   0  0  0  0  0  0  0  0  0  0  0  0
    6.5714    0.6811   17.5834 N   0  0  0  0  0  0  0  0  0  0  0  0
    7.1749    0.0550   18.5961 C   0  0  0  0  0  0  0  0  0  0  0  0
    8.1227   -0.4362   18.3768 H   0  0  0  0  0  0  0  0  0  0  0  0
    6.6535    0.0127   19.8944 C   0  0  0  0  0  0  0  0  0  0  0  0
    7.3827   -0.7367   20.9047 C   0  0  0  0  0  0  0  0  0  0  0  0
    7.9549   -1.8803   20.6758 N   0  0  0  0  0  0  0  0  0  0  0  0
    8.4448   -2.2448   21.9001 N   0  0  0  0  0  0  0  0  0  0  0  0
    8.9573   -3.0914   22.0681 H   0  0  0  0  0  0  0  0  0  0  0  0
    8.2289   -1.3419   22.8893 C   0  0  0  0  0  0  0  0  0  0  0  0
    8.5779   -1.3969   24.0507 O   0  0  0  0  0  0  0  0  0  0  0  0
    7.5007   -0.3315   22.2308 N   0  0  0  0  0  0  0  0  0  0  0  0
    7.1453    0.9347   22.8298 C   0  0  0  0  0  0  0  0  0  0  0  0
    6.4864    0.9980   24.1147 C   0  0  0  0  0  0  0  0  0  0  0  0
    6.2791    0.0554   24.6196 H   0  0  0  0  0  0  0  0  0  0  0  0
    6.1257    2.1103   24.7204 N   0  0  0  0  0  0  0  0  0  0  0  0
    6.3972    3.3041   24.0861 C   0  0  0  0  0  0  0  0  0  0  0  0
    6.0219    4.5322   24.7117 C   0  0  0  0  0  0  0  0  0  0  0  0
    5.5347    4.4745   25.6782 H   0  0  0  0  0  0  0  0  0  0  0  0
    6.2738    5.7422   24.0976 C   0  0  0  0  0  0  0  0  0  0  0  0
    5.9849    6.6775   24.5742 H   0  0  0  0  0  0  0  0  0  0  0  0
    6.9151    5.7867   22.8280 C   0  0  0  0  0  0  0  0  0  0  0  0
    7.1063    6.7468   22.3529 H   0  0  0  0  0  0  0  0  0  0  0  0
    7.2924    4.6218   22.2013 C   0  0  0  0  0  0  0  0  0  0  0  0
    7.7933    4.6555   21.2394 H   0  0  0  0  0  0  0  0  0  0  0  0
    7.0466    3.3550   22.8117 C   0  0  0  0  0  0  0  0  0  0  0  0
    7.4301    2.1237   22.1998 C   0  0  0  0  0  0  0  0  0  0  0  0
    7.9104    2.1456   21.2254 H   0  0  0  0  0  0  0  0  0  0  0  0
    5.4314    0.6494   20.1540 C   0  0  0  0  0  0  0  0  0  0  0  0
    5.0083    0.6332   21.1612 H   0  0  0  0  0  0  0  0  0  0  0  0
    4.8011    1.3099   19.1075 C   0  0  0  0  0  0  0  0  0  0  0  0
    3.8718    1.8447   19.2628 H   0  0  0  0  0  0  0  0  0  0  0  0
  1  2  1  0
  2  3  2  0
  3  4  1  0
  4  5  1  0
  4  6  2  0
  6  7  1  0
  7  8  2  0
  8  9  1  0
  9 10  1  0
  9 11  1  0
 11 12  2  0
 11 13  1  0
 13 14  1  0
 14 15  2  0
 15 16  1  0
 15 17  1  0
 17 18  2  0
 18 19  1  0
 19 20  1  0
 19 21  2  0
 21 22  1  0
 21 23  1  0
 23 24  1  0
 23 25  2  0
 25 26  1  0
 25 27  1  0
 27 28  2  0
 28 29  1  0
  6 30  1  0
 30 31  1  0
 30 32  2  0
 32 33  1  0
 32  2  1  0
 13  7  1  0
 28 14  1  0
 27 18  1  0
M  END
>  <cnnaffinity>  (1) 
-5.29116

>  <filename>  (1) 
O=c1[nH]nc(-c2cccnc2)n1-c1cnc2ccccc2c1

$$$$
