
     RDKit          3D

 27 29  0  0  0  0  0  0  0  0999 V2000
    4.9198    1.7798   16.8804 H   0  0  0  0  0  0  0  0  0  0  0  0
    5.3650    1.3744   17.7873 C   0  0  0  0  0  0  0  0  0  0  0  0
    6.5782    0.8238   17.6382 N   0  0  0  0  0  0  0  0  0  0  0  0
    7.1570    0.3225   18.7354 C   0  0  0  0  0  0  0  0  0  0  0  0
    8.1463   -0.1024   18.5713 H   0  0  0  0  0  0  0  0  0  0  0  0
    6.5789    0.3381   20.0224 C   0  0  0  0  0  0  0  0  0  0  0  0
    7.2478   -0.4083   21.1306 C   0  0  0  0  0  0  0  0  0  0  0  0
    7.5055    0.4323   22.6464 S   0  0  0  0  0  0  0  0  0  0  0  0
    8.2274   -0.8132   23.6694 C   0  0  0  0  0  0  0  0  0  0  0  0
    8.4096   -0.4486   25.0840 C   0  0  0  0  0  0  0  0  0  0  0  0
    9.0330   -1.2248   26.0251 C   0  0  0  0  0  0  0  0  0  0  0  0
    9.5252   -2.1832   26.0161 H   0  0  0  0  0  0  0  0  0  0  0  0
    9.0096   -0.6371   27.2353 O   0  0  0  0  0  0  0  0  0  0  0  0
    8.3548    0.5416   27.0887 C   0  0  0  0  0  0  0  0  0  0  0  0
    8.2445    1.1288   27.9871 H   0  0  0  0  0  0  0  0  0  0  0  0
    7.9612    0.7220   25.8089 C   0  0  0  0  0  0  0  0  0  0  0  0
    7.4156    1.5758   25.4241 H   0  0  0  0  0  0  0  0  0  0  0  0
    8.5765   -2.0401   23.2270 C   0  0  0  0  0  0  0  0  0  0  0  0
    9.1047   -2.7427   23.8639 H   0  0  0  0  0  0  0  0  0  0  0  0
    8.2604   -2.5753   21.9063 C   0  0  0  0  0  0  0  0  0  0  0  0
    8.5137   -3.7364   21.6120 O   0  0  0  0  0  0  0  0  0  0  0  0
    7.6120   -1.6875   20.9368 C   0  0  0  0  0  0  0  0  0  0  0  0
    7.4182   -2.1599   19.9870 H   0  0  0  0  0  0  0  0  0  0  0  0
    5.3247    0.9556   20.1612 C   0  0  0  0  0  0  0  0  0  0  0  0
    4.8565    1.0296   21.1446 H   0  0  0  0  0  0  0  0  0  0  0  0
    4.6988    1.4607   19.0151 C   0  0  0  0  0  0  0  0  0  0  0  0
    3.7282    1.9455   19.0665 H   0  0  0  0  0  0  0  0  0  0  0  0
  1  2  1  0
  2  3  2  0
  3  4  1  0
  4  5  1  0
  4  6  2  0
  6  7  1  0
  7  8  1  0
  8  9  1  0
  9 10  1  0
 10 11  2  0
 11 12  1  0
 11 13  1  0
 13 14  1  0
 14 15  1  0
 14 16  2  0
 16 17  1  0
  9 18  2  0
 18 19  1  0
 18 20  1  0
 20 21  2  0
 20 22  1  0
 22 23  1  0
  6 24  1  0
 24 25  1  0
 24 26  2  0
 26 27  1  0
 26  2  1  0
 22  7  2  0
 16 10  1  0
M  END
>  <cnnaffinity>  (1) 
-5.00045

>  <filename>  (1) 
O=c1cc(-c2cccnc2)sc(-c2ccoc2)c1

$$$$
