
     RDKit          3D

 36 38  0  0  0  0  0  0  0  0999 V2000
    3.7303    0.3645   27.2851 H   0  0  0  0  0  0  0  0  0  0  0  0
    3.9881    0.8544   26.4960 O   0  0  0  0  0  0  0  0  0  0  0  0
    5.3764    0.6740   26.3128 C   0  0  0  0  0  0  0  0  0  0  0  0
    5.9419    1.0685   27.1846 H   0  0  0  0  0  0  0  0  0  0  0  0
    5.7328   -0.8045   26.1291 C   0  0  0  0  0  0  0  0  0  0  0  0
    5.5025   -1.3756   27.0347 H   0  0  0  0  0  0  0  0  0  0  0  0
    5.1277   -1.2329   25.3202 H   0  0  0  0  0  0  0  0  0  0  0  0
    7.2124   -0.9511   25.7702 C   0  0  0  0  0  0  0  0  0  0  0  0
    7.4467   -2.0043   25.5665 H   0  0  0  0  0  0  0  0  0  0  0  0
    7.8459   -0.6556   26.6193 H   0  0  0  0  0  0  0  0  0  0  0  0
    7.5167   -0.1052   24.6116 N   0  0  0  0  0  0  0  0  0  0  0  0
    7.7127   -0.6587   23.3902 C   0  0  0  0  0  0  0  0  0  0  0  0
    7.1076   -0.0095   22.3458 O   0  0  0  0  0  0  0  0  0  0  0  0
    7.3691   -0.4530   21.0732 C   0  0  0  0  0  0  0  0  0  0  0  0
    6.5968    0.2082   20.0090 C   0  0  0  0  0  0  0  0  0  0  0  0
    7.1220    0.1649   18.7041 C   0  0  0  0  0  0  0  0  0  0  0  0
    8.0758   -0.3252   18.5144 H   0  0  0  0  0  0  0  0  0  0  0  0
    6.5449    0.7149   17.6342 N   0  0  0  0  0  0  0  0  0  0  0  0
    5.3685    1.3289   17.8281 C   0  0  0  0  0  0  0  0  0  0  0  0
    4.9132    1.7753   16.9462 H   0  0  0  0  0  0  0  0  0  0  0  0
    4.7334    1.3949   19.0735 C   0  0  0  0  0  0  0  0  0  0  0  0
    3.7712    1.8825   19.1485 H   0  0  0  0  0  0  0  0  0  0  0  0
    5.3477    0.8291   20.1889 C   0  0  0  0  0  0  0  0  0  0  0  0
    4.8753    0.8556   21.1709 H   0  0  0  0  0  0  0  0  0  0  0  0
    8.2134   -1.4798   20.8581 C   0  0  0  0  0  0  0  0  0  0  0  0
    8.4937   -1.8205   19.8809 H   0  0  0  0  0  0  0  0  0  0  0  0
    8.6783   -2.3168   21.9579 C   0  0  0  0  0  0  0  0  0  0  0  0
    9.1512   -3.4273   21.7764 O   0  0  0  0  0  0  0  0  0  0  0  0
    8.4769   -1.7605   23.2588 C   0  0  0  0  0  0  0  0  0  0  0  0
    8.9582   -2.1984   24.1208 H   0  0  0  0  0  0  0  0  0  0  0  0
    7.2342    1.3156   24.7602 C   0  0  0  0  0  0  0  0  0  0  0  0
    7.5321    1.8452   23.8462 H   0  0  0  0  0  0  0  0  0  0  0  0
    7.8474    1.7139   25.5840 H   0  0  0  0  0  0  0  0  0  0  0  0
    5.7527    1.4758   25.0696 C   0  0  0  0  0  0  0  0  0  0  0  0
    5.1757    1.1044   24.2115 H   0  0  0  0  0  0  0  0  0  0  0  0
    5.4867    2.5244   25.2219 H   0  0  0  0  0  0  0  0  0  0  0  0
  1  2  1  0
  2  3  1  0
  3  4  1  0
  3  5  1  0
  5  6  1  0
  5  7  1  0
  5  8  1  0
  8  9  1  0
  8 10  1  0
  8 11  1  0
 11 12  1  0
 12 13  1  0
 13 14  1  0
 14 15  1  0
 15 16  2  0
 16 17  1  0
 16 18  1  0
 18 19  2  0
 19 20  1  0
 19 21  1  0
 21 22  1  0
 21 23  2  0
 23 24  1  0
 14 25  2  0
 25 26  1  0
 25 27  1  0
 27 28  2  0
 27 29  1  0
 29 30  1  0
 11 31  1  0
 31 32  1  0
 31 33  1  0
 31 34  1  0
 34 35  1  0
 34 36  1  0
 34  3  1  0
 29 12  2  0
 23 15  1  0
M  END
>  <cnnaffinity>  (1) 
-4.88046

>  <filename>  (1) 
O=c1cc(-c2cccnc2)oc(N2CCC(O)CC2)c1

$$$$
