
     RDKit          3D

 21 22  0  0  0  0  0  0  0  0999 V2000
    7.5518    0.1783   24.7278 H   0  0  0  0  0  0  0  0  0  0  0  0
    8.0938   -0.6007   24.5626 O   0  0  0  0  0  0  0  0  0  0  0  0
    8.0146   -0.8276   23.2619 C   0  0  0  0  0  0  0  0  0  0  0  0
    7.3074   -0.0946   22.3648 C   0  0  0  0  0  0  0  0  0  0  0  0
    6.7631    0.7759   22.6865 H   0  0  0  0  0  0  0  0  0  0  0  0
    7.3610   -0.5387   21.0156 C   0  0  0  0  0  0  0  0  0  0  0  0
    6.6136    0.1420   19.9536 C   0  0  0  0  0  0  0  0  0  0  0  0
    7.1425    0.0957   18.6555 C   0  0  0  0  0  0  0  0  0  0  0  0
    8.0696   -0.4504   18.4731 H   0  0  0  0  0  0  0  0  0  0  0  0
    6.5596    0.6790   17.6083 N   0  0  0  0  0  0  0  0  0  0  0  0
    5.3958    1.3084   17.8274 C   0  0  0  0  0  0  0  0  0  0  0  0
    4.9624    1.7974   16.9612 H   0  0  0  0  0  0  0  0  0  0  0  0
    4.7566    1.3526   19.0711 C   0  0  0  0  0  0  0  0  0  0  0  0
    3.8104    1.8681   19.1756 H   0  0  0  0  0  0  0  0  0  0  0  0
    5.3738    0.7492   20.1613 C   0  0  0  0  0  0  0  0  0  0  0  0
    4.8936    0.7111   21.1417 H   0  0  0  0  0  0  0  0  0  0  0  0
    8.0316   -1.5793   20.6163 N   0  0  0  0  0  0  0  0  0  0  0  0
    8.5449   -2.4039   21.5600 C   0  0  0  0  0  0  0  0  0  0  0  0
    8.8574   -3.5503   21.3673 O   0  0  0  0  0  0  0  0  0  0  0  0
    8.7087   -1.8832   22.8467 N   0  0  0  0  0  0  0  0  0  0  0  0
    9.1210   -2.5195   23.4928 H   0  0  0  0  0  0  0  0  0  0  0  0
  1  2  1  0
  2  3  1  0
  3  4  2  0
  4  5  1  0
  4  6  1  0
  6  7  1  0
  7  8  2  0
  8  9  1  0
  8 10  1  0
 10 11  2  0
 11 12  1  0
 11 13  1  0
 13 14  1  0
 13 15  2  0
 15 16  1  0
  6 17  2  0
 17 18  1  0
 18 19  2  0
 18 20  1  0
 20 21  1  0
 20  3  1  0
 15  7  1  0
M  END
>  <cnnaffinity>  (1) 
-4.30221

>  <filename>  (1) 
O=c1nc(-c2cccnc2)cc(O)[nH]1

$$$$
