
     RDKit          3D

 27 28  0  0  0  0  0  0  0  0999 V2000
    4.9578    1.7780   16.9813 H   0  0  0  0  0  0  0  0  0  0  0  0
    5.3999    1.2886   17.8460 C   0  0  0  0  0  0  0  0  0  0  0  0
    6.5705    0.6714   17.6293 N   0  0  0  0  0  0  0  0  0  0  0  0
    7.1653    0.0999   18.6805 C   0  0  0  0  0  0  0  0  0  0  0  0
    8.1168   -0.3776   18.4484 H   0  0  0  0  0  0  0  0  0  0  0  0
    6.6440    0.0952   19.9904 C   0  0  0  0  0  0  0  0  0  0  0  0
    7.3602   -0.6107   21.0837 C   0  0  0  0  0  0  0  0  0  0  0  0
    7.1430   -0.1776   22.3808 N   0  0  0  0  0  0  0  0  0  0  0  0
    7.7642   -0.7897   23.3535 C   0  0  0  0  0  0  0  0  0  0  0  0
    7.6643   -0.3624   24.6270 O   0  0  0  0  0  0  0  0  0  0  0  0
    7.0714    0.9094   24.9033 C   0  0  0  0  0  0  0  0  0  0  0  0
    6.8027    0.9081   25.9630 H   0  0  0  0  0  0  0  0  0  0  0  0
    6.1765    1.0521   24.2952 H   0  0  0  0  0  0  0  0  0  0  0  0
    7.9412    2.1597   24.6894 C   0  0  0  0  0  0  0  0  0  0  0  0
    8.2557    2.3979   23.4120 F   0  0  0  0  0  0  0  0  0  0  0  0
    7.2000    3.2012   25.1217 F   0  0  0  0  0  0  0  0  0  0  0  0
    9.0798    2.1311   25.3947 F   0  0  0  0  0  0  0  0  0  0  0  0
    8.6657   -2.0120   23.1787 C   0  0  0  0  0  0  0  0  0  0  0  0
    9.2955   -2.6664   23.9918 O   0  0  0  0  0  0  0  0  0  0  0  0
    8.7613   -2.3770   21.8433 N   0  0  0  0  0  0  0  0  0  0  0  0
    9.3686   -3.1885   21.7501 H   0  0  0  0  0  0  0  0  0  0  0  0
    8.1807   -1.6685   20.8086 C   0  0  0  0  0  0  0  0  0  0  0  0
    8.4049   -1.9445   19.7978 H   0  0  0  0  0  0  0  0  0  0  0  0
    5.4038    0.7306   20.1877 C   0  0  0  0  0  0  0  0  0  0  0  0
    4.9509    0.7366   21.1803 H   0  0  0  0  0  0  0  0  0  0  0  0
    4.7742    1.3310   19.0961 C   0  0  0  0  0  0  0  0  0  0  0  0
    3.8262    1.8490   19.1993 H   0  0  0  0  0  0  0  0  0  0  0  0
  1  2  1  0
  2  3  2  0
  3  4  1  0
  4  5  1  0
  4  6  2  0
  6  7  1  0
  7  8  1  0
  8  9  2  0
  9 10  1  0
 10 11  1  0
 11 12  1  0
 11 13  1  0
 11 14  1  0
 14 15  1  0
 14 16  1  0
 14 17  1  0
  9 18  1  0
 18 19  2  0
 18 20  1  0
 20 21  1  0
 20 22  1  0
 22 23  1  0
  6 24  1  0
 24 25  1  0
 24 26  2  0
 26 27  1  0
 26  2  1  0
 22  7  2  0
M  END
>  <cnnaffinity>  (1) 
-4.64244

>  <filename>  (1) 
O=c1[nH]cc(-c2cccnc2)nc1OCC(F)(F)F

$$$$
