
     RDKit          3D

 37 39  0  0  0  0  0  0  0  0999 V2000
    4.9643    1.8029   16.9834 H   0  0  0  0  0  0  0  0  0  0  0  0
    5.4184    1.2852   17.8232 C   0  0  0  0  0  0  0  0  0  0  0  0
    6.5685    0.6434   17.5649 N   0  0  0  0  0  0  0  0  0  0  0  0
    7.1758    0.0289   18.5853 C   0  0  0  0  0  0  0  0  0  0  0  0
    8.1170   -0.4751   18.3569 H   0  0  0  0  0  0  0  0  0  0  0  0
    6.6665    0.0129   19.8980 C   0  0  0  0  0  0  0  0  0  0  0  0
    7.3682   -0.7034   20.9934 C   0  0  0  0  0  0  0  0  0  0  0  0
    9.0998   -0.4303   21.0872 S   0  0  0  0  0  0  0  0  0  0  0  0
    9.5905   -1.5461   22.3339 C   0  0  0  0  0  0  0  0  0  0  0  0
   11.0923   -1.5820   22.5378 C   0  0  0  0  0  0  0  0  0  0  0  0
   11.3251   -2.4291   23.2173 H   0  0  0  0  0  0  0  0  0  0  0  0
   11.5647   -1.8104   21.5748 H   0  0  0  0  0  0  0  0  0  0  0  0
   11.5565   -0.2850   23.0184 N   0  0  0  0  0  0  0  0  0  0  0  0
   11.0999    0.0299   24.3795 C   0  0  0  0  0  0  0  0  0  0  0  0
   10.0058   -0.0201   24.3962 H   0  0  0  0  0  0  0  0  0  0  0  0
   11.4744   -0.6902   25.1355 H   0  0  0  0  0  0  0  0  0  0  0  0
   11.5476    1.4372   24.7952 C   0  0  0  0  0  0  0  0  0  0  0  0
   11.0861    2.1741   24.1260 H   0  0  0  0  0  0  0  0  0  0  0  0
   11.1901    1.6475   25.8057 H   0  0  0  0  0  0  0  0  0  0  0  0
   12.9950    1.6493   24.7154 N   0  0  0  0  0  0  0  0  0  0  0  0
   13.4859    1.0683   25.3951 H   0  0  0  0  0  0  0  0  0  0  0  0
   13.4479    1.3452   23.3574 C   0  0  0  0  0  0  0  0  0  0  0  0
   14.5408    1.3802   23.3084 H   0  0  0  0  0  0  0  0  0  0  0  0
   13.0872    2.1665   22.7256 H   0  0  0  0  0  0  0  0  0  0  0  0
   12.9816   -0.0251   22.8047 C   0  0  0  0  0  0  0  0  0  0  0  0
   13.6487   -0.7967   23.2292 H   0  0  0  0  0  0  0  0  0  0  0  0
   13.1515   -0.0398   21.7274 H   0  0  0  0  0  0  0  0  0  0  0  0
    8.7310   -2.2162   23.1236 C   0  0  0  0  0  0  0  0  0  0  0  0
    9.0900   -2.7758   23.9857 H   0  0  0  0  0  0  0  0  0  0  0  0
    7.2659   -2.2303   22.9727 C   0  0  0  0  0  0  0  0  0  0  0  0
    6.5677   -2.8561   23.7561 O   0  0  0  0  0  0  0  0  0  0  0  0
    6.6810   -1.4820   21.8571 C   0  0  0  0  0  0  0  0  0  0  0  0
    5.6074   -1.6065   21.7506 H   0  0  0  0  0  0  0  0  0  0  0  0
    5.4479    0.6692   20.1410 C   0  0  0  0  0  0  0  0  0  0  0  0
    5.0237    0.6979   21.1458 H   0  0  0  0  0  0  0  0  0  0  0  0
    4.8147    1.3188   19.0827 C   0  0  0  0  0  0  0  0  0  0  0  0
    3.8758    1.8413   19.2257 H   0  0  0  0  0  0  0  0  0  0  0  0
  1  2  1  0
  2  3  2  0
  3  4  1  0
  4  5  1  0
  4  6  2  0
  6  7  1  0
  7  8  1  0
  8  9  1  0
  9 10  1  0
 10 11  1  0
 10 12  1  0
 10 13  1  0
 13 14  1  0
 14 15  1  0
 14 16  1  0
 14 17  1  0
 17 18  1  0
 17 19  1  0
 17 20  1  0
 20 21  1  0
 20 22  1  0
 22 23  1  0
 22 24  1  0
 22 25  1  0
 25 26  1  0
 25 27  1  0
  9 28  2  0
 28 29  1  0
 28 30  1  0
 30 31  2  0
 30 32  1  0
 32 33  1  0
  6 34  1  0
 34 35  1  0
 34 36  2  0
 36 37  1  0
 36  2  1  0
 32  7  2  0
 25 13  1  0
M  END
>  <cnnaffinity>  (1) 
-4.97535

>  <filename>  (1) 
O=c1cc(CN2CCNCC2)sc(-c2cccnc2)c1

$$$$
