
     RDKit          3D

 33 35  0  0  0  0  0  0  0  0999 V2000
    4.9104    1.7748   17.0023 H   0  0  0  0  0  0  0  0  0  0  0  0
    5.4015    1.2930   17.8443 C   0  0  0  0  0  0  0  0  0  0  0  0
    6.5660    0.6757   17.5840 N   0  0  0  0  0  0  0  0  0  0  0  0
    7.1769    0.0544   18.5995 C   0  0  0  0  0  0  0  0  0  0  0  0
    8.1265   -0.4295   18.3829 H   0  0  0  0  0  0  0  0  0  0  0  0
    6.6454   -0.0082   19.9018 C   0  0  0  0  0  0  0  0  0  0  0  0
    7.3291   -0.7144   20.9474 N   0  0  0  0  0  0  0  0  0  0  0  0
    6.5721   -1.6143   21.6545 N   0  0  0  0  0  0  0  0  0  0  0  0
    7.1394   -2.2915   22.6284 C   0  0  0  0  0  0  0  0  0  0  0  0
    6.2963   -3.2743   23.3770 C   0  0  0  0  0  0  0  0  0  0  0  0
    5.2068   -3.8791   22.7276 C   0  0  0  0  0  0  0  0  0  0  0  0
    5.0003   -3.6244   21.6929 H   0  0  0  0  0  0  0  0  0  0  0  0
    4.3935   -4.7818   23.4083 C   0  0  0  0  0  0  0  0  0  0  0  0
    3.5452   -5.2264   22.9012 H   0  0  0  0  0  0  0  0  0  0  0  0
    4.6546   -5.1095   24.7382 C   0  0  0  0  0  0  0  0  0  0  0  0
    3.9999   -5.8057   25.2568 H   0  0  0  0  0  0  0  0  0  0  0  0
    5.7530   -4.5328   25.3895 C   0  0  0  0  0  0  0  0  0  0  0  0
    6.0091   -4.8428   26.8470 C   0  0  0  0  0  0  0  0  0  0  0  0
    5.5718   -6.0650   27.1998 F   0  0  0  0  0  0  0  0  0  0  0  0
    5.3801   -3.9601   27.6462 F   0  0  0  0  0  0  0  0  0  0  0  0
    7.3151   -4.7883   27.1631 F   0  0  0  0  0  0  0  0  0  0  0  0
    6.5619   -3.6049   24.7196 C   0  0  0  0  0  0  0  0  0  0  0  0
    7.3755   -3.1224   25.2611 H   0  0  0  0  0  0  0  0  0  0  0  0
    8.5340   -2.1167   22.9622 C   0  0  0  0  0  0  0  0  0  0  0  0
    8.9918   -2.7162   23.7457 H   0  0  0  0  0  0  0  0  0  0  0  0
    9.2784   -1.2116   22.2735 C   0  0  0  0  0  0  0  0  0  0  0  0
   10.3210   -1.0123   22.4718 H   0  0  0  0  0  0  0  0  0  0  0  0
    8.7134   -0.4053   21.2045 C   0  0  0  0  0  0  0  0  0  0  0  0
    9.3282    0.4358   20.5697 O   0  0  0  0  0  0  0  0  0  0  0  0
    5.4384    0.6453   20.1640 C   0  0  0  0  0  0  0  0  0  0  0  0
    5.0170    0.6116   21.1685 H   0  0  0  0  0  0  0  0  0  0  0  0
    4.8075    1.3157   19.1128 C   0  0  0  0  0  0  0  0  0  0  0  0
    3.8724    1.8461   19.2662 H   0  0  0  0  0  0  0  0  0  0  0  0
  1  2  1  0
  2  3  2  0
  3  4  1  0
  4  5  1  0
  4  6  2  0
  6  7  1  0
  7  8  1  0
  8  9  2  0
  9 10  1  0
 10 11  2  0
 11 12  1  0
 11 13  1  0
 13 14  1  0
 13 15  2  0
 15 16  1  0
 15 17  1  0
 17 18  1  0
 18 19  1  0
 18 20  1  0
 18 21  1  0
 17 22  2  0
 22 23  1  0
  9 24  1  0
 24 25  1  0
 24 26  2  0
 26 27  1  0
 26 28  1  0
 28 29  2  0
  6 30  1  0
 30 31  1  0
 30 32  2  0
 32 33  1  0
 32  2  1  0
 28  7  1  0
 22 10  1  0
M  END
>  <cnnaffinity>  (1) 
-5.50232

>  <filename>  (1) 
O=c1ccc(-c2cccc(C(F)(F)F)c2)nn1-c1cccnc1

$$$$
