
     RDKit          3D

 30 32  0  0  0  0  0  0  0  0999 V2000
    4.9478    1.7971   16.9943 H   0  0  0  0  0  0  0  0  0  0  0  0
    5.4180    1.3142   17.8528 C   0  0  0  0  0  0  0  0  0  0  0  0
    6.5969    0.7086   17.6302 N   0  0  0  0  0  0  0  0  0  0  0  0
    7.1832    0.0615   18.6467 C   0  0  0  0  0  0  0  0  0  0  0  0
    8.1475   -0.4056   18.4413 H   0  0  0  0  0  0  0  0  0  0  0  0
    6.6190   -0.0133   19.9417 C   0  0  0  0  0  0  0  0  0  0  0  0
    7.2291   -0.7073   21.0441 N   0  0  0  0  0  0  0  0  0  0  0  0
    7.7399   -0.2142   22.2492 C   0  0  0  0  0  0  0  0  0  0  0  0
    7.4699    1.1326   22.7697 C   0  0  0  0  0  0  0  0  0  0  0  0
    7.0219    1.2679   24.0975 C   0  0  0  0  0  0  0  0  0  0  0  0
    6.8601    0.3929   24.7251 H   0  0  0  0  0  0  0  0  0  0  0  0
    6.7566    2.4442   24.6634 N   0  0  0  0  0  0  0  0  0  0  0  0
    6.9332    3.5663   23.9404 C   0  0  0  0  0  0  0  0  0  0  0  0
    6.6828    4.9492   24.5844 C   0  0  0  0  0  0  0  0  0  0  0  0
    5.7880    5.6616   23.8652 F   0  0  0  0  0  0  0  0  0  0  0  0
    7.8191    5.6816   24.5913 F   0  0  0  0  0  0  0  0  0  0  0  0
    6.2338    4.9029   25.8401 F   0  0  0  0  0  0  0  0  0  0  0  0
    7.3637    3.5282   22.6018 C   0  0  0  0  0  0  0  0  0  0  0  0
    7.4843    4.4493   22.0452 H   0  0  0  0  0  0  0  0  0  0  0  0
    7.6279    2.3007   22.0086 C   0  0  0  0  0  0  0  0  0  0  0  0
    7.9362    2.2423   20.9629 H   0  0  0  0  0  0  0  0  0  0  0  0
    8.3614   -1.1336   22.9237 N   0  0  0  0  0  0  0  0  0  0  0  0
    8.2244   -2.2691   22.1510 N   0  0  0  0  0  0  0  0  0  0  0  0
    8.3560   -3.1904   22.5355 H   0  0  0  0  0  0  0  0  0  0  0  0
    7.3384   -2.1093   21.1247 C   0  0  0  0  0  0  0  0  0  0  0  0
    6.7722   -2.9653   20.4834 O   0  0  0  0  0  0  0  0  0  0  0  0
    5.4137    0.6466   20.1633 C   0  0  0  0  0  0  0  0  0  0  0  0
    5.0285    0.6630   21.1803 H   0  0  0  0  0  0  0  0  0  0  0  0
    4.7965    1.3152   19.1039 C   0  0  0  0  0  0  0  0  0  0  0  0
    3.8513    1.8262   19.2369 H   0  0  0  0  0  0  0  0  0  0  0  0
  1  2  1  0
  2  3  2  0
  3  4  1  0
  4  5  1  0
  4  6  2  0
  6  7  1  0
  7  8  1  0
  8  9  1  0
  9 10  2  0
 10 11  1  0
 10 12  1  0
 12 13  2  0
 13 14  1  0
 14 15  1  0
 14 16  1  0
 14 17  1  0
 13 18  1  0
 18 19  1  0
 18 20  2  0
 20 21  1  0
  8 22  2  0
 22 23  1  0
 23 24  1  0
 23 25  1  0
 25 26  2  0
  6 27  1  0
 27 28  1  0
 27 29  2  0
 29 30  1  0
 29  2  1  0
 25  7  1  0
 20  9  1  0
M  END
>  <cnnaffinity>  (1) 
-5.15298

>  <filename>  (1) 
O=c1[nH]nc(-c2ccc(C(F)(F)F)nc2)n1-c1cccnc1

$$$$
