
     RDKit          3D

 31 33  0  0  0  0  0  0  0  0999 V2000
    4.9353    1.8869   16.8226 H   0  0  0  0  0  0  0  0  0  0  0  0
    5.3770    1.3881   17.6832 C   0  0  0  0  0  0  0  0  0  0  0  0
    6.5428    0.7554   17.4761 N   0  0  0  0  0  0  0  0  0  0  0  0
    7.1053    0.1337   18.5156 C   0  0  0  0  0  0  0  0  0  0  0  0
    8.0535   -0.3648   18.3156 H   0  0  0  0  0  0  0  0  0  0  0  0
    6.5513    0.1171   19.7998 C   0  0  0  0  0  0  0  0  0  0  0  0
    7.2414   -0.6234   20.8752 C   0  0  0  0  0  0  0  0  0  0  0  0
    7.7832   -1.7669   20.5641 N   0  0  0  0  0  0  0  0  0  0  0  0
    8.3517   -2.4996   21.5713 C   0  0  0  0  0  0  0  0  0  0  0  0
    8.6804   -3.6614   21.4918 O   0  0  0  0  0  0  0  0  0  0  0  0
    8.5799   -1.8671   22.7939 N   0  0  0  0  0  0  0  0  0  0  0  0
    8.8839   -2.5366   23.4755 H   0  0  0  0  0  0  0  0  0  0  0  0
    7.8889   -0.7744   23.1547 C   0  0  0  0  0  0  0  0  0  0  0  0
    7.9331   -0.5446   24.4592 O   0  0  0  0  0  0  0  0  0  0  0  0
    7.1467    0.5426   24.9799 C   0  0  0  0  0  0  0  0  0  0  0  0
    7.5536    1.4886   24.5870 H   0  0  0  0  0  0  0  0  0  0  0  0
    6.1064    0.4383   24.6433 H   0  0  0  0  0  0  0  0  0  0  0  0
    7.2474    0.4978   26.4856 C   0  0  0  0  0  0  0  0  0  0  0  0
    6.6647   -0.2895   26.9620 H   0  0  0  0  0  0  0  0  0  0  0  0
    8.5867    0.7984   27.0882 C   0  0  0  0  0  0  0  0  0  0  0  0
    8.9282    0.2074   27.9359 H   0  0  0  0  0  0  0  0  0  0  0  0
    9.3757    1.0687   26.3905 H   0  0  0  0  0  0  0  0  0  0  0  0
    7.4510    1.7632   27.2766 C   0  0  0  0  0  0  0  0  0  0  0  0
    7.0125    1.8089   28.2703 H   0  0  0  0  0  0  0  0  0  0  0  0
    7.4769    2.7109   26.7370 H   0  0  0  0  0  0  0  0  0  0  0  0
    7.2433   -0.0672   22.1807 C   0  0  0  0  0  0  0  0  0  0  0  0
    6.7678    0.8763   22.3882 H   0  0  0  0  0  0  0  0  0  0  0  0
    5.3398    0.7977   20.0087 C   0  0  0  0  0  0  0  0  0  0  0  0
    4.8928    0.8309   21.0025 H   0  0  0  0  0  0  0  0  0  0  0  0
    4.7343    1.4250   18.9250 C   0  0  0  0  0  0  0  0  0  0  0  0
    3.8018    1.9677   19.0412 H   0  0  0  0  0  0  0  0  0  0  0  0
  1  2  1  0
  2  3  2  0
  3  4  1  0
  4  5  1  0
  4  6  2  0
  6  7  1  0
  7  8  2  0
  8  9  1  0
  9 10  2  0
  9 11  1  0
 11 12  1  0
 11 13  1  0
 13 14  1  0
 14 15  1  0
 15 16  1  0
 15 17  1  0
 15 18  1  0
 18 19  1  0
 18 20  1  0
 20 21  1  0
 20 22  1  0
 20 23  1  0
 23 24  1  0
 23 25  1  0
 13 26  2  0
 26 27  1  0
  6 28  1  0
 28 29  1  0
 28 30  2  0
 30 31  1  0
 30  2  1  0
 26  7  1  0
 23 18  1  0
M  END
>  <cnnaffinity>  (1) 
-4.91875

>  <filename>  (1) 
O=c1nc(-c2cccnc2)cc(OCC2CC2)[nH]1

$$$$
