
     RDKit          3D

 33 35  0  0  0  0  0  0  0  0999 V2000
    4.9222    1.7920   16.9941 H   0  0  0  0  0  0  0  0  0  0  0  0
    5.3942    1.2915   17.8362 C   0  0  0  0  0  0  0  0  0  0  0  0
    6.5512    0.6662   17.5702 N   0  0  0  0  0  0  0  0  0  0  0  0
    7.1715    0.0528   18.5824 C   0  0  0  0  0  0  0  0  0  0  0  0
    8.1271   -0.4180   18.3640 H   0  0  0  0  0  0  0  0  0  0  0  0
    6.6641    0.0061   19.8982 C   0  0  0  0  0  0  0  0  0  0  0  0
    7.3565   -0.6712   20.9397 N   0  0  0  0  0  0  0  0  0  0  0  0
    6.7626   -1.4415   21.9322 C   0  0  0  0  0  0  0  0  0  0  0  0
    5.6976   -1.6078   21.9603 H   0  0  0  0  0  0  0  0  0  0  0  0
    7.7244   -1.9367   22.7439 C   0  0  0  0  0  0  0  0  0  0  0  0
    7.6007   -2.7839   23.9360 C   0  0  0  0  0  0  0  0  0  0  0  0
    8.6662   -3.5593   24.4196 C   0  0  0  0  0  0  0  0  0  0  0  0
    9.6257   -3.5403   23.9100 H   0  0  0  0  0  0  0  0  0  0  0  0
    8.4908   -4.3699   25.5453 C   0  0  0  0  0  0  0  0  0  0  0  0
    9.3263   -4.9624   25.9137 H   0  0  0  0  0  0  0  0  0  0  0  0
    7.2526   -4.4201   26.1976 C   0  0  0  0  0  0  0  0  0  0  0  0
    7.0868   -5.0407   27.0732 H   0  0  0  0  0  0  0  0  0  0  0  0
    6.1963   -3.6479   25.7063 C   0  0  0  0  0  0  0  0  0  0  0  0
    5.0034   -3.7655   26.4139 O   0  0  0  0  0  0  0  0  0  0  0  0
    3.8860   -3.0904   26.0725 C   0  0  0  0  0  0  0  0  0  0  0  0
    2.9566   -3.4434   26.9511 F   0  0  0  0  0  0  0  0  0  0  0  0
    4.0340   -1.7557   26.1141 F   0  0  0  0  0  0  0  0  0  0  0  0
    3.4453   -3.3795   24.8353 F   0  0  0  0  0  0  0  0  0  0  0  0
    6.3550   -2.8330   24.5912 C   0  0  0  0  0  0  0  0  0  0  0  0
    5.5255   -2.2327   24.2418 H   0  0  0  0  0  0  0  0  0  0  0  0
    8.9308   -1.4786   22.2237 N   0  0  0  0  0  0  0  0  0  0  0  0
    9.8686   -1.5607   22.5629 H   0  0  0  0  0  0  0  0  0  0  0  0
    8.7487   -0.6771   21.1317 C   0  0  0  0  0  0  0  0  0  0  0  0
    9.6318   -0.1264   20.5085 O   0  0  0  0  0  0  0  0  0  0  0  0
    5.4469    0.6441   20.1606 C   0  0  0  0  0  0  0  0  0  0  0  0
    5.0311    0.6361   21.1702 H   0  0  0  0  0  0  0  0  0  0  0  0
    4.8117    1.3066   19.1074 C   0  0  0  0  0  0  0  0  0  0  0  0
    3.8820    1.8373   19.2601 H   0  0  0  0  0  0  0  0  0  0  0  0
  1  2  1  0
  2  3  2  0
  3  4  1  0
  4  5  1  0
  4  6  2  0
  6  7  1  0
  7  8  1  0
  8  9  1  0
  8 10  2  0
 10 11  1  0
 11 12  2  0
 12 13  1  0
 12 14  1  0
 14 15  1  0
 14 16  2  0
 16 17  1  0
 16 18  1  0
 18 19  1  0
 19 20  1  0
 20 21  1  0
 20 22  1  0
 20 23  1  0
 18 24  2  0
 24 25  1  0
 10 26  1  0
 26 27  1  0
 26 28  1  0
 28 29  2  0
  6 30  1  0
 30 31  1  0
 30 32  2  0
 32 33  1  0
 32  2  1  0
 28  7  1  0
 24 11  1  0
M  END
>  <cnnaffinity>  (1) 
-5.54843

>  <filename>  (1) 
O=c1[nH]c(-c2cccc(OC(F)(F)F)c2)cn1-c1cccnc1

$$$$
