
     RDKit          3D

 34 36  0  0  0  0  0  0  0  0999 V2000
    4.9514    1.8297   17.0407 H   0  0  0  0  0  0  0  0  0  0  0  0
    5.4573    1.3030   17.8483 C   0  0  0  0  0  0  0  0  0  0  0  0
    6.6225    0.7118   17.5387 N   0  0  0  0  0  0  0  0  0  0  0  0
    7.2540    0.0466   18.5148 C   0  0  0  0  0  0  0  0  0  0  0  0
    8.1983   -0.4235   18.2527 H   0  0  0  0  0  0  0  0  0  0  0  0
    6.7585   -0.0908   19.8325 C   0  0  0  0  0  0  0  0  0  0  0  0
    7.4776   -0.7986   20.8369 N   0  0  0  0  0  0  0  0  0  0  0  0
    6.8739   -1.6662   21.7311 C   0  0  0  0  0  0  0  0  0  0  0  0
    5.8135   -2.2276   21.6420 O   0  0  0  0  0  0  0  0  0  0  0  0
    7.7575   -1.8947   22.7674 N   0  0  0  0  0  0  0  0  0  0  0  0
    7.5760   -2.6883   23.3524 H   0  0  0  0  0  0  0  0  0  0  0  0
    9.0348   -1.5876   22.3878 C   0  0  0  0  0  0  0  0  0  0  0  0
   10.0189   -2.0581   22.8911 O   0  0  0  0  0  0  0  0  0  0  0  0
    8.9002   -0.6477   21.1404 C   0  0  2  0  0  0  0  0  0  0  0  0
    9.5461   -1.0966   20.3748 H   0  0  0  0  0  0  0  0  0  0  0  0
    9.3088    0.7399   21.2810 N   0  0  0  0  0  0  0  0  0  0  0  0
    9.1755    1.2059   20.3896 H   0  0  0  0  0  0  0  0  0  0  0  0
    8.6693    1.5141   22.3528 C   0  0  0  0  0  0  0  0  0  0  0  0
    7.6345    1.7787   22.0806 H   0  0  0  0  0  0  0  0  0  0  0  0
    8.6264    0.8737   23.2436 H   0  0  0  0  0  0  0  0  0  0  0  0
    9.4241    2.7848   22.7356 C   0  0  0  0  0  0  0  0  0  0  0  0
    8.9409    4.0680   22.4225 C   0  0  0  0  0  0  0  0  0  0  0  0
    8.0084    4.2098   21.8859 H   0  0  0  0  0  0  0  0  0  0  0  0
    9.6760    5.1988   22.7964 C   0  0  0  0  0  0  0  0  0  0  0  0
    9.3051    6.1945   22.5539 H   0  0  0  0  0  0  0  0  0  0  0  0
   10.8227    5.1439   23.4868 N   0  0  0  0  0  0  0  0  0  0  0  0
   11.2669    3.9252   23.8199 C   0  0  0  0  0  0  0  0  0  0  0  0
   12.1728    3.8972   24.4222 H   0  0  0  0  0  0  0  0  0  0  0  0
   10.6104    2.7344   23.4892 C   0  0  0  0  0  0  0  0  0  0  0  0
   11.0114    1.7973   23.8671 H   0  0  0  0  0  0  0  0  0  0  0  0
    5.5398    0.5337   20.1380 C   0  0  0  0  0  0  0  0  0  0  0  0
    5.1240    0.4585   21.1455 H   0  0  0  0  0  0  0  0  0  0  0  0
    4.8852    1.2482   19.1266 C   0  0  0  0  0  0  0  0  0  0  0  0
    3.9470    1.7622   19.3160 H   0  0  0  0  0  0  0  0  0  0  0  0
  1  2  1  0
  2  3  2  0
  3  4  1  0
  4  5  1  0
  4  6  2  0
  6  7  1  0
  7  8  1  0
  8  9  2  0
  8 10  1  0
 10 11  1  0
 10 12  1  0
 12 13  2  0
 12 14  1  0
 14 15  1  6
 14 16  1  0
 16 17  1  0
 16 18  1  0
 18 19  1  0
 18 20  1  0
 18 21  1  0
 21 22  2  0
 22 23  1  0
 22 24  1  0
 24 25  1  0
 24 26  2  0
 26 27  1  0
 27 28  1  0
 27 29  2  0
 29 30  1  0
  6 31  1  0
 31 32  1  0
 31 33  2  0
 33 34  1  0
 33  2  1  0
 14  7  1  0
 29 21  1  0
M  END
>  <cnnaffinity>  (1) 
-4.81982

>  <filename>  (1) 
O=C1NC(=O)N(c2cccnc2)[C@H]1NCc1ccncc1

$$$$
