
     RDKit          3D

 31 33  0  0  0  0  0  0  0  0999 V2000
    4.9773    1.7651   16.9519 H   0  0  0  0  0  0  0  0  0  0  0  0
    5.4557    1.2796   17.7978 C   0  0  0  0  0  0  0  0  0  0  0  0
    6.6218    0.6701   17.5364 N   0  0  0  0  0  0  0  0  0  0  0  0
    7.2384    0.0759   18.5610 C   0  0  0  0  0  0  0  0  0  0  0  0
    8.1911   -0.4049   18.3531 H   0  0  0  0  0  0  0  0  0  0  0  0
    6.7259    0.0454   19.8609 C   0  0  0  0  0  0  0  0  0  0  0  0
    7.4897   -0.6599   20.8996 C   0  0  0  0  0  0  0  0  0  0  0  0
    8.7908   -0.6658   20.7978 N   0  0  0  0  0  0  0  0  0  0  0  0
    9.5113   -1.2697   21.7888 C   0  0  0  0  0  0  0  0  0  0  0  0
   10.7103   -1.4041   21.8099 O   0  0  0  0  0  0  0  0  0  0  0  0
    8.8104   -1.7879   22.8887 N   0  0  0  0  0  0  0  0  0  0  0  0
    9.4364   -2.2431   23.5247 H   0  0  0  0  0  0  0  0  0  0  0  0
    7.4660   -1.9245   22.9209 C   0  0  0  0  0  0  0  0  0  0  0  0
    6.7490   -2.8620   24.2308 S   0  0  0  0  0  0  0  0  0  0  0  0
    6.6561   -4.4513   23.3979 C   0  0  0  0  0  0  0  0  0  0  0  0
    5.5417   -4.7618   22.6040 C   0  0  0  0  0  0  0  0  0  0  0  0
    4.7654   -4.0141   22.4546 H   0  0  0  0  0  0  0  0  0  0  0  0
    5.4368   -6.0218   22.0016 C   0  0  0  0  0  0  0  0  0  0  0  0
    4.5615   -6.2803   21.4114 H   0  0  0  0  0  0  0  0  0  0  0  0
    6.4618   -6.9613   22.1612 C   0  0  0  0  0  0  0  0  0  0  0  0
    6.3555   -7.9616   21.7449 H   0  0  0  0  0  0  0  0  0  0  0  0
    7.6154   -6.6169   22.8743 C   0  0  0  0  0  0  0  0  0  0  0  0
    8.4319   -7.3284   22.9660 H   0  0  0  0  0  0  0  0  0  0  0  0
    7.7140   -5.3665   23.4964 C   0  0  0  0  0  0  0  0  0  0  0  0
    8.6107   -5.1108   24.0577 H   0  0  0  0  0  0  0  0  0  0  0  0
    6.7618   -1.3328   21.9177 C   0  0  0  0  0  0  0  0  0  0  0  0
    5.6895   -1.4045   21.8507 H   0  0  0  0  0  0  0  0  0  0  0  0
    5.5031    0.6812   20.1233 C   0  0  0  0  0  0  0  0  0  0  0  0
    5.0787    0.6997   21.1321 H   0  0  0  0  0  0  0  0  0  0  0  0
    4.8570    1.3106   19.0638 C   0  0  0  0  0  0  0  0  0  0  0  0
    3.9086    1.8214   19.2022 H   0  0  0  0  0  0  0  0  0  0  0  0
  1  2  1  0
  2  3  2  0
  3  4  1  0
  4  5  1  0
  4  6  2  0
  6  7  1  0
  7  8  2  0
  8  9  1  0
  9 10  2  0
  9 11  1  0
 11 12  1  0
 11 13  1  0
 13 14  1  0
 14 15  1  0
 15 16  2  0
 16 17  1  0
 16 18  1  0
 18 19  1  0
 18 20  2  0
 20 21  1  0
 20 22  1  0
 22 23  1  0
 22 24  2  0
 24 25  1  0
 13 26  2  0
 26 27  1  0
  6 28  1  0
 28 29  1  0
 28 30  2  0
 30 31  1  0
 30  2  1  0
 26  7  1  0
 24 15  1  0
M  END
>  <cnnaffinity>  (1) 
-5.42034

>  <filename>  (1) 
O=c1nc(-c2cccnc2)cc(Sc2ccccc2)[nH]1

$$$$
