
     RDKit          3D

 35 37  0  0  0  0  0  0  0  0999 V2000
    4.9144    1.7792   16.9441 H   0  0  0  0  0  0  0  0  0  0  0  0
    5.3711    1.3319   17.8238 C   0  0  0  0  0  0  0  0  0  0  0  0
    6.5487    0.7199   17.6262 N   0  0  0  0  0  0  0  0  0  0  0  0
    7.1263    0.1600   18.6898 C   0  0  0  0  0  0  0  0  0  0  0  0
    8.0832   -0.3262   18.5028 H   0  0  0  0  0  0  0  0  0  0  0  0
    6.5950    0.1881   19.9877 C   0  0  0  0  0  0  0  0  0  0  0  0
    7.3554   -0.4959   21.0393 C   0  0  0  0  0  0  0  0  0  0  0  0
    7.0668   -0.0696   22.3050 O   0  0  0  0  0  0  0  0  0  0  0  0
    7.7471   -0.6370   23.3399 C   0  0  0  0  0  0  0  0  0  0  0  0
    7.5509   -0.0023   24.5194 N   0  0  0  0  0  0  0  0  0  0  0  0
    8.4872   -0.2622   25.6088 C   0  0  0  0  0  0  0  0  0  0  0  0
    8.1726   -1.1456   26.1999 H   0  0  0  0  0  0  0  0  0  0  0  0
    9.4869   -0.4850   25.2137 H   0  0  0  0  0  0  0  0  0  0  0  0
    8.5967    0.9612   26.5008 C   0  0  0  0  0  0  0  0  0  0  0  0
    9.1404    1.7469   25.9565 H   0  0  0  0  0  0  0  0  0  0  0  0
    9.2045    0.6449   27.3444 H   0  0  0  0  0  0  0  0  0  0  0  0
    7.2288    1.4620   26.9712 C   0  0  0  0  0  0  0  0  0  0  0  0
    6.7951    0.7375   27.6800 H   0  0  0  0  0  0  0  0  0  0  0  0
    7.3431    2.4037   27.5191 H   0  0  0  0  0  0  0  0  0  0  0  0
    6.2860    1.6453   25.7736 C   0  0  0  0  0  0  0  0  0  0  0  0
    5.2863    1.9437   26.1046 H   0  0  0  0  0  0  0  0  0  0  0  0
    6.6668    2.4387   25.1139 H   0  0  0  0  0  0  0  0  0  0  0  0
    6.1978    0.3656   24.9435 C   0  0  0  0  0  0  0  0  0  0  0  0
    5.7528   -0.4611   25.5326 H   0  0  0  0  0  0  0  0  0  0  0  0
    5.5627    0.5139   24.0647 H   0  0  0  0  0  0  0  0  0  0  0  0
    8.4932   -1.7606   23.2261 C   0  0  0  0  0  0  0  0  0  0  0  0
    8.9175   -2.2379   24.0974 H   0  0  0  0  0  0  0  0  0  0  0  0
    8.6171   -2.3822   21.9442 C   0  0  0  0  0  0  0  0  0  0  0  0
    9.0110   -3.5277   21.7822 O   0  0  0  0  0  0  0  0  0  0  0  0
    8.1840   -1.5357   20.8326 C   0  0  0  0  0  0  0  0  0  0  0  0
    8.4809   -1.8529   19.8556 H   0  0  0  0  0  0  0  0  0  0  0  0
    5.3480    0.8131   20.1769 C   0  0  0  0  0  0  0  0  0  0  0  0
    4.8779    0.8375   21.1614 H   0  0  0  0  0  0  0  0  0  0  0  0
    4.7351    1.3912   19.0686 C   0  0  0  0  0  0  0  0  0  0  0  0
    3.7748    1.8851   19.1509 H   0  0  0  0  0  0  0  0  0  0  0  0
  1  2  1  0
  2  3  2  0
  3  4  1  0
  4  5  1  0
  4  6  2  0
  6  7  1  0
  7  8  1  0
  8  9  1  0
  9 10  1  0
 10 11  1  0
 11 12  1  0
 11 13  1  0
 11 14  1  0
 14 15  1  0
 14 16  1  0
 14 17  1  0
 17 18  1  0
 17 19  1  0
 17 20  1  0
 20 21  1  0
 20 22  1  0
 20 23  1  0
 23 24  1  0
 23 25  1  0
  9 26  2  0
 26 27  1  0
 26 28  1  0
 28 29  2  0
 28 30  1  0
 30 31  1  0
  6 32  1  0
 32 33  1  0
 32 34  2  0
 34 35  1  0
 34  2  1  0
 30  7  2  0
 23 10  1  0
M  END
>  <cnnaffinity>  (1) 
-5.04356

>  <filename>  (1) 
O=c1cc(-c2cccnc2)oc(N2CCCCC2)c1

$$$$
