
     RDKit          3D

 35 37  0  0  0  0  0  0  0  0999 V2000
   11.1929    0.5693   21.2630 H   0  0  0  0  0  0  0  0  0  0  0  0
   10.4522    1.3213   21.5292 C   0  0  0  0  0  0  0  0  0  0  0  0
    9.1683    0.9626   21.4900 C   0  0  0  0  0  0  0  0  0  0  0  0
    8.3525    1.6699   21.6654 H   0  0  0  0  0  0  0  0  0  0  0  0
    8.7629   -0.3339   21.1721 N   0  0  0  0  0  0  0  0  0  0  0  0
    9.5774   -1.4615   21.1920 C   0  0  0  0  0  0  0  0  0  0  0  0
   10.7881   -1.5475   21.2169 O   0  0  0  0  0  0  0  0  0  0  0  0
    8.7485   -2.5488   21.1806 N   0  0  0  0  0  0  0  0  0  0  0  0
    9.2061   -3.3515   20.7882 H   0  0  0  0  0  0  0  0  0  0  0  0
    7.3623   -2.2101   20.9434 C   0  0  0  0  0  0  0  0  0  0  0  0
    6.7134   -2.6795   21.6834 H   0  0  0  0  0  0  0  0  0  0  0  0
    7.0024   -2.5352   19.9633 H   0  0  0  0  0  0  0  0  0  0  0  0
    7.3461   -0.6691   21.0734 C   0  0  2  0  0  0  0  0  0  0  0  0
    6.8495   -0.3872   22.0147 H   0  0  0  0  0  0  0  0  0  0  0  0
    6.6324    0.0483   19.9386 C   0  0  0  0  0  0  0  0  0  0  0  0
    7.1685    0.0766   18.6395 C   0  0  0  0  0  0  0  0  0  0  0  0
    8.1176   -0.4085   18.4262 H   0  0  0  0  0  0  0  0  0  0  0  0
    6.5830    0.6788   17.5936 N   0  0  0  0  0  0  0  0  0  0  0  0
    5.4164    1.3036   17.8142 C   0  0  0  0  0  0  0  0  0  0  0  0
    4.9603    1.7942   16.9540 H   0  0  0  0  0  0  0  0  0  0  0  0
    4.7857    1.3327   19.0623 C   0  0  0  0  0  0  0  0  0  0  0  0
    3.8432    1.8612   19.1746 H   0  0  0  0  0  0  0  0  0  0  0  0
    5.4045    0.6967   20.1423 C   0  0  0  0  0  0  0  0  0  0  0  0
    4.9454    0.7194   21.1334 H   0  0  0  0  0  0  0  0  0  0  0  0
   10.9460    2.6687   21.8384 C   0  0  0  0  0  0  0  0  0  0  0  0
   12.0840    3.0880   21.1327 C   0  0  0  0  0  0  0  0  0  0  0  0
   12.4661    2.4158   20.3717 H   0  0  0  0  0  0  0  0  0  0  0  0
   12.6605    4.3317   21.3597 C   0  0  0  0  0  0  0  0  0  0  0  0
   13.5253    4.6223   20.7694 H   0  0  0  0  0  0  0  0  0  0  0  0
   12.1010    5.1762   22.3235 C   0  0  0  0  0  0  0  0  0  0  0  0
   12.5651    6.1293   22.5391 H   0  0  0  0  0  0  0  0  0  0  0  0
   10.9334    4.7955   22.9931 C   0  0  0  0  0  0  0  0  0  0  0  0
   10.4657    5.4799   23.6877 H   0  0  0  0  0  0  0  0  0  0  0  0
   10.3423    3.5531   22.7514 C   0  0  0  0  0  0  0  0  0  0  0  0
    9.4110    3.2810   23.2408 H   0  0  0  0  0  0  0  0  0  0  0  0
  1  2  1  0
  2  3  2  3
  3  4  1  0
  3  5  1  0
  5  6  1  0
  6  7  2  0
  6  8  1  0
  8  9  1  0
  8 10  1  0
 10 11  1  0
 10 12  1  0
 10 13  1  0
 13 14  1  1
 13 15  1  0
 15 16  2  0
 16 17  1  0
 16 18  1  0
 18 19  2  0
 19 20  1  0
 19 21  1  0
 21 22  1  0
 21 23  2  0
 23 24  1  0
  2 25  1  0
 25 26  2  0
 26 27  1  0
 26 28  1  0
 28 29  1  0
 28 30  2  0
 30 31  1  0
 30 32  1  0
 32 33  1  0
 32 34  2  0
 34 35  1  0
 13  5  1  0
 23 15  1  0
 34 25  1  0
M  END
>  <cnnaffinity>  (1) 
-5.348

>  <filename>  (1) 
O=C1NC[C@H](c2cccnc2)N1C=Cc1ccccc1

$$$$
