
     RDKit          3D

 34 36  0  0  0  0  0  0  0  0999 V2000
    4.7759    2.0473   16.6867 H   0  0  0  0  0  0  0  0  0  0  0  0
    5.2751    1.6459   17.5609 C   0  0  0  0  0  0  0  0  0  0  0  0
    6.4674    1.0805   17.3191 N   0  0  0  0  0  0  0  0  0  0  0  0
    7.1229    0.5959   18.3728 C   0  0  0  0  0  0  0  0  0  0  0  0
    8.0847    0.1433   18.1417 H   0  0  0  0  0  0  0  0  0  0  0  0
    6.6531    0.6423   19.6955 C   0  0  0  0  0  0  0  0  0  0  0  0
    7.4153   -0.0650   20.7276 C   0  0  0  0  0  0  0  0  0  0  0  0
    7.3464    0.4597   21.9877 O   0  0  0  0  0  0  0  0  0  0  0  0
    7.8892   -0.2101   23.0278 C   0  0  0  0  0  0  0  0  0  0  0  0
    7.6610    0.4549   24.1441 O   0  0  0  0  0  0  0  0  0  0  0  0
    7.9615   -0.1638   25.4161 C   0  0  0  0  0  0  0  0  0  0  0  0
    9.0284   -0.4385   25.4445 H   0  0  0  0  0  0  0  0  0  0  0  0
    7.0810   -1.3682   25.7868 C   0  0  0  0  0  0  0  0  0  0  0  0
    6.0543   -1.1149   25.4973 H   0  0  0  0  0  0  0  0  0  0  0  0
    7.3276   -2.3021   25.2659 H   0  0  0  0  0  0  0  0  0  0  0  0
    7.2119   -1.4647   27.3284 C   0  0  0  0  0  0  0  0  0  0  0  0
    7.9337   -2.2416   27.6074 H   0  0  0  0  0  0  0  0  0  0  0  0
    6.2511   -1.7358   27.7849 H   0  0  0  0  0  0  0  0  0  0  0  0
    7.7274   -0.0692   27.7992 C   0  0  0  0  0  0  0  0  0  0  0  0
    8.7773   -0.1497   28.1235 H   0  0  0  0  0  0  0  0  0  0  0  0
    7.1645    0.3382   28.6492 H   0  0  0  0  0  0  0  0  0  0  0  0
    7.6409    0.8144   26.5400 C   0  0  0  0  0  0  0  0  0  0  0  0
    8.2941    1.6947   26.5563 H   0  0  0  0  0  0  0  0  0  0  0  0
    6.6104    1.1713   26.3886 H   0  0  0  0  0  0  0  0  0  0  0  0
    8.5608   -1.3740   22.8771 C   0  0  0  0  0  0  0  0  0  0  0  0
    8.9904   -1.9133   23.7037 H   0  0  0  0  0  0  0  0  0  0  0  0
    8.6152   -2.0101   21.5788 C   0  0  0  0  0  0  0  0  0  0  0  0
    9.0721   -3.1283   21.3986 O   0  0  0  0  0  0  0  0  0  0  0  0
    8.0529   -1.2248   20.4920 C   0  0  0  0  0  0  0  0  0  0  0  0
    8.0669   -1.6285   19.5037 H   0  0  0  0  0  0  0  0  0  0  0  0
    5.4023    1.2373   19.9334 C   0  0  0  0  0  0  0  0  0  0  0  0
    5.0014    1.2814   20.9469 H   0  0  0  0  0  0  0  0  0  0  0  0
    4.6993    1.7313   18.8339 C   0  0  0  0  0  0  0  0  0  0  0  0
    3.7263    2.1970   18.9504 H   0  0  0  0  0  0  0  0  0  0  0  0
  1  2  1  0
  2  3  2  0
  3  4  1  0
  4  5  1  0
  4  6  2  0
  6  7  1  0
  7  8  1  0
  8  9  1  0
  9 10  1  0
 10 11  1  0
 11 12  1  0
 11 13  1  0
 13 14  1  0
 13 15  1  0
 13 16  1  0
 16 17  1  0
 16 18  1  0
 16 19  1  0
 19 20  1  0
 19 21  1  0
 19 22  1  0
 22 23  1  0
 22 24  1  0
  9 25  2  0
 25 26  1  0
 25 27  1  0
 27 28  2  0
 27 29  1  0
 29 30  1  0
  6 31  1  0
 31 32  1  0
 31 33  2  0
 33 34  1  0
 33  2  1  0
 29  7  2  0
 22 11  1  0
M  END
>  <cnnaffinity>  (1) 
-5.17661

>  <filename>  (1) 
O=c1cc(OC2CCCC2)oc(-c2cccnc2)c1

$$$$
