
     RDKit          3D

 38 40  0  0  0  0  0  0  0  0999 V2000
   10.2782   -0.3235   22.3662 H   0  0  0  0  0  0  0  0  0  0  0  0
    9.3678   -0.8297   22.0734 C   0  0  0  0  0  0  0  0  0  0  0  0
    8.7177   -1.5943   22.9516 C   0  0  0  0  0  0  0  0  0  0  0  0
    9.1515   -1.6609   24.4006 C   0  0  0  0  0  0  0  0  0  0  0  0
    8.5926   -2.4686   24.8992 H   0  0  0  0  0  0  0  0  0  0  0  0
   10.2147   -1.9390   24.4111 H   0  0  0  0  0  0  0  0  0  0  0  0
    9.0068   -0.3489   25.0811 N   0  0  0  0  0  0  0  0  0  0  0  0
    7.6143   -0.1010   25.5111 C   0  0  0  0  0  0  0  0  0  0  0  0
    6.9503   -0.2791   24.6591 H   0  0  0  0  0  0  0  0  0  0  0  0
    7.5074    0.9568   25.7857 H   0  0  0  0  0  0  0  0  0  0  0  0
    7.2017   -0.9839   26.7046 C   0  0  0  0  0  0  0  0  0  0  0  0
    6.2314   -0.6815   27.1107 H   0  0  0  0  0  0  0  0  0  0  0  0
    7.1122   -2.0269   26.3589 H   0  0  0  0  0  0  0  0  0  0  0  0
    8.1119   -0.8789   27.7868 O   0  0  0  0  0  0  0  0  0  0  0  0
    9.4807   -1.0519   27.4441 C   0  0  0  0  0  0  0  0  0  0  0  0
    9.7051   -2.1141   27.2515 H   0  0  0  0  0  0  0  0  0  0  0  0
   10.0455   -0.7422   28.3272 H   0  0  0  0  0  0  0  0  0  0  0  0
    9.8943   -0.1930   26.2378 C   0  0  0  0  0  0  0  0  0  0  0  0
    9.8832    0.8608   26.5382 H   0  0  0  0  0  0  0  0  0  0  0  0
   10.9189   -0.4256   25.9271 H   0  0  0  0  0  0  0  0  0  0  0  0
    7.5846   -2.2801   22.4888 N   0  0  0  0  0  0  0  0  0  0  0  0
    6.9498   -2.8156   23.0563 H   0  0  0  0  0  0  0  0  0  0  0  0
    6.7826   -1.8094   21.4566 C   0  0  0  0  0  0  0  0  0  0  0  0
    5.6564   -2.2556   21.3796 O   0  0  0  0  0  0  0  0  0  0  0  0
    7.3803   -0.8810   20.6090 N   0  0  0  0  0  0  0  0  0  0  0  0
    6.6365   -0.1277   19.6444 C   0  0  0  0  0  0  0  0  0  0  0  0
    7.1438    0.0729   18.3365 C   0  0  0  0  0  0  0  0  0  0  0  0
    8.0916   -0.3830   18.0566 H   0  0  0  0  0  0  0  0  0  0  0  0
    6.5369    0.7975   17.3928 N   0  0  0  0  0  0  0  0  0  0  0  0
    5.3832    1.3955   17.7267 C   0  0  0  0  0  0  0  0  0  0  0  0
    4.9102    1.9749   16.9395 H   0  0  0  0  0  0  0  0  0  0  0  0
    4.7997    1.2836   18.9931 C   0  0  0  0  0  0  0  0  0  0  0  0
    3.8727    1.8080   19.1981 H   0  0  0  0  0  0  0  0  0  0  0  0
    5.4261    0.4996   19.9724 C   0  0  0  0  0  0  0  0  0  0  0  0
    4.9992    0.3852   20.9678 H   0  0  0  0  0  0  0  0  0  0  0  0
    8.8287   -0.6029   20.6961 C   0  0  0  0  0  0  0  0  0  0  0  0
    8.9922    0.4493   20.4308 H   0  0  0  0  0  0  0  0  0  0  0  0
    9.3788   -1.2023   19.9516 H   0  0  0  0  0  0  0  0  0  0  0  0
  1  2  1  0
  2  3  2  0
  3  4  1  0
  4  5  1  0
  4  6  1  0
  4  7  1  0
  7  8  1  0
  8  9  1  0
  8 10  1  0
  8 11  1  0
 11 12  1  0
 11 13  1  0
 11 14  1  0
 14 15  1  0
 15 16  1  0
 15 17  1  0
 15 18  1  0
 18 19  1  0
 18 20  1  0
  3 21  1  0
 21 22  1  0
 21 23  1  0
 23 24  2  0
 23 25  1  0
 25 26  1  0
 26 27  2  0
 27 28  1  0
 27 29  1  0
 29 30  2  0
 30 31  1  0
 30 32  1  0
 32 33  1  0
 32 34  2  0
 34 35  1  0
 25 36  1  0
 36 37  1  0
 36 38  1  0
 36  2  1  0
 18  7  1  0
 34 26  1  0
M  END
>  <cnnaffinity>  (1) 
-4.86062

>  <filename>  (1) 
O=C1NC(CN2CCOCC2)=CCN1c1cccnc1

$$$$
