
     RDKit          3D

 37 39  0  0  0  0  0  0  0  0999 V2000
    4.9178    1.8173   16.9918 H   0  0  0  0  0  0  0  0  0  0  0  0
    5.3845    1.2970   17.8248 C   0  0  0  0  0  0  0  0  0  0  0  0
    6.5384    0.6663   17.5511 N   0  0  0  0  0  0  0  0  0  0  0  0
    7.1634    0.0462   18.5601 C   0  0  0  0  0  0  0  0  0  0  0  0
    8.1177   -0.4235   18.3304 H   0  0  0  0  0  0  0  0  0  0  0  0
    6.6572   -0.0075   19.8770 C   0  0  0  0  0  0  0  0  0  0  0  0
    7.3597   -0.6925   20.9487 N   0  0  0  0  0  0  0  0  0  0  0  0
    6.7238   -1.7436   21.6110 C   0  0  0  0  0  0  0  0  0  0  0  0
    5.7133   -1.9812   21.2876 H   0  0  0  0  0  0  0  0  0  0  0  0
    7.3210   -2.4585   22.5905 C   0  0  0  0  0  0  0  0  0  0  0  0
    6.6652   -3.5838   23.1893 N   0  0  0  0  0  0  0  0  0  0  0  0
    6.6072   -3.6511   24.1993 H   0  0  0  0  0  0  0  0  0  0  0  0
    5.9691   -4.5859   22.5858 C   0  0  0  0  0  0  0  0  0  0  0  0
    5.8596   -4.9027   20.9654 S   0  0  0  0  0  0  0  0  0  0  0  0
    5.2904   -5.3883   23.4697 N   0  0  0  0  0  0  0  0  0  0  0  0
    4.7308   -6.0348   22.9314 H   0  0  0  0  0  0  0  0  0  0  0  0
    5.6999   -5.8536   24.7525 C   0  0  0  0  0  0  0  0  0  0  0  0
    4.6998   -6.3452   25.5993 C   0  0  0  0  0  0  0  0  0  0  0  0
    3.6807   -6.3703   25.2290 H   0  0  0  0  0  0  0  0  0  0  0  0
    5.0182   -6.7990   26.8814 C   0  0  0  0  0  0  0  0  0  0  0  0
    4.2316   -7.1594   27.5406 H   0  0  0  0  0  0  0  0  0  0  0  0
    6.3481   -6.7983   27.3159 C   0  0  0  0  0  0  0  0  0  0  0  0
    6.5989   -7.1609   28.3108 H   0  0  0  0  0  0  0  0  0  0  0  0
    7.3589   -6.3726   26.4463 C   0  0  0  0  0  0  0  0  0  0  0  0
    8.3986   -6.4293   26.7640 H   0  0  0  0  0  0  0  0  0  0  0  0
    7.0427   -5.8937   25.1678 C   0  0  0  0  0  0  0  0  0  0  0  0
    7.8301   -5.6464   24.4631 H   0  0  0  0  0  0  0  0  0  0  0  0
    8.6949   -2.0659   23.0268 C   0  0  0  0  0  0  0  0  0  0  0  0
    9.3727   -2.5630   23.8992 O   0  0  0  0  0  0  0  0  0  0  0  0
    9.2266   -1.0141   22.3158 N   0  0  0  0  0  0  0  0  0  0  0  0
   10.1538   -0.7389   22.5699 H   0  0  0  0  0  0  0  0  0  0  0  0
    8.6703   -0.2916   21.3077 C   0  0  0  0  0  0  0  0  0  0  0  0
    9.2901    0.6016   20.7782 O   0  0  0  0  0  0  0  0  0  0  0  0
    5.4415    0.6352   20.1379 C   0  0  0  0  0  0  0  0  0  0  0  0
    5.0329    0.6141   21.1490 H   0  0  0  0  0  0  0  0  0  0  0  0
    4.7958    1.3117   19.0942 C   0  0  0  0  0  0  0  0  0  0  0  0
    3.8662    1.8535   19.2532 H   0  0  0  0  0  0  0  0  0  0  0  0
  1  2  1  0
  2  3  2  0
  3  4  1  0
  4  5  1  0
  4  6  2  0
  6  7  1  0
  7  8  1  0
  8  9  1  0
  8 10  2  0
 10 11  1  0
 11 12  1  0
 11 13  1  0
 13 14  2  0
 13 15  1  0
 15 16  1  0
 15 17  1  0
 17 18  2  0
 18 19  1  0
 18 20  1  0
 20 21  1  0
 20 22  2  0
 22 23  1  0
 22 24  1  0
 24 25  1  0
 24 26  2  0
 26 27  1  0
 10 28  1  0
 28 29  2  0
 28 30  1  0
 30 31  1  0
 30 32  1  0
 32 33  2  0
  6 34  1  0
 34 35  1  0
 34 36  2  0
 36 37  1  0
 36  2  1  0
 32  7  1  0
 26 17  1  0
M  END
>  <cnnaffinity>  (1) 
-5.74806

>  <filename>  (1) 
O=c1[nH]c(=O)n(-c2cccnc2)cc1NC(=S)Nc1ccccc1

$$$$
