
     RDKit          3D

 26 28  0  0  0  0  0  0  0  0999 V2000
    8.0649    0.1690   27.7003 H   0  0  0  0  0  0  0  0  0  0  0  0
    7.8032    0.2306   26.6506 C   0  0  0  0  0  0  0  0  0  0  0  0
    6.9831    1.1947   26.1402 N   0  0  0  0  0  0  0  0  0  0  0  0
    6.9518    0.8814   24.8697 C   0  0  0  0  0  0  0  0  0  0  0  0
    6.4515    1.3428   24.0311 H   0  0  0  0  0  0  0  0  0  0  0  0
    7.7043   -0.2098   24.6362 N   0  0  0  0  0  0  0  0  0  0  0  0
    7.8761   -0.7623   23.3706 N   0  0  0  0  0  0  0  0  0  0  0  0
    7.1979   -0.0992   22.3576 N   0  0  0  0  0  0  0  0  0  0  0  0
    7.3522   -0.5256   21.1214 C   0  0  0  0  0  0  0  0  0  0  0  0
    6.6095    0.1392   20.0066 C   0  0  0  0  0  0  0  0  0  0  0  0
    7.1470    0.1170   18.7035 C   0  0  0  0  0  0  0  0  0  0  0  0
    8.0961   -0.3754   18.4939 H   0  0  0  0  0  0  0  0  0  0  0  0
    6.5679    0.6712   17.6385 N   0  0  0  0  0  0  0  0  0  0  0  0
    5.3965    1.2921   17.8354 C   0  0  0  0  0  0  0  0  0  0  0  0
    4.9742    1.7728   16.9587 H   0  0  0  0  0  0  0  0  0  0  0  0
    4.7503    1.3469   19.0734 C   0  0  0  0  0  0  0  0  0  0  0  0
    3.8014    1.8643   19.1556 H   0  0  0  0  0  0  0  0  0  0  0  0
    5.3594    0.7608   20.1839 C   0  0  0  0  0  0  0  0  0  0  0  0
    4.8714    0.7663   21.1612 H   0  0  0  0  0  0  0  0  0  0  0  0
    8.1913   -1.6524   20.8529 C   0  0  0  0  0  0  0  0  0  0  0  0
    8.3225   -1.9082   19.8178 H   0  0  0  0  0  0  0  0  0  0  0  0
    8.7736   -2.3685   21.8516 C   0  0  0  0  0  0  0  0  0  0  0  0
    9.3458   -3.2814   21.7230 H   0  0  0  0  0  0  0  0  0  0  0  0
    8.6779   -1.9541   23.2384 C   0  0  0  0  0  0  0  0  0  0  0  0
    9.2178   -2.5494   24.1456 O   0  0  0  0  0  0  0  0  0  0  0  0
    8.2691   -0.6448   25.7831 N   0  0  0  0  0  0  0  0  0  0  0  0
  1  2  1  0
  2  3  1  0
  3  4  2  0
  4  5  1  0
  4  6  1  0
  6  7  1  0
  7  8  1  0
  8  9  2  0
  9 10  1  0
 10 11  2  0
 11 12  1  0
 11 13  1  0
 13 14  2  0
 14 15  1  0
 14 16  1  0
 16 17  1  0
 16 18  2  0
 18 19  1  0
  9 20  1  0
 20 21  1  0
 20 22  2  0
 22 23  1  0
 22 24  1  0
 24 25  2  0
  6 26  1  0
 26  2  2  0
 24  7  1  0
 18 10  1  0
M  END
>  <cnnaffinity>  (1) 
-4.56885

>  <filename>  (1) 
O=c1ccc(-c2cccnc2)nn1-n1cncn1

$$$$
