
     RDKit          3D

 33 36  0  0  0  0  0  0  0  0999 V2000
    4.9378    1.8002   16.9840 H   0  0  0  0  0  0  0  0  0  0  0  0
    5.3910    1.2948   17.8331 C   0  0  0  0  0  0  0  0  0  0  0  0
    6.5435    0.6618   17.5784 N   0  0  0  0  0  0  0  0  0  0  0  0
    7.1443    0.0448   18.5987 C   0  0  0  0  0  0  0  0  0  0  0  0
    8.1084   -0.4184   18.3899 H   0  0  0  0  0  0  0  0  0  0  0  0
    6.6251    0.0014   19.9008 C   0  0  0  0  0  0  0  0  0  0  0  0
    7.3406   -0.7265   20.9600 C   0  0  0  0  0  0  0  0  0  0  0  0
    6.6147   -1.5212   21.7166 N   0  0  0  0  0  0  0  0  0  0  0  0
    7.1977   -2.2091   22.7574 C   0  0  0  0  0  0  0  0  0  0  0  0
    6.3098   -3.0611   23.5800 C   0  0  0  0  0  0  0  0  0  0  0  0
    5.3614   -3.8862   23.0652 C   0  0  0  0  0  0  0  0  0  0  0  0
    5.1035   -3.9833   22.0192 H   0  0  0  0  0  0  0  0  0  0  0  0
    4.5448   -4.8415   24.2519 S   0  0  0  0  0  0  0  0  0  0  0  0
    5.4579   -4.1046   25.5324 C   0  0  0  0  0  0  0  0  0  0  0  0
    5.3368   -4.3608   26.9089 C   0  0  0  0  0  0  0  0  0  0  0  0
    4.6371   -5.0971   27.2963 H   0  0  0  0  0  0  0  0  0  0  0  0
    6.1308   -3.6404   27.7816 C   0  0  0  0  0  0  0  0  0  0  0  0
    6.0002   -3.8592   28.8361 H   0  0  0  0  0  0  0  0  0  0  0  0
    7.0405   -2.6692   27.2983 C   0  0  0  0  0  0  0  0  0  0  0  0
    7.6774   -2.0739   27.9408 H   0  0  0  0  0  0  0  0  0  0  0  0
    7.1546   -2.4214   25.9468 C   0  0  0  0  0  0  0  0  0  0  0  0
    7.8342   -1.6448   25.6170 H   0  0  0  0  0  0  0  0  0  0  0  0
    6.3711   -3.1541   25.0283 C   0  0  0  0  0  0  0  0  0  0  0  0
    8.5494   -2.1408   22.9989 C   0  0  0  0  0  0  0  0  0  0  0  0
    9.0333   -2.7012   23.7900 H   0  0  0  0  0  0  0  0  0  0  0  0
    9.3210   -1.3316   22.2044 N   0  0  0  0  0  0  0  0  0  0  0  0
   10.3149   -1.1610   22.2875 H   0  0  0  0  0  0  0  0  0  0  0  0
    8.8316   -0.5558   21.1654 C   0  0  0  0  0  0  0  0  0  0  0  0
    9.6406    0.1426   20.5744 O   0  0  0  0  0  0  0  0  0  0  0  0
    5.4005    0.6458   20.1474 C   0  0  0  0  0  0  0  0  0  0  0  0
    4.9577    0.6352   21.1463 H   0  0  0  0  0  0  0  0  0  0  0  0
    4.7851    1.3193   19.0949 C   0  0  0  0  0  0  0  0  0  0  0  0
    3.8594    1.8683   19.2320 H   0  0  0  0  0  0  0  0  0  0  0  0
  1  2  1  0
  2  3  2  0
  3  4  1  0
  4  5  1  0
  4  6  2  0
  6  7  1  0
  7  8  2  0
  8  9  1  0
  9 10  1  0
 10 11  2  0
 11 12  1  0
 11 13  1  0
 13 14  1  0
 14 15  2  0
 15 16  1  0
 15 17  1  0
 17 18  1  0
 17 19  2  0
 19 20  1  0
 19 21  1  0
 21 22  1  0
 21 23  2  0
  9 24  2  0
 24 25  1  0
 24 26  1  0
 26 27  1  0
 26 28  1  0
 28 29  2  0
  6 30  1  0
 30 31  1  0
 30 32  2  0
 32 33  1  0
 32  2  1  0
 28  7  1  0
 23 10  1  0
 23 14  1  0
M  END
>  <cnnaffinity>  (1) 
-5.64223

>  <filename>  (1) 
O=c1[nH]cc(-c2csc3ccccc23)nc1-c1cccnc1

$$$$
