
     RDKit          3D

 35 37  0  0  0  0  0  0  0  0999 V2000
    4.8541    1.6415   16.8790 H   0  0  0  0  0  0  0  0  0  0  0  0
    5.4524    1.4254   17.7605 C   0  0  0  0  0  0  0  0  0  0  0  0
    6.6883    0.9576   17.5242 N   0  0  0  0  0  0  0  0  0  0  0  0
    7.4231    0.6402   18.5969 C   0  0  0  0  0  0  0  0  0  0  0  0
    8.4332    0.2806   18.3959 H   0  0  0  0  0  0  0  0  0  0  0  0
    6.9808    0.7284   19.9228 C   0  0  0  0  0  0  0  0  0  0  0  0
    7.8026    0.0860   21.0159 C   0  0  2  0  0  0  0  0  0  0  0  0
    8.6669   -0.3939   20.5393 H   0  0  0  0  0  0  0  0  0  0  0  0
    7.0482   -0.9382   21.7610 N   0  0  0  0  0  0  0  0  0  0  0  0
    6.3610   -1.9559   21.0984 C   0  0  0  0  0  0  0  0  0  0  0  0
    6.2224   -1.9166   19.8930 O   0  0  0  0  0  0  0  0  0  0  0  0
    5.9533   -2.9868   21.8766 N   0  0  0  0  0  0  0  0  0  0  0  0
    5.9788   -2.7823   22.8659 H   0  0  0  0  0  0  0  0  0  0  0  0
    5.6213   -4.2527   21.4369 C   0  0  0  0  0  0  0  0  0  0  0  0
    5.8781   -4.6991   20.1348 C   0  0  0  0  0  0  0  0  0  0  0  0
    6.2129   -4.0128   19.3759 H   0  0  0  0  0  0  0  0  0  0  0  0
    5.6494   -6.0399   19.8603 C   0  0  0  0  0  0  0  0  0  0  0  0
    5.8948   -6.4459   18.8779 H   0  0  0  0  0  0  0  0  0  0  0  0
    5.1167   -6.8971   20.7372 N   0  0  0  0  0  0  0  0  0  0  0  0
    4.7957   -6.4246   21.9465 C   0  0  0  0  0  0  0  0  0  0  0  0
    4.2946   -7.1226   22.6152 H   0  0  0  0  0  0  0  0  0  0  0  0
    5.0546   -5.1268   22.3618 C   0  0  0  0  0  0  0  0  0  0  0  0
    4.8200   -4.7939   23.3679 H   0  0  0  0  0  0  0  0  0  0  0  0
    6.9513   -0.6912   23.0942 C   0  0  0  0  0  0  0  0  0  0  0  0
    6.4365   -1.4434   23.9085 O   0  0  0  0  0  0  0  0  0  0  0  0
    7.5719    0.6416   23.4024 C   0  0  0  0  0  0  0  0  0  0  0  0
    6.7655    1.3146   23.7127 H   0  0  0  0  0  0  0  0  0  0  0  0
    8.2432    0.5179   24.2526 H   0  0  0  0  0  0  0  0  0  0  0  0
    8.2840    1.0638   22.1102 C   0  0  0  0  0  0  0  0  0  0  0  0
    8.0897    2.1052   21.8363 H   0  0  0  0  0  0  0  0  0  0  0  0
    9.3661    0.9621   22.2190 H   0  0  0  0  0  0  0  0  0  0  0  0
    5.7320    1.3134   20.1518 C   0  0  0  0  0  0  0  0  0  0  0  0
    5.3822    1.5167   21.1668 H   0  0  0  0  0  0  0  0  0  0  0  0
    4.9370    1.6345   19.0451 C   0  0  0  0  0  0  0  0  0  0  0  0
    3.9328    2.0271   19.1654 H   0  0  0  0  0  0  0  0  0  0  0  0
  1  2  1  0
  2  3  2  0
  3  4  1  0
  4  5  1  0
  4  6  2  0
  6  7  1  0
  7  8  1  6
  7  9  1  0
  9 10  1  0
 10 11  2  0
 10 12  1  0
 12 13  1  0
 12 14  1  0
 14 15  2  0
 15 16  1  0
 15 17  1  0
 17 18  1  0
 17 19  2  0
 19 20  1  0
 20 21  1  0
 20 22  2  0
 22 23  1  0
  9 24  1  0
 24 25  2  0
 24 26  1  0
 26 27  1  0
 26 28  1  0
 26 29  1  0
 29 30  1  0
 29 31  1  0
  6 32  1  0
 32 33  1  0
 32 34  2  0
 34 35  1  0
 34  2  1  0
 29  7  1  0
 22 14  1  0
M  END
>  <cnnaffinity>  (1) 
-5.2563

>  <filename>  (1) 
O=C1CC[C@H](c2cccnc2)N1C(=O)Nc1ccncc1

$$$$
