
     RDKit          3D

 38 41  0  0  0  0  0  0  0  0999 V2000
    5.4938   -3.0405   22.7640 O   0  0  0  0  0  0  0  0  0  0  0  0
    6.3395   -2.7117   23.5691 C   0  0  0  0  0  0  0  0  0  0  0  0
    7.7074   -2.8499   23.4644 N   0  0  0  0  0  0  0  0  0  0  0  0
    8.4336   -3.1918   22.2475 C   0  0  0  0  0  0  0  0  0  0  0  0
    9.3244   -2.0558   21.7718 C   0  0  0  0  0  0  0  0  0  0  0  0
   10.7071   -2.0743   22.0084 C   0  0  0  0  0  0  0  0  0  0  0  0
   11.5110   -0.9460   21.7849 C   0  0  0  0  0  0  0  0  0  0  0  0
   10.9126    0.2258   21.3129 C   0  0  0  0  0  0  0  0  0  0  0  0
    9.5396    0.2627   21.0380 C   0  0  0  0  0  0  0  0  0  0  0  0
    8.7689   -0.8926   21.2092 C   0  0  0  0  0  0  0  0  0  0  0  0
    7.4191   -0.9247   20.9092 O   0  0  0  0  0  0  0  0  0  0  0  0
    6.8544   -0.1706   19.9014 C   0  0  0  0  0  0  0  0  0  0  0  0
    5.6545    0.4788   20.2070 C   0  0  0  0  0  0  0  0  0  0  0  0
    5.0133    1.1901   19.1891 C   0  0  0  0  0  0  0  0  0  0  0  0
    5.5837    1.2121   17.9090 C   0  0  0  0  0  0  0  0  0  0  0  0
    6.7285    0.5829   17.6028 N   0  0  0  0  0  0  0  0  0  0  0  0
    7.3520   -0.0867   18.5838 C   0  0  0  0  0  0  0  0  0  0  0  0
    8.2901   -0.5721   18.3221 H   0  0  0  0  0  0  0  0  0  0  0  0
    5.1005    1.7484   17.0969 H   0  0  0  0  0  0  0  0  0  0  0  0
    4.0859    1.7229   19.3718 H   0  0  0  0  0  0  0  0  0  0  0  0
    5.2623    0.4061   21.2231 H   0  0  0  0  0  0  0  0  0  0  0  0
    9.0400    1.1706   20.7022 H   0  0  0  0  0  0  0  0  0  0  0  0
   11.5075    1.1203   21.1326 H   0  0  0  0  0  0  0  0  0  0  0  0
   12.5794   -0.9789   22.0087 H   0  0  0  0  0  0  0  0  0  0  0  0
   11.1617   -2.9890   22.3829 H   0  0  0  0  0  0  0  0  0  0  0  0
    7.6915   -3.4550   21.4875 H   0  0  0  0  0  0  0  0  0  0  0  0
    9.0388   -4.0744   22.4776 H   0  0  0  0  0  0  0  0  0  0  0  0
    8.3692   -2.6110   24.6232 N   0  0  0  0  0  0  0  0  0  0  0  0
    7.4432   -2.2115   25.4535 C   0  0  0  0  0  0  0  0  0  0  0  0
    7.5766   -1.7840   26.8125 C   0  0  0  0  0  0  0  0  0  0  0  0
    6.4897   -1.2627   27.4543 C   0  0  0  0  0  0  0  0  0  0  0  0
    5.2210   -1.1492   26.7746 C   0  0  0  0  0  0  0  0  0  0  0  0
    5.0764   -1.6321   25.5072 C   0  0  0  0  0  0  0  0  0  0  0  0
    6.1810   -2.1893   24.8671 N   0  0  0  0  0  0  0  0  0  0  0  0
    4.1384   -1.6277   24.9614 H   0  0  0  0  0  0  0  0  0  0  0  0
    4.3897   -0.6639   27.2788 H   0  0  0  0  0  0  0  0  0  0  0  0
    6.5686   -0.9107   28.4795 H   0  0  0  0  0  0  0  0  0  0  0  0
    8.5577   -1.8736   27.2526 H   0  0  0  0  0  0  0  0  0  0  0  0
  1  2  2  0
  2  3  1  0
  3  4  1  0
  4  5  1  0
  5  6  2  0
  6  7  1  0
  7  8  2  0
  8  9  1  0
  9 10  2  0
 10 11  1  0
 11 12  1  0
 12 13  2  0
 13 14  1  0
 14 15  2  0
 15 16  1  0
 16 17  2  0
 17 18  1  0
 15 19  1  0
 14 20  1  0
 13 21  1  0
  9 22  1  0
  8 23  1  0
  7 24  1  0
  6 25  1  0
  4 26  1  0
  4 27  1  0
  3 28  1  0
 28 29  2  0
 29 30  1  0
 30 31  2  0
 31 32  1  0
 32 33  2  0
 33 34  1  0
 33 35  1  0
 32 36  1  0
 31 37  1  0
 30 38  1  0
 34  2  1  0
 10  5  1  0
 17 12  1  0
 34 29  1  0
M  END
>  <cnnaffinity>  (1) 
-5.65028

>  <filename>  (1) 
O=c1n(Cc2ccccc2Oc2cccnc2)nc2ccccn12

$$$$
