
     RDKit          3D

 30 32  0  0  0  0  0  0  0  0999 V2000
    4.9458    1.7907   17.0098 H   0  0  0  0  0  0  0  0  0  0  0  0
    5.4071    1.2793   17.8505 C   0  0  0  0  0  0  0  0  0  0  0  0
    6.5606    0.6469   17.5877 N   0  0  0  0  0  0  0  0  0  0  0  0
    7.1789    0.0270   18.6015 C   0  0  0  0  0  0  0  0  0  0  0  0
    8.1320   -0.4429   18.3639 H   0  0  0  0  0  0  0  0  0  0  0  0
    6.6603   -0.0217   19.9148 C   0  0  0  0  0  0  0  0  0  0  0  0
    7.3332   -0.7133   20.9754 N   0  0  0  0  0  0  0  0  0  0  0  0
    6.7149   -1.6452   21.8105 C   0  0  0  0  0  0  0  0  0  0  0  0
    5.6689   -1.8891   21.7524 H   0  0  0  0  0  0  0  0  0  0  0  0
    7.6559   -2.0919   22.6656 C   0  0  0  0  0  0  0  0  0  0  0  0
    7.5601   -3.0173   23.6825 N   0  0  0  0  0  0  0  0  0  0  0  0
    8.5054   -3.2415   24.6566 C   0  0  0  0  0  0  0  0  0  0  0  0
    9.5901   -2.6965   24.7305 O   0  0  0  0  0  0  0  0  0  0  0  0
    7.9537   -4.2919   25.6117 C   0  0  0  0  0  0  0  0  0  0  0  0
    8.6789   -5.1108   25.6780 H   0  0  0  0  0  0  0  0  0  0  0  0
    7.8905   -3.8461   26.6118 H   0  0  0  0  0  0  0  0  0  0  0  0
    6.5875   -4.7158   25.0325 C   0  0  0  0  0  0  0  0  0  0  0  0
    6.5971   -5.7450   24.6626 H   0  0  0  0  0  0  0  0  0  0  0  0
    5.7763   -4.6633   25.7645 H   0  0  0  0  0  0  0  0  0  0  0  0
    6.3130   -3.7434   23.8676 C   0  0  0  0  0  0  0  0  0  0  0  0
    5.4929   -3.0476   24.0991 H   0  0  0  0  0  0  0  0  0  0  0  0
    6.0500   -4.2664   22.9390 H   0  0  0  0  0  0  0  0  0  0  0  0
    8.8289   -1.4553   22.3725 N   0  0  0  0  0  0  0  0  0  0  0  0
    9.6950   -1.5414   22.8821 H   0  0  0  0  0  0  0  0  0  0  0  0
    8.6538   -0.5616   21.3669 C   0  0  0  0  0  0  0  0  0  0  0  0
    9.8215    0.4820   20.8383 S   0  0  0  0  0  0  0  0  0  0  0  0
    5.4495    0.6326   20.1703 C   0  0  0  0  0  0  0  0  0  0  0  0
    5.0412    0.6288   21.1829 H   0  0  0  0  0  0  0  0  0  0  0  0
    4.8148    1.3004   19.1176 C   0  0  0  0  0  0  0  0  0  0  0  0
    3.8844    1.8389   19.2658 H   0  0  0  0  0  0  0  0  0  0  0  0
  1  2  1  0
  2  3  2  0
  3  4  1  0
  4  5  1  0
  4  6  2  0
  6  7  1  0
  7  8  1  0
  8  9  1  0
  8 10  2  0
 10 11  1  0
 11 12  1  0
 12 13  2  0
 12 14  1  0
 14 15  1  0
 14 16  1  0
 14 17  1  0
 17 18  1  0
 17 19  1  0
 17 20  1  0
 20 21  1  0
 20 22  1  0
 10 23  1  0
 23 24  1  0
 23 25  1  0
 25 26  2  0
  6 27  1  0
 27 28  1  0
 27 29  2  0
 29 30  1  0
 29  2  1  0
 25  7  1  0
 20 11  1  0
M  END
>  <cnnaffinity>  (1) 
-5.13921

>  <filename>  (1) 
O=C1CCCN1c1cn(-c2cccnc2)c(=S)[nH]1

$$$$
