
     RDKit          3D

 35 38  0  0  0  0  0  0  0  0999 V2000
    4.9277    1.7867   16.9964 H   0  0  0  0  0  0  0  0  0  0  0  0
    5.4007    1.2934   17.8447 C   0  0  0  0  0  0  0  0  0  0  0  0
    6.5566    0.6644   17.5851 N   0  0  0  0  0  0  0  0  0  0  0  0
    7.1625    0.0387   18.5990 C   0  0  0  0  0  0  0  0  0  0  0  0
    8.1202   -0.4216   18.3801 H   0  0  0  0  0  0  0  0  0  0  0  0
    6.6364   -0.0275   19.9018 C   0  0  0  0  0  0  0  0  0  0  0  0
    7.3375   -0.7257   20.9454 N   0  0  0  0  0  0  0  0  0  0  0  0
    6.5866   -1.6030   21.6728 N   0  0  0  0  0  0  0  0  0  0  0  0
    7.1623   -2.2904   22.6380 C   0  0  0  0  0  0  0  0  0  0  0  0
    6.3220   -3.3009   23.4166 C   0  0  0  0  0  0  0  0  0  0  0  0
    6.9008   -3.9912   24.3901 N   0  0  0  0  0  0  0  0  0  0  0  0
    6.1504   -4.8953   25.0983 C   0  0  0  0  0  0  0  0  0  0  0  0
    6.7715   -5.6412   26.1507 C   0  0  0  0  0  0  0  0  0  0  0  0
    7.8235   -5.4478   26.3398 H   0  0  0  0  0  0  0  0  0  0  0  0
    6.0392   -6.5590   26.8781 C   0  0  0  0  0  0  0  0  0  0  0  0
    6.5045   -7.1265   27.6820 H   0  0  0  0  0  0  0  0  0  0  0  0
    4.6589   -6.7811   26.5939 C   0  0  0  0  0  0  0  0  0  0  0  0
    4.1012   -7.5098   27.1808 H   0  0  0  0  0  0  0  0  0  0  0  0
    4.0345   -6.0784   25.5890 C   0  0  0  0  0  0  0  0  0  0  0  0
    2.9820   -6.2301   25.3589 H   0  0  0  0  0  0  0  0  0  0  0  0
    4.7645   -5.1236   24.8210 C   0  0  0  0  0  0  0  0  0  0  0  0
    4.1700   -4.3729   23.7651 C   0  0  0  0  0  0  0  0  0  0  0  0
    3.1129   -4.5222   23.5369 H   0  0  0  0  0  0  0  0  0  0  0  0
    4.9397   -3.4812   23.0643 C   0  0  0  0  0  0  0  0  0  0  0  0
    4.5442   -2.8854   22.2509 H   0  0  0  0  0  0  0  0  0  0  0  0
    8.5528   -2.1032   22.9725 C   0  0  0  0  0  0  0  0  0  0  0  0
    8.9584   -2.7016   23.7841 H   0  0  0  0  0  0  0  0  0  0  0  0
    9.2910   -1.1970   22.2854 C   0  0  0  0  0  0  0  0  0  0  0  0
   10.3391   -0.9905   22.4768 H   0  0  0  0  0  0  0  0  0  0  0  0
    8.7192   -0.4066   21.2044 C   0  0  0  0  0  0  0  0  0  0  0  0
    9.3274    0.4315   20.5592 O   0  0  0  0  0  0  0  0  0  0  0  0
    5.4310    0.6285   20.1683 C   0  0  0  0  0  0  0  0  0  0  0  0
    5.0215    0.5898   21.1797 H   0  0  0  0  0  0  0  0  0  0  0  0
    4.8109    1.3123   19.1154 C   0  0  0  0  0  0  0  0  0  0  0  0
    3.8794    1.8464   19.2587 H   0  0  0  0  0  0  0  0  0  0  0  0
  1  2  1  0
  2  3  2  0
  3  4  1  0
  4  5  1  0
  4  6  2  0
  6  7  1  0
  7  8  1  0
  8  9  2  0
  9 10  1  0
 10 11  2  0
 11 12  1  0
 12 13  2  0
 13 14  1  0
 13 15  1  0
 15 16  1  0
 15 17  2  0
 17 18  1  0
 17 19  1  0
 19 20  1  0
 19 21  2  0
 21 22  1  0
 22 23  1  0
 22 24  2  0
 24 25  1  0
  9 26  1  0
 26 27  1  0
 26 28  2  0
 28 29  1  0
 28 30  1  0
 30 31  2  0
  6 32  1  0
 32 33  1  0
 32 34  2  0
 34 35  1  0
 34  2  1  0
 30  7  1  0
 24 10  1  0
 21 12  1  0
M  END
>  <cnnaffinity>  (1) 
-5.46953

>  <filename>  (1) 
O=c1ccc(-c2ccc3ccccc3n2)nn1-c1cccnc1

$$$$
