
     RDKit          3D

 32 34  0  0  0  0  0  0  0  0999 V2000
    9.5510    0.4228   29.3928 H   0  0  0  0  0  0  0  0  0  0  0  0
    8.6179    0.4485   29.1391 O   0  0  0  0  0  0  0  0  0  0  0  0
    8.5506    0.1671   27.7959 C   0  0  0  0  0  0  0  0  0  0  0  0
    9.6255   -0.3754   27.0970 C   0  0  0  0  0  0  0  0  0  0  0  0
   10.5300   -0.5992   27.6471 H   0  0  0  0  0  0  0  0  0  0  0  0
    9.5308   -0.6497   25.7297 C   0  0  0  0  0  0  0  0  0  0  0  0
   10.3882   -1.0626   25.2060 H   0  0  0  0  0  0  0  0  0  0  0  0
    8.3365   -0.3932   25.0448 C   0  0  0  0  0  0  0  0  0  0  0  0
    8.2018   -0.7896   23.6167 C   0  0  0  0  0  0  0  0  0  0  0  0
    7.6007    0.4807   22.5652 S   0  0  0  0  0  0  0  0  0  0  0  0
    7.2702   -0.3906   21.0881 C   0  0  0  0  0  0  0  0  0  0  0  0
    6.5859    0.3413   19.9875 C   0  0  0  0  0  0  0  0  0  0  0  0
    7.1553    0.3267   18.6981 C   0  0  0  0  0  0  0  0  0  0  0  0
    8.1475   -0.0959   18.5353 H   0  0  0  0  0  0  0  0  0  0  0  0
    6.5680    0.8274   17.6074 N   0  0  0  0  0  0  0  0  0  0  0  0
    5.3564    1.3793   17.7690 C   0  0  0  0  0  0  0  0  0  0  0  0
    4.9105    1.7921   16.8683 H   0  0  0  0  0  0  0  0  0  0  0  0
    4.6962    1.4595   19.0023 C   0  0  0  0  0  0  0  0  0  0  0  0
    3.7268    1.9443   19.0587 H   0  0  0  0  0  0  0  0  0  0  0  0
    5.3294    0.9492   20.1409 C   0  0  0  0  0  0  0  0  0  0  0  0
    4.8674    1.0126   21.1293 H   0  0  0  0  0  0  0  0  0  0  0  0
    7.5982   -1.6847   20.9017 C   0  0  0  0  0  0  0  0  0  0  0  0
    7.3717   -2.1560   19.9582 H   0  0  0  0  0  0  0  0  0  0  0  0
    8.2240   -2.5739   21.8797 C   0  0  0  0  0  0  0  0  0  0  0  0
    8.4855   -3.7354   21.5949 O   0  0  0  0  0  0  0  0  0  0  0  0
    8.5066   -2.0397   23.2099 C   0  0  0  0  0  0  0  0  0  0  0  0
    8.9596   -2.7521   23.8961 H   0  0  0  0  0  0  0  0  0  0  0  0
    7.2523    0.1586   25.7571 C   0  0  0  0  0  0  0  0  0  0  0  0
    6.3012    0.3564   25.2783 H   0  0  0  0  0  0  0  0  0  0  0  0
    7.3410    0.4446   27.1160 C   0  0  0  0  0  0  0  0  0  0  0  0
    6.2475    0.9842   27.7211 O   0  0  0  0  0  0  0  0  0  0  0  0
    6.4934    1.1798   28.6377 H   0  0  0  0  0  0  0  0  0  0  0  0
  1  2  1  0
  2  3  1  0
  3  4  2  0
  4  5  1  0
  4  6  1  0
  6  7  1  0
  6  8  2  0
  8  9  1  0
  9 10  1  0
 10 11  1  0
 11 12  1  0
 12 13  2  0
 13 14  1  0
 13 15  1  0
 15 16  2  0
 16 17  1  0
 16 18  1  0
 18 19  1  0
 18 20  2  0
 20 21  1  0
 11 22  2  0
 22 23  1  0
 22 24  1  0
 24 25  2  0
 24 26  1  0
 26 27  1  0
  8 28  1  0
 28 29  1  0
 28 30  2  0
 30 31  1  0
 31 32  1  0
 30  3  1  0
 26  9  2  0
 20 12  1  0
M  END
>  <cnnaffinity>  (1) 
-5.20296

>  <filename>  (1) 
O=c1cc(-c2cccnc2)sc(-c2ccc(O)c(O)c2)c1

$$$$
