
     RDKit          3D

 30 32  0  0  0  0  0  0  0  0999 V2000
    5.0084    1.8188   16.9604 H   0  0  0  0  0  0  0  0  0  0  0  0
    5.4595    1.3115   17.8099 C   0  0  0  0  0  0  0  0  0  0  0  0
    6.6524    0.7308   17.5844 N   0  0  0  0  0  0  0  0  0  0  0  0
    7.2224    0.0954   18.6094 C   0  0  0  0  0  0  0  0  0  0  0  0
    8.2136   -0.3272   18.4666 H   0  0  0  0  0  0  0  0  0  0  0  0
    6.6089   -0.0551   19.8659 C   0  0  0  0  0  0  0  0  0  0  0  0
    7.2910   -0.8100   20.8669 N   0  0  0  0  0  0  0  0  0  0  0  0
    8.6126   -0.4800   20.9572 N   0  0  0  0  0  0  0  0  0  0  0  0
    9.3261   -0.9927   21.9283 C   0  0  0  0  0  0  0  0  0  0  0  0
   10.7257   -0.4793   22.0051 C   0  0  0  0  0  0  0  0  0  0  0  0
   11.8153   -1.3351   22.2272 C   0  0  0  0  0  0  0  0  0  0  0  0
   11.6882   -2.4137   22.3342 H   0  0  0  0  0  0  0  0  0  0  0  0
   13.1007   -0.8007   22.3495 C   0  0  0  0  0  0  0  0  0  0  0  0
   13.9702   -1.4381   22.4804 H   0  0  0  0  0  0  0  0  0  0  0  0
   13.2947    0.5848   22.3021 C   0  0  0  0  0  0  0  0  0  0  0  0
   14.8547    1.2232   22.6471 Cl  0  0  0  0  0  0  0  0  0  0  0  0
   12.2186    1.4408   22.0185 C   0  0  0  0  0  0  0  0  0  0  0  0
   12.4173    3.1585   21.9185 Cl  0  0  0  0  0  0  0  0  0  0  0  0
   10.9462    0.9023   21.8419 C   0  0  0  0  0  0  0  0  0  0  0  0
   10.1293    1.5714   21.5784 H   0  0  0  0  0  0  0  0  0  0  0  0
    8.7620   -1.9282   22.8701 C   0  0  0  0  0  0  0  0  0  0  0  0
    9.3736   -2.3032   23.6894 H   0  0  0  0  0  0  0  0  0  0  0  0
    7.4577   -2.3069   22.7394 C   0  0  0  0  0  0  0  0  0  0  0  0
    6.9487   -2.9929   23.4059 H   0  0  0  0  0  0  0  0  0  0  0  0
    6.6207   -1.8201   21.6477 C   0  0  0  0  0  0  0  0  0  0  0  0
    5.4967   -2.2163   21.3923 O   0  0  0  0  0  0  0  0  0  0  0  0
    5.3997    0.5945   20.1166 C   0  0  0  0  0  0  0  0  0  0  0  0
    4.9500    0.5671   21.1095 H   0  0  0  0  0  0  0  0  0  0  0  0
    4.8168    1.2941   19.0531 C   0  0  0  0  0  0  0  0  0  0  0  0
    3.8863    1.8372   19.1803 H   0  0  0  0  0  0  0  0  0  0  0  0
  1  2  1  0
  2  3  2  0
  3  4  1  0
  4  5  1  0
  4  6  2  0
  6  7  1  0
  7  8  1  0
  8  9  2  0
  9 10  1  0
 10 11  2  0
 11 12  1  0
 11 13  1  0
 13 14  1  0
 13 15  2  0
 15 16  1  0
 15 17  1  0
 17 18  1  0
 17 19  2  0
 19 20  1  0
  9 21  1  0
 21 22  1  0
 21 23  2  0
 23 24  1  0
 23 25  1  0
 25 26  2  0
  6 27  1  0
 27 28  1  0
 27 29  2  0
 29 30  1  0
 29  2  1  0
 25  7  1  0
 19 10  1  0
M  END
>  <cnnaffinity>  (1) 
-5.6628

>  <filename>  (1) 
O=c1ccc(-c2ccc(Cl)c(Cl)c2)nn1-c1cccnc1

$$$$
