
     RDKit          3D

 31 33  0  0  0  0  0  0  0  0999 V2000
    4.9393    1.8487   16.9837 H   0  0  0  0  0  0  0  0  0  0  0  0
    5.4015    1.3210   17.8186 C   0  0  0  0  0  0  0  0  0  0  0  0
    6.5505    0.6795   17.5517 N   0  0  0  0  0  0  0  0  0  0  0  0
    7.1546    0.0264   18.5533 C   0  0  0  0  0  0  0  0  0  0  0  0
    8.1004   -0.4595   18.3078 H   0  0  0  0  0  0  0  0  0  0  0  0
    6.6360   -0.0526   19.8685 C   0  0  0  0  0  0  0  0  0  0  0  0
    7.2823   -0.7769   20.9313 N   0  0  0  0  0  0  0  0  0  0  0  0
    8.5643   -0.5944   21.4503 C   0  0  0  0  0  0  0  0  0  0  0  0
    9.6024    0.3422   20.9071 C   0  0  0  0  0  0  0  0  0  0  0  0
    9.1973    0.9353   20.0846 H   0  0  0  0  0  0  0  0  0  0  0  0
   10.3871   -0.2945   20.4874 H   0  0  0  0  0  0  0  0  0  0  0  0
   10.2129    1.2336   21.9723 C   0  0  0  0  0  0  0  0  0  0  0  0
   11.4612    0.9077   22.5216 C   0  0  0  0  0  0  0  0  0  0  0  0
   12.0022    0.0609   22.1084 H   0  0  0  0  0  0  0  0  0  0  0  0
   12.0291    1.6516   23.5595 C   0  0  0  0  0  0  0  0  0  0  0  0
   12.9802    1.3531   23.9925 H   0  0  0  0  0  0  0  0  0  0  0  0
   11.3498    2.7669   24.0510 C   0  0  0  0  0  0  0  0  0  0  0  0
   11.8064    3.3797   24.8189 H   0  0  0  0  0  0  0  0  0  0  0  0
   10.0876    3.0978   23.5514 C   0  0  0  0  0  0  0  0  0  0  0  0
    9.5071    3.9121   23.9728 H   0  0  0  0  0  0  0  0  0  0  0  0
    9.5395    2.3416   22.5090 C   0  0  0  0  0  0  0  0  0  0  0  0
    7.9869    2.8188   21.8776 Cl  0  0  0  0  0  0  0  0  0  0  0  0
    8.8286   -1.4250   22.4124 N   0  0  0  0  0  0  0  0  0  0  0  0
    7.6915   -2.1781   22.5239 N   0  0  0  0  0  0  0  0  0  0  0  0
    7.5631   -2.8672   23.2420 H   0  0  0  0  0  0  0  0  0  0  0  0
    6.6918   -1.8361   21.6674 C   0  0  0  0  0  0  0  0  0  0  0  0
    5.6011   -2.3634   21.5587 O   0  0  0  0  0  0  0  0  0  0  0  0
    5.4295    0.6081   20.1226 C   0  0  0  0  0  0  0  0  0  0  0  0
    5.0079    0.5562   21.1246 H   0  0  0  0  0  0  0  0  0  0  0  0
    4.8078    1.3164   19.0840 C   0  0  0  0  0  0  0  0  0  0  0  0
    3.8800    1.8596   19.2388 H   0  0  0  0  0  0  0  0  0  0  0  0
  1  2  1  0
  2  3  2  0
  3  4  1  0
  4  5  1  0
  4  6  2  0
  6  7  1  0
  7  8  1  0
  8  9  1  0
  9 10  1  0
  9 11  1  0
  9 12  1  0
 12 13  2  0
 13 14  1  0
 13 15  1  0
 15 16  1  0
 15 17  2  0
 17 18  1  0
 17 19  1  0
 19 20  1  0
 19 21  2  0
 21 22  1  0
  8 23  2  0
 23 24  1  0
 24 25  1  0
 24 26  1  0
 26 27  2  0
  6 28  1  0
 28 29  1  0
 28 30  2  0
 30 31  1  0
 30  2  1  0
 26  7  1  0
 21 12  1  0
M  END
>  <cnnaffinity>  (1) 
-5.38723

>  <filename>  (1) 
O=c1[nH]nc(Cc2ccccc2Cl)n1-c1cccnc1

$$$$
