
     RDKit          3D

 31 33  0  0  0  0  0  0  0  0999 V2000
    9.3912   -1.4564   27.5673 H   0  0  0  0  0  0  0  0  0  0  0  0
    8.8089   -0.8436   26.8861 C   0  0  0  0  0  0  0  0  0  0  0  0
    8.7957   -1.2379   25.6133 N   0  0  0  0  0  0  0  0  0  0  0  0
    8.0829   -0.4708   24.7709 C   0  0  0  0  0  0  0  0  0  0  0  0
    8.0467   -0.8482   23.2833 C   0  0  0  0  0  0  0  0  0  0  0  0
    7.3555   -0.1416   22.3291 C   0  0  0  0  0  0  0  0  0  0  0  0
    6.8006    0.7429   22.5963 H   0  0  0  0  0  0  0  0  0  0  0  0
    7.3779   -0.5794   20.9687 C   0  0  0  0  0  0  0  0  0  0  0  0
    6.6234    0.1339   19.9221 C   0  0  0  0  0  0  0  0  0  0  0  0
    7.1384    0.1074   18.6198 C   0  0  0  0  0  0  0  0  0  0  0  0
    8.0669   -0.4345   18.4326 H   0  0  0  0  0  0  0  0  0  0  0  0
    6.5474    0.7025   17.5811 N   0  0  0  0  0  0  0  0  0  0  0  0
    5.3813    1.3258   17.8122 C   0  0  0  0  0  0  0  0  0  0  0  0
    4.9311    1.8173   16.9535 H   0  0  0  0  0  0  0  0  0  0  0  0
    4.7540    1.3592   19.0626 C   0  0  0  0  0  0  0  0  0  0  0  0
    3.8057    1.8717   19.1782 H   0  0  0  0  0  0  0  0  0  0  0  0
    5.3850    0.7453   20.1421 C   0  0  0  0  0  0  0  0  0  0  0  0
    4.9213    0.7029   21.1286 H   0  0  0  0  0  0  0  0  0  0  0  0
    8.0204   -1.6321   20.5569 N   0  0  0  0  0  0  0  0  0  0  0  0
    8.5221   -2.4724   21.5020 C   0  0  0  0  0  0  0  0  0  0  0  0
    8.7953   -3.6322   21.3215 O   0  0  0  0  0  0  0  0  0  0  0  0
    8.7218   -1.9479   22.7904 N   0  0  0  0  0  0  0  0  0  0  0  0
    9.1686   -2.6512   23.3543 H   0  0  0  0  0  0  0  0  0  0  0  0
    7.3904    0.6152   25.1240 N   0  0  0  0  0  0  0  0  0  0  0  0
    7.4057    1.0028   26.4031 C   0  0  0  0  0  0  0  0  0  0  0  0
    6.5989    2.2764   26.7703 C   0  0  0  0  0  0  0  0  0  0  0  0
    5.9856    2.8126   25.7114 F   0  0  0  0  0  0  0  0  0  0  0  0
    5.6576    2.0073   27.6985 F   0  0  0  0  0  0  0  0  0  0  0  0
    7.3993    3.2213   27.3064 F   0  0  0  0  0  0  0  0  0  0  0  0
    8.1287    0.2794   27.3531 C   0  0  0  0  0  0  0  0  0  0  0  0
    8.1869    0.5573   28.3957 H   0  0  0  0  0  0  0  0  0  0  0  0
  1  2  1  0
  2  3  2  0
  3  4  1  0
  4  5  1  0
  5  6  2  0
  6  7  1  0
  6  8  1  0
  8  9  1  0
  9 10  2  0
 10 11  1  0
 10 12  1  0
 12 13  2  0
 13 14  1  0
 13 15  1  0
 15 16  1  0
 15 17  2  0
 17 18  1  0
  8 19  2  0
 19 20  1  0
 20 21  2  0
 20 22  1  0
 22 23  1  0
  4 24  2  0
 24 25  1  0
 25 26  1  0
 26 27  1  0
 26 28  1  0
 26 29  1  0
 25 30  2  0
 30 31  1  0
 30  2  1  0
 22  5  1  0
 17  9  1  0
M  END
>  <cnnaffinity>  (1) 
-5.40497

>  <filename>  (1) 
O=c1nc(-c2cccnc2)cc(-c2nccc(C(F)(F)F)n2)[nH]1

$$$$
