
     RDKit          3D

 34 37  0  0  0  0  0  0  0  0999 V2000
    4.8993    1.7961   16.8605 H   0  0  0  0  0  0  0  0  0  0  0  0
    5.3457    1.3896   17.7644 C   0  0  0  0  0  0  0  0  0  0  0  0
    6.5646    0.8535   17.6098 N   0  0  0  0  0  0  0  0  0  0  0  0
    7.1454    0.3372   18.6974 C   0  0  0  0  0  0  0  0  0  0  0  0
    8.1367   -0.0815   18.5273 H   0  0  0  0  0  0  0  0  0  0  0  0
    6.5663    0.3298   19.9826 C   0  0  0  0  0  0  0  0  0  0  0  0
    7.2351   -0.4260   21.0830 C   0  0  0  0  0  0  0  0  0  0  0  0
    7.4876    0.3971   22.6043 S   0  0  0  0  0  0  0  0  0  0  0  0
    8.2556   -0.8495   23.6094 C   0  0  0  0  0  0  0  0  0  0  0  0
    8.4397   -0.4502   25.0238 C   0  0  0  0  0  0  0  0  0  0  0  0
    9.0781   -1.0810   26.0699 C   0  0  0  0  0  0  0  0  0  0  0  0
    9.6048   -2.0247   26.0498 H   0  0  0  0  0  0  0  0  0  0  0  0
    8.8707   -0.2938   27.2415 C   0  0  0  0  0  0  0  0  0  0  0  0
    9.2865   -0.4231   28.5771 C   0  0  0  0  0  0  0  0  0  0  0  0
    9.9748   -1.2292   28.8018 H   0  0  0  0  0  0  0  0  0  0  0  0
    8.7762    0.4592   29.5280 C   0  0  0  0  0  0  0  0  0  0  0  0
    9.0471    0.3457   30.5710 H   0  0  0  0  0  0  0  0  0  0  0  0
    7.8969    1.5043   29.1495 C   0  0  0  0  0  0  0  0  0  0  0  0
    7.5110    2.1657   29.9198 H   0  0  0  0  0  0  0  0  0  0  0  0
    7.5289    1.6975   27.8200 C   0  0  0  0  0  0  0  0  0  0  0  0
    6.8731    2.5110   27.5206 H   0  0  0  0  0  0  0  0  0  0  0  0
    8.0416    0.7948   26.8703 C   0  0  0  0  0  0  0  0  0  0  0  0
    7.8441    0.7020   25.5189 N   0  0  0  0  0  0  0  0  0  0  0  0
    7.2835    1.3193   24.9522 H   0  0  0  0  0  0  0  0  0  0  0  0
    8.5953   -2.0806   23.1476 C   0  0  0  0  0  0  0  0  0  0  0  0
    9.1429   -2.7861   23.7689 H   0  0  0  0  0  0  0  0  0  0  0  0
    8.2558   -2.6055   21.8191 C   0  0  0  0  0  0  0  0  0  0  0  0
    8.5135   -3.7580   21.5074 O   0  0  0  0  0  0  0  0  0  0  0  0
    7.5980   -1.7034   20.8670 C   0  0  0  0  0  0  0  0  0  0  0  0
    7.3994   -2.1473   19.9045 H   0  0  0  0  0  0  0  0  0  0  0  0
    5.3146    0.9495   20.1320 C   0  0  0  0  0  0  0  0  0  0  0  0
    4.8610    1.0325   21.1207 H   0  0  0  0  0  0  0  0  0  0  0  0
    4.6826    1.4621   18.9945 C   0  0  0  0  0  0  0  0  0  0  0  0
    3.7142    1.9491   19.0495 H   0  0  0  0  0  0  0  0  0  0  0  0
  1  2  1  0
  2  3  2  0
  3  4  1  0
  4  5  1  0
  4  6  2  0
  6  7  1  0
  7  8  1  0
  8  9  1  0
  9 10  1  0
 10 11  2  0
 11 12  1  0
 11 13  1  0
 13 14  2  0
 14 15  1  0
 14 16  1  0
 16 17  1  0
 16 18  2  0
 18 19  1  0
 18 20  1  0
 20 21  1  0
 20 22  2  0
 22 23  1  0
 23 24  1  0
  9 25  2  0
 25 26  1  0
 25 27  1  0
 27 28  2  0
 27 29  1  0
 29 30  1  0
  6 31  1  0
 31 32  1  0
 31 33  2  0
 33 34  1  0
 33  2  1  0
 29  7  2  0
 23 10  1  0
 22 13  1  0
M  END
>  <cnnaffinity>  (1) 
-5.3328

>  <filename>  (1) 
O=c1cc(-c2cccnc2)sc(-c2cc3ccccc3[nH]2)c1

$$$$
