
     RDKit          3D

 33 35  0  0  0  0  0  0  0  0999 V2000
    4.9117    1.7768   17.0033 H   0  0  0  0  0  0  0  0  0  0  0  0
    5.3989    1.2914   17.8484 C   0  0  0  0  0  0  0  0  0  0  0  0
    6.5649    0.6789   17.5884 N   0  0  0  0  0  0  0  0  0  0  0  0
    7.1833    0.0618   18.5999 C   0  0  0  0  0  0  0  0  0  0  0  0
    8.1268   -0.4273   18.3765 H   0  0  0  0  0  0  0  0  0  0  0  0
    6.6749   -0.0124   19.9216 C   0  0  0  0  0  0  0  0  0  0  0  0
    7.3394   -0.7693   20.9262 N   0  0  0  0  0  0  0  0  0  0  0  0
    8.6566   -1.3142   20.8481 C   0  0  0  0  0  0  0  0  0  0  0  0
    9.5634   -0.9458   20.1651 O   0  0  0  0  0  0  0  0  0  0  0  0
    8.7294   -2.3068   21.7678 O   0  0  0  0  0  0  0  0  0  0  0  0
    7.5001   -2.4751   22.4733 C   0  0  0  0  0  0  0  0  0  0  0  0
    7.7208   -2.6274   23.5318 H   0  0  0  0  0  0  0  0  0  0  0  0
    6.9799   -3.3721   22.1076 H   0  0  0  0  0  0  0  0  0  0  0  0
    6.7149   -1.2036   22.1647 C   0  0  1  0  0  0  0  0  0  0  0  0
    5.6563   -1.3987   22.0246 H   0  0  0  0  0  0  0  0  0  0  0  0
    6.8014    0.0152   23.5897 S   0  0  0  0  0  0  0  0  0  0  0  0
    6.1272    1.2413   23.1641 O   0  0  0  0  0  0  0  0  0  0  0  0
    6.3777   -0.7138   24.7853 O   0  0  0  0  0  0  0  0  0  0  0  0
    8.5708    0.3818   23.7637 C   0  0  0  0  0  0  0  0  0  0  0  0
    9.3397   -0.3011   24.7179 C   0  0  0  0  0  0  0  0  0  0  0  0
    8.8970   -1.0703   25.3500 H   0  0  0  0  0  0  0  0  0  0  0  0
   10.6919    0.0227   24.8767 C   0  0  0  0  0  0  0  0  0  0  0  0
   11.2845   -0.4963   25.6248 H   0  0  0  0  0  0  0  0  0  0  0  0
   11.2874    1.0108   24.0855 C   0  0  0  0  0  0  0  0  0  0  0  0
   12.3417    1.2568   24.2151 H   0  0  0  0  0  0  0  0  0  0  0  0
   10.5182    1.6783   23.1259 C   0  0  0  0  0  0  0  0  0  0  0  0
   10.9790    2.4463   22.5075 H   0  0  0  0  0  0  0  0  0  0  0  0
    9.1629    1.3693   22.9576 C   0  0  0  0  0  0  0  0  0  0  0  0
    8.5892    1.9007   22.1978 H   0  0  0  0  0  0  0  0  0  0  0  0
    5.4532    0.6365   20.1758 C   0  0  0  0  0  0  0  0  0  0  0  0
    5.0277    0.6379   21.1770 H   0  0  0  0  0  0  0  0  0  0  0  0
    4.8160    1.3029   19.1178 C   0  0  0  0  0  0  0  0  0  0  0  0
    3.8824    1.8368   19.2685 H   0  0  0  0  0  0  0  0  0  0  0  0
  1  2  1  0
  2  3  2  0
  3  4  1  0
  4  5  1  0
  4  6  2  0
  6  7  1  0
  7  8  1  0
  8  9  2  0
  8 10  1  0
 10 11  1  0
 11 12  1  0
 11 13  1  0
 11 14  1  0
 14 15  1  6
 14 16  1  0
 16 17  2  0
 16 18  2  0
 16 19  1  0
 19 20  2  0
 20 21  1  0
 20 22  1  0
 22 23  1  0
 22 24  2  0
 24 25  1  0
 24 26  1  0
 26 27  1  0
 26 28  2  0
 28 29  1  0
  6 30  1  0
 30 31  1  0
 30 32  2  0
 32 33  1  0
 32  2  1  0
 14  7  1  0
 28 19  1  0
M  END
>  <cnnaffinity>  (1) 
-4.84257

>  <filename>  (1) 
O=C1OC[C@@H](S(=O)(=O)c2ccccc2)N1c1cccnc1

$$$$
