
     RDKit          3D

 30 32  0  0  0  0  0  0  0  0999 V2000
    4.8556    1.7355   16.7369 H   0  0  0  0  0  0  0  0  0  0  0  0
    5.3350    1.3967   17.6486 C   0  0  0  0  0  0  0  0  0  0  0  0
    6.4919    0.7181   17.5532 N   0  0  0  0  0  0  0  0  0  0  0  0
    7.0381    0.2639   18.6936 C   0  0  0  0  0  0  0  0  0  0  0  0
    7.9853   -0.2594   18.6091 H   0  0  0  0  0  0  0  0  0  0  0  0
    6.4633    0.4234   19.9699 C   0  0  0  0  0  0  0  0  0  0  0  0
    7.0517   -0.2846   21.1306 C   0  0  0  0  0  0  0  0  0  0  0  0
    6.8111    0.2734   22.7925 S   0  0  0  0  0  0  0  0  0  0  0  0
    7.9223   -0.7173   23.7698 C   0  0  0  0  0  0  0  0  0  0  0  0
    8.0945   -0.3673   25.1910 C   0  0  0  0  0  0  0  0  0  0  0  0
    9.2473   -0.6757   25.9354 C   0  0  0  0  0  0  0  0  0  0  0  0
   10.0916   -1.1465   25.4416 H   0  0  0  0  0  0  0  0  0  0  0  0
    9.3138   -0.3765   27.3091 C   0  0  0  0  0  0  0  0  0  0  0  0
   10.1973   -0.6210   27.8901 H   0  0  0  0  0  0  0  0  0  0  0  0
    8.2383    0.2535   27.9511 C   0  0  0  0  0  0  0  0  0  0  0  0
    8.3334    0.7719   29.7969 Br  0  0  0  0  0  0  0  0  0  0  0  0
    7.0916    0.5475   27.2182 C   0  0  0  0  0  0  0  0  0  0  0  0
    6.2458    1.0015   27.7256 H   0  0  0  0  0  0  0  0  0  0  0  0
    7.0295    0.2561   25.8533 C   0  0  0  0  0  0  0  0  0  0  0  0
    6.1268    0.4877   25.3006 H   0  0  0  0  0  0  0  0  0  0  0  0
    8.5107   -1.8584   23.2650 C   0  0  0  0  0  0  0  0  0  0  0  0
    9.1115   -2.4807   23.9182 H   0  0  0  0  0  0  0  0  0  0  0  0
    8.3079   -2.3167   21.9064 C   0  0  0  0  0  0  0  0  0  0  0  0
    8.7004   -3.4335   21.5950 O   0  0  0  0  0  0  0  0  0  0  0  0
    7.7086   -1.4733   20.8895 C   0  0  0  0  0  0  0  0  0  0  0  0
    7.7720   -1.8312   19.8754 H   0  0  0  0  0  0  0  0  0  0  0  0
    5.2962    1.2017   20.0647 C   0  0  0  0  0  0  0  0  0  0  0  0
    4.8274    1.4113   21.0250 H   0  0  0  0  0  0  0  0  0  0  0  0
    4.7243    1.6733   18.8770 C   0  0  0  0  0  0  0  0  0  0  0  0
    3.8006    2.2493   18.8922 H   0  0  0  0  0  0  0  0  0  0  0  0
  1  2  1  0
  2  3  2  0
  3  4  1  0
  4  5  1  0
  4  6  2  0
  6  7  1  0
  7  8  1  0
  8  9  1  0
  9 10  1  0
 10 11  2  0
 11 12  1  0
 11 13  1  0
 13 14  1  0
 13 15  2  0
 15 16  1  0
 15 17  1  0
 17 18  1  0
 17 19  2  0
 19 20  1  0
  9 21  2  0
 21 22  1  0
 21 23  1  0
 23 24  2  0
 23 25  1  0
 25 26  1  0
  6 27  1  0
 27 28  1  0
 27 29  2  0
 29 30  1  0
 29  2  1  0
 25  7  2  0
 19 10  1  0
M  END
>  <cnnaffinity>  (1) 
-5.17131

>  <filename>  (1) 
O=c1cc(-c2ccc(Br)cc2)sc(-c2cccnc2)c1

$$$$
