
     RDKit          3D

 33 35  0  0  0  0  0  0  0  0999 V2000
    4.9587    1.7793   16.9791 H   0  0  0  0  0  0  0  0  0  0  0  0
    5.4148    1.3074   17.8476 C   0  0  0  0  0  0  0  0  0  0  0  0
    6.6035    0.7178   17.6414 N   0  0  0  0  0  0  0  0  0  0  0  0
    7.1907    0.1228   18.6886 C   0  0  0  0  0  0  0  0  0  0  0  0
    8.1521   -0.3505   18.4992 H   0  0  0  0  0  0  0  0  0  0  0  0
    6.6246    0.0883   19.9757 C   0  0  0  0  0  0  0  0  0  0  0  0
    7.2305   -0.6289   21.0573 N   0  0  0  0  0  0  0  0  0  0  0  0
    7.5258    0.1213   22.1656 N   0  0  0  0  0  0  0  0  0  0  0  0
    8.2215   -0.4403   23.1152 C   0  0  0  0  0  0  0  0  0  0  0  0
    8.4941    0.3825   24.3518 C   0  0  0  0  0  0  0  0  0  0  0  0
    7.6736    1.0995   24.4682 H   0  0  0  0  0  0  0  0  0  0  0  0
    8.4809   -0.2776   25.2254 H   0  0  0  0  0  0  0  0  0  0  0  0
    9.8203    1.1062   24.2600 C   0  0  0  0  0  0  0  0  0  0  0  0
   11.0070    0.5326   24.7373 C   0  0  0  0  0  0  0  0  0  0  0  0
   10.9797   -0.4143   25.2733 H   0  0  0  0  0  0  0  0  0  0  0  0
   12.2322    1.1731   24.5340 C   0  0  0  0  0  0  0  0  0  0  0  0
   13.1521    0.7069   24.8770 H   0  0  0  0  0  0  0  0  0  0  0  0
   12.2820    2.4083   23.8825 C   0  0  0  0  0  0  0  0  0  0  0  0
   13.2276    2.9077   23.6947 H   0  0  0  0  0  0  0  0  0  0  0  0
   11.0908    2.9947   23.4481 C   0  0  0  0  0  0  0  0  0  0  0  0
   11.1376    4.5666   22.7062 Cl  0  0  0  0  0  0  0  0  0  0  0  0
    9.8672    2.3437   23.6079 C   0  0  0  0  0  0  0  0  0  0  0  0
    8.9571    2.7905   23.2139 H   0  0  0  0  0  0  0  0  0  0  0  0
    8.7125   -1.7980   22.9989 C   0  0  0  0  0  0  0  0  0  0  0  0
    9.4110   -2.1657   23.7562 H   0  0  0  0  0  0  0  0  0  0  0  0
    8.2572   -2.5920   21.9901 C   0  0  0  0  0  0  0  0  0  0  0  0
    8.5091   -3.6387   21.8714 H   0  0  0  0  0  0  0  0  0  0  0  0
    7.2767   -2.0730   21.0307 C   0  0  0  0  0  0  0  0  0  0  0  0
    6.5972   -2.7323   20.2685 O   0  0  0  0  0  0  0  0  0  0  0  0
    5.4259    0.7669   20.1961 C   0  0  0  0  0  0  0  0  0  0  0  0
    5.0388    0.8448   21.2108 H   0  0  0  0  0  0  0  0  0  0  0  0
    4.7896    1.3584   19.0981 C   0  0  0  0  0  0  0  0  0  0  0  0
    3.8493    1.8838   19.2152 H   0  0  0  0  0  0  0  0  0  0  0  0
  1  2  1  0
  2  3  2  0
  3  4  1  0
  4  5  1  0
  4  6  2  0
  6  7  1  0
  7  8  1  0
  8  9  2  0
  9 10  1  0
 10 11  1  0
 10 12  1  0
 10 13  1  0
 13 14  2  0
 14 15  1  0
 14 16  1  0
 16 17  1  0
 16 18  2  0
 18 19  1  0
 18 20  1  0
 20 21  1  0
 20 22  2  0
 22 23  1  0
  9 24  1  0
 24 25  1  0
 24 26  2  0
 26 27  1  0
 26 28  1  0
 28 29  2  0
  6 30  1  0
 30 31  1  0
 30 32  2  0
 32 33  1  0
 32  2  1  0
 28  7  1  0
 22 13  1  0
M  END
>  <cnnaffinity>  (1) 
-5.47209

>  <filename>  (1) 
O=c1ccc(Cc2cccc(Cl)c2)nn1-c1cccnc1

$$$$
