
     RDKit          3D

 34 36  0  0  0  0  0  0  0  0999 V2000
    4.7536    1.7558   17.0124 H   0  0  0  0  0  0  0  0  0  0  0  0
    5.2795    1.2054   17.7881 C   0  0  0  0  0  0  0  0  0  0  0  0
    6.4011    0.5801   17.3962 N   0  0  0  0  0  0  0  0  0  0  0  0
    7.1121   -0.0534   18.3350 C   0  0  0  0  0  0  0  0  0  0  0  0
    8.0287   -0.5411   18.0128 H   0  0  0  0  0  0  0  0  0  0  0  0
    6.7547   -0.0884   19.7019 C   0  0  0  0  0  0  0  0  0  0  0  0
    7.6393   -0.6534   20.6914 N   0  0  0  0  0  0  0  0  0  0  0  0
    7.4410   -1.6730   21.5995 C   0  0  0  0  0  0  0  0  0  0  0  0
    6.3073   -2.4172   21.5815 N   0  0  0  0  0  0  0  0  0  0  0  0
    5.6980   -2.3286   20.7962 H   0  0  0  0  0  0  0  0  0  0  0  0
    5.8076   -3.2875   22.5208 C   0  0  0  0  0  0  0  0  0  0  0  0
    4.3961   -4.0672   22.1525 S   0  0  0  0  0  0  0  0  0  0  0  0
    6.5526   -3.4359   23.6233 N   0  0  0  0  0  0  0  0  0  0  0  0
    7.4219   -2.9047   23.6359 H   0  0  0  0  0  0  0  0  0  0  0  0
    6.1551   -4.1824   24.7775 C   0  0  0  0  0  0  0  0  0  0  0  0
    6.8689   -5.3292   25.1414 C   0  0  0  0  0  0  0  0  0  0  0  0
    7.6034   -5.7333   24.4512 H   0  0  0  0  0  0  0  0  0  0  0  0
    6.6087   -5.9406   26.3745 C   0  0  0  0  0  0  0  0  0  0  0  0
    7.1782   -6.8163   26.6714 H   0  0  0  0  0  0  0  0  0  0  0  0
    5.6259   -5.4279   27.2275 C   0  0  0  0  0  0  0  0  0  0  0  0
    5.4591   -5.8716   28.2071 H   0  0  0  0  0  0  0  0  0  0  0  0
    4.8603   -4.3319   26.8146 C   0  0  0  0  0  0  0  0  0  0  0  0
    4.0699   -3.9516   27.4569 H   0  0  0  0  0  0  0  0  0  0  0  0
    5.1024   -3.7262   25.5767 C   0  0  0  0  0  0  0  0  0  0  0  0
    4.4729   -2.9215   25.2077 H   0  0  0  0  0  0  0  0  0  0  0  0
    8.4263   -1.8515   22.4196 N   0  0  0  0  0  0  0  0  0  0  0  0
    9.3029   -0.8476   22.0597 N   0  0  0  0  0  0  0  0  0  0  0  0
   10.2220   -0.7525   22.4447 H   0  0  0  0  0  0  0  0  0  0  0  0
    8.8906   -0.0779   21.0231 C   0  0  0  0  0  0  0  0  0  0  0  0
    9.4707    0.8569   20.5107 O   0  0  0  0  0  0  0  0  0  0  0  0
    5.5473    0.5052   20.0859 C   0  0  0  0  0  0  0  0  0  0  0  0
    5.2175    0.4427   21.1265 H   0  0  0  0  0  0  0  0  0  0  0  0
    4.8072    1.1788   19.1046 C   0  0  0  0  0  0  0  0  0  0  0  0
    3.8901    1.6996   19.3507 H   0  0  0  0  0  0  0  0  0  0  0  0
  1  2  1  0
  2  3  2  0
  3  4  1  0
  4  5  1  0
  4  6  2  0
  6  7  1  0
  7  8  1  0
  8  9  1  0
  9 10  1  0
  9 11  1  0
 11 12  2  0
 11 13  1  0
 13 14  1  0
 13 15  1  0
 15 16  2  0
 16 17  1  0
 16 18  1  0
 18 19  1  0
 18 20  2  0
 20 21  1  0
 20 22  1  0
 22 23  1  0
 22 24  2  0
 24 25  1  0
  8 26  2  0
 26 27  1  0
 27 28  1  0
 27 29  1  0
 29 30  2  0
  6 31  1  0
 31 32  1  0
 31 33  2  0
 33 34  1  0
 33  2  1  0
 29  7  1  0
 24 15  1  0
M  END
>  <cnnaffinity>  (1) 
-5.15111

>  <filename>  (1) 
O=c1[nH]nc(NC(=S)Nc2ccccc2)n1-c1cccnc1

$$$$
