
     RDKit          3D

 41 43  0  0  0  0  0  0  0  0999 V2000
    4.9690    1.8337   16.9784 H   0  0  0  0  0  0  0  0  0  0  0  0
    5.4292    1.3104   17.8157 C   0  0  0  0  0  0  0  0  0  0  0  0
    6.5883    0.6825   17.5665 N   0  0  0  0  0  0  0  0  0  0  0  0
    7.1800    0.0409   18.5844 C   0  0  0  0  0  0  0  0  0  0  0  0
    8.1174   -0.4635   18.3547 H   0  0  0  0  0  0  0  0  0  0  0  0
    6.6416   -0.0346   19.8941 C   0  0  0  0  0  0  0  0  0  0  0  0
    7.2966   -0.7198   20.9712 N   0  0  0  0  0  0  0  0  0  0  0  0
    6.5770   -1.7065   21.6968 C   0  0  0  0  0  0  0  0  0  0  0  0
    5.7492   -2.4023   21.1331 O   0  0  0  0  0  0  0  0  0  0  0  0
    6.8701   -1.8030   23.0840 N   0  0  0  0  0  0  0  0  0  0  0  0
    6.5487   -3.0023   23.7843 N   0  0  0  0  0  0  0  0  0  0  0  0
    7.1597   -3.1325   24.5966 H   0  0  0  0  0  0  0  0  0  0  0  0
    5.1181   -3.0680   24.1140 C   0  0  0  0  0  0  0  0  0  0  0  0
    4.8044   -2.2268   24.7505 H   0  0  0  0  0  0  0  0  0  0  0  0
    4.6161   -2.9484   23.1491 H   0  0  0  0  0  0  0  0  0  0  0  0
    4.6313   -4.3906   24.6768 C   0  0  0  0  0  0  0  0  0  0  0  0
    4.0735   -5.3179   23.7899 C   0  0  0  0  0  0  0  0  0  0  0  0
    3.9728   -5.0760   22.7405 H   0  0  0  0  0  0  0  0  0  0  0  0
    3.6319   -6.5592   24.2463 C   0  0  0  0  0  0  0  0  0  0  0  0
    3.2102   -7.2744   23.5428 H   0  0  0  0  0  0  0  0  0  0  0  0
    3.6955   -6.9389   25.5267 N   0  0  0  0  0  0  0  0  0  0  0  0
    4.1875   -6.0443   26.3912 C   0  0  0  0  0  0  0  0  0  0  0  0
    4.2160   -6.3610   27.4345 H   0  0  0  0  0  0  0  0  0  0  0  0
    4.6515   -4.7714   26.0294 C   0  0  0  0  0  0  0  0  0  0  0  0
    4.9966   -4.1219   26.8268 H   0  0  0  0  0  0  0  0  0  0  0  0
    7.0788   -0.5730   23.8750 C   0  0  0  0  0  0  0  0  0  0  0  0
    6.4049    0.2211   23.5204 H   0  0  0  0  0  0  0  0  0  0  0  0
    6.7988   -0.7534   24.9227 H   0  0  0  0  0  0  0  0  0  0  0  0
    8.5236   -0.0694   23.8032 C   0  0  0  0  0  0  0  0  0  0  0  0
    9.2024   -0.9090   24.0069 H   0  0  0  0  0  0  0  0  0  0  0  0
    8.6787    0.6651   24.6021 H   0  0  0  0  0  0  0  0  0  0  0  0
    8.8726    0.5648   22.4550 C   0  0  0  0  0  0  0  0  0  0  0  0
    8.2606    1.4638   22.2924 H   0  0  0  0  0  0  0  0  0  0  0  0
    9.9210    0.8902   22.4663 H   0  0  0  0  0  0  0  0  0  0  0  0
    8.6957   -0.3888   21.2704 C   0  0  0  0  0  0  0  0  0  0  0  0
    9.2476   -1.3179   21.4573 H   0  0  0  0  0  0  0  0  0  0  0  0
    9.1469    0.0689   20.3831 H   0  0  0  0  0  0  0  0  0  0  0  0
    5.4247    0.6150   20.1259 C   0  0  0  0  0  0  0  0  0  0  0  0
    4.9836    0.5930   21.1230 H   0  0  0  0  0  0  0  0  0  0  0  0
    4.8177    1.3056   19.0731 C   0  0  0  0  0  0  0  0  0  0  0  0
    3.8865    1.8348   19.2212 H   0  0  0  0  0  0  0  0  0  0  0  0
  1  2  1  0
  2  3  2  0
  3  4  1  0
  4  5  1  0
  4  6  2  0
  6  7  1  0
  7  8  1  0
  8  9  2  0
  8 10  1  0
 10 11  1  0
 11 12  1  0
 11 13  1  0
 13 14  1  0
 13 15  1  0
 13 16  1  0
 16 17  2  0
 17 18  1  0
 17 19  1  0
 19 20  1  0
 19 21  2  0
 21 22  1  0
 22 23  1  0
 22 24  2  0
 24 25  1  0
 10 26  1  0
 26 27  1  0
 26 28  1  0
 26 29  1  0
 29 30  1  0
 29 31  1  0
 29 32  1  0
 32 33  1  0
 32 34  1  0
 32 35  1  0
 35 36  1  0
 35 37  1  0
  6 38  1  0
 38 39  1  0
 38 40  2  0
 40 41  1  0
 40  2  1  0
 35  7  1  0
 24 16  1  0
M  END
>  <cnnaffinity>  (1) 
-5.31353

>  <filename>  (1) 
O=C1N(NCc2ccncc2)CCCCN1c1cccnc1

$$$$
