
     RDKit          3D

 34 36  0  0  0  0  0  0  0  0999 V2000
    4.9559    1.8005   16.8867 H   0  0  0  0  0  0  0  0  0  0  0  0
    5.3851    1.3536   17.7783 C   0  0  0  0  0  0  0  0  0  0  0  0
    6.5691    0.7418   17.6148 N   0  0  0  0  0  0  0  0  0  0  0  0
    7.1066    0.1714   18.7030 C   0  0  0  0  0  0  0  0  0  0  0  0
    8.0613   -0.3262   18.5375 H   0  0  0  0  0  0  0  0  0  0  0  0
    6.5318    0.1833   19.9990 C   0  0  0  0  0  0  0  0  0  0  0  0
    7.1750   -0.5395   21.1472 C   0  0  0  0  0  0  0  0  0  0  0  0
    7.6246   -1.8838   20.9484 C   0  0  0  0  0  0  0  0  0  0  0  0
    7.3144   -2.3758   20.0312 H   0  0  0  0  0  0  0  0  0  0  0  0
    8.3655   -2.5297   21.8852 C   0  0  0  0  0  0  0  0  0  0  0  0
    8.8205   -3.4977   21.7431 H   0  0  0  0  0  0  0  0  0  0  0  0
    8.6340   -1.9324   23.1836 C   0  0  0  0  0  0  0  0  0  0  0  0
    9.3240   -2.4660   24.0429 O   0  0  0  0  0  0  0  0  0  0  0  0
    7.9968   -0.6809   23.4079 N   0  0  0  0  0  0  0  0  0  0  0  0
    8.2756   -0.0264   24.7048 C   0  0  0  0  0  0  0  0  0  0  0  0
    7.4334    0.6268   24.9556 H   0  0  0  0  0  0  0  0  0  0  0  0
    8.3161   -0.8134   25.4589 H   0  0  0  0  0  0  0  0  0  0  0  0
    9.5797    0.7579   24.6868 C   0  0  0  0  0  0  0  0  0  0  0  0
   10.7796    0.1727   25.1184 C   0  0  0  0  0  0  0  0  0  0  0  0
   10.7392   -0.7762   25.6366 H   0  0  0  0  0  0  0  0  0  0  0  0
   12.0051    0.7878   24.8563 C   0  0  0  0  0  0  0  0  0  0  0  0
   12.9293    0.2944   25.1457 H   0  0  0  0  0  0  0  0  0  0  0  0
   12.0441    2.0305   24.2203 C   0  0  0  0  0  0  0  0  0  0  0  0
   12.9859    2.5091   23.9827 H   0  0  0  0  0  0  0  0  0  0  0  0
   10.8440    2.6502   23.8676 C   0  0  0  0  0  0  0  0  0  0  0  0
   10.8843    4.2159   23.1105 Cl  0  0  0  0  0  0  0  0  0  0  0  0
    9.6159    2.0310   24.1026 C   0  0  0  0  0  0  0  0  0  0  0  0
    8.7048    2.5467   23.8164 H   0  0  0  0  0  0  0  0  0  0  0  0
    7.3751    0.0118   22.3872 C   0  0  0  0  0  0  0  0  0  0  0  0
    7.0571    1.0298   22.6079 H   0  0  0  0  0  0  0  0  0  0  0  0
    5.3110    0.8625   20.1347 C   0  0  0  0  0  0  0  0  0  0  0  0
    4.8269    0.9194   21.1107 H   0  0  0  0  0  0  0  0  0  0  0  0
    4.7179    1.4339   19.0044 C   0  0  0  0  0  0  0  0  0  0  0  0
    3.7608    1.9412   19.0649 H   0  0  0  0  0  0  0  0  0  0  0  0
  1  2  1  0
  2  3  2  0
  3  4  1  0
  4  5  1  0
  4  6  2  0
  6  7  1  0
  7  8  1  0
  8  9  1  0
  8 10  2  0
 10 11  1  0
 10 12  1  0
 12 13  2  0
 12 14  1  0
 14 15  1  0
 15 16  1  0
 15 17  1  0
 15 18  1  0
 18 19  2  0
 19 20  1  0
 19 21  1  0
 21 22  1  0
 21 23  2  0
 23 24  1  0
 23 25  1  0
 25 26  1  0
 25 27  2  0
 27 28  1  0
 14 29  1  0
 29 30  1  0
  6 31  1  0
 31 32  1  0
 31 33  2  0
 33 34  1  0
 33  2  1  0
 29  7  2  0
 27 18  1  0
M  END
>  <cnnaffinity>  (1) 
-5.36569

>  <filename>  (1) 
O=c1ccc(-c2cccnc2)cn1Cc1cccc(Cl)c1

$$$$
