
     RDKit          3D

 27 29  0  0  0  0  0  0  0  0999 V2000
    4.9140    1.7747   17.0039 H   0  0  0  0  0  0  0  0  0  0  0  0
    5.4044    1.2920   17.8452 C   0  0  0  0  0  0  0  0  0  0  0  0
    6.5716    0.6806   17.5839 N   0  0  0  0  0  0  0  0  0  0  0  0
    7.1752    0.0547   18.5970 C   0  0  0  0  0  0  0  0  0  0  0  0
    8.1227   -0.4361   18.3772 H   0  0  0  0  0  0  0  0  0  0  0  0
    6.6527    0.0117   19.8959 C   0  0  0  0  0  0  0  0  0  0  0  0
    7.3742   -0.7454   20.9056 C   0  0  0  0  0  0  0  0  0  0  0  0
    7.9467   -1.8872   20.6760 N   0  0  0  0  0  0  0  0  0  0  0  0
    8.4289   -2.2558   21.9021 N   0  0  0  0  0  0  0  0  0  0  0  0
    8.9379   -3.1057   22.0644 H   0  0  0  0  0  0  0  0  0  0  0  0
    8.2071   -1.3562   22.8953 C   0  0  0  0  0  0  0  0  0  0  0  0
    8.5577   -1.4182   24.0568 O   0  0  0  0  0  0  0  0  0  0  0  0
    7.4966   -0.3344   22.2312 N   0  0  0  0  0  0  0  0  0  0  0  0
    7.1340    0.9187   22.8482 C   0  0  0  0  0  0  0  0  0  0  0  0
    7.4075    2.1742   22.2619 C   0  0  0  0  0  0  0  0  0  0  0  0
    7.9000    2.2005   21.2913 H   0  0  0  0  0  0  0  0  0  0  0  0
    7.0808    3.3491   22.8219 N   0  0  0  0  0  0  0  0  0  0  0  0
    6.4768    3.3250   23.9991 C   0  0  0  0  0  0  0  0  0  0  0  0
    6.0616    4.8558   24.7201 Cl  0  0  0  0  0  0  0  0  0  0  0  0
    6.1601    2.1487   24.6899 C   0  0  0  0  0  0  0  0  0  0  0  0
    5.6725    2.1928   25.6582 H   0  0  0  0  0  0  0  0  0  0  0  0
    6.4988    0.9295   24.0981 C   0  0  0  0  0  0  0  0  0  0  0  0
    6.2772   -0.0046   24.6072 H   0  0  0  0  0  0  0  0  0  0  0  0
    5.4329    0.6522   20.1570 C   0  0  0  0  0  0  0  0  0  0  0  0
    5.0067    0.6324   21.1625 H   0  0  0  0  0  0  0  0  0  0  0  0
    4.8024    1.3114   19.1090 C   0  0  0  0  0  0  0  0  0  0  0  0
    3.8724    1.8449   19.2633 H   0  0  0  0  0  0  0  0  0  0  0  0
  1  2  1  0
  2  3  2  0
  3  4  1  0
  4  5  1  0
  4  6  2  0
  6  7  1  0
  7  8  2  0
  8  9  1  0
  9 10  1  0
  9 11  1  0
 11 12  2  0
 11 13  1  0
 13 14  1  0
 14 15  2  0
 15 16  1  0
 15 17  1  0
 17 18  2  0
 18 19  1  0
 18 20  1  0
 20 21  1  0
 20 22  2  0
 22 23  1  0
  6 24  1  0
 24 25  1  0
 24 26  2  0
 26 27  1  0
 26  2  1  0
 13  7  1  0
 22 14  1  0
M  END
>  <cnnaffinity>  (1) 
-5.15249

>  <filename>  (1) 
O=c1[nH]nc(-c2cccnc2)n1-c1ccc(Cl)nc1

$$$$
