
     RDKit          3D

 31 33  0  0  0  0  0  0  0  0999 V2000
    4.9161    1.8147   16.9757 H   0  0  0  0  0  0  0  0  0  0  0  0
    5.3904    1.3143   17.8172 C   0  0  0  0  0  0  0  0  0  0  0  0
    6.5558    0.6974   17.5610 N   0  0  0  0  0  0  0  0  0  0  0  0
    7.1632    0.0790   18.5800 C   0  0  0  0  0  0  0  0  0  0  0  0
    8.1132   -0.3959   18.3305 H   0  0  0  0  0  0  0  0  0  0  0  0
    6.6567    0.0367   19.8993 C   0  0  0  0  0  0  0  0  0  0  0  0
    7.3552   -0.6637   20.9974 C   0  0  0  0  0  0  0  0  0  0  0  0
    7.6498   -0.2872   22.3039 C   0  0  0  0  0  0  0  0  0  0  0  0
    7.2426    0.9103   22.9052 N   0  0  0  0  0  0  0  0  0  0  0  0
    7.0274    1.6017   22.1874 H   0  0  0  0  0  0  0  0  0  0  0  0
    7.9697    1.4354   23.9764 N   0  0  0  0  0  0  0  0  0  0  0  0
    9.3275    1.3804   24.2391 C   0  0  0  0  0  0  0  0  0  0  0  0
   10.2062    0.8332   23.6024 O   0  0  0  0  0  0  0  0  0  0  0  0
    9.5606    2.1882   25.4980 C   0  0  0  0  0  0  0  0  0  0  0  0
   10.1527    3.0509   25.1938 H   0  0  0  0  0  0  0  0  0  0  0  0
   10.1861    1.6099   26.1793 H   0  0  0  0  0  0  0  0  0  0  0  0
    8.1859    2.5677   26.0546 C   0  0  0  0  0  0  0  0  0  0  0  0
    8.1346    3.6257   26.3300 H   0  0  0  0  0  0  0  0  0  0  0  0
    7.9360    1.9752   26.9400 H   0  0  0  0  0  0  0  0  0  0  0  0
    7.2091    2.2562   24.9054 C   0  0  0  0  0  0  0  0  0  0  0  0
    6.8659    3.1813   24.4155 H   0  0  0  0  0  0  0  0  0  0  0  0
    6.3241    1.7001   25.2385 H   0  0  0  0  0  0  0  0  0  0  0  0
    8.3398   -1.3905   22.8610 C   0  0  0  0  0  0  0  0  0  0  0  0
    8.7525   -1.4911   23.8588 H   0  0  0  0  0  0  0  0  0  0  0  0
    8.4607   -2.3812   21.9884 N   0  0  0  0  0  0  0  0  0  0  0  0
    7.8760   -1.9129   20.8716 N   0  0  0  0  0  0  0  0  0  0  0  0
    7.7734   -2.5226   20.0713 H   0  0  0  0  0  0  0  0  0  0  0  0
    5.4355    0.6923   20.1412 C   0  0  0  0  0  0  0  0  0  0  0  0
    5.0033    0.6707   21.1435 H   0  0  0  0  0  0  0  0  0  0  0  0
    4.7928    1.3318   19.0810 C   0  0  0  0  0  0  0  0  0  0  0  0
    3.8524    1.8516   19.2183 H   0  0  0  0  0  0  0  0  0  0  0  0
  1  2  1  0
  2  3  2  0
  3  4  1  0
  4  5  1  0
  4  6  2  0
  6  7  1  0
  7  8  2  0
  8  9  1  0
  9 10  1  0
  9 11  1  0
 11 12  1  0
 12 13  2  0
 12 14  1  0
 14 15  1  0
 14 16  1  0
 14 17  1  0
 17 18  1  0
 17 19  1  0
 17 20  1  0
 20 21  1  0
 20 22  1  0
  8 23  1  0
 23 24  1  0
 23 25  2  0
 25 26  1  0
 26 27  1  0
  6 28  1  0
 28 29  1  0
 28 30  2  0
 30 31  1  0
 30  2  1  0
 26  7  1  0
 20 11  1  0
M  END
>  <cnnaffinity>  (1) 
-4.89139

>  <filename>  (1) 
O=C1CCCN1Nc1cn[nH]c1-c1cccnc1

$$$$
