
     RDKit          3D

 31 33  0  0  0  0  0  0  0  0999 V2000
    4.9698    1.7549   17.0342 H   0  0  0  0  0  0  0  0  0  0  0  0
    5.4359    1.2468   17.8778 C   0  0  0  0  0  0  0  0  0  0  0  0
    6.5992    0.6186   17.6294 N   0  0  0  0  0  0  0  0  0  0  0  0
    7.2003    0.0137   18.6565 C   0  0  0  0  0  0  0  0  0  0  0  0
    8.1498   -0.4805   18.4708 H   0  0  0  0  0  0  0  0  0  0  0  0
    6.6840   -0.0222   19.9607 C   0  0  0  0  0  0  0  0  0  0  0  0
    7.5058   -0.6273   20.8900 O   0  0  0  0  0  0  0  0  0  0  0  0
    6.9944   -1.2948   21.9774 C   0  0  0  0  0  0  0  0  0  0  0  0
    7.5074   -1.0096   23.1837 C   0  0  0  0  0  0  0  0  0  0  0  0
    8.3095   -0.2834   23.2798 H   0  0  0  0  0  0  0  0  0  0  0  0
    7.0297   -1.6193   24.3464 N   0  0  0  0  0  0  0  0  0  0  0  0
    7.6708   -1.3169   25.6073 C   0  0  0  0  0  0  0  0  0  0  0  0
    9.0347   -1.6037   25.8330 C   0  0  0  0  0  0  0  0  0  0  0  0
    9.6215   -2.1025   25.0618 H   0  0  0  0  0  0  0  0  0  0  0  0
    9.6694   -1.3158   26.9748 N   0  0  0  0  0  0  0  0  0  0  0  0
    8.9834   -0.6999   27.9417 C   0  0  0  0  0  0  0  0  0  0  0  0
    9.5271   -0.4903   28.8628 H   0  0  0  0  0  0  0  0  0  0  0  0
    7.6295   -0.3677   27.8134 C   0  0  0  0  0  0  0  0  0  0  0  0
    7.1222    0.1210   28.6390 H   0  0  0  0  0  0  0  0  0  0  0  0
    6.9474   -0.7122   26.6422 C   0  0  0  0  0  0  0  0  0  0  0  0
    5.8784   -0.5345   26.5335 H   0  0  0  0  0  0  0  0  0  0  0  0
    5.8769   -2.4397   24.2870 C   0  0  0  0  0  0  0  0  0  0  0  0
    5.1706   -2.7405   25.2173 O   0  0  0  0  0  0  0  0  0  0  0  0
    5.6395   -2.9631   23.0458 N   0  0  0  0  0  0  0  0  0  0  0  0
    4.8319   -3.5538   23.0064 H   0  0  0  0  0  0  0  0  0  0  0  0
    6.0201   -2.4057   21.8419 C   0  0  0  0  0  0  0  0  0  0  0  0
    5.5472   -2.8552   20.8227 O   0  0  0  0  0  0  0  0  0  0  0  0
    5.4691    0.6203   20.2219 C   0  0  0  0  0  0  0  0  0  0  0  0
    5.0326    0.6368   21.2228 H   0  0  0  0  0  0  0  0  0  0  0  0
    4.8403    1.2667   19.1407 C   0  0  0  0  0  0  0  0  0  0  0  0
    3.9031    1.7965   19.2754 H   0  0  0  0  0  0  0  0  0  0  0  0
  1  2  1  0
  2  3  2  0
  3  4  1  0
  4  5  1  0
  4  6  2  0
  6  7  1  0
  7  8  1  0
  8  9  2  0
  9 10  1  0
  9 11  1  0
 11 12  1  0
 12 13  2  0
 13 14  1  0
 13 15  1  0
 15 16  2  0
 16 17  1  0
 16 18  1  0
 18 19  1  0
 18 20  2  0
 20 21  1  0
 11 22  1  0
 22 23  2  0
 22 24  1  0
 24 25  1  0
 24 26  1  0
 26 27  2  0
  6 28  1  0
 28 29  1  0
 28 30  2  0
 30 31  1  0
 30  2  1  0
 26  8  1  0
 20 12  1  0
M  END
>  <cnnaffinity>  (1) 
-5.21202

>  <filename>  (1) 
O=c1[nH]c(=O)n(-c2cccnc2)cc1Oc1cccnc1

$$$$
