
     RDKit          3D

 34 36  0  0  0  0  0  0  0  0999 V2000
    4.9960    1.7953   17.0138 H   0  0  0  0  0  0  0  0  0  0  0  0
    5.4455    1.2761   17.8569 C   0  0  0  0  0  0  0  0  0  0  0  0
    6.5997    0.6361   17.6155 N   0  0  0  0  0  0  0  0  0  0  0  0
    7.1813    0.0070   18.6432 C   0  0  0  0  0  0  0  0  0  0  0  0
    8.1206   -0.5041   18.4229 H   0  0  0  0  0  0  0  0  0  0  0  0
    6.6462   -0.0457   19.9433 C   0  0  0  0  0  0  0  0  0  0  0  0
    7.3948   -0.7878   20.9945 C   0  0  0  0  0  0  0  0  0  0  0  0
    6.4293   -1.7941   22.0494 S   0  0  0  0  0  0  0  0  0  0  0  0
    7.5857   -2.3872   23.1995 C   0  0  0  0  0  0  0  0  0  0  0  0
    6.8890   -3.1021   24.0950 O   0  0  0  0  0  0  0  0  0  0  0  0
    7.4974   -3.8168   25.1795 C   0  0  0  0  0  0  0  0  0  0  0  0
    6.6274   -4.3139   25.6095 H   0  0  0  0  0  0  0  0  0  0  0  0
    8.1617   -2.9251   26.2351 C   0  0  0  0  0  0  0  0  0  0  0  0
    7.4277   -2.5565   26.9597 H   0  0  0  0  0  0  0  0  0  0  0  0
    8.6270   -2.0514   25.7723 H   0  0  0  0  0  0  0  0  0  0  0  0
    9.2513   -3.8011   26.8582 C   0  0  0  0  0  0  0  0  0  0  0  0
   10.0238   -3.1948   27.3330 H   0  0  0  0  0  0  0  0  0  0  0  0
    8.8290   -4.4467   27.6374 H   0  0  0  0  0  0  0  0  0  0  0  0
    9.7678   -4.6659   25.6942 C   0  0  0  0  0  0  0  0  0  0  0  0
   10.1672   -5.6238   26.0421 H   0  0  0  0  0  0  0  0  0  0  0  0
   10.5802   -4.1621   25.1453 H   0  0  0  0  0  0  0  0  0  0  0  0
    8.5333   -4.8941   24.7942 C   0  0  0  0  0  0  0  0  0  0  0  0
    8.7887   -4.8814   23.7340 H   0  0  0  0  0  0  0  0  0  0  0  0
    8.0882   -5.8764   24.9854 H   0  0  0  0  0  0  0  0  0  0  0  0
    8.9177   -2.1740   23.1542 C   0  0  0  0  0  0  0  0  0  0  0  0
    9.6009   -2.6095   23.8763 H   0  0  0  0  0  0  0  0  0  0  0  0
    9.5664   -1.3544   22.1347 C   0  0  0  0  0  0  0  0  0  0  0  0
   10.7784   -1.2062   22.1338 O   0  0  0  0  0  0  0  0  0  0  0  0
    8.7365   -0.7054   21.1097 C   0  0  0  0  0  0  0  0  0  0  0  0
    9.3215   -0.0912   20.4345 H   0  0  0  0  0  0  0  0  0  0  0  0
    5.4350    0.6353   20.1738 C   0  0  0  0  0  0  0  0  0  0  0  0
    4.9967    0.6615   21.1716 H   0  0  0  0  0  0  0  0  0  0  0  0
    4.8261    1.3008   19.1104 C   0  0  0  0  0  0  0  0  0  0  0  0
    3.8965    1.8438   19.2427 H   0  0  0  0  0  0  0  0  0  0  0  0
  1  2  1  0
  2  3  2  0
  3  4  1  0
  4  5  1  0
  4  6  2  0
  6  7  1  0
  7  8  1  0
  8  9  1  0
  9 10  1  0
 10 11  1  0
 11 12  1  0
 11 13  1  0
 13 14  1  0
 13 15  1  0
 13 16  1  0
 16 17  1  0
 16 18  1  0
 16 19  1  0
 19 20  1  0
 19 21  1  0
 19 22  1  0
 22 23  1  0
 22 24  1  0
  9 25  2  0
 25 26  1  0
 25 27  1  0
 27 28  2  0
 27 29  1  0
 29 30  1  0
  6 31  1  0
 31 32  1  0
 31 33  2  0
 33 34  1  0
 33  2  1  0
 29  7  2  0
 22 11  1  0
M  END
>  <cnnaffinity>  (1) 
-5.37574

>  <filename>  (1) 
O=c1cc(OC2CCCC2)sc(-c2cccnc2)c1

$$$$
