
     RDKit          3D

 40 42  0  0  0  0  0  0  0  0999 V2000
    4.9279    1.8724   16.9559 H   0  0  0  0  0  0  0  0  0  0  0  0
    5.4079    1.3461   17.7751 C   0  0  0  0  0  0  0  0  0  0  0  0
    6.5631    0.7305   17.4714 N   0  0  0  0  0  0  0  0  0  0  0  0
    7.1902    0.0811   18.4596 C   0  0  0  0  0  0  0  0  0  0  0  0
    8.1430   -0.3953   18.2261 H   0  0  0  0  0  0  0  0  0  0  0  0
    6.6800   -0.0064   19.7718 C   0  0  0  0  0  0  0  0  0  0  0  0
    7.3780   -0.7090   20.8276 N   0  0  0  0  0  0  0  0  0  0  0  0
    6.7607   -1.8265   21.4551 C   0  0  0  0  0  0  0  0  0  0  0  0
    5.6587   -2.2011   21.1050 O   0  0  0  0  0  0  0  0  0  0  0  0
    7.5172   -2.4914   22.4691 C   0  0  0  0  0  0  0  0  0  0  0  0
    7.0177   -3.3073   22.9494 H   0  0  0  0  0  0  0  0  0  0  0  0
    8.7199   -2.0185   22.8373 C   0  0  0  0  0  0  0  0  0  0  0  0
    9.5857   -2.5227   23.7051 O   0  0  0  0  0  0  0  0  0  0  0  0
    9.1935   -3.7053   24.4057 C   0  0  0  0  0  0  0  0  0  0  0  0
    8.6991   -4.4168   23.7271 H   0  0  0  0  0  0  0  0  0  0  0  0
   10.1387   -4.1613   24.7138 H   0  0  0  0  0  0  0  0  0  0  0  0
    8.3758   -3.4197   25.6761 C   0  0  0  0  0  0  0  0  0  0  0  0
    9.0570   -2.8191   26.3041 H   0  0  0  0  0  0  0  0  0  0  0  0
    7.0819   -2.5662   25.5775 C   0  0  0  0  0  0  0  0  0  0  0  0
    6.3339   -3.0362   24.9271 H   0  0  0  0  0  0  0  0  0  0  0  0
    7.2816   -1.5658   25.1710 H   0  0  0  0  0  0  0  0  0  0  0  0
    6.4419   -2.4099   26.9622 C   0  0  0  0  0  0  0  0  0  0  0  0
    7.1126   -1.7847   27.5849 H   0  0  0  0  0  0  0  0  0  0  0  0
    5.4975   -1.8646   26.8755 H   0  0  0  0  0  0  0  0  0  0  0  0
    6.1666   -3.7256   27.5335 N   0  0  0  0  0  0  0  0  0  0  0  0
    5.6377   -3.6389   28.3951 H   0  0  0  0  0  0  0  0  0  0  0  0
    7.3785   -4.5161   27.7331 C   0  0  0  0  0  0  0  0  0  0  0  0
    7.1184   -5.4643   28.2140 H   0  0  0  0  0  0  0  0  0  0  0  0
    8.1147   -4.0291   28.3926 H   0  0  0  0  0  0  0  0  0  0  0  0
    8.0320   -4.7537   26.3742 C   0  0  0  0  0  0  0  0  0  0  0  0
    7.3037   -5.2997   25.7574 H   0  0  0  0  0  0  0  0  0  0  0  0
    8.9264   -5.3842   26.4683 H   0  0  0  0  0  0  0  0  0  0  0  0
    9.1814   -0.8734   22.3003 N   0  0  0  0  0  0  0  0  0  0  0  0
   10.0775   -0.5125   22.5598 H   0  0  0  0  0  0  0  0  0  0  0  0
    8.5913   -0.1903   21.2802 C   0  0  0  0  0  0  0  0  0  0  0  0
    9.1350    0.7789   20.8077 O   0  0  0  0  0  0  0  0  0  0  0  0
    5.4739    0.6233   20.0690 C   0  0  0  0  0  0  0  0  0  0  0  0
    5.0699    0.5596   21.0779 H   0  0  0  0  0  0  0  0  0  0  0  0
    4.8284    1.3235   19.0468 C   0  0  0  0  0  0  0  0  0  0  0  0
    3.9016    1.8500   19.2292 H   0  0  0  0  0  0  0  0  0  0  0  0
  1  2  1  0
  2  3  2  0
  3  4  1  0
  4  5  1  0
  4  6  2  0
  6  7  1  0
  7  8  1  0
  8  9  2  0
  8 10  1  0
 10 11  1  0
 10 12  2  0
 12 13  1  0
 13 14  1  0
 14 15  1  0
 14 16  1  0
 14 17  1  0
 17 18  1  0
 17 19  1  0
 19 20  1  0
 19 21  1  0
 19 22  1  0
 22 23  1  0
 22 24  1  0
 22 25  1  0
 25 26  1  0
 25 27  1  0
 27 28  1  0
 27 29  1  0
 27 30  1  0
 30 31  1  0
 30 32  1  0
 12 33  1  0
 33 34  1  0
 33 35  1  0
 35 36  2  0
  6 37  1  0
 37 38  1  0
 37 39  2  0
 39 40  1  0
 39  2  1  0
 35  7  1  0
 30 17  1  0
M  END
>  <cnnaffinity>  (1) 
-5.04137

>  <filename>  (1) 
O=c1cc(OCC2CCNCC2)[nH]c(=O)n1-c1cccnc1

$$$$
