
     RDKit          3D

 37 39  0  0  0  0  0  0  0  0999 V2000
    5.0102    1.8932   16.8871 H   0  0  0  0  0  0  0  0  0  0  0  0
    5.4302    1.4020   17.7650 C   0  0  0  0  0  0  0  0  0  0  0  0
    6.6053    0.7773   17.5867 N   0  0  0  0  0  0  0  0  0  0  0  0
    7.1454    0.1569   18.6441 C   0  0  0  0  0  0  0  0  0  0  0  0
    8.1129   -0.3218   18.5044 H   0  0  0  0  0  0  0  0  0  0  0  0
    6.5345    0.0994   19.9110 C   0  0  0  0  0  0  0  0  0  0  0  0
    7.1464   -0.6145   21.0096 N   0  0  0  0  0  0  0  0  0  0  0  0
    7.8399    0.1031   21.9680 C   0  0  0  0  0  0  0  0  0  0  0  0
    7.7534    1.1854   21.8883 H   0  0  0  0  0  0  0  0  0  0  0  0
    8.5750   -0.5292   22.9338 C   0  0  0  0  0  0  0  0  0  0  0  0
    9.0557    0.0656   23.7032 H   0  0  0  0  0  0  0  0  0  0  0  0
    8.6309   -1.9637   22.9727 C   0  0  0  0  0  0  0  0  0  0  0  0
    9.3823   -2.7679   24.0412 C   0  0  0  0  0  0  0  0  0  0  0  0
    9.8709   -2.0735   24.7452 H   0  0  0  0  0  0  0  0  0  0  0  0
   10.1747   -3.3483   23.5512 H   0  0  0  0  0  0  0  0  0  0  0  0
    8.4642   -3.7190   24.6890 N   0  0  0  0  0  0  0  0  0  0  0  0
    7.3922   -3.0965   25.4727 C   0  0  0  0  0  0  0  0  0  0  0  0
    6.5248   -3.7744   25.4880 H   0  0  0  0  0  0  0  0  0  0  0  0
    7.0662   -2.1809   24.9699 H   0  0  0  0  0  0  0  0  0  0  0  0
    7.8351   -2.7803   26.9108 C   0  0  0  0  0  0  0  0  0  0  0  0
    8.6181   -2.0026   26.8833 H   0  0  0  0  0  0  0  0  0  0  0  0
    6.9930   -2.4086   27.5012 H   0  0  0  0  0  0  0  0  0  0  0  0
    8.3206   -3.9390   27.5788 O   0  0  0  0  0  0  0  0  0  0  0  0
    9.3770   -4.5782   26.8685 C   0  0  0  0  0  0  0  0  0  0  0  0
    9.5733   -5.5104   27.4040 H   0  0  0  0  0  0  0  0  0  0  0  0
   10.2868   -3.9650   26.9004 H   0  0  0  0  0  0  0  0  0  0  0  0
    8.9948   -4.8756   25.4088 C   0  0  0  0  0  0  0  0  0  0  0  0
    8.2052   -5.6409   25.4356 H   0  0  0  0  0  0  0  0  0  0  0  0
    9.8435   -5.3130   24.8713 H   0  0  0  0  0  0  0  0  0  0  0  0
    7.9129   -2.6689   22.0433 C   0  0  0  0  0  0  0  0  0  0  0  0
    7.8884   -3.7455   22.0393 H   0  0  0  0  0  0  0  0  0  0  0  0
    7.0414   -2.0485   21.0685 C   0  0  0  0  0  0  0  0  0  0  0  0
    6.2682   -2.6668   20.3599 O   0  0  0  0  0  0  0  0  0  0  0  0
    5.3299    0.7801   20.0910 C   0  0  0  0  0  0  0  0  0  0  0  0
    4.8703    0.7911   21.0768 H   0  0  0  0  0  0  0  0  0  0  0  0
    4.7599    1.4380   18.9923 C   0  0  0  0  0  0  0  0  0  0  0  0
    3.8118    1.9566   19.0705 H   0  0  0  0  0  0  0  0  0  0  0  0
  1  2  1  0
  2  3  2  0
  3  4  1  0
  4  5  1  0
  4  6  2  0
  6  7  1  0
  7  8  1  0
  8  9  1  0
  8 10  2  0
 10 11  1  0
 10 12  1  0
 12 13  1  0
 13 14  1  0
 13 15  1  0
 13 16  1  0
 16 17  1  0
 17 18  1  0
 17 19  1  0
 17 20  1  0
 20 21  1  0
 20 22  1  0
 20 23  1  0
 23 24  1  0
 24 25  1  0
 24 26  1  0
 24 27  1  0
 27 28  1  0
 27 29  1  0
 12 30  2  0
 30 31  1  0
 30 32  1  0
 32 33  2  0
  6 34  1  0
 34 35  1  0
 34 36  2  0
 36 37  1  0
 36  2  1  0
 32  7  1  0
 27 16  1  0
M  END
>  <cnnaffinity>  (1) 
-4.91305

>  <filename>  (1) 
O=c1cc(CN2CCOCC2)ccn1-c1cccnc1

$$$$
