
     RDKit          3D

 35 37  0  0  0  0  0  0  0  0999 V2000
    4.9145    1.7768   17.0005 H   0  0  0  0  0  0  0  0  0  0  0  0
    5.4022    1.2925   17.8449 C   0  0  0  0  0  0  0  0  0  0  0  0
    6.5647    0.6720   17.5865 N   0  0  0  0  0  0  0  0  0  0  0  0
    7.1727    0.0492   18.6027 C   0  0  0  0  0  0  0  0  0  0  0  0
    8.1245   -0.4263   18.3807 H   0  0  0  0  0  0  0  0  0  0  0  0
    6.6434   -0.0181   19.9061 C   0  0  0  0  0  0  0  0  0  0  0  0
    7.3276   -0.7183   20.9496 N   0  0  0  0  0  0  0  0  0  0  0  0
    6.5562   -1.6378   21.6518 N   0  0  0  0  0  0  0  0  0  0  0  0
    7.1227   -2.3024   22.6371 C   0  0  0  0  0  0  0  0  0  0  0  0
    6.4018   -3.2683   23.3355 N   0  0  0  0  0  0  0  0  0  0  0  0
    6.3441   -3.2590   24.8071 C   0  0  0  0  0  0  0  0  0  0  0  0
    7.2507   -2.8119   25.2277 H   0  0  0  0  0  0  0  0  0  0  0  0
    5.5027   -2.6436   25.1766 H   0  0  0  0  0  0  0  0  0  0  0  0
    6.1858   -4.6822   25.3540 C   0  0  0  0  0  0  0  0  0  0  0  0
    7.0988   -5.2508   25.1400 H   0  0  0  0  0  0  0  0  0  0  0  0
    6.0796   -4.6564   26.4455 H   0  0  0  0  0  0  0  0  0  0  0  0
    4.9825   -5.3886   24.7245 C   0  0  0  0  0  0  0  0  0  0  0  0
    4.0561   -4.8811   25.0327 H   0  0  0  0  0  0  0  0  0  0  0  0
    4.9133   -6.4221   25.0838 H   0  0  0  0  0  0  0  0  0  0  0  0
    5.0955   -5.3595   23.1992 C   0  0  0  0  0  0  0  0  0  0  0  0
    5.9575   -5.9608   22.8844 H   0  0  0  0  0  0  0  0  0  0  0  0
    4.2101   -5.8149   22.7415 H   0  0  0  0  0  0  0  0  0  0  0  0
    5.2746   -3.9298   22.6721 C   0  0  0  0  0  0  0  0  0  0  0  0
    4.3385   -3.3637   22.8130 H   0  0  0  0  0  0  0  0  0  0  0  0
    5.4614   -3.9554   21.5949 H   0  0  0  0  0  0  0  0  0  0  0  0
    8.5253   -2.1114   22.9718 C   0  0  0  0  0  0  0  0  0  0  0  0
    8.9659   -2.7297   23.7530 H   0  0  0  0  0  0  0  0  0  0  0  0
    9.2731   -1.2186   22.2807 C   0  0  0  0  0  0  0  0  0  0  0  0
   10.3214   -1.0164   22.4720 H   0  0  0  0  0  0  0  0  0  0  0  0
    8.7107   -0.4053   21.2032 C   0  0  0  0  0  0  0  0  0  0  0  0
    9.3300    0.4343   20.5706 O   0  0  0  0  0  0  0  0  0  0  0  0
    5.4365    0.6403   20.1669 C   0  0  0  0  0  0  0  0  0  0  0  0
    5.0157    0.6109   21.1715 H   0  0  0  0  0  0  0  0  0  0  0  0
    4.8096    1.3145   19.1134 C   0  0  0  0  0  0  0  0  0  0  0  0
    3.8746    1.8455   19.2646 H   0  0  0  0  0  0  0  0  0  0  0  0
  1  2  1  0
  2  3  2  0
  3  4  1  0
  4  5  1  0
  4  6  2  0
  6  7  1  0
  7  8  1  0
  8  9  2  0
  9 10  1  0
 10 11  1  0
 11 12  1  0
 11 13  1  0
 11 14  1  0
 14 15  1  0
 14 16  1  0
 14 17  1  0
 17 18  1  0
 17 19  1  0
 17 20  1  0
 20 21  1  0
 20 22  1  0
 20 23  1  0
 23 24  1  0
 23 25  1  0
  9 26  1  0
 26 27  1  0
 26 28  2  0
 28 29  1  0
 28 30  1  0
 30 31  2  0
  6 32  1  0
 32 33  1  0
 32 34  2  0
 34 35  1  0
 34  2  1  0
 30  7  1  0
 23 10  1  0
M  END
>  <cnnaffinity>  (1) 
-5.06966

>  <filename>  (1) 
O=c1ccc(N2CCCCC2)nn1-c1cccnc1

$$$$
