
     RDKit          3D

 40 42  0  0  0  0  0  0  0  0999 V2000
    4.9319    1.8120   17.0140 H   0  0  0  0  0  0  0  0  0  0  0  0
    5.4104    1.2985   17.8449 C   0  0  0  0  0  0  0  0  0  0  0  0
    6.5772    0.6849   17.5722 N   0  0  0  0  0  0  0  0  0  0  0  0
    7.1990    0.0497   18.5763 C   0  0  0  0  0  0  0  0  0  0  0  0
    8.1394   -0.4480   18.3387 H   0  0  0  0  0  0  0  0  0  0  0  0
    6.6880   -0.0230   19.8970 C   0  0  0  0  0  0  0  0  0  0  0  0
    7.3575   -0.6957   20.9630 N   0  0  0  0  0  0  0  0  0  0  0  0
    7.4719   -2.0793   21.0242 C   0  0  0  0  0  0  0  0  0  0  0  0
    6.6972   -2.9132   20.6156 O   0  0  0  0  0  0  0  0  0  0  0  0
    8.6693   -2.3396   21.6374 N   0  0  0  0  0  0  0  0  0  0  0  0
    8.7703   -3.3104   21.8744 H   0  0  0  0  0  0  0  0  0  0  0  0
    9.1625   -1.2014   22.3889 C   0  0  0  0  0  0  0  0  0  0  0  0
   10.2417   -1.0661   22.2763 H   0  0  0  0  0  0  0  0  0  0  0  0
    8.9510   -1.3023   23.4640 H   0  0  0  0  0  0  0  0  0  0  0  0
    8.3698   -0.0205   21.7783 C   0  0  2  0  0  0  0  0  0  0  0  0
    9.0233    0.5757   21.1201 H   0  0  0  0  0  0  0  0  0  0  0  0
    7.7008    0.8874   22.8168 C   0  0  0  0  0  0  0  0  0  0  0  0
    7.0286    0.2611   23.4231 H   0  0  0  0  0  0  0  0  0  0  0  0
    7.0568    1.6036   22.2864 H   0  0  0  0  0  0  0  0  0  0  0  0
    8.6755    1.6557   23.7251 C   0  0  0  0  0  0  0  0  0  0  0  0
    9.4171    0.9482   24.1406 H   0  0  0  0  0  0  0  0  0  0  0  0
    9.4499    2.7419   22.9489 C   0  0  0  0  0  0  0  0  0  0  0  0
   10.0279    2.2925   22.1328 H   0  0  0  0  0  0  0  0  0  0  0  0
    8.7199    3.4180   22.4735 H   0  0  0  0  0  0  0  0  0  0  0  0
   10.3755    3.5683   23.8537 C   0  0  0  0  0  0  0  0  0  0  0  0
   10.8845    4.3446   23.2680 H   0  0  0  0  0  0  0  0  0  0  0  0
   11.1691    2.9173   24.2507 H   0  0  0  0  0  0  0  0  0  0  0  0
    9.5880    4.1843   25.0204 C   0  0  0  0  0  0  0  0  0  0  0  0
    8.8305    4.8693   24.6110 H   0  0  0  0  0  0  0  0  0  0  0  0
   10.2375    4.7986   25.6549 H   0  0  0  0  0  0  0  0  0  0  0  0
    8.8704    3.0919   25.8310 C   0  0  0  0  0  0  0  0  0  0  0  0
    9.6129    2.4094   26.2710 H   0  0  0  0  0  0  0  0  0  0  0  0
    8.3155    3.5227   26.6737 H   0  0  0  0  0  0  0  0  0  0  0  0
    7.9338    2.2760   24.9261 C   0  0  0  0  0  0  0  0  0  0  0  0
    7.4423    1.4824   25.5042 H   0  0  0  0  0  0  0  0  0  0  0  0
    7.1312    2.9295   24.5490 H   0  0  0  0  0  0  0  0  0  0  0  0
    5.4761    0.6270   20.1557 C   0  0  0  0  0  0  0  0  0  0  0  0
    5.0857    0.5866   21.1712 H   0  0  0  0  0  0  0  0  0  0  0  0
    4.8133    1.2971   19.1144 C   0  0  0  0  0  0  0  0  0  0  0  0
    3.8734    1.8232   19.2805 H   0  0  0  0  0  0  0  0  0  0  0  0
  1  2  1  0
  2  3  2  0
  3  4  1  0
  4  5  1  0
  4  6  2  0
  6  7  1  0
  7  8  1  0
  8  9  2  0
  8 10  1  0
 10 11  1  0
 10 12  1  0
 12 13  1  0
 12 14  1  0
 12 15  1  0
 15 16  1  6
 15 17  1  0
 17 18  1  0
 17 19  1  0
 17 20  1  0
 20 21  1  0
 20 22  1  0
 22 23  1  0
 22 24  1  0
 22 25  1  0
 25 26  1  0
 25 27  1  0
 25 28  1  0
 28 29  1  0
 28 30  1  0
 28 31  1  0
 31 32  1  0
 31 33  1  0
 31 34  1  0
 34 35  1  0
 34 36  1  0
  6 37  1  0
 37 38  1  0
 37 39  2  0
 39 40  1  0
 39  2  1  0
 15  7  1  0
 34 20  1  0
M  END
>  <cnnaffinity>  (1) 
-5.09549

>  <filename>  (1) 
O=C1NC[C@H](CC2CCCCC2)N1c1cccnc1

$$$$
