
     RDKit          3D

 32 34  0  0  0  0  0  0  0  0999 V2000
    4.9192    1.7980   16.9740 H   0  0  0  0  0  0  0  0  0  0  0  0
    5.3917    1.3000   17.8180 C   0  0  0  0  0  0  0  0  0  0  0  0
    6.5560    0.6812   17.5602 N   0  0  0  0  0  0  0  0  0  0  0  0
    7.1609    0.0581   18.5791 C   0  0  0  0  0  0  0  0  0  0  0  0
    8.1201   -0.4025   18.3403 H   0  0  0  0  0  0  0  0  0  0  0  0
    6.6444    0.0061   19.8871 C   0  0  0  0  0  0  0  0  0  0  0  0
    7.3332   -0.6577   20.9914 C   0  0  0  0  0  0  0  0  0  0  0  0
    7.2432   -0.4294   22.3195 C   0  0  0  0  0  0  0  0  0  0  0  0
    6.6515    0.2979   22.8555 H   0  0  0  0  0  0  0  0  0  0  0  0
    8.1091   -1.2931   22.9641 N   0  0  0  0  0  0  0  0  0  0  0  0
    8.1982   -1.4943   24.3974 C   0  0  0  0  0  0  0  0  0  0  0  0
    9.2085   -1.8456   24.6162 H   0  0  0  0  0  0  0  0  0  0  0  0
    8.0768   -0.5114   24.8670 H   0  0  0  0  0  0  0  0  0  0  0  0
    7.1494   -2.4630   24.9110 C   0  0  0  0  0  0  0  0  0  0  0  0
    7.4392   -3.8288   25.0292 C   0  0  0  0  0  0  0  0  0  0  0  0
    8.4328   -4.1889   24.7746 H   0  0  0  0  0  0  0  0  0  0  0  0
    6.4552   -4.7276   25.4538 C   0  0  0  0  0  0  0  0  0  0  0  0
    6.6898   -5.7850   25.5420 H   0  0  0  0  0  0  0  0  0  0  0  0
    5.1694   -4.2737   25.7626 C   0  0  0  0  0  0  0  0  0  0  0  0
    4.3898   -4.9528   26.0962 H   0  0  0  0  0  0  0  0  0  0  0  0
    4.8864   -2.9117   25.6404 C   0  0  0  0  0  0  0  0  0  0  0  0
    3.2852   -2.3336   26.0075 Cl  0  0  0  0  0  0  0  0  0  0  0  0
    5.8602   -2.0050   25.2212 C   0  0  0  0  0  0  0  0  0  0  0  0
    5.5932   -0.9551   25.1238 H   0  0  0  0  0  0  0  0  0  0  0  0
    8.7073   -2.1346   22.0404 C   0  0  0  0  0  0  0  0  0  0  0  0
    9.4534   -3.0723   22.2256 O   0  0  0  0  0  0  0  0  0  0  0  0
    8.2538   -1.6769   20.8273 N   0  0  0  0  0  0  0  0  0  0  0  0
    8.5200   -2.1736   19.9994 H   0  0  0  0  0  0  0  0  0  0  0  0
    5.4272    0.6613   20.1325 C   0  0  0  0  0  0  0  0  0  0  0  0
    4.9946    0.6398   21.1360 H   0  0  0  0  0  0  0  0  0  0  0  0
    4.7944    1.3201   19.0828 C   0  0  0  0  0  0  0  0  0  0  0  0
    3.8636    1.8518   19.2367 H   0  0  0  0  0  0  0  0  0  0  0  0
  1  2  1  0
  2  3  2  0
  3  4  1  0
  4  5  1  0
  4  6  2  0
  6  7  1  0
  7  8  2  0
  8  9  1  0
  8 10  1  0
 10 11  1  0
 11 12  1  0
 11 13  1  0
 11 14  1  0
 14 15  2  0
 15 16  1  0
 15 17  1  0
 17 18  1  0
 17 19  2  0
 19 20  1  0
 19 21  1  0
 21 22  1  0
 21 23  2  0
 23 24  1  0
 10 25  1  0
 25 26  2  0
 25 27  1  0
 27 28  1  0
  6 29  1  0
 29 30  1  0
 29 31  2  0
 31 32  1  0
 31  2  1  0
 27  7  1  0
 23 14  1  0
M  END
>  <cnnaffinity>  (1) 
-5.40638

>  <filename>  (1) 
O=c1[nH]c(-c2cccnc2)cn1Cc1cccc(Cl)c1

$$$$
