
     RDKit          3D

 35 38  0  0  0  0  0  0  0  0999 V2000
    4.9186    1.7747   17.0002 H   0  0  0  0  0  0  0  0  0  0  0  0
    5.4056    1.2905   17.8430 C   0  0  0  0  0  0  0  0  0  0  0  0
    6.5708    0.6725   17.5884 N   0  0  0  0  0  0  0  0  0  0  0  0
    7.1716    0.0593   18.6132 C   0  0  0  0  0  0  0  0  0  0  0  0
    8.1155   -0.4309   18.3753 H   0  0  0  0  0  0  0  0  0  0  0  0
    6.6386    0.0040   19.9105 C   0  0  0  0  0  0  0  0  0  0  0  0
    7.3287   -0.7253   20.9991 C   0  0  0  0  0  0  0  0  0  0  0  0
    6.5715   -1.3034   21.9102 N   0  0  0  0  0  0  0  0  0  0  0  0
    7.1776   -1.9512   22.9565 N   0  0  0  0  0  0  0  0  0  0  0  0
    6.2976   -2.5198   23.9516 C   0  0  0  0  0  0  0  0  0  0  0  0
    5.1637   -3.3114   23.5580 C   0  0  0  0  0  0  0  0  0  0  0  0
    4.9922   -3.4579   22.4947 H   0  0  0  0  0  0  0  0  0  0  0  0
    4.3278   -3.8856   24.3970 N   0  0  0  0  0  0  0  0  0  0  0  0
    4.5466   -3.6953   25.7478 C   0  0  0  0  0  0  0  0  0  0  0  0
    3.6517   -4.2804   26.6965 C   0  0  0  0  0  0  0  0  0  0  0  0
    2.8216   -4.8601   26.3080 H   0  0  0  0  0  0  0  0  0  0  0  0
    3.8446   -4.1077   28.0535 C   0  0  0  0  0  0  0  0  0  0  0  0
    3.1595   -4.5561   28.7749 H   0  0  0  0  0  0  0  0  0  0  0  0
    4.9437   -3.3375   28.5349 C   0  0  0  0  0  0  0  0  0  0  0  0
    5.0813   -3.2115   29.6091 H   0  0  0  0  0  0  0  0  0  0  0  0
    5.8198   -2.7559   27.6443 C   0  0  0  0  0  0  0  0  0  0  0  0
    6.6564   -2.1425   27.9751 H   0  0  0  0  0  0  0  0  0  0  0  0
    5.6468   -2.9218   26.2388 C   0  0  0  0  0  0  0  0  0  0  0  0
    6.5367   -2.3353   25.2943 C   0  0  0  0  0  0  0  0  0  0  0  0
    7.3832   -1.7501   25.6461 H   0  0  0  0  0  0  0  0  0  0  0  0
    8.6086   -2.1044   23.1165 C   0  0  0  0  0  0  0  0  0  0  0  0
    9.1088   -2.7423   24.0255 O   0  0  0  0  0  0  0  0  0  0  0  0
    9.3733   -1.4341   22.0691 C   0  0  0  0  0  0  0  0  0  0  0  0
   10.4480   -1.5319   22.1749 H   0  0  0  0  0  0  0  0  0  0  0  0
    8.7690   -0.7713   21.0507 C   0  0  0  0  0  0  0  0  0  0  0  0
    9.3583   -0.2511   20.2937 H   0  0  0  0  0  0  0  0  0  0  0  0
    5.4242    0.6547   20.1604 C   0  0  0  0  0  0  0  0  0  0  0  0
    5.0016    0.6238   21.1671 H   0  0  0  0  0  0  0  0  0  0  0  0
    4.8034    1.3170   19.1061 C   0  0  0  0  0  0  0  0  0  0  0  0
    3.8705    1.8477   19.2587 H   0  0  0  0  0  0  0  0  0  0  0  0
  1  2  1  0
  2  3  2  0
  3  4  1  0
  4  5  1  0
  4  6  2  0
  6  7  1  0
  7  8  2  0
  8  9  1  0
  9 10  1  0
 10 11  2  0
 11 12  1  0
 11 13  1  0
 13 14  2  0
 14 15  1  0
 15 16  1  0
 15 17  2  0
 17 18  1  0
 17 19  1  0
 19 20  1  0
 19 21  2  0
 21 22  1  0
 21 23  1  0
 23 24  2  0
 24 25  1  0
  9 26  1  0
 26 27  2  0
 26 28  1  0
 28 29  1  0
 28 30  2  0
 30 31  1  0
  6 32  1  0
 32 33  1  0
 32 34  2  0
 34 35  1  0
 34  2  1  0
 30  7  1  0
 24 10  1  0
 23 14  1  0
M  END
>  <cnnaffinity>  (1) 
-5.23622

>  <filename>  (1) 
O=c1ccc(-c2cccnc2)nn1-c1cnc2ccccc2c1

$$$$
