
     RDKit          3D

 34 36  0  0  0  0  0  0  0  0999 V2000
    4.9113    1.7888   16.8755 H   0  0  0  0  0  0  0  0  0  0  0  0
    5.3579    1.3694   17.7741 C   0  0  0  0  0  0  0  0  0  0  0  0
    6.5675    0.8157   17.6084 N   0  0  0  0  0  0  0  0  0  0  0  0
    7.1560    0.3088   18.6943 C   0  0  0  0  0  0  0  0  0  0  0  0
    8.1421   -0.1260   18.5258 H   0  0  0  0  0  0  0  0  0  0  0  0
    6.5930    0.3286   19.9850 C   0  0  0  0  0  0  0  0  0  0  0  0
    7.2902   -0.3981   21.0793 C   0  0  0  0  0  0  0  0  0  0  0  0
    7.6312    0.4869   22.5445 S   0  0  0  0  0  0  0  0  0  0  0  0
    8.2328   -0.7773   23.6061 C   0  0  0  0  0  0  0  0  0  0  0  0
    8.3334   -0.3929   25.0405 C   0  0  0  0  0  0  0  0  0  0  0  0
    7.2289    0.1227   25.7423 C   0  0  0  0  0  0  0  0  0  0  0  0
    6.3133    0.3031   25.1805 H   0  0  0  0  0  0  0  0  0  0  0  0
    7.2897    0.3753   27.1166 C   0  0  0  0  0  0  0  0  0  0  0  0
    6.4298    0.7459   27.6649 H   0  0  0  0  0  0  0  0  0  0  0  0
    8.4883    0.1194   27.7810 C   0  0  0  0  0  0  0  0  0  0  0  0
    8.7069    0.3073   29.1375 O   0  0  0  0  0  0  0  0  0  0  0  0
    7.9655    1.1237   29.9036 C   0  0  0  0  0  0  0  0  0  0  0  0
    6.7162    0.6574   30.0943 F   0  0  0  0  0  0  0  0  0  0  0  0
    7.8413    2.3642   29.4112 F   0  0  0  0  0  0  0  0  0  0  0  0
    8.5822    1.2060   31.0754 F   0  0  0  0  0  0  0  0  0  0  0  0
    9.5961   -0.4018   27.1115 C   0  0  0  0  0  0  0  0  0  0  0  0
   10.4799   -0.6151   27.6939 H   0  0  0  0  0  0  0  0  0  0  0  0
    9.5262   -0.6449   25.7457 C   0  0  0  0  0  0  0  0  0  0  0  0
   10.3961   -1.0207   25.2142 H   0  0  0  0  0  0  0  0  0  0  0  0
    8.5493   -2.0238   23.1991 C   0  0  0  0  0  0  0  0  0  0  0  0
    8.9991   -2.7311   23.8906 H   0  0  0  0  0  0  0  0  0  0  0  0
    8.2508   -2.5728   21.8777 C   0  0  0  0  0  0  0  0  0  0  0  0
    8.4957   -3.7405   21.6055 O   0  0  0  0  0  0  0  0  0  0  0  0
    7.6296   -1.6843   20.8934 C   0  0  0  0  0  0  0  0  0  0  0  0
    7.4098   -2.1606   19.9518 H   0  0  0  0  0  0  0  0  0  0  0  0
    5.3344    0.9331   20.1432 C   0  0  0  0  0  0  0  0  0  0  0  0
    4.8768    0.9919   21.1310 H   0  0  0  0  0  0  0  0  0  0  0  0
    4.7016    1.4469   19.0072 C   0  0  0  0  0  0  0  0  0  0  0  0
    3.7344    1.9333   19.0689 H   0  0  0  0  0  0  0  0  0  0  0  0
  1  2  1  0
  2  3  2  0
  3  4  1  0
  4  5  1  0
  4  6  2  0
  6  7  1  0
  7  8  1  0
  8  9  1  0
  9 10  1  0
 10 11  2  0
 11 12  1  0
 11 13  1  0
 13 14  1  0
 13 15  2  0
 15 16  1  0
 16 17  1  0
 17 18  1  0
 17 19  1  0
 17 20  1  0
 15 21  1  0
 21 22  1  0
 21 23  2  0
 23 24  1  0
  9 25  2  0
 25 26  1  0
 25 27  1  0
 27 28  2  0
 27 29  1  0
 29 30  1  0
  6 31  1  0
 31 32  1  0
 31 33  2  0
 33 34  1  0
 33  2  1  0
 29  7  2  0
 23 10  1  0
M  END
>  <cnnaffinity>  (1) 
-5.56688

>  <filename>  (1) 
O=c1cc(-c2ccc(OC(F)(F)F)cc2)sc(-c2cccnc2)c1

$$$$
