
     RDKit          3D

 41 44  0  0  0  0  0  0  0  0999 V2000
    4.9148    1.7749   17.0033 H   0  0  0  0  0  0  0  0  0  0  0  0
    5.4043    1.2917   17.8445 C   0  0  0  0  0  0  0  0  0  0  0  0
    6.5715    0.6805   17.5837 N   0  0  0  0  0  0  0  0  0  0  0  0
    7.1747    0.0545   18.5972 C   0  0  0  0  0  0  0  0  0  0  0  0
    8.1221   -0.4361   18.3769 H   0  0  0  0  0  0  0  0  0  0  0  0
    6.6519    0.0118   19.8952 C   0  0  0  0  0  0  0  0  0  0  0  0
    7.3786   -0.7352   20.9085 C   0  0  0  0  0  0  0  0  0  0  0  0
    7.9514   -1.8780   20.6781 N   0  0  0  0  0  0  0  0  0  0  0  0
    8.4357   -2.2431   21.9039 N   0  0  0  0  0  0  0  0  0  0  0  0
    8.9464   -3.0918   22.0661 H   0  0  0  0  0  0  0  0  0  0  0  0
    8.2126   -1.3401   22.8953 C   0  0  0  0  0  0  0  0  0  0  0  0
    8.5619   -1.4027   24.0581 O   0  0  0  0  0  0  0  0  0  0  0  0
    7.4976   -0.3308   22.2315 N   0  0  0  0  0  0  0  0  0  0  0  0
    7.1333    0.9205   22.8442 C   0  0  0  0  0  0  0  0  0  0  0  0
    6.4782    0.9327   24.0843 C   0  0  0  0  0  0  0  0  0  0  0  0
    6.2578   -0.0038   24.5856 H   0  0  0  0  0  0  0  0  0  0  0  0
    6.1297    2.1419   24.6908 C   0  0  0  0  0  0  0  0  0  0  0  0
    5.6114    2.1515   25.6469 H   0  0  0  0  0  0  0  0  0  0  0  0
    6.4069    3.3749   24.0700 C   0  0  0  0  0  0  0  0  0  0  0  0
    5.9844    4.5679   24.6907 N   0  0  0  0  0  0  0  0  0  0  0  0
    5.5135    5.6985   23.8882 C   0  0  0  0  0  0  0  0  0  0  0  0
    4.9517    5.3175   23.0250 H   0  0  0  0  0  0  0  0  0  0  0  0
    6.3315    6.3330   23.5001 H   0  0  0  0  0  0  0  0  0  0  0  0
    4.5771    6.5863   24.7223 C   0  0  0  0  0  0  0  0  0  0  0  0
    4.3113    7.4900   24.1670 H   0  0  0  0  0  0  0  0  0  0  0  0
    3.6448    6.0436   24.9465 H   0  0  0  0  0  0  0  0  0  0  0  0
    5.1910    6.9957   25.9386 O   0  0  0  0  0  0  0  0  0  0  0  0
    5.5044    5.8572   26.7326 C   0  0  0  0  0  0  0  0  0  0  0  0
    5.9296    6.2225   27.6722 H   0  0  0  0  0  0  0  0  0  0  0  0
    4.5785    5.3099   26.9710 H   0  0  0  0  0  0  0  0  0  0  0  0
    6.4950    4.9295   26.0184 C   0  0  0  0  0  0  0  0  0  0  0  0
    6.6283    4.0265   26.6271 H   0  0  0  0  0  0  0  0  0  0  0  0
    7.4771    5.4350   25.9746 H   0  0  0  0  0  0  0  0  0  0  0  0
    7.0614    3.3538   22.8228 C   0  0  0  0  0  0  0  0  0  0  0  0
    7.2855    4.2952   22.3290 H   0  0  0  0  0  0  0  0  0  0  0  0
    7.4325    2.1446   22.2264 C   0  0  0  0  0  0  0  0  0  0  0  0
    7.9250    2.1495   21.2590 H   0  0  0  0  0  0  0  0  0  0  0  0
    5.4309    0.6498   20.1548 C   0  0  0  0  0  0  0  0  0  0  0  0
    5.0105    0.6351   21.1636 H   0  0  0  0  0  0  0  0  0  0  0  0
    4.8011    1.3105   19.1079 C   0  0  0  0  0  0  0  0  0  0  0  0
    3.8714    1.8447   19.2624 H   0  0  0  0  0  0  0  0  0  0  0  0
  1  2  1  0
  2  3  2  0
  3  4  1  0
  4  5  1  0
  4  6  2  0
  6  7  1  0
  7  8  2  0
  8  9  1  0
  9 10  1  0
  9 11  1  0
 11 12  2  0
 11 13  1  0
 13 14  1  0
 14 15  2  0
 15 16  1  0
 15 17  1  0
 17 18  1  0
 17 19  2  0
 19 20  1  0
 20 21  1  0
 21 22  1  0
 21 23  1  0
 21 24  1  0
 24 25  1  0
 24 26  1  0
 24 27  1  0
 27 28  1  0
 28 29  1  0
 28 30  1  0
 28 31  1  0
 31 32  1  0
 31 33  1  0
 19 34  1  0
 34 35  1  0
 34 36  2  0
 36 37  1  0
  6 38  1  0
 38 39  1  0
 38 40  2  0
 40 41  1  0
 40  2  1  0
 13  7  1  0
 36 14  1  0
 31 20  1  0
M  END
>  <cnnaffinity>  (1) 
-5.07678

>  <filename>  (1) 
O=c1[nH]nc(-c2cccnc2)n1-c1ccc(N2CCOCC2)cc1

$$$$
