
     RDKit          3D

 32 34  0  0  0  0  0  0  0  0999 V2000
    5.1846    1.9202   16.7104 H   0  0  0  0  0  0  0  0  0  0  0  0
    5.6358    1.3971   17.5501 C   0  0  0  0  0  0  0  0  0  0  0  0
    6.7684    0.7208   17.2933 N   0  0  0  0  0  0  0  0  0  0  0  0
    7.3300    0.0538   18.3105 C   0  0  0  0  0  0  0  0  0  0  0  0
    8.2540   -0.4820   18.0883 H   0  0  0  0  0  0  0  0  0  0  0  0
    6.7834   -0.0134   19.6080 C   0  0  0  0  0  0  0  0  0  0  0  0
    7.3461   -0.8704   20.6533 C   0  0  0  0  0  0  0  0  0  0  0  0
    6.7034   -1.6308   21.5680 C   0  0  0  0  0  0  0  0  0  0  0  0
    5.6481   -1.7929   21.7121 H   0  0  0  0  0  0  0  0  0  0  0  0
    7.6491   -2.2848   22.3500 N   0  0  0  0  0  0  0  0  0  0  0  0
    7.4091   -2.8173   23.6892 C   0  0  0  0  0  0  0  0  0  0  0  0
    8.1306   -3.6226   23.8600 H   0  0  0  0  0  0  0  0  0  0  0  0
    6.4058   -3.2598   23.6922 H   0  0  0  0  0  0  0  0  0  0  0  0
    7.5291   -1.7432   24.7600 C   0  0  0  0  0  0  0  0  0  0  0  0
    6.3962   -1.1394   25.3117 C   0  0  0  0  0  0  0  0  0  0  0  0
    5.4101   -1.4557   24.9792 H   0  0  0  0  0  0  0  0  0  0  0  0
    6.5176   -0.1279   26.2654 C   0  0  0  0  0  0  0  0  0  0  0  0
    5.6270    0.3155   26.6973 H   0  0  0  0  0  0  0  0  0  0  0  0
    7.7834    0.3251   26.6536 C   0  0  0  0  0  0  0  0  0  0  0  0
    7.8792    1.5784   27.8425 Cl  0  0  0  0  0  0  0  0  0  0  0  0
    8.9271   -0.2497   26.0731 C   0  0  0  0  0  0  0  0  0  0  0  0
   10.5344    0.2921   26.4065 Cl  0  0  0  0  0  0  0  0  0  0  0  0
    8.7957   -1.2881   25.1509 C   0  0  0  0  0  0  0  0  0  0  0  0
    9.6938   -1.6924   24.6976 H   0  0  0  0  0  0  0  0  0  0  0  0
    8.9197   -1.8945   21.9464 C   0  0  0  0  0  0  0  0  0  0  0  0
    9.9936   -2.1891   22.4319 O   0  0  0  0  0  0  0  0  0  0  0  0
    8.7070   -1.0862   20.8538 N   0  0  0  0  0  0  0  0  0  0  0  0
    9.4762   -0.4909   20.6102 H   0  0  0  0  0  0  0  0  0  0  0  0
    5.6087    0.7216   19.8570 C   0  0  0  0  0  0  0  0  0  0  0  0
    5.1761    0.7355   20.8607 H   0  0  0  0  0  0  0  0  0  0  0  0
    5.0306    1.4419   18.8127 C   0  0  0  0  0  0  0  0  0  0  0  0
    4.1302    2.0313   18.9524 H   0  0  0  0  0  0  0  0  0  0  0  0
  1  2  1  0
  2  3  2  0
  3  4  1  0
  4  5  1  0
  4  6  2  0
  6  7  1  0
  7  8  2  0
  8  9  1  0
  8 10  1  0
 10 11  1  0
 11 12  1  0
 11 13  1  0
 11 14  1  0
 14 15  2  0
 15 16  1  0
 15 17  1  0
 17 18  1  0
 17 19  2  0
 19 20  1  0
 19 21  1  0
 21 22  1  0
 21 23  2  0
 23 24  1  0
 10 25  1  0
 25 26  2  0
 25 27  1  0
 27 28  1  0
  6 29  1  0
 29 30  1  0
 29 31  2  0
 31 32  1  0
 31  2  1  0
 27  7  1  0
 23 14  1  0
M  END
>  <cnnaffinity>  (1) 
-5.60241

>  <filename>  (1) 
O=c1[nH]c(-c2cccnc2)cn1Cc1ccc(Cl)c(Cl)c1

$$$$
