
     RDKit          3D

 35 37  0  0  0  0  0  0  0  0999 V2000
    4.9668    1.8359   16.9552 H   0  0  0  0  0  0  0  0  0  0  0  0
    5.4536    1.3242   17.7874 C   0  0  0  0  0  0  0  0  0  0  0  0
    6.6428    0.7595   17.5256 N   0  0  0  0  0  0  0  0  0  0  0  0
    7.2564    0.1294   18.5331 C   0  0  0  0  0  0  0  0  0  0  0  0
    8.2300   -0.2902   18.2928 H   0  0  0  0  0  0  0  0  0  0  0  0
    6.7067   -0.0295   19.8222 C   0  0  0  0  0  0  0  0  0  0  0  0
    7.4566   -0.8029   20.8371 C   0  0  0  0  0  0  0  0  0  0  0  0
    8.7502   -0.5712   20.9403 N   0  0  0  0  0  0  0  0  0  0  0  0
    9.4510   -1.0971   22.0185 C   0  0  0  0  0  0  0  0  0  0  0  0
   10.9463   -0.7934   22.0990 C   0  0  0  0  0  0  0  0  0  0  0  0
   11.2557   -0.4955   21.0853 H   0  0  0  0  0  0  0  0  0  0  0  0
   11.4988   -1.7172   22.3330 H   0  0  0  0  0  0  0  0  0  0  0  0
   11.3312    0.2195   23.0952 N   0  0  0  0  0  0  0  0  0  0  0  0
   12.7742    0.4116   23.2606 C   0  0  0  0  0  0  0  0  0  0  0  0
   13.2047   -0.4165   23.8285 H   0  0  0  0  0  0  0  0  0  0  0  0
   13.3290    0.4707   22.2979 H   0  0  0  0  0  0  0  0  0  0  0  0
   12.8787    1.7256   24.0495 C   0  0  0  0  0  0  0  0  0  0  0  0
   12.9062    1.5166   25.1224 H   0  0  0  0  0  0  0  0  0  0  0  0
   13.7893    2.2765   23.7979 H   0  0  0  0  0  0  0  0  0  0  0  0
   11.5935    2.5085   23.7001 C   0  0  0  0  0  0  0  0  0  0  0  0
   11.0539    2.7880   24.6113 H   0  0  0  0  0  0  0  0  0  0  0  0
   11.8094    3.4277   23.1450 H   0  0  0  0  0  0  0  0  0  0  0  0
   10.7559    1.5415   22.8416 C   0  0  0  0  0  0  0  0  0  0  0  0
   10.8220    1.8104   21.7686 H   0  0  0  0  0  0  0  0  0  0  0  0
    9.6914    1.5465   23.1088 H   0  0  0  0  0  0  0  0  0  0  0  0
    8.8490   -1.8724   22.9672 C   0  0  0  0  0  0  0  0  0  0  0  0
    9.3623   -2.2573   23.8440 H   0  0  0  0  0  0  0  0  0  0  0  0
    7.5252   -2.2254   22.8026 N   0  0  0  0  0  0  0  0  0  0  0  0
    7.0169   -2.8744   23.3906 H   0  0  0  0  0  0  0  0  0  0  0  0
    6.7604   -1.8494   21.7007 C   0  0  0  0  0  0  0  0  0  0  0  0
    5.6830   -2.4014   21.5485 O   0  0  0  0  0  0  0  0  0  0  0  0
    5.4763    0.5962   20.0872 C   0  0  0  0  0  0  0  0  0  0  0  0
    5.0346    0.5794   21.0877 H   0  0  0  0  0  0  0  0  0  0  0  0
    4.8471    1.2822   19.0459 C   0  0  0  0  0  0  0  0  0  0  0  0
    3.9188    1.8180   19.2028 H   0  0  0  0  0  0  0  0  0  0  0  0
  1  2  1  0
  2  3  2  0
  3  4  1  0
  4  5  1  0
  4  6  2  0
  6  7  1  0
  7  8  2  0
  8  9  1  0
  9 10  1  0
 10 11  1  0
 10 12  1  0
 10 13  1  0
 13 14  1  0
 14 15  1  0
 14 16  1  0
 14 17  1  0
 17 18  1  0
 17 19  1  0
 17 20  1  0
 20 21  1  0
 20 22  1  0
 20 23  1  0
 23 24  1  0
 23 25  1  0
  9 26  2  0
 26 27  1  0
 26 28  1  0
 28 29  1  0
 28 30  1  0
 30 31  2  0
  6 32  1  0
 32 33  1  0
 32 34  2  0
 34 35  1  0
 34  2  1  0
 30  7  1  0
 23 13  1  0
M  END
>  <cnnaffinity>  (1) 
-5.04219

>  <filename>  (1) 
O=c1[nH]cc(CN2CCCC2)nc1-c1cccnc1

$$$$
