
     RDKit          3D

 35 37  0  0  0  0  0  0  0  0999 V2000
   11.0418   -3.3359   22.9703 H   0  0  0  0  0  0  0  0  0  0  0  0
   10.8596   -2.9652   23.8426 O   0  0  0  0  0  0  0  0  0  0  0  0
    9.4470   -2.8817   24.0080 C   0  0  1  0  0  0  0  0  0  0  0  0
    9.0334   -3.8932   24.0847 H   0  0  0  0  0  0  0  0  0  0  0  0
    9.1508   -2.1470   25.3091 C   0  0  0  0  0  0  0  0  0  0  0  0
    9.8506   -0.9678   25.6026 C   0  0  0  0  0  0  0  0  0  0  0  0
   10.7190   -0.7041   25.0003 H   0  0  0  0  0  0  0  0  0  0  0  0
    9.4597   -0.1673   26.6702 C   0  0  0  0  0  0  0  0  0  0  0  0
    9.9718    0.7696   26.8174 H   0  0  0  0  0  0  0  0  0  0  0  0
    8.3953   -0.5412   27.4951 C   0  0  0  0  0  0  0  0  0  0  0  0
    8.1134    0.0712   28.3484 H   0  0  0  0  0  0  0  0  0  0  0  0
    7.6854   -1.7099   27.2126 C   0  0  0  0  0  0  0  0  0  0  0  0
    6.8170   -1.9648   27.8171 H   0  0  0  0  0  0  0  0  0  0  0  0
    8.0733   -2.5147   26.1336 C   0  0  0  0  0  0  0  0  0  0  0  0
    7.5221   -3.4312   25.9320 H   0  0  0  0  0  0  0  0  0  0  0  0
    8.6743   -2.1811   22.8639 C   0  0  0  0  0  0  0  0  0  0  0  0
    7.4438   -2.5524   22.4604 C   0  0  0  0  0  0  0  0  0  0  0  0
    6.9129   -3.4057   22.8459 H   0  0  0  0  0  0  0  0  0  0  0  0
    6.7050   -1.8401   21.4326 C   0  0  0  0  0  0  0  0  0  0  0  0
    5.6126   -2.2161   21.0578 O   0  0  0  0  0  0  0  0  0  0  0  0
    7.3301   -0.7081   20.8445 N   0  0  0  0  0  0  0  0  0  0  0  0
    6.6493    0.0257   19.7817 C   0  0  0  0  0  0  0  0  0  0  0  0
    7.1558    0.1050   18.4637 C   0  0  0  0  0  0  0  0  0  0  0  0
    8.1025   -0.3750   18.2214 H   0  0  0  0  0  0  0  0  0  0  0  0
    6.5304    0.7428   17.4650 N   0  0  0  0  0  0  0  0  0  0  0  0
    5.3723    1.3567   17.7545 C   0  0  0  0  0  0  0  0  0  0  0  0
    4.8852    1.8693   16.9291 H   0  0  0  0  0  0  0  0  0  0  0  0
    4.7985    1.3510   19.0274 C   0  0  0  0  0  0  0  0  0  0  0  0
    3.8678    1.8723   19.1982 H   0  0  0  0  0  0  0  0  0  0  0  0
    5.4427    0.6670   20.0639 C   0  0  0  0  0  0  0  0  0  0  0  0
    5.0290    0.6240   21.0708 H   0  0  0  0  0  0  0  0  0  0  0  0
    8.5584   -0.2523   21.3191 C   0  0  0  0  0  0  0  0  0  0  0  0
    9.1256    0.7339   20.9112 O   0  0  0  0  0  0  0  0  0  0  0  0
    9.1542   -1.0183   22.2980 N   0  0  0  0  0  0  0  0  0  0  0  0
   10.0179   -0.5817   22.5586 H   0  0  0  0  0  0  0  0  0  0  0  0
  1  2  1  0
  2  3  1  0
  3  4  1  1
  3  5  1  0
  5  6  2  0
  6  7  1  0
  6  8  1  0
  8  9  1  0
  8 10  2  0
 10 11  1  0
 10 12  1  0
 12 13  1  0
 12 14  2  0
 14 15  1  0
  3 16  1  0
 16 17  2  0
 17 18  1  0
 17 19  1  0
 19 20  2  0
 19 21  1  0
 21 22  1  0
 22 23  2  0
 23 24  1  0
 23 25  1  0
 25 26  2  0
 26 27  1  0
 26 28  1  0
 28 29  1  0
 28 30  2  0
 30 31  1  0
 21 32  1  0
 32 33  2  0
 32 34  1  0
 34 35  1  0
 14  5  1  0
 34 16  1  0
 30 22  1  0
M  END
>  <cnnaffinity>  (1) 
-5.19367

>  <filename>  (1) 
O=c1cc([C@@H](O)c2ccccc2)[nH]c(=O)n1-c1cccnc1

$$$$
