
     RDKit          3D

 32 34  0  0  0  0  0  0  0  0999 V2000
    4.9342    1.8002   16.9865 H   0  0  0  0  0  0  0  0  0  0  0  0
    5.3897    1.2906   17.8360 C   0  0  0  0  0  0  0  0  0  0  0  0
    6.5506    0.6684   17.5870 N   0  0  0  0  0  0  0  0  0  0  0  0
    7.1539    0.0435   18.6031 C   0  0  0  0  0  0  0  0  0  0  0  0
    8.1068   -0.4300   18.3711 H   0  0  0  0  0  0  0  0  0  0  0  0
    6.6333   -0.0221   19.9008 C   0  0  0  0  0  0  0  0  0  0  0  0
    7.4074   -0.7097   20.9425 C   0  0  0  0  0  0  0  0  0  0  0  0
    8.7057   -0.4238   21.3088 C   0  0  0  0  0  0  0  0  0  0  0  0
    9.6265    0.9606   20.6803 S   0  0  0  0  0  0  0  0  0  0  0  0
    8.9680    2.1884   21.8058 C   0  0  0  0  0  0  0  0  0  0  0  0
    7.7822    2.8648   21.4997 C   0  0  0  0  0  0  0  0  0  0  0  0
    7.2157    2.5728   20.6173 H   0  0  0  0  0  0  0  0  0  0  0  0
    7.3157    3.8776   22.3432 C   0  0  0  0  0  0  0  0  0  0  0  0
    6.4613    4.4823   22.0440 H   0  0  0  0  0  0  0  0  0  0  0  0
    7.9590    4.1172   23.5635 C   0  0  0  0  0  0  0  0  0  0  0  0
    7.5561    4.8554   24.2515 H   0  0  0  0  0  0  0  0  0  0  0  0
    9.0897    3.3717   23.9186 C   0  0  0  0  0  0  0  0  0  0  0  0
    9.5493    3.4970   24.8969 H   0  0  0  0  0  0  0  0  0  0  0  0
    9.6086    2.4278   23.0280 C   0  0  0  0  0  0  0  0  0  0  0  0
   10.4763    1.8295   23.2943 H   0  0  0  0  0  0  0  0  0  0  0  0
    9.2903   -1.1639   22.3845 C   0  0  0  0  0  0  0  0  0  0  0  0
   10.3017   -0.8866   22.6783 H   0  0  0  0  0  0  0  0  0  0  0  0
    8.6124   -2.1509   23.0396 C   0  0  0  0  0  0  0  0  0  0  0  0
    9.0273   -2.7288   23.8572 H   0  0  0  0  0  0  0  0  0  0  0  0
    7.2430   -2.4682   22.6522 C   0  0  0  0  0  0  0  0  0  0  0  0
    6.5265   -3.3343   23.1159 O   0  0  0  0  0  0  0  0  0  0  0  0
    6.7370   -1.6817   21.6312 N   0  0  0  0  0  0  0  0  0  0  0  0
    5.7876   -1.9418   21.4209 H   0  0  0  0  0  0  0  0  0  0  0  0
    5.4018    0.6159   20.1463 C   0  0  0  0  0  0  0  0  0  0  0  0
    4.9822    0.6259   21.1531 H   0  0  0  0  0  0  0  0  0  0  0  0
    4.7846    1.2983   19.0986 C   0  0  0  0  0  0  0  0  0  0  0  0
    3.8642    1.8531   19.2381 H   0  0  0  0  0  0  0  0  0  0  0  0
  1  2  1  0
  2  3  2  0
  3  4  1  0
  4  5  1  0
  4  6  2  0
  6  7  1  0
  7  8  2  0
  8  9  1  0
  9 10  1  0
 10 11  2  0
 11 12  1  0
 11 13  1  0
 13 14  1  0
 13 15  2  0
 15 16  1  0
 15 17  1  0
 17 18  1  0
 17 19  2  0
 19 20  1  0
  8 21  1  0
 21 22  1  0
 21 23  2  0
 23 24  1  0
 23 25  1  0
 25 26  2  0
 25 27  1  0
 27 28  1  0
  6 29  1  0
 29 30  1  0
 29 31  2  0
 31 32  1  0
 31  2  1  0
 27  7  1  0
 19 10  1  0
M  END
>  <cnnaffinity>  (1) 
-5.48557

>  <filename>  (1) 
O=c1ccc(Sc2ccccc2)c(-c2cccnc2)[nH]1

$$$$
