
     RDKit          3D

 35 37  0  0  0  0  0  0  0  0999 V2000
    7.3739    1.4303   22.3140 O   0  0  0  0  0  0  0  0  0  0  0  0
    7.6204    0.2526   22.1228 C   0  0  0  0  0  0  0  0  0  0  0  0
    8.3537   -0.5584   23.2198 C   0  0  0  0  0  0  0  0  0  0  0  0
    8.6190   -1.9931   22.9764 N   0  0  0  0  0  0  0  0  0  0  0  0
    8.6327   -2.8794   24.0229 C   0  0  0  0  0  0  0  0  0  0  0  0
    8.3118   -4.1606   23.7326 N   0  0  0  0  0  0  0  0  0  0  0  0
    8.4524   -5.0372   24.7222 C   0  0  0  0  0  0  0  0  0  0  0  0
    8.9597   -4.6684   25.9717 C   0  0  0  0  0  0  0  0  0  0  0  0
    9.3155   -5.7924   26.8880 C   0  0  0  0  0  0  0  0  0  0  0  0
    8.2343   -6.5286   27.2116 F   0  0  0  0  0  0  0  0  0  0  0  0
    9.8852   -5.3859   28.0192 F   0  0  0  0  0  0  0  0  0  0  0  0
   10.1672   -6.6203   26.2316 F   0  0  0  0  0  0  0  0  0  0  0  0
    9.1842   -3.3756   26.3202 N   0  0  0  0  0  0  0  0  0  0  0  0
    8.9871   -2.4805   25.3627 C   0  0  0  0  0  0  0  0  0  0  0  0
    9.0829   -1.4309   25.6289 H   0  0  0  0  0  0  0  0  0  0  0  0
    8.1678   -6.0677   24.5238 H   0  0  0  0  0  0  0  0  0  0  0  0
    8.5385   -2.4532   21.5852 C   0  0  0  0  0  0  0  0  0  0  0  0
    7.2424   -1.9150   20.9992 C   0  0  0  0  0  0  0  0  0  0  0  0
    7.2880   -0.4457   20.9715 N   0  0  0  0  0  0  0  0  0  0  0  0
    6.6345    0.2144   19.8880 C   0  0  0  0  0  0  0  0  0  0  0  0
    5.4195    0.8680   20.0991 C   0  0  0  0  0  0  0  0  0  0  0  0
    4.7693    1.4201   18.9932 C   0  0  0  0  0  0  0  0  0  0  0  0
    5.3807    1.3340   17.7362 C   0  0  0  0  0  0  0  0  0  0  0  0
    6.5531    0.7140   17.5223 N   0  0  0  0  0  0  0  0  0  0  0  0
    7.1540    0.1540   18.5800 C   0  0  0  0  0  0  0  0  0  0  0  0
    8.0962   -0.3682   18.4056 H   0  0  0  0  0  0  0  0  0  0  0  0
    4.9083    1.7775   16.8641 H   0  0  0  0  0  0  0  0  0  0  0  0
    3.8148    1.9213   19.1025 H   0  0  0  0  0  0  0  0  0  0  0  0
    5.0213    0.9354   21.1114 H   0  0  0  0  0  0  0  0  0  0  0  0
    7.0728   -2.2804   19.9867 H   0  0  0  0  0  0  0  0  0  0  0  0
    6.4018   -2.2635   21.6167 H   0  0  0  0  0  0  0  0  0  0  0  0
    8.5540   -3.5435   21.5545 H   0  0  0  0  0  0  0  0  0  0  0  0
    9.3948   -2.0761   21.0086 H   0  0  0  0  0  0  0  0  0  0  0  0
    7.7054   -0.4276   24.0936 H   0  0  0  0  0  0  0  0  0  0  0  0
    9.2733   -0.0007   23.4375 H   0  0  0  0  0  0  0  0  0  0  0  0
  1  2  2  0
  2  3  1  0
  3  4  1  0
  4  5  1  0
  5  6  2  0
  6  7  1  0
  7  8  2  0
  8  9  1  0
  9 10  1  0
  9 11  1  0
  9 12  1  0
  8 13  1  0
 13 14  2  0
 14 15  1  0
  7 16  1  0
  4 17  1  0
 17 18  1  0
 18 19  1  0
 19 20  1  0
 20 21  2  0
 21 22  1  0
 22 23  2  0
 23 24  1  0
 24 25  2  0
 25 26  1  0
 23 27  1  0
 22 28  1  0
 21 29  1  0
 18 30  1  0
 18 31  1  0
 17 32  1  0
 17 33  1  0
  3 34  1  0
  3 35  1  0
 19  2  1  0
 25 20  1  0
 14  5  1  0
M  END
>  <cnnaffinity>  (1) 
-4.97236

>  <filename>  (1) 
O=C1CN(c2cnc(C(F)(F)F)cn2)CCN1c1cccnc1

$$$$
