
     RDKit          3D

 36 39  0  0  0  0  0  0  0  0999 V2000
    4.9835    1.8449   17.0148 H   0  0  0  0  0  0  0  0  0  0  0  0
    5.4466    1.2935   17.8294 C   0  0  0  0  0  0  0  0  0  0  0  0
    6.6025    0.6782   17.5317 N   0  0  0  0  0  0  0  0  0  0  0  0
    7.2198    0.0145   18.5145 C   0  0  0  0  0  0  0  0  0  0  0  0
    8.1580   -0.4812   18.2636 H   0  0  0  0  0  0  0  0  0  0  0  0
    6.7090   -0.0893   19.8223 C   0  0  0  0  0  0  0  0  0  0  0  0
    7.4357   -0.8118   20.8177 N   0  0  0  0  0  0  0  0  0  0  0  0
    8.7434   -0.5011   21.1803 C   0  0  0  0  0  0  0  0  0  0  0  0
    9.2571    0.3286   20.7169 H   0  0  0  0  0  0  0  0  0  0  0  0
    9.1090   -1.3273   22.1871 C   0  0  0  0  0  0  0  0  0  0  0  0
   10.3893   -1.4234   22.9685 C   0  0  0  0  0  0  0  0  0  0  0  0
   10.4838   -2.4217   23.4015 H   0  0  0  0  0  0  0  0  0  0  0  0
   11.2501   -1.2398   22.3223 H   0  0  0  0  0  0  0  0  0  0  0  0
   10.4380   -0.4457   24.0620 N   0  0  0  0  0  0  0  0  0  0  0  0
   10.5749    0.9132   23.7551 C   0  0  0  0  0  0  0  0  0  0  0  0
   11.1677    1.3078   22.7777 O   0  0  0  0  0  0  0  0  0  0  0  0
    9.8402    1.6723   24.8091 C   0  0  0  0  0  0  0  0  0  0  0  0
    9.6043    3.0414   24.9522 C   0  0  0  0  0  0  0  0  0  0  0  0
   10.0268    3.7524   24.2467 H   0  0  0  0  0  0  0  0  0  0  0  0
    8.8174    3.4611   26.0290 C   0  0  0  0  0  0  0  0  0  0  0  0
    8.6142    4.5211   26.1571 H   0  0  0  0  0  0  0  0  0  0  0  0
    8.2370    2.5213   26.9060 C   0  0  0  0  0  0  0  0  0  0  0  0
    7.6325    2.8721   27.7356 H   0  0  0  0  0  0  0  0  0  0  0  0
    8.4414    1.1489   26.7338 C   0  0  0  0  0  0  0  0  0  0  0  0
    7.9536    0.4285   27.3891 H   0  0  0  0  0  0  0  0  0  0  0  0
    9.2694    0.7456   25.6809 C   0  0  0  0  0  0  0  0  0  0  0  0
    9.5911   -0.6124   25.1635 C   0  0  0  0  0  0  0  0  0  0  0  0
    9.1789   -1.6934   25.5205 O   0  0  0  0  0  0  0  0  0  0  0  0
    7.9974   -2.1158   22.4391 N   0  0  0  0  0  0  0  0  0  0  0  0
    7.8169   -2.6768   23.2563 H   0  0  0  0  0  0  0  0  0  0  0  0
    6.9633   -1.8560   21.5893 C   0  0  0  0  0  0  0  0  0  0  0  0
    5.5362   -2.7110   21.5156 S   0  0  0  0  0  0  0  0  0  0  0  0
    5.4889    0.5318   20.1225 C   0  0  0  0  0  0  0  0  0  0  0  0
    5.0615    0.4510   21.1254 H   0  0  0  0  0  0  0  0  0  0  0  0
    4.8562    1.2505   19.0996 C   0  0  0  0  0  0  0  0  0  0  0  0
    3.9263    1.7838   19.2731 H   0  0  0  0  0  0  0  0  0  0  0  0
  1  2  1  0
  2  3  2  0
  3  4  1  0
  4  5  1  0
  4  6  2  0
  6  7  1  0
  7  8  1  0
  8  9  1  0
  8 10  2  0
 10 11  1  0
 11 12  1  0
 11 13  1  0
 11 14  1  0
 14 15  1  0
 15 16  2  0
 15 17  1  0
 17 18  2  0
 18 19  1  0
 18 20  1  0
 20 21  1  0
 20 22  2  0
 22 23  1  0
 22 24  1  0
 24 25  1  0
 24 26  2  0
 26 27  1  0
 27 28  2  0
 10 29  1  0
 29 30  1  0
 29 31  1  0
 31 32  2  0
  6 33  1  0
 33 34  1  0
 33 35  2  0
 35 36  1  0
 35  2  1  0
 31  7  1  0
 27 14  1  0
 26 17  1  0
M  END
>  <cnnaffinity>  (1) 
-5.42025

>  <filename>  (1) 
O=C1c2ccccc2C(=O)N1Cc1cn(-c2cccnc2)c(=S)[nH]1

$$$$
