
     RDKit          3D

 33 35  0  0  0  0  0  0  0  0999 V2000
    4.9125    1.7738   17.0021 H   0  0  0  0  0  0  0  0  0  0  0  0
    5.4039    1.2902   17.8440 C   0  0  0  0  0  0  0  0  0  0  0  0
    6.5694    0.6769   17.5834 N   0  0  0  0  0  0  0  0  0  0  0  0
    7.1802    0.0649   18.6076 C   0  0  0  0  0  0  0  0  0  0  0  0
    8.1216   -0.4317   18.3705 H   0  0  0  0  0  0  0  0  0  0  0  0
    6.6610    0.0019   19.9142 C   0  0  0  0  0  0  0  0  0  0  0  0
    7.4026   -0.7170   20.9880 C   0  0  0  0  0  0  0  0  0  0  0  0
    6.3972   -1.6384   22.0961 S   0  0  0  0  0  0  0  0  0  0  0  0
    7.5464   -2.3443   23.2278 C   0  0  0  0  0  0  0  0  0  0  0  0
    6.9495   -3.2002   24.3061 C   0  0  0  0  0  0  0  0  0  0  0  0
    7.6366   -4.3374   24.7741 C   0  0  0  0  0  0  0  0  0  0  0  0
    8.5922   -4.6193   24.3441 H   0  0  0  0  0  0  0  0  0  0  0  0
    7.1020   -5.1429   25.7780 C   0  0  0  0  0  0  0  0  0  0  0  0
    7.6606   -6.0081   26.1273 H   0  0  0  0  0  0  0  0  0  0  0  0
    5.8542   -4.8263   26.3339 C   0  0  0  0  0  0  0  0  0  0  0  0
    5.2909   -5.6646   27.4567 C   0  0  0  0  0  0  0  0  0  0  0  0
    5.6684   -6.9533   27.3757 F   0  0  0  0  0  0  0  0  0  0  0  0
    3.9443   -5.6548   27.4809 F   0  0  0  0  0  0  0  0  0  0  0  0
    5.7032   -5.2113   28.6564 F   0  0  0  0  0  0  0  0  0  0  0  0
    5.1660   -3.6851   25.8988 C   0  0  0  0  0  0  0  0  0  0  0  0
    4.2099   -3.4103   26.3365 H   0  0  0  0  0  0  0  0  0  0  0  0
    5.7084   -2.8877   24.8958 C   0  0  0  0  0  0  0  0  0  0  0  0
    5.1675   -2.0076   24.5742 H   0  0  0  0  0  0  0  0  0  0  0  0
    8.8759   -2.1345   23.1273 C   0  0  0  0  0  0  0  0  0  0  0  0
    9.5680   -2.5599   23.8457 H   0  0  0  0  0  0  0  0  0  0  0  0
    9.5508   -1.3146   22.1080 C   0  0  0  0  0  0  0  0  0  0  0  0
   10.7655   -1.1936   22.1158 O   0  0  0  0  0  0  0  0  0  0  0  0
    8.7433   -0.6519   21.0769 C   0  0  0  0  0  0  0  0  0  0  0  0
    9.3321   -0.0559   20.3886 H   0  0  0  0  0  0  0  0  0  0  0  0
    5.4393    0.6520   20.1588 C   0  0  0  0  0  0  0  0  0  0  0  0
    5.0104    0.6316   21.1618 H   0  0  0  0  0  0  0  0  0  0  0  0
    4.8052    1.3134   19.1086 C   0  0  0  0  0  0  0  0  0  0  0  0
    3.8735    1.8448   19.2641 H   0  0  0  0  0  0  0  0  0  0  0  0
  1  2  1  0
  2  3  2  0
  3  4  1  0
  4  5  1  0
  4  6  2  0
  6  7  1  0
  7  8  1  0
  8  9  1  0
  9 10  1  0
 10 11  2  0
 11 12  1  0
 11 13  1  0
 13 14  1  0
 13 15  2  0
 15 16  1  0
 16 17  1  0
 16 18  1  0
 16 19  1  0
 15 20  1  0
 20 21  1  0
 20 22  2  0
 22 23  1  0
  9 24  2  0
 24 25  1  0
 24 26  1  0
 26 27  2  0
 26 28  1  0
 28 29  1  0
  6 30  1  0
 30 31  1  0
 30 32  2  0
 32 33  1  0
 32  2  1  0
 28  7  2  0
 22 10  1  0
M  END
>  <cnnaffinity>  (1) 
-5.33526

>  <filename>  (1) 
O=c1cc(-c2ccc(C(F)(F)F)cc2)sc(-c2cccnc2)c1

$$$$
