
     RDKit          3D

 29 31  0  0  0  0  0  0  0  0999 V2000
    6.6525   -5.4266   25.8726 H   0  0  0  0  0  0  0  0  0  0  0  0
    6.1437   -4.8817   25.0813 C   0  0  0  0  0  0  0  0  0  0  0  0
    6.8859   -4.0032   24.3978 N   0  0  0  0  0  0  0  0  0  0  0  0
    6.3002   -3.2966   23.4045 C   0  0  0  0  0  0  0  0  0  0  0  0
    7.1563   -2.2968   22.6411 C   0  0  0  0  0  0  0  0  0  0  0  0
    6.5848   -1.6045   21.6701 N   0  0  0  0  0  0  0  0  0  0  0  0
    7.3350   -0.7241   20.9457 N   0  0  0  0  0  0  0  0  0  0  0  0
    6.6378   -0.0220   19.9001 C   0  0  0  0  0  0  0  0  0  0  0  0
    7.1660    0.0439   18.6006 C   0  0  0  0  0  0  0  0  0  0  0  0
    8.1210   -0.4223   18.3819 H   0  0  0  0  0  0  0  0  0  0  0  0
    6.5592    0.6686   17.5870 N   0  0  0  0  0  0  0  0  0  0  0  0
    5.4007    1.2937   17.8439 C   0  0  0  0  0  0  0  0  0  0  0  0
    4.9214    1.7827   16.9965 H   0  0  0  0  0  0  0  0  0  0  0  0
    4.8119    1.3142   19.1130 C   0  0  0  0  0  0  0  0  0  0  0  0
    3.8786    1.8446   19.2609 H   0  0  0  0  0  0  0  0  0  0  0  0
    5.4331    0.6340   20.1688 C   0  0  0  0  0  0  0  0  0  0  0  0
    5.0198    0.5978   21.1770 H   0  0  0  0  0  0  0  0  0  0  0  0
    8.7124   -0.4081   21.2053 C   0  0  0  0  0  0  0  0  0  0  0  0
    9.3252    0.4288   20.5634 O   0  0  0  0  0  0  0  0  0  0  0  0
    9.2852   -1.2006   22.2857 C   0  0  0  0  0  0  0  0  0  0  0  0
   10.3314   -0.9953   22.4793 H   0  0  0  0  0  0  0  0  0  0  0  0
    8.5444   -2.1093   22.9742 C   0  0  0  0  0  0  0  0  0  0  0  0
    8.9635   -2.6978   23.7827 H   0  0  0  0  0  0  0  0  0  0  0  0
    4.9457   -3.4833   23.0732 C   0  0  0  0  0  0  0  0  0  0  0  0
    4.5341   -2.8946   22.2658 H   0  0  0  0  0  0  0  0  0  0  0  0
    4.1769   -4.3953   23.7936 C   0  0  0  0  0  0  0  0  0  0  0  0
    3.1231   -4.5371   23.5568 H   0  0  0  0  0  0  0  0  0  0  0  0
    4.7902   -5.1139   24.8207 C   0  0  0  0  0  0  0  0  0  0  0  0
    4.2396   -5.8386   25.4086 H   0  0  0  0  0  0  0  0  0  0  0  0
  1  2  1  0
  2  3  2  0
  3  4  1  0
  4  5  1  0
  5  6  2  0
  6  7  1  0
  7  8  1  0
  8  9  2  0
  9 10  1  0
  9 11  1  0
 11 12  2  0
 12 13  1  0
 12 14  1  0
 14 15  1  0
 14 16  2  0
 16 17  1  0
  7 18  1  0
 18 19  2  0
 18 20  1  0
 20 21  1  0
 20 22  2  0
 22 23  1  0
  4 24  2  0
 24 25  1  0
 24 26  1  0
 26 27  1  0
 26 28  2  0
 28 29  1  0
 28  2  1  0
 22  5  1  0
 16  8  1  0
M  END
>  <cnnaffinity>  (1) 
-4.96996

>  <filename>  (1) 
O=c1ccc(-c2ccccn2)nn1-c1cccnc1

$$$$
