
     RDKit          3D

 31 33  0  0  0  0  0  0  0  0999 V2000
    4.8907    1.8149   17.0088 H   0  0  0  0  0  0  0  0  0  0  0  0
    5.3967    1.2968   17.8180 C   0  0  0  0  0  0  0  0  0  0  0  0
    6.5555    0.6600   17.5668 N   0  0  0  0  0  0  0  0  0  0  0  0
    7.1821    0.0612   18.6005 C   0  0  0  0  0  0  0  0  0  0  0  0
    8.1194   -0.4510   18.4014 H   0  0  0  0  0  0  0  0  0  0  0  0
    6.6834    0.0683   19.9158 C   0  0  0  0  0  0  0  0  0  0  0  0
    7.3642   -0.6457   21.0055 C   0  0  0  0  0  0  0  0  0  0  0  0
    7.5757   -2.0754   20.8285 C   0  0  0  0  0  0  0  0  0  0  0  0
    7.1363   -2.5199   19.9374 H   0  0  0  0  0  0  0  0  0  0  0  0
    8.2606   -2.7916   21.7949 C   0  0  0  0  0  0  0  0  0  0  0  0
    8.4744   -3.8476   21.6995 H   0  0  0  0  0  0  0  0  0  0  0  0
    8.6597   -2.1260   23.0312 C   0  0  0  0  0  0  0  0  0  0  0  0
    9.1631   -2.7251   23.9667 O   0  0  0  0  0  0  0  0  0  0  0  0
    8.3103   -0.8147   23.2237 N   0  0  0  0  0  0  0  0  0  0  0  0
    8.6108   -0.3941   24.0966 H   0  0  0  0  0  0  0  0  0  0  0  0
    7.7293   -0.0404   22.2054 C   0  0  0  0  0  0  0  0  0  0  0  0
    7.5060    1.3883   22.4385 C   0  0  0  0  0  0  0  0  0  0  0  0
    6.8075    1.8105   23.5791 C   0  0  0  0  0  0  0  0  0  0  0  0
    6.4331    1.0663   24.2774 H   0  0  0  0  0  0  0  0  0  0  0  0
    6.5852    3.1746   23.8149 C   0  0  0  0  0  0  0  0  0  0  0  0
    6.0342    3.5042   24.6918 H   0  0  0  0  0  0  0  0  0  0  0  0
    7.1005    4.1299   22.9356 C   0  0  0  0  0  0  0  0  0  0  0  0
    6.8026    5.9937   23.2170 Br  0  0  0  0  0  0  0  0  0  0  0  0
    7.8390    3.7209   21.8285 C   0  0  0  0  0  0  0  0  0  0  0  0
    8.2716    4.4959   21.2025 H   0  0  0  0  0  0  0  0  0  0  0  0
    7.9993    2.3556   21.5464 C   0  0  0  0  0  0  0  0  0  0  0  0
    8.5235    2.0395   20.6499 H   0  0  0  0  0  0  0  0  0  0  0  0
    5.4718    0.7015   20.1597 C   0  0  0  0  0  0  0  0  0  0  0  0
    5.0336    0.6804   21.1539 H   0  0  0  0  0  0  0  0  0  0  0  0
    4.8256    1.3199   19.0930 C   0  0  0  0  0  0  0  0  0  0  0  0
    3.8829    1.8275   19.2369 H   0  0  0  0  0  0  0  0  0  0  0  0
  1  2  1  0
  2  3  2  0
  3  4  1  0
  4  5  1  0
  4  6  2  0
  6  7  1  0
  7  8  1  0
  8  9  1  0
  8 10  2  0
 10 11  1  0
 10 12  1  0
 12 13  2  0
 12 14  1  0
 14 15  1  0
 14 16  1  0
 16 17  1  0
 17 18  2  0
 18 19  1  0
 18 20  1  0
 20 21  1  0
 20 22  2  0
 22 23  1  0
 22 24  1  0
 24 25  1  0
 24 26  2  0
 26 27  1  0
  6 28  1  0
 28 29  1  0
 28 30  2  0
 30 31  1  0
 30  2  1  0
 16  7  2  0
 26 17  1  0
M  END
>  <cnnaffinity>  (1) 
-4.7601

>  <filename>  (1) 
O=c1ccc(-c2cccnc2)c(-c2ccc(Br)cc2)[nH]1

$$$$
