
     RDKit          3D

 27 28  0  0  0  0  0  0  0  0999 V2000
    7.2993   -3.1376   26.5064 H   0  0  0  0  0  0  0  0  0  0  0  0
    7.5166   -3.2513   25.5423 O   0  0  0  0  0  0  0  0  0  0  0  0
    7.5414   -1.6983   25.4922 P   0  0  0  0  0  0  0  0  0  0  0  0
    6.2629   -0.9564   25.4913 O   0  0  0  0  0  0  0  0  0  0  0  0
    7.8898   -2.4426   26.8251 O   0  0  0  0  0  0  0  0  0  0  0  0
    8.0963   -3.2602   26.3040 H   0  0  0  0  0  0  0  0  0  0  0  0
    8.7170   -0.7092   24.3420 C   0  0  0  0  0  0  0  0  0  0  0  0
   10.0042   -1.1707   24.3855 F   0  0  0  0  0  0  0  0  0  0  0  0
    8.7731    0.6308   24.6188 F   0  0  0  0  0  0  0  0  0  0  0  0
    8.1694   -0.9381   22.9509 C   0  0  0  0  0  0  0  0  0  0  0  0
    7.9490   -0.0372   21.9374 C   0  0  0  0  0  0  0  0  0  0  0  0
    8.1698    1.0280   21.9701 H   0  0  0  0  0  0  0  0  0  0  0  0
    7.3225   -0.6956   20.8754 N   0  0  0  0  0  0  0  0  0  0  0  0
    6.6690   -0.0231   19.8343 C   0  0  0  0  0  0  0  0  0  0  0  0
    7.1646   -0.0450   18.5162 C   0  0  0  0  0  0  0  0  0  0  0  0
    8.0772   -0.5948   18.3067 H   0  0  0  0  0  0  0  0  0  0  0  0
    6.5695    0.6015   17.4937 N   0  0  0  0  0  0  0  0  0  0  0  0
    5.4556    1.3104   17.7561 C   0  0  0  0  0  0  0  0  0  0  0  0
    4.9598    1.8308   16.9424 H   0  0  0  0  0  0  0  0  0  0  0  0
    4.9124    1.3979   19.0435 C   0  0  0  0  0  0  0  0  0  0  0  0
    4.0230    1.9935   19.2111 H   0  0  0  0  0  0  0  0  0  0  0  0
    5.5212    0.7212   20.1017 C   0  0  0  0  0  0  0  0  0  0  0  0
    5.1306    0.7698   21.1168 H   0  0  0  0  0  0  0  0  0  0  0  0
    7.0605   -2.0035   21.2903 C   0  0  0  0  0  0  0  0  0  0  0  0
    6.1220   -3.1917   20.5871 S   0  0  0  0  0  0  0  0  0  0  0  0
    7.6585   -2.1640   22.5257 N   0  0  0  0  0  0  0  0  0  0  0  0
    7.4577   -2.9597   23.1201 H   0  0  0  0  0  0  0  0  0  0  0  0
  1  2  1  0
  2  3  1  0
  3  4  2  0
  3  5  1  0
  5  6  1  0
  3  7  1  0
  7  8  1  0
  7  9  1  0
  7 10  1  0
 10 11  2  0
 11 12  1  0
 11 13  1  0
 13 14  1  0
 14 15  2  0
 15 16  1  0
 15 17  1  0
 17 18  2  0
 18 19  1  0
 18 20  1  0
 20 21  1  0
 20 22  2  0
 22 23  1  0
 13 24  1  0
 24 25  2  0
 24 26  1  0
 26 27  1  0
 26 10  1  0
 22 14  1  0
M  END
>  <cnnaffinity>  (1) 
-5.07833

>  <filename>  (1) 
O=P(O)(O)C(F)(F)c1cn(-c2cccnc2)c(=S)[nH]1

$$$$
