
     RDKit          3D

 32 34  0  0  0  0  0  0  0  0999 V2000
    7.5417   -2.2736   20.8617 O   0  0  0  0  0  0  0  0  0  0  0  0
    7.5829   -0.8460   21.1225 S   0  0  0  0  0  0  0  0  0  0  0  0
    7.2902   -0.2999   22.4261 O   0  0  0  0  0  0  0  0  0  0  0  0
    9.1660   -0.5596   20.6836 N   0  0  0  0  0  0  0  0  0  0  0  0
    9.9118    0.4716   21.2963 C   0  0  0  0  0  0  0  0  0  0  0  0
    9.3314    1.7149   21.3782 C   0  0  0  0  0  0  0  0  0  0  0  0
   10.0607    2.8098   21.8934 C   0  0  0  0  0  0  0  0  0  0  0  0
   11.3750    2.6605   22.2591 C   0  0  0  0  0  0  0  0  0  0  0  0
   11.9980    1.3761   22.2092 C   0  0  0  0  0  0  0  0  0  0  0  0
   13.3432    1.2122   22.6515 C   0  0  0  0  0  0  0  0  0  0  0  0
   13.9306   -0.0266   22.6681 C   0  0  0  0  0  0  0  0  0  0  0  0
   13.2049   -1.1632   22.2273 C   0  0  0  0  0  0  0  0  0  0  0  0
   11.8985   -1.0504   21.8039 C   0  0  0  0  0  0  0  0  0  0  0  0
   11.2585    0.2338   21.7496 C   0  0  0  0  0  0  0  0  0  0  0  0
   11.3550   -1.9582   21.5426 H   0  0  0  0  0  0  0  0  0  0  0  0
   13.6923   -2.1315   22.2351 H   0  0  0  0  0  0  0  0  0  0  0  0
   14.9427   -0.1408   23.0380 H   0  0  0  0  0  0  0  0  0  0  0  0
   13.8864    2.0987   22.9685 H   0  0  0  0  0  0  0  0  0  0  0  0
   11.9649    3.5151   22.5831 H   0  0  0  0  0  0  0  0  0  0  0  0
    9.5645    3.7703   21.9967 H   0  0  0  0  0  0  0  0  0  0  0  0
    8.3074    1.8330   21.0417 H   0  0  0  0  0  0  0  0  0  0  0  0
    9.4749   -1.5006   20.8869 H   0  0  0  0  0  0  0  0  0  0  0  0
    6.6853    0.0393   19.9442 C   0  0  0  0  0  0  0  0  0  0  0  0
    5.4719    0.6840   20.2116 C   0  0  0  0  0  0  0  0  0  0  0  0
    4.8527    1.3032   19.1272 C   0  0  0  0  0  0  0  0  0  0  0  0
    5.4698    1.2558   17.8696 C   0  0  0  0  0  0  0  0  0  0  0  0
    6.6402    0.6393   17.6462 N   0  0  0  0  0  0  0  0  0  0  0  0
    7.2363    0.0429   18.6743 C   0  0  0  0  0  0  0  0  0  0  0  0
    8.1862   -0.4376   18.4619 H   0  0  0  0  0  0  0  0  0  0  0  0
    5.0067    1.7360   17.0071 H   0  0  0  0  0  0  0  0  0  0  0  0
    3.9032    1.8206   19.2321 H   0  0  0  0  0  0  0  0  0  0  0  0
    5.0233    0.7081   21.2099 H   0  0  0  0  0  0  0  0  0  0  0  0
  1  2  2  0
  2  3  2  0
  2  4  1  0
  4  5  1  0
  5  6  2  0
  6  7  1  0
  7  8  2  0
  8  9  1  0
  9 10  2  0
 10 11  1  0
 11 12  2  0
 12 13  1  0
 13 14  2  0
 13 15  1  0
 12 16  1  0
 11 17  1  0
 10 18  1  0
  8 19  1  0
  7 20  1  0
  6 21  1  0
  4 22  1  0
  2 23  1  0
 23 24  2  0
 24 25  1  0
 25 26  2  0
 26 27  1  0
 27 28  2  0
 28 29  1  0
 26 30  1  0
 25 31  1  0
 24 32  1  0
 14  5  1  0
 28 23  1  0
 14  9  1  0
M  END
>  <cnnaffinity>  (1) 
-5.57634

>  <filename>  (1) 
O=S(=O)(Nc1cccc2ccccc12)c1cccnc1

$$$$
