
     RDKit          3D

 37 40  0  0  0  0  0  0  0  0999 V2000
    4.9636    1.8367   16.9152 H   0  0  0  0  0  0  0  0  0  0  0  0
    5.4121    1.2978   17.7493 C   0  0  0  0  0  0  0  0  0  0  0  0
    6.5622    0.6514   17.5005 N   0  0  0  0  0  0  0  0  0  0  0  0
    7.1523    0.0127   18.5156 C   0  0  0  0  0  0  0  0  0  0  0  0
    8.0861   -0.4943   18.2785 H   0  0  0  0  0  0  0  0  0  0  0  0
    6.6286   -0.0271   19.8191 C   0  0  0  0  0  0  0  0  0  0  0  0
    7.3591   -0.6593   20.9258 C   0  0  0  0  0  0  0  0  0  0  0  0
    8.4962   -1.3496   20.7402 N   0  0  0  0  0  0  0  0  0  0  0  0
    8.8860   -1.6014   22.0040 N   0  0  0  0  0  0  0  0  0  0  0  0
   10.0449   -2.1067   22.5716 C   0  0  0  0  0  0  0  0  0  0  0  0
   10.8318   -2.5222   21.9679 H   0  0  0  0  0  0  0  0  0  0  0  0
    9.9435   -1.8816   23.9017 C   0  0  0  0  0  0  0  0  0  0  0  0
   10.6205   -2.0321   24.7310 H   0  0  0  0  0  0  0  0  0  0  0  0
    8.7285   -1.2698   24.1453 N   0  0  0  0  0  0  0  0  0  0  0  0
    8.4084   -0.6253   25.3392 N   0  0  0  0  0  0  0  0  0  0  0  0
    8.6790   -1.1860   26.1475 H   0  0  0  0  0  0  0  0  0  0  0  0
    6.7591   -0.7002   25.7942 S   0  0  0  0  0  0  0  0  0  0  0  0
    6.9655   -0.7510   27.2298 O   0  0  0  0  0  0  0  0  0  0  0  0
    6.0968   -1.7570   25.0602 O   0  0  0  0  0  0  0  0  0  0  0  0
    6.0881    0.8653   25.2841 C   0  0  0  0  0  0  0  0  0  0  0  0
    4.7071    0.9624   25.0334 C   0  0  0  0  0  0  0  0  0  0  0  0
    4.0590    0.0886   25.0915 H   0  0  0  0  0  0  0  0  0  0  0  0
    4.1551    2.2026   24.6988 C   0  0  0  0  0  0  0  0  0  0  0  0
    3.0843    2.2986   24.5432 H   0  0  0  0  0  0  0  0  0  0  0  0
    4.9695    3.3348   24.5906 C   0  0  0  0  0  0  0  0  0  0  0  0
    4.5390    4.2974   24.3252 H   0  0  0  0  0  0  0  0  0  0  0  0
    6.3451    3.2194   24.8140 C   0  0  0  0  0  0  0  0  0  0  0  0
    6.9799    4.0962   24.7316 H   0  0  0  0  0  0  0  0  0  0  0  0
    6.9129    1.9907   25.1587 C   0  0  0  0  0  0  0  0  0  0  0  0
    7.9876    1.9213   25.3136 H   0  0  0  0  0  0  0  0  0  0  0  0
    8.0752   -1.0817   22.9524 C   0  0  0  0  0  0  0  0  0  0  0  0
    7.0142   -0.4982   22.2840 C   0  0  0  0  0  0  0  0  0  0  0  0
    6.1246   -0.0566   22.6998 H   0  0  0  0  0  0  0  0  0  0  0  0
    5.4145    0.6385   20.0553 C   0  0  0  0  0  0  0  0  0  0  0  0
    4.9650    0.6328   21.0496 H   0  0  0  0  0  0  0  0  0  0  0  0
    4.7982    1.3087   19.0049 C   0  0  0  0  0  0  0  0  0  0  0  0
    3.8754    1.8567   19.1580 H   0  0  0  0  0  0  0  0  0  0  0  0
  1  2  1  0
  2  3  2  0
  3  4  1  0
  4  5  1  0
  4  6  2  0
  6  7  1  0
  7  8  2  0
  8  9  1  0
  9 10  1  0
 10 11  1  0
 10 12  2  0
 12 13  1  0
 12 14  1  0
 14 15  1  0
 15 16  1  0
 15 17  1  0
 17 18  2  0
 17 19  2  0
 17 20  1  0
 20 21  2  0
 21 22  1  0
 21 23  1  0
 23 24  1  0
 23 25  2  0
 25 26  1  0
 25 27  1  0
 27 28  1  0
 27 29  2  0
 29 30  1  0
 14 31  1  0
 31 32  2  0
 32 33  1  0
  6 34  1  0
 34 35  1  0
 34 36  2  0
 36 37  1  0
 36  2  1  0
 32  7  1  0
 31  9  1  0
 29 20  1  0
M  END
>  <cnnaffinity>  (1) 
-5.42424

>  <filename>  (1) 
O=S(=O)(Nn1ccn2nc(-c3cccnc3)cc12)c1ccccc1

$$$$
