
     RDKit          3D

 34 35  0  0  0  0  0  0  0  0999 V2000
    4.9206    1.7769   17.0378 H   0  0  0  0  0  0  0  0  0  0  0  0
    5.4104    1.2692   17.8638 C   0  0  0  0  0  0  0  0  0  0  0  0
    6.5695    0.6504   17.5774 N   0  0  0  0  0  0  0  0  0  0  0  0
    7.2229    0.0686   18.5920 C   0  0  0  0  0  0  0  0  0  0  0  0
    8.1656   -0.4247   18.3461 H   0  0  0  0  0  0  0  0  0  0  0  0
    6.7736    0.0684   19.9440 C   0  0  0  0  0  0  0  0  0  0  0  0
    7.6144   -0.4423   20.9757 N   0  0  0  0  0  0  0  0  0  0  0  0
    8.2196   -1.2414   20.8667 H   0  0  0  0  0  0  0  0  0  0  0  0
    7.5768   -0.4807   22.6333 S   0  0  0  0  0  0  0  0  0  0  0  0
    6.3664   -1.0911   23.1290 O   0  0  0  0  0  0  0  0  0  0  0  0
    8.8373   -1.1458   22.8770 O   0  0  0  0  0  0  0  0  0  0  0  0
    7.4540    1.2379   23.0086 C   0  0  0  0  0  0  0  0  0  0  0  0
    7.5117    1.2797   24.0954 H   0  0  0  0  0  0  0  0  0  0  0  0
    6.4537    1.5253   22.6844 H   0  0  0  0  0  0  0  0  0  0  0  0
    8.5465    2.0163   22.3211 C   0  0  0  0  0  0  0  0  0  0  0  0
    8.4036    1.9895   21.2315 H   0  0  0  0  0  0  0  0  0  0  0  0
    8.5234    3.0925   22.6077 H   0  0  0  0  0  0  0  0  0  0  0  0
    9.7997    1.3985   22.6508 N   0  0  0  0  0  0  0  0  0  0  0  0
   10.2303    1.5336   24.0350 C   0  0  0  0  0  0  0  0  0  0  0  0
    9.9660    2.5264   24.4463 H   0  0  0  0  0  0  0  0  0  0  0  0
    9.7343    0.7836   24.6651 H   0  0  0  0  0  0  0  0  0  0  0  0
   11.7573    1.3441   24.0135 C   0  0  0  0  0  0  0  0  0  0  0  0
   12.2370    2.1320   24.5998 H   0  0  0  0  0  0  0  0  0  0  0  0
   12.0344    0.3914   24.4737 H   0  0  0  0  0  0  0  0  0  0  0  0
   12.1698    1.3838   22.5273 C   0  0  0  0  0  0  0  0  0  0  0  0
   12.5558    0.4141   22.2011 H   0  0  0  0  0  0  0  0  0  0  0  0
   12.9459    2.1277   22.3284 H   0  0  0  0  0  0  0  0  0  0  0  0
   10.8895    1.7360   21.7598 C   0  0  0  0  0  0  0  0  0  0  0  0
   10.7832    1.1644   20.8291 H   0  0  0  0  0  0  0  0  0  0  0  0
   10.8786    2.8066   21.4866 H   0  0  0  0  0  0  0  0  0  0  0  0
    5.5222    0.6421   20.2013 C   0  0  0  0  0  0  0  0  0  0  0  0
    5.0833    0.5662   21.1944 H   0  0  0  0  0  0  0  0  0  0  0  0
    4.8482    1.2739   19.1423 C   0  0  0  0  0  0  0  0  0  0  0  0
    3.9051    1.7804   19.3081 H   0  0  0  0  0  0  0  0  0  0  0  0
  1  2  1  0
  2  3  2  0
  3  4  1  0
  4  5  1  0
  4  6  2  0
  6  7  1  0
  7  8  1  0
  7  9  1  0
  9 10  2  0
  9 11  2  0
  9 12  1  0
 12 13  1  0
 12 14  1  0
 12 15  1  0
 15 16  1  0
 15 17  1  0
 15 18  1  0
 18 19  1  0
 19 20  1  0
 19 21  1  0
 19 22  1  0
 22 23  1  0
 22 24  1  0
 22 25  1  0
 25 26  1  0
 25 27  1  0
 25 28  1  0
 28 29  1  0
 28 30  1  0
  6 31  1  0
 31 32  1  0
 31 33  2  0
 33 34  1  0
 33  2  1  0
 28 18  1  0
M  END
>  <cnnaffinity>  (1) 
-4.63943

>  <filename>  (1) 
O=S(=O)(CCN1CCCC1)Nc1cccnc1

$$$$
