
     RDKit          3D

 28 29  0  0  0  0  0  0  0  0999 V2000
    4.9421    1.7785   17.0189 H   0  0  0  0  0  0  0  0  0  0  0  0
    5.4215    1.2757   17.8526 C   0  0  0  0  0  0  0  0  0  0  0  0
    6.5857    0.6597   17.5828 N   0  0  0  0  0  0  0  0  0  0  0  0
    7.2090    0.0315   18.5886 C   0  0  0  0  0  0  0  0  0  0  0  0
    8.1574   -0.4400   18.3363 H   0  0  0  0  0  0  0  0  0  0  0  0
    6.6945   -0.0310   19.9044 C   0  0  0  0  0  0  0  0  0  0  0  0
    7.2730   -0.6949   21.0330 N   0  0  0  0  0  0  0  0  0  0  0  0
    8.3882   -1.2149   20.8464 N   0  0  0  0  0  0  0  0  0  0  0  0
    8.9804   -1.7148   21.9272 N   0  0  0  0  0  0  0  0  0  0  0  0
    9.7964   -2.2978   21.9461 H   0  0  0  0  0  0  0  0  0  0  0  0
    8.3111   -1.9318   23.4337 S   0  0  0  0  0  0  0  0  0  0  0  0
    7.0669   -2.6590   23.3055 O   0  0  0  0  0  0  0  0  0  0  0  0
    9.4764   -2.4669   24.1211 O   0  0  0  0  0  0  0  0  0  0  0  0
    8.0136   -0.2762   23.9996 C   0  0  0  0  0  0  0  0  0  0  0  0
    9.0881    0.5703   24.3013 C   0  0  0  0  0  0  0  0  0  0  0  0
   10.1252    0.2330   24.2632 H   0  0  0  0  0  0  0  0  0  0  0  0
    8.8071    1.8787   24.6984 C   0  0  0  0  0  0  0  0  0  0  0  0
    9.6247    2.5410   24.9571 H   0  0  0  0  0  0  0  0  0  0  0  0
    7.4889    2.3400   24.7811 C   0  0  0  0  0  0  0  0  0  0  0  0
    7.2825    3.3592   25.0925 H   0  0  0  0  0  0  0  0  0  0  0  0
    6.4333    1.4808   24.4672 C   0  0  0  0  0  0  0  0  0  0  0  0
    5.4069    1.8267   24.5179 H   0  0  0  0  0  0  0  0  0  0  0  0
    6.6879    0.1671   24.0869 C   0  0  0  0  0  0  0  0  0  0  0  0
    5.8745   -0.5074   23.8411 H   0  0  0  0  0  0  0  0  0  0  0  0
    5.4825    0.6214   20.1632 C   0  0  0  0  0  0  0  0  0  0  0  0
    5.0780    0.5918   21.1751 H   0  0  0  0  0  0  0  0  0  0  0  0
    4.8360    1.2865   19.1222 C   0  0  0  0  0  0  0  0  0  0  0  0
    3.9038    1.8131   19.2851 H   0  0  0  0  0  0  0  0  0  0  0  0
  1  2  1  0
  2  3  2  0
  3  4  1  0
  4  5  1  0
  4  6  2  0
  6  7  1  0
  7  8  2  3
  8  9  1  0
  9 10  1  0
  9 11  1  0
 11 12  2  0
 11 13  2  0
 11 14  1  0
 14 15  2  0
 15 16  1  0
 15 17  1  0
 17 18  1  0
 17 19  2  0
 19 20  1  0
 19 21  1  0
 21 22  1  0
 21 23  2  0
 23 24  1  0
  6 25  1  0
 25 26  1  0
 25 27  2  0
 27 28  1  0
 27  2  1  0
 23 14  1  0
M  END
>  <cnnaffinity>  (1) 
-4.4562

>  <filename>  (1) 
O=S(=O)(NN=Nc1cccnc1)c1ccccc1

$$$$
