
     RDKit          3D

 34 36  0  0  0  0  0  0  0  0999 V2000
    4.9499    1.8431   16.9630 H   0  0  0  0  0  0  0  0  0  0  0  0
    5.3972    1.3003   17.7950 C   0  0  0  0  0  0  0  0  0  0  0  0
    6.5529    0.6712   17.5411 N   0  0  0  0  0  0  0  0  0  0  0  0
    7.1462    0.0396   18.5625 C   0  0  0  0  0  0  0  0  0  0  0  0
    8.0987   -0.4342   18.3309 H   0  0  0  0  0  0  0  0  0  0  0  0
    6.6209   -0.0334   19.8644 C   0  0  0  0  0  0  0  0  0  0  0  0
    7.3856   -0.7169   20.9874 C   0  0  0  0  0  0  0  0  0  0  0  0
    7.5248   -1.7849   20.8061 H   0  0  0  0  0  0  0  0  0  0  0  0
    6.8210   -0.6086   21.9188 H   0  0  0  0  0  0  0  0  0  0  0  0
    8.7087   -0.1385   21.2238 N   0  0  0  0  0  0  0  0  0  0  0  0
    9.9466   -0.6576   20.9553 C   0  0  0  0  0  0  0  0  0  0  0  0
   10.0680   -1.6506   20.5456 H   0  0  0  0  0  0  0  0  0  0  0  0
   10.9027    0.1714   21.2890 N   0  0  0  0  0  0  0  0  0  0  0  0
   10.2911    1.2739   21.8065 C   0  0  0  0  0  0  0  0  0  0  0  0
   10.8849    2.1145   22.1554 H   0  0  0  0  0  0  0  0  0  0  0  0
    8.9455    1.1015   21.7866 C   0  0  0  0  0  0  0  0  0  0  0  0
    7.7042    2.1726   22.4563 S   0  0  0  0  0  0  0  0  0  0  0  0
    7.1280    2.9163   21.3496 O   0  0  0  0  0  0  0  0  0  0  0  0
    6.8771    1.3264   23.3156 O   0  0  0  0  0  0  0  0  0  0  0  0
    8.6013    3.3075   23.4957 C   0  0  0  0  0  0  0  0  0  0  0  0
    8.7187    3.0122   24.8570 C   0  0  0  0  0  0  0  0  0  0  0  0
    8.3433    2.0672   25.2511 H   0  0  0  0  0  0  0  0  0  0  0  0
    9.2999    3.9623   25.6954 C   0  0  0  0  0  0  0  0  0  0  0  0
    9.3083    3.7831   26.7612 H   0  0  0  0  0  0  0  0  0  0  0  0
    9.8354    5.1519   25.1900 C   0  0  0  0  0  0  0  0  0  0  0  0
   10.2773    5.8818   25.8679 H   0  0  0  0  0  0  0  0  0  0  0  0
    9.7688    5.4003   23.8170 C   0  0  0  0  0  0  0  0  0  0  0  0
   10.2187    6.2965   23.4006 H   0  0  0  0  0  0  0  0  0  0  0  0
    9.1147    4.5010   22.9700 C   0  0  0  0  0  0  0  0  0  0  0  0
    8.9665    4.7585   21.9274 H   0  0  0  0  0  0  0  0  0  0  0  0
    5.3960    0.6060   20.0990 C   0  0  0  0  0  0  0  0  0  0  0  0
    4.9552    0.6315   21.0995 H   0  0  0  0  0  0  0  0  0  0  0  0
    4.7776    1.2856   19.0467 C   0  0  0  0  0  0  0  0  0  0  0  0
    3.8559    1.8344   19.1950 H   0  0  0  0  0  0  0  0  0  0  0  0
  1  2  1  0
  2  3  2  0
  3  4  1  0
  4  5  1  0
  4  6  2  0
  6  7  1  0
  7  8  1  0
  7  9  1  0
  7 10  1  0
 10 11  1  0
 11 12  1  0
 11 13  2  0
 13 14  1  0
 14 15  1  0
 14 16  2  0
 16 17  1  0
 17 18  2  0
 17 19  2  0
 17 20  1  0
 20 21  2  0
 21 22  1  0
 21 23  1  0
 23 24  1  0
 23 25  2  0
 25 26  1  0
 25 27  1  0
 27 28  1  0
 27 29  2  0
 29 30  1  0
  6 31  1  0
 31 32  1  0
 31 33  2  0
 33 34  1  0
 33  2  1  0
 16 10  1  0
 29 20  1  0
M  END
>  <cnnaffinity>  (1) 
-4.91158

>  <filename>  (1) 
O=S(=O)(c1ccccc1)c1cncn1Cc1cccnc1

$$$$
