
     RDKit          3D

 35 37  0  0  0  0  0  0  0  0999 V2000
    7.3894    0.9506   22.3487 H   0  0  0  0  0  0  0  0  0  0  0  0
    7.6695   -0.0771   22.1670 C   0  0  0  0  0  0  0  0  0  0  0  0
    7.3138   -0.6633   20.9956 C   0  0  0  0  0  0  0  0  0  0  0  0
    6.6497    0.0387   19.8991 C   0  0  0  0  0  0  0  0  0  0  0  0
    7.1844    0.0239   18.6001 C   0  0  0  0  0  0  0  0  0  0  0  0
    8.1254   -0.4933   18.4060 H   0  0  0  0  0  0  0  0  0  0  0  0
    6.6087    0.6256   17.5539 N   0  0  0  0  0  0  0  0  0  0  0  0
    5.4463    1.2631   17.7694 C   0  0  0  0  0  0  0  0  0  0  0  0
    5.0062    1.7542   16.9040 H   0  0  0  0  0  0  0  0  0  0  0  0
    4.8210    1.3278   19.0197 C   0  0  0  0  0  0  0  0  0  0  0  0
    3.8863    1.8659   19.1253 H   0  0  0  0  0  0  0  0  0  0  0  0
    5.4431    0.7241   20.1101 C   0  0  0  0  0  0  0  0  0  0  0  0
    4.9985    0.7492   21.1070 H   0  0  0  0  0  0  0  0  0  0  0  0
    7.5574   -2.0167   20.8101 N   0  0  0  0  0  0  0  0  0  0  0  0
    7.1886   -2.5071   20.0129 H   0  0  0  0  0  0  0  0  0  0  0  0
    7.8335   -2.8609   21.8424 C   0  0  0  0  0  0  0  0  0  0  0  0
    7.6277   -4.5027   21.7366 S   0  0  0  0  0  0  0  0  0  0  0  0
    8.2950   -2.2568   22.9606 N   0  0  0  0  0  0  0  0  0  0  0  0
    8.3143   -2.9101   23.7293 H   0  0  0  0  0  0  0  0  0  0  0  0
    8.4858   -0.7948   23.1673 C   0  0  1  0  0  0  0  0  0  0  0  0
    8.2708   -0.5409   24.2130 H   0  0  0  0  0  0  0  0  0  0  0  0
   10.4132    0.2492   23.3722 S   0  0  0  0  0  0  0  0  0  0  0  0
   11.0217   -0.2504   24.6054 O   0  0  0  0  0  0  0  0  0  0  0  0
   11.1228    0.2005   22.0971 O   0  0  0  0  0  0  0  0  0  0  0  0
    9.8615    1.9320   23.6534 C   0  0  0  0  0  0  0  0  0  0  0  0
    9.5649    2.7552   22.5573 C   0  0  0  0  0  0  0  0  0  0  0  0
    9.6280    2.3838   21.5350 H   0  0  0  0  0  0  0  0  0  0  0  0
    9.1689    4.0744   22.7915 C   0  0  0  0  0  0  0  0  0  0  0  0
    8.9297    4.7167   21.9513 H   0  0  0  0  0  0  0  0  0  0  0  0
    9.0593    4.5699   24.0935 C   0  0  0  0  0  0  0  0  0  0  0  0
    8.7617    5.6026   24.2607 H   0  0  0  0  0  0  0  0  0  0  0  0
    9.3295    3.7230   25.1742 C   0  0  0  0  0  0  0  0  0  0  0  0
    9.2331    4.0906   26.1899 H   0  0  0  0  0  0  0  0  0  0  0  0
    9.7228    2.3999   24.9637 C   0  0  0  0  0  0  0  0  0  0  0  0
    9.9194    1.7422   25.8100 H   0  0  0  0  0  0  0  0  0  0  0  0
  1  2  1  0
  2  3  2  0
  3  4  1  0
  4  5  2  0
  5  6  1  0
  5  7  1  0
  7  8  2  0
  8  9  1  0
  8 10  1  0
 10 11  1  0
 10 12  2  0
 12 13  1  0
  3 14  1  0
 14 15  1  0
 14 16  1  0
 16 17  2  0
 16 18  1  0
 18 19  1  0
 18 20  1  0
 20 21  1  1
 20 22  1  0
 22 23  2  0
 22 24  2  0
 22 25  1  0
 25 26  2  0
 26 27  1  0
 26 28  1  0
 28 29  1  0
 28 30  2  0
 30 31  1  0
 30 32  1  0
 32 33  1  0
 32 34  2  0
 34 35  1  0
 20  2  1  0
 34 25  1  0
 12  4  1  0
M  END
>  <cnnaffinity>  (1) 
-5.45745

>  <filename>  (1) 
O=S(=O)(c1ccccc1)[C@H]1C=C(c2cccnc2)NC(=S)N1

$$$$
