
     RDKit          3D

 35 37  0  0  0  0  0  0  0  0999 V2000
    5.0101    1.8401   17.0226 H   0  0  0  0  0  0  0  0  0  0  0  0
    5.4846    1.2940   17.8343 C   0  0  0  0  0  0  0  0  0  0  0  0
    6.6450    0.6863   17.5423 N   0  0  0  0  0  0  0  0  0  0  0  0
    7.2594    0.0256   18.5301 C   0  0  0  0  0  0  0  0  0  0  0  0
    8.1885   -0.4760   18.2662 H   0  0  0  0  0  0  0  0  0  0  0  0
    6.7438   -0.0765   19.8379 C   0  0  0  0  0  0  0  0  0  0  0  0
    7.4168   -0.8352   20.8488 N   0  0  0  0  0  0  0  0  0  0  0  0
    8.7179   -0.5869   21.2589 C   0  0  0  0  0  0  0  0  0  0  0  0
    9.2663    0.2394   20.8195 H   0  0  0  0  0  0  0  0  0  0  0  0
    9.0324   -1.4870   22.2133 C   0  0  0  0  0  0  0  0  0  0  0  0
   10.6509   -1.5561   22.9960 S   0  0  0  0  0  0  0  0  0  0  0  0
   10.7510   -2.8241   23.6839 O   0  0  0  0  0  0  0  0  0  0  0  0
   11.6153   -1.0783   22.0262 O   0  0  0  0  0  0  0  0  0  0  0  0
   10.5279   -0.3739   24.1550 N   0  0  0  0  0  0  0  0  0  0  0  0
   10.5898    1.0324   23.7063 C   0  0  0  0  0  0  0  0  0  0  0  0
    9.6742    1.3260   23.1663 H   0  0  0  0  0  0  0  0  0  0  0  0
   11.4501    1.1611   23.0424 H   0  0  0  0  0  0  0  0  0  0  0  0
   10.7976    1.9515   24.9192 C   0  0  0  0  0  0  0  0  0  0  0  0
   11.8377    1.8409   25.2682 H   0  0  0  0  0  0  0  0  0  0  0  0
   10.6301    2.9917   24.6268 H   0  0  0  0  0  0  0  0  0  0  0  0
    9.8775    1.7036   25.9690 O   0  0  0  0  0  0  0  0  0  0  0  0
    9.8926    0.3499   26.4031 C   0  0  0  0  0  0  0  0  0  0  0  0
    9.1242    0.2815   27.1779 H   0  0  0  0  0  0  0  0  0  0  0  0
   10.8679    0.0813   26.8448 H   0  0  0  0  0  0  0  0  0  0  0  0
    9.5769   -0.6191   25.2581 C   0  0  0  0  0  0  0  0  0  0  0  0
    9.6905   -1.6443   25.6232 H   0  0  0  0  0  0  0  0  0  0  0  0
    8.5331   -0.4679   24.9403 H   0  0  0  0  0  0  0  0  0  0  0  0
    7.8804   -2.2778   22.3831 N   0  0  0  0  0  0  0  0  0  0  0  0
    7.6473   -2.9920   23.0657 H   0  0  0  0  0  0  0  0  0  0  0  0
    6.8834   -1.9086   21.5358 C   0  0  0  0  0  0  0  0  0  0  0  0
    5.4389   -2.7179   21.3857 S   0  0  0  0  0  0  0  0  0  0  0  0
    5.5293    0.5493   20.1338 C   0  0  0  0  0  0  0  0  0  0  0  0
    5.1091    0.4816   21.1404 H   0  0  0  0  0  0  0  0  0  0  0  0
    4.8964    1.2536   19.1039 C   0  0  0  0  0  0  0  0  0  0  0  0
    3.9659    1.7778   19.2822 H   0  0  0  0  0  0  0  0  0  0  0  0
  1  2  1  0
  2  3  2  0
  3  4  1  0
  4  5  1  0
  4  6  2  0
  6  7  1  0
  7  8  1  0
  8  9  1  0
  8 10  2  0
 10 11  1  0
 11 12  2  0
 11 13  2  0
 11 14  1  0
 14 15  1  0
 15 16  1  0
 15 17  1  0
 15 18  1  0
 18 19  1  0
 18 20  1  0
 18 21  1  0
 21 22  1  0
 22 23  1  0
 22 24  1  0
 22 25  1  0
 25 26  1  0
 25 27  1  0
 10 28  1  0
 28 29  1  0
 28 30  1  0
 30 31  2  0
  6 32  1  0
 32 33  1  0
 32 34  2  0
 34 35  1  0
 34  2  1  0
 30  7  1  0
 25 14  1  0
M  END
>  <cnnaffinity>  (1) 
-5.46111

>  <filename>  (1) 
O=S(=O)(c1cn(-c2cccnc2)c(=S)[nH]1)N1CCOCC1

$$$$
