
     RDKit          3D

 30 32  0  0  0  0  0  0  0  0999 V2000
    4.9766    1.8163   16.9640 H   0  0  0  0  0  0  0  0  0  0  0  0
    5.4009    1.2991   17.8226 C   0  0  0  0  0  0  0  0  0  0  0  0
    6.5624    0.6623   17.6121 N   0  0  0  0  0  0  0  0  0  0  0  0
    7.1473    0.0698   18.6572 C   0  0  0  0  0  0  0  0  0  0  0  0
    8.0804   -0.4537   18.4427 H   0  0  0  0  0  0  0  0  0  0  0  0
    6.6134    0.0759   19.9560 C   0  0  0  0  0  0  0  0  0  0  0  0
    7.3426   -0.6330   21.0176 C   0  0  0  0  0  0  0  0  0  0  0  0
    7.9163   -1.7936   20.8071 N   0  0  0  0  0  0  0  0  0  0  0  0
    8.4964   -2.1799   21.9926 O   0  0  0  0  0  0  0  0  0  0  0  0
    8.3051   -1.2254   22.9055 C   0  0  0  0  0  0  0  0  0  0  0  0
    8.7923   -1.3393   23.8660 H   0  0  0  0  0  0  0  0  0  0  0  0
    7.5633   -0.2457   22.3538 C   0  0  0  0  0  0  0  0  0  0  0  0
    7.3954    1.3235   22.9995 S   0  0  0  0  0  0  0  0  0  0  0  0
    7.3998    2.2463   21.8738 O   0  0  0  0  0  0  0  0  0  0  0  0
    8.3776    1.3798   24.0748 O   0  0  0  0  0  0  0  0  0  0  0  0
    5.7650    1.2807   23.7258 C   0  0  0  0  0  0  0  0  0  0  0  0
    5.3975    0.2347   24.5865 C   0  0  0  0  0  0  0  0  0  0  0  0
    6.0395   -0.6279   24.7714 H   0  0  0  0  0  0  0  0  0  0  0  0
    4.1372    0.2581   25.1922 C   0  0  0  0  0  0  0  0  0  0  0  0
    3.8295   -0.5880   25.8043 H   0  0  0  0  0  0  0  0  0  0  0  0
    3.2681    1.3378   24.9879 C   0  0  0  0  0  0  0  0  0  0  0  0
    2.2831    1.3378   25.4515 H   0  0  0  0  0  0  0  0  0  0  0  0
    3.6623    2.3978   24.1581 C   0  0  0  0  0  0  0  0  0  0  0  0
    2.9961    3.2418   23.9850 H   0  0  0  0  0  0  0  0  0  0  0  0
    4.9027    2.3666   23.5133 C   0  0  0  0  0  0  0  0  0  0  0  0
    5.1884    3.1783   22.8426 H   0  0  0  0  0  0  0  0  0  0  0  0
    5.3683    0.6892   20.1433 C   0  0  0  0  0  0  0  0  0  0  0  0
    4.8771    0.6729   21.1173 H   0  0  0  0  0  0  0  0  0  0  0  0
    4.7580    1.3223   19.0626 C   0  0  0  0  0  0  0  0  0  0  0  0
    3.8193    1.8502   19.1792 H   0  0  0  0  0  0  0  0  0  0  0  0
  1  2  1  0
  2  3  2  0
  3  4  1  0
  4  5  1  0
  4  6  2  0
  6  7  1  0
  7  8  2  0
  8  9  1  0
  9 10  1  0
 10 11  1  0
 10 12  2  0
 12 13  1  0
 13 14  2  0
 13 15  2  0
 13 16  1  0
 16 17  2  0
 17 18  1  0
 17 19  1  0
 19 20  1  0
 19 21  2  0
 21 22  1  0
 21 23  1  0
 23 24  1  0
 23 25  2  0
 25 26  1  0
  6 27  1  0
 27 28  1  0
 27 29  2  0
 29 30  1  0
 29  2  1  0
 12  7  1  0
 25 16  1  0
M  END
>  <cnnaffinity>  (1) 
-4.91056

>  <filename>  (1) 
O=S(=O)(c1ccccc1)c1conc1-c1cccnc1

$$$$
