
     RDKit          3D

 36 38  0  0  0  0  0  0  0  0999 V2000
    4.9797    1.7555   17.0246 H   0  0  0  0  0  0  0  0  0  0  0  0
    5.4406    1.2669   17.8785 C   0  0  0  0  0  0  0  0  0  0  0  0
    6.6008    0.6424   17.6410 N   0  0  0  0  0  0  0  0  0  0  0  0
    7.1984    0.0287   18.6582 C   0  0  0  0  0  0  0  0  0  0  0  0
    8.1400   -0.4681   18.4283 H   0  0  0  0  0  0  0  0  0  0  0  0
    6.6455    0.0284   19.9326 C   0  0  0  0  0  0  0  0  0  0  0  0
    7.5068   -0.8524   21.1586 S   0  0  0  0  0  0  0  0  0  0  0  0
    8.5562   -1.6281   20.5076 O   0  0  0  0  0  0  0  0  0  0  0  0
    6.5154   -1.4709   22.0233 O   0  0  0  0  0  0  0  0  0  0  0  0
    8.3169    0.3773   22.1400 C   0  0  0  0  0  0  0  0  0  0  0  0
    8.7547   -0.2319   22.9340 H   0  0  0  0  0  0  0  0  0  0  0  0
    7.5090    0.9760   22.5673 H   0  0  0  0  0  0  0  0  0  0  0  0
    9.3620    1.1902   21.3765 C   0  0  0  0  0  0  0  0  0  0  0  0
    8.8696    1.7160   20.5466 H   0  0  0  0  0  0  0  0  0  0  0  0
   10.1009    0.5090   20.9361 H   0  0  0  0  0  0  0  0  0  0  0  0
   10.0351    2.1903   22.2836 C   0  0  0  0  0  0  0  0  0  0  0  0
   11.2244    1.8367   22.9895 C   0  0  0  0  0  0  0  0  0  0  0  0
   11.6425    0.8400   22.8520 H   0  0  0  0  0  0  0  0  0  0  0  0
   11.8514    2.7326   23.8223 C   0  0  0  0  0  0  0  0  0  0  0  0
   12.7606    2.4238   24.3297 H   0  0  0  0  0  0  0  0  0  0  0  0
   11.3293    4.0515   24.0191 C   0  0  0  0  0  0  0  0  0  0  0  0
   11.9380    5.0334   24.8646 C   0  0  0  0  0  0  0  0  0  0  0  0
   12.8543    4.8120   25.3991 H   0  0  0  0  0  0  0  0  0  0  0  0
   11.3802    6.2778   25.0281 C   0  0  0  0  0  0  0  0  0  0  0  0
   11.8597    6.9946   25.6886 H   0  0  0  0  0  0  0  0  0  0  0  0
   10.1836    6.6297   24.3428 C   0  0  0  0  0  0  0  0  0  0  0  0
    9.7584    7.6198   24.4865 H   0  0  0  0  0  0  0  0  0  0  0  0
    9.5770    5.7195   23.5099 C   0  0  0  0  0  0  0  0  0  0  0  0
    8.6665    5.9809   22.9712 H   0  0  0  0  0  0  0  0  0  0  0  0
   10.1229    4.4109   23.3277 C   0  0  0  0  0  0  0  0  0  0  0  0
    9.5044    3.4489   22.4722 C   0  0  0  0  0  0  0  0  0  0  0  0
    8.6012    3.7450   21.9395 H   0  0  0  0  0  0  0  0  0  0  0  0
    5.4282    0.6594   20.2039 C   0  0  0  0  0  0  0  0  0  0  0  0
    4.9504    0.6372   21.1881 H   0  0  0  0  0  0  0  0  0  0  0  0
    4.8244    1.3034   19.1334 C   0  0  0  0  0  0  0  0  0  0  0  0
    3.8882    1.8312   19.2561 H   0  0  0  0  0  0  0  0  0  0  0  0
  1  2  1  0
  2  3  2  0
  3  4  1  0
  4  5  1  0
  4  6  2  0
  6  7  1  0
  7  8  2  0
  7  9  2  0
  7 10  1  0
 10 11  1  0
 10 12  1  0
 10 13  1  0
 13 14  1  0
 13 15  1  0
 13 16  1  0
 16 17  2  0
 17 18  1  0
 17 19  1  0
 19 20  1  0
 19 21  2  0
 21 22  1  0
 22 23  1  0
 22 24  2  0
 24 25  1  0
 24 26  1  0
 26 27  1  0
 26 28  2  0
 28 29  1  0
 28 30  1  0
 30 31  2  0
 31 32  1  0
  6 33  1  0
 33 34  1  0
 33 35  2  0
 35 36  1  0
 35  2  1  0
 31 16  1  0
 30 21  1  0
M  END
>  <cnnaffinity>  (1) 
-4.87217

>  <filename>  (1) 
O=S(=O)(CCc1ccc2ccccc2c1)c1cccnc1

$$$$
