
     RDKit          3D

 36 39  0  0  0  0  0  0  0  0999 V2000
    4.9934    1.7880   16.9796 H   0  0  0  0  0  0  0  0  0  0  0  0
    5.4331    1.2798   17.8351 C   0  0  0  0  0  0  0  0  0  0  0  0
    6.5845    0.6319   17.6027 N   0  0  0  0  0  0  0  0  0  0  0  0
    7.1503    0.0077   18.6432 C   0  0  0  0  0  0  0  0  0  0  0  0
    8.0868   -0.5164   18.4491 H   0  0  0  0  0  0  0  0  0  0  0  0
    6.6249   -0.0075   19.9462 C   0  0  0  0  0  0  0  0  0  0  0  0
    7.3634   -0.7230   21.0493 C   0  0  0  0  0  0  0  0  0  0  0  0
    7.0206   -2.1774   21.2334 C   0  0  0  0  0  0  0  0  0  0  0  0
    7.8904   -3.1506   21.2556 N   0  0  0  0  0  0  0  0  0  0  0  0
    7.3516   -4.3743   21.4420 N   0  0  0  0  0  0  0  0  0  0  0  0
    6.0610   -4.3119   21.6032 C   0  0  0  0  0  0  0  0  0  0  0  0
    5.0734   -5.6810   22.1777 S   0  0  0  0  0  0  0  0  0  0  0  0
    5.6838   -6.9038   21.6716 O   0  0  0  0  0  0  0  0  0  0  0  0
    3.6733   -5.3440   21.9587 O   0  0  0  0  0  0  0  0  0  0  0  0
    5.3364   -5.5460   23.9436 C   0  0  0  0  0  0  0  0  0  0  0  0
    6.6077   -5.8279   24.4664 C   0  0  0  0  0  0  0  0  0  0  0  0
    7.4774   -5.9529   23.8188 H   0  0  0  0  0  0  0  0  0  0  0  0
    6.7354   -5.9921   25.8460 C   0  0  0  0  0  0  0  0  0  0  0  0
    7.6978   -6.2853   26.2596 H   0  0  0  0  0  0  0  0  0  0  0  0
    5.6331   -5.8186   26.6885 C   0  0  0  0  0  0  0  0  0  0  0  0
    5.7392   -5.9878   27.7560 H   0  0  0  0  0  0  0  0  0  0  0  0
    4.4074   -5.3959   26.1573 C   0  0  0  0  0  0  0  0  0  0  0  0
    3.5639   -5.2045   26.8131 H   0  0  0  0  0  0  0  0  0  0  0  0
    4.2572   -5.2357   24.7805 C   0  0  0  0  0  0  0  0  0  0  0  0
    3.3185   -4.8776   24.3592 H   0  0  0  0  0  0  0  0  0  0  0  0
    5.3966   -2.7358   21.4701 S   0  0  0  0  0  0  0  0  0  0  0  0
    8.7999   -0.3315   21.3131 C   0  0  0  0  0  0  0  0  0  0  0  0
    9.2408    0.4290   20.6727 H   0  0  0  0  0  0  0  0  0  0  0  0
    9.4692   -1.1416   21.5939 H   0  0  0  0  0  0  0  0  0  0  0  0
    7.7448    0.0790   22.2897 C   0  0  0  0  0  0  0  0  0  0  0  0
    7.4408    1.1249   22.3022 H   0  0  0  0  0  0  0  0  0  0  0  0
    7.7021   -0.4153   23.2563 H   0  0  0  0  0  0  0  0  0  0  0  0
    5.4081    0.6531   20.1586 C   0  0  0  0  0  0  0  0  0  0  0  0
    4.9624    0.6613   21.1549 H   0  0  0  0  0  0  0  0  0  0  0  0
    4.8023    1.3088   19.0838 C   0  0  0  0  0  0  0  0  0  0  0  0
    3.8681    1.8453   19.2002 H   0  0  0  0  0  0  0  0  0  0  0  0
  1  2  1  0
  2  3  2  0
  3  4  1  0
  4  5  1  0
  4  6  2  0
  6  7  1  0
  7  8  1  0
  8  9  2  0
  9 10  1  0
 10 11  2  0
 11 12  1  0
 12 13  2  0
 12 14  2  0
 12 15  1  0
 15 16  2  0
 16 17  1  0
 16 18  1  0
 18 19  1  0
 18 20  2  0
 20 21  1  0
 20 22  1  0
 22 23  1  0
 22 24  2  0
 24 25  1  0
 11 26  1  0
  7 27  1  0
 27 28  1  0
 27 29  1  0
 27 30  1  0
 30 31  1  0
 30 32  1  0
  6 33  1  0
 33 34  1  0
 33 35  2  0
 35 36  1  0
 35  2  1  0
 30  7  1  0
 26  8  1  0
 24 15  1  0
M  END
>  <cnnaffinity>  (1) 
-5.58415

>  <filename>  (1) 
O=S(=O)(c1ccccc1)c1nnc(C2(c3cccnc3)CC2)s1

$$$$
