
     RDKit          3D

 34 35  0  0  0  0  0  0  0  0999 V2000
    5.0468    1.7473   17.0131 H   0  0  0  0  0  0  0  0  0  0  0  0
    5.4858    1.2610   17.8866 C   0  0  0  0  0  0  0  0  0  0  0  0
    6.6496    0.6228   17.6910 N   0  0  0  0  0  0  0  0  0  0  0  0
    7.2162    0.0029   18.7221 C   0  0  0  0  0  0  0  0  0  0  0  0
    8.1605   -0.5094   18.5344 H   0  0  0  0  0  0  0  0  0  0  0  0
    6.6223    0.0028   19.9702 C   0  0  0  0  0  0  0  0  0  0  0  0
    7.5364   -0.8328   21.1723 S   0  0  0  0  0  0  0  0  0  0  0  0
    8.2291   -1.9508   20.5904 O   0  0  0  0  0  0  0  0  0  0  0  0
    6.7011   -0.9792   22.3425 O   0  0  0  0  0  0  0  0  0  0  0  0
    8.6972    0.2529   21.4588 O   0  0  0  0  0  0  0  0  0  0  0  0
    8.3049    1.4806   22.0960 C   0  0  0  0  0  0  0  0  0  0  0  0
    7.8807    2.1639   21.3388 H   0  0  0  0  0  0  0  0  0  0  0  0
    7.5407    1.2921   22.8568 H   0  0  0  0  0  0  0  0  0  0  0  0
    9.5417    2.1288   22.7185 C   0  0  0  0  0  0  0  0  0  0  0  0
   10.3159    2.1022   21.9405 H   0  0  0  0  0  0  0  0  0  0  0  0
    9.1806    3.5913   23.0529 C   0  0  0  0  0  0  0  0  0  0  0  0
   10.1033    4.1449   23.2797 H   0  0  0  0  0  0  0  0  0  0  0  0
    8.7334    4.0564   22.1641 H   0  0  0  0  0  0  0  0  0  0  0  0
    8.2147    3.6977   24.2500 C   0  0  0  0  0  0  0  0  0  0  0  0
    7.2384    3.2565   24.0007 H   0  0  0  0  0  0  0  0  0  0  0  0
    8.0216    4.7546   24.4650 H   0  0  0  0  0  0  0  0  0  0  0  0
    8.7949    3.0040   25.4892 C   0  0  0  0  0  0  0  0  0  0  0  0
    8.0965    3.0468   26.3325 H   0  0  0  0  0  0  0  0  0  0  0  0
    9.6657    3.5839   25.8042 H   0  0  0  0  0  0  0  0  0  0  0  0
    9.1982    1.5483   25.2079 C   0  0  0  0  0  0  0  0  0  0  0  0
    8.2905    0.9497   25.0445 H   0  0  0  0  0  0  0  0  0  0  0  0
    9.6920    1.1138   26.0876 H   0  0  0  0  0  0  0  0  0  0  0  0
   10.1125    1.4220   23.9764 C   0  0  0  0  0  0  0  0  0  0  0  0
   11.0796    1.8937   24.2075 H   0  0  0  0  0  0  0  0  0  0  0  0
   10.3348    0.3661   23.7710 H   0  0  0  0  0  0  0  0  0  0  0  0
    5.4088    0.6570   20.2131 C   0  0  0  0  0  0  0  0  0  0  0  0
    4.9395    0.6747   21.2009 H   0  0  0  0  0  0  0  0  0  0  0  0
    4.8312    1.2989   19.1232 C   0  0  0  0  0  0  0  0  0  0  0  0
    3.8962    1.8380   19.2219 H   0  0  0  0  0  0  0  0  0  0  0  0
  1  2  1  0
  2  3  2  0
  3  4  1  0
  4  5  1  0
  4  6  2  0
  6  7  1  0
  7  8  2  0
  7  9  2  0
  7 10  1  0
 10 11  1  0
 11 12  1  0
 11 13  1  0
 11 14  1  0
 14 15  1  0
 14 16  1  0
 16 17  1  0
 16 18  1  0
 16 19  1  0
 19 20  1  0
 19 21  1  0
 19 22  1  0
 22 23  1  0
 22 24  1  0
 22 25  1  0
 25 26  1  0
 25 27  1  0
 25 28  1  0
 28 29  1  0
 28 30  1  0
  6 31  1  0
 31 32  1  0
 31 33  2  0
 33 34  1  0
 33  2  1  0
 28 14  1  0
M  END
>  <cnnaffinity>  (1) 
-4.69263

>  <filename>  (1) 
O=S(=O)(OCC1CCCCC1)c1cccnc1

$$$$
