
     RDKit          3D

 36 38  0  0  0  0  0  0  0  0999 V2000
    5.0196    1.7257   16.9282 H   0  0  0  0  0  0  0  0  0  0  0  0
    5.5160    1.2965   17.7982 C   0  0  0  0  0  0  0  0  0  0  0  0
    6.6776    0.6631   17.5711 N   0  0  0  0  0  0  0  0  0  0  0  0
    7.3055    0.1140   18.6186 C   0  0  0  0  0  0  0  0  0  0  0  0
    8.2412   -0.4063   18.4102 H   0  0  0  0  0  0  0  0  0  0  0  0
    6.8053    0.1527   19.9375 C   0  0  0  0  0  0  0  0  0  0  0  0
    7.4463   -0.5610   21.0086 N   0  0  0  0  0  0  0  0  0  0  0  0
    6.9320   -1.6465   21.6862 C   0  0  0  0  0  0  0  0  0  0  0  0
    5.9380   -2.0363   21.5062 H   0  0  0  0  0  0  0  0  0  0  0  0
    7.7967   -2.1349   22.5312 N   0  0  0  0  0  0  0  0  0  0  0  0
    8.9237   -1.3509   22.4422 N   0  0  0  0  0  0  0  0  0  0  0  0
    8.6970   -0.4275   21.5624 C   0  0  0  0  0  0  0  0  0  0  0  0
    9.6361    0.6755   21.2892 C   0  0  0  0  0  0  0  0  0  0  0  0
    9.4779    1.1484   20.3280 H   0  0  0  0  0  0  0  0  0  0  0  0
   10.6594    0.3430   21.4443 H   0  0  0  0  0  0  0  0  0  0  0  0
    9.2338    1.8401   22.5542 S   0  0  0  0  0  0  0  0  0  0  0  0
    7.8500    2.2082   22.3681 O   0  0  0  0  0  0  0  0  0  0  0  0
    9.7393    1.3327   23.8153 O   0  0  0  0  0  0  0  0  0  0  0  0
   10.2028    3.1828   22.1636 N   0  0  0  0  0  0  0  0  0  0  0  0
   11.6517    2.8878   22.0157 C   0  0  0  0  0  0  0  0  0  0  0  0
   11.8046    2.2152   21.1645 H   0  0  0  0  0  0  0  0  0  0  0  0
   12.0389    2.4173   22.9322 H   0  0  0  0  0  0  0  0  0  0  0  0
   12.4668    4.1655   21.7270 C   0  0  0  0  0  0  0  0  0  0  0  0
   13.5299    3.9192   21.7459 H   0  0  0  0  0  0  0  0  0  0  0  0
   12.2268    4.5520   20.7199 H   0  0  0  0  0  0  0  0  0  0  0  0
   12.2738    5.1670   22.7167 O   0  0  0  0  0  0  0  0  0  0  0  0
   10.8974    5.5099   22.7936 C   0  0  0  0  0  0  0  0  0  0  0  0
   10.5629    5.9781   21.8540 H   0  0  0  0  0  0  0  0  0  0  0  0
   10.7963    6.2586   23.5812 H   0  0  0  0  0  0  0  0  0  0  0  0
   10.0037    4.3014   23.1399 C   0  0  0  0  0  0  0  0  0  0  0  0
   10.2430    3.9774   24.1669 H   0  0  0  0  0  0  0  0  0  0  0  0
    8.9586    4.6283   23.1137 H   0  0  0  0  0  0  0  0  0  0  0  0
    5.6063    0.8410   20.1671 C   0  0  0  0  0  0  0  0  0  0  0  0
    5.2198    0.9462   21.1818 H   0  0  0  0  0  0  0  0  0  0  0  0
    4.9484    1.4133   19.0697 C   0  0  0  0  0  0  0  0  0  0  0  0
    4.0109    1.9464   19.1866 H   0  0  0  0  0  0  0  0  0  0  0  0
  1  2  1  0
  2  3  2  0
  3  4  1  0
  4  5  1  0
  4  6  2  0
  6  7  1  0
  7  8  1  0
  8  9  1  0
  8 10  2  0
 10 11  1  0
 11 12  2  0
 12 13  1  0
 13 14  1  0
 13 15  1  0
 13 16  1  0
 16 17  2  0
 16 18  2  0
 16 19  1  0
 19 20  1  0
 20 21  1  0
 20 22  1  0
 20 23  1  0
 23 24  1  0
 23 25  1  0
 23 26  1  0
 26 27  1  0
 27 28  1  0
 27 29  1  0
 27 30  1  0
 30 31  1  0
 30 32  1  0
  6 33  1  0
 33 34  1  0
 33 35  2  0
 35 36  1  0
 35  2  1  0
 12  7  1  0
 30 19  1  0
M  END
>  <cnnaffinity>  (1) 
-5.01037

>  <filename>  (1) 
O=S(=O)(Cc1nncn1-c1cccnc1)N1CCOCC1

$$$$
