
     RDKit          3D

 37 40  0  0  0  0  0  0  0  0999 V2000
    5.0193    1.6205   16.5191 H   0  0  0  0  0  0  0  0  0  0  0  0
    5.4564    1.1468   17.3938 C   0  0  0  0  0  0  0  0  0  0  0  0
    6.6521    0.5655   17.2149 N   0  0  0  0  0  0  0  0  0  0  0  0
    7.2478    0.0140   18.2763 C   0  0  0  0  0  0  0  0  0  0  0  0
    8.2162   -0.4461   18.0858 H   0  0  0  0  0  0  0  0  0  0  0  0
    6.6967    0.0316   19.5718 C   0  0  0  0  0  0  0  0  0  0  0  0
    7.4171   -0.4402   20.6908 N   0  0  0  0  0  0  0  0  0  0  0  0
    8.4456   -1.3834   20.7059 C   0  0  0  0  0  0  0  0  0  0  0  0
    8.7669   -1.8245   19.7800 H   0  0  0  0  0  0  0  0  0  0  0  0
    8.9476   -1.4875   21.9602 C   0  0  0  0  0  0  0  0  0  0  0  0
    9.7637   -2.0302   22.4082 H   0  0  0  0  0  0  0  0  0  0  0  0
    8.2226   -0.5962   22.7343 N   0  0  0  0  0  0  0  0  0  0  0  0
    8.4522   -0.0106   23.9538 N   0  0  0  0  0  0  0  0  0  0  0  0
    7.6828    1.0636   23.8629 C   0  0  0  0  0  0  0  0  0  0  0  0
    7.6856    2.0258   24.8328 N   0  0  0  0  0  0  0  0  0  0  0  0
    7.5498    2.9867   24.5954 H   0  0  0  0  0  0  0  0  0  0  0  0
    8.8665    1.9880   25.9474 S   0  0  0  0  0  0  0  0  0  0  0  0
    8.6474    0.8222   26.7677 O   0  0  0  0  0  0  0  0  0  0  0  0
    8.7911    3.3664   26.4093 O   0  0  0  0  0  0  0  0  0  0  0  0
   10.4034    1.7648   25.0667 C   0  0  0  0  0  0  0  0  0  0  0  0
   11.3058    0.7994   25.5452 C   0  0  0  0  0  0  0  0  0  0  0  0
   11.0544    0.1560   26.3902 H   0  0  0  0  0  0  0  0  0  0  0  0
   12.5673    0.6848   24.9528 C   0  0  0  0  0  0  0  0  0  0  0  0
   13.2727   -0.0573   25.3153 H   0  0  0  0  0  0  0  0  0  0  0  0
   12.9272    1.5063   23.8823 C   0  0  0  0  0  0  0  0  0  0  0  0
   13.9188    1.4357   23.4353 H   0  0  0  0  0  0  0  0  0  0  0  0
   12.0001    2.4292   23.3858 C   0  0  0  0  0  0  0  0  0  0  0  0
   12.2530    3.0302   22.5193 H   0  0  0  0  0  0  0  0  0  0  0  0
   10.7297    2.5539   23.9513 C   0  0  0  0  0  0  0  0  0  0  0  0
   10.0320    3.2654   23.5022 H   0  0  0  0  0  0  0  0  0  0  0  0
    6.9217    1.1895   22.6970 C   0  0  0  0  0  0  0  0  0  0  0  0
    6.1916    1.9545   22.5062 H   0  0  0  0  0  0  0  0  0  0  0  0
    7.3277    0.0798   21.9767 C   0  0  0  0  0  0  0  0  0  0  0  0
    5.4150    0.5841   19.7352 C   0  0  0  0  0  0  0  0  0  0  0  0
    4.9518    0.5644   20.7230 H   0  0  0  0  0  0  0  0  0  0  0  0
    4.7922    1.1592   18.6254 C   0  0  0  0  0  0  0  0  0  0  0  0
    3.8237    1.6430   18.7088 H   0  0  0  0  0  0  0  0  0  0  0  0
  1  2  1  0
  2  3  2  0
  3  4  1  0
  4  5  1  0
  4  6  2  0
  6  7  1  0
  7  8  1  0
  8  9  1  0
  8 10  2  0
 10 11  1  0
 10 12  1  0
 12 13  1  0
 13 14  2  0
 14 15  1  0
 15 16  1  0
 15 17  1  0
 17 18  2  0
 17 19  2  0
 17 20  1  0
 20 21  2  0
 21 22  1  0
 21 23  1  0
 23 24  1  0
 23 25  2  0
 25 26  1  0
 25 27  1  0
 27 28  1  0
 27 29  2  0
 29 30  1  0
 14 31  1  0
 31 32  1  0
 31 33  2  0
  6 34  1  0
 34 35  1  0
 34 36  2  0
 36 37  1  0
 36  2  1  0
 33  7  1  0
 33 12  1  0
 29 20  1  0
M  END
>  <cnnaffinity>  (1) 
-5.48445

>  <filename>  (1) 
O=S(=O)(Nc1cc2n(-c3cccnc3)ccn2n1)c1ccccc1

$$$$
