
     RDKit          3D

 36 38  0  0  0  0  0  0  0  0999 V2000
    4.9209    1.8080   16.9651 H   0  0  0  0  0  0  0  0  0  0  0  0
    5.3870    1.3086   17.8132 C   0  0  0  0  0  0  0  0  0  0  0  0
    6.5479    0.6854   17.5632 N   0  0  0  0  0  0  0  0  0  0  0  0
    7.1522    0.0712   18.5903 C   0  0  0  0  0  0  0  0  0  0  0  0
    8.0975   -0.4206   18.3648 H   0  0  0  0  0  0  0  0  0  0  0  0
    6.6344    0.0207   19.8954 C   0  0  0  0  0  0  0  0  0  0  0  0
    7.3687   -0.6614   20.9706 C   0  0  0  0  0  0  0  0  0  0  0  0
    8.6767   -0.5209   21.3898 C   0  0  0  0  0  0  0  0  0  0  0  0
    9.6915    0.4712   20.9346 C   0  0  0  0  0  0  0  0  0  0  0  0
    9.4812    0.7690   19.8927 H   0  0  0  0  0  0  0  0  0  0  0  0
   10.6715   -0.0241   20.9255 H   0  0  0  0  0  0  0  0  0  0  0  0
    9.7805    1.6469   21.8071 N   0  0  0  0  0  0  0  0  0  0  0  0
    8.5161    2.3946   21.7428 C   0  0  0  0  0  0  0  0  0  0  0  0
    7.7492    1.7914   22.2489 H   0  0  0  0  0  0  0  0  0  0  0  0
    8.1669    2.5043   20.7013 H   0  0  0  0  0  0  0  0  0  0  0  0
    8.6050    3.7805   22.3717 C   0  0  0  0  0  0  0  0  0  0  0  0
    7.7410    4.0529   22.9743 H   0  0  0  0  0  0  0  0  0  0  0  0
    8.7975    4.6009   21.6850 H   0  0  0  0  0  0  0  0  0  0  0  0
    9.9196    3.8607   23.5412 S   0  0  0  0  0  0  0  0  0  0  0  0
   10.1916    5.2751   23.7686 O   0  0  0  0  0  0  0  0  0  0  0  0
    9.5573    2.9685   24.6360 O   0  0  0  0  0  0  0  0  0  0  0  0
   11.3576    3.1877   22.7629 C   0  0  0  0  0  0  0  0  0  0  0  0
   11.7415    2.5473   23.5578 H   0  0  0  0  0  0  0  0  0  0  0  0
   12.0201    4.0329   22.5897 H   0  0  0  0  0  0  0  0  0  0  0  0
   10.9922    2.3992   21.5269 C   0  0  0  0  0  0  0  0  0  0  0  0
   10.9219    3.0117   20.6128 H   0  0  0  0  0  0  0  0  0  0  0  0
   11.8210    1.7098   21.3265 H   0  0  0  0  0  0  0  0  0  0  0  0
    8.8017   -1.3838   22.4974 C   0  0  0  0  0  0  0  0  0  0  0  0
    9.6711   -1.5677   23.1225 H   0  0  0  0  0  0  0  0  0  0  0  0
    7.6655   -2.0259   22.7483 N   0  0  0  0  0  0  0  0  0  0  0  0
    6.8082   -1.5612   21.8216 N   0  0  0  0  0  0  0  0  0  0  0  0
    5.8456   -1.8781   21.8168 H   0  0  0  0  0  0  0  0  0  0  0  0
    5.4123    0.6663   20.1342 C   0  0  0  0  0  0  0  0  0  0  0  0
    4.9873    0.6612   21.1387 H   0  0  0  0  0  0  0  0  0  0  0  0
    4.7870    1.3267   19.0778 C   0  0  0  0  0  0  0  0  0  0  0  0
    3.8559    1.8613   19.2227 H   0  0  0  0  0  0  0  0  0  0  0  0
  1  2  1  0
  2  3  2  0
  3  4  1  0
  4  5  1  0
  4  6  2  0
  6  7  1  0
  7  8  2  0
  8  9  1  0
  9 10  1  0
  9 11  1  0
  9 12  1  0
 12 13  1  0
 13 14  1  0
 13 15  1  0
 13 16  1  0
 16 17  1  0
 16 18  1  0
 16 19  1  0
 19 20  2  0
 19 21  2  0
 19 22  1  0
 22 23  1  0
 22 24  1  0
 22 25  1  0
 25 26  1  0
 25 27  1  0
  8 28  1  0
 28 29  1  0
 28 30  2  0
 30 31  1  0
 31 32  1  0
  6 33  1  0
 33 34  1  0
 33 35  2  0
 35 36  1  0
 35  2  1  0
 31  7  1  0
 25 12  1  0
M  END
>  <cnnaffinity>  (1) 
-4.88593

>  <filename>  (1) 
O=S1(=O)CCN(Cc2cn[nH]c2-c2cccnc2)CC1

$$$$
