
     RDKit          3D

 39 42  0  0  0  0  0  0  0  0999 V2000
   10.0449    1.4128   21.2400 H   0  0  0  0  0  0  0  0  0  0  0  0
    9.5269    0.6984   20.8359 O   0  0  0  0  0  0  0  0  0  0  0  0
    8.5253    0.3636   21.7996 C   0  0  1  0  0  0  0  0  0  0  0  0
    8.9415   -0.2537   22.6160 H   0  0  0  0  0  0  0  0  0  0  0  0
    7.9589    1.6128   22.4342 C   0  0  0  0  0  0  0  0  0  0  0  0
    7.4695    1.8307   23.6985 C   0  0  0  0  0  0  0  0  0  0  0  0
    7.5402    1.1744   24.5567 H   0  0  0  0  0  0  0  0  0  0  0  0
    6.8132    3.1082   23.7049 C   0  0  0  0  0  0  0  0  0  0  0  0
    6.0465    3.8261   24.6509 C   0  0  0  0  0  0  0  0  0  0  0  0
    5.8730    3.3958   25.6330 H   0  0  0  0  0  0  0  0  0  0  0  0
    5.4810    5.0410   24.2835 C   0  0  0  0  0  0  0  0  0  0  0  0
    4.8775    5.5962   24.9974 H   0  0  0  0  0  0  0  0  0  0  0  0
    5.6590    5.5567   22.9735 C   0  0  0  0  0  0  0  0  0  0  0  0
    5.1916    6.4986   22.6985 H   0  0  0  0  0  0  0  0  0  0  0  0
    6.3938    4.8604   22.0194 C   0  0  0  0  0  0  0  0  0  0  0  0
    6.5107    5.2220   21.0015 H   0  0  0  0  0  0  0  0  0  0  0  0
    6.9634    3.6368   22.4046 C   0  0  0  0  0  0  0  0  0  0  0  0
    7.6899    2.7349   21.6659 N   0  0  0  0  0  0  0  0  0  0  0  0
    7.6636    2.7265   20.6577 H   0  0  0  0  0  0  0  0  0  0  0  0
    7.4253   -0.4971   21.0962 C   0  0  0  0  0  0  0  0  0  0  0  0
    6.6763    0.2469   19.9827 C   0  0  0  0  0  0  0  0  0  0  0  0
    7.2169    0.2775   18.6829 C   0  0  0  0  0  0  0  0  0  0  0  0
    8.1749   -0.2080   18.4864 H   0  0  0  0  0  0  0  0  0  0  0  0
    6.6107    0.8150   17.6162 N   0  0  0  0  0  0  0  0  0  0  0  0
    5.3993    1.3573   17.8122 C   0  0  0  0  0  0  0  0  0  0  0  0
    4.9166    1.7680   16.9298 H   0  0  0  0  0  0  0  0  0  0  0  0
    4.7599    1.3897   19.0564 C   0  0  0  0  0  0  0  0  0  0  0  0
    3.7726    1.8304   19.1478 H   0  0  0  0  0  0  0  0  0  0  0  0
    5.4185    0.8399   20.1594 C   0  0  0  0  0  0  0  0  0  0  0  0
    4.9757    0.8577   21.1569 H   0  0  0  0  0  0  0  0  0  0  0  0
    6.5337   -1.2815   22.1157 C   0  0  0  0  0  0  0  0  0  0  0  0
    6.4574   -0.8825   23.1374 H   0  0  0  0  0  0  0  0  0  0  0  0
    5.5355   -1.4044   21.6885 H   0  0  0  0  0  0  0  0  0  0  0  0
    7.3548   -2.5787   21.8815 C   0  0  0  0  0  0  0  0  0  0  0  0
    6.7765   -3.4976   21.7132 H   0  0  0  0  0  0  0  0  0  0  0  0
    8.1057   -2.7844   22.6500 H   0  0  0  0  0  0  0  0  0  0  0  0
    7.9200   -1.8981   20.6209 C   0  0  0  0  0  0  0  0  0  0  0  0
    8.9779   -2.0034   20.3476 H   0  0  0  0  0  0  0  0  0  0  0  0
    7.2772   -2.1652   19.7781 H   0  0  0  0  0  0  0  0  0  0  0  0
  1  2  1  0
  2  3  1  0
  3  4  1  1
  3  5  1  0
  5  6  2  0
  6  7  1  0
  6  8  1  0
  8  9  2  0
  9 10  1  0
  9 11  1  0
 11 12  1  0
 11 13  2  0
 13 14  1  0
 13 15  1  0
 15 16  1  0
 15 17  2  0
 17 18  1  0
 18 19  1  0
  3 20  1  0
 20 21  1  0
 21 22  2  0
 22 23  1  0
 22 24  1  0
 24 25  2  0
 25 26  1  0
 25 27  1  0
 27 28  1  0
 27 29  2  0
 29 30  1  0
 20 31  1  0
 31 32  1  0
 31 33  1  0
 31 34  1  0
 34 35  1  0
 34 36  1  0
 34 37  1  0
 37 38  1  0
 37 39  1  0
 18  5  1  0
 37 20  1  0
 17  8  1  0
 29 21  1  0
M  END
>  <cnnaffinity>  (1) 
-4.40314

>  <filename>  (1) 
O[C@@H](c1cc2ccccc2[nH]1)C1(c2cccnc2)CCC1

$$$$
