
     RDKit          3D

 37 39  0  0  0  0  0  0  0  0999 V2000
    9.9357    4.9216   21.5695 H   0  0  0  0  0  0  0  0  0  0  0  0
    9.4987    4.9369   22.4374 O   0  0  0  0  0  0  0  0  0  0  0  0
    8.2901    4.2074   22.2625 C   0  0  0  0  0  0  0  0  0  0  0  0
    7.5384    4.8204   21.7380 H   0  0  0  0  0  0  0  0  0  0  0  0
    8.5556    2.9399   21.4390 C   0  0  0  0  0  0  0  0  0  0  0  0
    8.9883    3.1615   20.4679 H   0  0  0  0  0  0  0  0  0  0  0  0
    7.5976    2.4656   21.2068 H   0  0  0  0  0  0  0  0  0  0  0  0
    9.4529    1.9839   22.2247 C   0  0  0  0  0  0  0  0  0  0  0  0
   10.4043    2.4702   22.4775 H   0  0  0  0  0  0  0  0  0  0  0  0
    9.7242    1.0977   21.6421 H   0  0  0  0  0  0  0  0  0  0  0  0
    8.7935    1.5872   23.4777 N   0  0  0  0  0  0  0  0  0  0  0  0
    7.5238    0.8783   23.2424 C   0  0  0  0  0  0  0  0  0  0  0  0
    7.1326    0.5820   24.2252 H   0  0  0  0  0  0  0  0  0  0  0  0
    6.7590    1.5235   22.7861 H   0  0  0  0  0  0  0  0  0  0  0  0
    7.7271   -0.3409   22.4033 C   0  0  0  0  0  0  0  0  0  0  0  0
    8.5350   -1.4008   22.8556 C   0  0  0  0  0  0  0  0  0  0  0  0
    9.0383   -1.4683   23.8096 H   0  0  0  0  0  0  0  0  0  0  0  0
    8.6509   -2.3663   21.9525 N   0  0  0  0  0  0  0  0  0  0  0  0
    7.9594   -1.8938   20.9013 N   0  0  0  0  0  0  0  0  0  0  0  0
    7.8382   -2.4724   20.0798 H   0  0  0  0  0  0  0  0  0  0  0  0
    7.3814   -0.6794   21.1097 C   0  0  0  0  0  0  0  0  0  0  0  0
    6.6783    0.0450   20.0145 C   0  0  0  0  0  0  0  0  0  0  0  0
    7.2111    0.0743   18.7051 C   0  0  0  0  0  0  0  0  0  0  0  0
    8.1655   -0.4035   18.4884 H   0  0  0  0  0  0  0  0  0  0  0  0
    6.6315    0.6738   17.6577 N   0  0  0  0  0  0  0  0  0  0  0  0
    5.4659    1.3017   17.8775 C   0  0  0  0  0  0  0  0  0  0  0  0
    5.0092    1.7863   17.0148 H   0  0  0  0  0  0  0  0  0  0  0  0
    4.8474    1.3478   19.1303 C   0  0  0  0  0  0  0  0  0  0  0  0
    3.9117    1.8829   19.2402 H   0  0  0  0  0  0  0  0  0  0  0  0
    5.4636    0.7153   20.2173 C   0  0  0  0  0  0  0  0  0  0  0  0
    5.0074    0.7284   21.2073 H   0  0  0  0  0  0  0  0  0  0  0  0
    8.6212    2.7716   24.3287 C   0  0  0  0  0  0  0  0  0  0  0  0
    8.1872    2.4416   25.2770 H   0  0  0  0  0  0  0  0  0  0  0  0
    9.6126    3.1696   24.5780 H   0  0  0  0  0  0  0  0  0  0  0  0
    7.7848    3.8892   23.6709 C   0  0  0  0  0  0  0  0  0  0  0  0
    6.7346    3.5901   23.6061 H   0  0  0  0  0  0  0  0  0  0  0  0
    7.8290    4.8059   24.2669 H   0  0  0  0  0  0  0  0  0  0  0  0
  1  2  1  0
  2  3  1  0
  3  4  1  0
  3  5  1  0
  5  6  1  0
  5  7  1  0
  5  8  1  0
  8  9  1  0
  8 10  1  0
  8 11  1  0
 11 12  1  0
 12 13  1  0
 12 14  1  0
 12 15  1  0
 15 16  1  0
 16 17  1  0
 16 18  2  0
 18 19  1  0
 19 20  1  0
 19 21  1  0
 21 22  1  0
 22 23  2  0
 23 24  1  0
 23 25  1  0
 25 26  2  0
 26 27  1  0
 26 28  1  0
 28 29  1  0
 28 30  2  0
 30 31  1  0
 11 32  1  0
 32 33  1  0
 32 34  1  0
 32 35  1  0
 35 36  1  0
 35 37  1  0
 35  3  1  0
 21 15  2  0
 30 22  1  0
M  END
>  <cnnaffinity>  (1) 
-4.84359

>  <filename>  (1) 
OC1CCN(Cc2cn[nH]c2-c2cccnc2)CC1

$$$$
