
     RDKit          3D

 39 41  0  0  0  0  0  0  0  0999 V2000
    8.6205   -4.6718   21.6408 H   0  0  0  0  0  0  0  0  0  0  0  0
    8.4875   -5.4203   22.2465 O   0  0  0  0  0  0  0  0  0  0  0  0
    8.4260   -4.8129   23.4661 C   0  0  0  0  0  0  0  0  0  0  0  0
    8.3632   -5.6178   24.6047 C   0  0  0  0  0  0  0  0  0  0  0  0
    8.4128   -6.6871   24.4287 H   0  0  0  0  0  0  0  0  0  0  0  0
    8.2105   -5.0279   25.8656 C   0  0  0  0  0  0  0  0  0  0  0  0
    8.1210   -5.6450   26.7627 H   0  0  0  0  0  0  0  0  0  0  0  0
    8.1574   -3.6326   25.9788 C   0  0  0  0  0  0  0  0  0  0  0  0
    7.9996   -3.1760   26.9492 H   0  0  0  0  0  0  0  0  0  0  0  0
    8.2753   -2.8192   24.8384 C   0  0  0  0  0  0  0  0  0  0  0  0
    8.2189   -1.7376   24.9284 H   0  0  0  0  0  0  0  0  0  0  0  0
    8.4189   -3.3948   23.5695 C   0  0  0  0  0  0  0  0  0  0  0  0
    8.5402   -2.6415   22.3562 N   0  0  0  0  0  0  0  0  0  0  0  0
    7.3250   -2.3797   21.5892 C   0  0  0  0  0  0  0  0  0  0  0  0
    6.6202   -3.1953   21.7834 H   0  0  0  0  0  0  0  0  0  0  0  0
    7.5625   -2.4046   20.5154 H   0  0  0  0  0  0  0  0  0  0  0  0
    6.6492   -1.0234   21.8725 C   0  0  0  0  0  0  0  0  0  0  0  0
    5.5872   -1.1073   21.6355 H   0  0  0  0  0  0  0  0  0  0  0  0
    6.7171   -0.8339   22.9514 H   0  0  0  0  0  0  0  0  0  0  0  0
    7.1950    0.1056   21.1075 N   0  0  0  0  0  0  0  0  0  0  0  0
    6.5407    0.4523   19.8960 C   0  0  0  0  0  0  0  0  0  0  0  0
    7.1309    0.3412   18.6064 C   0  0  0  0  0  0  0  0  0  0  0  0
    8.0878   -0.1673   18.4969 H   0  0  0  0  0  0  0  0  0  0  0  0
    6.5881    0.7997   17.4711 N   0  0  0  0  0  0  0  0  0  0  0  0
    5.3866    1.3894   17.5543 C   0  0  0  0  0  0  0  0  0  0  0  0
    4.9907    1.8062   16.6306 H   0  0  0  0  0  0  0  0  0  0  0  0
    4.6594    1.4614   18.7493 C   0  0  0  0  0  0  0  0  0  0  0  0
    3.6752    1.9139   18.7447 H   0  0  0  0  0  0  0  0  0  0  0  0
    5.2272    0.9593   19.9255 C   0  0  0  0  0  0  0  0  0  0  0  0
    4.6907    0.9675   20.8743 H   0  0  0  0  0  0  0  0  0  0  0  0
    8.6257    0.4202   21.1884 C   0  0  0  0  0  0  0  0  0  0  0  0
    9.1340    0.1413   20.2504 H   0  0  0  0  0  0  0  0  0  0  0  0
    8.7276    1.5164   21.2450 H   0  0  0  0  0  0  0  0  0  0  0  0
    9.3935   -0.2329   22.3381 C   0  0  0  0  0  0  0  0  0  0  0  0
   10.3696    0.2639   22.4101 H   0  0  0  0  0  0  0  0  0  0  0  0
    8.8821   -0.0382   23.2837 H   0  0  0  0  0  0  0  0  0  0  0  0
    9.6630   -1.7372   22.1621 C   0  0  0  0  0  0  0  0  0  0  0  0
   10.0463   -1.8940   21.1388 H   0  0  0  0  0  0  0  0  0  0  0  0
   10.4616   -2.0607   22.8382 H   0  0  0  0  0  0  0  0  0  0  0  0
  1  2  1  0
  2  3  1  0
  3  4  2  0
  4  5  1  0
  4  6  1  0
  6  7  1  0
  6  8  2  0
  8  9  1  0
  8 10  1  0
 10 11  1  0
 10 12  2  0
 12 13  1  0
 13 14  1  0
 14 15  1  0
 14 16  1  0
 14 17  1  0
 17 18  1  0
 17 19  1  0
 17 20  1  0
 20 21  1  0
 21 22  2  0
 22 23  1  0
 22 24  1  0
 24 25  2  0
 25 26  1  0
 25 27  1  0
 27 28  1  0
 27 29  2  0
 29 30  1  0
 20 31  1  0
 31 32  1  0
 31 33  1  0
 31 34  1  0
 34 35  1  0
 34 36  1  0
 34 37  1  0
 37 38  1  0
 37 39  1  0
 12  3  1  0
 37 13  1  0
 29 21  1  0
M  END
>  <cnnaffinity>  (1) 
-5.33736

>  <filename>  (1) 
Oc1ccccc1N1CCCN(c2cccnc2)CC1

$$$$
