
     RDKit          3D

 34 36  0  0  0  0  0  0  0  0999 V2000
    5.5255   -3.2783   25.4956 H   0  0  0  0  0  0  0  0  0  0  0  0
    4.6330   -3.5257   25.7730 O   0  0  0  0  0  0  0  0  0  0  0  0
    4.0442   -4.0936   24.6917 C   0  0  0  0  0  0  0  0  0  0  0  0
    2.8164   -4.7347   24.8704 C   0  0  0  0  0  0  0  0  0  0  0  0
    2.3468   -4.6901   25.8449 H   0  0  0  0  0  0  0  0  0  0  0  0
    2.2253   -5.4066   23.7989 C   0  0  0  0  0  0  0  0  0  0  0  0
    0.6888   -6.1828   24.0474 Cl  0  0  0  0  0  0  0  0  0  0  0  0
    2.8547   -5.4878   22.5578 C   0  0  0  0  0  0  0  0  0  0  0  0
    2.3962   -6.0814   21.7709 H   0  0  0  0  0  0  0  0  0  0  0  0
    4.0672   -4.8052   22.3647 C   0  0  0  0  0  0  0  0  0  0  0  0
    4.5783   -4.8497   21.4083 H   0  0  0  0  0  0  0  0  0  0  0  0
    4.6431   -4.0841   23.4105 C   0  0  0  0  0  0  0  0  0  0  0  0
    5.8513   -3.4034   23.2953 O   0  0  0  0  0  0  0  0  0  0  0  0
    6.0210   -2.5027   22.2742 C   0  0  0  0  0  0  0  0  0  0  0  0
    5.1724   -2.3539   21.6050 H   0  0  0  0  0  0  0  0  0  0  0  0
    7.1746   -1.8390   22.1693 C   0  0  0  0  0  0  0  0  0  0  0  0
    7.5758   -0.9009   21.1121 C   0  0  0  0  0  0  0  0  0  0  0  0
    6.6758   -0.3213   20.0803 C   0  0  0  0  0  0  0  0  0  0  0  0
    7.1938   -0.2393   18.7771 C   0  0  0  0  0  0  0  0  0  0  0  0
    8.1352   -0.7301   18.5397 H   0  0  0  0  0  0  0  0  0  0  0  0
    6.6095    0.4233   17.7774 N   0  0  0  0  0  0  0  0  0  0  0  0
    5.4590    1.0577   18.0467 C   0  0  0  0  0  0  0  0  0  0  0  0
    5.0259    1.6296   17.2275 H   0  0  0  0  0  0  0  0  0  0  0  0
    4.8149    0.9807   19.2842 C   0  0  0  0  0  0  0  0  0  0  0  0
    3.8769    1.5044   19.4266 H   0  0  0  0  0  0  0  0  0  0  0  0
    5.4192    0.2597   20.3176 C   0  0  0  0  0  0  0  0  0  0  0  0
    4.9288    0.1979   21.2895 H   0  0  0  0  0  0  0  0  0  0  0  0
    8.8331   -0.6377   21.1132 N   0  0  0  0  0  0  0  0  0  0  0  0
    9.4903   -1.3016   22.2405 C   0  0  0  0  0  0  0  0  0  0  0  0
   10.0224   -0.5546   22.8419 H   0  0  0  0  0  0  0  0  0  0  0  0
   10.2339   -1.9988   21.8373 H   0  0  0  0  0  0  0  0  0  0  0  0
    8.4008   -2.0417   23.0542 C   0  0  0  0  0  0  0  0  0  0  0  0
    8.6344   -3.1025   23.2042 H   0  0  0  0  0  0  0  0  0  0  0  0
    8.2721   -1.5862   24.0439 H   0  0  0  0  0  0  0  0  0  0  0  0
  1  2  1  0
  2  3  1  0
  3  4  2  0
  4  5  1  0
  4  6  1  0
  6  7  1  0
  6  8  2  0
  8  9  1  0
  8 10  1  0
 10 11  1  0
 10 12  2  0
 12 13  1  0
 13 14  1  0
 14 15  1  0
 14 16  2  3
 16 17  1  0
 17 18  1  0
 18 19  2  0
 19 20  1  0
 19 21  1  0
 21 22  2  0
 22 23  1  0
 22 24  1  0
 24 25  1  0
 24 26  2  0
 26 27  1  0
 17 28  2  0
 28 29  1  0
 29 30  1  0
 29 31  1  0
 29 32  1  0
 32 33  1  0
 32 34  1  0
 12  3  1  0
 32 16  1  0
 26 18  1  0
M  END
>  <cnnaffinity>  (1) 
-5.24197

>  <filename>  (1) 
Oc1cc(Cl)ccc1OC=C1CCN=C1c1cccnc1

$$$$
