
     RDKit          3D

 31 33  0  0  0  0  0  0  0  0999 V2000
    7.7197    3.4506   22.4347 H   0  0  0  0  0  0  0  0  0  0  0  0
    7.4555    3.8817   23.2581 O   0  0  0  0  0  0  0  0  0  0  0  0
    6.8688    2.9556   24.0588 C   0  0  0  0  0  0  0  0  0  0  0  0
    6.4123    3.4343   25.2861 C   0  0  0  0  0  0  0  0  0  0  0  0
    6.5540    4.4803   25.5184 H   0  0  0  0  0  0  0  0  0  0  0  0
    5.7850    2.5751   26.1859 C   0  0  0  0  0  0  0  0  0  0  0  0
    5.2317    3.1879   27.7086 Cl  0  0  0  0  0  0  0  0  0  0  0  0
    5.5851    1.2340   25.8784 C   0  0  0  0  0  0  0  0  0  0  0  0
    5.0938    0.5812   26.5937 H   0  0  0  0  0  0  0  0  0  0  0  0
    6.0350    0.7462   24.6497 C   0  0  0  0  0  0  0  0  0  0  0  0
    5.8690   -0.2947   24.3974 H   0  0  0  0  0  0  0  0  0  0  0  0
    6.7038    1.5795   23.7444 C   0  0  0  0  0  0  0  0  0  0  0  0
    7.1554    1.1473   22.5057 O   0  0  0  0  0  0  0  0  0  0  0  0
    7.5644   -0.1453   22.2446 C   0  0  0  0  0  0  0  0  0  0  0  0
    8.2738   -0.9327   23.1484 C   0  0  0  0  0  0  0  0  0  0  0  0
    8.4761   -0.5693   24.1561 H   0  0  0  0  0  0  0  0  0  0  0  0
    8.7340   -2.1515   22.8521 N   0  0  0  0  0  0  0  0  0  0  0  0
    8.5012   -2.5893   21.6194 C   0  0  0  0  0  0  0  0  0  0  0  0
    8.8713   -3.5817   21.3729 H   0  0  0  0  0  0  0  0  0  0  0  0
    7.8741   -1.9144   20.6584 N   0  0  0  0  0  0  0  0  0  0  0  0
    7.3861   -0.7123   20.9636 C   0  0  0  0  0  0  0  0  0  0  0  0
    6.6477   -0.0053   19.9033 C   0  0  0  0  0  0  0  0  0  0  0  0
    7.1720    0.0388   18.6045 C   0  0  0  0  0  0  0  0  0  0  0  0
    8.1219   -0.4363   18.3680 H   0  0  0  0  0  0  0  0  0  0  0  0
    6.5726    0.6739   17.5935 N   0  0  0  0  0  0  0  0  0  0  0  0
    5.4071    1.2865   17.8473 C   0  0  0  0  0  0  0  0  0  0  0  0
    4.9274    1.7770   17.0029 H   0  0  0  0  0  0  0  0  0  0  0  0
    4.8057    1.3013   19.1098 C   0  0  0  0  0  0  0  0  0  0  0  0
    3.8788    1.8385   19.2595 H   0  0  0  0  0  0  0  0  0  0  0  0
    5.4380    0.6476   20.1617 C   0  0  0  0  0  0  0  0  0  0  0  0
    5.0113    0.6459   21.1672 H   0  0  0  0  0  0  0  0  0  0  0  0
  1  2  1  0
  2  3  1  0
  3  4  2  0
  4  5  1  0
  4  6  1  0
  6  7  1  0
  6  8  2  0
  8  9  1  0
  8 10  1  0
 10 11  1  0
 10 12  2  0
 12 13  1  0
 13 14  1  0
 14 15  2  0
 15 16  1  0
 15 17  1  0
 17 18  2  0
 18 19  1  0
 18 20  1  0
 20 21  2  0
 21 22  1  0
 22 23  2  0
 23 24  1  0
 23 25  1  0
 25 26  2  0
 26 27  1  0
 26 28  1  0
 28 29  1  0
 28 30  2  0
 30 31  1  0
 12  3  1  0
 21 14  1  0
 30 22  1  0
M  END
>  <cnnaffinity>  (1) 
-5.24441

>  <filename>  (1) 
Oc1cc(Cl)ccc1Oc1cncnc1-c1cccnc1

$$$$
