
     RDKit          3D

 31 33  0  0  0  0  0  0  0  0999 V2000
   10.3153   -1.9765   21.1973 H   0  0  0  0  0  0  0  0  0  0  0  0
   11.2009   -2.1426   21.5431 O   0  0  0  0  0  0  0  0  0  0  0  0
   11.5820   -1.1459   22.3924 C   0  0  0  0  0  0  0  0  0  0  0  0
   12.8613   -0.6295   22.1996 C   0  0  0  0  0  0  0  0  0  0  0  0
   13.4515   -0.9931   21.3662 H   0  0  0  0  0  0  0  0  0  0  0  0
   13.3400    0.3640   23.0475 C   0  0  0  0  0  0  0  0  0  0  0  0
   14.8438    1.1228   22.6755 Cl  0  0  0  0  0  0  0  0  0  0  0  0
   12.6135    0.7947   24.1556 C   0  0  0  0  0  0  0  0  0  0  0  0
   13.0601    1.5285   24.8199 H   0  0  0  0  0  0  0  0  0  0  0  0
   11.3318    0.2714   24.3555 C   0  0  0  0  0  0  0  0  0  0  0  0
   10.7241    0.5826   25.1981 H   0  0  0  0  0  0  0  0  0  0  0  0
   10.7906   -0.6493   23.4544 C   0  0  0  0  0  0  0  0  0  0  0  0
    9.4939   -1.1088   23.6902 O   0  0  0  0  0  0  0  0  0  0  0  0
    8.6424   -1.0890   22.6471 C   0  0  0  0  0  0  0  0  0  0  0  0
    8.4725   -0.3043   21.5591 C   0  0  0  0  0  0  0  0  0  0  0  0
    8.9839    0.5825   21.2312 H   0  0  0  0  0  0  0  0  0  0  0  0
    7.3859   -0.8320   20.8512 N   0  0  0  0  0  0  0  0  0  0  0  0
    6.7079   -0.1373   19.7943 C   0  0  0  0  0  0  0  0  0  0  0  0
    7.2592   -0.0236   18.5058 C   0  0  0  0  0  0  0  0  0  0  0  0
    8.1905   -0.5381   18.2718 H   0  0  0  0  0  0  0  0  0  0  0  0
    6.6801    0.6763   17.5202 N   0  0  0  0  0  0  0  0  0  0  0  0
    5.5176    1.2947   17.7874 C   0  0  0  0  0  0  0  0  0  0  0  0
    5.0733    1.8701   16.9770 H   0  0  0  0  0  0  0  0  0  0  0  0
    4.8805    1.2185   19.0307 C   0  0  0  0  0  0  0  0  0  0  0  0
    3.9490    1.7501   19.1922 H   0  0  0  0  0  0  0  0  0  0  0  0
    5.4743    0.4717   20.0517 C   0  0  0  0  0  0  0  0  0  0  0  0
    5.0080    0.3628   21.0310 H   0  0  0  0  0  0  0  0  0  0  0  0
    6.8604   -1.9151   21.5253 C   0  0  0  0  0  0  0  0  0  0  0  0
    5.5541   -2.8821   21.1875 S   0  0  0  0  0  0  0  0  0  0  0  0
    7.6697   -2.0514   22.6136 N   0  0  0  0  0  0  0  0  0  0  0  0
    7.4024   -2.6589   23.3608 H   0  0  0  0  0  0  0  0  0  0  0  0
  1  2  1  0
  2  3  1  0
  3  4  2  0
  4  5  1  0
  4  6  1  0
  6  7  1  0
  6  8  2  0
  8  9  1  0
  8 10  1  0
 10 11  1  0
 10 12  2  0
 12 13  1  0
 13 14  1  0
 14 15  2  0
 15 16  1  0
 15 17  1  0
 17 18  1  0
 18 19  2  0
 19 20  1  0
 19 21  1  0
 21 22  2  0
 22 23  1  0
 22 24  1  0
 24 25  1  0
 24 26  2  0
 26 27  1  0
 17 28  1  0
 28 29  2  0
 28 30  1  0
 30 31  1  0
 12  3  1  0
 30 14  1  0
 26 18  1  0
M  END
>  <cnnaffinity>  (1) 
-5.77838

>  <filename>  (1) 
Oc1cc(Cl)ccc1Oc1cn(-c2cccnc2)c(=S)[nH]1

$$$$
