
     RDKit          3D

 32 34  0  0  0  0  0  0  0  0999 V2000
    3.0495    1.9602   26.2138 H   0  0  0  0  0  0  0  0  0  0  0  0
    3.0931    2.5588   25.4573 O   0  0  0  0  0  0  0  0  0  0  0  0
    4.2272    2.2595   24.7653 C   0  0  0  0  0  0  0  0  0  0  0  0
    5.0625    1.2190   25.1615 C   0  0  0  0  0  0  0  0  0  0  0  0
    4.7995    0.6473   26.0508 H   0  0  0  0  0  0  0  0  0  0  0  0
    6.2133    0.9041   24.4326 C   0  0  0  0  0  0  0  0  0  0  0  0
    6.8416    0.0858   24.7626 H   0  0  0  0  0  0  0  0  0  0  0  0
    6.5631    1.6162   23.2823 C   0  0  0  0  0  0  0  0  0  0  0  0
    7.8205    1.2575   22.4983 C   0  0  0  0  0  0  0  0  0  0  0  0
    8.7092    1.4559   23.1112 H   0  0  0  0  0  0  0  0  0  0  0  0
    7.8952    1.8921   21.6093 H   0  0  0  0  0  0  0  0  0  0  0  0
    7.8962   -0.1408   22.0696 N   0  0  0  0  0  0  0  0  0  0  0  0
    8.4963   -1.1860   22.7169 C   0  0  0  0  0  0  0  0  0  0  0  0
    9.0062   -1.0953   23.6680 H   0  0  0  0  0  0  0  0  0  0  0  0
    8.3832   -2.2905   22.0344 N   0  0  0  0  0  0  0  0  0  0  0  0
    7.6970   -1.9870   20.8871 N   0  0  0  0  0  0  0  0  0  0  0  0
    7.4031   -0.7139   20.9258 C   0  0  0  0  0  0  0  0  0  0  0  0
    6.6535    0.0218   19.8981 C   0  0  0  0  0  0  0  0  0  0  0  0
    7.1631    0.0565   18.5950 C   0  0  0  0  0  0  0  0  0  0  0  0
    8.1072   -0.4352   18.3601 H   0  0  0  0  0  0  0  0  0  0  0  0
    6.5582    0.6800   17.5809 N   0  0  0  0  0  0  0  0  0  0  0  0
    5.3962    1.3032   17.8342 C   0  0  0  0  0  0  0  0  0  0  0  0
    4.9284    1.8005   16.9848 H   0  0  0  0  0  0  0  0  0  0  0  0
    4.7987    1.3232   19.0980 C   0  0  0  0  0  0  0  0  0  0  0  0
    3.8615    1.8507   19.2350 H   0  0  0  0  0  0  0  0  0  0  0  0
    5.4346    0.6649   20.1479 C   0  0  0  0  0  0  0  0  0  0  0  0
    4.9925    0.6405   21.1430 H   0  0  0  0  0  0  0  0  0  0  0  0
    5.7308    2.6845   22.9003 C   0  0  0  0  0  0  0  0  0  0  0  0
    5.9512    3.2687   22.0057 H   0  0  0  0  0  0  0  0  0  0  0  0
    4.5731    3.0107   23.6102 C   0  0  0  0  0  0  0  0  0  0  0  0
    3.7595    4.0277   23.2056 O   0  0  0  0  0  0  0  0  0  0  0  0
    4.1525    4.4120   22.4103 H   0  0  0  0  0  0  0  0  0  0  0  0
  1  2  1  0
  2  3  1  0
  3  4  2  0
  4  5  1  0
  4  6  1  0
  6  7  1  0
  6  8  2  0
  8  9  1  0
  9 10  1  0
  9 11  1  0
  9 12  1  0
 12 13  1  0
 13 14  1  0
 13 15  2  0
 15 16  1  0
 16 17  2  0
 17 18  1  0
 18 19  2  0
 19 20  1  0
 19 21  1  0
 21 22  2  0
 22 23  1  0
 22 24  1  0
 24 25  1  0
 24 26  2  0
 26 27  1  0
  8 28  1  0
 28 29  1  0
 28 30  2  0
 30 31  1  0
 31 32  1  0
 30  3  1  0
 17 12  1  0
 26 18  1  0
M  END
>  <cnnaffinity>  (1) 
-4.96868

>  <filename>  (1) 
Oc1ccc(Cn2cnnc2-c2cccnc2)cc1O

$$$$
