
     RDKit          3D

 33 35  0  0  0  0  0  0  0  0999 V2000
   10.2451    2.3136   21.5487 H   0  0  0  0  0  0  0  0  0  0  0  0
   11.1551    2.4675   21.8305 O   0  0  0  0  0  0  0  0  0  0  0  0
   11.7661    1.2519   21.8618 C   0  0  0  0  0  0  0  0  0  0  0  0
   13.0541    1.2111   22.4115 C   0  0  0  0  0  0  0  0  0  0  0  0
   13.4757    2.1265   22.8183 H   0  0  0  0  0  0  0  0  0  0  0  0
   13.7660    0.0102   22.4359 C   0  0  0  0  0  0  0  0  0  0  0  0
   14.7731   -0.0208   22.8456 H   0  0  0  0  0  0  0  0  0  0  0  0
   13.1788   -1.1562   21.9328 C   0  0  0  0  0  0  0  0  0  0  0  0
   13.7268   -2.0912   21.9594 H   0  0  0  0  0  0  0  0  0  0  0  0
   11.8721   -1.1181   21.4389 C   0  0  0  0  0  0  0  0  0  0  0  0
   11.4006   -2.0362   21.0984 H   0  0  0  0  0  0  0  0  0  0  0  0
   11.1215    0.0768   21.3968 C   0  0  0  0  0  0  0  0  0  0  0  0
    9.6996    0.1033   20.9400 C   0  0  0  0  0  0  0  0  0  0  0  0
    9.4361    0.8899   20.2252 H   0  0  0  0  0  0  0  0  0  0  0  0
    8.7442   -0.7593   21.3523 C   0  0  0  0  0  0  0  0  0  0  0  0
    7.2924   -0.7937   21.0156 C   0  0  0  0  0  0  0  0  0  0  0  0
    6.6377   -0.0137   19.9355 C   0  0  0  0  0  0  0  0  0  0  0  0
    7.2098    0.0166   18.6593 C   0  0  0  0  0  0  0  0  0  0  0  0
    8.1487   -0.5060   18.4700 H   0  0  0  0  0  0  0  0  0  0  0  0
    6.6689    0.6515   17.6115 N   0  0  0  0  0  0  0  0  0  0  0  0
    5.5146    1.3024   17.8139 C   0  0  0  0  0  0  0  0  0  0  0  0
    5.0918    1.8122   16.9503 H   0  0  0  0  0  0  0  0  0  0  0  0
    4.8452    1.3175   19.0430 C   0  0  0  0  0  0  0  0  0  0  0  0
    3.9145    1.8661   19.1350 H   0  0  0  0  0  0  0  0  0  0  0  0
    5.4045    0.6345   20.1219 C   0  0  0  0  0  0  0  0  0  0  0  0
    4.9022    0.6017   21.0903 H   0  0  0  0  0  0  0  0  0  0  0  0
    6.6121   -1.5942   21.7517 N   0  0  0  0  0  0  0  0  0  0  0  0
    7.4772   -2.1974   22.7665 C   0  0  0  0  0  0  0  0  0  0  0  0
    7.3061   -3.2754   22.8057 H   0  0  0  0  0  0  0  0  0  0  0  0
    7.1828   -1.7935   23.7400 H   0  0  0  0  0  0  0  0  0  0  0  0
    8.9330   -1.8322   22.4102 C   0  0  0  0  0  0  0  0  0  0  0  0
    9.4408   -2.7101   21.9931 H   0  0  0  0  0  0  0  0  0  0  0  0
    9.5148   -1.4875   23.2712 H   0  0  0  0  0  0  0  0  0  0  0  0
  1  2  1  0
  2  3  1  0
  3  4  2  0
  4  5  1  0
  4  6  1  0
  6  7  1  0
  6  8  2  0
  8  9  1  0
  8 10  1  0
 10 11  1  0
 10 12  2  0
 12 13  1  0
 13 14  1  0
 13 15  2  3
 15 16  1  0
 16 17  1  0
 17 18  2  0
 18 19  1  0
 18 20  1  0
 20 21  2  0
 21 22  1  0
 21 23  1  0
 23 24  1  0
 23 25  2  0
 25 26  1  0
 16 27  2  0
 27 28  1  0
 28 29  1  0
 28 30  1  0
 28 31  1  0
 31 32  1  0
 31 33  1  0
 12  3  1  0
 31 15  1  0
 25 17  1  0
M  END
>  <cnnaffinity>  (1) 
-5.75034

>  <filename>  (1) 
Oc1ccccc1C=C1CCN=C1c1cccnc1

$$$$
