
     RDKit          3D

 30 32  0  0  0  0  0  0  0  0999 V2000
    5.2294   -1.3019   23.8687 H   0  0  0  0  0  0  0  0  0  0  0  0
    5.7058   -1.4512   24.7080 O   0  0  0  0  0  0  0  0  0  0  0  0
    6.1127   -0.2386   25.1922 C   0  0  0  0  0  0  0  0  0  0  0  0
    6.0512   -0.0422   26.5690 C   0  0  0  0  0  0  0  0  0  0  0  0
    5.5734   -0.8095   27.1641 H   0  0  0  0  0  0  0  0  0  0  0  0
    6.5854    1.1213   27.1321 C   0  0  0  0  0  0  0  0  0  0  0  0
    6.5337    1.3235   28.8586 Cl  0  0  0  0  0  0  0  0  0  0  0  0
    7.1676    2.1102   26.3332 C   0  0  0  0  0  0  0  0  0  0  0  0
    7.6068    2.9950   26.7858 H   0  0  0  0  0  0  0  0  0  0  0  0
    7.1999    1.9212   24.9428 C   0  0  0  0  0  0  0  0  0  0  0  0
    7.6395    2.6469   24.2636 H   0  0  0  0  0  0  0  0  0  0  0  0
    6.6755    0.7621   24.3742 C   0  0  0  0  0  0  0  0  0  0  0  0
    6.6700    0.6539   22.9821 O   0  0  0  0  0  0  0  0  0  0  0  0
    7.3415   -0.3571   22.3713 C   0  0  0  0  0  0  0  0  0  0  0  0
    7.4114   -0.6190   21.0119 C   0  0  0  0  0  0  0  0  0  0  0  0
    6.6679    0.0527   19.9152 C   0  0  0  0  0  0  0  0  0  0  0  0
    7.1563    0.0777   18.5864 C   0  0  0  0  0  0  0  0  0  0  0  0
    8.1069   -0.3971   18.3493 H   0  0  0  0  0  0  0  0  0  0  0  0
    6.5447    0.6769   17.5588 N   0  0  0  0  0  0  0  0  0  0  0  0
    5.3839    1.2996   17.8157 C   0  0  0  0  0  0  0  0  0  0  0  0
    4.9188    1.8066   16.9736 H   0  0  0  0  0  0  0  0  0  0  0  0
    4.7857    1.3231   19.0805 C   0  0  0  0  0  0  0  0  0  0  0  0
    3.8453    1.8487   19.2155 H   0  0  0  0  0  0  0  0  0  0  0  0
    5.4374    0.6983   20.1470 C   0  0  0  0  0  0  0  0  0  0  0  0
    5.0272    0.7189   21.1581 H   0  0  0  0  0  0  0  0  0  0  0  0
    8.3288   -1.7086   20.9706 C   0  0  0  0  0  0  0  0  0  0  0  0
    8.7424   -2.1862   20.1075 H   0  0  0  0  0  0  0  0  0  0  0  0
    8.7376   -2.1059   22.1633 N   0  0  0  0  0  0  0  0  0  0  0  0
    8.1192   -1.2602   23.0133 N   0  0  0  0  0  0  0  0  0  0  0  0
    8.2929   -1.3364   24.0023 H   0  0  0  0  0  0  0  0  0  0  0  0
  1  2  1  0
  2  3  1  0
  3  4  2  0
  4  5  1  0
  4  6  1  0
  6  7  1  0
  6  8  2  0
  8  9  1  0
  8 10  1  0
 10 11  1  0
 10 12  2  0
 12 13  1  0
 13 14  1  0
 14 15  2  0
 15 16  1  0
 16 17  2  0
 17 18  1  0
 17 19  1  0
 19 20  2  0
 20 21  1  0
 20 22  1  0
 22 23  1  0
 22 24  2  0
 24 25  1  0
 15 26  1  0
 26 27  1  0
 26 28  2  0
 28 29  1  0
 29 30  1  0
 12  3  1  0
 29 14  1  0
 24 16  1  0
M  END
>  <cnnaffinity>  (1) 
-5.06102

>  <filename>  (1) 
Oc1cc(Cl)ccc1Oc1[nH]ncc1-c1cccnc1

$$$$
