
     RDKit          3D

 31 33  0  0  0  0  0  0  0  0999 V2000
    8.3887   -4.3410   26.4851 H   0  0  0  0  0  0  0  0  0  0  0  0
    8.5298   -3.6491   27.1444 O   0  0  0  0  0  0  0  0  0  0  0  0
    8.4189   -2.4726   26.4944 C   0  0  0  0  0  0  0  0  0  0  0  0
    8.6495   -1.3027   27.2160 C   0  0  0  0  0  0  0  0  0  0  0  0
    8.9779   -1.3615   28.2439 H   0  0  0  0  0  0  0  0  0  0  0  0
    8.5095   -0.0889   26.5501 C   0  0  0  0  0  0  0  0  0  0  0  0
    8.6505    1.0947   27.1847 O   0  0  0  0  0  0  0  0  0  0  0  0
    9.2298    0.9603   27.9496 H   0  0  0  0  0  0  0  0  0  0  0  0
    8.2226   -0.0248   25.1891 C   0  0  0  0  0  0  0  0  0  0  0  0
    8.1848    0.9571   24.7339 H   0  0  0  0  0  0  0  0  0  0  0  0
    8.0724   -1.2096   24.4794 C   0  0  0  0  0  0  0  0  0  0  0  0
    7.9265   -1.1561   23.0609 N   0  0  0  0  0  0  0  0  0  0  0  0
    6.9770   -0.4167   22.3602 C   0  0  0  0  0  0  0  0  0  0  0  0
    6.2721    0.2226   22.8691 H   0  0  0  0  0  0  0  0  0  0  0  0
    7.1791   -0.6182   21.0386 C   0  0  0  0  0  0  0  0  0  0  0  0
    6.5433    0.0023   19.8736 C   0  0  0  0  0  0  0  0  0  0  0  0
    7.1456    0.0187   18.5991 C   0  0  0  0  0  0  0  0  0  0  0  0
    8.0970   -0.4824   18.4295 H   0  0  0  0  0  0  0  0  0  0  0  0
    6.6366    0.6461   17.5334 N   0  0  0  0  0  0  0  0  0  0  0  0
    5.4709    1.2951   17.7045 C   0  0  0  0  0  0  0  0  0  0  0  0
    5.0758    1.7980   16.8276 H   0  0  0  0  0  0  0  0  0  0  0  0
    4.7719    1.3347   18.9170 C   0  0  0  0  0  0  0  0  0  0  0  0
    3.8329    1.8800   18.9879 H   0  0  0  0  0  0  0  0  0  0  0  0
    5.3178    0.6799   20.0180 C   0  0  0  0  0  0  0  0  0  0  0  0
    4.8140    0.6890   20.9852 H   0  0  0  0  0  0  0  0  0  0  0  0
    8.2609   -1.4783   20.9572 N   0  0  0  0  0  0  0  0  0  0  0  0
    8.6577   -1.9111   20.1434 H   0  0  0  0  0  0  0  0  0  0  0  0
    8.7673   -1.7897   22.1772 C   0  0  0  0  0  0  0  0  0  0  0  0
   10.1420   -2.6837   22.4343 S   0  0  0  0  0  0  0  0  0  0  0  0
    8.1266   -2.4466   25.1284 C   0  0  0  0  0  0  0  0  0  0  0  0
    8.0102   -3.3665   24.5694 H   0  0  0  0  0  0  0  0  0  0  0  0
  1  2  1  0
  2  3  1  0
  3  4  2  0
  4  5  1  0
  4  6  1  0
  6  7  1  0
  7  8  1  0
  6  9  2  0
  9 10  1  0
  9 11  1  0
 11 12  1  0
 12 13  1  0
 13 14  1  0
 13 15  2  0
 15 16  1  0
 16 17  2  0
 17 18  1  0
 17 19  1  0
 19 20  2  0
 20 21  1  0
 20 22  1  0
 22 23  1  0
 22 24  2  0
 24 25  1  0
 15 26  1  0
 26 27  1  0
 26 28  1  0
 28 29  2  0
 11 30  2  0
 30 31  1  0
 30  3  1  0
 28 12  1  0
 24 16  1  0
M  END
>  <cnnaffinity>  (1) 
-5.29827

>  <filename>  (1) 
Oc1cc(O)cc(-n2cc(-c3cccnc3)[nH]c2=S)c1

$$$$
