
     RDKit          3D

 31 33  0  0  0  0  0  0  0  0999 V2000
    9.7034    0.1853   28.4814 H   0  0  0  0  0  0  0  0  0  0  0  0
    9.4579   -0.7354   28.2873 O   0  0  0  0  0  0  0  0  0  0  0  0
    8.9006   -0.7974   27.0447 C   0  0  0  0  0  0  0  0  0  0  0  0
    8.6981   -2.0681   26.4914 C   0  0  0  0  0  0  0  0  0  0  0  0
    8.8668   -2.9226   27.1426 H   0  0  0  0  0  0  0  0  0  0  0  0
    8.3103   -2.2235   25.1534 C   0  0  0  0  0  0  0  0  0  0  0  0
    8.2247   -3.2131   24.7065 H   0  0  0  0  0  0  0  0  0  0  0  0
    8.0680   -1.0847   24.3746 C   0  0  0  0  0  0  0  0  0  0  0  0
    7.8437   -1.1740   22.9577 N   0  0  0  0  0  0  0  0  0  0  0  0
    6.8620   -0.4787   22.2539 C   0  0  0  0  0  0  0  0  0  0  0  0
    6.0899    0.0540   22.7920 H   0  0  0  0  0  0  0  0  0  0  0  0
    7.1042   -0.6222   20.9278 C   0  0  0  0  0  0  0  0  0  0  0  0
    6.4890    0.0015   19.7505 C   0  0  0  0  0  0  0  0  0  0  0  0
    7.1028    0.0381   18.4790 C   0  0  0  0  0  0  0  0  0  0  0  0
    8.0545   -0.4545   18.2909 H   0  0  0  0  0  0  0  0  0  0  0  0
    6.6024    0.6809   17.4183 N   0  0  0  0  0  0  0  0  0  0  0  0
    5.4442    1.3403   17.5787 C   0  0  0  0  0  0  0  0  0  0  0  0
    5.0647    1.8670   16.7054 H   0  0  0  0  0  0  0  0  0  0  0  0
    4.7416    1.3597   18.7856 C   0  0  0  0  0  0  0  0  0  0  0  0
    3.8225    1.9235   18.8592 H   0  0  0  0  0  0  0  0  0  0  0  0
    5.2662    0.6800   19.8814 C   0  0  0  0  0  0  0  0  0  0  0  0
    4.7521    0.6833   20.8393 H   0  0  0  0  0  0  0  0  0  0  0  0
    8.2293   -1.4270   20.8482 N   0  0  0  0  0  0  0  0  0  0  0  0
    8.7145   -1.7610   20.0328 H   0  0  0  0  0  0  0  0  0  0  0  0
    8.7279   -1.7491   22.0689 C   0  0  0  0  0  0  0  0  0  0  0  0
   10.1298   -2.5948   22.3424 S   0  0  0  0  0  0  0  0  0  0  0  0
    8.1244    0.1869   24.9646 C   0  0  0  0  0  0  0  0  0  0  0  0
    7.8753    1.0668   24.3768 H   0  0  0  0  0  0  0  0  0  0  0  0
    8.5362    0.3433   26.2845 C   0  0  0  0  0  0  0  0  0  0  0  0
    8.6201    1.5845   26.8662 O   0  0  0  0  0  0  0  0  0  0  0  0
    8.6373    2.2441   26.1631 H   0  0  0  0  0  0  0  0  0  0  0  0
  1  2  1  0
  2  3  1  0
  3  4  2  0
  4  5  1  0
  4  6  1  0
  6  7  1  0
  6  8  2  0
  8  9  1  0
  9 10  1  0
 10 11  1  0
 10 12  2  0
 12 13  1  0
 13 14  2  0
 14 15  1  0
 14 16  1  0
 16 17  2  0
 17 18  1  0
 17 19  1  0
 19 20  1  0
 19 21  2  0
 21 22  1  0
 12 23  1  0
 23 24  1  0
 23 25  1  0
 25 26  2  0
  8 27  1  0
 27 28  1  0
 27 29  2  0
 29 30  1  0
 30 31  1  0
 29  3  1  0
 25  9  1  0
 21 13  1  0
M  END
>  <cnnaffinity>  (1) 
-5.43258

>  <filename>  (1) 
Oc1ccc(-n2cc(-c3cccnc3)[nH]c2=S)cc1O

$$$$
