
     RDKit          3D

 28 30  0  0  0  0  0  0  0  0999 V2000
    8.3591    3.1028   20.9832 H   0  0  0  0  0  0  0  0  0  0  0  0
    8.2028    2.1787   21.2095 O   0  0  0  0  0  0  0  0  0  0  0  0
    7.4468    2.1504   22.3438 C   0  0  0  0  0  0  0  0  0  0  0  0
    6.9989    3.3148   22.9876 C   0  0  0  0  0  0  0  0  0  0  0  0
    7.2547    4.2953   22.5790 H   0  0  0  0  0  0  0  0  0  0  0  0
    6.2246    3.2329   24.1562 C   0  0  0  0  0  0  0  0  0  0  0  0
    5.8873    4.1386   24.6591 H   0  0  0  0  0  0  0  0  0  0  0  0
    5.8860    1.9859   24.6889 C   0  0  0  0  0  0  0  0  0  0  0  0
    5.3011    1.9084   25.6034 H   0  0  0  0  0  0  0  0  0  0  0  0
    6.3171    0.8256   24.0423 C   0  0  0  0  0  0  0  0  0  0  0  0
    6.0597   -0.1527   24.4330 H   0  0  0  0  0  0  0  0  0  0  0  0
    7.0841    0.8873   22.8765 C   0  0  0  0  0  0  0  0  0  0  0  0
    7.4751   -0.3436   22.2491 N   0  0  0  0  0  0  0  0  0  0  0  0
    8.1812   -1.3687   22.8231 C   0  0  0  0  0  0  0  0  0  0  0  0
    8.4510   -1.3821   23.8690 H   0  0  0  0  0  0  0  0  0  0  0  0
    8.4968   -2.2734   21.9393 N   0  0  0  0  0  0  0  0  0  0  0  0
    8.0016   -1.8497   20.7325 N   0  0  0  0  0  0  0  0  0  0  0  0
    7.3867   -0.7118   20.9248 C   0  0  0  0  0  0  0  0  0  0  0  0
    6.6478    0.0224   19.8998 C   0  0  0  0  0  0  0  0  0  0  0  0
    7.1680    0.0595   18.5989 C   0  0  0  0  0  0  0  0  0  0  0  0
    8.1141   -0.4355   18.3807 H   0  0  0  0  0  0  0  0  0  0  0  0
    6.5681    0.6792   17.5793 N   0  0  0  0  0  0  0  0  0  0  0  0
    5.4044    1.2946   17.8400 C   0  0  0  0  0  0  0  0  0  0  0  0
    4.9236    1.7821   16.9952 H   0  0  0  0  0  0  0  0  0  0  0  0
    4.7978    1.3123   19.1018 C   0  0  0  0  0  0  0  0  0  0  0  0
    3.8664    1.8445   19.2517 H   0  0  0  0  0  0  0  0  0  0  0  0
    5.4250    0.6590   20.1582 C   0  0  0  0  0  0  0  0  0  0  0  0
    4.9988    0.6389   21.1659 H   0  0  0  0  0  0  0  0  0  0  0  0
  1  2  1  0
  2  3  1  0
  3  4  2  0
  4  5  1  0
  4  6  1  0
  6  7  1  0
  6  8  2  0
  8  9  1  0
  8 10  1  0
 10 11  1  0
 10 12  2  0
 12 13  1  0
 13 14  1  0
 14 15  1  0
 14 16  2  0
 16 17  1  0
 17 18  2  0
 18 19  1  0
 19 20  2  0
 20 21  1  0
 20 22  1  0
 22 23  2  0
 23 24  1  0
 23 25  1  0
 25 26  1  0
 25 27  2  0
 27 28  1  0
 12  3  1  0
 18 13  1  0
 27 19  1  0
M  END
>  <cnnaffinity>  (1) 
-4.67

>  <filename>  (1) 
Oc1ccccc1-n1cnnc1-c1cccnc1

$$$$
