
     RDKit          3D

 40 42  0  0  0  0  0  0  0  0999 V2000
    7.1223   -1.5814   26.2477 H   0  0  0  0  0  0  0  0  0  0  0  0
    6.6176   -2.2151   26.7865 O   0  0  0  0  0  0  0  0  0  0  0  0
    6.4945   -3.3617   26.0714 C   0  0  0  0  0  0  0  0  0  0  0  0
    5.6542   -4.3473   26.6267 C   0  0  0  0  0  0  0  0  0  0  0  0
    5.1730   -4.1217   27.5733 H   0  0  0  0  0  0  0  0  0  0  0  0
    5.4516   -5.5619   25.9678 C   0  0  0  0  0  0  0  0  0  0  0  0
    4.4806   -6.7992   26.7177 Cl  0  0  0  0  0  0  0  0  0  0  0  0
    6.0664   -5.8169   24.7340 C   0  0  0  0  0  0  0  0  0  0  0  0
    5.8310   -6.7245   24.1903 H   0  0  0  0  0  0  0  0  0  0  0  0
    6.9455   -4.8595   24.2141 C   0  0  0  0  0  0  0  0  0  0  0  0
    7.5000   -4.9992   23.2902 H   0  0  0  0  0  0  0  0  0  0  0  0
    7.1406   -3.6418   24.8478 C   0  0  0  0  0  0  0  0  0  0  0  0
    8.0257   -2.7781   24.1479 O   0  0  0  0  0  0  0  0  0  0  0  0
    7.6298   -1.4309   24.1752 N   0  0  0  0  0  0  0  0  0  0  0  0
    6.4773   -1.3090   23.2445 C   0  0  0  0  0  0  0  0  0  0  0  0
    6.0839   -0.2866   23.3364 H   0  0  0  0  0  0  0  0  0  0  0  0
    5.7419   -2.0216   23.6378 H   0  0  0  0  0  0  0  0  0  0  0  0
    6.6961   -1.6922   21.7689 C   0  0  0  0  0  0  0  0  0  0  0  0
    7.2441   -2.6473   21.7718 H   0  0  0  0  0  0  0  0  0  0  0  0
    5.7163   -1.8884   21.3196 H   0  0  0  0  0  0  0  0  0  0  0  0
    7.3760   -0.7140   20.9234 N   0  0  0  0  0  0  0  0  0  0  0  0
    6.6938   -0.0220   19.8897 C   0  0  0  0  0  0  0  0  0  0  0  0
    7.1923    0.0739   18.5593 C   0  0  0  0  0  0  0  0  0  0  0  0
    8.1391   -0.4039   18.3025 H   0  0  0  0  0  0  0  0  0  0  0  0
    6.5698    0.7027   17.5498 N   0  0  0  0  0  0  0  0  0  0  0  0
    5.4042    1.3129   17.8214 C   0  0  0  0  0  0  0  0  0  0  0  0
    4.9222    1.8190   16.9877 H   0  0  0  0  0  0  0  0  0  0  0  0
    4.8179    1.3016   19.0904 C   0  0  0  0  0  0  0  0  0  0  0  0
    3.8799    1.8225   19.2524 H   0  0  0  0  0  0  0  0  0  0  0  0
    5.4597    0.6181   20.1310 C   0  0  0  0  0  0  0  0  0  0  0  0
    5.0433    0.5927   21.1358 H   0  0  0  0  0  0  0  0  0  0  0  0
    8.7603   -0.3343   21.1798 C   0  0  0  0  0  0  0  0  0  0  0  0
    8.8116    0.7656   21.2576 H   0  0  0  0  0  0  0  0  0  0  0  0
    9.3801   -0.5827   20.3025 H   0  0  0  0  0  0  0  0  0  0  0  0
    9.4134   -0.9701   22.4130 C   0  0  0  0  0  0  0  0  0  0  0  0
    9.4146   -2.0631   22.3331 H   0  0  0  0  0  0  0  0  0  0  0  0
   10.4617   -0.6521   22.4197 H   0  0  0  0  0  0  0  0  0  0  0  0
    8.8034   -0.6145   23.7762 C   0  0  0  0  0  0  0  0  0  0  0  0
    8.4771    0.4356   23.8333 H   0  0  0  0  0  0  0  0  0  0  0  0
    9.5365   -0.7802   24.5695 H   0  0  0  0  0  0  0  0  0  0  0  0
  1  2  1  0
  2  3  1  0
  3  4  2  0
  4  5  1  0
  4  6  1  0
  6  7  1  0
  6  8  2  0
  8  9  1  0
  8 10  1  0
 10 11  1  0
 10 12  2  0
 12 13  1  0
 13 14  1  0
 14 15  1  0
 15 16  1  0
 15 17  1  0
 15 18  1  0
 18 19  1  0
 18 20  1  0
 18 21  1  0
 21 22  1  0
 22 23  2  0
 23 24  1  0
 23 25  1  0
 25 26  2  0
 26 27  1  0
 26 28  1  0
 28 29  1  0
 28 30  2  0
 30 31  1  0
 21 32  1  0
 32 33  1  0
 32 34  1  0
 32 35  1  0
 35 36  1  0
 35 37  1  0
 35 38  1  0
 38 39  1  0
 38 40  1  0
 12  3  1  0
 38 14  1  0
 30 22  1  0
M  END
>  <cnnaffinity>  (1) 
-5.29593

>  <filename>  (1) 
Oc1cc(Cl)ccc1ON1CCCN(c2cccnc2)CC1

$$$$
