
     RDKit          3D

 30 32  0  0  0  0  0  0  0  0999 V2000
    5.3227   -4.5607   23.4791 H   0  0  0  0  0  0  0  0  0  0  0  0
    5.9013   -3.8535   23.1709 O   0  0  0  0  0  0  0  0  0  0  0  0
    6.6624   -3.4836   24.2351 C   0  0  0  0  0  0  0  0  0  0  0  0
    6.5003   -4.1068   25.4757 C   0  0  0  0  0  0  0  0  0  0  0  0
    5.7544   -4.8909   25.5826 H   0  0  0  0  0  0  0  0  0  0  0  0
    7.2854   -3.7218   26.5665 C   0  0  0  0  0  0  0  0  0  0  0  0
    7.1583   -4.2133   27.5264 H   0  0  0  0  0  0  0  0  0  0  0  0
    8.2343   -2.7081   26.4229 C   0  0  0  0  0  0  0  0  0  0  0  0
    8.8539   -2.4042   27.2578 H   0  0  0  0  0  0  0  0  0  0  0  0
    8.4067   -2.0838   25.1851 C   0  0  0  0  0  0  0  0  0  0  0  0
    9.1438   -1.2995   25.0322 H   0  0  0  0  0  0  0  0  0  0  0  0
    7.6361   -2.4684   24.0864 C   0  0  0  0  0  0  0  0  0  0  0  0
    7.8419   -1.8048   22.8297 N   0  0  0  0  0  0  0  0  0  0  0  0
    6.8266   -1.2218   22.0983 C   0  0  0  0  0  0  0  0  0  0  0  0
    5.8117   -1.3141   22.4153 H   0  0  0  0  0  0  0  0  0  0  0  0
    7.3451   -0.6845   20.9773 C   0  0  0  0  0  0  0  0  0  0  0  0
    6.6706    0.0275   19.8917 C   0  0  0  0  0  0  0  0  0  0  0  0
    7.1710    0.0748   18.5771 C   0  0  0  0  0  0  0  0  0  0  0  0
    8.1059   -0.4199   18.3205 H   0  0  0  0  0  0  0  0  0  0  0  0
    6.5556    0.6869   17.5579 N   0  0  0  0  0  0  0  0  0  0  0  0
    5.3908    1.3062   17.8126 C   0  0  0  0  0  0  0  0  0  0  0  0
    4.9167    1.8051   16.9662 H   0  0  0  0  0  0  0  0  0  0  0  0
    4.7978    1.3229   19.0800 C   0  0  0  0  0  0  0  0  0  0  0  0
    3.8623    1.8526   19.2274 H   0  0  0  0  0  0  0  0  0  0  0  0
    5.4432    0.6704   20.1299 C   0  0  0  0  0  0  0  0  0  0  0  0
    5.0128    0.6673   21.1309 H   0  0  0  0  0  0  0  0  0  0  0  0
    8.6971   -0.9873   21.0232 N   0  0  0  0  0  0  0  0  0  0  0  0
    9.4396   -0.7131   20.4031 H   0  0  0  0  0  0  0  0  0  0  0  0
    9.0358   -1.6557   22.1595 C   0  0  0  0  0  0  0  0  0  0  0  0
   10.5766   -2.1429   22.5295 S   0  0  0  0  0  0  0  0  0  0  0  0
  1  2  1  0
  2  3  1  0
  3  4  2  0
  4  5  1  0
  4  6  1  0
  6  7  1  0
  6  8  2  0
  8  9  1  0
  8 10  1  0
 10 11  1  0
 10 12  2  0
 12 13  1  0
 13 14  1  0
 14 15  1  0
 14 16  2  0
 16 17  1  0
 17 18  2  0
 18 19  1  0
 18 20  1  0
 20 21  2  0
 21 22  1  0
 21 23  1  0
 23 24  1  0
 23 25  2  0
 25 26  1  0
 16 27  1  0
 27 28  1  0
 27 29  1  0
 29 30  2  0
 12  3  1  0
 29 13  1  0
 25 17  1  0
M  END
>  <cnnaffinity>  (1) 
-5.52898

>  <filename>  (1) 
Oc1ccccc1-n1cc(-c2cccnc2)[nH]c1=S

$$$$
