
     RDKit          3D

 30 32  0  0  0  0  0  0  0  0999 V2000
    9.2360    0.9769   27.9405 H   0  0  0  0  0  0  0  0  0  0  0  0
    8.6508    1.0829   27.1745 O   0  0  0  0  0  0  0  0  0  0  0  0
    8.5332   -0.1126   26.5396 C   0  0  0  0  0  0  0  0  0  0  0  0
    8.6545   -1.3379   27.2003 C   0  0  0  0  0  0  0  0  0  0  0  0
    8.9536   -1.3437   28.2444 H   0  0  0  0  0  0  0  0  0  0  0  0
    8.4294   -2.5261   26.4958 C   0  0  0  0  0  0  0  0  0  0  0  0
    8.5171   -3.4847   27.0140 H   0  0  0  0  0  0  0  0  0  0  0  0
    8.1403   -2.4832   25.1282 C   0  0  0  0  0  0  0  0  0  0  0  0
    7.9632   -3.3988   24.5734 H   0  0  0  0  0  0  0  0  0  0  0  0
    8.1093   -1.2427   24.4636 C   0  0  0  0  0  0  0  0  0  0  0  0
    7.9643   -1.1658   23.0399 N   0  0  0  0  0  0  0  0  0  0  0  0
    7.0243   -0.4018   22.3503 C   0  0  0  0  0  0  0  0  0  0  0  0
    6.3502    0.2611   22.8707 H   0  0  0  0  0  0  0  0  0  0  0  0
    7.2031   -0.6093   21.0261 C   0  0  0  0  0  0  0  0  0  0  0  0
    6.5540    0.0156   19.8674 C   0  0  0  0  0  0  0  0  0  0  0  0
    7.1378    0.0337   18.5866 C   0  0  0  0  0  0  0  0  0  0  0  0
    8.0890   -0.4640   18.4007 H   0  0  0  0  0  0  0  0  0  0  0  0
    6.6114    0.6577   17.5274 N   0  0  0  0  0  0  0  0  0  0  0  0
    5.4480    1.3033   17.7157 C   0  0  0  0  0  0  0  0  0  0  0  0
    5.0374    1.8078   16.8480 H   0  0  0  0  0  0  0  0  0  0  0  0
    4.7655    1.3401   18.9347 C   0  0  0  0  0  0  0  0  0  0  0  0
    3.8274    1.8790   19.0230 H   0  0  0  0  0  0  0  0  0  0  0  0
    5.3292    0.6867   20.0279 C   0  0  0  0  0  0  0  0  0  0  0  0
    4.8401    0.6828   21.0006 H   0  0  0  0  0  0  0  0  0  0  0  0
    8.2765   -1.4824   20.9291 N   0  0  0  0  0  0  0  0  0  0  0  0
    8.6349   -1.9439   20.1126 H   0  0  0  0  0  0  0  0  0  0  0  0
    8.7996   -1.7920   22.1460 C   0  0  0  0  0  0  0  0  0  0  0  0
   10.1899   -2.6672   22.3995 S   0  0  0  0  0  0  0  0  0  0  0  0
    8.2674   -0.0554   25.1747 C   0  0  0  0  0  0  0  0  0  0  0  0
    8.2423    0.9190   24.6982 H   0  0  0  0  0  0  0  0  0  0  0  0
  1  2  1  0
  2  3  1  0
  3  4  2  0
  4  5  1  0
  4  6  1  0
  6  7  1  0
  6  8  2  0
  8  9  1  0
  8 10  1  0
 10 11  1  0
 11 12  1  0
 12 13  1  0
 12 14  2  0
 14 15  1  0
 15 16  2  0
 16 17  1  0
 16 18  1  0
 18 19  2  0
 19 20  1  0
 19 21  1  0
 21 22  1  0
 21 23  2  0
 23 24  1  0
 14 25  1  0
 25 26  1  0
 25 27  1  0
 27 28  2  0
 10 29  2  0
 29 30  1  0
 29  3  1  0
 27 11  1  0
 23 15  1  0
M  END
>  <cnnaffinity>  (1) 
-5.4344

>  <filename>  (1) 
Oc1cccc(-n2cc(-c3cccnc3)[nH]c2=S)c1

$$$$
