
     RDKit          3D

 29 31  0  0  0  0  0  0  0  0999 V2000
    9.8500   -0.6867   24.0188 H   0  0  0  0  0  0  0  0  0  0  0  0
    9.9197   -1.1829   24.8479 O   0  0  0  0  0  0  0  0  0  0  0  0
    8.6722   -1.6048   25.1883 C   0  0  0  0  0  0  0  0  0  0  0  0
    8.4439   -1.9904   26.5113 C   0  0  0  0  0  0  0  0  0  0  0  0
    9.2754   -1.9177   27.2115 H   0  0  0  0  0  0  0  0  0  0  0  0
    7.1698   -2.4409   26.8751 C   0  0  0  0  0  0  0  0  0  0  0  0
    6.9481   -2.8274   27.8465 H   0  0  0  0  0  0  0  0  0  0  0  0
    6.1054   -2.4809   25.9744 C   0  0  0  0  0  0  0  0  0  0  0  0
    5.1133   -2.8155   26.2837 H   0  0  0  0  0  0  0  0  0  0  0  0
    6.3402   -2.1095   24.6551 C   0  0  0  0  0  0  0  0  0  0  0  0
    5.5703   -2.1530   23.8991 H   0  0  0  0  0  0  0  0  0  0  0  0
    7.6142   -1.6954   24.2601 C   0  0  0  0  0  0  0  0  0  0  0  0
    7.8700   -1.3865   22.9013 N   0  0  0  0  0  0  0  0  0  0  0  0
    6.9837   -0.6668   22.2037 N   0  0  0  0  0  0  0  0  0  0  0  0
    7.4114   -0.6938   20.9507 C   0  0  0  0  0  0  0  0  0  0  0  0
    6.6454    0.0079   19.9154 C   0  0  0  0  0  0  0  0  0  0  0  0
    7.1630    0.0496   18.6167 C   0  0  0  0  0  0  0  0  0  0  0  0
    8.1150   -0.4308   18.3970 H   0  0  0  0  0  0  0  0  0  0  0  0
    6.5712    0.6632   17.5911 N   0  0  0  0  0  0  0  0  0  0  0  0
    5.4109    1.2880   17.8397 C   0  0  0  0  0  0  0  0  0  0  0  0
    4.9505    1.7936   16.9957 H   0  0  0  0  0  0  0  0  0  0  0  0
    4.7961    1.3098   19.0983 C   0  0  0  0  0  0  0  0  0  0  0  0
    3.8596    1.8456   19.2293 H   0  0  0  0  0  0  0  0  0  0  0  0
    5.4201    0.6605   20.1618 C   0  0  0  0  0  0  0  0  0  0  0  0
    4.9842    0.6656   21.1636 H   0  0  0  0  0  0  0  0  0  0  0  0
    8.5933   -1.4793   20.8347 C   0  0  0  0  0  0  0  0  0  0  0  0
    9.1633   -1.6779   19.9394 H   0  0  0  0  0  0  0  0  0  0  0  0
    8.8382   -1.9206   22.1106 C   0  0  0  0  0  0  0  0  0  0  0  0
    9.5687   -2.5888   22.5533 H   0  0  0  0  0  0  0  0  0  0  0  0
  1  2  1  0
  2  3  1  0
  3  4  2  0
  4  5  1  0
  4  6  1  0
  6  7  1  0
  6  8  2  0
  8  9  1  0
  8 10  1  0
 10 11  1  0
 10 12  2  0
 12 13  1  0
 13 14  1  0
 14 15  2  0
 15 16  1  0
 16 17  2  0
 17 18  1  0
 17 19  1  0
 19 20  2  0
 20 21  1  0
 20 22  1  0
 22 23  1  0
 22 24  2  0
 24 25  1  0
 15 26  1  0
 26 27  1  0
 26 28  2  0
 28 29  1  0
 12  3  1  0
 28 13  1  0
 24 16  1  0
M  END
>  <cnnaffinity>  (1) 
-4.84117

>  <filename>  (1) 
Oc1ccccc1-n1ccc(-c2cccnc2)n1

$$$$
