
     RDKit          3D

 33 35  0  0  0  0  0  0  0  0999 V2000
    8.7970   -4.9420   27.7333 H   0  0  0  0  0  0  0  0  0  0  0  0
    8.0385   -4.9200   28.3333 O   0  0  0  0  0  0  0  0  0  0  0  0
    6.8759   -4.7744   27.5336 C   0  0  0  0  0  0  0  0  0  0  0  0
    6.5137   -5.7766   27.2424 H   0  0  0  0  0  0  0  0  0  0  0  0
    6.1067   -4.3329   28.1759 H   0  0  0  0  0  0  0  0  0  0  0  0
    7.1478   -3.9212   26.3139 C   0  0  0  0  0  0  0  0  0  0  0  0
    6.6131   -2.6316   26.1488 C   0  0  0  0  0  0  0  0  0  0  0  0
    5.9414   -2.2164   26.9046 H   0  0  0  0  0  0  0  0  0  0  0  0
    6.8990   -1.8891   24.9977 C   0  0  0  0  0  0  0  0  0  0  0  0
    6.4689   -0.9022   24.8610 H   0  0  0  0  0  0  0  0  0  0  0  0
    7.7305   -2.4252   24.0045 C   0  0  0  0  0  0  0  0  0  0  0  0
    7.9213   -1.7352   22.7682 N   0  0  0  0  0  0  0  0  0  0  0  0
    6.8749   -1.2232   22.0122 C   0  0  0  0  0  0  0  0  0  0  0  0
    5.8487   -1.3750   22.2927 H   0  0  0  0  0  0  0  0  0  0  0  0
    7.3863   -0.6541   20.9067 C   0  0  0  0  0  0  0  0  0  0  0  0
    6.7020    0.0423   19.8198 C   0  0  0  0  0  0  0  0  0  0  0  0
    7.1989    0.0689   18.5069 C   0  0  0  0  0  0  0  0  0  0  0  0
    8.1186   -0.4596   18.2583 H   0  0  0  0  0  0  0  0  0  0  0  0
    6.5909    0.6862   17.4884 N   0  0  0  0  0  0  0  0  0  0  0  0
    5.4360    1.3204   17.7521 C   0  0  0  0  0  0  0  0  0  0  0  0
    4.9670    1.8330   16.9166 H   0  0  0  0  0  0  0  0  0  0  0  0
    4.8386    1.3367   19.0155 C   0  0  0  0  0  0  0  0  0  0  0  0
    3.9039    1.8629   19.1650 H   0  0  0  0  0  0  0  0  0  0  0  0
    5.4782    0.6863   20.0656 C   0  0  0  0  0  0  0  0  0  0  0  0
    5.0604    0.6789   21.0722 H   0  0  0  0  0  0  0  0  0  0  0  0
    8.7512   -0.8636   20.9792 N   0  0  0  0  0  0  0  0  0  0  0  0
    9.4623   -0.5851   20.3291 H   0  0  0  0  0  0  0  0  0  0  0  0
    9.1123   -1.5310   22.1084 C   0  0  0  0  0  0  0  0  0  0  0  0
   10.6724   -1.9611   22.4944 S   0  0  0  0  0  0  0  0  0  0  0  0
    8.3114   -3.6825   24.1882 C   0  0  0  0  0  0  0  0  0  0  0  0
    9.0090   -4.0576   23.4506 H   0  0  0  0  0  0  0  0  0  0  0  0
    8.0119   -4.4268   25.3238 C   0  0  0  0  0  0  0  0  0  0  0  0
    8.4250   -5.4325   25.4240 H   0  0  0  0  0  0  0  0  0  0  0  0
  1  2  1  0
  2  3  1  0
  3  4  1  0
  3  5  1  0
  3  6  1  0
  6  7  2  0
  7  8  1  0
  7  9  1  0
  9 10  1  0
  9 11  2  0
 11 12  1  0
 12 13  1  0
 13 14  1  0
 13 15  2  0
 15 16  1  0
 16 17  2  0
 17 18  1  0
 17 19  1  0
 19 20  2  0
 20 21  1  0
 20 22  1  0
 22 23  1  0
 22 24  2  0
 24 25  1  0
 15 26  1  0
 26 27  1  0
 26 28  1  0
 28 29  2  0
 11 30  1  0
 30 31  1  0
 30 32  2  0
 32 33  1  0
 32  6  1  0
 28 12  1  0
 24 16  1  0
M  END
>  <cnnaffinity>  (1) 
-5.36416

>  <filename>  (1) 
OCc1ccc(-n2cc(-c3cccnc3)[nH]c2=S)cc1

$$$$
