
     RDKit          3D

 33 35  0  0  0  0  0  0  0  0999 V2000
    9.7328   -4.4495   27.6943 H   0  0  0  0  0  0  0  0  0  0  0  0
   10.3529   -4.5827   26.9646 O   0  0  0  0  0  0  0  0  0  0  0  0
    9.6933   -5.3353   25.9593 C   0  0  0  0  0  0  0  0  0  0  0  0
    9.3978   -6.3246   26.3464 H   0  0  0  0  0  0  0  0  0  0  0  0
   10.4600   -5.4979   25.1921 H   0  0  0  0  0  0  0  0  0  0  0  0
    8.4838   -4.6256   25.3636 C   0  0  0  0  0  0  0  0  0  0  0  0
    7.1919   -4.8499   25.8766 C   0  0  0  0  0  0  0  0  0  0  0  0
    7.0491   -5.5622   26.6906 H   0  0  0  0  0  0  0  0  0  0  0  0
    6.0900   -4.1625   25.3536 C   0  0  0  0  0  0  0  0  0  0  0  0
    5.0941   -4.3354   25.7556 H   0  0  0  0  0  0  0  0  0  0  0  0
    6.2703   -3.2531   24.3122 C   0  0  0  0  0  0  0  0  0  0  0  0
    5.4221   -2.7092   23.9077 H   0  0  0  0  0  0  0  0  0  0  0  0
    7.5464   -3.0135   23.7726 C   0  0  0  0  0  0  0  0  0  0  0  0
    7.6705   -2.0680   22.6569 C   0  0  0  0  0  0  0  0  0  0  0  0
    6.7325   -1.6035   21.7938 C   0  0  0  0  0  0  0  0  0  0  0  0
    5.6840   -1.8383   21.6881 H   0  0  0  0  0  0  0  0  0  0  0  0
    7.3327   -0.6830   20.9457 N   0  0  0  0  0  0  0  0  0  0  0  0
    6.6527    0.0001   19.8893 C   0  0  0  0  0  0  0  0  0  0  0  0
    7.1722    0.0422   18.5791 C   0  0  0  0  0  0  0  0  0  0  0  0
    8.1255   -0.4338   18.3549 H   0  0  0  0  0  0  0  0  0  0  0  0
    6.5516    0.6581   17.5659 N   0  0  0  0  0  0  0  0  0  0  0  0
    5.3975    1.2892   17.8339 C   0  0  0  0  0  0  0  0  0  0  0  0
    4.9345    1.7993   16.9958 H   0  0  0  0  0  0  0  0  0  0  0  0
    4.8050    1.3113   19.1025 C   0  0  0  0  0  0  0  0  0  0  0  0
    3.8739    1.8462   19.2567 H   0  0  0  0  0  0  0  0  0  0  0  0
    5.4418    0.6470   20.1539 C   0  0  0  0  0  0  0  0  0  0  0  0
    5.0406    0.6339   21.1707 H   0  0  0  0  0  0  0  0  0  0  0  0
    8.6526   -0.5163   21.3077 C   0  0  0  0  0  0  0  0  0  0  0  0
    9.8115    0.5474   20.7911 S   0  0  0  0  0  0  0  0  0  0  0  0
    8.8442   -1.4152   22.3024 N   0  0  0  0  0  0  0  0  0  0  0  0
    9.7468   -1.3995   22.7452 H   0  0  0  0  0  0  0  0  0  0  0  0
    8.6432   -3.7029   24.3182 C   0  0  0  0  0  0  0  0  0  0  0  0
    9.6417   -3.5268   23.9227 H   0  0  0  0  0  0  0  0  0  0  0  0
  1  2  1  0
  2  3  1  0
  3  4  1  0
  3  5  1  0
  3  6  1  0
  6  7  2  0
  7  8  1  0
  7  9  1  0
  9 10  1  0
  9 11  2  0
 11 12  1  0
 11 13  1  0
 13 14  1  0
 14 15  2  0
 15 16  1  0
 15 17  1  0
 17 18  1  0
 18 19  2  0
 19 20  1  0
 19 21  1  0
 21 22  2  0
 22 23  1  0
 22 24  1  0
 24 25  1  0
 24 26  2  0
 26 27  1  0
 17 28  1  0
 28 29  2  0
 28 30  1  0
 30 31  1  0
 13 32  2  0
 32 33  1  0
 32  6  1  0
 30 14  1  0
 26 18  1  0
M  END
>  <cnnaffinity>  (1) 
-5.3208

>  <filename>  (1) 
OCc1cccc(-c2cn(-c3cccnc3)c(=S)[nH]2)c1

$$$$
