
     RDKit          3D

 34 35  0  0  0  0  0  0  0  0999 V2000
   11.4130   -5.9401   24.7058 H   0  0  0  0  0  0  0  0  0  0  0  0
   10.5868   -5.4300   24.7873 O   0  0  0  0  0  0  0  0  0  0  0  0
   10.7608   -4.0734   24.3635 C   0  0  0  0  0  0  0  0  0  0  0  0
   10.9544   -3.9932   23.2952 H   0  0  0  0  0  0  0  0  0  0  0  0
   11.6197   -3.6627   24.8783 H   0  0  0  0  0  0  0  0  0  0  0  0
    9.5350   -3.2291   24.6947 C   0  0  0  0  0  0  0  0  0  0  0  0
    9.4748   -3.1553   25.7839 H   0  0  0  0  0  0  0  0  0  0  0  0
    8.2320   -3.8886   24.1836 C   0  0  0  0  0  0  0  0  0  0  0  0
    7.3714   -3.3629   24.6063 H   0  0  0  0  0  0  0  0  0  0  0  0
    8.1849   -4.9296   24.5201 H   0  0  0  0  0  0  0  0  0  0  0  0
    8.1225   -3.8435   22.6639 C   0  0  0  0  0  0  0  0  0  0  0  0
    7.1536   -4.2465   22.3482 H   0  0  0  0  0  0  0  0  0  0  0  0
    8.9002   -4.4648   22.2144 H   0  0  0  0  0  0  0  0  0  0  0  0
    8.2852   -2.4459   22.2353 N   0  0  0  0  0  0  0  0  0  0  0  0
    7.3546   -1.8498   21.3713 C   0  0  0  0  0  0  0  0  0  0  0  0
    5.9442   -2.9170   20.6196 Br  0  0  0  0  0  0  0  0  0  0  0  0
    7.4668   -0.5251   21.0123 C   0  0  0  0  0  0  0  0  0  0  0  0
    8.2623    0.0542   21.4636 H   0  0  0  0  0  0  0  0  0  0  0  0
    6.6694    0.0910   19.9501 C   0  0  0  0  0  0  0  0  0  0  0  0
    7.1824    0.0798   18.6418 C   0  0  0  0  0  0  0  0  0  0  0  0
    8.1339   -0.4162   18.4687 H   0  0  0  0  0  0  0  0  0  0  0  0
    6.5686    0.6626   17.5978 N   0  0  0  0  0  0  0  0  0  0  0  0
    5.3994    1.2761   17.8382 C   0  0  0  0  0  0  0  0  0  0  0  0
    4.9016    1.7526   17.0024 H   0  0  0  0  0  0  0  0  0  0  0  0
    4.8081    1.3217   19.1063 C   0  0  0  0  0  0  0  0  0  0  0  0
    3.8644    1.8434   19.2230 H   0  0  0  0  0  0  0  0  0  0  0  0
    5.4478    0.7254   20.1977 C   0  0  0  0  0  0  0  0  0  0  0  0
    5.0173    0.7817   21.1978 H   0  0  0  0  0  0  0  0  0  0  0  0
    9.5862   -1.8253   22.5659 C   0  0  0  0  0  0  0  0  0  0  0  0
    9.6629   -0.8034   22.1800 H   0  0  0  0  0  0  0  0  0  0  0  0
   10.3996   -2.4084   22.1161 H   0  0  0  0  0  0  0  0  0  0  0  0
    9.7233   -1.8167   24.0920 C   0  0  0  0  0  0  0  0  0  0  0  0
   10.7077   -1.4252   24.3677 H   0  0  0  0  0  0  0  0  0  0  0  0
    8.9696   -1.1435   24.5098 H   0  0  0  0  0  0  0  0  0  0  0  0
  1  2  1  0
  2  3  1  0
  3  4  1  0
  3  5  1  0
  3  6  1  0
  6  7  1  0
  6  8  1  0
  8  9  1  0
  8 10  1  0
  8 11  1  0
 11 12  1  0
 11 13  1  0
 11 14  1  0
 14 15  1  0
 15 16  1  0
 15 17  2  3
 17 18  1  0
 17 19  1  0
 19 20  2  0
 20 21  1  0
 20 22  1  0
 22 23  2  0
 23 24  1  0
 23 25  1  0
 25 26  1  0
 25 27  2  0
 27 28  1  0
 14 29  1  0
 29 30  1  0
 29 31  1  0
 29 32  1  0
 32 33  1  0
 32 34  1  0
 32  6  1  0
 27 19  1  0
M  END
>  <cnnaffinity>  (1) 
-4.79213

>  <filename>  (1) 
OCC1CCN(C(Br)=Cc2cccnc2)CC1

$$$$
