
     RDKit          3D

 42 44  0  0  0  0  0  0  0  0999 V2000
    9.3585    7.3963   23.2984 H   0  0  0  0  0  0  0  0  0  0  0  0
    9.8682    6.9064   23.9533 O   0  0  0  0  0  0  0  0  0  0  0  0
    9.4578    5.5473   23.8745 C   0  0  0  0  0  0  0  0  0  0  0  0
    8.3843    5.4328   24.0937 H   0  0  0  0  0  0  0  0  0  0  0  0
    9.6320    5.1248   22.8722 H   0  0  0  0  0  0  0  0  0  0  0  0
   10.2631    4.7583   24.9048 C   0  0  0  0  0  0  0  0  0  0  0  0
   11.3314    4.8920   24.6931 H   0  0  0  0  0  0  0  0  0  0  0  0
   10.1116    5.2216   25.8872 H   0  0  0  0  0  0  0  0  0  0  0  0
    9.9820    3.3408   25.0174 N   0  0  0  0  0  0  0  0  0  0  0  0
    8.7904    2.8576   25.7016 C   0  0  0  0  0  0  0  0  0  0  0  0
    9.0693    1.9816   26.3057 H   0  0  0  0  0  0  0  0  0  0  0  0
    8.4190    3.6080   26.4095 H   0  0  0  0  0  0  0  0  0  0  0  0
    7.6683    2.4296   24.7367 C   0  0  0  0  0  0  0  0  0  0  0  0
    6.8559    1.9907   25.3243 H   0  0  0  0  0  0  0  0  0  0  0  0
    7.2593    3.3318   24.2364 H   0  0  0  0  0  0  0  0  0  0  0  0
    8.1622    1.4244   23.7836 N   0  0  0  0  0  0  0  0  0  0  0  0
    7.1174    0.9280   22.8941 C   0  0  0  0  0  0  0  0  0  0  0  0
    6.2063    0.7537   23.4865 H   0  0  0  0  0  0  0  0  0  0  0  0
    6.8424    1.6730   22.1267 H   0  0  0  0  0  0  0  0  0  0  0  0
    7.5294   -0.3476   22.2326 C   0  0  0  0  0  0  0  0  0  0  0  0
    8.2968   -1.3653   22.8291 C   0  0  0  0  0  0  0  0  0  0  0  0
    8.6819   -1.4187   23.8414 H   0  0  0  0  0  0  0  0  0  0  0  0
    8.5465   -2.3512   21.9725 N   0  0  0  0  0  0  0  0  0  0  0  0
    7.9642   -1.9452   20.8281 N   0  0  0  0  0  0  0  0  0  0  0  0
    7.9335   -2.5829   20.0441 H   0  0  0  0  0  0  0  0  0  0  0  0
    7.3207   -0.7499   20.9253 C   0  0  0  0  0  0  0  0  0  0  0  0
    6.6260   -0.0360   19.8253 C   0  0  0  0  0  0  0  0  0  0  0  0
    7.1500    0.0604   18.5136 C   0  0  0  0  0  0  0  0  0  0  0  0
    8.1073   -0.3907   18.2556 H   0  0  0  0  0  0  0  0  0  0  0  0
    6.5553    0.7146   17.5065 N   0  0  0  0  0  0  0  0  0  0  0  0
    5.3902    1.3311   17.7655 C   0  0  0  0  0  0  0  0  0  0  0  0
    4.9300    1.8692   16.9386 H   0  0  0  0  0  0  0  0  0  0  0  0
    4.7804    1.3101   19.0217 C   0  0  0  0  0  0  0  0  0  0  0  0
    3.8500    1.8459   19.1782 H   0  0  0  0  0  0  0  0  0  0  0  0
    5.4049    0.6236   20.0625 C   0  0  0  0  0  0  0  0  0  0  0  0
    4.9463    0.5977   21.0518 H   0  0  0  0  0  0  0  0  0  0  0  0
    9.3245    1.9610   23.0419 C   0  0  0  0  0  0  0  0  0  0  0  0
    9.0559    2.8282   22.4045 H   0  0  0  0  0  0  0  0  0  0  0  0
    9.7094    1.1841   22.3762 H   0  0  0  0  0  0  0  0  0  0  0  0
   10.4387    2.3904   24.0146 C   0  0  0  0  0  0  0  0  0  0  0  0
   10.8092    1.4921   24.5304 H   0  0  0  0  0  0  0  0  0  0  0  0
   11.2933    2.7921   23.4567 H   0  0  0  0  0  0  0  0  0  0  0  0
  1  2  1  0
  2  3  1  0
  3  4  1  0
  3  5  1  0
  3  6  1  0
  6  7  1  0
  6  8  1  0
  6  9  1  0
  9 10  1  0
 10 11  1  0
 10 12  1  0
 10 13  1  0
 13 14  1  0
 13 15  1  0
 13 16  1  0
 16 17  1  0
 17 18  1  0
 17 19  1  0
 17 20  1  0
 20 21  1  0
 21 22  1  0
 21 23  2  0
 23 24  1  0
 24 25  1  0
 24 26  1  0
 26 27  1  0
 27 28  2  0
 28 29  1  0
 28 30  1  0
 30 31  2  0
 31 32  1  0
 31 33  1  0
 33 34  1  0
 33 35  2  0
 35 36  1  0
 16 37  1  0
 37 38  1  0
 37 39  1  0
 37 40  1  0
 40 41  1  0
 40 42  1  0
 40  9  1  0
 26 20  2  0
 35 27  1  0
M  END
>  <cnnaffinity>  (1) 
-4.84641

>  <filename>  (1) 
OCCN1CCN(Cc2cn[nH]c2-c2cccnc2)CC1

$$$$
