
     RDKit          3D

 26 28  0  0  0  0  0  0  0  0999 V2000
    9.5305    0.7953   25.1931 H   0  0  0  0  0  0  0  0  0  0  0  0
    8.5923    0.6390   25.3692 O   0  0  0  0  0  0  0  0  0  0  0  0
    8.3754   -0.7497   25.3490 C   0  0  0  0  0  0  0  0  0  0  0  0
    7.2952   -0.9005   25.4144 H   0  0  0  0  0  0  0  0  0  0  0  0
    8.8203   -1.2513   26.2193 H   0  0  0  0  0  0  0  0  0  0  0  0
    8.8283   -1.3911   24.1288 N   0  0  0  0  0  0  0  0  0  0  0  0
   10.0321   -2.0507   23.8182 C   0  0  0  0  0  0  0  0  0  0  0  0
   10.7304   -2.3660   24.5816 H   0  0  0  0  0  0  0  0  0  0  0  0
   10.1057   -2.2226   22.4727 C   0  0  0  0  0  0  0  0  0  0  0  0
   10.8551   -2.6123   21.8077 H   0  0  0  0  0  0  0  0  0  0  0  0
    8.9442   -1.6689   21.9465 N   0  0  0  0  0  0  0  0  0  0  0  0
    8.4996   -1.3693   20.7073 N   0  0  0  0  0  0  0  0  0  0  0  0
    7.3757   -0.6746   20.9518 C   0  0  0  0  0  0  0  0  0  0  0  0
    6.6141   -0.0492   19.8513 C   0  0  0  0  0  0  0  0  0  0  0  0
    7.1450    0.0007   18.5463 C   0  0  0  0  0  0  0  0  0  0  0  0
    8.0958   -0.4784   18.3176 H   0  0  0  0  0  0  0  0  0  0  0  0
    6.5661    0.6540   17.5335 N   0  0  0  0  0  0  0  0  0  0  0  0
    5.4159    1.2962   17.7843 C   0  0  0  0  0  0  0  0  0  0  0  0
    4.9779    1.8336   16.9477 H   0  0  0  0  0  0  0  0  0  0  0  0
    4.7911    1.2998   19.0336 C   0  0  0  0  0  0  0  0  0  0  0  0
    3.8710    1.8551   19.1776 H   0  0  0  0  0  0  0  0  0  0  0  0
    5.3963    0.6171   20.0841 C   0  0  0  0  0  0  0  0  0  0  0  0
    4.9443    0.6448   21.0759 H   0  0  0  0  0  0  0  0  0  0  0  0
    7.0941   -0.5456   22.3380 C   0  0  0  0  0  0  0  0  0  0  0  0
    6.2702   -0.0324   22.8025 H   0  0  0  0  0  0  0  0  0  0  0  0
    8.1675   -1.1806   22.9349 C   0  0  0  0  0  0  0  0  0  0  0  0
  1  2  1  0
  2  3  1  0
  3  4  1  0
  3  5  1  0
  3  6  1  0
  6  7  1  0
  7  8  1  0
  7  9  2  0
  9 10  1  0
  9 11  1  0
 11 12  1  0
 12 13  2  0
 13 14  1  0
 14 15  2  0
 15 16  1  0
 15 17  1  0
 17 18  2  0
 18 19  1  0
 18 20  1  0
 20 21  1  0
 20 22  2  0
 22 23  1  0
 13 24  1  0
 24 25  1  0
 24 26  2  0
 26  6  1  0
 26 11  1  0
 22 14  1  0
M  END
>  <cnnaffinity>  (1) 
-4.62959

>  <filename>  (1) 
OCn1ccn2nc(-c3cccnc3)cc12

$$$$
