
     RDKit          3D

 36 39  0  0  0  0  0  0  0  0999 V2000
    5.0365    1.7944   17.3168 H   0  0  0  0  0  0  0  0  0  0  0  0
    5.4964    1.1323   18.0455 C   0  0  0  0  0  0  0  0  0  0  0  0
    6.5918    0.4744   17.6347 N   0  0  0  0  0  0  0  0  0  0  0  0
    7.1982   -0.3072   18.5364 C   0  0  0  0  0  0  0  0  0  0  0  0
    8.0584   -0.8703   18.1832 H   0  0  0  0  0  0  0  0  0  0  0  0
    6.7884   -0.4587   19.8816 C   0  0  0  0  0  0  0  0  0  0  0  0
    7.6823   -1.1098   20.8642 C   0  0  0  0  0  0  0  0  0  0  0  0
    9.0307   -0.9548   21.1221 C   0  0  0  0  0  0  0  0  0  0  0  0
    9.7326   -0.3586   20.5556 H   0  0  0  0  0  0  0  0  0  0  0  0
    9.4431   -1.6006   22.2609 N   0  0  0  0  0  0  0  0  0  0  0  0
    8.3370   -2.1435   22.7048 C   0  0  0  0  0  0  0  0  0  0  0  0
    7.8404   -3.0208   24.1225 S   0  0  0  0  0  0  0  0  0  0  0  0
    6.1994   -2.8266   23.5249 C   0  0  0  0  0  0  0  0  0  0  0  0
    5.0766   -3.0821   24.2632 N   0  0  0  0  0  0  0  0  0  0  0  0
    4.2766   -2.5921   23.8860 H   0  0  0  0  0  0  0  0  0  0  0  0
    4.9173   -4.0201   25.2600 C   0  0  0  0  0  0  0  0  0  0  0  0
    5.6949   -5.4570   25.3184 S   0  0  0  0  0  0  0  0  0  0  0  0
    4.0116   -3.5502   26.1638 N   0  0  0  0  0  0  0  0  0  0  0  0
    3.7049   -2.6088   25.9772 H   0  0  0  0  0  0  0  0  0  0  0  0
    3.8885   -3.9955   27.5195 C   0  0  0  0  0  0  0  0  0  0  0  0
    5.0109   -4.1998   28.3384 C   0  0  0  0  0  0  0  0  0  0  0  0
    5.9986   -3.9965   27.9359 H   0  0  0  0  0  0  0  0  0  0  0  0
    4.8413   -4.6481   29.6537 C   0  0  0  0  0  0  0  0  0  0  0  0
    5.7135   -4.7968   30.2886 H   0  0  0  0  0  0  0  0  0  0  0  0
    3.5561   -4.8886   30.1563 C   0  0  0  0  0  0  0  0  0  0  0  0
    3.4319   -5.2542   31.1729 H   0  0  0  0  0  0  0  0  0  0  0  0
    2.4378   -4.6418   29.3515 C   0  0  0  0  0  0  0  0  0  0  0  0
    1.4358   -4.7808   29.7519 H   0  0  0  0  0  0  0  0  0  0  0  0
    2.6045   -4.1871   28.0379 C   0  0  0  0  0  0  0  0  0  0  0  0
    1.7548   -3.9640   27.4012 H   0  0  0  0  0  0  0  0  0  0  0  0
    6.0336   -2.2824   22.3635 N   0  0  0  0  0  0  0  0  0  0  0  0
    7.2577   -1.8992   21.9136 N   0  0  0  0  0  0  0  0  0  0  0  0
    5.5753    0.1546   20.2497 C   0  0  0  0  0  0  0  0  0  0  0  0
    5.1546   -0.0167   21.2408 H   0  0  0  0  0  0  0  0  0  0  0  0
    4.9408    0.9832   19.3232 C   0  0  0  0  0  0  0  0  0  0  0  0
    4.0475    1.5391   19.5849 H   0  0  0  0  0  0  0  0  0  0  0  0
  1  2  1  0
  2  3  2  0
  3  4  1  0
  4  5  1  0
  4  6  2  0
  6  7  1  0
  7  8  2  0
  8  9  1  0
  8 10  1  0
 10 11  2  0
 11 12  1  0
 12 13  1  0
 13 14  1  0
 14 15  1  0
 14 16  1  0
 16 17  2  0
 16 18  1  0
 18 19  1  0
 18 20  1  0
 20 21  2  0
 21 22  1  0
 21 23  1  0
 23 24  1  0
 23 25  2  0
 25 26  1  0
 25 27  1  0
 27 28  1  0
 27 29  2  0
 29 30  1  0
 13 31  2  0
 31 32  1  0
  6 33  1  0
 33 34  1  0
 33 35  2  0
 35 36  1  0
 35  2  1  0
 32  7  1  0
 32 11  1  0
 29 20  1  0
M  END
>  <cnnaffinity>  (1) 
-5.28018

>  <filename>  (1) 
S=C(Nc1ccccc1)Nc1nn2c(-c3cccnc3)cnc2s1

$$$$
