
     RDKit          3D

 38 40  0  0  0  0  0  0  0  0999 V2000
    7.4535    1.1520   23.9159 H   0  0  0  0  0  0  0  0  0  0  0  0
    7.4212    1.0305   22.8303 C   0  0  0  0  0  0  0  0  0  0  0  0
    7.6112   -0.1847   22.3109 C   0  0  0  0  0  0  0  0  0  0  0  0
    7.3656   -0.6795   20.9474 C   0  0  0  0  0  0  0  0  0  0  0  0
    6.6321    0.0677   19.9007 C   0  0  0  0  0  0  0  0  0  0  0  0
    7.1540    0.0539   18.6042 C   0  0  0  0  0  0  0  0  0  0  0  0
    8.0778   -0.4847   18.3921 H   0  0  0  0  0  0  0  0  0  0  0  0
    6.5748    0.6774   17.5741 N   0  0  0  0  0  0  0  0  0  0  0  0
    5.4185    1.3198   17.8040 C   0  0  0  0  0  0  0  0  0  0  0  0
    4.9700    1.8316   16.9556 H   0  0  0  0  0  0  0  0  0  0  0  0
    4.7854    1.3436   19.0493 C   0  0  0  0  0  0  0  0  0  0  0  0
    3.8457    1.8666   19.1748 H   0  0  0  0  0  0  0  0  0  0  0  0
    5.4042    0.7062   20.1227 C   0  0  0  0  0  0  0  0  0  0  0  0
    4.9473    0.7204   21.1123 H   0  0  0  0  0  0  0  0  0  0  0  0
    7.7903   -1.8717   20.7410 N   0  0  0  0  0  0  0  0  0  0  0  0
    8.3022   -2.4388   21.9913 C   0  0  0  0  0  0  0  0  0  0  0  0
    7.7996   -3.3942   22.1783 H   0  0  0  0  0  0  0  0  0  0  0  0
    9.3690   -2.6480   21.8567 H   0  0  0  0  0  0  0  0  0  0  0  0
    8.0362   -1.4075   23.1132 C   0  0  0  0  0  0  0  0  0  0  0  0
    8.9166   -1.2516   23.7509 H   0  0  0  0  0  0  0  0  0  0  0  0
    7.1958   -1.7391   23.7383 H   0  0  0  0  0  0  0  0  0  0  0  0
    7.1366    2.1983   22.1140 N   0  0  0  0  0  0  0  0  0  0  0  0
    7.3868    2.2573   21.1382 H   0  0  0  0  0  0  0  0  0  0  0  0
    6.6243    3.3387   22.6761 C   0  0  0  0  0  0  0  0  0  0  0  0
    5.9384    3.3841   24.1847 S   0  0  0  0  0  0  0  0  0  0  0  0
    6.7870    4.4157   21.8496 N   0  0  0  0  0  0  0  0  0  0  0  0
    6.7080    4.2192   20.8662 H   0  0  0  0  0  0  0  0  0  0  0  0
    6.6980    5.7799   22.2444 C   0  0  0  0  0  0  0  0  0  0  0  0
    7.3146    6.2147   23.4275 C   0  0  0  0  0  0  0  0  0  0  0  0
    7.8420    5.4852   24.0346 H   0  0  0  0  0  0  0  0  0  0  0  0
    7.2174    7.5524   23.8127 C   0  0  0  0  0  0  0  0  0  0  0  0
    7.6820    7.8696   24.7445 H   0  0  0  0  0  0  0  0  0  0  0  0
    6.5149    8.4651   23.0176 C   0  0  0  0  0  0  0  0  0  0  0  0
    6.4342    9.5030   23.3223 H   0  0  0  0  0  0  0  0  0  0  0  0
    5.9117    8.0333   21.8318 C   0  0  0  0  0  0  0  0  0  0  0  0
    5.3526    8.7306   21.2124 H   0  0  0  0  0  0  0  0  0  0  0  0
    6.0085    6.6935   21.4416 C   0  0  0  0  0  0  0  0  0  0  0  0
    5.5249    6.3593   20.5325 H   0  0  0  0  0  0  0  0  0  0  0  0
  1  2  1  0
  2  3  2  3
  3  4  1  0
  4  5  1  0
  5  6  2  0
  6  7  1  0
  6  8  1  0
  8  9  2  0
  9 10  1  0
  9 11  1  0
 11 12  1  0
 11 13  2  0
 13 14  1  0
  4 15  2  0
 15 16  1  0
 16 17  1  0
 16 18  1  0
 16 19  1  0
 19 20  1  0
 19 21  1  0
  2 22  1  0
 22 23  1  0
 22 24  1  0
 24 25  2  0
 24 26  1  0
 26 27  1  0
 26 28  1  0
 28 29  2  0
 29 30  1  0
 29 31  1  0
 31 32  1  0
 31 33  2  0
 33 34  1  0
 33 35  1  0
 35 36  1  0
 35 37  2  0
 37 38  1  0
 19  3  1  0
 37 28  1  0
 13  5  1  0
M  END
>  <cnnaffinity>  (1) 
-5.36607

>  <filename>  (1) 
S=C(NC=C1CCN=C1c1cccnc1)Nc1ccccc1

$$$$
