
     RDKit          3D

 30 32  0  0  0  0  0  0  0  0999 V2000
    4.9298    1.7743   17.0000 H   0  0  0  0  0  0  0  0  0  0  0  0
    5.4097    1.2871   17.8485 C   0  0  0  0  0  0  0  0  0  0  0  0
    6.5757    0.6662   17.6062 N   0  0  0  0  0  0  0  0  0  0  0  0
    7.1811    0.0627   18.6351 C   0  0  0  0  0  0  0  0  0  0  0  0
    8.1180   -0.4355   18.3925 H   0  0  0  0  0  0  0  0  0  0  0  0
    6.6623    0.0406   19.9343 C   0  0  0  0  0  0  0  0  0  0  0  0
    7.3445   -0.7116   21.0138 C   0  0  0  0  0  0  0  0  0  0  0  0
    8.0185   -2.2001   20.8430 S   0  0  0  0  0  0  0  0  0  0  0  0
    7.3800   -0.1195   22.2400 N   0  0  0  0  0  0  0  0  0  0  0  0
    7.5873   -0.8014   22.9611 H   0  0  0  0  0  0  0  0  0  0  0  0
    7.3989    1.2647   22.5746 C   0  0  0  0  0  0  0  0  0  0  0  0
    8.1076    2.1830   21.8129 C   0  0  0  0  0  0  0  0  0  0  0  0
    8.6857    1.8272   20.9628 H   0  0  0  0  0  0  0  0  0  0  0  0
    8.1543    3.5176   22.0584 N   0  0  0  0  0  0  0  0  0  0  0  0
    7.4652    3.9684   23.0831 C   0  0  0  0  0  0  0  0  0  0  0  0
    7.5049    5.0378   23.2714 H   0  0  0  0  0  0  0  0  0  0  0  0
    6.6859    3.1493   23.9592 C   0  0  0  0  0  0  0  0  0  0  0  0
    5.9530    3.6811   25.0660 C   0  0  0  0  0  0  0  0  0  0  0  0
    5.9933    4.7517   25.2634 H   0  0  0  0  0  0  0  0  0  0  0  0
    5.2040    2.8496   25.8644 C   0  0  0  0  0  0  0  0  0  0  0  0
    4.6457    3.2540   26.7071 H   0  0  0  0  0  0  0  0  0  0  0  0
    5.1440    1.4520   25.5984 C   0  0  0  0  0  0  0  0  0  0  0  0
    4.5442    0.8034   26.2336 H   0  0  0  0  0  0  0  0  0  0  0  0
    5.8437    0.9109   24.5416 C   0  0  0  0  0  0  0  0  0  0  0  0
    5.7889   -0.1533   24.3216 H   0  0  0  0  0  0  0  0  0  0  0  0
    6.6436    1.7438   23.7009 C   0  0  0  0  0  0  0  0  0  0  0  0
    5.4311    0.6740   20.1694 C   0  0  0  0  0  0  0  0  0  0  0  0
    4.9954    0.6494   21.1707 H   0  0  0  0  0  0  0  0  0  0  0  0
    4.8008    1.3095   19.1072 C   0  0  0  0  0  0  0  0  0  0  0  0
    3.8699    1.8416   19.2530 H   0  0  0  0  0  0  0  0  0  0  0  0
  1  2  1  0
  2  3  2  0
  3  4  1  0
  4  5  1  0
  4  6  2  0
  6  7  1  0
  7  8  2  0
  7  9  1  0
  9 10  1  0
  9 11  1  0
 11 12  2  0
 12 13  1  0
 12 14  1  0
 14 15  2  0
 15 16  1  0
 15 17  1  0
 17 18  2  0
 18 19  1  0
 18 20  1  0
 20 21  1  0
 20 22  2  0
 22 23  1  0
 22 24  1  0
 24 25  1  0
 24 26  2  0
  6 27  1  0
 27 28  1  0
 27 29  2  0
 29 30  1  0
 29  2  1  0
 26 11  1  0
 26 17  1  0
M  END
>  <cnnaffinity>  (1) 
-5.22123

>  <filename>  (1) 
S=C(Nc1cncc2ccccc12)c1cccnc1

$$$$
