
     RDKit          3D

 34 36  0  0  0  0  0  0  0  0999 V2000
    4.9485    1.8254   17.0178 H   0  0  0  0  0  0  0  0  0  0  0  0
    5.3921    1.2765   17.8459 C   0  0  0  0  0  0  0  0  0  0  0  0
    6.5375    0.6292   17.5818 N   0  0  0  0  0  0  0  0  0  0  0  0
    7.1161   -0.0351   18.5857 C   0  0  0  0  0  0  0  0  0  0  0  0
    8.0695   -0.5106   18.3669 H   0  0  0  0  0  0  0  0  0  0  0  0
    6.5705   -0.1244   19.8863 C   0  0  0  0  0  0  0  0  0  0  0  0
    7.2878   -0.8071   20.9377 N   0  0  0  0  0  0  0  0  0  0  0  0
    6.9335   -1.8907   21.7281 C   0  0  0  0  0  0  0  0  0  0  0  0
    5.7848   -2.6142   21.5239 N   0  0  0  0  0  0  0  0  0  0  0  0
    5.0222   -2.0590   21.2075 H   0  0  0  0  0  0  0  0  0  0  0  0
    5.4830   -3.7776   22.2076 C   0  0  0  0  0  0  0  0  0  0  0  0
    6.5431   -4.9191   22.6971 S   0  0  0  0  0  0  0  0  0  0  0  0
    4.1306   -3.8910   22.3266 N   0  0  0  0  0  0  0  0  0  0  0  0
    3.5744   -3.2084   21.8459 H   0  0  0  0  0  0  0  0  0  0  0  0
    3.4289   -4.6391   23.3101 C   0  0  0  0  0  0  0  0  0  0  0  0
    3.8777   -4.6867   24.6351 C   0  0  0  0  0  0  0  0  0  0  0  0
    4.7722   -4.1388   24.9110 H   0  0  0  0  0  0  0  0  0  0  0  0
    3.1788   -5.4437   25.5779 C   0  0  0  0  0  0  0  0  0  0  0  0
    3.5343   -5.4786   26.6036 H   0  0  0  0  0  0  0  0  0  0  0  0
    2.0289   -6.1518   25.2112 C   0  0  0  0  0  0  0  0  0  0  0  0
    1.4966   -6.7485   25.9497 H   0  0  0  0  0  0  0  0  0  0  0  0
    1.5660   -6.0717   23.8936 C   0  0  0  0  0  0  0  0  0  0  0  0
    0.6581   -6.5982   23.6072 H   0  0  0  0  0  0  0  0  0  0  0  0
    2.2562   -5.3075   22.9450 C   0  0  0  0  0  0  0  0  0  0  0  0
    1.9044   -5.2353   21.9209 H   0  0  0  0  0  0  0  0  0  0  0  0
    7.8014   -2.1513   22.6459 N   0  0  0  0  0  0  0  0  0  0  0  0
    8.7668   -1.2054   22.4307 N   0  0  0  0  0  0  0  0  0  0  0  0
    9.6321   -1.2025   22.9518 H   0  0  0  0  0  0  0  0  0  0  0  0
    8.5343   -0.3828   21.3993 C   0  0  0  0  0  0  0  0  0  0  0  0
    9.5223    0.8294   20.8334 S   0  0  0  0  0  0  0  0  0  0  0  0
    5.3863    0.5681   20.1543 C   0  0  0  0  0  0  0  0  0  0  0  0
    4.9707    0.5900   21.1637 H   0  0  0  0  0  0  0  0  0  0  0  0
    4.7889    1.2784   19.1046 C   0  0  0  0  0  0  0  0  0  0  0  0
    3.8852    1.8509   19.2611 H   0  0  0  0  0  0  0  0  0  0  0  0
  1  2  1  0
  2  3  2  0
  3  4  1  0
  4  5  1  0
  4  6  2  0
  6  7  1  0
  7  8  1  0
  8  9  1  0
  9 10  1  0
  9 11  1  0
 11 12  2  0
 11 13  1  0
 13 14  1  0
 13 15  1  0
 15 16  2  0
 16 17  1  0
 16 18  1  0
 18 19  1  0
 18 20  2  0
 20 21  1  0
 20 22  1  0
 22 23  1  0
 22 24  2  0
 24 25  1  0
  8 26  2  0
 26 27  1  0
 27 28  1  0
 27 29  1  0
 29 30  2  0
  6 31  1  0
 31 32  1  0
 31 33  2  0
 33 34  1  0
 33  2  1  0
 29  7  1  0
 24 15  1  0
M  END
>  <cnnaffinity>  (1) 
-5.41312

>  <filename>  (1) 
S=C(Nc1ccccc1)Nc1n[nH]c(=S)n1-c1cccnc1

$$$$
