
     RDKit          3D

 38 40  0  0  0  0  0  0  0  0999 V2000
    6.6574   -1.4414   21.5698 H   0  0  0  0  0  0  0  0  0  0  0  0
    7.3093   -0.7453   21.0246 C   0  0  0  0  0  0  0  0  0  0  0  0
    8.5627   -0.4976   21.4251 C   0  0  0  0  0  0  0  0  0  0  0  0
    9.3408   -1.0719   22.5449 C   0  0  0  0  0  0  0  0  0  0  0  0
    8.8163   -2.0753   23.3425 N   0  0  0  0  0  0  0  0  0  0  0  0
    7.8354   -2.2608   23.2594 H   0  0  0  0  0  0  0  0  0  0  0  0
    9.5070   -2.9135   24.1653 C   0  0  0  0  0  0  0  0  0  0  0  0
   11.0226   -3.5087   23.9785 S   0  0  0  0  0  0  0  0  0  0  0  0
    8.7617   -3.4206   25.1975 N   0  0  0  0  0  0  0  0  0  0  0  0
    9.3404   -4.0870   25.6848 H   0  0  0  0  0  0  0  0  0  0  0  0
    7.6382   -2.9103   25.8931 C   0  0  0  0  0  0  0  0  0  0  0  0
    7.3258   -1.5442   25.9046 C   0  0  0  0  0  0  0  0  0  0  0  0
    8.0200   -0.8473   25.4495 H   0  0  0  0  0  0  0  0  0  0  0  0
    6.1441   -1.1010   26.5111 C   0  0  0  0  0  0  0  0  0  0  0  0
    5.8842   -0.0439   26.4644 H   0  0  0  0  0  0  0  0  0  0  0  0
    5.2887   -2.0125   27.1418 C   0  0  0  0  0  0  0  0  0  0  0  0
    4.3578   -1.6696   27.5880 H   0  0  0  0  0  0  0  0  0  0  0  0
    5.6413   -3.3680   27.1993 C   0  0  0  0  0  0  0  0  0  0  0  0
    4.9853   -4.0825   27.6979 H   0  0  0  0  0  0  0  0  0  0  0  0
    6.8243   -3.8115   26.5967 C   0  0  0  0  0  0  0  0  0  0  0  0
    7.1146   -4.8567   26.6442 H   0  0  0  0  0  0  0  0  0  0  0  0
   10.4769   -0.5447   22.7570 N   0  0  0  0  0  0  0  0  0  0  0  0
   10.6940    0.5207   21.7810 C   0  0  0  0  0  0  0  0  0  0  0  0
   10.8362    1.4592   22.3313 H   0  0  0  0  0  0  0  0  0  0  0  0
   11.6200    0.3025   21.2364 H   0  0  0  0  0  0  0  0  0  0  0  0
    9.4560    0.5830   20.8575 C   0  0  0  0  0  0  0  0  0  0  0  0
    9.6649    0.3793   19.8047 H   0  0  0  0  0  0  0  0  0  0  0  0
    8.9565    1.5567   20.8821 H   0  0  0  0  0  0  0  0  0  0  0  0
    6.6368   -0.0338   19.9060 C   0  0  0  0  0  0  0  0  0  0  0  0
    7.1586    0.0494   18.5971 C   0  0  0  0  0  0  0  0  0  0  0  0
    8.1004   -0.4376   18.3557 H   0  0  0  0  0  0  0  0  0  0  0  0
    6.5589    0.6817   17.5795 N   0  0  0  0  0  0  0  0  0  0  0  0
    5.3983    1.3011   17.8314 C   0  0  0  0  0  0  0  0  0  0  0  0
    4.9278    1.8058   16.9869 H   0  0  0  0  0  0  0  0  0  0  0  0
    4.7947    1.3070   19.0944 C   0  0  0  0  0  0  0  0  0  0  0  0
    3.8666    1.8497   19.2401 H   0  0  0  0  0  0  0  0  0  0  0  0
    5.4189    0.6243   20.1401 C   0  0  0  0  0  0  0  0  0  0  0  0
    4.9917    0.6188   21.1420 H   0  0  0  0  0  0  0  0  0  0  0  0
  1  2  1  0
  2  3  2  3
  3  4  1  0
  4  5  1  0
  5  6  1  0
  5  7  1  0
  7  8  2  0
  7  9  1  0
  9 10  1  0
  9 11  1  0
 11 12  2  0
 12 13  1  0
 12 14  1  0
 14 15  1  0
 14 16  2  0
 16 17  1  0
 16 18  1  0
 18 19  1  0
 18 20  2  0
 20 21  1  0
  4 22  2  0
 22 23  1  0
 23 24  1  0
 23 25  1  0
 23 26  1  0
 26 27  1  0
 26 28  1  0
  2 29  1  0
 29 30  2  0
 30 31  1  0
 30 32  1  0
 32 33  2  0
 33 34  1  0
 33 35  1  0
 35 36  1  0
 35 37  2  0
 37 38  1  0
 26  3  1  0
 37 29  1  0
 20 11  1  0
M  END
>  <cnnaffinity>  (1) 
-5.48139

>  <filename>  (1) 
S=C(NC1=NCCC1=Cc1cccnc1)Nc1ccccc1

$$$$
