
     RDKit          3D

 33 35  0  0  0  0  0  0  0  0999 V2000
   10.3574   -1.2127   22.2776 H   0  0  0  0  0  0  0  0  0  0  0  0
    9.2974   -1.2227   22.0671 C   0  0  0  0  0  0  0  0  0  0  0  0
    8.3599   -1.8026   22.7441 N   0  0  0  0  0  0  0  0  0  0  0  0
    7.2482   -1.5991   21.9742 C   0  0  0  0  0  0  0  0  0  0  0  0
    6.0773   -2.2746   22.2334 N   0  0  0  0  0  0  0  0  0  0  0  0
    5.5290   -2.5079   21.4268 H   0  0  0  0  0  0  0  0  0  0  0  0
    5.7519   -3.1587   23.2478 C   0  0  0  0  0  0  0  0  0  0  0  0
    4.6381   -4.3344   22.8936 S   0  0  0  0  0  0  0  0  0  0  0  0
    6.3274   -2.9030   24.4322 N   0  0  0  0  0  0  0  0  0  0  0  0
    7.0071   -2.1532   24.4238 H   0  0  0  0  0  0  0  0  0  0  0  0
    5.9890   -3.4792   25.6924 C   0  0  0  0  0  0  0  0  0  0  0  0
    5.6409   -2.6206   26.7439 C   0  0  0  0  0  0  0  0  0  0  0  0
    5.5717   -1.5540   26.5482 H   0  0  0  0  0  0  0  0  0  0  0  0
    5.3524   -3.1450   28.0090 C   0  0  0  0  0  0  0  0  0  0  0  0
    5.0582   -2.4708   28.8147 H   0  0  0  0  0  0  0  0  0  0  0  0
    5.4669   -4.5182   28.2457 C   0  0  0  0  0  0  0  0  0  0  0  0
    5.2862   -4.9173   29.2454 H   0  0  0  0  0  0  0  0  0  0  0  0
    5.8304   -5.3718   27.1978 C   0  0  0  0  0  0  0  0  0  0  0  0
    5.9236   -6.4450   27.3669 H   0  0  0  0  0  0  0  0  0  0  0  0
    6.0763   -4.8577   25.9168 C   0  0  0  0  0  0  0  0  0  0  0  0
    6.3363   -5.4975   25.0798 H   0  0  0  0  0  0  0  0  0  0  0  0
    7.5534   -0.7930   20.8895 C   0  0  0  0  0  0  0  0  0  0  0  0
    6.7833   -0.1184   19.8498 C   0  0  0  0  0  0  0  0  0  0  0  0
    7.2951    0.0255   18.5418 C   0  0  0  0  0  0  0  0  0  0  0  0
    8.2418   -0.4317   18.2629 H   0  0  0  0  0  0  0  0  0  0  0  0
    6.6674    0.6857   17.5645 N   0  0  0  0  0  0  0  0  0  0  0  0
    5.4864    1.2522   17.8601 C   0  0  0  0  0  0  0  0  0  0  0  0
    5.0069    1.8132   17.0592 H   0  0  0  0  0  0  0  0  0  0  0  0
    4.8783    1.1576   19.1150 C   0  0  0  0  0  0  0  0  0  0  0  0
    3.9398    1.6719   19.2886 H   0  0  0  0  0  0  0  0  0  0  0  0
    5.5238    0.4416   20.1255 C   0  0  0  0  0  0  0  0  0  0  0  0
    5.0771    0.3418   21.1184 H   0  0  0  0  0  0  0  0  0  0  0  0
    8.9148   -0.6019   20.9460 O   0  0  0  0  0  0  0  0  0  0  0  0
  1  2  1  0
  2  3  2  0
  3  4  1  0
  4  5  1  0
  5  6  1  0
  5  7  1  0
  7  8  2  0
  7  9  1  0
  9 10  1  0
  9 11  1  0
 11 12  2  0
 12 13  1  0
 12 14  1  0
 14 15  1  0
 14 16  2  0
 16 17  1  0
 16 18  1  0
 18 19  1  0
 18 20  2  0
 20 21  1  0
  4 22  2  0
 22 23  1  0
 23 24  2  0
 24 25  1  0
 24 26  1  0
 26 27  2  0
 27 28  1  0
 27 29  1  0
 29 30  1  0
 29 31  2  0
 31 32  1  0
 22 33  1  0
 33  2  1  0
 20 11  1  0
 31 23  1  0
M  END
>  <cnnaffinity>  (1) 
-5.13805

>  <filename>  (1) 
S=C(Nc1ccccc1)Nc1ncoc1-c1cccnc1

$$$$
