
     RDKit          3D

 35 37  0  0  0  0  0  0  0  0999 V2000
    5.0075    1.8271   16.9680 H   0  0  0  0  0  0  0  0  0  0  0  0
    5.4599    1.2880   17.7978 C   0  0  0  0  0  0  0  0  0  0  0  0
    6.5853    0.6089   17.5238 N   0  0  0  0  0  0  0  0  0  0  0  0
    7.1671   -0.0602   18.5291 C   0  0  0  0  0  0  0  0  0  0  0  0
    8.0751   -0.6099   18.2893 H   0  0  0  0  0  0  0  0  0  0  0  0
    6.6695   -0.0778   19.8450 C   0  0  0  0  0  0  0  0  0  0  0  0
    7.2506   -0.8025   20.8611 O   0  0  0  0  0  0  0  0  0  0  0  0
    8.6198   -0.7815   21.0326 C   0  0  0  0  0  0  0  0  0  0  0  0
    9.5977    0.1636   20.6539 C   0  0  0  0  0  0  0  0  0  0  0  0
    9.4692    1.0441   20.0471 H   0  0  0  0  0  0  0  0  0  0  0  0
   10.7944   -0.1623   21.1325 N   0  0  0  0  0  0  0  0  0  0  0  0
   10.5907   -1.3169   21.7979 N   0  0  0  0  0  0  0  0  0  0  0  0
   11.2903   -1.7667   22.3821 H   0  0  0  0  0  0  0  0  0  0  0  0
    9.3048   -1.7084   21.7791 C   0  0  0  0  0  0  0  0  0  0  0  0
    8.8062   -2.8468   22.4239 N   0  0  0  0  0  0  0  0  0  0  0  0
    7.8393   -3.0581   22.2233 H   0  0  0  0  0  0  0  0  0  0  0  0
    9.2903   -3.4865   23.5148 C   0  0  0  0  0  0  0  0  0  0  0  0
   10.7961   -3.2977   24.1899 S   0  0  0  0  0  0  0  0  0  0  0  0
    8.4497   -4.3870   24.0763 N   0  0  0  0  0  0  0  0  0  0  0  0
    8.8502   -4.7218   24.9408 H   0  0  0  0  0  0  0  0  0  0  0  0
    7.0991   -4.7401   23.7772 C   0  0  0  0  0  0  0  0  0  0  0  0
    6.0320   -3.8490   23.9567 C   0  0  0  0  0  0  0  0  0  0  0  0
    6.2410   -2.8110   24.2083 H   0  0  0  0  0  0  0  0  0  0  0  0
    4.7179   -4.3233   23.8461 C   0  0  0  0  0  0  0  0  0  0  0  0
    3.8958   -3.6428   24.0356 H   0  0  0  0  0  0  0  0  0  0  0  0
    4.4644   -5.6522   23.4960 C   0  0  0  0  0  0  0  0  0  0  0  0
    3.4444   -6.0191   23.4344 H   0  0  0  0  0  0  0  0  0  0  0  0
    5.5361   -6.5137   23.2377 C   0  0  0  0  0  0  0  0  0  0  0  0
    5.3441   -7.5373   22.9240 H   0  0  0  0  0  0  0  0  0  0  0  0
    6.8470   -6.0595   23.3871 C   0  0  0  0  0  0  0  0  0  0  0  0
    7.6961   -6.7157   23.2092 H   0  0  0  0  0  0  0  0  0  0  0  0
    5.4797    0.6098   20.1174 C   0  0  0  0  0  0  0  0  0  0  0  0
    5.0587    0.5889   21.1223 H   0  0  0  0  0  0  0  0  0  0  0  0
    4.8731    1.3121   19.0696 C   0  0  0  0  0  0  0  0  0  0  0  0
    3.9607    1.8812   19.2280 H   0  0  0  0  0  0  0  0  0  0  0  0
  1  2  1  0
  2  3  2  0
  3  4  1  0
  4  5  1  0
  4  6  2  0
  6  7  1  0
  7  8  1  0
  8  9  1  0
  9 10  1  0
  9 11  2  0
 11 12  1  0
 12 13  1  0
 12 14  1  0
 14 15  1  0
 15 16  1  0
 15 17  1  0
 17 18  2  0
 17 19  1  0
 19 20  1  0
 19 21  1  0
 21 22  2  0
 22 23  1  0
 22 24  1  0
 24 25  1  0
 24 26  2  0
 26 27  1  0
 26 28  1  0
 28 29  1  0
 28 30  2  0
 30 31  1  0
  6 32  1  0
 32 33  1  0
 32 34  2  0
 34 35  1  0
 34  2  1  0
 14  8  2  0
 30 21  1  0
M  END
>  <cnnaffinity>  (1) 
-5.6469

>  <filename>  (1) 
S=C(Nc1ccccc1)Nc1[nH]ncc1Oc1cccnc1

$$$$
