
     RDKit          3D

 24 25  0  0  0  0  0  0  0  0999 V2000
    4.9327    1.7742   16.9991 H   0  0  0  0  0  0  0  0  0  0  0  0
    5.4100    1.2878   17.8489 C   0  0  0  0  0  0  0  0  0  0  0  0
    6.5751    0.6666   17.6089 N   0  0  0  0  0  0  0  0  0  0  0  0
    7.1835    0.0663   18.6387 C   0  0  0  0  0  0  0  0  0  0  0  0
    8.1176   -0.4364   18.3938 H   0  0  0  0  0  0  0  0  0  0  0  0
    6.6648    0.0554   19.9387 C   0  0  0  0  0  0  0  0  0  0  0  0
    7.3404   -0.6927   21.0258 C   0  0  0  0  0  0  0  0  0  0  0  0
    8.0424   -2.1631   20.8498 S   0  0  0  0  0  0  0  0  0  0  0  0
    7.2922   -0.1462   22.2698 N   0  0  0  0  0  0  0  0  0  0  0  0
    7.3752   -0.8435   22.9933 H   0  0  0  0  0  0  0  0  0  0  0  0
    7.3825    1.1907   22.6583 C   0  0  0  0  0  0  0  0  0  0  0  0
    7.9698    2.1457   21.8307 C   0  0  0  0  0  0  0  0  0  0  0  0
    8.4050    1.8687   20.8833 H   0  0  0  0  0  0  0  0  0  0  0  0
    7.9671    3.4637   22.2675 C   0  0  0  0  0  0  0  0  0  0  0  0
    8.4033    4.2345   21.6427 H   0  0  0  0  0  0  0  0  0  0  0  0
    7.4531    3.8758   23.4306 N   0  0  0  0  0  0  0  0  0  0  0  0
    6.9136    2.9362   24.2085 C   0  0  0  0  0  0  0  0  0  0  0  0
    6.5040    3.2887   25.1498 H   0  0  0  0  0  0  0  0  0  0  0  0
    6.8591    1.5848   23.8886 C   0  0  0  0  0  0  0  0  0  0  0  0
    6.4027    0.8754   24.5636 H   0  0  0  0  0  0  0  0  0  0  0  0
    5.4262    0.6772   20.1694 C   0  0  0  0  0  0  0  0  0  0  0  0
    4.9839    0.6461   21.1673 H   0  0  0  0  0  0  0  0  0  0  0  0
    4.7991    1.3130   19.1066 C   0  0  0  0  0  0  0  0  0  0  0  0
    3.8688    1.8425   19.2497 H   0  0  0  0  0  0  0  0  0  0  0  0
  1  2  1  0
  2  3  2  0
  3  4  1  0
  4  5  1  0
  4  6  2  0
  6  7  1  0
  7  8  2  0
  7  9  1  0
  9 10  1  0
  9 11  1  0
 11 12  2  0
 12 13  1  0
 12 14  1  0
 14 15  1  0
 14 16  2  0
 16 17  1  0
 17 18  1  0
 17 19  2  0
 19 20  1  0
  6 21  1  0
 21 22  1  0
 21 23  2  0
 23 24  1  0
 23  2  1  0
 19 11  1  0
M  END
>  <cnnaffinity>  (1) 
-4.4384

>  <filename>  (1) 
S=C(Nc1ccncc1)c1cccnc1

$$$$
