
     RDKit          3D

 25 26  0  0  0  0  0  0  0  0999 V2000
    4.9816    1.7837   17.0270 H   0  0  0  0  0  0  0  0  0  0  0  0
    5.4078    1.2512   17.8743 C   0  0  0  0  0  0  0  0  0  0  0  0
    6.5640    0.6053   17.6527 N   0  0  0  0  0  0  0  0  0  0  0  0
    7.1412    0.0178   18.6999 C   0  0  0  0  0  0  0  0  0  0  0  0
    8.0936   -0.4873   18.5258 H   0  0  0  0  0  0  0  0  0  0  0  0
    6.5991    0.0128   19.9911 C   0  0  0  0  0  0  0  0  0  0  0  0
    7.4266   -0.6533   21.0247 C   0  0  0  0  0  0  0  0  0  0  0  0
    9.0596   -0.4199   21.0704 S   0  0  0  0  0  0  0  0  0  0  0  0
    6.7255   -1.4634   21.8436 N   0  0  0  0  0  0  0  0  0  0  0  0
    5.7239   -1.3910   21.7566 H   0  0  0  0  0  0  0  0  0  0  0  0
    7.2147   -2.4981   22.6873 C   0  0  0  0  0  0  0  0  0  0  0  0
    6.6550   -2.6626   23.9567 C   0  0  0  0  0  0  0  0  0  0  0  0
    5.8368   -2.0177   24.2628 H   0  0  0  0  0  0  0  0  0  0  0  0
    7.1575   -3.6452   24.8188 C   0  0  0  0  0  0  0  0  0  0  0  0
    6.7491   -3.7427   25.8184 H   0  0  0  0  0  0  0  0  0  0  0  0
    8.1736   -4.5056   24.3997 C   0  0  0  0  0  0  0  0  0  0  0  0
    8.5966   -5.2419   25.0814 H   0  0  0  0  0  0  0  0  0  0  0  0
    8.6634   -4.3853   23.0985 C   0  0  0  0  0  0  0  0  0  0  0  0
    9.3738   -5.1066   22.7388 H   0  0  0  0  0  0  0  0  0  0  0  0
    8.2185   -3.3694   22.2513 C   0  0  0  0  0  0  0  0  0  0  0  0
    8.6426   -3.2219   21.2648 H   0  0  0  0  0  0  0  0  0  0  0  0
    5.3658    0.6486   20.2034 C   0  0  0  0  0  0  0  0  0  0  0  0
    4.8905    0.6761   21.1855 H   0  0  0  0  0  0  0  0  0  0  0  0
    4.7726    1.2959   19.1195 C   0  0  0  0  0  0  0  0  0  0  0  0
    3.8438    1.8438   19.2323 H   0  0  0  0  0  0  0  0  0  0  0  0
  1  2  1  0
  2  3  2  0
  3  4  1  0
  4  5  1  0
  4  6  2  0
  6  7  1  0
  7  8  2  0
  7  9  1  0
  9 10  1  0
  9 11  1  0
 11 12  2  0
 12 13  1  0
 12 14  1  0
 14 15  1  0
 14 16  2  0
 16 17  1  0
 16 18  1  0
 18 19  1  0
 18 20  2  0
 20 21  1  0
  6 22  1  0
 22 23  1  0
 22 24  2  0
 24 25  1  0
 24  2  1  0
 20 11  1  0
M  END
>  <cnnaffinity>  (1) 
-4.4486

>  <filename>  (1) 
S=C(Nc1ccccc1)c1cccnc1

$$$$
