
     RDKit          3D

 25 26  0  0  0  0  0  0  0  0999 V2000
    4.9412    1.7763   16.9996 H   0  0  0  0  0  0  0  0  0  0  0  0
    5.4059    1.2842   17.8543 C   0  0  0  0  0  0  0  0  0  0  0  0
    6.5686    0.6615   17.6151 N   0  0  0  0  0  0  0  0  0  0  0  0
    7.1543    0.0281   18.6340 C   0  0  0  0  0  0  0  0  0  0  0  0
    8.1130   -0.4288   18.4004 H   0  0  0  0  0  0  0  0  0  0  0  0
    6.6061   -0.0666   19.9247 C   0  0  0  0  0  0  0  0  0  0  0  0
    7.3935   -0.7553   20.9905 C   0  0  0  0  0  0  0  0  0  0  0  0
    9.0391   -0.7983   20.9615 S   0  0  0  0  0  0  0  0  0  0  0  0
    6.6349   -1.3022   21.9842 N   0  0  0  0  0  0  0  0  0  0  0  0
    5.7223   -1.6333   21.7139 H   0  0  0  0  0  0  0  0  0  0  0  0
    7.0287   -1.5757   23.3219 C   0  0  0  0  0  0  0  0  0  0  0  0
    7.7487   -0.5994   24.0237 C   0  0  0  0  0  0  0  0  0  0  0  0
    7.9777    0.3164   23.4922 H   0  0  0  0  0  0  0  0  0  0  0  0
    8.1692   -0.8164   25.3328 C   0  0  0  0  0  0  0  0  0  0  0  0
    8.7375   -0.0455   25.8393 H   0  0  0  0  0  0  0  0  0  0  0  0
    7.8605   -2.0152   25.9757 C   0  0  0  0  0  0  0  0  0  0  0  0
    8.1847   -2.1799   26.9989 H   0  0  0  0  0  0  0  0  0  0  0  0
    7.1316   -2.9962   25.3033 C   0  0  0  0  0  0  0  0  0  0  0  0
    6.8723   -3.9308   25.7903 H   0  0  0  0  0  0  0  0  0  0  0  0
    6.7123   -2.7783   23.9845 C   0  0  0  0  0  0  0  0  0  0  0  0
    5.8020   -4.0304   23.1891 Cl  0  0  0  0  0  0  0  0  0  0  0  0
    5.4067    0.6270   20.1720 C   0  0  0  0  0  0  0  0  0  0  0  0
    4.9775    0.6548   21.1752 H   0  0  0  0  0  0  0  0  0  0  0  0
    4.8021    1.3093   19.1153 C   0  0  0  0  0  0  0  0  0  0  0  0
    3.8738    1.8490   19.2521 H   0  0  0  0  0  0  0  0  0  0  0  0
  1  2  1  0
  2  3  2  0
  3  4  1  0
  4  5  1  0
  4  6  2  0
  6  7  1  0
  7  8  2  0
  7  9  1  0
  9 10  1  0
  9 11  1  0
 11 12  2  0
 12 13  1  0
 12 14  1  0
 14 15  1  0
 14 16  2  0
 16 17  1  0
 16 18  1  0
 18 19  1  0
 18 20  2  0
 20 21  1  0
  6 22  1  0
 22 23  1  0
 22 24  2  0
 24 25  1  0
 24  2  1  0
 20 11  1  0
M  END
>  <cnnaffinity>  (1) 
-4.83478

>  <filename>  (1) 
S=C(Nc1ccccc1Cl)c1cccnc1

$$$$
