
     RDKit          3D

 34 36  0  0  0  0  0  0  0  0999 V2000
    4.9718    2.0028   16.8447 H   0  0  0  0  0  0  0  0  0  0  0  0
    5.3442    1.3845   17.6604 C   0  0  0  0  0  0  0  0  0  0  0  0
    6.4700    0.6886   17.4231 N   0  0  0  0  0  0  0  0  0  0  0  0
    6.9794   -0.0411   18.4229 C   0  0  0  0  0  0  0  0  0  0  0  0
    7.8774   -0.6170   18.1971 H   0  0  0  0  0  0  0  0  0  0  0  0
    6.3987   -0.0992   19.7088 C   0  0  0  0  0  0  0  0  0  0  0  0
    7.0883   -0.6796   20.8224 N   0  0  0  0  0  0  0  0  0  0  0  0
    8.2632   -0.1299   21.3242 C   0  0  0  0  0  0  0  0  0  0  0  0
    8.6479    0.7987   20.9215 H   0  0  0  0  0  0  0  0  0  0  0  0
    8.7465   -0.9617   22.2762 C   0  0  0  0  0  0  0  0  0  0  0  0
   10.1581   -1.0623   22.7678 C   0  0  0  0  0  0  0  0  0  0  0  0
   10.2125   -1.7967   23.5868 H   0  0  0  0  0  0  0  0  0  0  0  0
   11.0320   -1.5521   21.5879 C   0  0  0  0  0  0  0  0  0  0  0  0
   10.9579   -0.8244   20.7680 H   0  0  0  0  0  0  0  0  0  0  0  0
   10.6164   -2.4900   21.2099 H   0  0  0  0  0  0  0  0  0  0  0  0
   12.4919   -1.7024   21.9927 C   0  0  0  0  0  0  0  0  0  0  0  0
   12.5730   -2.5670   22.6582 H   0  0  0  0  0  0  0  0  0  0  0  0
   13.1002   -1.9615   21.1184 H   0  0  0  0  0  0  0  0  0  0  0  0
   13.0545   -0.5015   22.6195 N   0  0  0  0  0  0  0  0  0  0  0  0
   13.2822    0.1639   21.8879 H   0  0  0  0  0  0  0  0  0  0  0  0
   12.2221    0.1695   23.6292 C   0  0  0  0  0  0  0  0  0  0  0  0
   12.6284    1.1781   23.7651 H   0  0  0  0  0  0  0  0  0  0  0  0
   12.3607   -0.3160   24.6038 H   0  0  0  0  0  0  0  0  0  0  0  0
   10.7186    0.2713   23.2941 C   0  0  0  0  0  0  0  0  0  0  0  0
   10.5966    1.0593   22.5399 H   0  0  0  0  0  0  0  0  0  0  0  0
   10.1467    0.5831   24.1778 H   0  0  0  0  0  0  0  0  0  0  0  0
    7.7838   -1.9593   22.4143 N   0  0  0  0  0  0  0  0  0  0  0  0
    7.7667   -2.7438   23.0416 H   0  0  0  0  0  0  0  0  0  0  0  0
    6.7645   -1.8236   21.5209 C   0  0  0  0  0  0  0  0  0  0  0  0
    5.4926   -2.8892   21.3731 S   0  0  0  0  0  0  0  0  0  0  0  0
    5.1720    0.5347   19.9106 C   0  0  0  0  0  0  0  0  0  0  0  0
    4.6676    0.4217   20.8713 H   0  0  0  0  0  0  0  0  0  0  0  0
    4.6525    1.3195   18.8768 C   0  0  0  0  0  0  0  0  0  0  0  0
    3.7478    1.9027   19.0128 H   0  0  0  0  0  0  0  0  0  0  0  0
  1  2  1  0
  2  3  2  0
  3  4  1  0
  4  5  1  0
  4  6  2  0
  6  7  1  0
  7  8  1  0
  8  9  1  0
  8 10  2  0
 10 11  1  0
 11 12  1  0
 11 13  1  0
 13 14  1  0
 13 15  1  0
 13 16  1  0
 16 17  1  0
 16 18  1  0
 16 19  1  0
 19 20  1  0
 19 21  1  0
 21 22  1  0
 21 23  1  0
 21 24  1  0
 24 25  1  0
 24 26  1  0
 10 27  1  0
 27 28  1  0
 27 29  1  0
 29 30  2  0
  6 31  1  0
 31 32  1  0
 31 33  2  0
 33 34  1  0
 33  2  1  0
 29  7  1  0
 24 11  1  0
M  END
>  <cnnaffinity>  (1) 
-4.92261

>  <filename>  (1) 
S=c1[nH]c(C2CCNCC2)cn1-c1cccnc1

$$$$
