
     RDKit          3D

 33 35  0  0  0  0  0  0  0  0999 V2000
    7.5020    1.0960   22.2952 H   0  0  0  0  0  0  0  0  0  0  0  0
    7.6821    0.0459   22.1557 C   0  0  0  0  0  0  0  0  0  0  0  0
    7.3234   -0.5806   21.0215 C   0  0  0  0  0  0  0  0  0  0  0  0
    6.6491    0.0740   19.8962 C   0  0  0  0  0  0  0  0  0  0  0  0
    7.1892    0.0307   18.6017 C   0  0  0  0  0  0  0  0  0  0  0  0
    8.1340   -0.4830   18.4190 H   0  0  0  0  0  0  0  0  0  0  0  0
    6.6146    0.6114   17.5430 N   0  0  0  0  0  0  0  0  0  0  0  0
    5.4536    1.2558   17.7390 C   0  0  0  0  0  0  0  0  0  0  0  0
    5.0107    1.7198   16.8592 H   0  0  0  0  0  0  0  0  0  0  0  0
    4.8237    1.3414   18.9852 C   0  0  0  0  0  0  0  0  0  0  0  0
    3.8816    1.8648   19.0775 H   0  0  0  0  0  0  0  0  0  0  0  0
    5.4424    0.7629   20.0888 C   0  0  0  0  0  0  0  0  0  0  0  0
    5.0012    0.8139   21.0842 H   0  0  0  0  0  0  0  0  0  0  0  0
    7.5441   -1.9459   20.8929 N   0  0  0  0  0  0  0  0  0  0  0  0
    7.1883   -2.4785   20.1155 H   0  0  0  0  0  0  0  0  0  0  0  0
    8.0262   -2.7278   21.8911 C   0  0  0  0  0  0  0  0  0  0  0  0
    8.0766   -4.3722   21.7606 S   0  0  0  0  0  0  0  0  0  0  0  0
    8.4766   -2.0762   22.9713 N   0  0  0  0  0  0  0  0  0  0  0  0
    8.8568   -2.6628   23.6900 H   0  0  0  0  0  0  0  0  0  0  0  0
    8.3742   -0.6701   23.2587 C   0  0  1  0  0  0  0  0  0  0  0  0
    7.8398   -0.5546   24.2162 H   0  0  0  0  0  0  0  0  0  0  0  0
    9.7236   -0.2600   23.5064 O   0  0  0  0  0  0  0  0  0  0  0  0
    9.9721    1.0624   23.7877 C   0  0  0  0  0  0  0  0  0  0  0  0
   11.2650    1.5339   23.5212 C   0  0  0  0  0  0  0  0  0  0  0  0
   11.9829    0.8361   23.1053 H   0  0  0  0  0  0  0  0  0  0  0  0
   11.5928    2.8656   23.7893 C   0  0  0  0  0  0  0  0  0  0  0  0
   12.5937    3.2287   23.5629 H   0  0  0  0  0  0  0  0  0  0  0  0
   10.6478    3.7415   24.3399 C   0  0  0  0  0  0  0  0  0  0  0  0
   10.8796    4.7800   24.5563 H   0  0  0  0  0  0  0  0  0  0  0  0
    9.3790    3.2407   24.6341 C   0  0  0  0  0  0  0  0  0  0  0  0
    8.1876    4.2836   25.3516 Cl  0  0  0  0  0  0  0  0  0  0  0  0
    9.0247    1.9184   24.3605 C   0  0  0  0  0  0  0  0  0  0  0  0
    8.0271    1.5619   24.5805 H   0  0  0  0  0  0  0  0  0  0  0  0
  1  2  1  0
  2  3  2  0
  3  4  1  0
  4  5  2  0
  5  6  1  0
  5  7  1  0
  7  8  2  0
  8  9  1  0
  8 10  1  0
 10 11  1  0
 10 12  2  0
 12 13  1  0
  3 14  1  0
 14 15  1  0
 14 16  1  0
 16 17  2  0
 16 18  1  0
 18 19  1  0
 18 20  1  0
 20 21  1  1
 20 22  1  0
 22 23  1  0
 23 24  2  0
 24 25  1  0
 24 26  1  0
 26 27  1  0
 26 28  2  0
 28 29  1  0
 28 30  1  0
 30 31  1  0
 30 32  2  0
 32 33  1  0
 20  2  1  0
 32 23  1  0
 12  4  1  0
M  END
>  <cnnaffinity>  (1) 
-5.47496

>  <filename>  (1) 
S=C1NC(c2cccnc2)=C[C@H](Oc2cccc(Cl)c2)N1

$$$$
