
     RDKit          3D

 38 40  0  0  0  0  0  0  0  0999 V2000
    4.9883    1.9007   17.0038 H   0  0  0  0  0  0  0  0  0  0  0  0
    5.4464    1.3212   17.8072 C   0  0  0  0  0  0  0  0  0  0  0  0
    6.5990    0.7029   17.5021 N   0  0  0  0  0  0  0  0  0  0  0  0
    7.2088   -0.0012   18.4629 C   0  0  0  0  0  0  0  0  0  0  0  0
    8.1534   -0.4818   18.1967 H   0  0  0  0  0  0  0  0  0  0  0  0
    6.6958   -0.1421   19.7645 C   0  0  0  0  0  0  0  0  0  0  0  0
    7.4250   -0.8754   20.7525 N   0  0  0  0  0  0  0  0  0  0  0  0
    8.7310   -0.5596   21.1231 C   0  0  0  0  0  0  0  0  0  0  0  0
    9.2235    0.2876   20.6706 H   0  0  0  0  0  0  0  0  0  0  0  0
    9.1123   -1.4165   22.1038 C   0  0  0  0  0  0  0  0  0  0  0  0
   10.3619   -1.5221   22.9139 C   0  0  0  0  0  0  0  0  0  0  0  0
   10.4160   -2.5350   23.3323 H   0  0  0  0  0  0  0  0  0  0  0  0
   11.2219   -1.4409   22.2363 H   0  0  0  0  0  0  0  0  0  0  0  0
   10.5116   -0.4847   24.0620 C   0  0  0  0  0  0  0  0  0  0  0  0
   11.5020   -0.6393   24.5118 H   0  0  0  0  0  0  0  0  0  0  0  0
    9.4783   -0.7067   25.1911 C   0  0  0  0  0  0  0  0  0  0  0  0
    8.4635   -0.6552   24.7671 H   0  0  0  0  0  0  0  0  0  0  0  0
    9.5861   -1.7154   25.6118 H   0  0  0  0  0  0  0  0  0  0  0  0
    9.6077    0.3553   26.2950 C   0  0  0  0  0  0  0  0  0  0  0  0
    8.8882    0.1718   27.1013 H   0  0  0  0  0  0  0  0  0  0  0  0
   10.6101    0.2960   26.7515 H   0  0  0  0  0  0  0  0  0  0  0  0
    9.4450    1.7535   25.6839 C   0  0  0  0  0  0  0  0  0  0  0  0
    9.3704    2.5307   26.4483 H   0  0  0  0  0  0  0  0  0  0  0  0
    8.4958    1.7934   25.1271 H   0  0  0  0  0  0  0  0  0  0  0  0
   10.5974    1.9983   24.7006 C   0  0  0  0  0  0  0  0  0  0  0  0
   10.5878    3.0229   24.3097 H   0  0  0  0  0  0  0  0  0  0  0  0
   11.5521    1.8805   25.2393 H   0  0  0  0  0  0  0  0  0  0  0  0
   10.5053    0.9769   23.5535 C   0  0  0  0  0  0  0  0  0  0  0  0
   11.3229    1.1233   22.8359 H   0  0  0  0  0  0  0  0  0  0  0  0
    9.5669    1.1591   23.0061 H   0  0  0  0  0  0  0  0  0  0  0  0
    8.0254   -2.2588   22.2874 N   0  0  0  0  0  0  0  0  0  0  0  0
    7.8979   -2.9510   23.0060 H   0  0  0  0  0  0  0  0  0  0  0  0
    6.9712   -1.9517   21.4858 C   0  0  0  0  0  0  0  0  0  0  0  0
    5.5181   -2.7701   21.4565 S   0  0  0  0  0  0  0  0  0  0  0  0
    5.4795    0.4824   20.0722 C   0  0  0  0  0  0  0  0  0  0  0  0
    5.0534    0.3885   21.0721 H   0  0  0  0  0  0  0  0  0  0  0  0
    4.8550    1.2405   19.0720 C   0  0  0  0  0  0  0  0  0  0  0  0
    3.9331    1.7827   19.2590 H   0  0  0  0  0  0  0  0  0  0  0  0
  1  2  1  0
  2  3  2  0
  3  4  1  0
  4  5  1  0
  4  6  2  0
  6  7  1  0
  7  8  1  0
  8  9  1  0
  8 10  2  0
 10 11  1  0
 11 12  1  0
 11 13  1  0
 11 14  1  0
 14 15  1  0
 14 16  1  0
 16 17  1  0
 16 18  1  0
 16 19  1  0
 19 20  1  0
 19 21  1  0
 19 22  1  0
 22 23  1  0
 22 24  1  0
 22 25  1  0
 25 26  1  0
 25 27  1  0
 25 28  1  0
 28 29  1  0
 28 30  1  0
 10 31  1  0
 31 32  1  0
 31 33  1  0
 33 34  2  0
  6 35  1  0
 35 36  1  0
 35 37  2  0
 37 38  1  0
 37  2  1  0
 33  7  1  0
 28 14  1  0
M  END
>  <cnnaffinity>  (1) 
-5.57759

>  <filename>  (1) 
S=c1[nH]c(CC2CCCCC2)cn1-c1cccnc1

$$$$
