
     RDKit          3D

 33 35  0  0  0  0  0  0  0  0999 V2000
    4.9286    1.7920   16.9986 H   0  0  0  0  0  0  0  0  0  0  0  0
    5.3975    1.2895   17.8397 C   0  0  0  0  0  0  0  0  0  0  0  0
    6.5542    0.6628   17.5739 N   0  0  0  0  0  0  0  0  0  0  0  0
    7.1737    0.0441   18.5845 C   0  0  0  0  0  0  0  0  0  0  0  0
    8.1270   -0.4312   18.3602 H   0  0  0  0  0  0  0  0  0  0  0  0
    6.6557   -0.0036   19.8953 C   0  0  0  0  0  0  0  0  0  0  0  0
    7.3403   -0.6843   20.9447 N   0  0  0  0  0  0  0  0  0  0  0  0
    6.7410   -1.5890   21.8166 C   0  0  0  0  0  0  0  0  0  0  0  0
    5.6927   -1.8307   21.7458 H   0  0  0  0  0  0  0  0  0  0  0  0
    7.6810   -2.0313   22.6801 C   0  0  0  0  0  0  0  0  0  0  0  0
    7.5172   -2.9565   23.8499 C   0  0  0  0  0  0  0  0  0  0  0  0
    7.2978   -3.9707   23.5061 H   0  0  0  0  0  0  0  0  0  0  0  0
    8.4356   -2.9989   24.4498 H   0  0  0  0  0  0  0  0  0  0  0  0
    6.3968   -2.6541   24.6729 O   0  0  0  0  0  0  0  0  0  0  0  0
    6.3657   -1.4999   25.4120 C   0  0  0  0  0  0  0  0  0  0  0  0
    7.4465   -0.6291   25.6048 C   0  0  0  0  0  0  0  0  0  0  0  0
    8.3979   -0.8152   25.1210 H   0  0  0  0  0  0  0  0  0  0  0  0
    7.2940    0.4843   26.4422 C   0  0  0  0  0  0  0  0  0  0  0  0
    8.1398    1.1496   26.6032 H   0  0  0  0  0  0  0  0  0  0  0  0
    6.0790    0.7388   27.0774 C   0  0  0  0  0  0  0  0  0  0  0  0
    5.9697    1.6003   27.7301 H   0  0  0  0  0  0  0  0  0  0  0  0
    4.9969   -0.1266   26.8695 C   0  0  0  0  0  0  0  0  0  0  0  0
    4.0462    0.0583   27.3650 H   0  0  0  0  0  0  0  0  0  0  0  0
    5.1371   -1.2368   26.0386 C   0  0  0  0  0  0  0  0  0  0  0  0
    4.3213   -1.9306   25.8601 H   0  0  0  0  0  0  0  0  0  0  0  0
    8.8545   -1.3943   22.3129 N   0  0  0  0  0  0  0  0  0  0  0  0
    9.7827   -1.4165   22.7076 H   0  0  0  0  0  0  0  0  0  0  0  0
    8.6635   -0.5158   21.2977 C   0  0  0  0  0  0  0  0  0  0  0  0
    9.8239    0.5340   20.7500 S   0  0  0  0  0  0  0  0  0  0  0  0
    5.4441    0.6416   20.1600 C   0  0  0  0  0  0  0  0  0  0  0  0
    5.0392    0.6261   21.1742 H   0  0  0  0  0  0  0  0  0  0  0  0
    4.8090    1.3080   19.1087 C   0  0  0  0  0  0  0  0  0  0  0  0
    3.8794    1.8412   19.2611 H   0  0  0  0  0  0  0  0  0  0  0  0
  1  2  1  0
  2  3  2  0
  3  4  1  0
  4  5  1  0
  4  6  2  0
  6  7  1  0
  7  8  1  0
  8  9  1  0
  8 10  2  0
 10 11  1  0
 11 12  1  0
 11 13  1  0
 11 14  1  0
 14 15  1  0
 15 16  2  0
 16 17  1  0
 16 18  1  0
 18 19  1  0
 18 20  2  0
 20 21  1  0
 20 22  1  0
 22 23  1  0
 22 24  2  0
 24 25  1  0
 10 26  1  0
 26 27  1  0
 26 28  1  0
 28 29  2  0
  6 30  1  0
 30 31  1  0
 30 32  2  0
 32 33  1  0
 32  2  1  0
 28  7  1  0
 24 15  1  0
M  END
>  <cnnaffinity>  (1) 
-5.22975

>  <filename>  (1) 
S=c1[nH]c(COc2ccccc2)cn1-c1cccnc1

$$$$
