
     RDKit          3D

 35 38  0  0  0  0  0  0  0  0999 V2000
    4.9174    1.8069   16.9643 H   0  0  0  0  0  0  0  0  0  0  0  0
    5.3905    1.3074   17.8100 C   0  0  0  0  0  0  0  0  0  0  0  0
    6.5548    0.6877   17.5540 N   0  0  0  0  0  0  0  0  0  0  0  0
    7.1693    0.0750   18.5736 C   0  0  0  0  0  0  0  0  0  0  0  0
    8.1043   -0.4190   18.3174 H   0  0  0  0  0  0  0  0  0  0  0  0
    6.6687    0.0237   19.8890 C   0  0  0  0  0  0  0  0  0  0  0  0
    7.3434   -0.6898   20.9749 C   0  0  0  0  0  0  0  0  0  0  0  0
    6.8288   -1.2052   22.1113 C   0  0  0  0  0  0  0  0  0  0  0  0
    5.8170   -1.3066   22.4311 H   0  0  0  0  0  0  0  0  0  0  0  0
    7.8469   -1.7898   22.8442 N   0  0  0  0  0  0  0  0  0  0  0  0
    7.6823   -2.4042   24.1282 C   0  0  0  0  0  0  0  0  0  0  0  0
    8.2690   -1.8051   25.2188 C   0  0  0  0  0  0  0  0  0  0  0  0
    8.8595   -0.9045   25.0671 H   0  0  0  0  0  0  0  0  0  0  0  0
    8.1039   -2.3596   26.5159 C   0  0  0  0  0  0  0  0  0  0  0  0
    8.5816   -1.8691   27.3604 H   0  0  0  0  0  0  0  0  0  0  0  0
    7.3640   -3.5053   26.6920 C   0  0  0  0  0  0  0  0  0  0  0  0
    7.2422   -3.9445   27.6784 H   0  0  0  0  0  0  0  0  0  0  0  0
    6.7464   -4.1583   25.5808 C   0  0  0  0  0  0  0  0  0  0  0  0
    5.9783   -5.3528   25.7488 C   0  0  0  0  0  0  0  0  0  0  0  0
    5.8709   -5.7533   26.7541 H   0  0  0  0  0  0  0  0  0  0  0  0
    5.3983   -5.9804   24.6741 C   0  0  0  0  0  0  0  0  0  0  0  0
    4.8185   -6.8896   24.8191 H   0  0  0  0  0  0  0  0  0  0  0  0
    5.5586   -5.4496   23.3647 C   0  0  0  0  0  0  0  0  0  0  0  0
    5.1002   -5.9617   22.5223 H   0  0  0  0  0  0  0  0  0  0  0  0
    6.2931   -4.3017   23.1659 C   0  0  0  0  0  0  0  0  0  0  0  0
    6.4323   -3.8940   22.1674 H   0  0  0  0  0  0  0  0  0  0  0  0
    6.9048   -3.6125   24.2669 C   0  0  0  0  0  0  0  0  0  0  0  0
    9.0384   -1.6376   22.1767 C   0  0  0  0  0  0  0  0  0  0  0  0
   10.5774   -2.0990   22.5866 S   0  0  0  0  0  0  0  0  0  0  0  0
    8.6934   -0.9957   21.0258 N   0  0  0  0  0  0  0  0  0  0  0  0
    9.4339   -0.7064   20.4116 H   0  0  0  0  0  0  0  0  0  0  0  0
    5.4413    0.6699   20.1277 C   0  0  0  0  0  0  0  0  0  0  0  0
    5.0123    0.6671   21.1302 H   0  0  0  0  0  0  0  0  0  0  0  0
    4.7971    1.3236   19.0773 C   0  0  0  0  0  0  0  0  0  0  0  0
    3.8620    1.8532   19.2263 H   0  0  0  0  0  0  0  0  0  0  0  0
  1  2  1  0
  2  3  2  0
  3  4  1  0
  4  5  1  0
  4  6  2  0
  6  7  1  0
  7  8  2  0
  8  9  1  0
  8 10  1  0
 10 11  1  0
 11 12  2  0
 12 13  1  0
 12 14  1  0
 14 15  1  0
 14 16  2  0
 16 17  1  0
 16 18  1  0
 18 19  2  0
 19 20  1  0
 19 21  1  0
 21 22  1  0
 21 23  2  0
 23 24  1  0
 23 25  1  0
 25 26  1  0
 25 27  2  0
 10 28  1  0
 28 29  2  0
 28 30  1  0
 30 31  1  0
  6 32  1  0
 32 33  1  0
 32 34  2  0
 34 35  1  0
 34  2  1  0
 30  7  1  0
 27 11  1  0
 27 18  1  0
M  END
>  <cnnaffinity>  (1) 
-5.71264

>  <filename>  (1) 
S=c1[nH]c(-c2cccnc2)cn1-c1cccc2ccccc12

$$$$
