
     RDKit          3D

 42 45  0  0  0  0  0  0  0  0999 V2000
    4.9193    1.8225   16.9407 H   0  0  0  0  0  0  0  0  0  0  0  0
    5.3908    1.3179   17.7796 C   0  0  0  0  0  0  0  0  0  0  0  0
    6.5445    0.6825   17.5143 N   0  0  0  0  0  0  0  0  0  0  0  0
    7.1690    0.0692   18.5285 C   0  0  0  0  0  0  0  0  0  0  0  0
    8.1106   -0.4319   18.3029 H   0  0  0  0  0  0  0  0  0  0  0  0
    6.6606    0.0431   19.8421 C   0  0  0  0  0  0  0  0  0  0  0  0
    7.3340   -0.6485   20.8978 N   0  0  0  0  0  0  0  0  0  0  0  0
    6.7340   -1.6117   21.6974 C   0  0  0  0  0  0  0  0  0  0  0  0
    5.6938   -1.8587   21.5528 H   0  0  0  0  0  0  0  0  0  0  0  0
    7.6491   -2.0647   22.5856 C   0  0  0  0  0  0  0  0  0  0  0  0
    7.5190   -2.9801   23.7253 C   0  0  0  0  0  0  0  0  0  0  0  0
    8.6285   -3.6240   24.3084 C   0  0  0  0  0  0  0  0  0  0  0  0
    9.6027   -3.5741   23.8308 H   0  0  0  0  0  0  0  0  0  0  0  0
    8.4857   -4.3534   25.4833 C   0  0  0  0  0  0  0  0  0  0  0  0
    9.3406   -4.8391   25.9431 H   0  0  0  0  0  0  0  0  0  0  0  0
    7.2345   -4.4620   26.1219 C   0  0  0  0  0  0  0  0  0  0  0  0
    7.1869   -5.1015   27.3833 N   0  0  0  0  0  0  0  0  0  0  0  0
    5.9553   -5.0362   28.1906 C   0  0  0  0  0  0  0  0  0  0  0  0
    5.1345   -5.5950   27.7053 H   0  0  0  0  0  0  0  0  0  0  0  0
    5.6468   -3.9923   28.3176 H   0  0  0  0  0  0  0  0  0  0  0  0
    6.1747   -5.6343   29.5970 C   0  0  0  0  0  0  0  0  0  0  0  0
    6.7803   -4.9276   30.1835 H   0  0  0  0  0  0  0  0  0  0  0  0
    5.2107   -5.7689   30.0975 H   0  0  0  0  0  0  0  0  0  0  0  0
    6.7713   -6.9265   29.5950 O   0  0  0  0  0  0  0  0  0  0  0  0
    7.9289   -6.9589   28.7778 C   0  0  0  0  0  0  0  0  0  0  0  0
    8.3105   -7.9847   28.7967 H   0  0  0  0  0  0  0  0  0  0  0  0
    8.6922   -6.2777   29.1682 H   0  0  0  0  0  0  0  0  0  0  0  0
    7.6421   -6.4971   27.3614 C   0  0  0  0  0  0  0  0  0  0  0  0
    8.5475   -6.6137   26.7631 H   0  0  0  0  0  0  0  0  0  0  0  0
    6.8549   -7.1164   26.9102 H   0  0  0  0  0  0  0  0  0  0  0  0
    6.1067   -3.9329   25.4729 C   0  0  0  0  0  0  0  0  0  0  0  0
    5.1283   -4.1158   25.8987 H   0  0  0  0  0  0  0  0  0  0  0  0
    6.2549   -3.2003   24.2965 C   0  0  0  0  0  0  0  0  0  0  0  0
    5.3697   -2.7784   23.8324 H   0  0  0  0  0  0  0  0  0  0  0  0
    8.8155   -1.3643   22.2965 N   0  0  0  0  0  0  0  0  0  0  0  0
    9.6776   -1.3408   22.8129 H   0  0  0  0  0  0  0  0  0  0  0  0
    8.6277   -0.4345   21.3263 C   0  0  0  0  0  0  0  0  0  0  0  0
    9.7316    0.7132   20.8656 S   0  0  0  0  0  0  0  0  0  0  0  0
    5.4484    0.6912   20.1011 C   0  0  0  0  0  0  0  0  0  0  0  0
    5.0379    0.6805   21.1116 H   0  0  0  0  0  0  0  0  0  0  0  0
    4.8034    1.3456   19.0491 C   0  0  0  0  0  0  0  0  0  0  0  0
    3.8673    1.8721   19.2049 H   0  0  0  0  0  0  0  0  0  0  0  0
  1  2  1  0
  2  3  2  0
  3  4  1  0
  4  5  1  0
  4  6  2  0
  6  7  1  0
  7  8  1  0
  8  9  1  0
  8 10  2  0
 10 11  1  0
 11 12  2  0
 12 13  1  0
 12 14  1  0
 14 15  1  0
 14 16  2  0
 16 17  1  0
 17 18  1  0
 18 19  1  0
 18 20  1  0
 18 21  1  0
 21 22  1  0
 21 23  1  0
 21 24  1  0
 24 25  1  0
 25 26  1  0
 25 27  1  0
 25 28  1  0
 28 29  1  0
 28 30  1  0
 16 31  1  0
 31 32  1  0
 31 33  2  0
 33 34  1  0
 10 35  1  0
 35 36  1  0
 35 37  1  0
 37 38  2  0
  6 39  1  0
 39 40  1  0
 39 41  2  0
 41 42  1  0
 41  2  1  0
 37  7  1  0
 33 11  1  0
 28 17  1  0
M  END
>  <cnnaffinity>  (1) 
-5.34572

>  <filename>  (1) 
S=c1[nH]c(-c2ccc(N3CCOCC3)cc2)cn1-c1cccnc1

$$$$
