
     RDKit          3D

 30 32  0  0  0  0  0  0  0  0999 V2000
    4.9194    1.8084   16.9636 H   0  0  0  0  0  0  0  0  0  0  0  0
    5.3925    1.3080   17.8098 C   0  0  0  0  0  0  0  0  0  0  0  0
    6.5567    0.6874   17.5580 N   0  0  0  0  0  0  0  0  0  0  0  0
    7.1721    0.0725   18.5749 C   0  0  0  0  0  0  0  0  0  0  0  0
    8.1059   -0.4206   18.3144 H   0  0  0  0  0  0  0  0  0  0  0  0
    6.6704    0.0202   19.8874 C   0  0  0  0  0  0  0  0  0  0  0  0
    7.3442   -0.7064   20.9635 C   0  0  0  0  0  0  0  0  0  0  0  0
    6.8176   -1.2370   22.0824 C   0  0  0  0  0  0  0  0  0  0  0  0
    5.7991   -1.2884   22.3979 H   0  0  0  0  0  0  0  0  0  0  0  0
    7.8296   -1.8290   22.8144 N   0  0  0  0  0  0  0  0  0  0  0  0
    7.6252   -2.3861   24.1466 C   0  0  1  0  0  0  0  0  0  0  0  0
    6.5469   -2.6050   24.1958 H   0  0  0  0  0  0  0  0  0  0  0  0
    8.3363   -3.5861   24.2782 O   0  0  0  0  0  0  0  0  0  0  0  0
    8.9897   -3.6671   25.5417 C   0  0  0  0  0  0  0  0  0  0  0  0
    8.6853   -4.6127   26.0063 H   0  0  0  0  0  0  0  0  0  0  0  0
   10.0737   -3.7042   25.3680 H   0  0  0  0  0  0  0  0  0  0  0  0
    8.5607   -2.4317   26.3586 C   0  0  0  0  0  0  0  0  0  0  0  0
    9.3865   -2.0339   26.9590 H   0  0  0  0  0  0  0  0  0  0  0  0
    7.7522   -2.6876   27.0545 H   0  0  0  0  0  0  0  0  0  0  0  0
    8.0833   -1.4560   25.2761 C   0  0  0  0  0  0  0  0  0  0  0  0
    8.9109   -0.8458   24.8984 H   0  0  0  0  0  0  0  0  0  0  0  0
    7.2751   -0.7807   25.5821 H   0  0  0  0  0  0  0  0  0  0  0  0
    9.0281   -1.6359   22.1861 C   0  0  0  0  0  0  0  0  0  0  0  0
   10.5973   -1.9618   22.6232 S   0  0  0  0  0  0  0  0  0  0  0  0
    8.6978   -0.9991   21.0276 N   0  0  0  0  0  0  0  0  0  0  0  0
    9.4576   -0.6880   20.4464 H   0  0  0  0  0  0  0  0  0  0  0  0
    5.4453    0.6697   20.1260 C   0  0  0  0  0  0  0  0  0  0  0  0
    5.0119    0.6657   21.1249 H   0  0  0  0  0  0  0  0  0  0  0  0
    4.7997    1.3237   19.0772 C   0  0  0  0  0  0  0  0  0  0  0  0
    3.8625    1.8530   19.2224 H   0  0  0  0  0  0  0  0  0  0  0  0
  1  2  1  0
  2  3  2  0
  3  4  1  0
  4  5  1  0
  4  6  2  0
  6  7  1  0
  7  8  2  0
  8  9  1  0
  8 10  1  0
 10 11  1  0
 11 12  1  1
 11 13  1  0
 13 14  1  0
 14 15  1  0
 14 16  1  0
 14 17  1  0
 17 18  1  0
 17 19  1  0
 17 20  1  0
 20 21  1  0
 20 22  1  0
 10 23  1  0
 23 24  2  0
 23 25  1  0
 25 26  1  0
  6 27  1  0
 27 28  1  0
 27 29  2  0
 29 30  1  0
 29  2  1  0
 25  7  1  0
 20 11  1  0
M  END
>  <cnnaffinity>  (1) 
-5.14967

>  <filename>  (1) 
S=c1[nH]c(-c2cccnc2)cn1[C@@H]1CCCO1

$$$$
