
     RDKit          3D

 33 35  0  0  0  0  0  0  0  0999 V2000
    4.9467    2.0005   16.9504 H   0  0  0  0  0  0  0  0  0  0  0  0
    5.3944    1.3887   17.7318 C   0  0  0  0  0  0  0  0  0  0  0  0
    6.5396    0.7631   17.4078 N   0  0  0  0  0  0  0  0  0  0  0  0
    7.1286    0.0128   18.3423 C   0  0  0  0  0  0  0  0  0  0  0  0
    8.0796   -0.4560   18.0803 H   0  0  0  0  0  0  0  0  0  0  0  0
    6.5945   -0.1896   19.6257 C   0  0  0  0  0  0  0  0  0  0  0  0
    7.3136   -0.9752   20.5697 N   0  0  0  0  0  0  0  0  0  0  0  0
    8.6046   -0.6310   20.9714 C   0  0  0  0  0  0  0  0  0  0  0  0
    9.1081    0.1940   20.4888 H   0  0  0  0  0  0  0  0  0  0  0  0
    8.9615   -1.4590   21.9735 C   0  0  0  0  0  0  0  0  0  0  0  0
   10.1044   -1.4151   22.9185 C   0  0  0  0  0  0  0  0  0  0  0  0
   11.0313   -1.1629   22.3880 H   0  0  0  0  0  0  0  0  0  0  0  0
   10.2472   -2.4010   23.3742 H   0  0  0  0  0  0  0  0  0  0  0  0
    9.9153   -0.3982   24.0586 C   0  0  1  0  0  0  0  0  0  0  0  0
    8.9905   -0.6312   24.6184 H   0  0  0  0  0  0  0  0  0  0  0  0
   11.0268   -0.5816   24.9138 O   0  0  0  0  0  0  0  0  0  0  0  0
   11.3808    0.6228   25.5580 C   0  0  0  0  0  0  0  0  0  0  0  0
   12.4729    0.7229   25.4792 H   0  0  0  0  0  0  0  0  0  0  0  0
   11.1066    0.5523   26.6207 H   0  0  0  0  0  0  0  0  0  0  0  0
   10.6235    1.7774   24.8677 C   0  0  0  0  0  0  0  0  0  0  0  0
    9.9172    2.2463   25.5642 H   0  0  0  0  0  0  0  0  0  0  0  0
   11.3236    2.5564   24.5518 H   0  0  0  0  0  0  0  0  0  0  0  0
    9.9047    1.0962   23.6805 C   0  0  0  0  0  0  0  0  0  0  0  0
   10.4401    1.2722   22.7380 H   0  0  0  0  0  0  0  0  0  0  0  0
    8.8801    1.4599   23.5453 H   0  0  0  0  0  0  0  0  0  0  0  0
    7.9037   -2.3407   22.1292 N   0  0  0  0  0  0  0  0  0  0  0  0
    7.7690   -3.0703   22.8109 H   0  0  0  0  0  0  0  0  0  0  0  0
    6.8694   -2.0626   21.2937 C   0  0  0  0  0  0  0  0  0  0  0  0
    5.4466   -2.9269   21.2659 S   0  0  0  0  0  0  0  0  0  0  0  0
    5.4011    0.4631   19.9618 C   0  0  0  0  0  0  0  0  0  0  0  0
    4.9868    0.3555   20.9619 H   0  0  0  0  0  0  0  0  0  0  0  0
    4.7982    1.2729   18.9918 C   0  0  0  0  0  0  0  0  0  0  0  0
    3.8894    1.8264   19.2033 H   0  0  0  0  0  0  0  0  0  0  0  0
  1  2  1  0
  2  3  2  0
  3  4  1  0
  4  5  1  0
  4  6  2  0
  6  7  1  0
  7  8  1  0
  8  9  1  0
  8 10  2  0
 10 11  1  0
 11 12  1  0
 11 13  1  0
 11 14  1  0
 14 15  1  1
 14 16  1  0
 16 17  1  0
 17 18  1  0
 17 19  1  0
 17 20  1  0
 20 21  1  0
 20 22  1  0
 20 23  1  0
 23 24  1  0
 23 25  1  0
 10 26  1  0
 26 27  1  0
 26 28  1  0
 28 29  2  0
  6 30  1  0
 30 31  1  0
 30 32  2  0
 32 33  1  0
 32  2  1  0
 28  7  1  0
 23 14  1  0
M  END
>  <cnnaffinity>  (1) 
-5.01671

>  <filename>  (1) 
S=c1[nH]c(C[C@@H]2CCCO2)cn1-c1cccnc1

$$$$
