
     RDKit          3D

 32 35  0  0  0  0  0  0  0  0999 V2000
    4.9173    1.8092   16.9622 H   0  0  0  0  0  0  0  0  0  0  0  0
    5.3889    1.3086   17.8091 C   0  0  0  0  0  0  0  0  0  0  0  0
    6.5529    0.6893   17.5526 N   0  0  0  0  0  0  0  0  0  0  0  0
    7.1686    0.0772   18.5719 C   0  0  0  0  0  0  0  0  0  0  0  0
    8.1025   -0.4179   18.3152 H   0  0  0  0  0  0  0  0  0  0  0  0
    6.6703    0.0252   19.8874 C   0  0  0  0  0  0  0  0  0  0  0  0
    7.3494   -0.6993   20.9647 C   0  0  0  0  0  0  0  0  0  0  0  0
    6.8302   -1.2535   22.0792 C   0  0  0  0  0  0  0  0  0  0  0  0
    5.8160   -1.3390   22.4025 H   0  0  0  0  0  0  0  0  0  0  0  0
    7.8527   -1.8243   22.8163 N   0  0  0  0  0  0  0  0  0  0  0  0
    7.6585   -2.5053   24.0440 C   0  0  0  0  0  0  0  0  0  0  0  0
    8.1287   -3.7484   24.2782 C   0  0  0  0  0  0  0  0  0  0  0  0
    8.7302   -4.3412   23.5978 H   0  0  0  0  0  0  0  0  0  0  0  0
    7.7144   -4.3487   25.8431 S   0  0  0  0  0  0  0  0  0  0  0  0
    6.8548   -2.8776   26.2281 C   0  0  0  0  0  0  0  0  0  0  0  0
    6.1476   -2.5887   27.4086 C   0  0  0  0  0  0  0  0  0  0  0  0
    6.0321   -3.3472   28.1764 H   0  0  0  0  0  0  0  0  0  0  0  0
    5.5681   -1.3341   27.5442 C   0  0  0  0  0  0  0  0  0  0  0  0
    5.0559   -1.0849   28.4676 H   0  0  0  0  0  0  0  0  0  0  0  0
    5.6309   -0.3878   26.5015 C   0  0  0  0  0  0  0  0  0  0  0  0
    5.1462    0.5770   26.6165 H   0  0  0  0  0  0  0  0  0  0  0  0
    6.2914   -0.6901   25.3195 C   0  0  0  0  0  0  0  0  0  0  0  0
    6.3360    0.0254   24.5016 H   0  0  0  0  0  0  0  0  0  0  0  0
    6.9165   -1.9503   25.1673 C   0  0  0  0  0  0  0  0  0  0  0  0
    9.0511   -1.6389   22.1619 C   0  0  0  0  0  0  0  0  0  0  0  0
   10.6103   -2.0482   22.5570 S   0  0  0  0  0  0  0  0  0  0  0  0
    8.7049   -0.9738   21.0277 N   0  0  0  0  0  0  0  0  0  0  0  0
    9.4455   -0.6779   20.4168 H   0  0  0  0  0  0  0  0  0  0  0  0
    5.4426    0.6697   20.1285 C   0  0  0  0  0  0  0  0  0  0  0  0
    5.0143    0.6632   21.1315 H   0  0  0  0  0  0  0  0  0  0  0  0
    4.7968    1.3240   19.0779 C   0  0  0  0  0  0  0  0  0  0  0  0
    3.8607    1.8537   19.2245 H   0  0  0  0  0  0  0  0  0  0  0  0
  1  2  1  0
  2  3  2  0
  3  4  1  0
  4  5  1  0
  4  6  2  0
  6  7  1  0
  7  8  2  0
  8  9  1  0
  8 10  1  0
 10 11  1  0
 11 12  2  0
 12 13  1  0
 12 14  1  0
 14 15  1  0
 15 16  2  0
 16 17  1  0
 16 18  1  0
 18 19  1  0
 18 20  2  0
 20 21  1  0
 20 22  1  0
 22 23  1  0
 22 24  2  0
 10 25  1  0
 25 26  2  0
 25 27  1  0
 27 28  1  0
  6 29  1  0
 29 30  1  0
 29 31  2  0
 31 32  1  0
 31  2  1  0
 27  7  1  0
 24 11  1  0
 24 15  1  0
M  END
>  <cnnaffinity>  (1) 
-5.89254

>  <filename>  (1) 
S=c1[nH]c(-c2cccnc2)cn1-c1csc2ccccc12

$$$$
