
     RDKit          3D

 29 31  0  0  0  0  0  0  0  0999 V2000
    4.9960    1.9876   16.7421 H   0  0  0  0  0  0  0  0  0  0  0  0
    5.4662    1.4442   17.5630 C   0  0  0  0  0  0  0  0  0  0  0  0
    6.6034    0.7870   17.2800 N   0  0  0  0  0  0  0  0  0  0  0  0
    7.1978    0.1121   18.2722 C   0  0  0  0  0  0  0  0  0  0  0  0
    8.1296   -0.3828   17.9973 H   0  0  0  0  0  0  0  0  0  0  0  0
    6.6836    0.0189   19.5803 C   0  0  0  0  0  0  0  0  0  0  0  0
    7.2915   -0.8099   20.6257 C   0  0  0  0  0  0  0  0  0  0  0  0
    6.7539   -1.4495   21.6938 C   0  0  0  0  0  0  0  0  0  0  0  0
    5.7350   -1.5928   22.0151 H   0  0  0  0  0  0  0  0  0  0  0  0
    7.7943   -2.0338   22.4160 N   0  0  0  0  0  0  0  0  0  0  0  0
    7.6629   -2.5541   23.7440 C   0  0  0  0  0  0  0  0  0  0  0  0
    6.7084   -3.5352   24.0350 C   0  0  0  0  0  0  0  0  0  0  0  0
    6.0947   -3.9423   23.2332 H   0  0  0  0  0  0  0  0  0  0  0  0
    6.5753   -3.9813   25.3559 C   0  0  0  0  0  0  0  0  0  0  0  0
    5.8529   -4.7555   25.5941 H   0  0  0  0  0  0  0  0  0  0  0  0
    7.3569   -3.4390   26.3817 C   0  0  0  0  0  0  0  0  0  0  0  0
    7.2517   -3.7679   27.4100 H   0  0  0  0  0  0  0  0  0  0  0  0
    8.2929   -2.4557   26.0649 C   0  0  0  0  0  0  0  0  0  0  0  0
    9.2316   -1.7109   27.3178 Cl  0  0  0  0  0  0  0  0  0  0  0  0
    8.4799   -2.0355   24.7545 C   0  0  0  0  0  0  0  0  0  0  0  0
    9.2669   -1.3288   24.5181 H   0  0  0  0  0  0  0  0  0  0  0  0
    8.9885   -1.7943   21.7792 C   0  0  0  0  0  0  0  0  0  0  0  0
   10.5494   -2.2496   22.1297 S   0  0  0  0  0  0  0  0  0  0  0  0
    8.6508   -1.0568   20.6917 N   0  0  0  0  0  0  0  0  0  0  0  0
    9.4028   -0.6503   20.1628 H   0  0  0  0  0  0  0  0  0  0  0  0
    5.5162    0.7393   19.8620 C   0  0  0  0  0  0  0  0  0  0  0  0
    5.1269    0.7398   20.8804 H   0  0  0  0  0  0  0  0  0  0  0  0
    4.9002    1.4575   18.8402 C   0  0  0  0  0  0  0  0  0  0  0  0
    4.0043    2.0329   19.0202 H   0  0  0  0  0  0  0  0  0  0  0  0
  1  2  1  0
  2  3  2  0
  3  4  1  0
  4  5  1  0
  4  6  2  0
  6  7  1  0
  7  8  2  0
  8  9  1  0
  8 10  1  0
 10 11  1  0
 11 12  2  0
 12 13  1  0
 12 14  1  0
 14 15  1  0
 14 16  2  0
 16 17  1  0
 16 18  1  0
 18 19  1  0
 18 20  2  0
 20 21  1  0
 10 22  1  0
 22 23  2  0
 22 24  1  0
 24 25  1  0
  6 26  1  0
 26 27  1  0
 26 28  2  0
 28 29  1  0
 28  2  1  0
 24  7  1  0
 20 11  1  0
M  END
>  <cnnaffinity>  (1) 
-5.6906

>  <filename>  (1) 
S=c1[nH]c(-c2cccnc2)cn1-c1cccc(Cl)c1

$$$$
