
     RDKit          3D

 24 26  0  0  0  0  0  0  0  0999 V2000
    4.9301    1.7913   16.9956 H   0  0  0  0  0  0  0  0  0  0  0  0
    5.3989    1.2900   17.8412 C   0  0  0  0  0  0  0  0  0  0  0  0
    6.5550    0.6620   17.5812 N   0  0  0  0  0  0  0  0  0  0  0  0
    7.1703    0.0417   18.5919 C   0  0  0  0  0  0  0  0  0  0  0  0
    8.1243   -0.4279   18.3607 H   0  0  0  0  0  0  0  0  0  0  0  0
    6.6509   -0.0086   19.9007 C   0  0  0  0  0  0  0  0  0  0  0  0
    7.3363   -0.6907   20.9521 N   0  0  0  0  0  0  0  0  0  0  0  0
    6.7440   -1.6007   21.8133 C   0  0  0  0  0  0  0  0  0  0  0  0
    5.6948   -1.8541   21.7488 H   0  0  0  0  0  0  0  0  0  0  0  0
    7.6878   -2.0577   22.6719 C   0  0  0  0  0  0  0  0  0  0  0  0
    7.5625   -3.0076   23.7835 C   0  0  0  0  0  0  0  0  0  0  0  0
    6.3948   -3.6224   24.1157 N   0  0  0  0  0  0  0  0  0  0  0  0
    6.6515   -4.3867   25.1334 N   0  0  0  0  0  0  0  0  0  0  0  0
    7.9325   -4.2254   25.3902 N   0  0  0  0  0  0  0  0  0  0  0  0
    8.3862   -4.7230   26.1499 H   0  0  0  0  0  0  0  0  0  0  0  0
    8.5584   -3.3827   24.5886 N   0  0  0  0  0  0  0  0  0  0  0  0
    8.8636   -1.3951   22.3052 N   0  0  0  0  0  0  0  0  0  0  0  0
    9.7861   -1.4231   22.7124 H   0  0  0  0  0  0  0  0  0  0  0  0
    8.6639   -0.5161   21.2957 C   0  0  0  0  0  0  0  0  0  0  0  0
    9.8149    0.5310   20.7325 S   0  0  0  0  0  0  0  0  0  0  0  0
    5.4434    0.6397   20.1641 C   0  0  0  0  0  0  0  0  0  0  0  0
    5.0350    0.6300   21.1769 H   0  0  0  0  0  0  0  0  0  0  0  0
    4.8125    1.3068   19.1104 C   0  0  0  0  0  0  0  0  0  0  0  0
    3.8834    1.8391   19.2593 H   0  0  0  0  0  0  0  0  0  0  0  0
  1  2  1  0
  2  3  2  0
  3  4  1  0
  4  5  1  0
  4  6  2  0
  6  7  1  0
  7  8  1  0
  8  9  1  0
  8 10  2  0
 10 11  1  0
 11 12  1  0
 12 13  2  0
 13 14  1  0
 14 15  1  0
 14 16  1  0
 10 17  1  0
 17 18  1  0
 17 19  1  0
 19 20  2  0
  6 21  1  0
 21 22  1  0
 21 23  2  0
 23 24  1  0
 23  2  1  0
 19  7  1  0
 16 11  2  0
M  END
>  <cnnaffinity>  (1) 
-4.89914

>  <filename>  (1) 
S=c1[nH]c(-c2nn[nH]n2)cn1-c1cccnc1

$$$$
