
     RDKit          3D

 32 34  0  0  0  0  0  0  0  0999 V2000
   11.1268    1.9275   21.2652 H   0  0  0  0  0  0  0  0  0  0  0  0
   10.4482    1.2270   21.7608 C   0  0  0  0  0  0  0  0  0  0  0  0
    9.4595    0.6762   21.0429 C   0  0  0  0  0  0  0  0  0  0  0  0
    9.2305    1.0354   20.0537 H   0  0  0  0  0  0  0  0  0  0  0  0
    8.6130   -0.4221   21.4798 C   0  0  0  0  0  0  0  0  0  0  0  0
    8.9232   -1.2964   22.4032 N   0  0  0  0  0  0  0  0  0  0  0  0
    7.8361   -2.0904   22.4683 N   0  0  0  0  0  0  0  0  0  0  0  0
    7.7786   -2.8676   23.1043 H   0  0  0  0  0  0  0  0  0  0  0  0
    6.8531   -1.8012   21.5972 C   0  0  0  0  0  0  0  0  0  0  0  0
    5.4563   -2.6699   21.3923 S   0  0  0  0  0  0  0  0  0  0  0  0
    7.3596   -0.6893   20.9434 N   0  0  0  0  0  0  0  0  0  0  0  0
    6.6732    0.0191   19.9042 C   0  0  0  0  0  0  0  0  0  0  0  0
    7.1759    0.0566   18.5903 C   0  0  0  0  0  0  0  0  0  0  0  0
    8.1157   -0.4437   18.3653 H   0  0  0  0  0  0  0  0  0  0  0  0
    6.5581    0.6710   17.5761 N   0  0  0  0  0  0  0  0  0  0  0  0
    5.3990    1.2940   17.8390 C   0  0  0  0  0  0  0  0  0  0  0  0
    4.9167    1.7849   16.9960 H   0  0  0  0  0  0  0  0  0  0  0  0
    4.8166    1.3065   19.1117 C   0  0  0  0  0  0  0  0  0  0  0  0
    3.8844    1.8353   19.2608 H   0  0  0  0  0  0  0  0  0  0  0  0
    5.4517    0.6424   20.1683 C   0  0  0  0  0  0  0  0  0  0  0  0
    5.0230    0.6035   21.1724 H   0  0  0  0  0  0  0  0  0  0  0  0
   10.7234    0.9564   23.1882 C   0  0  0  0  0  0  0  0  0  0  0  0
   12.0356    0.6503   23.5935 C   0  0  0  0  0  0  0  0  0  0  0  0
   12.8260    0.6192   22.8430 H   0  0  0  0  0  0  0  0  0  0  0  0
   12.3116    0.3802   24.9364 C   0  0  0  0  0  0  0  0  0  0  0  0
   13.3351    0.1708   25.2432 H   0  0  0  0  0  0  0  0  0  0  0  0
   11.2623    0.4121   25.8678 C   0  0  0  0  0  0  0  0  0  0  0  0
   11.4039    0.2473   26.9298 H   0  0  0  0  0  0  0  0  0  0  0  0
    9.9667    0.7306   25.4760 C   0  0  0  0  0  0  0  0  0  0  0  0
    9.1807    0.7589   26.2248 H   0  0  0  0  0  0  0  0  0  0  0  0
    9.6932    1.0065   24.1389 C   0  0  0  0  0  0  0  0  0  0  0  0
    8.6750    1.2043   23.8162 H   0  0  0  0  0  0  0  0  0  0  0  0
  1  2  1  0
  2  3  2  3
  3  4  1  0
  3  5  1  0
  5  6  2  0
  6  7  1  0
  7  8  1  0
  7  9  1  0
  9 10  2  0
  9 11  1  0
 11 12  1  0
 12 13  2  0
 13 14  1  0
 13 15  1  0
 15 16  2  0
 16 17  1  0
 16 18  1  0
 18 19  1  0
 18 20  2  0
 20 21  1  0
  2 22  1  0
 22 23  2  0
 23 24  1  0
 23 25  1  0
 25 26  1  0
 25 27  2  0
 27 28  1  0
 27 29  1  0
 29 30  1  0
 29 31  2  0
 31 32  1  0
 11  5  1  0
 20 12  1  0
 31 22  1  0
M  END
>  <cnnaffinity>  (1) 
-5.05414

>  <filename>  (1) 
S=c1[nH]nc(C=Cc2ccccc2)n1-c1cccnc1

$$$$
