
     RDKit          3D

 32 34  0  0  0  0  0  0  0  0999 V2000
    4.9167    1.8053   16.9649 H   0  0  0  0  0  0  0  0  0  0  0  0
    5.3893    1.3071   17.8107 C   0  0  0  0  0  0  0  0  0  0  0  0
    6.5538    0.6885   17.5543 N   0  0  0  0  0  0  0  0  0  0  0  0
    7.1695    0.0766   18.5739 C   0  0  0  0  0  0  0  0  0  0  0  0
    8.1048   -0.4190   18.3208 H   0  0  0  0  0  0  0  0  0  0  0  0
    6.6681    0.0274   19.8868 C   0  0  0  0  0  0  0  0  0  0  0  0
    7.3439   -0.6922   20.9666 C   0  0  0  0  0  0  0  0  0  0  0  0
    6.8154   -1.2346   22.0830 C   0  0  0  0  0  0  0  0  0  0  0  0
    5.7996   -1.2926   22.3973 H   0  0  0  0  0  0  0  0  0  0  0  0
    7.8302   -1.8174   22.8135 N   0  0  0  0  0  0  0  0  0  0  0  0
    7.6670   -2.3792   24.1484 C   0  0  0  0  0  0  0  0  0  0  0  0
    6.6634   -2.8188   24.1897 H   0  0  0  0  0  0  0  0  0  0  0  0
    8.4018   -3.1840   24.2428 H   0  0  0  0  0  0  0  0  0  0  0  0
    7.8333   -1.3330   25.2361 C   0  0  0  0  0  0  0  0  0  0  0  0
    9.0459   -1.2218   25.9238 C   0  0  0  0  0  0  0  0  0  0  0  0
    9.8390   -1.9152   25.6660 H   0  0  0  0  0  0  0  0  0  0  0  0
    9.2294   -0.2344   26.8956 C   0  0  0  0  0  0  0  0  0  0  0  0
   10.1779   -0.1574   27.4220 H   0  0  0  0  0  0  0  0  0  0  0  0
    8.1959    0.6626   27.1854 C   0  0  0  0  0  0  0  0  0  0  0  0
    8.3072    1.4450   27.9304 H   0  0  0  0  0  0  0  0  0  0  0  0
    6.9873    0.5497   26.4948 C   0  0  0  0  0  0  0  0  0  0  0  0
    5.6980    1.6668   26.8391 Cl  0  0  0  0  0  0  0  0  0  0  0  0
    6.7947   -0.4363   25.5273 C   0  0  0  0  0  0  0  0  0  0  0  0
    5.8422   -0.4905   25.0048 H   0  0  0  0  0  0  0  0  0  0  0  0
    9.0233   -1.6250   22.1796 C   0  0  0  0  0  0  0  0  0  0  0  0
   10.5623   -2.0616   22.6240 S   0  0  0  0  0  0  0  0  0  0  0  0
    8.6994   -0.9677   21.0334 N   0  0  0  0  0  0  0  0  0  0  0  0
    9.4451   -0.6731   20.4275 H   0  0  0  0  0  0  0  0  0  0  0  0
    5.4392    0.6693   20.1286 C   0  0  0  0  0  0  0  0  0  0  0  0
    5.0096    0.6607   21.1307 H   0  0  0  0  0  0  0  0  0  0  0  0
    4.7959    1.3242   19.0779 C   0  0  0  0  0  0  0  0  0  0  0  0
    3.8618    1.8536   19.2279 H   0  0  0  0  0  0  0  0  0  0  0  0
  1  2  1  0
  2  3  2  0
  3  4  1  0
  4  5  1  0
  4  6  2  0
  6  7  1  0
  7  8  2  0
  8  9  1  0
  8 10  1  0
 10 11  1  0
 11 12  1  0
 11 13  1  0
 11 14  1  0
 14 15  2  0
 15 16  1  0
 15 17  1  0
 17 18  1  0
 17 19  2  0
 19 20  1  0
 19 21  1  0
 21 22  1  0
 21 23  2  0
 23 24  1  0
 10 25  1  0
 25 26  2  0
 25 27  1  0
 27 28  1  0
  6 29  1  0
 29 30  1  0
 29 31  2  0
 31 32  1  0
 31  2  1  0
 27  7  1  0
 23 14  1  0
M  END
>  <cnnaffinity>  (1) 
-5.24639

>  <filename>  (1) 
S=c1[nH]c(-c2cccnc2)cn1Cc1cccc(Cl)c1

$$$$
