
     RDKit          3D

 38 40  0  0  0  0  0  0  0  0999 V2000
    4.9260    1.8165   16.9662 H   0  0  0  0  0  0  0  0  0  0  0  0
    5.3973    1.3036   17.8026 C   0  0  0  0  0  0  0  0  0  0  0  0
    6.5490    0.6652   17.5431 N   0  0  0  0  0  0  0  0  0  0  0  0
    7.1682    0.0420   18.5526 C   0  0  0  0  0  0  0  0  0  0  0  0
    8.1106   -0.4520   18.3266 H   0  0  0  0  0  0  0  0  0  0  0  0
    6.6588    0.0007   19.8673 C   0  0  0  0  0  0  0  0  0  0  0  0
    7.3255   -0.7041   20.9180 N   0  0  0  0  0  0  0  0  0  0  0  0
    6.7107   -1.6748   21.7069 C   0  0  0  0  0  0  0  0  0  0  0  0
    5.6650   -1.9097   21.5742 H   0  0  0  0  0  0  0  0  0  0  0  0
    7.6204   -2.1201   22.6032 C   0  0  0  0  0  0  0  0  0  0  0  0
    7.4994   -2.9421   23.8430 C   0  0  0  0  0  0  0  0  0  0  0  0
    8.4748   -3.3831   24.0852 H   0  0  0  0  0  0  0  0  0  0  0  0
    6.7944   -3.7659   23.6946 H   0  0  0  0  0  0  0  0  0  0  0  0
    7.0253   -2.0803   25.0263 C   0  0  0  0  0  0  0  0  0  0  0  0
    6.8544   -2.7221   25.9104 H   0  0  0  0  0  0  0  0  0  0  0  0
    6.0484   -1.6538   24.7582 H   0  0  0  0  0  0  0  0  0  0  0  0
    7.9670   -0.9835   25.2921 N   0  0  0  0  0  0  0  0  0  0  0  0
    7.3654    0.2808   25.7540 C   0  0  0  0  0  0  0  0  0  0  0  0
    8.1294    1.0718   25.6810 H   0  0  0  0  0  0  0  0  0  0  0  0
    6.5417    0.5725   25.0895 H   0  0  0  0  0  0  0  0  0  0  0  0
    6.9151    0.2028   27.2194 C   0  0  0  0  0  0  0  0  0  0  0  0
    6.4943    1.1570   27.5417 H   0  0  0  0  0  0  0  0  0  0  0  0
    6.1421   -0.5773   27.3470 H   0  0  0  0  0  0  0  0  0  0  0  0
    8.0326   -0.0508   28.0623 O   0  0  0  0  0  0  0  0  0  0  0  0
    8.7565   -1.2177   27.6797 C   0  0  0  0  0  0  0  0  0  0  0  0
    9.6662   -1.2155   28.2893 H   0  0  0  0  0  0  0  0  0  0  0  0
    8.1859   -2.1241   27.9307 H   0  0  0  0  0  0  0  0  0  0  0  0
    9.1000   -1.3065   26.1724 C   0  0  0  0  0  0  0  0  0  0  0  0
    9.9091   -0.6058   25.9311 H   0  0  0  0  0  0  0  0  0  0  0  0
    9.4848   -2.3166   25.9646 H   0  0  0  0  0  0  0  0  0  0  0  0
    8.7762   -1.4066   22.3488 N   0  0  0  0  0  0  0  0  0  0  0  0
    9.5778   -1.3353   22.9554 H   0  0  0  0  0  0  0  0  0  0  0  0
    8.6092   -0.4760   21.3750 C   0  0  0  0  0  0  0  0  0  0  0  0
    9.7219    0.6795   20.9362 S   0  0  0  0  0  0  0  0  0  0  0  0
    5.4555    0.6644   20.1252 C   0  0  0  0  0  0  0  0  0  0  0  0
    5.0530    0.6642   21.1392 H   0  0  0  0  0  0  0  0  0  0  0  0
    4.8155    1.3252   19.0751 C   0  0  0  0  0  0  0  0  0  0  0  0
    3.8848    1.8575   19.2262 H   0  0  0  0  0  0  0  0  0  0  0  0
  1  2  1  0
  2  3  2  0
  3  4  1  0
  4  5  1  0
  4  6  2  0
  6  7  1  0
  7  8  1  0
  8  9  1  0
  8 10  2  0
 10 11  1  0
 11 12  1  0
 11 13  1  0
 11 14  1  0
 14 15  1  0
 14 16  1  0
 14 17  1  0
 17 18  1  0
 18 19  1  0
 18 20  1  0
 18 21  1  0
 21 22  1  0
 21 23  1  0
 21 24  1  0
 24 25  1  0
 25 26  1  0
 25 27  1  0
 25 28  1  0
 28 29  1  0
 28 30  1  0
 10 31  1  0
 31 32  1  0
 31 33  1  0
 33 34  2  0
  6 35  1  0
 35 36  1  0
 35 37  2  0
 37 38  1  0
 37  2  1  0
 33  7  1  0
 28 17  1  0
M  END
>  <cnnaffinity>  (1) 
-4.99075

>  <filename>  (1) 
S=c1[nH]c(CCN2CCOCC2)cn1-c1cccnc1

$$$$
