
     RDKit          3D

 26 28  0  0  0  0  0  0  0  0999 V2000
    4.9180    1.7988   16.9720 H   0  0  0  0  0  0  0  0  0  0  0  0
    5.3929    1.3027   17.8181 C   0  0  0  0  0  0  0  0  0  0  0  0
    6.5583    0.6849   17.5640 N   0  0  0  0  0  0  0  0  0  0  0  0
    7.1732    0.0730   18.5858 C   0  0  0  0  0  0  0  0  0  0  0  0
    8.1090   -0.4222   18.3317 H   0  0  0  0  0  0  0  0  0  0  0  0
    6.6686    0.0249   19.9001 C   0  0  0  0  0  0  0  0  0  0  0  0
    7.3278   -0.6965   20.9942 C   0  0  0  0  0  0  0  0  0  0  0  0
    6.7933   -1.2411   22.1024 C   0  0  0  0  0  0  0  0  0  0  0  0
    5.7667   -1.3133   22.3810 H   0  0  0  0  0  0  0  0  0  0  0  0
    7.8027   -1.8436   22.8381 N   0  0  0  0  0  0  0  0  0  0  0  0
    7.6166   -2.4711   24.0783 C   0  0  0  0  0  0  0  0  0  0  0  0
    6.4349   -2.9812   24.3903 N   0  0  0  0  0  0  0  0  0  0  0  0
    6.6080   -3.4845   25.6193 N   0  0  0  0  0  0  0  0  0  0  0  0
    5.8245   -3.9209   26.0849 H   0  0  0  0  0  0  0  0  0  0  0  0
    7.8575   -3.2964   26.0964 C   0  0  0  0  0  0  0  0  0  0  0  0
    8.1472   -3.6519   27.0756 H   0  0  0  0  0  0  0  0  0  0  0  0
    8.5519   -2.6291   25.1181 C   0  0  0  0  0  0  0  0  0  0  0  0
    9.5756   -2.3001   25.0809 H   0  0  0  0  0  0  0  0  0  0  0  0
    8.9997   -1.6943   22.1771 C   0  0  0  0  0  0  0  0  0  0  0  0
   10.5349   -2.2005   22.5247 S   0  0  0  0  0  0  0  0  0  0  0  0
    8.6758   -0.9997   21.0573 N   0  0  0  0  0  0  0  0  0  0  0  0
    9.4151   -0.7328   20.4327 H   0  0  0  0  0  0  0  0  0  0  0  0
    5.4393    0.6677   20.1356 C   0  0  0  0  0  0  0  0  0  0  0  0
    5.0111    0.6606   21.1372 H   0  0  0  0  0  0  0  0  0  0  0  0
    4.7979    1.3218   19.0840 C   0  0  0  0  0  0  0  0  0  0  0  0
    3.8642    1.8510   19.2344 H   0  0  0  0  0  0  0  0  0  0  0  0
  1  2  1  0
  2  3  2  0
  3  4  1  0
  4  5  1  0
  4  6  2  0
  6  7  1  0
  7  8  2  0
  8  9  1  0
  8 10  1  0
 10 11  1  0
 11 12  2  0
 12 13  1  0
 13 14  1  0
 13 15  1  0
 15 16  1  0
 15 17  2  0
 17 18  1  0
 10 19  1  0
 19 20  2  0
 19 21  1  0
 21 22  1  0
  6 23  1  0
 23 24  1  0
 23 25  2  0
 25 26  1  0
 25  2  1  0
 21  7  1  0
 17 11  1  0
M  END
>  <cnnaffinity>  (1) 
-5.12734

>  <filename>  (1) 
S=c1[nH]c(-c2cccnc2)cn1-c1cc[nH]n1

$$$$
