
     RDKit          3D

 32 35  0  0  0  0  0  0  0  0999 V2000
    4.9221    1.8047   16.9674 H   0  0  0  0  0  0  0  0  0  0  0  0
    5.3947    1.3048   17.8145 C   0  0  0  0  0  0  0  0  0  0  0  0
    6.5584    0.6844   17.5643 N   0  0  0  0  0  0  0  0  0  0  0  0
    7.1716    0.0676   18.5834 C   0  0  0  0  0  0  0  0  0  0  0  0
    8.1065   -0.4228   18.3216 H   0  0  0  0  0  0  0  0  0  0  0  0
    6.6672    0.0117   19.8967 C   0  0  0  0  0  0  0  0  0  0  0  0
    7.3383   -0.7112   20.9858 C   0  0  0  0  0  0  0  0  0  0  0  0
    6.8241   -1.2432   22.1111 C   0  0  0  0  0  0  0  0  0  0  0  0
    5.8057   -1.3197   22.4195 H   0  0  0  0  0  0  0  0  0  0  0  0
    7.8457   -1.8005   22.8679 N   0  0  0  0  0  0  0  0  0  0  0  0
    7.6457   -2.4558   24.1286 C   0  0  0  0  0  0  0  0  0  0  0  0
    6.8233   -1.8627   25.0980 C   0  0  0  0  0  0  0  0  0  0  0  0
    6.3454   -0.9122   24.8749 H   0  0  0  0  0  0  0  0  0  0  0  0
    6.6237   -2.4754   26.3541 C   0  0  0  0  0  0  0  0  0  0  0  0
    5.9959   -2.0327   27.1224 H   0  0  0  0  0  0  0  0  0  0  0  0
    7.2582   -3.6827   26.5736 C   0  0  0  0  0  0  0  0  0  0  0  0
    8.0591   -4.2802   25.5949 C   0  0  0  0  0  0  0  0  0  0  0  0
    8.2740   -3.6958   24.3642 C   0  0  0  0  0  0  0  0  0  0  0  0
    8.9162   -4.1471   23.6183 H   0  0  0  0  0  0  0  0  0  0  0  0
    8.5625   -5.4542   26.0675 O   0  0  0  0  0  0  0  0  0  0  0  0
    8.0536   -5.5993   27.3933 C   0  0  0  0  0  0  0  0  0  0  0  0
    8.8899   -5.6376   28.1004 H   0  0  0  0  0  0  0  0  0  0  0  0
    7.4496   -6.5120   27.4464 H   0  0  0  0  0  0  0  0  0  0  0  0
    7.2348   -4.4695   27.6907 O   0  0  0  0  0  0  0  0  0  0  0  0
    9.0420   -1.6138   22.2071 C   0  0  0  0  0  0  0  0  0  0  0  0
   10.6117   -1.9882   22.5994 S   0  0  0  0  0  0  0  0  0  0  0  0
    8.6945   -0.9786   21.0552 N   0  0  0  0  0  0  0  0  0  0  0  0
    9.4377   -0.6764   20.4490 H   0  0  0  0  0  0  0  0  0  0  0  0
    5.4430    0.6648   20.1301 C   0  0  0  0  0  0  0  0  0  0  0  0
    5.0091    0.6654   21.1306 H   0  0  0  0  0  0  0  0  0  0  0  0
    4.7999    1.3216   19.0800 C   0  0  0  0  0  0  0  0  0  0  0  0
    3.8652    1.8516   19.2259 H   0  0  0  0  0  0  0  0  0  0  0  0
  1  2  1  0
  2  3  2  0
  3  4  1  0
  4  5  1  0
  4  6  2  0
  6  7  1  0
  7  8  2  0
  8  9  1  0
  8 10  1  0
 10 11  1  0
 11 12  2  0
 12 13  1  0
 12 14  1  0
 14 15  1  0
 14 16  2  0
 16 17  1  0
 17 18  2  0
 18 19  1  0
 17 20  1  0
 20 21  1  0
 21 22  1  0
 21 23  1  0
 21 24  1  0
 10 25  1  0
 25 26  2  0
 25 27  1  0
 27 28  1  0
  6 29  1  0
 29 30  1  0
 29 31  2  0
 31 32  1  0
 31  2  1  0
 27  7  1  0
 18 11  1  0
 24 16  1  0
M  END
>  <cnnaffinity>  (1) 
-5.44417

>  <filename>  (1) 
S=c1[nH]c(-c2cccnc2)cn1-c1ccc2c(c1)OCO2

$$$$
