
     RDKit          3D

 34 37  0  0  0  0  0  0  0  0999 V2000
    4.9388    1.7965   16.9983 H   0  0  0  0  0  0  0  0  0  0  0  0
    5.3995    1.2873   17.8395 C   0  0  0  0  0  0  0  0  0  0  0  0
    6.5527    0.6554   17.5751 N   0  0  0  0  0  0  0  0  0  0  0  0
    7.1706    0.0362   18.5859 C   0  0  0  0  0  0  0  0  0  0  0  0
    8.1248   -0.4338   18.3582 H   0  0  0  0  0  0  0  0  0  0  0  0
    6.6505   -0.0080   19.8961 C   0  0  0  0  0  0  0  0  0  0  0  0
    7.3350   -0.6855   20.9523 N   0  0  0  0  0  0  0  0  0  0  0  0
    6.7440   -1.6104   21.8015 C   0  0  0  0  0  0  0  0  0  0  0  0
    5.6893   -1.8147   21.6943 H   0  0  0  0  0  0  0  0  0  0  0  0
    7.6924   -2.0683   22.6661 C   0  0  0  0  0  0  0  0  0  0  0  0
    7.6076   -3.0255   23.8013 C   0  0  0  0  0  0  0  0  0  0  0  0
    8.6943   -3.2956   24.5081 N   0  0  0  0  0  0  0  0  0  0  0  0
    8.5732   -4.1777   25.5421 C   0  0  0  0  0  0  0  0  0  0  0  0
    9.7446   -4.4602   26.3056 C   0  0  0  0  0  0  0  0  0  0  0  0
   10.6567   -3.9728   25.9813 H   0  0  0  0  0  0  0  0  0  0  0  0
    9.6853   -5.3229   27.3736 C   0  0  0  0  0  0  0  0  0  0  0  0
   10.5814   -5.5257   27.9590 H   0  0  0  0  0  0  0  0  0  0  0  0
    8.4558   -5.9728   27.7087 C   0  0  0  0  0  0  0  0  0  0  0  0
    8.4277   -6.6829   28.5304 H   0  0  0  0  0  0  0  0  0  0  0  0
    7.3120   -5.7337   26.9843 C   0  0  0  0  0  0  0  0  0  0  0  0
    6.3685   -6.2241   27.2212 H   0  0  0  0  0  0  0  0  0  0  0  0
    7.3414   -4.8241   25.8893 C   0  0  0  0  0  0  0  0  0  0  0  0
    6.1965   -4.5094   25.1056 C   0  0  0  0  0  0  0  0  0  0  0  0
    5.2387   -4.9788   25.3400 H   0  0  0  0  0  0  0  0  0  0  0  0
    6.3357   -3.6147   24.0772 C   0  0  0  0  0  0  0  0  0  0  0  0
    5.5062   -3.3196   23.4536 H   0  0  0  0  0  0  0  0  0  0  0  0
    8.8558   -1.3906   22.3082 N   0  0  0  0  0  0  0  0  0  0  0  0
    9.7738   -1.4321   22.7297 H   0  0  0  0  0  0  0  0  0  0  0  0
    8.6570   -0.5056   21.3093 C   0  0  0  0  0  0  0  0  0  0  0  0
    9.8025    0.5618   20.7713 S   0  0  0  0  0  0  0  0  0  0  0  0
    5.4398    0.6420   20.1594 C   0  0  0  0  0  0  0  0  0  0  0  0
    5.0379    0.6312   21.1757 H   0  0  0  0  0  0  0  0  0  0  0  0
    4.8077    1.3086   19.1071 C   0  0  0  0  0  0  0  0  0  0  0  0
    3.8790    1.8432   19.2578 H   0  0  0  0  0  0  0  0  0  0  0  0
  1  2  1  0
  2  3  2  0
  3  4  1  0
  4  5  1  0
  4  6  2  0
  6  7  1  0
  7  8  1  0
  8  9  1  0
  8 10  2  0
 10 11  1  0
 11 12  2  0
 12 13  1  0
 13 14  2  0
 14 15  1  0
 14 16  1  0
 16 17  1  0
 16 18  2  0
 18 19  1  0
 18 20  1  0
 20 21  1  0
 20 22  2  0
 22 23  1  0
 23 24  1  0
 23 25  2  0
 25 26  1  0
 10 27  1  0
 27 28  1  0
 27 29  1  0
 29 30  2  0
  6 31  1  0
 31 32  1  0
 31 33  2  0
 33 34  1  0
 33  2  1  0
 29  7  1  0
 25 11  1  0
 22 13  1  0
M  END
>  <cnnaffinity>  (1) 
-5.65848

>  <filename>  (1) 
S=c1[nH]c(-c2ccc3ccccc3n2)cn1-c1cccnc1

$$$$
