
     RDKit          3D

 29 31  0  0  0  0  0  0  0  0999 V2000
    5.0339    1.8161   16.8036 H   0  0  0  0  0  0  0  0  0  0  0  0
    5.4839    1.2897   17.6376 C   0  0  0  0  0  0  0  0  0  0  0  0
    6.5835    0.5392   17.4273 N   0  0  0  0  0  0  0  0  0  0  0  0
    7.1275   -0.0816   18.4938 C   0  0  0  0  0  0  0  0  0  0  0  0
    8.0277   -0.6717   18.3468 H   0  0  0  0  0  0  0  0  0  0  0  0
    6.5976    0.0268   19.7897 C   0  0  0  0  0  0  0  0  0  0  0  0
    7.2494   -0.6103   20.9213 C   0  0  0  0  0  0  0  0  0  0  0  0
    6.9356   -0.4043   22.2435 C   0  0  0  0  0  0  0  0  0  0  0  0
    6.1396    0.2413   22.6092 H   0  0  0  0  0  0  0  0  0  0  0  0
    7.8096   -1.1694   23.0183 N   0  0  0  0  0  0  0  0  0  0  0  0
    7.9187   -1.1841   24.4103 C   0  0  0  0  0  0  0  0  0  0  0  0
    8.4149   -2.3348   25.0324 C   0  0  0  0  0  0  0  0  0  0  0  0
    8.6405   -3.2075   24.4330 H   0  0  0  0  0  0  0  0  0  0  0  0
    8.6446   -2.3793   26.4063 C   0  0  0  0  0  0  0  0  0  0  0  0
    9.0246   -3.2906   26.8630 H   0  0  0  0  0  0  0  0  0  0  0  0
    8.4489   -1.2179   27.1563 C   0  0  0  0  0  0  0  0  0  0  0  0
    8.7473   -1.2113   28.1955 H   0  0  0  0  0  0  0  0  0  0  0  0
    7.9309   -0.0567   26.5613 C   0  0  0  0  0  0  0  0  0  0  0  0
    7.7225    1.5454   27.5906 Br  0  0  0  0  0  0  0  0  0  0  0  0
    7.6172   -0.0623   25.1930 C   0  0  0  0  0  0  0  0  0  0  0  0
    7.1902    0.8184   24.7252 H   0  0  0  0  0  0  0  0  0  0  0  0
    8.6913   -1.8247   22.1591 C   0  0  0  0  0  0  0  0  0  0  0  0
   10.0364   -2.7355   22.5388 S   0  0  0  0  0  0  0  0  0  0  0  0
    8.2979   -1.5168   20.8730 N   0  0  0  0  0  0  0  0  0  0  0  0
    8.8314   -1.7616   20.0467 H   0  0  0  0  0  0  0  0  0  0  0  0
    5.4421    0.7811   19.9952 C   0  0  0  0  0  0  0  0  0  0  0  0
    5.0090    0.8682   20.9930 H   0  0  0  0  0  0  0  0  0  0  0  0
    4.8837    1.4242   18.8966 C   0  0  0  0  0  0  0  0  0  0  0  0
    4.0002    2.0412   19.0184 H   0  0  0  0  0  0  0  0  0  0  0  0
  1  2  1  0
  2  3  2  0
  3  4  1  0
  4  5  1  0
  4  6  2  0
  6  7  1  0
  7  8  2  0
  8  9  1  0
  8 10  1  0
 10 11  1  0
 11 12  2  0
 12 13  1  0
 12 14  1  0
 14 15  1  0
 14 16  2  0
 16 17  1  0
 16 18  1  0
 18 19  1  0
 18 20  2  0
 20 21  1  0
 10 22  1  0
 22 23  2  0
 22 24  1  0
 24 25  1  0
  6 26  1  0
 26 27  1  0
 26 28  2  0
 28 29  1  0
 28  2  1  0
 24  7  1  0
 20 11  1  0
M  END
>  <cnnaffinity>  (1) 
-5.26111

>  <filename>  (1) 
S=c1[nH]c(-c2cccnc2)cn1-c1cccc(Br)c1

$$$$
