
     RDKit          3D

 26 28  0  0  0  0  0  0  0  0999 V2000
    4.9371    1.7966   16.9982 H   0  0  0  0  0  0  0  0  0  0  0  0
    5.4009    1.2876   17.8385 C   0  0  0  0  0  0  0  0  0  0  0  0
    6.5560    0.6564   17.5753 N   0  0  0  0  0  0  0  0  0  0  0  0
    7.1732    0.0393   18.5893 C   0  0  0  0  0  0  0  0  0  0  0  0
    8.1269   -0.4337   18.3645 H   0  0  0  0  0  0  0  0  0  0  0  0
    6.6533   -0.0068   19.8994 C   0  0  0  0  0  0  0  0  0  0  0  0
    7.3341   -0.6922   20.9547 N   0  0  0  0  0  0  0  0  0  0  0  0
    6.7378   -1.6112   21.8024 C   0  0  0  0  0  0  0  0  0  0  0  0
    5.6862   -1.8275   21.7158 H   0  0  0  0  0  0  0  0  0  0  0  0
    7.6785   -2.0729   22.6708 C   0  0  0  0  0  0  0  0  0  0  0  0
    7.5327   -3.0120   23.7617 C   0  0  0  0  0  0  0  0  0  0  0  0
    8.8361   -3.4892   24.8031 S   0  0  0  0  0  0  0  0  0  0  0  0
    7.7803   -4.5295   25.6966 C   0  0  0  0  0  0  0  0  0  0  0  0
    8.3831   -5.4505   27.0207 Cl  0  0  0  0  0  0  0  0  0  0  0  0
    6.4978   -4.5137   25.2339 C   0  0  0  0  0  0  0  0  0  0  0  0
    5.7031   -5.1066   25.6804 H   0  0  0  0  0  0  0  0  0  0  0  0
    6.3659   -3.6332   24.1227 C   0  0  0  0  0  0  0  0  0  0  0  0
    5.4457   -3.4345   23.5889 H   0  0  0  0  0  0  0  0  0  0  0  0
    8.8502   -1.4104   22.3267 N   0  0  0  0  0  0  0  0  0  0  0  0
    9.7689   -1.4354   22.7374 H   0  0  0  0  0  0  0  0  0  0  0  0
    8.6554   -0.5258   21.3240 C   0  0  0  0  0  0  0  0  0  0  0  0
    9.8102    0.5296   20.7828 S   0  0  0  0  0  0  0  0  0  0  0  0
    5.4428    0.6429   20.1593 C   0  0  0  0  0  0  0  0  0  0  0  0
    5.0308    0.6334   21.1706 H   0  0  0  0  0  0  0  0  0  0  0  0
    4.8097    1.3077   19.1066 C   0  0  0  0  0  0  0  0  0  0  0  0
    3.8788    1.8407   19.2614 H   0  0  0  0  0  0  0  0  0  0  0  0
  1  2  1  0
  2  3  2  0
  3  4  1  0
  4  5  1  0
  4  6  2  0
  6  7  1  0
  7  8  1  0
  8  9  1  0
  8 10  2  0
 10 11  1  0
 11 12  1  0
 12 13  1  0
 13 14  1  0
 13 15  2  0
 15 16  1  0
 15 17  1  0
 17 18  1  0
 10 19  1  0
 19 20  1  0
 19 21  1  0
 21 22  2  0
  6 23  1  0
 23 24  1  0
 23 25  2  0
 25 26  1  0
 25  2  1  0
 21  7  1  0
 17 11  2  0
M  END
>  <cnnaffinity>  (1) 
-5.58247

>  <filename>  (1) 
S=c1[nH]c(-c2ccc(Cl)s2)cn1-c1cccnc1

$$$$
