
     RDKit          3D

 29 31  0  0  0  0  0  0  0  0999 V2000
    4.8894    1.8033   17.0106 H   0  0  0  0  0  0  0  0  0  0  0  0
    5.4016    1.2963   17.8202 C   0  0  0  0  0  0  0  0  0  0  0  0
    6.5712    0.6822   17.5708 N   0  0  0  0  0  0  0  0  0  0  0  0
    7.1847    0.0650   18.5969 C   0  0  0  0  0  0  0  0  0  0  0  0
    8.1304   -0.4340   18.4097 H   0  0  0  0  0  0  0  0  0  0  0  0
    6.6486    0.0175   19.8944 C   0  0  0  0  0  0  0  0  0  0  0  0
    7.3584   -0.6857   20.9534 C   0  0  0  0  0  0  0  0  0  0  0  0
    6.8204   -1.2012   22.0976 C   0  0  0  0  0  0  0  0  0  0  0  0
    5.7736   -1.1724   22.3220 H   0  0  0  0  0  0  0  0  0  0  0  0
    7.8230   -1.8010   22.8602 N   0  0  0  0  0  0  0  0  0  0  0  0
    7.6374   -2.4283   24.0956 C   0  0  0  0  0  0  0  0  0  0  0  0
    8.2624   -3.6513   24.3670 C   0  0  0  0  0  0  0  0  0  0  0  0
    8.8755   -4.1174   23.6048 H   0  0  0  0  0  0  0  0  0  0  0  0
    8.0786   -4.2904   25.5999 C   0  0  0  0  0  0  0  0  0  0  0  0
    8.5483   -5.2458   25.8081 H   0  0  0  0  0  0  0  0  0  0  0  0
    7.2714   -3.7197   26.5827 C   0  0  0  0  0  0  0  0  0  0  0  0
    7.0132   -4.6789   28.2203 Br  0  0  0  0  0  0  0  0  0  0  0  0
    6.6482   -2.4889   26.3307 C   0  0  0  0  0  0  0  0  0  0  0  0
    6.0243   -2.0344   27.0945 H   0  0  0  0  0  0  0  0  0  0  0  0
    6.8210   -1.8547   25.0866 C   0  0  0  0  0  0  0  0  0  0  0  0
    6.3352   -0.9047   24.8882 H   0  0  0  0  0  0  0  0  0  0  0  0
    9.0241   -1.6310   22.1745 C   0  0  0  0  0  0  0  0  0  0  0  0
   10.5776   -2.0020   22.6494 S   0  0  0  0  0  0  0  0  0  0  0  0
    8.7016   -0.9926   20.9893 N   0  0  0  0  0  0  0  0  0  0  0  0
    9.3851   -0.6317   20.3401 H   0  0  0  0  0  0  0  0  0  0  0  0
    5.4285    0.6468   20.1516 C   0  0  0  0  0  0  0  0  0  0  0  0
    4.9996    0.6359   21.1571 H   0  0  0  0  0  0  0  0  0  0  0  0
    4.8122    1.3053   19.0912 C   0  0  0  0  0  0  0  0  0  0  0  0
    3.8805    1.8332   19.2523 H   0  0  0  0  0  0  0  0  0  0  0  0
  1  2  1  0
  2  3  2  0
  3  4  1  0
  4  5  1  0
  4  6  2  0
  6  7  1  0
  7  8  2  0
  8  9  1  0
  8 10  1  0
 10 11  1  0
 11 12  2  0
 12 13  1  0
 12 14  1  0
 14 15  1  0
 14 16  2  0
 16 17  1  0
 16 18  1  0
 18 19  1  0
 18 20  2  0
 20 21  1  0
 10 22  1  0
 22 23  2  0
 22 24  1  0
 24 25  1  0
  6 26  1  0
 26 27  1  0
 26 28  2  0
 28 29  1  0
 28  2  1  0
 24  7  1  0
 20 11  1  0
M  END
>  <cnnaffinity>  (1) 
-5.57683

>  <filename>  (1) 
S=c1[nH]c(-c2cccnc2)cn1-c1ccc(Br)cc1

$$$$
