
     RDKit          3D

 33 36  0  0  0  0  0  0  0  0999 V2000
    4.9359    1.8247   16.9741 H   0  0  0  0  0  0  0  0  0  0  0  0
    5.3916    1.2956   17.8112 C   0  0  0  0  0  0  0  0  0  0  0  0
    6.5448    0.6527   17.5582 N   0  0  0  0  0  0  0  0  0  0  0  0
    7.1679    0.0335   18.5711 C   0  0  0  0  0  0  0  0  0  0  0  0
    8.1185   -0.4521   18.3469 H   0  0  0  0  0  0  0  0  0  0  0  0
    6.6522    0.0008   19.8818 C   0  0  0  0  0  0  0  0  0  0  0  0
    7.3113   -0.6804   20.9535 N   0  0  0  0  0  0  0  0  0  0  0  0
    6.6861   -1.5930   21.8012 C   0  0  0  0  0  0  0  0  0  0  0  0
    5.6369   -1.8167   21.6657 H   0  0  0  0  0  0  0  0  0  0  0  0
    7.6059   -2.0518   22.6921 C   0  0  0  0  0  0  0  0  0  0  0  0
    7.4725   -2.9464   23.8491 C   0  0  0  0  0  0  0  0  0  0  0  0
    6.2850   -2.9225   24.5883 C   0  0  0  0  0  0  0  0  0  0  0  0
    5.5163   -2.1930   24.3403 H   0  0  0  0  0  0  0  0  0  0  0  0
    6.0867   -3.7814   25.6843 C   0  0  0  0  0  0  0  0  0  0  0  0
    5.1667   -3.7132   26.2506 H   0  0  0  0  0  0  0  0  0  0  0  0
    7.0534   -4.6974   26.0768 C   0  0  0  0  0  0  0  0  0  0  0  0
    6.8879   -5.3608   26.9193 H   0  0  0  0  0  0  0  0  0  0  0  0
    8.2577   -4.7083   25.3648 C   0  0  0  0  0  0  0  0  0  0  0  0
    8.5041   -3.8388   24.2673 C   0  0  0  0  0  0  0  0  0  0  0  0
    9.8496   -4.1158   23.8476 C   0  0  0  0  0  0  0  0  0  0  0  0
   10.3765   -3.6654   23.0196 H   0  0  0  0  0  0  0  0  0  0  0  0
   10.3481   -5.0888   24.6618 C   0  0  0  0  0  0  0  0  0  0  0  0
   11.3301   -5.5364   24.6683 H   0  0  0  0  0  0  0  0  0  0  0  0
    9.3881   -5.4575   25.5704 N   0  0  0  0  0  0  0  0  0  0  0  0
    9.4620   -6.2171   26.2273 H   0  0  0  0  0  0  0  0  0  0  0  0
    8.7847   -1.4007   22.3521 N   0  0  0  0  0  0  0  0  0  0  0  0
    9.6430   -1.3421   22.8717 H   0  0  0  0  0  0  0  0  0  0  0  0
    8.6140   -0.4870   21.3666 C   0  0  0  0  0  0  0  0  0  0  0  0
    9.7736    0.6022   20.8919 S   0  0  0  0  0  0  0  0  0  0  0  0
    5.4417    0.6559   20.1274 C   0  0  0  0  0  0  0  0  0  0  0  0
    5.0424    0.6558   21.1394 H   0  0  0  0  0  0  0  0  0  0  0  0
    4.7982    1.3175   19.0778 C   0  0  0  0  0  0  0  0  0  0  0  0
    3.8696    1.8576   19.2353 H   0  0  0  0  0  0  0  0  0  0  0  0
  1  2  1  0
  2  3  2  0
  3  4  1  0
  4  5  1  0
  4  6  2  0
  6  7  1  0
  7  8  1  0
  8  9  1  0
  8 10  2  0
 10 11  1  0
 11 12  2  0
 12 13  1  0
 12 14  1  0
 14 15  1  0
 14 16  2  0
 16 17  1  0
 16 18  1  0
 18 19  2  0
 19 20  1  0
 20 21  1  0
 20 22  2  0
 22 23  1  0
 22 24  1  0
 24 25  1  0
 10 26  1  0
 26 27  1  0
 26 28  1  0
 28 29  2  0
  6 30  1  0
 30 31  1  0
 30 32  2  0
 32 33  1  0
 32  2  1  0
 28  7  1  0
 19 11  1  0
 24 18  1  0
M  END
>  <cnnaffinity>  (1) 
-5.55984

>  <filename>  (1) 
S=c1[nH]c(-c2cccc3[nH]ccc23)cn1-c1cccnc1

$$$$
