
     RDKit          3D

 26 28  0  0  0  0  0  0  0  0999 V2000
    4.9154    1.7940   16.9784 H   0  0  0  0  0  0  0  0  0  0  0  0
    5.3935    1.3012   17.8221 C   0  0  0  0  0  0  0  0  0  0  0  0
    6.5589    0.6854   17.5614 N   0  0  0  0  0  0  0  0  0  0  0  0
    7.1725    0.0728   18.5819 C   0  0  0  0  0  0  0  0  0  0  0  0
    8.1100   -0.4242   18.3384 H   0  0  0  0  0  0  0  0  0  0  0  0
    6.6650    0.0198   19.8935 C   0  0  0  0  0  0  0  0  0  0  0  0
    7.3401   -0.6989   20.9716 C   0  0  0  0  0  0  0  0  0  0  0  0
    6.8217   -1.2304   22.0951 C   0  0  0  0  0  0  0  0  0  0  0  0
    5.8055   -1.2852   22.4007 H   0  0  0  0  0  0  0  0  0  0  0  0
    7.8414   -1.7949   22.8418 N   0  0  0  0  0  0  0  0  0  0  0  0
    7.6192   -2.4600   24.0673 C   0  0  0  0  0  0  0  0  0  0  0  0
    6.5690   -2.2580   24.9982 C   0  0  0  0  0  0  0  0  0  0  0  0
    5.7379   -1.5666   24.9693 H   0  0  0  0  0  0  0  0  0  0  0  0
    6.7112   -3.0642   26.0396 N   0  0  0  0  0  0  0  0  0  0  0  0
    7.8181   -3.7685   25.7853 N   0  0  0  0  0  0  0  0  0  0  0  0
    8.1052   -4.4645   26.4588 H   0  0  0  0  0  0  0  0  0  0  0  0
    8.4018   -3.4517   24.6137 C   0  0  0  0  0  0  0  0  0  0  0  0
    9.3125   -3.9033   24.2503 H   0  0  0  0  0  0  0  0  0  0  0  0
    9.0439   -1.6040   22.1849 C   0  0  0  0  0  0  0  0  0  0  0  0
   10.6120   -1.9760   22.5845 S   0  0  0  0  0  0  0  0  0  0  0  0
    8.6960   -0.9684   21.0309 N   0  0  0  0  0  0  0  0  0  0  0  0
    9.4193   -0.6602   20.4088 H   0  0  0  0  0  0  0  0  0  0  0  0
    5.4363    0.6622   20.1388 C   0  0  0  0  0  0  0  0  0  0  0  0
    5.0092    0.6510   21.1425 H   0  0  0  0  0  0  0  0  0  0  0  0
    4.7981    1.3201   19.0888 C   0  0  0  0  0  0  0  0  0  0  0  0
    3.8653    1.8506   19.2417 H   0  0  0  0  0  0  0  0  0  0  0  0
  1  2  1  0
  2  3  2  0
  3  4  1  0
  4  5  1  0
  4  6  2  0
  6  7  1  0
  7  8  2  0
  8  9  1  0
  8 10  1  0
 10 11  1  0
 11 12  1  0
 12 13  1  0
 12 14  2  0
 14 15  1  0
 15 16  1  0
 15 17  1  0
 17 18  1  0
 10 19  1  0
 19 20  2  0
 19 21  1  0
 21 22  1  0
  6 23  1  0
 23 24  1  0
 23 25  2  0
 25 26  1  0
 25  2  1  0
 21  7  1  0
 17 11  2  0
M  END
>  <cnnaffinity>  (1) 
-5.24605

>  <filename>  (1) 
S=c1[nH]c(-c2cccnc2)cn1-c1cn[nH]c1

$$$$
