
     RDKit          3D

 29 31  0  0  0  0  0  0  0  0999 V2000
    4.9166    1.8020   16.9691 H   0  0  0  0  0  0  0  0  0  0  0  0
    5.3907    1.3049   17.8145 C   0  0  0  0  0  0  0  0  0  0  0  0
    6.5553    0.6872   17.5562 N   0  0  0  0  0  0  0  0  0  0  0  0
    7.1701    0.0752   18.5769 C   0  0  0  0  0  0  0  0  0  0  0  0
    8.1061   -0.4202   18.3251 H   0  0  0  0  0  0  0  0  0  0  0  0
    6.6681    0.0259   19.8914 C   0  0  0  0  0  0  0  0  0  0  0  0
    7.3449   -0.6864   20.9792 C   0  0  0  0  0  0  0  0  0  0  0  0
    6.8249   -1.2061   22.1089 C   0  0  0  0  0  0  0  0  0  0  0  0
    5.8091   -1.2989   22.4137 H   0  0  0  0  0  0  0  0  0  0  0  0
    7.8425   -1.7926   22.8448 N   0  0  0  0  0  0  0  0  0  0  0  0
    7.6560   -2.4356   24.1044 C   0  0  0  0  0  0  0  0  0  0  0  0
    8.3492   -1.9382   25.2170 C   0  0  0  0  0  0  0  0  0  0  0  0
    9.0101   -1.0894   25.0660 H   0  0  0  0  0  0  0  0  0  0  0  0
    8.1950   -2.5313   26.4696 C   0  0  0  0  0  0  0  0  0  0  0  0
    8.7475   -2.1398   27.3161 H   0  0  0  0  0  0  0  0  0  0  0  0
    7.3471   -3.6311   26.6243 C   0  0  0  0  0  0  0  0  0  0  0  0
    7.2289   -4.1019   27.5961 H   0  0  0  0  0  0  0  0  0  0  0  0
    6.6509   -4.1352   25.5255 C   0  0  0  0  0  0  0  0  0  0  0  0
    5.9851   -4.9858   25.6232 H   0  0  0  0  0  0  0  0  0  0  0  0
    6.7982   -3.5446   24.2676 C   0  0  0  0  0  0  0  0  0  0  0  0
    5.9094   -4.2478   22.9450 Cl  0  0  0  0  0  0  0  0  0  0  0  0
    9.0363   -1.6446   22.1718 C   0  0  0  0  0  0  0  0  0  0  0  0
   10.5743   -2.1246   22.5583 S   0  0  0  0  0  0  0  0  0  0  0  0
    8.6944   -0.9888   21.0287 N   0  0  0  0  0  0  0  0  0  0  0  0
    9.4257   -0.7043   20.4009 H   0  0  0  0  0  0  0  0  0  0  0  0
    5.4391    0.6672   20.1327 C   0  0  0  0  0  0  0  0  0  0  0  0
    5.0120    0.6605   21.1361 H   0  0  0  0  0  0  0  0  0  0  0  0
    4.7966    1.3222   19.0814 C   0  0  0  0  0  0  0  0  0  0  0  0
    3.8628    1.8520   19.2326 H   0  0  0  0  0  0  0  0  0  0  0  0
  1  2  1  0
  2  3  2  0
  3  4  1  0
  4  5  1  0
  4  6  2  0
  6  7  1  0
  7  8  2  0
  8  9  1  0
  8 10  1  0
 10 11  1  0
 11 12  2  0
 12 13  1  0
 12 14  1  0
 14 15  1  0
 14 16  2  0
 16 17  1  0
 16 18  1  0
 18 19  1  0
 18 20  2  0
 20 21  1  0
 10 22  1  0
 22 23  2  0
 22 24  1  0
 24 25  1  0
  6 26  1  0
 26 27  1  0
 26 28  2  0
 28 29  1  0
 28  2  1  0
 24  7  1  0
 20 11  1  0
M  END
>  <cnnaffinity>  (1) 
-5.78428

>  <filename>  (1) 
S=c1[nH]c(-c2cccnc2)cn1-c1ccccc1Cl

$$$$
