
     RDKit          3D

 37 39  0  0  0  0  0  0  0  0999 V2000
    5.0827    2.1628   17.0849 H   0  0  0  0  0  0  0  0  0  0  0  0
    5.4756    1.3998   17.7554 C   0  0  0  0  0  0  0  0  0  0  0  0
    6.5869    0.7687   17.3412 N   0  0  0  0  0  0  0  0  0  0  0  0
    7.1235   -0.1394   18.1621 C   0  0  0  0  0  0  0  0  0  0  0  0
    8.0187   -0.6494   17.8138 H   0  0  0  0  0  0  0  0  0  0  0  0
    6.5908   -0.4783   19.4208 C   0  0  0  0  0  0  0  0  0  0  0  0
    7.2969   -1.3939   20.2645 N   0  0  0  0  0  0  0  0  0  0  0  0
    8.6705   -1.2748   20.5028 C   0  0  0  0  0  0  0  0  0  0  0  0
    9.2761   -0.5800   19.9353 H   0  0  0  0  0  0  0  0  0  0  0  0
    9.0164   -2.1399   21.4816 C   0  0  0  0  0  0  0  0  0  0  0  0
   10.2525   -2.1874   22.3494 C   0  0  0  0  0  0  0  0  0  0  0  0
   11.1180   -1.9043   21.7195 H   0  0  0  0  0  0  0  0  0  0  0  0
   10.4290   -3.2172   22.6776 H   0  0  0  0  0  0  0  0  0  0  0  0
   10.1176   -1.3717   23.5666 N   0  0  0  0  0  0  0  0  0  0  0  0
   10.8762   -1.5619   24.2161 H   0  0  0  0  0  0  0  0  0  0  0  0
   10.0193    0.0783   23.4004 C   0  0  0  0  0  0  0  0  0  0  0  0
    9.2945    0.2855   22.5988 H   0  0  0  0  0  0  0  0  0  0  0  0
    9.5720    0.7175   24.7248 C   0  0  0  0  0  0  0  0  0  0  0  0
    9.1184    1.6958   24.5138 H   0  0  0  0  0  0  0  0  0  0  0  0
    8.8222    0.1019   25.2334 H   0  0  0  0  0  0  0  0  0  0  0  0
   10.8585    0.8921   25.5576 C   0  0  0  0  0  0  0  0  0  0  0  0
   10.7961    1.7813   26.1909 H   0  0  0  0  0  0  0  0  0  0  0  0
   10.9791    0.0485   26.2466 H   0  0  0  0  0  0  0  0  0  0  0  0
   12.0247    0.9321   24.5328 C   0  0  0  0  0  0  0  0  0  0  0  0
   12.6984    0.0884   24.7198 H   0  0  0  0  0  0  0  0  0  0  0  0
   12.6325    1.8422   24.5994 H   0  0  0  0  0  0  0  0  0  0  0  0
   11.3724    0.7809   23.1387 C   0  0  0  0  0  0  0  0  0  0  0  0
   11.1809    1.7678   22.6939 H   0  0  0  0  0  0  0  0  0  0  0  0
   12.0186    0.2307   22.4410 H   0  0  0  0  0  0  0  0  0  0  0  0
    7.8529   -2.8500   21.7553 N   0  0  0  0  0  0  0  0  0  0  0  0
    7.6921   -3.6332   22.3699 H   0  0  0  0  0  0  0  0  0  0  0  0
    6.7834   -2.4176   21.0433 C   0  0  0  0  0  0  0  0  0  0  0  0
    5.2855   -3.1357   21.1941 S   0  0  0  0  0  0  0  0  0  0  0  0
    5.4094    0.1484   19.8282 C   0  0  0  0  0  0  0  0  0  0  0  0
    4.9448   -0.1072   20.7819 H   0  0  0  0  0  0  0  0  0  0  0  0
    4.8557    1.1138   18.9772 C   0  0  0  0  0  0  0  0  0  0  0  0
    3.9647    1.6646   19.2534 H   0  0  0  0  0  0  0  0  0  0  0  0
  1  2  1  0
  2  3  2  0
  3  4  1  0
  4  5  1  0
  4  6  2  0
  6  7  1  0
  7  8  1  0
  8  9  1  0
  8 10  2  0
 10 11  1  0
 11 12  1  0
 11 13  1  0
 11 14  1  0
 14 15  1  0
 14 16  1  0
 16 17  1  0
 16 18  1  0
 18 19  1  0
 18 20  1  0
 18 21  1  0
 21 22  1  0
 21 23  1  0
 21 24  1  0
 24 25  1  0
 24 26  1  0
 24 27  1  0
 27 28  1  0
 27 29  1  0
 10 30  1  0
 30 31  1  0
 30 32  1  0
 32 33  2  0
  6 34  1  0
 34 35  1  0
 34 36  2  0
 36 37  1  0
 36  2  1  0
 32  7  1  0
 27 16  1  0
M  END
>  <cnnaffinity>  (1) 
-4.76295

>  <filename>  (1) 
S=c1[nH]c(CNC2CCCC2)cn1-c1cccnc1

$$$$
