
     RDKit          3D

 31 33  0  0  0  0  0  0  0  0999 V2000
    5.0491    1.8466   16.8840 H   0  0  0  0  0  0  0  0  0  0  0  0
    5.4844    1.2963   17.7120 C   0  0  0  0  0  0  0  0  0  0  0  0
    6.6566    0.6859   17.4694 N   0  0  0  0  0  0  0  0  0  0  0  0
    7.2351    0.0298   18.4817 C   0  0  0  0  0  0  0  0  0  0  0  0
    8.1745   -0.4817   18.2752 H   0  0  0  0  0  0  0  0  0  0  0  0
    6.6676   -0.0474   19.7659 C   0  0  0  0  0  0  0  0  0  0  0  0
    7.3501   -0.6908   20.8367 N   0  0  0  0  0  0  0  0  0  0  0  0
    8.5236   -0.2229   21.4154 C   0  0  0  0  0  0  0  0  0  0  0  0
    8.9881    0.6827   21.0612 H   0  0  0  0  0  0  0  0  0  0  0  0
    8.8329   -1.0343   22.4559 C   0  0  0  0  0  0  0  0  0  0  0  0
   10.1340   -1.2067   23.2029 C   0  0  1  0  0  0  0  0  0  0  0  0
   10.7155   -0.2920   23.0437 H   0  0  0  0  0  0  0  0  0  0  0  0
   10.0338   -1.5087   24.6342 N   0  0  0  0  0  0  0  0  0  0  0  0
    9.3349   -0.9206   25.0849 H   0  0  0  0  0  0  0  0  0  0  0  0
    9.7035   -2.9288   24.7851 C   0  0  0  0  0  0  0  0  0  0  0  0
    8.6195   -3.1230   24.8962 H   0  0  0  0  0  0  0  0  0  0  0  0
   10.1670   -3.3217   25.6947 H   0  0  0  0  0  0  0  0  0  0  0  0
   10.3026   -3.5941   23.5315 C   0  0  0  0  0  0  0  0  0  0  0  0
   11.0901   -4.2945   23.8155 H   0  0  0  0  0  0  0  0  0  0  0  0
    9.5270   -4.1467   22.9901 H   0  0  0  0  0  0  0  0  0  0  0  0
   10.8756   -2.4483   22.6747 C   0  0  0  0  0  0  0  0  0  0  0  0
   11.9522   -2.3442   22.8184 H   0  0  0  0  0  0  0  0  0  0  0  0
   10.7161   -2.5789   21.5989 H   0  0  0  0  0  0  0  0  0  0  0  0
    7.7875   -1.9601   22.5092 N   0  0  0  0  0  0  0  0  0  0  0  0
    7.6057   -2.6575   23.2058 H   0  0  0  0  0  0  0  0  0  0  0  0
    6.8887   -1.7953   21.5088 C   0  0  0  0  0  0  0  0  0  0  0  0
    5.5854   -2.7831   21.2000 S   0  0  0  0  0  0  0  0  0  0  0  0
    5.4150    0.5284   19.9919 C   0  0  0  0  0  0  0  0  0  0  0  0
    4.9475    0.4230   20.9719 H   0  0  0  0  0  0  0  0  0  0  0  0
    4.8233    1.2362   18.9456 C   0  0  0  0  0  0  0  0  0  0  0  0
    3.8772    1.7479   19.0844 H   0  0  0  0  0  0  0  0  0  0  0  0
  1  2  1  0
  2  3  2  0
  3  4  1  0
  4  5  1  0
  4  6  2  0
  6  7  1  0
  7  8  1  0
  8  9  1  0
  8 10  2  0
 10 11  1  0
 11 12  1  1
 11 13  1  0
 13 14  1  0
 13 15  1  0
 15 16  1  0
 15 17  1  0
 15 18  1  0
 18 19  1  0
 18 20  1  0
 18 21  1  0
 21 22  1  0
 21 23  1  0
 10 24  1  0
 24 25  1  0
 24 26  1  0
 26 27  2  0
  6 28  1  0
 28 29  1  0
 28 30  2  0
 30 31  1  0
 30  2  1  0
 26  7  1  0
 21 11  1  0
M  END
>  <cnnaffinity>  (1) 
-4.87307

>  <filename>  (1) 
S=c1[nH]c([C@@H]2CCCN2)cn1-c1cccnc1

$$$$
