
     RDKit          3D

 40 42  0  0  0  0  0  0  0  0999 V2000
    5.6006   -1.7049   21.8352 H   0  0  0  0  0  0  0  0  0  0  0  0
    6.6687   -1.5864   21.8470 C   0  0  0  0  0  0  0  0  0  0  0  0
    7.3183   -0.8083   20.9578 C   0  0  0  0  0  0  0  0  0  0  0  0
    6.6662   -0.0029   19.9088 C   0  0  0  0  0  0  0  0  0  0  0  0
    7.2168    0.0770   18.6135 C   0  0  0  0  0  0  0  0  0  0  0  0
    8.1609   -0.4142   18.3889 H   0  0  0  0  0  0  0  0  0  0  0  0
    6.6397    0.7025   17.5826 N   0  0  0  0  0  0  0  0  0  0  0  0
    5.4690    1.3156   17.8167 C   0  0  0  0  0  0  0  0  0  0  0  0
    5.0112    1.8146   16.9652 H   0  0  0  0  0  0  0  0  0  0  0  0
    4.8458    1.3358   19.0700 C   0  0  0  0  0  0  0  0  0  0  0  0
    3.9108    1.8714   19.1904 H   0  0  0  0  0  0  0  0  0  0  0  0
    5.4517    0.6723   20.1377 C   0  0  0  0  0  0  0  0  0  0  0  0
    5.0054    0.7084   21.1353 H   0  0  0  0  0  0  0  0  0  0  0  0
    8.7119   -0.7828   20.9995 N   0  0  0  0  0  0  0  0  0  0  0  0
    9.2231   -0.0571   20.5282 H   0  0  0  0  0  0  0  0  0  0  0  0
    9.4710   -1.3919   21.9487 C   0  0  0  0  0  0  0  0  0  0  0  0
   11.0925   -1.1044   22.0702 S   0  0  0  0  0  0  0  0  0  0  0  0
    8.8299   -2.2434   22.7659 N   0  0  0  0  0  0  0  0  0  0  0  0
    9.2487   -2.2990   23.6793 H   0  0  0  0  0  0  0  0  0  0  0  0
    7.4071   -2.2619   22.9488 C   0  0  1  0  0  0  0  0  0  0  0  0
    7.0419   -3.3034   23.0496 H   0  0  0  0  0  0  0  0  0  0  0  0
    7.3552   -1.6357   24.2728 N   0  0  0  0  0  0  0  0  0  0  0  0
    7.6472   -0.6722   24.1282 H   0  0  0  0  0  0  0  0  0  0  0  0
    6.0695   -1.7306   24.9588 C   0  0  0  0  0  0  0  0  0  0  0  0
    5.3042   -2.0675   24.2457 H   0  0  0  0  0  0  0  0  0  0  0  0
    6.0793   -2.8303   26.0292 C   0  0  0  0  0  0  0  0  0  0  0  0
    6.8100   -2.5730   26.8093 H   0  0  0  0  0  0  0  0  0  0  0  0
    6.4136   -3.7707   25.5740 H   0  0  0  0  0  0  0  0  0  0  0  0
    4.6644   -2.9811   26.6088 C   0  0  0  0  0  0  0  0  0  0  0  0
    4.6220   -3.8031   27.3308 H   0  0  0  0  0  0  0  0  0  0  0  0
    3.9846   -3.2547   25.7843 H   0  0  0  0  0  0  0  0  0  0  0  0
    4.1819   -1.6649   27.2352 C   0  0  0  0  0  0  0  0  0  0  0  0
    4.8236   -1.4232   28.0956 H   0  0  0  0  0  0  0  0  0  0  0  0
    3.1620   -1.7896   27.6178 H   0  0  0  0  0  0  0  0  0  0  0  0
    4.2307   -0.5038   26.2258 C   0  0  0  0  0  0  0  0  0  0  0  0
    3.9752    0.4409   26.7227 H   0  0  0  0  0  0  0  0  0  0  0  0
    3.4619   -0.6718   25.4558 H   0  0  0  0  0  0  0  0  0  0  0  0
    5.6040   -0.3842   25.5350 C   0  0  0  0  0  0  0  0  0  0  0  0
    6.3518   -0.0082   26.2508 H   0  0  0  0  0  0  0  0  0  0  0  0
    5.5454    0.3505   24.7213 H   0  0  0  0  0  0  0  0  0  0  0  0
  1  2  1  0
  2  3  2  0
  3  4  1  0
  4  5  2  0
  5  6  1  0
  5  7  1  0
  7  8  2  0
  8  9  1  0
  8 10  1  0
 10 11  1  0
 10 12  2  0
 12 13  1  0
  3 14  1  0
 14 15  1  0
 14 16  1  0
 16 17  2  0
 16 18  1  0
 18 19  1  0
 18 20  1  0
 20 21  1  1
 20 22  1  0
 22 23  1  0
 22 24  1  0
 24 25  1  0
 24 26  1  0
 26 27  1  0
 26 28  1  0
 26 29  1  0
 29 30  1  0
 29 31  1  0
 29 32  1  0
 32 33  1  0
 32 34  1  0
 32 35  1  0
 35 36  1  0
 35 37  1  0
 35 38  1  0
 38 39  1  0
 38 40  1  0
 20  2  1  0
 38 24  1  0
 12  4  1  0
M  END
>  <cnnaffinity>  (1) 
-4.66531

>  <filename>  (1) 
S=C1NC(c2cccnc2)=C[C@H](NC2CCCCC2)N1

$$$$
