
     RDKit          3D

 35 37  0  0  0  0  0  0  0  0999 V2000
    4.9164    1.8015   16.9699 H   0  0  0  0  0  0  0  0  0  0  0  0
    5.3909    1.3050   17.8154 C   0  0  0  0  0  0  0  0  0  0  0  0
    6.5558    0.6872   17.5579 N   0  0  0  0  0  0  0  0  0  0  0  0
    7.1704    0.0747   18.5784 C   0  0  0  0  0  0  0  0  0  0  0  0
    8.1065   -0.4205   18.3255 H   0  0  0  0  0  0  0  0  0  0  0  0
    6.6665    0.0229   19.8915 C   0  0  0  0  0  0  0  0  0  0  0  0
    7.3388   -0.6963   20.9762 C   0  0  0  0  0  0  0  0  0  0  0  0
    6.8159   -1.2306   22.0968 C   0  0  0  0  0  0  0  0  0  0  0  0
    5.7973   -1.2965   22.3982 H   0  0  0  0  0  0  0  0  0  0  0  0
    7.8331   -1.8082   22.8384 N   0  0  0  0  0  0  0  0  0  0  0  0
    7.6055   -2.4778   24.1255 C   0  0  0  0  0  0  0  0  0  0  0  0
    6.5213   -2.3982   24.2930 H   0  0  0  0  0  0  0  0  0  0  0  0
    7.9669   -3.9708   24.0590 C   0  0  0  0  0  0  0  0  0  0  0  0
    9.0278   -4.0549   23.7843 H   0  0  0  0  0  0  0  0  0  0  0  0
    7.3853   -4.4413   23.2577 H   0  0  0  0  0  0  0  0  0  0  0  0
    7.7053   -4.6661   25.4055 C   0  0  0  0  0  0  0  0  0  0  0  0
    6.6225   -4.6828   25.6094 H   0  0  0  0  0  0  0  0  0  0  0  0
    8.0190   -5.7150   25.3490 H   0  0  0  0  0  0  0  0  0  0  0  0
    8.4297   -3.9490   26.5590 C   0  0  0  0  0  0  0  0  0  0  0  0
    8.2126   -4.4427   27.5155 H   0  0  0  0  0  0  0  0  0  0  0  0
    9.5168   -4.0361   26.4068 H   0  0  0  0  0  0  0  0  0  0  0  0
    8.0523   -2.4586   26.6235 C   0  0  0  0  0  0  0  0  0  0  0  0
    6.9873   -2.3633   26.8899 H   0  0  0  0  0  0  0  0  0  0  0  0
    8.6104   -1.9553   27.4214 H   0  0  0  0  0  0  0  0  0  0  0  0
    8.3153   -1.7540   25.2817 C   0  0  0  0  0  0  0  0  0  0  0  0
    9.3925   -1.7340   25.0655 H   0  0  0  0  0  0  0  0  0  0  0  0
    7.9717   -0.7134   25.3146 H   0  0  0  0  0  0  0  0  0  0  0  0
    9.0173   -1.6415   22.1840 C   0  0  0  0  0  0  0  0  0  0  0  0
   10.5833   -2.0805   22.5586 S   0  0  0  0  0  0  0  0  0  0  0  0
    8.6885   -0.9809   21.0404 N   0  0  0  0  0  0  0  0  0  0  0  0
    9.4305   -0.6932   20.4264 H   0  0  0  0  0  0  0  0  0  0  0  0
    5.4384    0.6664   20.1332 C   0  0  0  0  0  0  0  0  0  0  0  0
    5.0106    0.6557   21.1359 H   0  0  0  0  0  0  0  0  0  0  0  0
    4.7967    1.3229   19.0819 C   0  0  0  0  0  0  0  0  0  0  0  0
    3.8629    1.8524   19.2327 H   0  0  0  0  0  0  0  0  0  0  0  0
  1  2  1  0
  2  3  2  0
  3  4  1  0
  4  5  1  0
  4  6  2  0
  6  7  1  0
  7  8  2  0
  8  9  1  0
  8 10  1  0
 10 11  1  0
 11 12  1  0
 11 13  1  0
 13 14  1  0
 13 15  1  0
 13 16  1  0
 16 17  1  0
 16 18  1  0
 16 19  1  0
 19 20  1  0
 19 21  1  0
 19 22  1  0
 22 23  1  0
 22 24  1  0
 22 25  1  0
 25 26  1  0
 25 27  1  0
 10 28  1  0
 28 29  2  0
 28 30  1  0
 30 31  1  0
  6 32  1  0
 32 33  1  0
 32 34  2  0
 34 35  1  0
 34  2  1  0
 30  7  1  0
 25 11  1  0
M  END
>  <cnnaffinity>  (1) 
-5.60339

>  <filename>  (1) 
S=c1[nH]c(-c2cccnc2)cn1C1CCCCC1

$$$$
