
     RDKit          3D

 29 31  0  0  0  0  0  0  0  0999 V2000
    4.9181    1.8025   16.9683 H   0  0  0  0  0  0  0  0  0  0  0  0
    5.3915    1.3047   17.8147 C   0  0  0  0  0  0  0  0  0  0  0  0
    6.5563    0.6864   17.5597 N   0  0  0  0  0  0  0  0  0  0  0  0
    7.1702    0.0721   18.5802 C   0  0  0  0  0  0  0  0  0  0  0  0
    8.1064   -0.4217   18.3259 H   0  0  0  0  0  0  0  0  0  0  0  0
    6.6665    0.0176   19.8934 C   0  0  0  0  0  0  0  0  0  0  0  0
    7.3390   -0.7060   20.9793 C   0  0  0  0  0  0  0  0  0  0  0  0
    6.8212   -1.2332   22.1059 C   0  0  0  0  0  0  0  0  0  0  0  0
    5.8039   -1.2995   22.4095 H   0  0  0  0  0  0  0  0  0  0  0  0
    7.8421   -1.7896   22.8613 N   0  0  0  0  0  0  0  0  0  0  0  0
    7.6398   -2.4434   24.1153 C   0  0  0  0  0  0  0  0  0  0  0  0
    8.2497   -3.6779   24.3571 C   0  0  0  0  0  0  0  0  0  0  0  0
    8.8777   -4.1167   23.5883 H   0  0  0  0  0  0  0  0  0  0  0  0
    8.0691   -4.3069   25.5885 C   0  0  0  0  0  0  0  0  0  0  0  0
    8.5480   -5.2528   25.8118 H   0  0  0  0  0  0  0  0  0  0  0  0
    7.2702   -3.7060   26.5622 C   0  0  0  0  0  0  0  0  0  0  0  0
    7.0421   -4.5461   28.0666 Cl  0  0  0  0  0  0  0  0  0  0  0  0
    6.6497   -2.4759   26.3290 C   0  0  0  0  0  0  0  0  0  0  0  0
    6.0278   -2.0289   27.0972 H   0  0  0  0  0  0  0  0  0  0  0  0
    6.8299   -1.8477   25.0925 C   0  0  0  0  0  0  0  0  0  0  0  0
    6.3523   -0.8935   24.8792 H   0  0  0  0  0  0  0  0  0  0  0  0
    9.0391   -1.6071   22.2027 C   0  0  0  0  0  0  0  0  0  0  0  0
   10.6087   -1.9781   22.5977 S   0  0  0  0  0  0  0  0  0  0  0  0
    8.6930   -0.9768   21.0464 N   0  0  0  0  0  0  0  0  0  0  0  0
    9.4276   -0.6699   20.4328 H   0  0  0  0  0  0  0  0  0  0  0  0
    5.4395    0.6651   20.1323 C   0  0  0  0  0  0  0  0  0  0  0  0
    5.0095    0.6603   21.1338 H   0  0  0  0  0  0  0  0  0  0  0  0
    4.7977    1.3221   19.0814 C   0  0  0  0  0  0  0  0  0  0  0  0
    3.8637    1.8522   19.2310 H   0  0  0  0  0  0  0  0  0  0  0  0
  1  2  1  0
  2  3  2  0
  3  4  1  0
  4  5  1  0
  4  6  2  0
  6  7  1  0
  7  8  2  0
  8  9  1  0
  8 10  1  0
 10 11  1  0
 11 12  2  0
 12 13  1  0
 12 14  1  0
 14 15  1  0
 14 16  2  0
 16 17  1  0
 16 18  1  0
 18 19  1  0
 18 20  2  0
 20 21  1  0
 10 22  1  0
 22 23  2  0
 22 24  1  0
 24 25  1  0
  6 26  1  0
 26 27  1  0
 26 28  2  0
 28 29  1  0
 28  2  1  0
 24  7  1  0
 20 11  1  0
M  END
>  <cnnaffinity>  (1) 
-5.53915

>  <filename>  (1) 
S=c1[nH]c(-c2cccnc2)cn1-c1ccc(Cl)cc1

$$$$
