
     RDKit          3D

 27 29  0  0  0  0  0  0  0  0999 V2000
    4.9189    1.8059   16.9651 H   0  0  0  0  0  0  0  0  0  0  0  0
    5.3911    1.3064   17.8116 C   0  0  0  0  0  0  0  0  0  0  0  0
    6.5558    0.6867   17.5593 N   0  0  0  0  0  0  0  0  0  0  0  0
    7.1701    0.0724   18.5769 C   0  0  0  0  0  0  0  0  0  0  0  0
    8.1052   -0.4210   18.3210 H   0  0  0  0  0  0  0  0  0  0  0  0
    6.6678    0.0195   19.8899 C   0  0  0  0  0  0  0  0  0  0  0  0
    7.3447   -0.7007   20.9714 C   0  0  0  0  0  0  0  0  0  0  0  0
    6.8284   -1.2287   22.0968 C   0  0  0  0  0  0  0  0  0  0  0  0
    5.8138   -1.3086   22.4114 H   0  0  0  0  0  0  0  0  0  0  0  0
    7.8513   -1.7898   22.8469 N   0  0  0  0  0  0  0  0  0  0  0  0
    7.6469   -2.4525   24.0869 C   0  0  0  0  0  0  0  0  0  0  0  0
    6.8194   -1.8993   25.0915 C   0  0  0  0  0  0  0  0  0  0  0  0
    6.2984   -0.9501   24.9828 H   0  0  0  0  0  0  0  0  0  0  0  0
    6.6560   -2.4931   26.2739 N   0  0  0  0  0  0  0  0  0  0  0  0
    7.2577   -3.6549   26.5387 N   0  0  0  0  0  0  0  0  0  0  0  0
    8.0339   -4.2274   25.6082 C   0  0  0  0  0  0  0  0  0  0  0  0
    8.4879   -5.1654   25.9075 H   0  0  0  0  0  0  0  0  0  0  0  0
    8.2679   -3.6655   24.3469 C   0  0  0  0  0  0  0  0  0  0  0  0
    8.9240   -4.1328   23.6148 H   0  0  0  0  0  0  0  0  0  0  0  0
    9.0489   -1.6089   22.1806 C   0  0  0  0  0  0  0  0  0  0  0  0
   10.6180   -1.9788   22.5790 S   0  0  0  0  0  0  0  0  0  0  0  0
    8.7020   -0.9729   21.0288 N   0  0  0  0  0  0  0  0  0  0  0  0
    9.4383   -0.6630   20.4234 H   0  0  0  0  0  0  0  0  0  0  0  0
    5.4416    0.6671   20.1284 C   0  0  0  0  0  0  0  0  0  0  0  0
    5.0093    0.6642   21.1299 H   0  0  0  0  0  0  0  0  0  0  0  0
    4.7983    1.3223   19.0798 C   0  0  0  0  0  0  0  0  0  0  0  0
    3.8631    1.8531   19.2265 H   0  0  0  0  0  0  0  0  0  0  0  0
  1  2  1  0
  2  3  2  0
  3  4  1  0
  4  5  1  0
  4  6  2  0
  6  7  1  0
  7  8  2  0
  8  9  1  0
  8 10  1  0
 10 11  1  0
 11 12  2  0
 12 13  1  0
 12 14  1  0
 14 15  2  0
 15 16  1  0
 16 17  1  0
 16 18  2  0
 18 19  1  0
 10 20  1  0
 20 21  2  0
 20 22  1  0
 22 23  1  0
  6 24  1  0
 24 25  1  0
 24 26  2  0
 26 27  1  0
 26  2  1  0
 22  7  1  0
 18 11  1  0
M  END
>  <cnnaffinity>  (1) 
-5.39917

>  <filename>  (1) 
S=c1[nH]c(-c2cccnc2)cn1-c1ccnnc1

$$$$
