
     RDKit          3D

 32 34  0  0  0  0  0  0  0  0999 V2000
    4.9818    1.8606   16.8672 H   0  0  0  0  0  0  0  0  0  0  0  0
    5.4593    1.3526   17.7018 C   0  0  0  0  0  0  0  0  0  0  0  0
    6.6117    0.7237   17.4253 N   0  0  0  0  0  0  0  0  0  0  0  0
    7.2212    0.0857   18.4355 C   0  0  0  0  0  0  0  0  0  0  0  0
    8.1399   -0.4304   18.1649 H   0  0  0  0  0  0  0  0  0  0  0  0
    6.7214    0.0361   19.7551 C   0  0  0  0  0  0  0  0  0  0  0  0
    7.3699   -0.7194   20.8346 C   0  0  0  0  0  0  0  0  0  0  0  0
    6.8096   -1.3373   21.9029 C   0  0  0  0  0  0  0  0  0  0  0  0
    5.7706   -1.5020   22.1272 H   0  0  0  0  0  0  0  0  0  0  0  0
    7.8240   -1.8821   22.6815 N   0  0  0  0  0  0  0  0  0  0  0  0
    7.6658   -2.5339   23.9895 C   0  0  0  0  0  0  0  0  0  0  0  0
    6.6334   -2.9053   24.0244 H   0  0  0  0  0  0  0  0  0  0  0  0
    8.3282   -3.4027   24.0249 H   0  0  0  0  0  0  0  0  0  0  0  0
    7.9105   -1.6151   25.1940 C   0  0  0  0  0  0  0  0  0  0  0  0
    7.2431   -0.3778   25.2690 C   0  0  0  0  0  0  0  0  0  0  0  0
    6.5853   -0.0933   24.4516 H   0  0  0  0  0  0  0  0  0  0  0  0
    7.4247    0.4967   26.3432 C   0  0  0  0  0  0  0  0  0  0  0  0
    6.8626    1.4249   26.3981 H   0  0  0  0  0  0  0  0  0  0  0  0
    8.3210    0.1621   27.3603 C   0  0  0  0  0  0  0  0  0  0  0  0
    8.4938    0.8661   28.1661 H   0  0  0  0  0  0  0  0  0  0  0  0
    8.9957   -1.0591   27.3295 C   0  0  0  0  0  0  0  0  0  0  0  0
    9.7142   -1.3216   28.1022 H   0  0  0  0  0  0  0  0  0  0  0  0
    8.7383   -1.9581   26.2838 C   0  0  0  0  0  0  0  0  0  0  0  0
    9.4678   -3.5436   26.4183 Cl  0  0  0  0  0  0  0  0  0  0  0  0
    9.0291   -1.6527   22.0780 C   0  0  0  0  0  0  0  0  0  0  0  0
   10.5505   -2.1548   22.5150 S   0  0  0  0  0  0  0  0  0  0  0  0
    8.7306   -0.9446   20.9553 N   0  0  0  0  0  0  0  0  0  0  0  0
    9.4927   -0.6020   20.3973 H   0  0  0  0  0  0  0  0  0  0  0  0
    5.5130    0.7071   20.0127 C   0  0  0  0  0  0  0  0  0  0  0  0
    5.1037    0.7170   21.0266 H   0  0  0  0  0  0  0  0  0  0  0  0
    4.8671    1.3722   18.9708 C   0  0  0  0  0  0  0  0  0  0  0  0
    3.9273    1.8935   19.1245 H   0  0  0  0  0  0  0  0  0  0  0  0
  1  2  1  0
  2  3  2  0
  3  4  1  0
  4  5  1  0
  4  6  2  0
  6  7  1  0
  7  8  2  0
  8  9  1  0
  8 10  1  0
 10 11  1  0
 11 12  1  0
 11 13  1  0
 11 14  1  0
 14 15  2  0
 15 16  1  0
 15 17  1  0
 17 18  1  0
 17 19  2  0
 19 20  1  0
 19 21  1  0
 21 22  1  0
 21 23  2  0
 23 24  1  0
 10 25  1  0
 25 26  2  0
 25 27  1  0
 27 28  1  0
  6 29  1  0
 29 30  1  0
 29 31  2  0
 31 32  1  0
 31  2  1  0
 27  7  1  0
 23 14  1  0
M  END
>  <cnnaffinity>  (1) 
-5.3469

>  <filename>  (1) 
S=c1[nH]c(-c2cccnc2)cn1Cc1ccccc1Cl

$$$$
