
     RDKit          3D

 19 20  0  0  0  0  0  0  0  0999 V2000
    4.9449    1.8334   16.9309 H   0  0  0  0  0  0  0  0  0  0  0  0
    5.3955    1.3116   17.7690 C   0  0  0  0  0  0  0  0  0  0  0  0
    6.5563    0.6803   17.5267 N   0  0  0  0  0  0  0  0  0  0  0  0
    7.1500    0.0584   18.5578 C   0  0  0  0  0  0  0  0  0  0  0  0
    8.1078   -0.3938   18.3043 H   0  0  0  0  0  0  0  0  0  0  0  0
    6.6259    0.0131   19.8745 C   0  0  0  0  0  0  0  0  0  0  0  0
    7.2969   -0.6135   21.0391 C   0  0  0  0  0  0  0  0  0  0  0  0
    7.1526   -0.3411   22.3739 C   0  0  0  0  0  0  0  0  0  0  0  0
    6.5657    0.3965   22.9083 H   0  0  0  0  0  0  0  0  0  0  0  0
    7.9812   -1.1732   23.0834 N   0  0  0  0  0  0  0  0  0  0  0  0
    8.0652   -1.1526   24.7620 Cl  0  0  0  0  0  0  0  0  0  0  0  0
    8.7058   -1.9824   22.2366 C   0  0  0  0  0  0  0  0  0  0  0  0
    9.8647   -3.0894   22.6096 S   0  0  0  0  0  0  0  0  0  0  0  0
    8.2490   -1.6152   20.9877 N   0  0  0  0  0  0  0  0  0  0  0  0
    8.5290   -2.1340   20.1719 H   0  0  0  0  0  0  0  0  0  0  0  0
    5.3948    0.6693   20.0802 C   0  0  0  0  0  0  0  0  0  0  0  0
    4.9414    0.6597   21.0723 H   0  0  0  0  0  0  0  0  0  0  0  0
    4.7747    1.3262   19.0208 C   0  0  0  0  0  0  0  0  0  0  0  0
    3.8460    1.8681   19.1638 H   0  0  0  0  0  0  0  0  0  0  0  0
  1  2  1  0
  2  3  2  0
  3  4  1  0
  4  5  1  0
  4  6  2  0
  6  7  1  0
  7  8  2  0
  8  9  1  0
  8 10  1  0
 10 11  1  0
 10 12  1  0
 12 13  2  0
 12 14  1  0
 14 15  1  0
  6 16  1  0
 16 17  1  0
 16 18  2  0
 18 19  1  0
 18  2  1  0
 14  7  1  0
M  END
>  <cnnaffinity>  (1) 
-4.52266

>  <filename>  (1) 
S=c1[nH]c(-c2cccnc2)cn1Cl

$$$$
