
     RDKit          3D

 38 40  0  0  0  0  0  0  0  0999 V2000
    4.9187    1.8102   16.9606 H   0  0  0  0  0  0  0  0  0  0  0  0
    5.3888    1.3096   17.8077 C   0  0  0  0  0  0  0  0  0  0  0  0
    6.5532    0.6889   17.5543 N   0  0  0  0  0  0  0  0  0  0  0  0
    7.1681    0.0760   18.5722 C   0  0  0  0  0  0  0  0  0  0  0  0
    8.1029   -0.4184   18.3128 H   0  0  0  0  0  0  0  0  0  0  0  0
    6.6696    0.0263   19.8866 C   0  0  0  0  0  0  0  0  0  0  0  0
    7.3470   -0.6946   20.9660 C   0  0  0  0  0  0  0  0  0  0  0  0
    6.8227   -1.2375   22.0898 C   0  0  0  0  0  0  0  0  0  0  0  0
    5.8077   -1.3185   22.4090 H   0  0  0  0  0  0  0  0  0  0  0  0
    7.8419   -1.8056   22.8225 N   0  0  0  0  0  0  0  0  0  0  0  0
    7.6820   -2.4144   24.1327 C   0  0  0  0  0  0  0  0  0  0  0  0
    6.6361   -2.7405   24.2021 H   0  0  0  0  0  0  0  0  0  0  0  0
    8.3311   -3.2968   24.1441 H   0  0  0  0  0  0  0  0  0  0  0  0
    8.0528   -1.4683   25.2942 C   0  0  0  0  0  0  0  0  0  0  0  0
    9.0819   -1.1442   25.0837 H   0  0  0  0  0  0  0  0  0  0  0  0
    7.1597   -0.2020   25.3716 C   0  0  0  0  0  0  0  0  0  0  0  0
    7.6463    0.5077   26.0576 H   0  0  0  0  0  0  0  0  0  0  0  0
    7.1259    0.2882   24.3859 H   0  0  0  0  0  0  0  0  0  0  0  0
    5.7325   -0.4942   25.8840 C   0  0  0  0  0  0  0  0  0  0  0  0
    5.1659    0.4401   25.9690 H   0  0  0  0  0  0  0  0  0  0  0  0
    5.1933   -1.0965   25.1361 H   0  0  0  0  0  0  0  0  0  0  0  0
    5.7522   -1.2614   27.2190 C   0  0  0  0  0  0  0  0  0  0  0  0
    4.7331   -1.4744   27.5690 H   0  0  0  0  0  0  0  0  0  0  0  0
    6.2132   -0.6266   27.9931 H   0  0  0  0  0  0  0  0  0  0  0  0
    6.5604   -2.5594   27.0461 C   0  0  0  0  0  0  0  0  0  0  0  0
    6.4773   -3.2151   27.9178 H   0  0  0  0  0  0  0  0  0  0  0  0
    6.1004   -3.1519   26.2445 H   0  0  0  0  0  0  0  0  0  0  0  0
    8.0160   -2.2396   26.6358 C   0  0  0  0  0  0  0  0  0  0  0  0
    8.6256   -3.1495   26.5524 H   0  0  0  0  0  0  0  0  0  0  0  0
    8.5038   -1.6148   27.3979 H   0  0  0  0  0  0  0  0  0  0  0  0
    9.0244   -1.6337   22.1742 C   0  0  0  0  0  0  0  0  0  0  0  0
   10.5635   -2.0895   22.6163 S   0  0  0  0  0  0  0  0  0  0  0  0
    8.7025   -0.9775   21.0282 N   0  0  0  0  0  0  0  0  0  0  0  0
    9.4540   -0.6875   20.4279 H   0  0  0  0  0  0  0  0  0  0  0  0
    5.4415    0.6733   20.1255 C   0  0  0  0  0  0  0  0  0  0  0  0
    5.0114    0.6678   21.1276 H   0  0  0  0  0  0  0  0  0  0  0  0
    4.7969    1.3257   19.0751 C   0  0  0  0  0  0  0  0  0  0  0  0
    3.8603    1.8547   19.2210 H   0  0  0  0  0  0  0  0  0  0  0  0
  1  2  1  0
  2  3  2  0
  3  4  1  0
  4  5  1  0
  4  6  2  0
  6  7  1  0
  7  8  2  0
  8  9  1  0
  8 10  1  0
 10 11  1  0
 11 12  1  0
 11 13  1  0
 11 14  1  0
 14 15  1  0
 14 16  1  0
 16 17  1  0
 16 18  1  0
 16 19  1  0
 19 20  1  0
 19 21  1  0
 19 22  1  0
 22 23  1  0
 22 24  1  0
 22 25  1  0
 25 26  1  0
 25 27  1  0
 25 28  1  0
 28 29  1  0
 28 30  1  0
 10 31  1  0
 31 32  2  0
 31 33  1  0
 33 34  1  0
  6 35  1  0
 35 36  1  0
 35 37  2  0
 37 38  1  0
 37  2  1  0
 33  7  1  0
 28 14  1  0
M  END
>  <cnnaffinity>  (1) 
-5.59892

>  <filename>  (1) 
S=c1[nH]c(-c2cccnc2)cn1CC1CCCCC1

$$$$
