
     RDKit          3D

 32 34  0  0  0  0  0  0  0  0999 V2000
    4.9747    1.8380   16.9170 H   0  0  0  0  0  0  0  0  0  0  0  0
    5.4534    1.3259   17.7518 C   0  0  0  0  0  0  0  0  0  0  0  0
    6.6094    0.6960   17.4898 N   0  0  0  0  0  0  0  0  0  0  0  0
    7.2162    0.0651   18.5046 C   0  0  0  0  0  0  0  0  0  0  0  0
    8.1351   -0.4549   18.2441 H   0  0  0  0  0  0  0  0  0  0  0  0
    6.7185    0.0146   19.8217 C   0  0  0  0  0  0  0  0  0  0  0  0
    7.3855   -0.7289   20.9000 C   0  0  0  0  0  0  0  0  0  0  0  0
    6.8486   -1.3295   21.9892 C   0  0  0  0  0  0  0  0  0  0  0  0
    5.8147   -1.4696   22.2480 H   0  0  0  0  0  0  0  0  0  0  0  0
    7.8801   -1.8713   22.7462 N   0  0  0  0  0  0  0  0  0  0  0  0
    7.7359   -2.3936   24.1087 C   0  0  0  0  0  0  0  0  0  0  0  0
    6.7761   -2.9236   24.1657 H   0  0  0  0  0  0  0  0  0  0  0  0
    8.5281   -3.1326   24.2728 H   0  0  0  0  0  0  0  0  0  0  0  0
    7.7770   -1.3108   25.1821 C   0  0  0  0  0  0  0  0  0  0  0  0
    8.9323   -1.1049   25.9489 C   0  0  0  0  0  0  0  0  0  0  0  0
    9.8329   -1.6670   25.7240 H   0  0  0  0  0  0  0  0  0  0  0  0
    8.9464   -0.1822   26.9942 C   0  0  0  0  0  0  0  0  0  0  0  0
    9.8283   -0.0516   27.6135 H   0  0  0  0  0  0  0  0  0  0  0  0
    7.8110    0.5879   27.2606 C   0  0  0  0  0  0  0  0  0  0  0  0
    7.8249    1.6532   28.6261 Cl  0  0  0  0  0  0  0  0  0  0  0  0
    6.6833    0.4737   26.4298 C   0  0  0  0  0  0  0  0  0  0  0  0
    5.3262    1.5317   26.6219 Cl  0  0  0  0  0  0  0  0  0  0  0  0
    6.6648   -0.4875   25.4111 C   0  0  0  0  0  0  0  0  0  0  0  0
    5.7739   -0.5959   24.7938 H   0  0  0  0  0  0  0  0  0  0  0  0
    9.0798   -1.6345   22.1289 C   0  0  0  0  0  0  0  0  0  0  0  0
   10.6084   -2.1030   22.5986 S   0  0  0  0  0  0  0  0  0  0  0  0
    8.7501   -0.9503   20.9999 N   0  0  0  0  0  0  0  0  0  0  0  0
    9.4849   -0.6114   20.4018 H   0  0  0  0  0  0  0  0  0  0  0  0
    5.5022    0.6786   20.0661 C   0  0  0  0  0  0  0  0  0  0  0  0
    5.0804    0.6852   21.0716 H   0  0  0  0  0  0  0  0  0  0  0  0
    4.8604    1.3355   19.0173 C   0  0  0  0  0  0  0  0  0  0  0  0
    3.9228    1.8572   19.1636 H   0  0  0  0  0  0  0  0  0  0  0  0
  1  2  1  0
  2  3  2  0
  3  4  1  0
  4  5  1  0
  4  6  2  0
  6  7  1  0
  7  8  2  0
  8  9  1  0
  8 10  1  0
 10 11  1  0
 11 12  1  0
 11 13  1  0
 11 14  1  0
 14 15  2  0
 15 16  1  0
 15 17  1  0
 17 18  1  0
 17 19  2  0
 19 20  1  0
 19 21  1  0
 21 22  1  0
 21 23  2  0
 23 24  1  0
 10 25  1  0
 25 26  2  0
 25 27  1  0
 27 28  1  0
  6 29  1  0
 29 30  1  0
 29 31  2  0
 31 32  1  0
 31  2  1  0
 27  7  1  0
 23 14  1  0
M  END
>  <cnnaffinity>  (1) 
-5.50762

>  <filename>  (1) 
S=c1[nH]c(-c2cccnc2)cn1Cc1ccc(Cl)c(Cl)c1

$$$$
