
     RDKit          3D

 33 34  0  0  0  0  0  0  0  0999 V2000
    4.8885    1.7933   17.0135 H   0  0  0  0  0  0  0  0  0  0  0  0
    5.4008    1.2946   17.8294 C   0  0  0  0  0  0  0  0  0  0  0  0
    6.5684    0.6744   17.5708 N   0  0  0  0  0  0  0  0  0  0  0  0
    7.1822    0.0587   18.5943 C   0  0  0  0  0  0  0  0  0  0  0  0
    8.1289   -0.4365   18.3984 H   0  0  0  0  0  0  0  0  0  0  0  0
    6.6690    0.0158   19.9014 C   0  0  0  0  0  0  0  0  0  0  0  0
    7.4328   -0.6980   20.9916 C   0  0  2  0  0  0  0  0  0  0  0  0
    8.3018   -1.2003   20.5530 H   0  0  0  0  0  0  0  0  0  0  0  0
    6.2546   -2.0863   21.7932 Br  0  0  0  0  0  0  0  0  0  0  0  0
    7.9052    0.3117   22.0544 C   0  0  0  0  0  0  0  0  0  0  0  0
    7.0269    0.6533   22.6122 H   0  0  0  0  0  0  0  0  0  0  0  0
    8.3326    1.1909   21.5620 H   0  0  0  0  0  0  0  0  0  0  0  0
    8.9424   -0.2941   23.0267 C   0  0  0  0  0  0  0  0  0  0  0  0
    8.5979   -1.2998   23.2868 H   0  0  0  0  0  0  0  0  0  0  0  0
    9.0192    0.5207   24.3309 C   0  0  0  0  0  0  0  0  0  0  0  0
    9.5814   -0.0525   25.0728 H   0  0  0  0  0  0  0  0  0  0  0  0
    8.0138    0.6687   24.7354 H   0  0  0  0  0  0  0  0  0  0  0  0
    9.7012    1.8786   24.1444 C   0  0  0  0  0  0  0  0  0  0  0  0
    9.0985    2.5046   23.4821 H   0  0  0  0  0  0  0  0  0  0  0  0
    9.7688    2.3904   25.1097 H   0  0  0  0  0  0  0  0  0  0  0  0
   11.1023    1.7101   23.5569 C   0  0  0  0  0  0  0  0  0  0  0  0
   11.7313    1.1754   24.2732 H   0  0  0  0  0  0  0  0  0  0  0  0
   11.5546    2.6927   23.3946 H   0  0  0  0  0  0  0  0  0  0  0  0
   11.0636    0.9345   22.2379 C   0  0  0  0  0  0  0  0  0  0  0  0
   10.5544    1.5332   21.4789 H   0  0  0  0  0  0  0  0  0  0  0  0
   12.0882    0.7666   21.8897 H   0  0  0  0  0  0  0  0  0  0  0  0
   10.3490   -0.4149   22.3993 C   0  0  0  0  0  0  0  0  0  0  0  0
   10.2887   -0.9135   21.4275 H   0  0  0  0  0  0  0  0  0  0  0  0
   10.9620   -1.0477   23.0470 H   0  0  0  0  0  0  0  0  0  0  0  0
    5.4479    0.6487   20.1634 C   0  0  0  0  0  0  0  0  0  0  0  0
    5.0096    0.6346   21.1626 H   0  0  0  0  0  0  0  0  0  0  0  0
    4.8184    1.3048   19.1045 C   0  0  0  0  0  0  0  0  0  0  0  0
    3.8811    1.8325   19.2615 H   0  0  0  0  0  0  0  0  0  0  0  0
  1  2  1  0
  2  3  2  0
  3  4  1  0
  4  5  1  0
  4  6  2  0
  6  7  1  0
  7  8  1  6
  7  9  1  0
  7 10  1  0
 10 11  1  0
 10 12  1  0
 10 13  1  0
 13 14  1  0
 13 15  1  0
 15 16  1  0
 15 17  1  0
 15 18  1  0
 18 19  1  0
 18 20  1  0
 18 21  1  0
 21 22  1  0
 21 23  1  0
 21 24  1  0
 24 25  1  0
 24 26  1  0
 24 27  1  0
 27 28  1  0
 27 29  1  0
  6 30  1  0
 30 31  1  0
 30 32  2  0
 32 33  1  0
 32  2  1  0
 27 13  1  0
M  END
>  <cnnaffinity>  (1) 
-5.04847

>  <filename>  (1) 
Br[C@H](CC1CCCCC1)c1cccnc1

$$$$
