
     RDKit          3D

 35 36  0  0  0  0  0  0  0  0999 V2000
    5.0076    1.7819   16.9527 H   0  0  0  0  0  0  0  0  0  0  0  0
    5.4325    1.2847   17.8209 C   0  0  0  0  0  0  0  0  0  0  0  0
    6.5929    0.6214   17.6798 N   0  0  0  0  0  0  0  0  0  0  0  0
    7.1338    0.0430   18.7649 C   0  0  0  0  0  0  0  0  0  0  0  0
    8.0709   -0.4948   18.6600 H   0  0  0  0  0  0  0  0  0  0  0  0
    6.5512    0.1080   20.0326 C   0  0  0  0  0  0  0  0  0  0  0  0
    7.2689   -0.4955   21.2062 C   0  0  2  0  0  0  0  0  0  0  0  0
    6.6506   -0.3666   22.0972 H   0  0  0  0  0  0  0  0  0  0  0  0
    9.0210    0.4074   21.4673 Br  0  0  0  0  0  0  0  0  0  0  0  0
    7.5444   -1.9811   20.9787 C   0  0  0  0  0  0  0  0  0  0  0  0
    8.3448   -2.0882   20.2551 H   0  0  0  0  0  0  0  0  0  0  0  0
    7.8977   -2.4256   21.9067 H   0  0  0  0  0  0  0  0  0  0  0  0
    6.2993   -2.7313   20.5136 C   0  0  0  0  0  0  0  0  0  0  0  0
    6.5336   -3.7782   20.2860 H   0  0  0  0  0  0  0  0  0  0  0  0
    5.9053   -2.2737   19.6002 H   0  0  0  0  0  0  0  0  0  0  0  0
    5.3138   -2.6386   21.5917 N   0  0  0  0  0  0  0  0  0  0  0  0
    5.0452   -1.6642   21.7403 H   0  0  0  0  0  0  0  0  0  0  0  0
    5.7108   -3.2366   22.8788 C   0  0  0  0  0  0  0  0  0  0  0  0
    6.6472   -2.7866   23.2205 H   0  0  0  0  0  0  0  0  0  0  0  0
    4.9486   -3.0143   23.6308 H   0  0  0  0  0  0  0  0  0  0  0  0
    5.8465   -4.7293   22.7492 C   0  0  0  0  0  0  0  0  0  0  0  0
    4.6810   -5.5002   22.7307 C   0  0  0  0  0  0  0  0  0  0  0  0
    3.7186   -4.9991   22.7577 H   0  0  0  0  0  0  0  0  0  0  0  0
    4.7571   -6.8895   22.6974 C   0  0  0  0  0  0  0  0  0  0  0  0
    3.8432   -7.4702   22.7407 H   0  0  0  0  0  0  0  0  0  0  0  0
    6.0004   -7.5235   22.6227 C   0  0  0  0  0  0  0  0  0  0  0  0
    6.0442   -8.6084   22.6083 H   0  0  0  0  0  0  0  0  0  0  0  0
    7.1728   -6.7625   22.5950 C   0  0  0  0  0  0  0  0  0  0  0  0
    8.1380   -7.2573   22.5437 H   0  0  0  0  0  0  0  0  0  0  0  0
    7.0974   -5.3670   22.6817 C   0  0  0  0  0  0  0  0  0  0  0  0
    8.0133   -4.7851   22.7209 H   0  0  0  0  0  0  0  0  0  0  0  0
    5.3142    0.7435   20.1768 C   0  0  0  0  0  0  0  0  0  0  0  0
    4.8081    0.7873   21.1407 H   0  0  0  0  0  0  0  0  0  0  0  0
    4.7573    1.3415   19.0473 C   0  0  0  0  0  0  0  0  0  0  0  0
    3.8163    1.8769   19.1085 H   0  0  0  0  0  0  0  0  0  0  0  0
  1  2  1  0
  2  3  2  0
  3  4  1  0
  4  5  1  0
  4  6  2  0
  6  7  1  0
  7  8  1  1
  7  9  1  0
  7 10  1  0
 10 11  1  0
 10 12  1  0
 10 13  1  0
 13 14  1  0
 13 15  1  0
 13 16  1  0
 16 17  1  0
 16 18  1  0
 18 19  1  0
 18 20  1  0
 18 21  1  0
 21 22  2  0
 22 23  1  0
 22 24  1  0
 24 25  1  0
 24 26  2  0
 26 27  1  0
 26 28  1  0
 28 29  1  0
 28 30  2  0
 30 31  1  0
  6 32  1  0
 32 33  1  0
 32 34  2  0
 34 35  1  0
 34  2  1  0
 30 21  1  0
M  END
>  <cnnaffinity>  (1) 
-4.61507

>  <filename>  (1) 
Br[C@H](CCNCc1ccccc1)c1cccnc1

$$$$
