
     RDKit          3D

 28 30  0  0  0  0  0  0  0  0999 V2000
    7.1325    0.0164   21.2361 H   0  0  0  0  0  0  0  0  0  0  0  0
    6.7021   -0.5653   20.4316 C   0  0  0  0  0  0  0  0  0  0  0  0
    6.7529   -1.9438   20.4912 C   0  0  0  0  0  0  0  0  0  0  0  0
    5.7214   -2.9713   19.2370 Br  0  0  0  0  0  0  0  0  0  0  0  0
    7.5480   -2.6340   21.5296 C   0  0  0  0  0  0  0  0  0  0  0  0
    7.4573   -3.9888   21.7746 C   0  0  0  0  0  0  0  0  0  0  0  0
    6.8170   -4.6623   21.2148 H   0  0  0  0  0  0  0  0  0  0  0  0
    8.4627   -4.5356   23.1154 S   0  0  0  0  0  0  0  0  0  0  0  0
    9.0684   -2.9031   23.3430 C   0  0  0  0  0  0  0  0  0  0  0  0
    9.9963   -2.4861   24.3091 C   0  0  0  0  0  0  0  0  0  0  0  0
   10.3942   -3.1809   25.0455 H   0  0  0  0  0  0  0  0  0  0  0  0
   10.4534   -1.1640   24.2900 C   0  0  0  0  0  0  0  0  0  0  0  0
   11.2034   -0.8280   24.9997 H   0  0  0  0  0  0  0  0  0  0  0  0
   10.0030   -0.2784   23.3069 C   0  0  0  0  0  0  0  0  0  0  0  0
   10.4034    0.7291   23.2540 H   0  0  0  0  0  0  0  0  0  0  0  0
    9.0419   -0.6860   22.3776 C   0  0  0  0  0  0  0  0  0  0  0  0
    8.7271    0.0316   21.6312 H   0  0  0  0  0  0  0  0  0  0  0  0
    8.5458   -2.0025   22.4083 C   0  0  0  0  0  0  0  0  0  0  0  0
    6.1043    0.1920   19.3321 C   0  0  0  0  0  0  0  0  0  0  0  0
    6.6663    0.1489   18.0418 C   0  0  0  0  0  0  0  0  0  0  0  0
    7.5007   -0.5200   17.8528 H   0  0  0  0  0  0  0  0  0  0  0  0
    6.2522    0.9423   17.0369 N   0  0  0  0  0  0  0  0  0  0  0  0
    5.2348    1.7858   17.2793 C   0  0  0  0  0  0  0  0  0  0  0  0
    4.9045    2.4495   16.4863 H   0  0  0  0  0  0  0  0  0  0  0  0
    4.5857    1.8378   18.5150 C   0  0  0  0  0  0  0  0  0  0  0  0
    3.7567    2.5221   18.6301 H   0  0  0  0  0  0  0  0  0  0  0  0
    5.0321    1.0471   19.5719 C   0  0  0  0  0  0  0  0  0  0  0  0
    4.5612    1.1002   20.5533 H   0  0  0  0  0  0  0  0  0  0  0  0
  1  2  1  0
  2  3  2  3
  3  4  1  0
  3  5  1  0
  5  6  2  0
  6  7  1  0
  6  8  1  0
  8  9  1  0
  9 10  2  0
 10 11  1  0
 10 12  1  0
 12 13  1  0
 12 14  2  0
 14 15  1  0
 14 16  1  0
 16 17  1  0
 16 18  2  0
  2 19  1  0
 19 20  2  0
 20 21  1  0
 20 22  1  0
 22 23  2  0
 23 24  1  0
 23 25  1  0
 25 26  1  0
 25 27  2  0
 27 28  1  0
 18  5  1  0
 27 19  1  0
 18  9  1  0
M  END
>  <cnnaffinity>  (1) 
-5.30882

>  <filename>  (1) 
BrC(=Cc1cccnc1)c1csc2ccccc12

$$$$
