
     RDKit          3D

 28 30  0  0  0  0  0  0  0  0999 V2000
    6.6403   -1.4084   21.5755 H   0  0  0  0  0  0  0  0  0  0  0  0
    7.2132   -0.6767   21.0171 C   0  0  0  0  0  0  0  0  0  0  0  0
    8.5186   -0.4899   21.3923 C   0  0  0  0  0  0  0  0  0  0  0  0
    9.5688    0.8956   20.6209 Br  0  0  0  0  0  0  0  0  0  0  0  0
    9.1026   -1.3563   22.4041 C   0  0  0  0  0  0  0  0  0  0  0  0
   10.3928   -1.8696   22.2072 C   0  0  0  0  0  0  0  0  0  0  0  0
   10.9414   -1.5765   21.3156 H   0  0  0  0  0  0  0  0  0  0  0  0
   10.9391   -2.7857   23.1187 C   0  0  0  0  0  0  0  0  0  0  0  0
   11.9168   -3.2278   22.9743 H   0  0  0  0  0  0  0  0  0  0  0  0
   10.2073   -3.1247   24.2523 C   0  0  0  0  0  0  0  0  0  0  0  0
    8.9717   -2.5727   24.4802 C   0  0  0  0  0  0  0  0  0  0  0  0
    8.5865   -3.0376   25.7913 C   0  0  0  0  0  0  0  0  0  0  0  0
    7.6777   -2.7194   26.2839 H   0  0  0  0  0  0  0  0  0  0  0  0
    9.4922   -3.8338   26.3147 N   0  0  0  0  0  0  0  0  0  0  0  0
   10.4726   -3.9119   25.3616 N   0  0  0  0  0  0  0  0  0  0  0  0
   11.3873   -4.3297   25.5266 H   0  0  0  0  0  0  0  0  0  0  0  0
    8.3833   -1.6983   23.5592 C   0  0  0  0  0  0  0  0  0  0  0  0
    7.4107   -1.2439   23.7382 H   0  0  0  0  0  0  0  0  0  0  0  0
    6.5830    0.0269   19.9070 C   0  0  0  0  0  0  0  0  0  0  0  0
    7.1843    0.0876   18.6306 C   0  0  0  0  0  0  0  0  0  0  0  0
    8.1405   -0.4085   18.4658 H   0  0  0  0  0  0  0  0  0  0  0  0
    6.6117    0.7147   17.5861 N   0  0  0  0  0  0  0  0  0  0  0  0
    5.4325    1.3312   17.8001 C   0  0  0  0  0  0  0  0  0  0  0  0
    4.9715    1.8733   16.9813 H   0  0  0  0  0  0  0  0  0  0  0  0
    4.7746    1.3050   19.0383 C   0  0  0  0  0  0  0  0  0  0  0  0
    3.8371    1.8367   19.1599 H   0  0  0  0  0  0  0  0  0  0  0  0
    5.3452    0.6282   20.1125 C   0  0  0  0  0  0  0  0  0  0  0  0
    4.8763    0.6050   21.0975 H   0  0  0  0  0  0  0  0  0  0  0  0
  1  2  1  0
  2  3  2  3
  3  4  1  0
  3  5  1  0
  5  6  2  0
  6  7  1  0
  6  8  1  0
  8  9  1  0
  8 10  2  0
 10 11  1  0
 11 12  1  0
 12 13  1  0
 12 14  2  0
 14 15  1  0
 15 16  1  0
 11 17  2  0
 17 18  1  0
  2 19  1  0
 19 20  2  0
 20 21  1  0
 20 22  1  0
 22 23  2  0
 23 24  1  0
 23 25  1  0
 25 26  1  0
 25 27  2  0
 27 28  1  0
 17  5  1  0
 27 19  1  0
 15 10  1  0
M  END
>  <cnnaffinity>  (1) 
-5.11363

>  <filename>  (1) 
BrC(=Cc1cccnc1)c1ccc2[nH]ncc2c1

$$$$
