
     RDKit          3D

 31 33  0  0  0  0  0  0  0  0999 V2000
    4.9399   -7.6046   24.1603 Br  0  0  0  0  0  0  0  0  0  0  0  0
    5.9198   -5.9459   24.2152 C   0  0  0  0  0  0  0  0  0  0  0  0
    5.1913   -4.7730   24.4082 C   0  0  0  0  0  0  0  0  0  0  0  0
    5.8313   -3.5292   24.4268 C   0  0  0  0  0  0  0  0  0  0  0  0
    7.2209   -3.4413   24.2683 C   0  0  0  0  0  0  0  0  0  0  0  0
    7.9071   -2.1060   24.2531 C   0  0  0  0  0  0  0  0  0  0  0  0
    7.9433   -1.6059   22.8734 N   0  0  0  0  0  0  0  0  0  0  0  0
    8.9286   -1.8449   21.9215 C   0  0  0  0  0  0  0  0  0  0  0  0
    8.6121   -1.3079   20.7664 N   0  0  0  0  0  0  0  0  0  0  0  0
    7.3793   -0.6987   20.9563 C   0  0  0  0  0  0  0  0  0  0  0  0
    6.6537    0.0080   19.9143 C   0  0  0  0  0  0  0  0  0  0  0  0
    5.4368    0.6496   20.1683 C   0  0  0  0  0  0  0  0  0  0  0  0
    4.8218    1.3015   19.1034 C   0  0  0  0  0  0  0  0  0  0  0  0
    5.4084    1.2882   17.8337 C   0  0  0  0  0  0  0  0  0  0  0  0
    6.5756    0.6650   17.5942 N   0  0  0  0  0  0  0  0  0  0  0  0
    7.1870    0.0461   18.6192 C   0  0  0  0  0  0  0  0  0  0  0  0
    8.1351   -0.4446   18.4147 H   0  0  0  0  0  0  0  0  0  0  0  0
    4.8983    1.7952   17.0193 H   0  0  0  0  0  0  0  0  0  0  0  0
    3.8874    1.8283   19.2533 H   0  0  0  0  0  0  0  0  0  0  0  0
    4.9914    0.6461   21.1637 H   0  0  0  0  0  0  0  0  0  0  0  0
    6.9570   -0.8755   22.2456 C   0  0  0  0  0  0  0  0  0  0  0  0
    6.0242   -0.5176   22.6744 H   0  0  0  0  0  0  0  0  0  0  0  0
    9.8409   -2.4096   22.1139 H   0  0  0  0  0  0  0  0  0  0  0  0
    8.9219   -2.1968   24.6551 H   0  0  0  0  0  0  0  0  0  0  0  0
    7.3669   -1.4035   24.8963 H   0  0  0  0  0  0  0  0  0  0  0  0
    7.9614   -4.6098   24.0830 C   0  0  0  0  0  0  0  0  0  0  0  0
    7.3182   -5.8467   24.0459 C   0  0  0  0  0  0  0  0  0  0  0  0
    7.9585   -6.6995   23.8645 H   0  0  0  0  0  0  0  0  0  0  0  0
    9.0395   -4.5637   23.9486 H   0  0  0  0  0  0  0  0  0  0  0  0
    5.2434   -2.6261   24.5537 H   0  0  0  0  0  0  0  0  0  0  0  0
    4.1153   -4.8396   24.5278 H   0  0  0  0  0  0  0  0  0  0  0  0
  1  2  1  0
  2  3  2  0
  3  4  1  0
  4  5  2  0
  5  6  1  0
  6  7  1  0
  7  8  1  0
  8  9  2  0
  9 10  1  0
 10 11  1  0
 11 12  2  0
 12 13  1  0
 13 14  2  0
 14 15  1  0
 15 16  2  0
 16 17  1  0
 14 18  1  0
 13 19  1  0
 12 20  1  0
 10 21  2  0
 21 22  1  0
  8 23  1  0
  6 24  1  0
  6 25  1  0
  5 26  1  0
 26 27  2  0
 27 28  1  0
 26 29  1  0
  4 30  1  0
  3 31  1  0
 27  2  1  0
 21  7  1  0
 16 11  1  0
M  END
>  <cnnaffinity>  (1) 
-5.23568

>  <filename>  (1) 
Brc1ccc(Cn2cnc(-c3cccnc3)c2)cc1

$$$$
