
     RDKit          3D

 29 31  0  0  0  0  0  0  0  0999 V2000
    4.8970    1.7726   17.0149 H   0  0  0  0  0  0  0  0  0  0  0  0
    5.3966    1.2918   17.8464 C   0  0  0  0  0  0  0  0  0  0  0  0
    6.5675    0.6809   17.6003 N   0  0  0  0  0  0  0  0  0  0  0  0
    7.1890    0.0496   18.6064 C   0  0  0  0  0  0  0  0  0  0  0  0
    8.1354   -0.4421   18.3892 H   0  0  0  0  0  0  0  0  0  0  0  0
    6.6607    0.0107   19.9005 C   0  0  0  0  0  0  0  0  0  0  0  0
    7.3846   -0.7092   20.9461 C   0  0  0  0  0  0  0  0  0  0  0  0
    8.0983   -1.8076   20.6289 N   0  0  0  0  0  0  0  0  0  0  0  0
    8.7769   -2.5083   21.5532 N   0  0  0  0  0  0  0  0  0  0  0  0
    8.7786   -2.1234   22.8465 C   0  0  0  0  0  0  0  0  0  0  0  0
    9.3278   -2.7205   23.5706 H   0  0  0  0  0  0  0  0  0  0  0  0
    8.0694   -0.9852   23.2605 C   0  0  0  0  0  0  0  0  0  0  0  0
    8.0692   -0.5511   24.6689 C   0  0  0  0  0  0  0  0  0  0  0  0
    6.8971   -0.0530   25.2651 C   0  0  0  0  0  0  0  0  0  0  0  0
    5.9714    0.0007   24.6995 H   0  0  0  0  0  0  0  0  0  0  0  0
    6.8958    0.3596   26.6024 C   0  0  0  0  0  0  0  0  0  0  0  0
    5.9821    0.7377   27.0512 H   0  0  0  0  0  0  0  0  0  0  0  0
    8.0652    0.2837   27.3641 C   0  0  0  0  0  0  0  0  0  0  0  0
    8.0590    0.8520   29.1882 Br  0  0  0  0  0  0  0  0  0  0  0  0
    9.2367   -0.2093   26.7815 C   0  0  0  0  0  0  0  0  0  0  0  0
   10.1488   -0.2652   27.3687 H   0  0  0  0  0  0  0  0  0  0  0  0
    9.2394   -0.6250   25.4450 C   0  0  0  0  0  0  0  0  0  0  0  0
   10.1664   -0.9871   25.0122 H   0  0  0  0  0  0  0  0  0  0  0  0
    7.3638   -0.2724   22.2777 C   0  0  0  0  0  0  0  0  0  0  0  0
    6.8387    0.6381   22.5472 H   0  0  0  0  0  0  0  0  0  0  0  0
    5.4471    0.6548   20.1591 C   0  0  0  0  0  0  0  0  0  0  0  0
    5.0087    0.6298   21.1530 H   0  0  0  0  0  0  0  0  0  0  0  0
    4.8108    1.3117   19.1127 C   0  0  0  0  0  0  0  0  0  0  0  0
    3.8779    1.8406   19.2684 H   0  0  0  0  0  0  0  0  0  0  0  0
  1  2  1  0
  2  3  2  0
  3  4  1  0
  4  5  1  0
  4  6  2  0
  6  7  1  0
  7  8  2  0
  8  9  1  0
  9 10  2  0
 10 11  1  0
 10 12  1  0
 12 13  1  0
 13 14  2  0
 14 15  1  0
 14 16  1  0
 16 17  1  0
 16 18  2  0
 18 19  1  0
 18 20  1  0
 20 21  1  0
 20 22  2  0
 22 23  1  0
 12 24  2  0
 24 25  1  0
  6 26  1  0
 26 27  1  0
 26 28  2  0
 28 29  1  0
 28  2  1  0
 24  7  1  0
 22 13  1  0
M  END
>  <cnnaffinity>  (1) 
-4.78187

>  <filename>  (1) 
Brc1ccc(-c2cnnc(-c3cccnc3)c2)cc1

$$$$
