
     RDKit          3D

 29 31  0  0  0  0  0  0  0  0999 V2000
    4.9166    1.8027   16.9711 H   0  0  0  0  0  0  0  0  0  0  0  0
    5.4149    1.2993   17.7944 C   0  0  0  0  0  0  0  0  0  0  0  0
    6.5525    0.6356   17.5372 N   0  0  0  0  0  0  0  0  0  0  0  0
    7.1606    0.0029   18.5569 C   0  0  0  0  0  0  0  0  0  0  0  0
    8.0823   -0.5304   18.3480 H   0  0  0  0  0  0  0  0  0  0  0  0
    6.6745    0.0162   19.8719 C   0  0  0  0  0  0  0  0  0  0  0  0
    7.4160   -0.6720   20.9353 C   0  0  0  0  0  0  0  0  0  0  0  0
    7.4729   -0.3079   22.2425 C   0  0  0  0  0  0  0  0  0  0  0  0
    6.8129    0.7978   22.7099 O   0  0  0  0  0  0  0  0  0  0  0  0
    7.0616    1.2275   23.9838 C   0  0  0  0  0  0  0  0  0  0  0  0
    5.9702    1.7326   24.6859 C   0  0  0  0  0  0  0  0  0  0  0  0
    5.0033    1.7415   24.1951 H   0  0  0  0  0  0  0  0  0  0  0  0
    6.1097    2.2008   25.9918 C   0  0  0  0  0  0  0  0  0  0  0  0
    5.2420    2.5660   26.5351 H   0  0  0  0  0  0  0  0  0  0  0  0
    7.3685    2.1731   26.6037 C   0  0  0  0  0  0  0  0  0  0  0  0
    7.5492    2.6867   28.4329 Br  0  0  0  0  0  0  0  0  0  0  0  0
    8.4817    1.7252   25.8894 C   0  0  0  0  0  0  0  0  0  0  0  0
    9.4505    1.7400   26.3825 H   0  0  0  0  0  0  0  0  0  0  0  0
    8.3338    1.2499   24.5817 C   0  0  0  0  0  0  0  0  0  0  0  0
    9.2140    0.9133   24.0493 H   0  0  0  0  0  0  0  0  0  0  0  0
    8.3011   -1.3083   22.9045 C   0  0  0  0  0  0  0  0  0  0  0  0
    8.4983   -1.3313   23.9722 H   0  0  0  0  0  0  0  0  0  0  0  0
    8.7523   -2.1927   22.0394 N   0  0  0  0  0  0  0  0  0  0  0  0
    8.2303   -1.7916   20.8402 N   0  0  0  0  0  0  0  0  0  0  0  0
    8.3870   -2.2887   19.9643 H   0  0  0  0  0  0  0  0  0  0  0  0
    5.4916    0.7207   20.1405 C   0  0  0  0  0  0  0  0  0  0  0  0
    5.0705    0.7702   21.1454 H   0  0  0  0  0  0  0  0  0  0  0  0
    4.8517    1.3523   19.0716 C   0  0  0  0  0  0  0  0  0  0  0  0
    3.9251    1.8942   19.2115 H   0  0  0  0  0  0  0  0  0  0  0  0
  1  2  1  0
  2  3  2  0
  3  4  1  0
  4  5  1  0
  4  6  2  0
  6  7  1  0
  7  8  2  0
  8  9  1  0
  9 10  1  0
 10 11  2  0
 11 12  1  0
 11 13  1  0
 13 14  1  0
 13 15  2  0
 15 16  1  0
 15 17  1  0
 17 18  1  0
 17 19  2  0
 19 20  1  0
  8 21  1  0
 21 22  1  0
 21 23  2  0
 23 24  1  0
 24 25  1  0
  6 26  1  0
 26 27  1  0
 26 28  2  0
 28 29  1  0
 28  2  1  0
 24  7  1  0
 19 10  1  0
M  END
>  <cnnaffinity>  (1) 
-5.25414

>  <filename>  (1) 
Brc1ccc(Oc2cn[nH]c2-c2cccnc2)cc1

$$$$
