
     RDKit          3D

 35 38  0  0  0  0  0  0  0  0999 V2000
    4.8956    1.8242   17.0182 H   0  0  0  0  0  0  0  0  0  0  0  0
    5.4023    1.2969   17.8214 C   0  0  0  0  0  0  0  0  0  0  0  0
    6.5659    0.6726   17.5682 N   0  0  0  0  0  0  0  0  0  0  0  0
    7.1752    0.0469   18.5948 C   0  0  0  0  0  0  0  0  0  0  0  0
    8.1250   -0.4400   18.4063 H   0  0  0  0  0  0  0  0  0  0  0  0
    6.6573   -0.0025   19.9017 C   0  0  0  0  0  0  0  0  0  0  0  0
    7.4156   -0.7305   20.9979 C   0  0  1  0  0  0  0  0  0  0  0  0
    8.3295   -1.1549   20.5789 H   0  0  0  0  0  0  0  0  0  0  0  0
    7.8260    0.2571   22.1425 C   0  0  0  0  0  0  0  0  0  0  0  0
    7.4565    1.2731   21.9743 H   0  0  0  0  0  0  0  0  0  0  0  0
    8.9117    0.2862   22.2838 H   0  0  0  0  0  0  0  0  0  0  0  0
    7.2076   -0.3665   23.3344 C   0  0  0  0  0  0  0  0  0  0  0  0
    7.2719   -0.1476   24.6248 N   0  0  0  0  0  0  0  0  0  0  0  0
    6.6623   -1.2701   25.1448 N   0  0  0  0  0  0  0  0  0  0  0  0
    6.6990   -1.5140   26.1382 H   0  0  0  0  0  0  0  0  0  0  0  0
    6.2213   -2.1751   24.1711 C   0  0  0  0  0  0  0  0  0  0  0  0
    5.6383   -3.5022   24.3609 C   0  0  0  0  0  0  0  0  0  0  0  0
    6.0160   -4.2644   25.4691 C   0  0  0  0  0  0  0  0  0  0  0  0
    6.7266   -3.8425   26.1714 H   0  0  0  0  0  0  0  0  0  0  0  0
    5.5241   -5.5648   25.6491 C   0  0  0  0  0  0  0  0  0  0  0  0
    5.8540   -6.1538   26.5024 H   0  0  0  0  0  0  0  0  0  0  0  0
    4.6185   -6.0953   24.7201 C   0  0  0  0  0  0  0  0  0  0  0  0
    4.2262   -7.1023   24.8540 H   0  0  0  0  0  0  0  0  0  0  0  0
    4.2079   -5.3333   23.6185 C   0  0  0  0  0  0  0  0  0  0  0  0
    2.9518   -6.0570   22.3636 Br  0  0  0  0  0  0  0  0  0  0  0  0
    4.7264   -4.0402   23.4426 C   0  0  0  0  0  0  0  0  0  0  0  0
    4.4116   -3.4481   22.5915 H   0  0  0  0  0  0  0  0  0  0  0  0
    6.5750   -1.5653   23.0168 C   0  0  0  0  0  0  0  0  0  0  0  0
    6.5832   -1.9176   21.5761 C   0  0  0  0  0  0  0  0  0  0  0  0
    7.0649   -2.8904   21.4123 H   0  0  0  0  0  0  0  0  0  0  0  0
    5.5690   -1.9476   21.1704 H   0  0  0  0  0  0  0  0  0  0  0  0
    5.4467    0.6439   20.1556 C   0  0  0  0  0  0  0  0  0  0  0  0
    5.0138    0.6434   21.1544 H   0  0  0  0  0  0  0  0  0  0  0  0
    4.8218    1.2967   19.0931 C   0  0  0  0  0  0  0  0  0  0  0  0
    3.8883    1.8237   19.2398 H   0  0  0  0  0  0  0  0  0  0  0  0
  1  2  1  0
  2  3  2  0
  3  4  1  0
  4  5  1  0
  4  6  2  0
  6  7  1  0
  7  8  1  6
  7  9  1  0
  9 10  1  0
  9 11  1  0
  9 12  1  0
 12 13  2  0
 13 14  1  0
 14 15  1  0
 14 16  1  0
 16 17  1  0
 17 18  2  0
 18 19  1  0
 18 20  1  0
 20 21  1  0
 20 22  2  0
 22 23  1  0
 22 24  1  0
 24 25  1  0
 24 26  2  0
 26 27  1  0
 16 28  2  0
 28 29  1  0
 29 30  1  0
 29 31  1  0
  6 32  1  0
 32 33  1  0
 32 34  2  0
 34 35  1  0
 34  2  1  0
 29  7  1  0
 28 12  1  0
 26 17  1  0
M  END
>  <cnnaffinity>  (1) 
-5.42105

>  <filename>  (1) 
Brc1cccc(-c2[nH]nc3c2C[C@@H](c2cccnc2)C3)c1

$$$$
