
     RDKit          3D

 28 30  0  0  0  0  0  0  0  0999 V2000
    8.4275   -1.8232   19.7857 H   0  0  0  0  0  0  0  0  0  0  0  0
    8.2312   -1.5914   20.8173 C   0  0  0  0  0  0  0  0  0  0  0  0
    8.8076   -2.2935   21.7973 N   0  0  0  0  0  0  0  0  0  0  0  0
    8.5682   -1.8828   23.0422 N   0  0  0  0  0  0  0  0  0  0  0  0
    7.7914   -0.8030   23.3082 C   0  0  0  0  0  0  0  0  0  0  0  0
    7.7045   -0.2950   24.6860 C   0  0  0  0  0  0  0  0  0  0  0  0
    8.3861   -0.9181   25.7522 C   0  0  0  0  0  0  0  0  0  0  0  0
    8.9998   -1.7972   25.5722 H   0  0  0  0  0  0  0  0  0  0  0  0
    8.2835   -0.4168   27.0547 C   0  0  0  0  0  0  0  0  0  0  0  0
    8.8119   -0.9111   27.8679 H   0  0  0  0  0  0  0  0  0  0  0  0
    7.4994    0.7187   27.3028 C   0  0  0  0  0  0  0  0  0  0  0  0
    7.4053    1.1117   28.3105 H   0  0  0  0  0  0  0  0  0  0  0  0
    6.8300    1.3621   26.2553 C   0  0  0  0  0  0  0  0  0  0  0  0
    5.7562    2.9188   26.5721 Br  0  0  0  0  0  0  0  0  0  0  0  0
    6.9427    0.8563   24.9605 C   0  0  0  0  0  0  0  0  0  0  0  0
    6.4256    1.3710   24.1548 H   0  0  0  0  0  0  0  0  0  0  0  0
    7.1289   -0.1420   22.3390 N   0  0  0  0  0  0  0  0  0  0  0  0
    7.3445   -0.5463   21.0875 C   0  0  0  0  0  0  0  0  0  0  0  0
    6.6377    0.0961   19.9969 C   0  0  0  0  0  0  0  0  0  0  0  0
    7.1777    0.0387   18.7074 C   0  0  0  0  0  0  0  0  0  0  0  0
    8.1159   -0.4946   18.5525 H   0  0  0  0  0  0  0  0  0  0  0  0
    6.5940    0.6084   17.6473 N   0  0  0  0  0  0  0  0  0  0  0  0
    5.4347    1.2596   17.8551 C   0  0  0  0  0  0  0  0  0  0  0  0
    4.9766    1.7733   17.0219 H   0  0  0  0  0  0  0  0  0  0  0  0
    4.8078    1.3205   19.1012 C   0  0  0  0  0  0  0  0  0  0  0  0
    3.8654    1.8448   19.1993 H   0  0  0  0  0  0  0  0  0  0  0  0
    5.4112    0.7340   20.2030 C   0  0  0  0  0  0  0  0  0  0  0  0
    4.9423    0.7665   21.1881 H   0  0  0  0  0  0  0  0  0  0  0  0
  1  2  1  0
  2  3  2  0
  3  4  1  0
  4  5  2  0
  5  6  1  0
  6  7  2  0
  7  8  1  0
  7  9  1  0
  9 10  1  0
  9 11  2  0
 11 12  1  0
 11 13  1  0
 13 14  1  0
 13 15  2  0
 15 16  1  0
  5 17  1  0
 17 18  2  0
 18 19  1  0
 19 20  2  0
 20 21  1  0
 20 22  1  0
 22 23  2  0
 23 24  1  0
 23 25  1  0
 25 26  1  0
 25 27  2  0
 27 28  1  0
 18  2  1  0
 27 19  1  0
 15  6  1  0
M  END
>  <cnnaffinity>  (1) 
-5.07856

>  <filename>  (1) 
Brc1cccc(-c2nncc(-c3cccnc3)n2)c1

$$$$
