
     RDKit          3D

 26 28  0  0  0  0  0  0  0  0999 V2000
    8.7576   -3.7828   27.2204 Br  0  0  0  0  0  0  0  0  0  0  0  0
    8.1527   -2.2197   26.3006 C   0  0  0  0  0  0  0  0  0  0  0  0
    7.4723   -1.1870   26.9587 C   0  0  0  0  0  0  0  0  0  0  0  0
    6.9290   -0.1514   26.3013 N   0  0  0  0  0  0  0  0  0  0  0  0
    7.0584   -0.0960   24.9694 C   0  0  0  0  0  0  0  0  0  0  0  0
    7.7842   -1.0472   24.2488 C   0  0  0  0  0  0  0  0  0  0  0  0
    7.8823   -0.9366   22.8100 C   0  0  0  0  0  0  0  0  0  0  0  0
    6.9823   -0.3123   22.0859 N   0  0  0  0  0  0  0  0  0  0  0  0
    7.2751   -0.4239   20.7326 C   0  0  0  0  0  0  0  0  0  0  0  0
    6.5043    0.1884   19.6510 C   0  0  0  0  0  0  0  0  0  0  0  0
    5.2984    0.8791   19.8487 C   0  0  0  0  0  0  0  0  0  0  0  0
    4.7200    1.4983   18.7388 C   0  0  0  0  0  0  0  0  0  0  0  0
    5.3374    1.4055   17.4860 C   0  0  0  0  0  0  0  0  0  0  0  0
    6.4722    0.7143   17.2886 N   0  0  0  0  0  0  0  0  0  0  0  0
    7.0306    0.1245   18.3528 C   0  0  0  0  0  0  0  0  0  0  0  0
    7.9581   -0.4155   18.1869 H   0  0  0  0  0  0  0  0  0  0  0  0
    4.8934    1.9136   16.6387 H   0  0  0  0  0  0  0  0  0  0  0  0
    3.8059    2.0776   18.8267 H   0  0  0  0  0  0  0  0  0  0  0  0
    4.8305    0.9605   20.8318 H   0  0  0  0  0  0  0  0  0  0  0  0
    8.4108   -1.1369   20.4504 C   0  0  0  0  0  0  0  0  0  0  0  0
    9.1789   -1.7018   21.9036 S   0  0  0  0  0  0  0  0  0  0  0  0
    8.7790   -1.3081   19.4457 H   0  0  0  0  0  0  0  0  0  0  0  0
    8.3520   -2.1261   24.9326 C   0  0  0  0  0  0  0  0  0  0  0  0
    8.9041   -2.9215   24.4342 H   0  0  0  0  0  0  0  0  0  0  0  0
    6.5649    0.7232   24.4597 H   0  0  0  0  0  0  0  0  0  0  0  0
    7.3489   -1.2281   28.0343 H   0  0  0  0  0  0  0  0  0  0  0  0
  1  2  1  0
  2  3  2  0
  3  4  1  0
  4  5  2  0
  5  6  1  0
  6  7  1  0
  7  8  2  0
  8  9  1  0
  9 10  1  0
 10 11  2  0
 11 12  1  0
 12 13  2  0
 13 14  1  0
 14 15  2  0
 15 16  1  0
 13 17  1  0
 12 18  1  0
 11 19  1  0
  9 20  2  0
 20 21  1  0
 20 22  1  0
  6 23  2  0
 23 24  1  0
  5 25  1  0
  3 26  1  0
 23  2  1  0
 21  7  1  0
 15 10  1  0
M  END
>  <cnnaffinity>  (1) 
-4.93221

>  <filename>  (1) 
Brc1cncc(-c2nc(-c3cccnc3)cs2)c1

$$$$
