
     RDKit          3D

 27 29  0  0  0  0  0  0  0  0999 V2000
    4.8868    1.7962   17.0122 H   0  0  0  0  0  0  0  0  0  0  0  0
    5.4026    1.2961   17.8272 C   0  0  0  0  0  0  0  0  0  0  0  0
    6.5669    0.6700   17.5734 N   0  0  0  0  0  0  0  0  0  0  0  0
    7.1809    0.0560   18.6041 C   0  0  0  0  0  0  0  0  0  0  0  0
    8.1233   -0.4413   18.4017 H   0  0  0  0  0  0  0  0  0  0  0  0
    6.6758    0.0295   19.9188 C   0  0  0  0  0  0  0  0  0  0  0  0
    7.3731   -0.7013   20.9928 C   0  0  0  0  0  0  0  0  0  0  0  0
    8.1214   -2.2606   20.7765 S   0  0  0  0  0  0  0  0  0  0  0  0
    8.5712   -2.4347   22.3850 N   0  0  0  0  0  0  0  0  0  0  0  0
    8.1985   -1.3762   23.0504 C   0  0  0  0  0  0  0  0  0  0  0  0
    8.4156   -1.2880   24.1073 H   0  0  0  0  0  0  0  0  0  0  0  0
    7.5153   -0.3373   22.3029 C   0  0  0  0  0  0  0  0  0  0  0  0
    7.1034    0.9220   22.9056 C   0  0  0  0  0  0  0  0  0  0  0  0
    7.3677    2.1332   22.2535 C   0  0  0  0  0  0  0  0  0  0  0  0
    7.8831    2.1293   21.2986 H   0  0  0  0  0  0  0  0  0  0  0  0
    7.0003    3.3435   22.8454 C   0  0  0  0  0  0  0  0  0  0  0  0
    7.2100    4.2791   22.3365 H   0  0  0  0  0  0  0  0  0  0  0  0
    6.3626    3.3414   24.0898 C   0  0  0  0  0  0  0  0  0  0  0  0
    6.0653    4.2787   24.5462 H   0  0  0  0  0  0  0  0  0  0  0  0
    6.1037    2.1375   24.7534 C   0  0  0  0  0  0  0  0  0  0  0  0
    5.2287    2.1424   26.4512 Br  0  0  0  0  0  0  0  0  0  0  0  0
    6.4840    0.9309   24.1606 C   0  0  0  0  0  0  0  0  0  0  0  0
    6.2814   -0.0061   24.6700 H   0  0  0  0  0  0  0  0  0  0  0  0
    5.4582    0.6690   20.1718 C   0  0  0  0  0  0  0  0  0  0  0  0
    5.0116    0.6410   21.1683 H   0  0  0  0  0  0  0  0  0  0  0  0
    4.8223    1.3121   19.1041 C   0  0  0  0  0  0  0  0  0  0  0  0
    3.8813    1.8312   19.2592 H   0  0  0  0  0  0  0  0  0  0  0  0
  1  2  1  0
  2  3  2  0
  3  4  1  0
  4  5  1  0
  4  6  2  0
  6  7  1  0
  7  8  1  0
  8  9  1  0
  9 10  2  0
 10 11  1  0
 10 12  1  0
 12 13  1  0
 13 14  2  0
 14 15  1  0
 14 16  1  0
 16 17  1  0
 16 18  2  0
 18 19  1  0
 18 20  1  0
 20 21  1  0
 20 22  2  0
 22 23  1  0
  6 24  1  0
 24 25  1  0
 24 26  2  0
 26 27  1  0
 26  2  1  0
 12  7  2  0
 22 13  1  0
M  END
>  <cnnaffinity>  (1) 
-4.98877

>  <filename>  (1) 
Brc1cccc(-c2cnsc2-c2cccnc2)c1

$$$$
