
     RDKit          3D

 35 37  0  0  0  0  0  0  0  0999 V2000
    8.8360   -4.1399   26.8163 Br  0  0  0  0  0  0  0  0  0  0  0  0
    7.9618   -2.7903   25.7691 C   0  0  0  0  0  0  0  0  0  0  0  0
    6.5997   -2.5047   25.9666 C   0  0  0  0  0  0  0  0  0  0  0  0
    5.9381   -1.5722   25.2605 N   0  0  0  0  0  0  0  0  0  0  0  0
    6.6406   -0.8971   24.3177 C   0  0  0  0  0  0  0  0  0  0  0  0
    8.0170   -1.1015   24.0408 C   0  0  0  0  0  0  0  0  0  0  0  0
    8.7338   -0.3765   23.0512 N   0  0  0  0  0  0  0  0  0  0  0  0
   10.1664   -0.0841   23.1707 C   0  0  0  0  0  0  0  0  0  0  0  0
   10.4136    1.0638   22.1962 C   0  0  0  0  0  0  0  0  0  0  0  0
    9.2661    1.0154   21.1951 C   0  0  0  0  0  0  0  0  0  0  0  0
    8.1031    0.3171   21.9157 C   0  0  0  0  0  0  0  0  0  0  0  0
    7.3862   -0.6894   21.0059 C   0  0  0  0  0  0  0  0  0  0  0  0
    6.6564    0.0164   19.8889 C   0  0  0  0  0  0  0  0  0  0  0  0
    5.4434    0.6497   20.1583 C   0  0  0  0  0  0  0  0  0  0  0  0
    4.8186    1.3060   19.0989 C   0  0  0  0  0  0  0  0  0  0  0  0
    5.4019    1.2959   17.8222 C   0  0  0  0  0  0  0  0  0  0  0  0
    6.5685    0.6770   17.5574 N   0  0  0  0  0  0  0  0  0  0  0  0
    7.1809    0.0585   18.5826 C   0  0  0  0  0  0  0  0  0  0  0  0
    8.1285   -0.4358   18.3985 H   0  0  0  0  0  0  0  0  0  0  0  0
    4.8851    1.8004   17.0119 H   0  0  0  0  0  0  0  0  0  0  0  0
    3.8833    1.8302   19.2588 H   0  0  0  0  0  0  0  0  0  0  0  0
    5.0105    0.6361   21.1626 H   0  0  0  0  0  0  0  0  0  0  0  0
    8.1158   -1.3954   20.5956 H   0  0  0  0  0  0  0  0  0  0  0  0
    6.6707   -1.2661   21.6034 H   0  0  0  0  0  0  0  0  0  0  0  0
    7.3941    1.0673   22.2789 H   0  0  0  0  0  0  0  0  0  0  0  0
    8.9878    2.0198   20.8660 H   0  0  0  0  0  0  0  0  0  0  0  0
    9.5706    0.4484   20.3117 H   0  0  0  0  0  0  0  0  0  0  0  0
   10.4002    2.0188   22.7279 H   0  0  0  0  0  0  0  0  0  0  0  0
   11.3849    0.9698   21.7039 H   0  0  0  0  0  0  0  0  0  0  0  0
   10.4306    0.2158   24.1886 H   0  0  0  0  0  0  0  0  0  0  0  0
   10.7555   -0.9619   22.8951 H   0  0  0  0  0  0  0  0  0  0  0  0
    8.6755   -2.0759   24.7983 C   0  0  0  0  0  0  0  0  0  0  0  0
    9.7271   -2.2880   24.6249 H   0  0  0  0  0  0  0  0  0  0  0  0
    6.1229   -0.1359   23.7527 H   0  0  0  0  0  0  0  0  0  0  0  0
    6.0589   -3.0649   26.7221 H   0  0  0  0  0  0  0  0  0  0  0  0
  1  2  1  0
  2  3  2  0
  3  4  1  0
  4  5  2  0
  5  6  1  0
  6  7  1  0
  7  8  1  0
  8  9  1  0
  9 10  1  0
 10 11  1  0
 11 12  1  0
 12 13  1  0
 13 14  2  0
 14 15  1  0
 15 16  2  0
 16 17  1  0
 17 18  2  0
 18 19  1  0
 16 20  1  0
 15 21  1  0
 14 22  1  0
 12 23  1  0
 12 24  1  0
 11 25  1  0
 10 26  1  0
 10 27  1  0
  9 28  1  0
  9 29  1  0
  8 30  1  0
  8 31  1  0
  6 32  2  0
 32 33  1  0
  5 34  1  0
  3 35  1  0
 32  2  1  0
 11  7  1  0
 18 13  1  0
M  END
>  <cnnaffinity>  (1) 
-5.47218

>  <filename>  (1) 
Brc1cncc(N2CCCC2Cc2cccnc2)c1

$$$$
