
     RDKit          3D

 33 35  0  0  0  0  0  0  0  0999 V2000
    6.5092    6.3399   24.5091 Br  0  0  0  0  0  0  0  0  0  0  0  0
    5.6513    4.6360   24.6382 C   0  0  0  0  0  0  0  0  0  0  0  0
    4.4446    4.5131   25.3322 C   0  0  0  0  0  0  0  0  0  0  0  0
    3.8120    3.2699   25.4316 C   0  0  0  0  0  0  0  0  0  0  0  0
    4.3917    2.1464   24.8303 C   0  0  0  0  0  0  0  0  0  0  0  0
    5.5933    2.2612   24.1303 C   0  0  0  0  0  0  0  0  0  0  0  0
    6.1365    1.1341   23.5293 N   0  0  0  0  0  0  0  0  0  0  0  0
    7.3714    1.1469   22.7319 C   0  0  0  0  0  0  0  0  0  0  0  0
    7.6352   -0.2317   22.1951 C   0  0  0  0  0  0  0  0  0  0  0  0
    8.3372   -1.2289   22.8047 C   0  0  0  0  0  0  0  0  0  0  0  0
    8.4176   -2.3018   21.8404 C   0  0  0  0  0  0  0  0  0  0  0  0
    7.8439   -1.9604   20.7136 N   0  0  0  0  0  0  0  0  0  0  0  0
    7.3504   -0.7017   20.9132 N   0  0  0  0  0  0  0  0  0  0  0  0
    6.6695    0.0033   19.9184 C   0  0  0  0  0  0  0  0  0  0  0  0
    5.4606    0.6604   20.1783 C   0  0  0  0  0  0  0  0  0  0  0  0
    4.8269    1.3104   19.1097 C   0  0  0  0  0  0  0  0  0  0  0  0
    5.4071    1.2937   17.8311 C   0  0  0  0  0  0  0  0  0  0  0  0
    6.5696    0.6643   17.5831 N   0  0  0  0  0  0  0  0  0  0  0  0
    7.1800    0.0341   18.6103 C   0  0  0  0  0  0  0  0  0  0  0  0
    8.1266   -0.4504   18.4049 H   0  0  0  0  0  0  0  0  0  0  0  0
    4.8893    1.7969   17.0148 H   0  0  0  0  0  0  0  0  0  0  0  0
    3.8861    1.8298   19.2588 H   0  0  0  0  0  0  0  0  0  0  0  0
    5.0086    0.6430   21.1741 H   0  0  0  0  0  0  0  0  0  0  0  0
    8.8954   -3.2580   22.0328 H   0  0  0  0  0  0  0  0  0  0  0  0
    8.7581   -1.2239   23.8051 H   0  0  0  0  0  0  0  0  0  0  0  0
    8.2227    1.4508   23.3517 H   0  0  0  0  0  0  0  0  0  0  0  0
    7.2837    1.8524   21.8993 H   0  0  0  0  0  0  0  0  0  0  0  0
    5.6660    0.2393   23.6569 H   0  0  0  0  0  0  0  0  0  0  0  0
    6.2189    3.5066   24.0421 C   0  0  0  0  0  0  0  0  0  0  0  0
    7.1525    3.5967   23.5020 H   0  0  0  0  0  0  0  0  0  0  0  0
    3.9147    1.1766   24.9026 H   0  0  0  0  0  0  0  0  0  0  0  0
    2.8764    3.1842   25.9744 H   0  0  0  0  0  0  0  0  0  0  0  0
    4.0025    5.3906   25.7937 H   0  0  0  0  0  0  0  0  0  0  0  0
  1  2  1  0
  2  3  2  0
  3  4  1  0
  4  5  2  0
  5  6  1  0
  6  7  1  0
  7  8  1  0
  8  9  1  0
  9 10  2  0
 10 11  1  0
 11 12  2  0
 12 13  1  0
 13 14  1  0
 14 15  2  0
 15 16  1  0
 16 17  2  0
 17 18  1  0
 18 19  2  0
 19 20  1  0
 17 21  1  0
 16 22  1  0
 15 23  1  0
 11 24  1  0
 10 25  1  0
  8 26  1  0
  8 27  1  0
  7 28  1  0
  6 29  2  0
 29 30  1  0
  5 31  1  0
  4 32  1  0
  3 33  1  0
 29  2  1  0
 13  9  1  0
 19 14  1  0
M  END
>  <cnnaffinity>  (1) 
-5.36861

>  <filename>  (1) 
Brc1cccc(NCc2ccnn2-c2cccnc2)c1

$$$$
