
     RDKit          3D

 35 38  0  0  0  0  0  0  0  0999 V2000
    4.9053    1.8201   17.0248 H   0  0  0  0  0  0  0  0  0  0  0  0
    5.4119    1.2953   17.8269 C   0  0  0  0  0  0  0  0  0  0  0  0
    6.5648    0.6550   17.5689 N   0  0  0  0  0  0  0  0  0  0  0  0
    7.1698    0.0277   18.5886 C   0  0  0  0  0  0  0  0  0  0  0  0
    8.1145   -0.4764   18.4045 H   0  0  0  0  0  0  0  0  0  0  0  0
    6.6472    0.0237   19.8828 C   0  0  0  0  0  0  0  0  0  0  0  0
    7.3624   -0.6845   20.9088 C   0  0  0  0  0  0  0  0  0  0  0  0
    8.0225   -1.7939   20.6575 N   0  0  0  0  0  0  0  0  0  0  0  0
    8.5133   -2.1464   21.8751 N   0  0  0  0  0  0  0  0  0  0  0  0
    8.2333   -1.2759   22.8601 C   0  0  0  0  0  0  0  0  0  0  0  0
    7.4799   -0.2966   22.3163 C   0  0  0  0  0  0  0  0  0  0  0  0
    7.1079    0.9281   22.9786 C   0  0  0  0  0  0  0  0  0  0  0  0
    7.2721    2.1408   22.3157 C   0  0  0  0  0  0  0  0  0  0  0  0
    7.6608    2.1303   21.3022 H   0  0  0  0  0  0  0  0  0  0  0  0
    6.9657    3.3383   22.9651 C   0  0  0  0  0  0  0  0  0  0  0  0
    7.1165    4.2799   22.4466 H   0  0  0  0  0  0  0  0  0  0  0  0
    6.4730    3.3119   24.2771 C   0  0  0  0  0  0  0  0  0  0  0  0
    6.2302    4.2398   24.7861 H   0  0  0  0  0  0  0  0  0  0  0  0
    6.2988    2.0937   24.9446 C   0  0  0  0  0  0  0  0  0  0  0  0
    5.6159    2.0618   26.7315 Br  0  0  0  0  0  0  0  0  0  0  0  0
    6.6301    0.9029   24.2933 C   0  0  0  0  0  0  0  0  0  0  0  0
    6.4971   -0.0465   24.8034 H   0  0  0  0  0  0  0  0  0  0  0  0
    9.0270   -1.4654   24.1138 C   0  0  0  0  0  0  0  0  0  0  0  0
    8.4050   -1.7024   24.9826 H   0  0  0  0  0  0  0  0  0  0  0  0
    9.6384   -0.5827   24.3287 H   0  0  0  0  0  0  0  0  0  0  0  0
    9.9058   -2.6771   23.7176 C   0  0  0  0  0  0  0  0  0  0  0  0
   10.9678   -2.4298   23.7818 H   0  0  0  0  0  0  0  0  0  0  0  0
    9.7059   -3.5364   24.3660 H   0  0  0  0  0  0  0  0  0  0  0  0
    9.5657   -3.0564   22.2668 C   0  0  0  0  0  0  0  0  0  0  0  0
    9.1944   -4.0839   22.2182 H   0  0  0  0  0  0  0  0  0  0  0  0
   10.4284   -2.8867   21.6195 H   0  0  0  0  0  0  0  0  0  0  0  0
    5.4525    0.6774   20.1599 C   0  0  0  0  0  0  0  0  0  0  0  0
    5.0179    0.6778   21.1591 H   0  0  0  0  0  0  0  0  0  0  0  0
    4.8303    1.3121   19.0977 C   0  0  0  0  0  0  0  0  0  0  0  0
    3.8951    1.8303   19.2433 H   0  0  0  0  0  0  0  0  0  0  0  0
  1  2  1  0
  2  3  2  0
  3  4  1  0
  4  5  1  0
  4  6  2  0
  6  7  1  0
  7  8  2  0
  8  9  1  0
  9 10  1  0
 10 11  2  0
 11 12  1  0
 12 13  2  0
 13 14  1  0
 13 15  1  0
 15 16  1  0
 15 17  2  0
 17 18  1  0
 17 19  1  0
 19 20  1  0
 19 21  2  0
 21 22  1  0
 10 23  1  0
 23 24  1  0
 23 25  1  0
 23 26  1  0
 26 27  1  0
 26 28  1  0
 26 29  1  0
 29 30  1  0
 29 31  1  0
  6 32  1  0
 32 33  1  0
 32 34  2  0
 34 35  1  0
 34  2  1  0
 11  7  1  0
 21 12  1  0
 29  9  1  0
M  END
>  <cnnaffinity>  (1) 
-5.61032

>  <filename>  (1) 
Brc1cccc(-c2c(-c3cccnc3)nn3c2CCC3)c1

$$$$
