
     RDKit          3D

 25 26  0  0  0  0  0  0  0  0999 V2000
    4.5225   -6.4981   22.6693 Br  0  0  0  0  0  0  0  0  0  0  0  0
    5.1755   -5.0984   21.5281 C   0  0  0  0  0  0  0  0  0  0  0  0
    5.4154   -5.3665   20.1736 C   0  0  0  0  0  0  0  0  0  0  0  0
    5.7740   -4.4083   19.2908 N   0  0  0  0  0  0  0  0  0  0  0  0
    6.0010   -3.1616   19.7715 C   0  0  0  0  0  0  0  0  0  0  0  0
    5.8794   -2.8292   21.1341 C   0  0  0  0  0  0  0  0  0  0  0  0
    6.1822   -1.5660   21.6607 N   0  0  0  0  0  0  0  0  0  0  0  0
    7.2209   -0.7119   21.0756 C   0  0  0  0  0  0  0  0  0  0  0  0
    6.5735    0.0363   19.9585 C   0  0  0  0  0  0  0  0  0  0  0  0
    5.3784    0.7298   20.1524 C   0  0  0  0  0  0  0  0  0  0  0  0
    4.8134    1.3560   19.0501 C   0  0  0  0  0  0  0  0  0  0  0  0
    5.4561    1.2900   17.8098 C   0  0  0  0  0  0  0  0  0  0  0  0
    6.6017    0.6093   17.6223 N   0  0  0  0  0  0  0  0  0  0  0  0
    7.1395   -0.0135   18.6834 C   0  0  0  0  0  0  0  0  0  0  0  0
    8.0558   -0.5821   18.5461 H   0  0  0  0  0  0  0  0  0  0  0  0
    4.9992    1.7878   16.9623 H   0  0  0  0  0  0  0  0  0  0  0  0
    3.8771    1.8895   19.1479 H   0  0  0  0  0  0  0  0  0  0  0  0
    4.8982    0.7501   21.1301 H   0  0  0  0  0  0  0  0  0  0  0  0
    8.0411   -1.3364   20.6998 H   0  0  0  0  0  0  0  0  0  0  0  0
    7.6362   -0.0198   21.8238 H   0  0  0  0  0  0  0  0  0  0  0  0
    5.9023   -1.3792   22.6253 H   0  0  0  0  0  0  0  0  0  0  0  0
    5.4180   -3.8048   22.0114 C   0  0  0  0  0  0  0  0  0  0  0  0
    5.2889   -3.5082   23.0467 H   0  0  0  0  0  0  0  0  0  0  0  0
    6.3004   -2.3590   19.1005 H   0  0  0  0  0  0  0  0  0  0  0  0
    5.2277   -6.3728   19.8211 H   0  0  0  0  0  0  0  0  0  0  0  0
  1  2  1  0
  2  3  2  0
  3  4  1  0
  4  5  2  0
  5  6  1  0
  6  7  1  0
  7  8  1  0
  8  9  1  0
  9 10  2  0
 10 11  1  0
 11 12  2  0
 12 13  1  0
 13 14  2  0
 14 15  1  0
 12 16  1  0
 11 17  1  0
 10 18  1  0
  8 19  1  0
  8 20  1  0
  7 21  1  0
  6 22  2  0
 22 23  1  0
  5 24  1  0
  3 25  1  0
 22  2  1  0
 14  9  1  0
M  END
>  <cnnaffinity>  (1) 
-4.83915

>  <filename>  (1) 
Brc1cncc(NCc2cccnc2)c1

$$$$
