
     RDKit          3D

 30 33  0  0  0  0  0  0  0  0999 V2000
    4.8966    1.7883   17.0173 H   0  0  0  0  0  0  0  0  0  0  0  0
    5.4097    1.2883   17.8360 C   0  0  0  0  0  0  0  0  0  0  0  0
    6.5796    0.6615   17.6030 N   0  0  0  0  0  0  0  0  0  0  0  0
    7.1917    0.0438   18.6257 C   0  0  0  0  0  0  0  0  0  0  0  0
    8.1363   -0.4454   18.4097 H   0  0  0  0  0  0  0  0  0  0  0  0
    6.6501    0.0138   19.9117 C   0  0  0  0  0  0  0  0  0  0  0  0
    7.3501   -0.6773   20.9698 C   0  0  0  0  0  0  0  0  0  0  0  0
    8.5651   -1.3391   20.7590 N   0  0  0  0  0  0  0  0  0  0  0  0
    8.7835   -1.8165   21.9518 C   0  0  0  0  0  0  0  0  0  0  0  0
   10.0242   -2.8225   22.6823 S   0  0  0  0  0  0  0  0  0  0  0  0
    9.0983   -2.7730   24.1994 C   0  0  0  0  0  0  0  0  0  0  0  0
    9.4179   -3.2893   25.1038 H   0  0  0  0  0  0  0  0  0  0  0  0
    7.9460   -1.9944   24.1091 C   0  0  0  0  0  0  0  0  0  0  0  0
    6.9851   -1.7696   25.2043 C   0  0  0  0  0  0  0  0  0  0  0  0
    6.7763   -2.7537   26.1858 C   0  0  0  0  0  0  0  0  0  0  0  0
    7.3240   -3.6904   26.1328 H   0  0  0  0  0  0  0  0  0  0  0  0
    5.8523   -2.5448   27.2149 C   0  0  0  0  0  0  0  0  0  0  0  0
    5.6974   -3.3128   27.9653 H   0  0  0  0  0  0  0  0  0  0  0  0
    5.1291   -1.3511   27.2832 C   0  0  0  0  0  0  0  0  0  0  0  0
    3.8768   -1.0693   28.6988 Br  0  0  0  0  0  0  0  0  0  0  0  0
    5.3297   -0.3665   26.3114 C   0  0  0  0  0  0  0  0  0  0  0  0
    4.7729    0.5628   26.3680 H   0  0  0  0  0  0  0  0  0  0  0  0
    6.2479   -0.5741   25.2758 C   0  0  0  0  0  0  0  0  0  0  0  0
    6.3992    0.2034   24.5310 H   0  0  0  0  0  0  0  0  0  0  0  0
    7.8076   -1.4597   22.8243 N   0  0  0  0  0  0  0  0  0  0  0  0
    6.8632   -0.7278   22.1971 N   0  0  0  0  0  0  0  0  0  0  0  0
    5.4340    0.6547   20.1625 C   0  0  0  0  0  0  0  0  0  0  0  0
    4.9904    0.6452   21.1614 H   0  0  0  0  0  0  0  0  0  0  0  0
    4.8179    1.3067   19.1033 C   0  0  0  0  0  0  0  0  0  0  0  0
    3.8837    1.8323   19.2589 H   0  0  0  0  0  0  0  0  0  0  0  0
  1  2  1  0
  2  3  2  0
  3  4  1  0
  4  5  1  0
  4  6  2  0
  6  7  1  0
  7  8  1  0
  8  9  2  0
  9 10  1  0
 10 11  1  0
 11 12  1  0
 11 13  2  0
 13 14  1  0
 14 15  2  0
 15 16  1  0
 15 17  1  0
 17 18  1  0
 17 19  2  0
 19 20  1  0
 19 21  1  0
 21 22  1  0
 21 23  2  0
 23 24  1  0
 13 25  1  0
 25 26  1  0
  6 27  1  0
 27 28  1  0
 27 29  2  0
 29 30  1  0
 29  2  1  0
 26  7  2  0
 25  9  1  0
 23 14  1  0
M  END
>  <cnnaffinity>  (1) 
-5.62871

>  <filename>  (1) 
Brc1ccc(-c2csc3nc(-c4cccnc4)nn23)cc1

$$$$
