
     RDKit          3D

 30 32  0  0  0  0  0  0  0  0999 V2000
    4.8998    1.7977   17.0215 H   0  0  0  0  0  0  0  0  0  0  0  0
    5.4148    1.2875   17.8319 C   0  0  0  0  0  0  0  0  0  0  0  0
    6.5756    0.6476   17.5967 N   0  0  0  0  0  0  0  0  0  0  0  0
    7.1857    0.0443   18.6278 C   0  0  0  0  0  0  0  0  0  0  0  0
    8.1285   -0.4556   18.4241 H   0  0  0  0  0  0  0  0  0  0  0  0
    6.6608    0.0594   19.9216 C   0  0  0  0  0  0  0  0  0  0  0  0
    7.3566   -0.6475   20.9627 C   0  0  0  0  0  0  0  0  0  0  0  0
    7.9920   -1.7585   20.7034 N   0  0  0  0  0  0  0  0  0  0  0  0
    8.5107   -2.3192   21.9639 C   0  0  0  0  0  0  0  0  0  0  0  0
    9.5997   -2.3876   21.9411 H   0  0  0  0  0  0  0  0  0  0  0  0
    8.1391   -3.3318   22.1373 H   0  0  0  0  0  0  0  0  0  0  0  0
    8.0426   -1.3775   23.0694 C   0  0  0  0  0  0  0  0  0  0  0  0
    8.8917   -0.9938   23.6395 H   0  0  0  0  0  0  0  0  0  0  0  0
    7.3554   -1.8779   23.7562 H   0  0  0  0  0  0  0  0  0  0  0  0
    7.3715   -0.3220   22.3101 N   0  0  0  0  0  0  0  0  0  0  0  0
    7.1406    0.9565   22.8348 C   0  0  0  0  0  0  0  0  0  0  0  0
    7.5260    2.1078   22.1370 C   0  0  0  0  0  0  0  0  0  0  0  0
    8.0109    1.9960   21.1756 H   0  0  0  0  0  0  0  0  0  0  0  0
    7.3342    3.3855   22.6878 C   0  0  0  0  0  0  0  0  0  0  0  0
    7.6490    4.2738   22.1472 H   0  0  0  0  0  0  0  0  0  0  0  0
    6.7378    3.5180   23.9454 C   0  0  0  0  0  0  0  0  0  0  0  0
    6.5724    4.5041   24.3752 H   0  0  0  0  0  0  0  0  0  0  0  0
    6.3483    2.3807   24.6565 C   0  0  0  0  0  0  0  0  0  0  0  0
    5.5296    2.5750   26.3767 Br  0  0  0  0  0  0  0  0  0  0  0  0
    6.5592    1.1109   24.0994 C   0  0  0  0  0  0  0  0  0  0  0  0
    6.2606    0.2305   24.6517 H   0  0  0  0  0  0  0  0  0  0  0  0
    5.4428    0.6868   20.1787 C   0  0  0  0  0  0  0  0  0  0  0  0
    4.9856    0.6669   21.1737 H   0  0  0  0  0  0  0  0  0  0  0  0
    4.8273    1.3115   19.1026 C   0  0  0  0  0  0  0  0  0  0  0  0
    3.8873    1.8239   19.2503 H   0  0  0  0  0  0  0  0  0  0  0  0
  1  2  1  0
  2  3  2  0
  3  4  1  0
  4  5  1  0
  4  6  2  0
  6  7  1  0
  7  8  2  0
  8  9  1  0
  9 10  1  0
  9 11  1  0
  9 12  1  0
 12 13  1  0
 12 14  1  0
 12 15  1  0
 15 16  1  0
 16 17  2  0
 17 18  1  0
 17 19  1  0
 19 20  1  0
 19 21  2  0
 21 22  1  0
 21 23  1  0
 23 24  1  0
 23 25  2  0
 25 26  1  0
  6 27  1  0
 27 28  1  0
 27 29  2  0
 29 30  1  0
 29  2  1  0
 15  7  1  0
 25 16  1  0
M  END
>  <cnnaffinity>  (1) 
-4.99228

>  <filename>  (1) 
Brc1cccc(N2CCN=C2c2cccnc2)c1

$$$$
