
     RDKit          3D

 32 34  0  0  0  0  0  0  0  0999 V2000
    2.1944    3.1713   26.3864 Br  0  0  0  0  0  0  0  0  0  0  0  0
    3.8468    3.2863   25.4233 C   0  0  0  0  0  0  0  0  0  0  0  0
    4.5204    4.5151   25.3039 C   0  0  0  0  0  0  0  0  0  0  0  0
    5.6845    4.6527   24.6436 N   0  0  0  0  0  0  0  0  0  0  0  0
    6.2015    3.5427   24.0715 C   0  0  0  0  0  0  0  0  0  0  0  0
    5.5961    2.2605   24.1333 C   0  0  0  0  0  0  0  0  0  0  0  0
    6.1356    1.1094   23.5263 N   0  0  0  0  0  0  0  0  0  0  0  0
    7.3725    1.1345   22.7295 C   0  0  0  0  0  0  0  0  0  0  0  0
    7.6441   -0.2357   22.1888 C   0  0  0  0  0  0  0  0  0  0  0  0
    8.3405   -1.2326   22.8045 C   0  0  0  0  0  0  0  0  0  0  0  0
    8.4159   -2.3032   21.8422 C   0  0  0  0  0  0  0  0  0  0  0  0
    7.8403   -1.9601   20.7153 N   0  0  0  0  0  0  0  0  0  0  0  0
    7.3502   -0.7007   20.9097 N   0  0  0  0  0  0  0  0  0  0  0  0
    6.6686    0.0041   19.9161 C   0  0  0  0  0  0  0  0  0  0  0  0
    5.4583    0.6598   20.1751 C   0  0  0  0  0  0  0  0  0  0  0  0
    4.8246    1.3104   19.1104 C   0  0  0  0  0  0  0  0  0  0  0  0
    5.4050    1.2937   17.8332 C   0  0  0  0  0  0  0  0  0  0  0  0
    6.5701    0.6664   17.5868 N   0  0  0  0  0  0  0  0  0  0  0  0
    7.1811    0.0366   18.6095 C   0  0  0  0  0  0  0  0  0  0  0  0
    8.1283   -0.4493   18.4026 H   0  0  0  0  0  0  0  0  0  0  0  0
    4.8906    1.7924   17.0149 H   0  0  0  0  0  0  0  0  0  0  0  0
    3.8841    1.8318   19.2608 H   0  0  0  0  0  0  0  0  0  0  0  0
    5.0075    0.6408   21.1705 H   0  0  0  0  0  0  0  0  0  0  0  0
    8.8940   -3.2586   22.0347 H   0  0  0  0  0  0  0  0  0  0  0  0
    8.7573   -1.2279   23.8066 H   0  0  0  0  0  0  0  0  0  0  0  0
    8.2223    1.4415   23.3500 H   0  0  0  0  0  0  0  0  0  0  0  0
    7.2826    1.8449   21.9007 H   0  0  0  0  0  0  0  0  0  0  0  0
    5.6675    0.2050   23.6459 H   0  0  0  0  0  0  0  0  0  0  0  0
    4.3960    2.1443   24.8319 C   0  0  0  0  0  0  0  0  0  0  0  0
    3.8991    1.1812   24.9125 H   0  0  0  0  0  0  0  0  0  0  0  0
    7.1373    3.6328   23.5336 H   0  0  0  0  0  0  0  0  0  0  0  0
    4.0826    5.3925   25.7673 H   0  0  0  0  0  0  0  0  0  0  0  0
  1  2  1  0
  2  3  2  0
  3  4  1  0
  4  5  2  0
  5  6  1  0
  6  7  1  0
  7  8  1  0
  8  9  1  0
  9 10  2  0
 10 11  1  0
 11 12  2  0
 12 13  1  0
 13 14  1  0
 14 15  2  0
 15 16  1  0
 16 17  2  0
 17 18  1  0
 18 19  2  0
 19 20  1  0
 17 21  1  0
 16 22  1  0
 15 23  1  0
 11 24  1  0
 10 25  1  0
  8 26  1  0
  8 27  1  0
  7 28  1  0
  6 29  2  0
 29 30  1  0
  5 31  1  0
  3 32  1  0
 29  2  1  0
 13  9  1  0
 19 14  1  0
M  END
>  <cnnaffinity>  (1) 
-5.71738

>  <filename>  (1) 
Brc1cncc(NCc2ccnn2-c2cccnc2)c1

$$$$
