
     RDKit          3D

 30 32  0  0  0  0  0  0  0  0999 V2000
    4.9979    1.8643   16.8710 H   0  0  0  0  0  0  0  0  0  0  0  0
    5.4790    1.3332   17.6878 C   0  0  0  0  0  0  0  0  0  0  0  0
    6.6795    0.7631   17.4861 N   0  0  0  0  0  0  0  0  0  0  0  0
    7.2737    0.1509   18.5233 C   0  0  0  0  0  0  0  0  0  0  0  0
    8.2515   -0.2910   18.3548 H   0  0  0  0  0  0  0  0  0  0  0  0
    6.6823    0.0463   19.7852 C   0  0  0  0  0  0  0  0  0  0  0  0
    7.4233   -0.6360   20.8315 C   0  0  0  0  0  0  0  0  0  0  0  0
    8.7617   -0.5834   20.7781 N   0  0  0  0  0  0  0  0  0  0  0  0
    9.4517   -1.1979   21.7479 C   0  0  0  0  0  0  0  0  0  0  0  0
   10.5353   -1.1425   21.7229 H   0  0  0  0  0  0  0  0  0  0  0  0
    8.8360   -1.9096   22.7845 C   0  0  0  0  0  0  0  0  0  0  0  0
    9.4554   -2.3806   23.5368 H   0  0  0  0  0  0  0  0  0  0  0  0
    7.4456   -2.0451   22.8320 C   0  0  0  0  0  0  0  0  0  0  0  0
    6.7878   -2.9280   23.8356 C   0  0  0  0  0  0  0  0  0  0  0  0
    5.4293   -3.2782   23.7378 C   0  0  0  0  0  0  0  0  0  0  0  0
    4.8258   -2.8734   22.9384 H   0  0  0  0  0  0  0  0  0  0  0  0
    4.8421   -4.1773   24.6324 C   0  0  0  0  0  0  0  0  0  0  0  0
    3.7912   -4.4315   24.5285 H   0  0  0  0  0  0  0  0  0  0  0  0
    5.6113   -4.7241   25.6672 C   0  0  0  0  0  0  0  0  0  0  0  0
    5.1709   -5.4113   26.3792 H   0  0  0  0  0  0  0  0  0  0  0  0
    6.9544   -4.3798   25.8151 C   0  0  0  0  0  0  0  0  0  0  0  0
    7.9630   -5.0960   27.2845 Br  0  0  0  0  0  0  0  0  0  0  0  0
    7.5318   -3.4964   24.8908 C   0  0  0  0  0  0  0  0  0  0  0  0
    8.5758   -3.2392   25.0085 H   0  0  0  0  0  0  0  0  0  0  0  0
    6.7502   -1.3514   21.8341 C   0  0  0  0  0  0  0  0  0  0  0  0
    5.6730   -1.3768   21.7974 H   0  0  0  0  0  0  0  0  0  0  0  0
    5.4253    0.6226   19.9973 C   0  0  0  0  0  0  0  0  0  0  0  0
    4.9376    0.5943   20.9714 H   0  0  0  0  0  0  0  0  0  0  0  0
    4.8350    1.2856   18.9257 C   0  0  0  0  0  0  0  0  0  0  0  0
    3.8852    1.7886   19.0437 H   0  0  0  0  0  0  0  0  0  0  0  0
  1  2  1  0
  2  3  2  0
  3  4  1  0
  4  5  1  0
  4  6  2  0
  6  7  1  0
  7  8  2  0
  8  9  1  0
  9 10  1  0
  9 11  2  0
 11 12  1  0
 11 13  1  0
 13 14  1  0
 14 15  2  0
 15 16  1  0
 15 17  1  0
 17 18  1  0
 17 19  2  0
 19 20  1  0
 19 21  1  0
 21 22  1  0
 21 23  2  0
 23 24  1  0
 13 25  2  0
 25 26  1  0
  6 27  1  0
 27 28  1  0
 27 29  2  0
 29 30  1  0
 29  2  1  0
 25  7  1  0
 23 14  1  0
M  END
>  <cnnaffinity>  (1) 
-5.129

>  <filename>  (1) 
Brc1cccc(-c2ccnc(-c3cccnc3)c2)c1

$$$$
