
     RDKit          3D

 40 43  0  0  0  0  0  0  0  0999 V2000
    3.5641   -2.2742   27.2727 Br  0  0  0  0  0  0  0  0  0  0  0  0
    5.4189   -2.6827   27.0007 C   0  0  0  0  0  0  0  0  0  0  0  0
    5.9965   -3.7263   27.7386 C   0  0  0  0  0  0  0  0  0  0  0  0
    7.3578   -4.0270   27.6191 C   0  0  0  0  0  0  0  0  0  0  0  0
    8.1486   -3.3153   26.7205 C   0  0  0  0  0  0  0  0  0  0  0  0
    7.5850   -2.3254   25.9198 C   0  0  0  0  0  0  0  0  0  0  0  0
    8.3836   -1.7695   24.9963 N   0  0  0  0  0  0  0  0  0  0  0  0
    7.7978   -0.8843   24.1718 C   0  0  0  0  0  0  0  0  0  0  0  0
    8.5956   -0.3650   23.1438 N   0  0  0  0  0  0  0  0  0  0  0  0
   10.0589   -0.4683   23.1661 C   0  0  0  0  0  0  0  0  0  0  0  0
   10.4830    0.1324   21.8322 C   0  0  0  0  0  0  0  0  0  0  0  0
    9.2944    0.9738   21.3614 C   0  0  0  0  0  0  0  0  0  0  0  0
    8.0488    0.3230   21.9641 C   0  0  0  0  0  0  0  0  0  0  0  0
    7.3905   -0.6956   21.0166 C   0  0  0  0  0  0  0  0  0  0  0  0
    6.6656    0.0012   19.8850 C   0  0  0  0  0  0  0  0  0  0  0  0
    5.4533    0.6455   20.1286 C   0  0  0  0  0  0  0  0  0  0  0  0
    4.8408    1.3040   19.0647 C   0  0  0  0  0  0  0  0  0  0  0  0
    5.4389    1.2982   17.8003 C   0  0  0  0  0  0  0  0  0  0  0  0
    6.5977    0.6604   17.5548 N   0  0  0  0  0  0  0  0  0  0  0  0
    7.1942    0.0288   18.5816 C   0  0  0  0  0  0  0  0  0  0  0  0
    8.1340   -0.4791   18.3916 H   0  0  0  0  0  0  0  0  0  0  0  0
    4.9473    1.8202   16.9861 H   0  0  0  0  0  0  0  0  0  0  0  0
    3.9074    1.8337   19.2078 H   0  0  0  0  0  0  0  0  0  0  0  0
    5.0076    0.6426   21.1222 H   0  0  0  0  0  0  0  0  0  0  0  0
    8.1488   -1.3793   20.6220 H   0  0  0  0  0  0  0  0  0  0  0  0
    6.6733   -1.2986   21.5837 H   0  0  0  0  0  0  0  0  0  0  0  0
    7.3190    1.0926   22.2423 H   0  0  0  0  0  0  0  0  0  0  0  0
    9.3882    1.9934   21.7509 H   0  0  0  0  0  0  0  0  0  0  0  0
    9.2427    1.0185   20.2693 H   0  0  0  0  0  0  0  0  0  0  0  0
   11.3906    0.7378   21.9313 H   0  0  0  0  0  0  0  0  0  0  0  0
   10.6743   -0.6760   21.1197 H   0  0  0  0  0  0  0  0  0  0  0  0
   10.3840   -1.5116   23.2517 H   0  0  0  0  0  0  0  0  0  0  0  0
   10.4797    0.1050   24.0016 H   0  0  0  0  0  0  0  0  0  0  0  0
    6.4172   -0.5582   24.2988 C   0  0  0  0  0  0  0  0  0  0  0  0
    5.6117   -1.0766   25.2568 N   0  0  0  0  0  0  0  0  0  0  0  0
    6.1980   -1.9847   26.0616 C   0  0  0  0  0  0  0  0  0  0  0  0
    5.9830    0.1114   23.5674 H   0  0  0  0  0  0  0  0  0  0  0  0
    9.1987   -3.5524   26.5847 H   0  0  0  0  0  0  0  0  0  0  0  0
    7.8112   -4.8156   28.2173 H   0  0  0  0  0  0  0  0  0  0  0  0
    5.3791   -4.3308   28.3984 H   0  0  0  0  0  0  0  0  0  0  0  0
  1  2  1  0
  2  3  2  0
  3  4  1  0
  4  5  2  0
  5  6  1  0
  6  7  2  0
  7  8  1  0
  8  9  1  0
  9 10  1  0
 10 11  1  0
 11 12  1  0
 12 13  1  0
 13 14  1  0
 14 15  1  0
 15 16  2  0
 16 17  1  0
 17 18  2  0
 18 19  1  0
 19 20  2  0
 20 21  1  0
 18 22  1  0
 17 23  1  0
 16 24  1  0
 14 25  1  0
 14 26  1  0
 13 27  1  0
 12 28  1  0
 12 29  1  0
 11 30  1  0
 11 31  1  0
 10 32  1  0
 10 33  1  0
  8 34  2  0
 34 35  1  0
 35 36  2  0
 34 37  1  0
  5 38  1  0
  4 39  1  0
  3 40  1  0
 36  2  1  0
 36  6  1  0
 13  9  1  0
 20 15  1  0
M  END
>  <cnnaffinity>  (1) 
-5.76565

>  <filename>  (1) 
Brc1cccc2nc(N3CCCC3Cc3cccnc3)cnc12

$$$$
