
     RDKit          3D

 30 32  0  0  0  0  0  0  0  0999 V2000
    4.8959    1.7745   17.0145 H   0  0  0  0  0  0  0  0  0  0  0  0
    5.3994    1.2913   17.8451 C   0  0  0  0  0  0  0  0  0  0  0  0
    6.5693    0.6785   17.6001 N   0  0  0  0  0  0  0  0  0  0  0  0
    7.1887    0.0450   18.6087 C   0  0  0  0  0  0  0  0  0  0  0  0
    8.1358   -0.4433   18.3903 H   0  0  0  0  0  0  0  0  0  0  0  0
    6.6649    0.0081   19.9056 C   0  0  0  0  0  0  0  0  0  0  0  0
    7.3837   -0.7197   20.9505 C   0  0  0  0  0  0  0  0  0  0  0  0
    7.7350   -1.9943   20.6803 N   0  0  0  0  0  0  0  0  0  0  0  0
    8.3441   -2.7480   21.6181 C   0  0  0  0  0  0  0  0  0  0  0  0
    8.6236   -3.7766   21.3908 H   0  0  0  0  0  0  0  0  0  0  0  0
    8.6249   -2.2421   22.8879 C   0  0  0  0  0  0  0  0  0  0  0  0
    9.1162   -2.8611   23.6348 H   0  0  0  0  0  0  0  0  0  0  0  0
    8.2805   -0.9249   23.1819 C   0  0  0  0  0  0  0  0  0  0  0  0
    8.5203   -0.5157   24.1589 H   0  0  0  0  0  0  0  0  0  0  0  0
    7.6631   -0.1336   22.2049 C   0  0  0  0  0  0  0  0  0  0  0  0
    7.3814    1.2842   22.5097 C   0  0  0  0  0  0  0  0  0  0  0  0
    7.8611    2.3068   21.6747 C   0  0  0  0  0  0  0  0  0  0  0  0
    8.4513    2.0670   20.7971 H   0  0  0  0  0  0  0  0  0  0  0  0
    7.6032    3.6508   21.9732 C   0  0  0  0  0  0  0  0  0  0  0  0
    7.9778    4.4393   21.3272 H   0  0  0  0  0  0  0  0  0  0  0  0
    6.8609    3.9846   23.1079 C   0  0  0  0  0  0  0  0  0  0  0  0
    6.6565    5.0263   23.3316 H   0  0  0  0  0  0  0  0  0  0  0  0
    6.3852    2.9797   23.9550 C   0  0  0  0  0  0  0  0  0  0  0  0
    5.3730    3.4376   25.5094 Br  0  0  0  0  0  0  0  0  0  0  0  0
    6.6520    1.6369   23.6572 C   0  0  0  0  0  0  0  0  0  0  0  0
    6.2729    0.8634   24.3166 H   0  0  0  0  0  0  0  0  0  0  0  0
    5.4509    0.6549   20.1621 C   0  0  0  0  0  0  0  0  0  0  0  0
    5.0080    0.6313   21.1544 H   0  0  0  0  0  0  0  0  0  0  0  0
    4.8120    1.3110   19.1134 C   0  0  0  0  0  0  0  0  0  0  0  0
    3.8773    1.8404   19.2681 H   0  0  0  0  0  0  0  0  0  0  0  0
  1  2  1  0
  2  3  2  0
  3  4  1  0
  4  5  1  0
  4  6  2  0
  6  7  1  0
  7  8  2  0
  8  9  1  0
  9 10  1  0
  9 11  2  0
 11 12  1  0
 11 13  1  0
 13 14  1  0
 13 15  2  0
 15 16  1  0
 16 17  2  0
 17 18  1  0
 17 19  1  0
 19 20  1  0
 19 21  2  0
 21 22  1  0
 21 23  1  0
 23 24  1  0
 23 25  2  0
 25 26  1  0
  6 27  1  0
 27 28  1  0
 27 29  2  0
 29 30  1  0
 29  2  1  0
 15  7  1  0
 25 16  1  0
M  END
>  <cnnaffinity>  (1) 
-4.88273

>  <filename>  (1) 
Brc1cccc(-c2cccnc2-c2cccnc2)c1

$$$$
