
     RDKit          3D

 40 43  0  0  0  0  0  0  0  0999 V2000
    5.7742   -5.0305   29.1847 Br  0  0  0  0  0  0  0  0  0  0  0  0
    6.6654   -4.0896   27.7825 C   0  0  0  0  0  0  0  0  0  0  0  0
    8.0371   -4.2472   27.5970 C   0  0  0  0  0  0  0  0  0  0  0  0
    8.7203   -3.5099   26.6205 C   0  0  0  0  0  0  0  0  0  0  0  0
    8.0316   -2.6066   25.8100 C   0  0  0  0  0  0  0  0  0  0  0  0
    8.7189   -1.9315   24.8671 N   0  0  0  0  0  0  0  0  0  0  0  0
    8.0073   -1.0923   24.0910 C   0  0  0  0  0  0  0  0  0  0  0  0
    8.7152   -0.3862   23.0954 N   0  0  0  0  0  0  0  0  0  0  0  0
   10.1640   -0.1563   23.1977 C   0  0  0  0  0  0  0  0  0  0  0  0
   10.4254    0.9818   22.2154 C   0  0  0  0  0  0  0  0  0  0  0  0
    9.2547    0.9803   21.2332 C   0  0  0  0  0  0  0  0  0  0  0  0
    8.0839    0.3025   21.9523 C   0  0  0  0  0  0  0  0  0  0  0  0
    7.3828   -0.6932   21.0248 C   0  0  0  0  0  0  0  0  0  0  0  0
    6.6542    0.0097   19.8922 C   0  0  0  0  0  0  0  0  0  0  0  0
    5.4471    0.6528   20.1453 C   0  0  0  0  0  0  0  0  0  0  0  0
    4.8210    1.3014   19.0832 C   0  0  0  0  0  0  0  0  0  0  0  0
    5.3982    1.2986   17.8093 C   0  0  0  0  0  0  0  0  0  0  0  0
    6.5618    0.6740   17.5527 N   0  0  0  0  0  0  0  0  0  0  0  0
    7.1750    0.0526   18.5817 C   0  0  0  0  0  0  0  0  0  0  0  0
    8.1260   -0.4344   18.3951 H   0  0  0  0  0  0  0  0  0  0  0  0
    4.8852    1.8277   17.0088 H   0  0  0  0  0  0  0  0  0  0  0  0
    3.8894    1.8226   19.2390 H   0  0  0  0  0  0  0  0  0  0  0  0
    5.0164    0.6474   21.1461 H   0  0  0  0  0  0  0  0  0  0  0  0
    6.6776   -1.2758   21.6237 H   0  0  0  0  0  0  0  0  0  0  0  0
    8.1282   -1.3876   20.6213 H   0  0  0  0  0  0  0  0  0  0  0  0
    7.3668    1.0549   22.2989 H   0  0  0  0  0  0  0  0  0  0  0  0
    8.9971    1.9999   20.9343 H   0  0  0  0  0  0  0  0  0  0  0  0
    9.5218    0.4164   20.3309 H   0  0  0  0  0  0  0  0  0  0  0  0
   10.4518    1.9384   22.7490 H   0  0  0  0  0  0  0  0  0  0  0  0
   11.3815    0.8516   21.6977 H   0  0  0  0  0  0  0  0  0  0  0  0
   10.7266   -1.0524   22.9110 H   0  0  0  0  0  0  0  0  0  0  0  0
   10.4646    0.1371   24.2116 H   0  0  0  0  0  0  0  0  0  0  0  0
    6.6067   -0.9354   24.3026 C   0  0  0  0  0  0  0  0  0  0  0  0
    5.9038   -1.5904   25.2590 N   0  0  0  0  0  0  0  0  0  0  0  0
    6.6278   -2.4415   26.0082 C   0  0  0  0  0  0  0  0  0  0  0  0
    5.9699   -3.1744   26.9961 C   0  0  0  0  0  0  0  0  0  0  0  0
    4.9130   -3.0122   27.1587 H   0  0  0  0  0  0  0  0  0  0  0  0
    6.0774   -0.2372   23.6688 H   0  0  0  0  0  0  0  0  0  0  0  0
    9.7879   -3.6251   26.4767 H   0  0  0  0  0  0  0  0  0  0  0  0
    8.5671   -4.9346   28.2425 H   0  0  0  0  0  0  0  0  0  0  0  0
  1  2  1  0
  2  3  2  0
  3  4  1  0
  4  5  2  0
  5  6  1  0
  6  7  2  0
  7  8  1  0
  8  9  1  0
  9 10  1  0
 10 11  1  0
 11 12  1  0
 12 13  1  0
 13 14  1  0
 14 15  2  0
 15 16  1  0
 16 17  2  0
 17 18  1  0
 18 19  2  0
 19 20  1  0
 17 21  1  0
 16 22  1  0
 15 23  1  0
 13 24  1  0
 13 25  1  0
 12 26  1  0
 11 27  1  0
 11 28  1  0
 10 29  1  0
 10 30  1  0
  9 31  1  0
  9 32  1  0
  7 33  1  0
 33 34  2  0
 34 35  1  0
 35 36  2  0
 36 37  1  0
 33 38  1  0
  4 39  1  0
  3 40  1  0
 36  2  1  0
 35  5  1  0
 12  8  1  0
 19 14  1  0
M  END
>  <cnnaffinity>  (1) 
-5.71525

>  <filename>  (1) 
Brc1ccc2nc(N3CCCC3Cc3cccnc3)cnc2c1

$$$$
