
     RDKit          3D

 32 34  0  0  0  0  0  0  0  0999 V2000
   10.1942    5.7107   26.5390 Br  0  0  0  0  0  0  0  0  0  0  0  0
    8.7768    4.6363   25.8054 C   0  0  0  0  0  0  0  0  0  0  0  0
    7.4402    5.0689   25.9069 C   0  0  0  0  0  0  0  0  0  0  0  0
    6.4074    4.4208   25.3445 N   0  0  0  0  0  0  0  0  0  0  0  0
    6.6780    3.2906   24.6577 C   0  0  0  0  0  0  0  0  0  0  0  0
    7.9807    2.7459   24.5390 C   0  0  0  0  0  0  0  0  0  0  0  0
    8.2457    1.5702   23.8246 N   0  0  0  0  0  0  0  0  0  0  0  0
    7.2075    0.9959   22.9693 C   0  0  0  0  0  0  0  0  0  0  0  0
    7.6633   -0.2917   22.3729 C   0  0  0  0  0  0  0  0  0  0  0  0
    8.3518   -1.3209   22.9459 C   0  0  0  0  0  0  0  0  0  0  0  0
    8.5563   -2.2307   21.9224 N   0  0  0  0  0  0  0  0  0  0  0  0
    8.0302   -1.8103   20.7378 N   0  0  0  0  0  0  0  0  0  0  0  0
    7.4477   -0.6609   20.9884 C   0  0  0  0  0  0  0  0  0  0  0  0
    6.6988    0.0479   19.9587 C   0  0  0  0  0  0  0  0  0  0  0  0
    5.5117    0.7498   20.2084 C   0  0  0  0  0  0  0  0  0  0  0  0
    4.8889    1.3573   19.1165 C   0  0  0  0  0  0  0  0  0  0  0  0
    5.4675    1.2865   17.8432 C   0  0  0  0  0  0  0  0  0  0  0  0
    6.5934    0.5967   17.6068 N   0  0  0  0  0  0  0  0  0  0  0  0
    7.1795   -0.0218   18.6467 C   0  0  0  0  0  0  0  0  0  0  0  0
    8.0819   -0.5921   18.4560 H   0  0  0  0  0  0  0  0  0  0  0  0
    4.9825    1.7926   17.0115 H   0  0  0  0  0  0  0  0  0  0  0  0
    3.9520    1.8876   19.2299 H   0  0  0  0  0  0  0  0  0  0  0  0
    5.0632    0.8060   21.2007 H   0  0  0  0  0  0  0  0  0  0  0  0
    9.0182   -3.1321   22.0467 H   0  0  0  0  0  0  0  0  0  0  0  0
    8.6752   -1.4118   23.9802 H   0  0  0  0  0  0  0  0  0  0  0  0
    6.3018    0.8312   23.5609 H   0  0  0  0  0  0  0  0  0  0  0  0
    6.9630    1.7084   22.1741 H   0  0  0  0  0  0  0  0  0  0  0  0
    9.2013    1.2039   23.7702 H   0  0  0  0  0  0  0  0  0  0  0  0
    9.0378    3.4359   25.1276 C   0  0  0  0  0  0  0  0  0  0  0  0
   10.0411    3.0429   25.0144 H   0  0  0  0  0  0  0  0  0  0  0  0
    5.8561    2.7857   24.1552 H   0  0  0  0  0  0  0  0  0  0  0  0
    7.2143    5.9763   26.4538 H   0  0  0  0  0  0  0  0  0  0  0  0
  1  2  1  0
  2  3  2  0
  3  4  1  0
  4  5  2  0
  5  6  1  0
  6  7  1  0
  7  8  1  0
  8  9  1  0
  9 10  2  0
 10 11  1  0
 11 12  1  0
 12 13  2  0
 13 14  1  0
 14 15  2  0
 15 16  1  0
 16 17  2  0
 17 18  1  0
 18 19  2  0
 19 20  1  0
 17 21  1  0
 16 22  1  0
 15 23  1  0
 11 24  1  0
 10 25  1  0
  8 26  1  0
  8 27  1  0
  7 28  1  0
  6 29  2  0
 29 30  1  0
  5 31  1  0
  3 32  1  0
 29  2  1  0
 13  9  1  0
 19 14  1  0
M  END
>  <cnnaffinity>  (1) 
-5.65403

>  <filename>  (1) 
Brc1cncc(NCc2c[nH]nc2-c2cccnc2)c1

$$$$
