
     RDKit          3D

 30 32  0  0  0  0  0  0  0  0999 V2000
    5.0599    1.8364   17.0281 H   0  0  0  0  0  0  0  0  0  0  0  0
    5.5181    1.3026   17.8529 C   0  0  0  0  0  0  0  0  0  0  0  0
    6.7164    0.7204   17.6495 N   0  0  0  0  0  0  0  0  0  0  0  0
    7.2824    0.0752   18.6935 C   0  0  0  0  0  0  0  0  0  0  0  0
    8.2436   -0.4005   18.5238 H   0  0  0  0  0  0  0  0  0  0  0  0
    6.6732   -0.0287   19.9721 C   0  0  0  0  0  0  0  0  0  0  0  0
    7.2340   -0.6726   21.0827 N   0  0  0  0  0  0  0  0  0  0  0  0
    6.6047   -0.8818   21.8594 H   0  0  0  0  0  0  0  0  0  0  0  0
    8.6121   -0.6374   21.3491 C   0  0  0  0  0  0  0  0  0  0  0  0
    9.6128    0.1731   20.6700 C   0  0  0  0  0  0  0  0  0  0  0  0
    9.3814    0.8811   19.8811 H   0  0  0  0  0  0  0  0  0  0  0  0
   10.8237   -0.0702   21.1280 N   0  0  0  0  0  0  0  0  0  0  0  0
   10.6445   -1.0265   22.0851 N   0  0  0  0  0  0  0  0  0  0  0  0
   11.4195   -1.4866   22.5683 H   0  0  0  0  0  0  0  0  0  0  0  0
    9.3071   -1.3617   22.2739 C   0  0  0  0  0  0  0  0  0  0  0  0
    8.8028   -2.3604   23.2205 C   0  0  0  0  0  0  0  0  0  0  0  0
    9.6182   -3.4366   23.5907 C   0  0  0  0  0  0  0  0  0  0  0  0
   10.6042   -3.5033   23.1427 H   0  0  0  0  0  0  0  0  0  0  0  0
    9.1374   -4.4315   24.4557 C   0  0  0  0  0  0  0  0  0  0  0  0
    9.7805   -5.2686   24.7218 H   0  0  0  0  0  0  0  0  0  0  0  0
    7.8355   -4.3381   24.9711 C   0  0  0  0  0  0  0  0  0  0  0  0
    7.1291   -5.7128   26.0960 Br  0  0  0  0  0  0  0  0  0  0  0  0
    7.0388   -3.2402   24.6345 C   0  0  0  0  0  0  0  0  0  0  0  0
    6.0315   -3.1483   25.0346 H   0  0  0  0  0  0  0  0  0  0  0  0
    7.5125   -2.2650   23.7535 C   0  0  0  0  0  0  0  0  0  0  0  0
    6.8776   -1.4213   23.5131 H   0  0  0  0  0  0  0  0  0  0  0  0
    5.4202    0.5417   20.1513 C   0  0  0  0  0  0  0  0  0  0  0  0
    4.9229    0.4655   21.1157 H   0  0  0  0  0  0  0  0  0  0  0  0
    4.8457    1.2309   19.0833 C   0  0  0  0  0  0  0  0  0  0  0  0
    3.8867    1.7212   19.2073 H   0  0  0  0  0  0  0  0  0  0  0  0
  1  2  1  0
  2  3  2  0
  3  4  1  0
  4  5  1  0
  4  6  2  0
  6  7  1  0
  7  8  1  0
  7  9  1  0
  9 10  1  0
 10 11  1  0
 10 12  2  0
 12 13  1  0
 13 14  1  0
 13 15  1  0
 15 16  1  0
 16 17  2  0
 17 18  1  0
 17 19  1  0
 19 20  1  0
 19 21  2  0
 21 22  1  0
 21 23  1  0
 23 24  1  0
 23 25  2  0
 25 26  1  0
  6 27  1  0
 27 28  1  0
 27 29  2  0
 29 30  1  0
 29  2  1  0
 15  9  2  0
 25 16  1  0
M  END
>  <cnnaffinity>  (1) 
-5.62868

>  <filename>  (1) 
Brc1ccc(-c2[nH]ncc2Nc2cccnc2)cc1

$$$$
