
     RDKit          3D

 40 43  0  0  0  0  0  0  0  0999 V2000
    1.9020   -1.3809   26.3869 Br  0  0  0  0  0  0  0  0  0  0  0  0
    3.7927   -1.6618   26.3293 C   0  0  0  0  0  0  0  0  0  0  0  0
    4.3846   -2.6428   27.1310 C   0  0  0  0  0  0  0  0  0  0  0  0
    5.7613   -2.8942   27.0438 C   0  0  0  0  0  0  0  0  0  0  0  0
    6.5483   -2.2084   26.1108 C   0  0  0  0  0  0  0  0  0  0  0  0
    7.8551   -2.5280   26.0196 N   0  0  0  0  0  0  0  0  0  0  0  0
    8.5299   -1.8604   25.0516 C   0  0  0  0  0  0  0  0  0  0  0  0
    7.9167   -0.9215   24.1670 C   0  0  0  0  0  0  0  0  0  0  0  0
    8.6562   -0.3250   23.1317 N   0  0  0  0  0  0  0  0  0  0  0  0
   10.1032   -0.1433   23.2328 C   0  0  0  0  0  0  0  0  0  0  0  0
   10.3818    0.9825   22.2507 C   0  0  0  0  0  0  0  0  0  0  0  0
    9.2329    0.9611   21.2477 C   0  0  0  0  0  0  0  0  0  0  0  0
    8.0412    0.3287   21.9685 C   0  0  0  0  0  0  0  0  0  0  0  0
    7.3562   -0.6880   21.0389 C   0  0  0  0  0  0  0  0  0  0  0  0
    6.6447   -0.0014   19.8851 C   0  0  0  0  0  0  0  0  0  0  0  0
    5.4325    0.6503   20.1216 C   0  0  0  0  0  0  0  0  0  0  0  0
    4.8072    1.3057   19.0602 C   0  0  0  0  0  0  0  0  0  0  0  0
    5.4111    1.3001   17.7974 C   0  0  0  0  0  0  0  0  0  0  0  0
    6.5729    0.6656   17.5527 N   0  0  0  0  0  0  0  0  0  0  0  0
    7.1752    0.0320   18.5778 C   0  0  0  0  0  0  0  0  0  0  0  0
    8.1213   -0.4611   18.3753 H   0  0  0  0  0  0  0  0  0  0  0  0
    4.9239    1.8355   16.9883 H   0  0  0  0  0  0  0  0  0  0  0  0
    3.8719    1.8408   19.2009 H   0  0  0  0  0  0  0  0  0  0  0  0
    4.9981    0.6649   21.1188 H   0  0  0  0  0  0  0  0  0  0  0  0
    8.1101   -1.3874   20.6597 H   0  0  0  0  0  0  0  0  0  0  0  0
    6.6328   -1.2706   21.6167 H   0  0  0  0  0  0  0  0  0  0  0  0
    7.3314    1.0978   22.2973 H   0  0  0  0  0  0  0  0  0  0  0  0
    9.5196    0.3458   20.3889 H   0  0  0  0  0  0  0  0  0  0  0  0
    8.9876    1.9644   20.8892 H   0  0  0  0  0  0  0  0  0  0  0  0
   11.3497    0.8516   21.7580 H   0  0  0  0  0  0  0  0  0  0  0  0
   10.3791    1.9361   22.7858 H   0  0  0  0  0  0  0  0  0  0  0  0
   10.4081    0.1427   24.2456 H   0  0  0  0  0  0  0  0  0  0  0  0
   10.6284   -1.0610   22.9455 H   0  0  0  0  0  0  0  0  0  0  0  0
    6.6200   -0.5866   24.2864 N   0  0  0  0  0  0  0  0  0  0  0  0
    5.9413   -1.2193   25.2707 C   0  0  0  0  0  0  0  0  0  0  0  0
    4.5869   -0.9212   25.4451 C   0  0  0  0  0  0  0  0  0  0  0  0
    4.1594   -0.1272   24.8435 H   0  0  0  0  0  0  0  0  0  0  0  0
    9.5866   -2.0745   24.9238 H   0  0  0  0  0  0  0  0  0  0  0  0
    6.2277   -3.6517   27.6674 H   0  0  0  0  0  0  0  0  0  0  0  0
    3.7676   -3.2205   27.8154 H   0  0  0  0  0  0  0  0  0  0  0  0
  1  2  1  0
  2  3  2  0
  3  4  1  0
  4  5  2  0
  5  6  1  0
  6  7  2  0
  7  8  1  0
  8  9  1  0
  9 10  1  0
 10 11  1  0
 11 12  1  0
 12 13  1  0
 13 14  1  0
 14 15  1  0
 15 16  2  0
 16 17  1  0
 17 18  2  0
 18 19  1  0
 19 20  2  0
 20 21  1  0
 18 22  1  0
 17 23  1  0
 16 24  1  0
 14 25  1  0
 14 26  1  0
 13 27  1  0
 12 28  1  0
 12 29  1  0
 11 30  1  0
 11 31  1  0
 10 32  1  0
 10 33  1  0
  8 34  2  0
 34 35  1  0
 35 36  2  0
 36 37  1  0
  7 38  1  0
  4 39  1  0
  3 40  1  0
 36  2  1  0
 35  5  1  0
 13  9  1  0
 20 15  1  0
M  END
>  <cnnaffinity>  (1) 
-5.83932

>  <filename>  (1) 
Brc1ccc2ncc(N3CCCC3Cc3cccnc3)nc2c1

$$$$
