
     RDKit          3D

 35 37  0  0  0  0  0  0  0  0999 V2000
    8.6880   -3.7601   27.1792 Br  0  0  0  0  0  0  0  0  0  0  0  0
    7.8599   -2.5579   25.9506 C   0  0  0  0  0  0  0  0  0  0  0  0
    6.5027   -2.3143   25.9936 C   0  0  0  0  0  0  0  0  0  0  0  0
    5.9369   -1.4476   25.0643 C   0  0  0  0  0  0  0  0  0  0  0  0
    6.6463   -0.8250   24.1121 N   0  0  0  0  0  0  0  0  0  0  0  0
    7.9630   -1.0402   24.0639 C   0  0  0  0  0  0  0  0  0  0  0  0
    8.7101   -0.3900   23.0746 N   0  0  0  0  0  0  0  0  0  0  0  0
   10.1449   -0.0988   23.1917 C   0  0  0  0  0  0  0  0  0  0  0  0
   10.4028    1.0422   22.2073 C   0  0  0  0  0  0  0  0  0  0  0  0
    9.2459    1.0153   21.2182 C   0  0  0  0  0  0  0  0  0  0  0  0
    8.0857    0.3072   21.9370 C   0  0  0  0  0  0  0  0  0  0  0  0
    7.3831   -0.6936   21.0105 C   0  0  0  0  0  0  0  0  0  0  0  0
    6.6564    0.0169   19.8898 C   0  0  0  0  0  0  0  0  0  0  0  0
    5.4436    0.6510   20.1564 C   0  0  0  0  0  0  0  0  0  0  0  0
    4.8190    1.3059   19.0965 C   0  0  0  0  0  0  0  0  0  0  0  0
    5.4003    1.2963   17.8211 C   0  0  0  0  0  0  0  0  0  0  0  0
    6.5670    0.6765   17.5598 N   0  0  0  0  0  0  0  0  0  0  0  0
    7.1807    0.0575   18.5842 C   0  0  0  0  0  0  0  0  0  0  0  0
    8.1285   -0.4356   18.3980 H   0  0  0  0  0  0  0  0  0  0  0  0
    4.8856    1.8025   17.0115 H   0  0  0  0  0  0  0  0  0  0  0  0
    3.8844    1.8294   19.2564 H   0  0  0  0  0  0  0  0  0  0  0  0
    5.0138    0.6362   21.1617 H   0  0  0  0  0  0  0  0  0  0  0  0
    8.1203   -1.3913   20.6005 H   0  0  0  0  0  0  0  0  0  0  0  0
    6.6681   -1.2765   21.6024 H   0  0  0  0  0  0  0  0  0  0  0  0
    7.3728    1.0560   22.2931 H   0  0  0  0  0  0  0  0  0  0  0  0
    9.5419    0.4732   20.3170 H   0  0  0  0  0  0  0  0  0  0  0  0
    8.9708    2.0289   20.9120 H   0  0  0  0  0  0  0  0  0  0  0  0
   10.4188    2.0007   22.7309 H   0  0  0  0  0  0  0  0  0  0  0  0
   11.3655    0.9319   21.6999 H   0  0  0  0  0  0  0  0  0  0  0  0
   10.4212    0.2125   24.2021 H   0  0  0  0  0  0  0  0  0  0  0  0
   10.7390   -0.9728   22.9147 H   0  0  0  0  0  0  0  0  0  0  0  0
    8.5886   -1.9002   24.9696 C   0  0  0  0  0  0  0  0  0  0  0  0
    9.6486   -2.0616   24.8851 H   0  0  0  0  0  0  0  0  0  0  0  0
    4.8694   -1.2802   25.1335 H   0  0  0  0  0  0  0  0  0  0  0  0
    5.8882   -2.7988   26.7429 H   0  0  0  0  0  0  0  0  0  0  0  0
  1  2  1  0
  2  3  2  0
  3  4  1  0
  4  5  2  0
  5  6  1  0
  6  7  1  0
  7  8  1  0
  8  9  1  0
  9 10  1  0
 10 11  1  0
 11 12  1  0
 12 13  1  0
 13 14  2  0
 14 15  1  0
 15 16  2  0
 16 17  1  0
 17 18  2  0
 18 19  1  0
 16 20  1  0
 15 21  1  0
 14 22  1  0
 12 23  1  0
 12 24  1  0
 11 25  1  0
 10 26  1  0
 10 27  1  0
  9 28  1  0
  9 29  1  0
  8 30  1  0
  8 31  1  0
  6 32  2  0
 32 33  1  0
  4 34  1  0
  3 35  1  0
 32  2  1  0
 11  7  1  0
 18 13  1  0
M  END
>  <cnnaffinity>  (1) 
-5.32613

>  <filename>  (1) 
Brc1ccnc(N2CCCC2Cc2cccnc2)c1

$$$$
