
     RDKit          3D

 27 29  0  0  0  0  0  0  0  0999 V2000
    4.8828    1.8006   17.0102 H   0  0  0  0  0  0  0  0  0  0  0  0
    5.4025    1.2979   17.8220 C   0  0  0  0  0  0  0  0  0  0  0  0
    6.5720    0.6815   17.5658 N   0  0  0  0  0  0  0  0  0  0  0  0
    7.1971    0.0689   18.5980 C   0  0  0  0  0  0  0  0  0  0  0  0
    8.1331   -0.4413   18.3952 H   0  0  0  0  0  0  0  0  0  0  0  0
    6.6799    0.0065   19.9196 C   0  0  0  0  0  0  0  0  0  0  0  0
    7.2391   -0.7085   20.9706 O   0  0  0  0  0  0  0  0  0  0  0  0
    8.6173   -0.8095   21.0780 C   0  0  0  0  0  0  0  0  0  0  0  0
    9.5260   -0.1072   20.4592 N   0  0  0  0  0  0  0  0  0  0  0  0
   10.7351   -0.5140   20.9648 N   0  0  0  0  0  0  0  0  0  0  0  0
   10.6024   -1.4322   21.8514 N   0  0  0  0  0  0  0  0  0  0  0  0
    9.2714   -1.6633   21.9435 N   0  0  0  0  0  0  0  0  0  0  0  0
    8.6758   -2.6001   22.8031 C   0  0  0  0  0  0  0  0  0  0  0  0
    9.3310   -2.9793   23.9859 C   0  0  0  0  0  0  0  0  0  0  0  0
   10.2902   -2.5388   24.2323 H   0  0  0  0  0  0  0  0  0  0  0  0
    8.7662   -3.9130   24.8679 C   0  0  0  0  0  0  0  0  0  0  0  0
    9.2837   -4.1940   25.7834 H   0  0  0  0  0  0  0  0  0  0  0  0
    7.5304   -4.4979   24.5814 C   0  0  0  0  0  0  0  0  0  0  0  0
    6.7592   -5.7764   25.7859 Br  0  0  0  0  0  0  0  0  0  0  0  0
    6.8679   -4.1385   23.4017 C   0  0  0  0  0  0  0  0  0  0  0  0
    5.9106   -4.6045   23.1815 H   0  0  0  0  0  0  0  0  0  0  0  0
    7.4324   -3.1962   22.5210 C   0  0  0  0  0  0  0  0  0  0  0  0
    6.8994   -2.9508   21.6072 H   0  0  0  0  0  0  0  0  0  0  0  0
    5.4626    0.6454   20.1599 C   0  0  0  0  0  0  0  0  0  0  0  0
    5.0245    0.6197   21.1591 H   0  0  0  0  0  0  0  0  0  0  0  0
    4.8266    1.3051   19.1014 C   0  0  0  0  0  0  0  0  0  0  0  0
    3.8880    1.8277   19.2592 H   0  0  0  0  0  0  0  0  0  0  0  0
  1  2  1  0
  2  3  2  0
  3  4  1  0
  4  5  1  0
  4  6  2  0
  6  7  1  0
  7  8  1  0
  8  9  2  0
  9 10  1  0
 10 11  2  0
 11 12  1  0
 12 13  1  0
 13 14  2  0
 14 15  1  0
 14 16  1  0
 16 17  1  0
 16 18  2  0
 18 19  1  0
 18 20  1  0
 20 21  1  0
 20 22  2  0
 22 23  1  0
  6 24  1  0
 24 25  1  0
 24 26  2  0
 26 27  1  0
 26  2  1  0
 12  8  1  0
 22 13  1  0
M  END
>  <cnnaffinity>  (1) 
-5.23405

>  <filename>  (1) 
Brc1ccc(-n2nnnc2Oc2cccnc2)cc1

$$$$
