
     RDKit          3D

 38 40  0  0  0  0  0  0  0  0999 V2000
    4.8927    1.6943   16.9131 H   0  0  0  0  0  0  0  0  0  0  0  0
    5.5322    1.2854   17.6878 C   0  0  0  0  0  0  0  0  0  0  0  0
    6.5442    0.4609   17.3557 N   0  0  0  0  0  0  0  0  0  0  0  0
    7.3176   -0.0275   18.3556 C   0  0  0  0  0  0  0  0  0  0  0  0
    8.1317   -0.6979   18.0915 H   0  0  0  0  0  0  0  0  0  0  0  0
    7.1296    0.2931   19.7238 C   0  0  0  0  0  0  0  0  0  0  0  0
    7.9327   -0.2411   20.7612 N   0  0  0  0  0  0  0  0  0  0  0  0
    7.9299    0.4222   22.0858 C   0  0  0  0  0  0  0  0  0  0  0  0
    7.8987    1.5039   21.9359 H   0  0  0  0  0  0  0  0  0  0  0  0
    8.8547    0.2039   22.6315 H   0  0  0  0  0  0  0  0  0  0  0  0
    6.6991   -0.0066   22.9056 C   0  0  0  0  0  0  0  0  0  0  0  0
    6.4594    0.7780   23.6211 H   0  0  0  0  0  0  0  0  0  0  0  0
    5.8410   -0.0973   22.2324 H   0  0  0  0  0  0  0  0  0  0  0  0
    6.9175   -1.2854   23.6210 N   0  0  0  0  0  0  0  0  0  0  0  0
    7.4689   -1.2686   24.9114 C   0  0  0  0  0  0  0  0  0  0  0  0
    8.2015   -2.3607   25.3980 C   0  0  0  0  0  0  0  0  0  0  0  0
    8.3153   -3.2295   24.7594 H   0  0  0  0  0  0  0  0  0  0  0  0
    8.8005   -2.3286   26.6613 C   0  0  0  0  0  0  0  0  0  0  0  0
    9.3840   -3.1868   26.9907 H   0  0  0  0  0  0  0  0  0  0  0  0
    8.6844   -1.1668   27.4421 C   0  0  0  0  0  0  0  0  0  0  0  0
    9.1969   -1.0758   28.3945 H   0  0  0  0  0  0  0  0  0  0  0  0
    7.9217   -0.0852   26.9849 C   0  0  0  0  0  0  0  0  0  0  0  0
    7.7297    1.4902   28.0456 Br  0  0  0  0  0  0  0  0  0  0  0  0
    7.3050   -0.1525   25.7343 C   0  0  0  0  0  0  0  0  0  0  0  0
    6.7079    0.6813   25.3849 H   0  0  0  0  0  0  0  0  0  0  0  0
    7.1045   -2.4595   22.7593 C   0  0  0  0  0  0  0  0  0  0  0  0
    7.0803   -3.3745   23.3575 H   0  0  0  0  0  0  0  0  0  0  0  0
    6.2951   -2.5339   22.0232 H   0  0  0  0  0  0  0  0  0  0  0  0
    8.4508   -2.3459   22.0537 C   0  0  0  0  0  0  0  0  0  0  0  0
    8.8593   -3.3503   21.9210 H   0  0  0  0  0  0  0  0  0  0  0  0
    9.1475   -1.7679   22.6696 H   0  0  0  0  0  0  0  0  0  0  0  0
    8.2912   -1.6720   20.6884 C   0  0  0  0  0  0  0  0  0  0  0  0
    7.4941   -2.1940   20.1495 H   0  0  0  0  0  0  0  0  0  0  0  0
    9.2270   -1.7797   20.1328 H   0  0  0  0  0  0  0  0  0  0  0  0
    6.0785    1.1587   20.0383 C   0  0  0  0  0  0  0  0  0  0  0  0
    5.9007    1.4275   21.0766 H   0  0  0  0  0  0  0  0  0  0  0  0
    5.2657    1.6431   19.0121 C   0  0  0  0  0  0  0  0  0  0  0  0
    4.4336    2.3022   19.2253 H   0  0  0  0  0  0  0  0  0  0  0  0
  1  2  1  0
  2  3  2  0
  3  4  1  0
  4  5  1  0
  4  6  2  0
  6  7  1  0
  7  8  1  0
  8  9  1  0
  8 10  1  0
  8 11  1  0
 11 12  1  0
 11 13  1  0
 11 14  1  0
 14 15  1  0
 15 16  2  0
 16 17  1  0
 16 18  1  0
 18 19  1  0
 18 20  2  0
 20 21  1  0
 20 22  1  0
 22 23  1  0
 22 24  2  0
 24 25  1  0
 14 26  1  0
 26 27  1  0
 26 28  1  0
 26 29  1  0
 29 30  1  0
 29 31  1  0
 29 32  1  0
 32 33  1  0
 32 34  1  0
  6 35  1  0
 35 36  1  0
 35 37  2  0
 37 38  1  0
 37  2  1  0
 32  7  1  0
 24 15  1  0
M  END
>  <cnnaffinity>  (1) 
-5.23382

>  <filename>  (1) 
Brc1cccc(N2CCCN(c3cccnc3)CC2)c1

$$$$
