
     RDKit          3D

 27 29  0  0  0  0  0  0  0  0999 V2000
    4.8831    1.7996   17.0102 H   0  0  0  0  0  0  0  0  0  0  0  0
    5.4022    1.2979   17.8226 C   0  0  0  0  0  0  0  0  0  0  0  0
    6.5720    0.6814   17.5657 N   0  0  0  0  0  0  0  0  0  0  0  0
    7.1971    0.0689   18.5976 C   0  0  0  0  0  0  0  0  0  0  0  0
    8.1333   -0.4414   18.3949 H   0  0  0  0  0  0  0  0  0  0  0  0
    6.6805    0.0071   19.9195 C   0  0  0  0  0  0  0  0  0  0  0  0
    7.2399   -0.7072   20.9701 O   0  0  0  0  0  0  0  0  0  0  0  0
    8.6184   -0.8085   21.0768 C   0  0  0  0  0  0  0  0  0  0  0  0
    9.5273   -0.1055   20.4583 N   0  0  0  0  0  0  0  0  0  0  0  0
   10.7354   -0.5138   20.9652 N   0  0  0  0  0  0  0  0  0  0  0  0
   10.6012   -1.4324   21.8517 N   0  0  0  0  0  0  0  0  0  0  0  0
    9.2696   -1.6630   21.9434 N   0  0  0  0  0  0  0  0  0  0  0  0
    8.6741   -2.6010   22.8038 C   0  0  0  0  0  0  0  0  0  0  0  0
    7.4309   -3.1989   22.5205 C   0  0  0  0  0  0  0  0  0  0  0  0
    6.8996   -2.9545   21.6062 H   0  0  0  0  0  0  0  0  0  0  0  0
    6.8643   -4.1406   23.3980 C   0  0  0  0  0  0  0  0  0  0  0  0
    5.9062   -4.6057   23.1731 H   0  0  0  0  0  0  0  0  0  0  0  0
    7.5321   -4.4938   24.5770 C   0  0  0  0  0  0  0  0  0  0  0  0
    7.0983   -5.2179   25.2635 H   0  0  0  0  0  0  0  0  0  0  0  0
    8.7680   -3.9135   24.8737 C   0  0  0  0  0  0  0  0  0  0  0  0
    9.6877   -4.4010   26.4858 Br  0  0  0  0  0  0  0  0  0  0  0  0
    9.3269   -2.9813   23.9884 C   0  0  0  0  0  0  0  0  0  0  0  0
   10.2849   -2.5423   24.2390 H   0  0  0  0  0  0  0  0  0  0  0  0
    5.4625    0.6452   20.1601 C   0  0  0  0  0  0  0  0  0  0  0  0
    5.0237    0.6202   21.1587 H   0  0  0  0  0  0  0  0  0  0  0  0
    4.8259    1.3053   19.1020 C   0  0  0  0  0  0  0  0  0  0  0  0
    3.8871    1.8285   19.2599 H   0  0  0  0  0  0  0  0  0  0  0  0
  1  2  1  0
  2  3  2  0
  3  4  1  0
  4  5  1  0
  4  6  2  0
  6  7  1  0
  7  8  1  0
  8  9  2  0
  9 10  1  0
 10 11  2  0
 11 12  1  0
 12 13  1  0
 13 14  2  0
 14 15  1  0
 14 16  1  0
 16 17  1  0
 16 18  2  0
 18 19  1  0
 18 20  1  0
 20 21  1  0
 20 22  2  0
 22 23  1  0
  6 24  1  0
 24 25  1  0
 24 26  2  0
 26 27  1  0
 26  2  1  0
 12  8  1  0
 22 13  1  0
M  END
>  <cnnaffinity>  (1) 
-5.36191

>  <filename>  (1) 
Brc1cccc(-n2nnnc2Oc2cccnc2)c1

$$$$
