
     RDKit          3D

 27 29  0  0  0  0  0  0  0  0999 V2000
    4.8929    1.7807   17.0144 H   0  0  0  0  0  0  0  0  0  0  0  0
    5.4026    1.2925   17.8398 C   0  0  0  0  0  0  0  0  0  0  0  0
    6.5710    0.6765   17.5889 N   0  0  0  0  0  0  0  0  0  0  0  0
    7.1856    0.0507   18.6011 C   0  0  0  0  0  0  0  0  0  0  0  0
    8.1329   -0.4436   18.3929 H   0  0  0  0  0  0  0  0  0  0  0  0
    6.6576    0.0182   19.8931 C   0  0  0  0  0  0  0  0  0  0  0  0
    7.3680   -0.7153   20.9115 C   0  0  0  0  0  0  0  0  0  0  0  0
    7.9370   -1.8725   20.6616 N   0  0  0  0  0  0  0  0  0  0  0  0
    8.4590   -2.3606   21.8956 O   0  0  0  0  0  0  0  0  0  0  0  0
    8.1693   -1.4333   22.8556 C   0  0  0  0  0  0  0  0  0  0  0  0
    8.4804   -1.5317   23.8895 H   0  0  0  0  0  0  0  0  0  0  0  0
    7.5099   -0.3709   22.3017 C   0  0  0  0  0  0  0  0  0  0  0  0
    7.1110    0.8641   22.9862 C   0  0  0  0  0  0  0  0  0  0  0  0
    7.2379    2.1112   22.3545 C   0  0  0  0  0  0  0  0  0  0  0  0
    7.6377    2.1826   21.3484 H   0  0  0  0  0  0  0  0  0  0  0  0
    6.8875    3.2868   23.0306 C   0  0  0  0  0  0  0  0  0  0  0  0
    6.9940    4.2521   22.5417 H   0  0  0  0  0  0  0  0  0  0  0  0
    6.4030    3.2186   24.3402 C   0  0  0  0  0  0  0  0  0  0  0  0
    6.1260    4.1282   24.8644 H   0  0  0  0  0  0  0  0  0  0  0  0
    6.2767    1.9817   24.9803 C   0  0  0  0  0  0  0  0  0  0  0  0
    5.6197    1.8900   26.7721 Br  0  0  0  0  0  0  0  0  0  0  0  0
    6.6353    0.8126   24.3013 C   0  0  0  0  0  0  0  0  0  0  0  0
    6.5331   -0.1448   24.7999 H   0  0  0  0  0  0  0  0  0  0  0  0
    5.4501    0.6580   20.1669 C   0  0  0  0  0  0  0  0  0  0  0  0
    5.0060    0.6335   21.1597 H   0  0  0  0  0  0  0  0  0  0  0  0
    4.8165    1.3098   19.1137 C   0  0  0  0  0  0  0  0  0  0  0  0
    3.8777    1.8382   19.2664 H   0  0  0  0  0  0  0  0  0  0  0  0
  1  2  1  0
  2  3  2  0
  3  4  1  0
  4  5  1  0
  4  6  2  0
  6  7  1  0
  7  8  2  0
  8  9  1  0
  9 10  1  0
 10 11  1  0
 10 12  2  0
 12 13  1  0
 13 14  2  0
 14 15  1  0
 14 16  1  0
 16 17  1  0
 16 18  2  0
 18 19  1  0
 18 20  1  0
 20 21  1  0
 20 22  2  0
 22 23  1  0
  6 24  1  0
 24 25  1  0
 24 26  2  0
 26 27  1  0
 26  2  1  0
 12  7  1  0
 22 13  1  0
M  END
>  <cnnaffinity>  (1) 
-5.05387

>  <filename>  (1) 
Brc1cccc(-c2conc2-c2cccnc2)c1

$$$$
