
     RDKit          3D

 31 33  0  0  0  0  0  0  0  0999 V2000
    8.6534   -4.9845   23.7764 Br  0  0  0  0  0  0  0  0  0  0  0  0
    7.0390   -4.2136   24.4608 C   0  0  0  0  0  0  0  0  0  0  0  0
    5.9594   -5.0563   24.7561 C   0  0  0  0  0  0  0  0  0  0  0  0
    4.7570   -4.5335   25.2421 C   0  0  0  0  0  0  0  0  0  0  0  0
    4.6297   -3.1564   25.4340 C   0  0  0  0  0  0  0  0  0  0  0  0
    5.7030   -2.3091   25.1424 C   0  0  0  0  0  0  0  0  0  0  0  0
    6.9142   -2.8257   24.6564 C   0  0  0  0  0  0  0  0  0  0  0  0
    8.0376   -1.8737   24.3258 C   0  0  0  0  0  0  0  0  0  0  0  0
    7.9923   -1.5238   22.8989 N   0  0  0  0  0  0  0  0  0  0  0  0
    8.8822   -1.9190   21.9046 C   0  0  0  0  0  0  0  0  0  0  0  0
    8.5358   -1.4299   20.7356 N   0  0  0  0  0  0  0  0  0  0  0  0
    7.3801   -0.6933   20.9618 C   0  0  0  0  0  0  0  0  0  0  0  0
    6.6545    0.0094   19.9165 C   0  0  0  0  0  0  0  0  0  0  0  0
    5.4388    0.6532   20.1696 C   0  0  0  0  0  0  0  0  0  0  0  0
    4.8227    1.3032   19.1041 C   0  0  0  0  0  0  0  0  0  0  0  0
    5.4091    1.2885   17.8334 C   0  0  0  0  0  0  0  0  0  0  0  0
    6.5758    0.6618   17.5924 N   0  0  0  0  0  0  0  0  0  0  0  0
    7.1853    0.0420   18.6195 C   0  0  0  0  0  0  0  0  0  0  0  0
    8.1341   -0.4475   18.4144 H   0  0  0  0  0  0  0  0  0  0  0  0
    4.8976    1.7947   17.0192 H   0  0  0  0  0  0  0  0  0  0  0  0
    3.8869    1.8281   19.2551 H   0  0  0  0  0  0  0  0  0  0  0  0
    4.9926    0.6471   21.1641 H   0  0  0  0  0  0  0  0  0  0  0  0
    7.0369   -0.7379   22.2859 C   0  0  0  0  0  0  0  0  0  0  0  0
    6.1757   -0.2573   22.7482 H   0  0  0  0  0  0  0  0  0  0  0  0
    9.7545   -2.5479   22.0815 H   0  0  0  0  0  0  0  0  0  0  0  0
    7.9437   -0.9622   24.9271 H   0  0  0  0  0  0  0  0  0  0  0  0
    9.0015   -2.3273   24.5794 H   0  0  0  0  0  0  0  0  0  0  0  0
    5.5896   -1.2385   25.2829 H   0  0  0  0  0  0  0  0  0  0  0  0
    3.6971   -2.7425   25.8054 H   0  0  0  0  0  0  0  0  0  0  0  0
    3.9257   -5.1948   25.4685 H   0  0  0  0  0  0  0  0  0  0  0  0
    6.0599   -6.1251   24.6011 H   0  0  0  0  0  0  0  0  0  0  0  0
  1  2  1  0
  2  3  2  0
  3  4  1  0
  4  5  2  0
  5  6  1  0
  6  7  2  0
  7  8  1  0
  8  9  1  0
  9 10  1  0
 10 11  2  0
 11 12  1  0
 12 13  1  0
 13 14  2  0
 14 15  1  0
 15 16  2  0
 16 17  1  0
 17 18  2  0
 18 19  1  0
 16 20  1  0
 15 21  1  0
 14 22  1  0
 12 23  2  0
 23 24  1  0
 10 25  1  0
  8 26  1  0
  8 27  1  0
  6 28  1  0
  5 29  1  0
  4 30  1  0
  3 31  1  0
  7  2  1  0
 23  9  1  0
 18 13  1  0
M  END
>  <cnnaffinity>  (1) 
-5.37363

>  <filename>  (1) 
Brc1ccccc1Cn1cnc(-c2cccnc2)c1

$$$$
