
     RDKit          3D

 34 36  0  0  0  0  0  0  0  0999 V2000
    8.9587   -3.7705   26.8898 Br  0  0  0  0  0  0  0  0  0  0  0  0
    8.0132   -2.5570   25.7788 C   0  0  0  0  0  0  0  0  0  0  0  0
    6.7033   -2.4325   26.0014 N   0  0  0  0  0  0  0  0  0  0  0  0
    6.0182   -1.5957   25.2355 C   0  0  0  0  0  0  0  0  0  0  0  0
    6.6514   -0.8889   24.2373 C   0  0  0  0  0  0  0  0  0  0  0  0
    8.0088   -1.0704   24.0717 C   0  0  0  0  0  0  0  0  0  0  0  0
    8.6989   -0.3662   23.0991 N   0  0  0  0  0  0  0  0  0  0  0  0
   10.1492   -0.1508   23.2041 C   0  0  0  0  0  0  0  0  0  0  0  0
   10.4171    0.9789   22.2200 C   0  0  0  0  0  0  0  0  0  0  0  0
    9.2500    0.9767   21.2357 C   0  0  0  0  0  0  0  0  0  0  0  0
    8.0714    0.3076   21.9498 C   0  0  0  0  0  0  0  0  0  0  0  0
    7.3766   -0.6966   21.0223 C   0  0  0  0  0  0  0  0  0  0  0  0
    6.6519    0.0108   19.8933 C   0  0  0  0  0  0  0  0  0  0  0  0
    5.4450    0.6552   20.1475 C   0  0  0  0  0  0  0  0  0  0  0  0
    4.8205    1.3029   19.0855 C   0  0  0  0  0  0  0  0  0  0  0  0
    5.3971    1.2974   17.8142 C   0  0  0  0  0  0  0  0  0  0  0  0
    6.5626    0.6741   17.5616 N   0  0  0  0  0  0  0  0  0  0  0  0
    7.1772    0.0531   18.5874 C   0  0  0  0  0  0  0  0  0  0  0  0
    8.1279   -0.4353   18.3965 H   0  0  0  0  0  0  0  0  0  0  0  0
    4.8879    1.8204   17.0093 H   0  0  0  0  0  0  0  0  0  0  0  0
    3.8884    1.8245   19.2396 H   0  0  0  0  0  0  0  0  0  0  0  0
    5.0159    0.6461   21.1479 H   0  0  0  0  0  0  0  0  0  0  0  0
    6.6695   -1.2843   21.6150 H   0  0  0  0  0  0  0  0  0  0  0  0
    8.1255   -1.3879   20.6197 H   0  0  0  0  0  0  0  0  0  0  0  0
    7.3540    1.0635   22.2922 H   0  0  0  0  0  0  0  0  0  0  0  0
    9.5225    0.4107   20.3370 H   0  0  0  0  0  0  0  0  0  0  0  0
    8.9965    1.9978   20.9387 H   0  0  0  0  0  0  0  0  0  0  0  0
   10.4473    1.9370   22.7498 H   0  0  0  0  0  0  0  0  0  0  0  0
   11.3719    0.8346   21.7048 H   0  0  0  0  0  0  0  0  0  0  0  0
   10.4483    0.1403   24.2200 H   0  0  0  0  0  0  0  0  0  0  0  0
   10.6932   -1.0578   22.9166 H   0  0  0  0  0  0  0  0  0  0  0  0
    8.6886   -1.8966   24.8432 N   0  0  0  0  0  0  0  0  0  0  0  0
    6.1142   -0.1961   23.6125 H   0  0  0  0  0  0  0  0  0  0  0  0
    4.9513   -1.4742   25.4189 H   0  0  0  0  0  0  0  0  0  0  0  0
  1  2  1  0
  2  3  2  0
  3  4  1  0
  4  5  2  0
  5  6  1  0
  6  7  1  0
  7  8  1  0
  8  9  1  0
  9 10  1  0
 10 11  1  0
 11 12  1  0
 12 13  1  0
 13 14  2  0
 14 15  1  0
 15 16  2  0
 16 17  1  0
 17 18  2  0
 18 19  1  0
 16 20  1  0
 15 21  1  0
 14 22  1  0
 12 23  1  0
 12 24  1  0
 11 25  1  0
 10 26  1  0
 10 27  1  0
  9 28  1  0
  9 29  1  0
  8 30  1  0
  8 31  1  0
  6 32  2  0
  5 33  1  0
  4 34  1  0
 32  2  1  0
 11  7  1  0
 18 13  1  0
M  END
>  <cnnaffinity>  (1) 
-5.16737

>  <filename>  (1) 
Brc1nccc(N2CCCC2Cc2cccnc2)n1

$$$$
