
     RDKit          3D

 20 21  0  0  0  0  0  0  0  0999 V2000
    4.8861    1.7939   17.0116 H   0  0  0  0  0  0  0  0  0  0  0  0
    5.4012    1.2965   17.8278 C   0  0  0  0  0  0  0  0  0  0  0  0
    6.5739    0.6872   17.5665 N   0  0  0  0  0  0  0  0  0  0  0  0
    7.1961    0.0703   18.5972 C   0  0  0  0  0  0  0  0  0  0  0  0
    8.1333   -0.4387   18.3986 H   0  0  0  0  0  0  0  0  0  0  0  0
    6.6751   -0.0006   19.9132 C   0  0  0  0  0  0  0  0  0  0  0  0
    7.3123   -0.7161   20.9489 N   0  0  0  0  0  0  0  0  0  0  0  0
    6.7217   -1.1483   21.6645 H   0  0  0  0  0  0  0  0  0  0  0  0
    8.7042   -0.7269   21.1552 C   0  0  0  0  0  0  0  0  0  0  0  0
    9.7110    0.1866   20.6378 C   0  0  0  0  0  0  0  0  0  0  0  0
    9.4722    1.0040   19.9728 H   0  0  0  0  0  0  0  0  0  0  0  0
   10.9194   -0.0773   21.0960 N   0  0  0  0  0  0  0  0  0  0  0  0
   10.7295   -1.1704   21.8877 N   0  0  0  0  0  0  0  0  0  0  0  0
   11.4793   -1.6274   22.4058 H   0  0  0  0  0  0  0  0  0  0  0  0
    9.4040   -1.5749   21.9562 C   0  0  0  0  0  0  0  0  0  0  0  0
    8.7324   -3.0300   22.9981 Br  0  0  0  0  0  0  0  0  0  0  0  0
    5.4525    0.6304   20.1643 C   0  0  0  0  0  0  0  0  0  0  0  0
    5.0179    0.6181   21.1638 H   0  0  0  0  0  0  0  0  0  0  0  0
    4.8200    1.3019   19.1069 C   0  0  0  0  0  0  0  0  0  0  0  0
    3.8837    1.8324   19.2630 H   0  0  0  0  0  0  0  0  0  0  0  0
  1  2  1  0
  2  3  2  0
  3  4  1  0
  4  5  1  0
  4  6  2  0
  6  7  1  0
  7  8  1  0
  7  9  1  0
  9 10  1  0
 10 11  1  0
 10 12  2  0
 12 13  1  0
 13 14  1  0
 13 15  1  0
 15 16  1  0
  6 17  1  0
 17 18  1  0
 17 19  2  0
 19 20  1  0
 19  2  1  0
 15  9  2  0
M  END
>  <cnnaffinity>  (1) 
-4.58323

>  <filename>  (1) 
Brc1[nH]ncc1Nc1cccnc1

$$$$
