
     RDKit          3D

 19 20  0  0  0  0  0  0  0  0999 V2000
   11.9512   -3.3296   23.1765 H   0  0  0  0  0  0  0  0  0  0  0  0
   11.0287   -2.9338   22.8063 C   0  0  0  0  0  0  0  0  0  0  0  0
   10.0245   -2.4616   22.3376 C   0  0  0  0  0  0  0  0  0  0  0  0
    8.8282   -1.8110   21.9014 C   0  0  0  0  0  0  0  0  0  0  0  0
    8.5081   -1.3557   20.7335 N   0  0  0  0  0  0  0  0  0  0  0  0
    7.3128   -0.6769   20.9636 C   0  0  0  0  0  0  0  0  0  0  0  0
    6.6189    0.0279   19.8876 C   0  0  0  0  0  0  0  0  0  0  0  0
    7.1599    0.0617   18.5873 C   0  0  0  0  0  0  0  0  0  0  0  0
    8.1116   -0.4259   18.3710 H   0  0  0  0  0  0  0  0  0  0  0  0
    6.5610    0.6780   17.5627 N   0  0  0  0  0  0  0  0  0  0  0  0
    5.3955    1.3016   17.8082 C   0  0  0  0  0  0  0  0  0  0  0  0
    4.9349    1.8037   16.9624 H   0  0  0  0  0  0  0  0  0  0  0  0
    4.7805    1.3317   19.0650 C   0  0  0  0  0  0  0  0  0  0  0  0
    3.8469    1.8646   19.2112 H   0  0  0  0  0  0  0  0  0  0  0  0
    5.4016    0.6831   20.1241 C   0  0  0  0  0  0  0  0  0  0  0  0
    4.9587    0.6794   21.1191 H   0  0  0  0  0  0  0  0  0  0  0  0
    6.9735   -0.7983   22.2753 C   0  0  0  0  0  0  0  0  0  0  0  0
    6.1764   -0.4421   22.9155 H   0  0  0  0  0  0  0  0  0  0  0  0
    7.9339   -1.5401   22.8781 O   0  0  0  0  0  0  0  0  0  0  0  0
  1  2  1  0
  2  3  3  0
  3  4  1  0
  4  5  2  0
  5  6  1  0
  6  7  1  0
  7  8  2  0
  8  9  1  0
  8 10  1  0
 10 11  2  0
 11 12  1  0
 11 13  1  0
 13 14  1  0
 13 15  2  0
 15 16  1  0
  6 17  2  0
 17 18  1  0
 17 19  1  0
 19  4  1  0
 15  7  1  0
M  END
>  <cnnaffinity>  (1) 
-4.30823

>  <filename>  (1) 
C#Cc1nc(-c2cccnc2)co1

$$$$
