
     RDKit          3D

 24 24  0  0  0  0  0  0  0  0999 V2000
   13.7876   -1.6824   20.9458 H   0  0  0  0  0  0  0  0  0  0  0  0
   12.7656   -1.7014   21.2510 C   0  0  0  0  0  0  0  0  0  0  0  0
   11.5971   -1.7019   21.5464 C   0  0  0  0  0  0  0  0  0  0  0  0
   10.1950   -1.6847   21.9715 C   0  0  0  0  0  0  0  0  0  0  0  0
   10.0328   -0.7371   22.5107 H   0  0  0  0  0  0  0  0  0  0  0  0
   10.0290   -2.5182   22.6733 H   0  0  0  0  0  0  0  0  0  0  0  0
    9.3476   -1.8080   20.8439 O   0  0  0  0  0  0  0  0  0  0  0  0
    7.9531   -1.8355   21.1245 C   0  0  0  0  0  0  0  0  0  0  0  0
    7.4901   -2.3567   20.2861 H   0  0  0  0  0  0  0  0  0  0  0  0
    7.7467   -2.4461   22.0193 H   0  0  0  0  0  0  0  0  0  0  0  0
    7.3182   -0.4534   21.2803 C   0  0  0  0  0  0  0  0  0  0  0  0
    7.3472    0.1736   22.4581 C   0  0  0  0  0  0  0  0  0  0  0  0
    6.9722    1.1883   22.5688 H   0  0  0  0  0  0  0  0  0  0  0  0
    7.8003   -0.2808   23.3367 H   0  0  0  0  0  0  0  0  0  0  0  0
    6.6517    0.1664   20.1022 C   0  0  0  0  0  0  0  0  0  0  0  0
    7.2384    0.1017   18.8270 C   0  0  0  0  0  0  0  0  0  0  0  0
    8.1987   -0.4068   18.7161 H   0  0  0  0  0  0  0  0  0  0  0  0
    6.7059    0.6378   17.7205 N   0  0  0  0  0  0  0  0  0  0  0  0
    5.5199    1.2516   17.8477 C   0  0  0  0  0  0  0  0  0  0  0  0
    5.1014    1.6757   16.9356 H   0  0  0  0  0  0  0  0  0  0  0  0
    4.8372    1.3654   19.0667 C   0  0  0  0  0  0  0  0  0  0  0  0
    3.8809    1.8747   19.1008 H   0  0  0  0  0  0  0  0  0  0  0  0
    5.4157    0.8287   20.2157 C   0  0  0  0  0  0  0  0  0  0  0  0
    4.9267    0.8841   21.1911 H   0  0  0  0  0  0  0  0  0  0  0  0
  1  2  1  0
  2  3  3  0
  3  4  1  0
  4  5  1  0
  4  6  1  0
  4  7  1  0
  7  8  1  0
  8  9  1  0
  8 10  1  0
  8 11  1  0
 11 12  2  3
 12 13  1  0
 12 14  1  0
 11 15  1  0
 15 16  2  0
 16 17  1  0
 16 18  1  0
 18 19  2  0
 19 20  1  0
 19 21  1  0
 21 22  1  0
 21 23  2  0
 23 24  1  0
 23 15  1  0
M  END
>  <cnnaffinity>  (1) 
-4.41655

>  <filename>  (1) 
C#CCOCC(=C)c1cccnc1

$$$$
