
     RDKit          3D

 23 24  0  0  0  0  0  0  0  0999 V2000
   10.4463    2.2906   24.9253 H   0  0  0  0  0  0  0  0  0  0  0  0
    9.4588    1.9301   24.7338 C   0  0  0  0  0  0  0  0  0  0  0  0
    8.3493    1.5251   24.5031 C   0  0  0  0  0  0  0  0  0  0  0  0
    7.0031    1.0211   24.1921 C   0  0  0  0  0  0  0  0  0  0  0  0
    6.7670    0.1509   24.8147 H   0  0  0  0  0  0  0  0  0  0  0  0
    6.2578    1.7813   24.4131 H   0  0  0  0  0  0  0  0  0  0  0  0
    6.7972    0.7178   22.8049 O   0  0  0  0  0  0  0  0  0  0  0  0
    7.4321   -0.3523   22.2907 C   0  0  0  0  0  0  0  0  0  0  0  0
    8.2345   -1.3337   22.8245 C   0  0  0  0  0  0  0  0  0  0  0  0
    8.5556   -1.4541   23.8455 H   0  0  0  0  0  0  0  0  0  0  0  0
    8.6056   -2.1688   21.8155 N   0  0  0  0  0  0  0  0  0  0  0  0
    8.0889   -1.7629   20.7105 N   0  0  0  0  0  0  0  0  0  0  0  0
    7.3556   -0.6442   20.9645 N   0  0  0  0  0  0  0  0  0  0  0  0
    6.6544    0.0123   19.9096 C   0  0  0  0  0  0  0  0  0  0  0  0
    7.1819    0.0529   18.6047 C   0  0  0  0  0  0  0  0  0  0  0  0
    8.1264   -0.4368   18.3771 H   0  0  0  0  0  0  0  0  0  0  0  0
    6.5734    0.6731   17.5907 N   0  0  0  0  0  0  0  0  0  0  0  0
    5.4054    1.2895   17.8414 C   0  0  0  0  0  0  0  0  0  0  0  0
    4.9214    1.7794   16.9965 H   0  0  0  0  0  0  0  0  0  0  0  0
    4.8066    1.3007   19.1048 C   0  0  0  0  0  0  0  0  0  0  0  0
    3.8773    1.8387   19.2606 H   0  0  0  0  0  0  0  0  0  0  0  0
    5.4338    0.6445   20.1656 C   0  0  0  0  0  0  0  0  0  0  0  0
    5.0077    0.6367   21.1685 H   0  0  0  0  0  0  0  0  0  0  0  0
  1  2  1  0
  2  3  3  0
  3  4  1  0
  4  5  1  0
  4  6  1  0
  4  7  1  0
  7  8  1  0
  8  9  2  0
  9 10  1  0
  9 11  1  0
 11 12  2  0
 12 13  1  0
 13 14  1  0
 14 15  2  0
 15 16  1  0
 15 17  1  0
 17 18  2  0
 18 19  1  0
 18 20  1  0
 20 21  1  0
 20 22  2  0
 22 23  1  0
 13  8  1  0
 22 14  1  0
M  END
>  <cnnaffinity>  (1) 
-4.47471

>  <filename>  (1) 
C#CCOc1cnnn1-c1cccnc1

$$$$
