
     RDKit          3D

 20 21  0  0  0  0  0  0  0  0999 V2000
    6.4734    2.8546   23.6987 H   0  0  0  0  0  0  0  0  0  0  0  0
    6.7669    1.9284   23.2606 C   0  0  0  0  0  0  0  0  0  0  0  0
    7.1160    0.8856   22.7851 C   0  0  0  0  0  0  0  0  0  0  0  0
    7.5243   -0.2924   22.2388 N   0  0  0  0  0  0  0  0  0  0  0  0
    7.3947   -0.7094   20.9166 C   0  0  0  0  0  0  0  0  0  0  0  0
    6.6484    0.0211   19.8976 C   0  0  0  0  0  0  0  0  0  0  0  0
    7.1638    0.0489   18.5927 C   0  0  0  0  0  0  0  0  0  0  0  0
    8.1117   -0.4383   18.3710 H   0  0  0  0  0  0  0  0  0  0  0  0
    6.5650    0.6740   17.5777 N   0  0  0  0  0  0  0  0  0  0  0  0
    5.4023    1.2920   17.8393 C   0  0  0  0  0  0  0  0  0  0  0  0
    4.9233    1.7807   16.9969 H   0  0  0  0  0  0  0  0  0  0  0  0
    4.8024    1.3134   19.1038 C   0  0  0  0  0  0  0  0  0  0  0  0
    3.8708    1.8443   19.2531 H   0  0  0  0  0  0  0  0  0  0  0  0
    5.4311    0.6673   20.1630 C   0  0  0  0  0  0  0  0  0  0  0  0
    5.0020    0.6372   21.1685 H   0  0  0  0  0  0  0  0  0  0  0  0
    8.0247   -1.8358   20.7161 N   0  0  0  0  0  0  0  0  0  0  0  0
    8.5596   -2.1928   21.9296 C   0  0  0  0  0  0  0  0  0  0  0  0
    9.1352   -3.1014   22.0394 H   0  0  0  0  0  0  0  0  0  0  0  0
    8.2861   -1.2614   22.8805 C   0  0  0  0  0  0  0  0  0  0  0  0
    8.5623   -1.1648   23.9187 H   0  0  0  0  0  0  0  0  0  0  0  0
  1  2  1  0
  2  3  3  0
  3  4  1  0
  4  5  1  0
  5  6  1  0
  6  7  2  0
  7  8  1  0
  7  9  1  0
  9 10  2  0
 10 11  1  0
 10 12  1  0
 12 13  1  0
 12 14  2  0
 14 15  1  0
  5 16  2  0
 16 17  1  0
 17 18  1  0
 17 19  2  0
 19 20  1  0
 19  4  1  0
 14  6  1  0
M  END
>  <cnnaffinity>  (1) 
-4.20915

>  <filename>  (1) 
C#Cn1ccnc1-c1cccnc1

$$$$
