
     RDKit          3D

 31 34  0  0  0  0  0  0  0  0999 V2000
    4.9167    1.7760   17.0011 H   0  0  0  0  0  0  0  0  0  0  0  0
    5.4047    1.2902   17.8419 C   0  0  0  0  0  0  0  0  0  0  0  0
    6.5701    0.6780   17.5760 N   0  0  0  0  0  0  0  0  0  0  0  0
    7.1747    0.0566   18.5897 C   0  0  0  0  0  0  0  0  0  0  0  0
    8.1242   -0.4343   18.3739 H   0  0  0  0  0  0  0  0  0  0  0  0
    6.6480    0.0090   19.8904 C   0  0  0  0  0  0  0  0  0  0  0  0
    7.4047   -0.7057   20.9137 C   0  0  0  0  0  0  0  0  0  0  0  0
    8.3273   -1.6077   20.6995 N   0  0  0  0  0  0  0  0  0  0  0  0
    8.8259   -2.0385   21.9085 N   0  0  0  0  0  0  0  0  0  0  0  0
    8.1948   -1.3490   22.8216 C   0  0  0  0  0  0  0  0  0  0  0  0
    8.2719   -1.0980   24.5409 S   0  0  0  0  0  0  0  0  0  0  0  0
    7.0552    0.1650   24.3184 C   0  0  0  0  0  0  0  0  0  0  0  0
    6.5894    0.9322   25.4202 C   0  0  0  0  0  0  0  0  0  0  0  0
    6.2097    1.5803   26.3671 C   0  0  0  0  0  0  0  0  0  0  0  0
    5.7394    2.3656   27.4776 C   0  0  0  0  0  0  0  0  0  0  0  0
    6.1840    2.0887   28.7854 C   0  0  0  0  0  0  0  0  0  0  0  0
    6.8865    1.2759   28.9527 H   0  0  0  0  0  0  0  0  0  0  0  0
    5.7245    2.8530   29.8624 C   0  0  0  0  0  0  0  0  0  0  0  0
    6.0712    2.6313   30.8694 H   0  0  0  0  0  0  0  0  0  0  0  0
    4.8191    3.8991   29.6473 C   0  0  0  0  0  0  0  0  0  0  0  0
    4.4628    4.4916   30.4872 H   0  0  0  0  0  0  0  0  0  0  0  0
    4.3721    4.1815   28.3508 C   0  0  0  0  0  0  0  0  0  0  0  0
    3.6687    4.9943   28.1830 H   0  0  0  0  0  0  0  0  0  0  0  0
    4.8279    3.4207   27.2696 C   0  0  0  0  0  0  0  0  0  0  0  0
    4.4804    3.6414   26.2634 H   0  0  0  0  0  0  0  0  0  0  0  0
    6.6272    0.3612   23.1097 N   0  0  0  0  0  0  0  0  0  0  0  0
    7.2687   -0.5129   22.2775 N   0  0  0  0  0  0  0  0  0  0  0  0
    5.4325    0.6511   20.1594 C   0  0  0  0  0  0  0  0  0  0  0  0
    5.0060    0.6364   21.1648 H   0  0  0  0  0  0  0  0  0  0  0  0
    4.8043    1.3086   19.1073 C   0  0  0  0  0  0  0  0  0  0  0  0
    3.8740    1.8438   19.2616 H   0  0  0  0  0  0  0  0  0  0  0  0
  1  2  1  0
  2  3  2  0
  3  4  1  0
  4  5  1  0
  4  6  2  0
  6  7  1  0
  7  8  2  0
  8  9  1  0
  9 10  2  0
 10 11  1  0
 11 12  1  0
 12 13  1  0
 13 14  3  0
 14 15  1  0
 15 16  2  0
 16 17  1  0
 16 18  1  0
 18 19  1  0
 18 20  2  0
 20 21  1  0
 20 22  1  0
 22 23  1  0
 22 24  2  0
 24 25  1  0
 12 26  2  0
 26 27  1  0
  6 28  1  0
 28 29  1  0
 28 30  2  0
 30 31  1  0
 30  2  1  0
 27  7  1  0
 27 10  1  0
 24 15  1  0
M  END
>  <cnnaffinity>  (1) 
-5.4062

>  <filename>  (1) 
C(#Cc1nn2c(-c3cccnc3)nnc2s1)c1ccccc1

$$$$
