
     RDKit          3D

 37 40  0  0  0  0  0  0  0  0999 V2000
    4.9477    1.8521   16.8962 H   0  0  0  0  0  0  0  0  0  0  0  0
    5.3867    1.3109   17.7321 C   0  0  0  0  0  0  0  0  0  0  0  0
    6.5172    0.6371   17.4751 N   0  0  0  0  0  0  0  0  0  0  0  0
    7.0978    0.0003   18.4972 C   0  0  0  0  0  0  0  0  0  0  0  0
    8.0042   -0.5509   18.2540 H   0  0  0  0  0  0  0  0  0  0  0  0
    6.6047    0.0221   19.8187 C   0  0  0  0  0  0  0  0  0  0  0  0
    7.3738   -0.5942   20.9068 C   0  0  0  0  0  0  0  0  0  0  0  0
    8.1984   -1.6205   20.6934 N   0  0  0  0  0  0  0  0  0  0  0  0
    8.7309   -1.8439   21.8938 N   0  0  0  0  0  0  0  0  0  0  0  0
    8.3477   -1.0198   22.8645 C   0  0  0  0  0  0  0  0  0  0  0  0
    7.4166   -0.1765   22.2865 C   0  0  0  0  0  0  0  0  0  0  0  0
    6.8063    0.9113   22.9432 C   0  0  0  0  0  0  0  0  0  0  0  0
    6.4158    1.8987   23.5188 C   0  0  0  0  0  0  0  0  0  0  0  0
    6.0298    3.1351   24.1281 C   0  0  0  0  0  0  0  0  0  0  0  0
    5.1293    3.9828   23.4599 C   0  0  0  0  0  0  0  0  0  0  0  0
    4.7790    3.6973   22.4709 H   0  0  0  0  0  0  0  0  0  0  0  0
    4.7103    5.1724   24.0563 C   0  0  0  0  0  0  0  0  0  0  0  0
    4.0010    5.8125   23.5396 H   0  0  0  0  0  0  0  0  0  0  0  0
    5.2047    5.5342   25.3142 C   0  0  0  0  0  0  0  0  0  0  0  0
    4.8680    6.4529   25.7837 H   0  0  0  0  0  0  0  0  0  0  0  0
    6.1358    4.7164   25.9662 C   0  0  0  0  0  0  0  0  0  0  0  0
    6.5323    5.0084   26.9345 H   0  0  0  0  0  0  0  0  0  0  0  0
    6.5546    3.5229   25.3755 C   0  0  0  0  0  0  0  0  0  0  0  0
    7.2891    2.8906   25.8675 H   0  0  0  0  0  0  0  0  0  0  0  0
    9.0909   -1.2983   24.1407 C   0  0  0  0  0  0  0  0  0  0  0  0
    8.4138   -1.6439   24.9325 H   0  0  0  0  0  0  0  0  0  0  0  0
    9.5957   -0.4010   24.5110 H   0  0  0  0  0  0  0  0  0  0  0  0
   10.1219   -2.3646   23.6910 C   0  0  0  0  0  0  0  0  0  0  0  0
   11.0865   -1.8871   23.5244 H   0  0  0  0  0  0  0  0  0  0  0  0
   10.2529   -3.1526   24.4359 H   0  0  0  0  0  0  0  0  0  0  0  0
    9.6445   -2.8801   22.3064 C   0  0  0  0  0  0  0  0  0  0  0  0
   10.4652   -2.9055   21.5934 H   0  0  0  0  0  0  0  0  0  0  0  0
    9.1254   -3.8453   22.3389 H   0  0  0  0  0  0  0  0  0  0  0  0
    5.3904    0.6875   20.0565 C   0  0  0  0  0  0  0  0  0  0  0  0
    4.9362    0.6853   21.0500 H   0  0  0  0  0  0  0  0  0  0  0  0
    4.7741    1.3403   18.9899 C   0  0  0  0  0  0  0  0  0  0  0  0
    3.8460    1.8838   19.1221 H   0  0  0  0  0  0  0  0  0  0  0  0
  1  2  1  0
  2  3  2  0
  3  4  1  0
  4  5  1  0
  4  6  2  0
  6  7  1  0
  7  8  2  0
  8  9  1  0
  9 10  1  0
 10 11  2  0
 11 12  1  0
 12 13  3  0
 13 14  1  0
 14 15  2  0
 15 16  1  0
 15 17  1  0
 17 18  1  0
 17 19  2  0
 19 20  1  0
 19 21  1  0
 21 22  1  0
 21 23  2  0
 23 24  1  0
 10 25  1  0
 25 26  1  0
 25 27  1  0
 25 28  1  0
 28 29  1  0
 28 30  1  0
 28 31  1  0
 31 32  1  0
 31 33  1  0
  6 34  1  0
 34 35  1  0
 34 36  2  0
 36 37  1  0
 36  2  1  0
 11  7  1  0
 23 14  1  0
 31  9  1  0
M  END
>  <cnnaffinity>  (1) 
-5.468

>  <filename>  (1) 
C(#Cc1c(-c2cccnc2)nn2c1CCC2)c1ccccc1

$$$$
