
     RDKit          3D

 36 39  0  0  0  0  0  0  0  0999 V2000
    7.2461    1.7422   22.0936 H   0  0  0  0  0  0  0  0  0  0  0  0
    7.4158    0.9134   22.7868 C   0  0  0  0  0  0  0  0  0  0  0  0
    7.5842   -0.3324   22.2974 C   0  0  0  0  0  0  0  0  0  0  0  0
    7.3808   -0.7862   20.9020 C   0  0  0  0  0  0  0  0  0  0  0  0
    6.6270   -0.0239   19.8783 C   0  0  0  0  0  0  0  0  0  0  0  0
    7.1348   -0.0281   18.5703 C   0  0  0  0  0  0  0  0  0  0  0  0
    8.0374   -0.5892   18.3443 H   0  0  0  0  0  0  0  0  0  0  0  0
    6.5826    0.6327   17.5496 N   0  0  0  0  0  0  0  0  0  0  0  0
    5.4493    1.3072   17.7988 C   0  0  0  0  0  0  0  0  0  0  0  0
    5.0232    1.8454   16.9541 H   0  0  0  0  0  0  0  0  0  0  0  0
    4.8256    1.3347   19.0516 C   0  0  0  0  0  0  0  0  0  0  0  0
    3.8927    1.8757   19.1701 H   0  0  0  0  0  0  0  0  0  0  0  0
    5.4307    0.6721   20.1220 C   0  0  0  0  0  0  0  0  0  0  0  0
    4.9825    0.6954   21.1193 H   0  0  0  0  0  0  0  0  0  0  0  0
    7.9356   -1.9110   20.6335 N   0  0  0  0  0  0  0  0  0  0  0  0
    8.5770   -2.4467   21.8339 C   0  0  0  0  0  0  0  0  0  0  0  0
    9.6604   -2.4666   21.6675 H   0  0  0  0  0  0  0  0  0  0  0  0
    8.2358   -3.4722   22.0046 H   0  0  0  0  0  0  0  0  0  0  0  0
    8.1991   -1.5192   23.0134 C   0  0  0  0  0  0  0  0  0  0  0  0
    7.4800   -2.0219   23.6685 H   0  0  0  0  0  0  0  0  0  0  0  0
    9.0468   -1.2291   23.6354 H   0  0  0  0  0  0  0  0  0  0  0  0
    7.5033    1.3204   24.2067 C   0  0  0  0  0  0  0  0  0  0  0  0
    8.0785    2.5895   24.5265 C   0  0  0  0  0  0  0  0  0  0  0  0
    8.4895    3.1957   23.7244 H   0  0  0  0  0  0  0  0  0  0  0  0
    8.1517    3.0502   25.8333 C   0  0  0  0  0  0  0  0  0  0  0  0
    8.6076    4.0039   26.0781 H   0  0  0  0  0  0  0  0  0  0  0  0
    7.6525    2.2421   26.8786 C   0  0  0  0  0  0  0  0  0  0  0  0
    7.5464    2.3772   28.3051 C   0  0  0  0  0  0  0  0  0  0  0  0
    7.7536    3.2687   28.8742 H   0  0  0  0  0  0  0  0  0  0  0  0
    7.0488    1.1999   28.7902 C   0  0  0  0  0  0  0  0  0  0  0  0
    6.8620    0.8939   29.8142 H   0  0  0  0  0  0  0  0  0  0  0  0
    6.8075    0.3432   27.7326 N   0  0  0  0  0  0  0  0  0  0  0  0
    6.5479   -0.6261   27.7784 H   0  0  0  0  0  0  0  0  0  0  0  0
    7.1446    0.9656   26.5579 C   0  0  0  0  0  0  0  0  0  0  0  0
    7.0426    0.5028   25.2442 C   0  0  0  0  0  0  0  0  0  0  0  0
    6.6012   -0.4701   25.0630 H   0  0  0  0  0  0  0  0  0  0  0  0
  1  2  1  0
  2  3  2  3
  3  4  1  0
  4  5  1  0
  5  6  2  0
  6  7  1  0
  6  8  1  0
  8  9  2  0
  9 10  1  0
  9 11  1  0
 11 12  1  0
 11 13  2  0
 13 14  1  0
  4 15  2  0
 15 16  1  0
 16 17  1  0
 16 18  1  0
 16 19  1  0
 19 20  1  0
 19 21  1  0
  2 22  1  0
 22 23  2  0
 23 24  1  0
 23 25  1  0
 25 26  1  0
 25 27  2  0
 27 28  1  0
 28 29  1  0
 28 30  2  0
 30 31  1  0
 30 32  1  0
 32 33  1  0
 32 34  1  0
 34 35  2  0
 35 36  1  0
 19  3  1  0
 35 22  1  0
 13  5  1  0
 34 27  1  0
M  END
>  <cnnaffinity>  (1) 
-5.34347

>  <filename>  (1) 
C(=C1CCN=C1c1cccnc1)c1ccc2cc[nH]c2c1

$$$$
