
     RDKit          3D

 36 39  0  0  0  0  0  0  0  0999 V2000
    6.7383   -1.4583   21.4878 H   0  0  0  0  0  0  0  0  0  0  0  0
    7.3017   -0.6737   20.9805 C   0  0  0  0  0  0  0  0  0  0  0  0
    8.5245   -0.3567   21.4388 C   0  0  0  0  0  0  0  0  0  0  0  0
    9.2659   -0.9986   22.5645 C   0  0  0  0  0  0  0  0  0  0  0  0
    8.6485   -2.0307   23.4234 C   0  0  0  0  0  0  0  0  0  0  0  0
    7.3401   -2.0988   23.8481 C   0  0  0  0  0  0  0  0  0  0  0  0
    6.5064   -1.4130   23.6894 H   0  0  0  0  0  0  0  0  0  0  0  0
    7.1842   -3.1815   24.6737 N   0  0  0  0  0  0  0  0  0  0  0  0
    6.3456   -3.4218   25.1723 H   0  0  0  0  0  0  0  0  0  0  0  0
    8.3716   -3.8493   24.8085 C   0  0  0  0  0  0  0  0  0  0  0  0
    8.6838   -5.0029   25.5586 C   0  0  0  0  0  0  0  0  0  0  0  0
    7.9228   -5.5247   26.1386 H   0  0  0  0  0  0  0  0  0  0  0  0
   10.0090   -5.4269   25.5535 C   0  0  0  0  0  0  0  0  0  0  0  0
   10.2914   -6.3127   26.1269 H   0  0  0  0  0  0  0  0  0  0  0  0
   10.9898   -4.7201   24.8127 C   0  0  0  0  0  0  0  0  0  0  0  0
   12.0220   -5.0326   24.8704 H   0  0  0  0  0  0  0  0  0  0  0  0
   10.6621   -3.6142   24.0331 C   0  0  0  0  0  0  0  0  0  0  0  0
   11.3863   -3.0982   23.4087 H   0  0  0  0  0  0  0  0  0  0  0  0
    9.3283   -3.1526   24.0416 C   0  0  0  0  0  0  0  0  0  0  0  0
   10.4638   -0.5445   22.7081 N   0  0  0  0  0  0  0  0  0  0  0  0
   10.6945    0.5556   21.7665 C   0  0  0  0  0  0  0  0  0  0  0  0
   11.5672    0.3135   21.1532 H   0  0  0  0  0  0  0  0  0  0  0  0
   10.9368    1.4653   22.3284 H   0  0  0  0  0  0  0  0  0  0  0  0
    9.4135    0.7478   20.9151 C   0  0  0  0  0  0  0  0  0  0  0  0
    8.9665    1.7347   21.0714 H   0  0  0  0  0  0  0  0  0  0  0  0
    9.5848    0.6553   19.8395 H   0  0  0  0  0  0  0  0  0  0  0  0
    6.5997   -0.0119   19.8586 C   0  0  0  0  0  0  0  0  0  0  0  0
    7.1181    0.0449   18.5492 C   0  0  0  0  0  0  0  0  0  0  0  0
    8.0507   -0.4720   18.3248 H   0  0  0  0  0  0  0  0  0  0  0  0
    6.5353    0.6867   17.5271 N   0  0  0  0  0  0  0  0  0  0  0  0
    5.3852    1.3274   17.7845 C   0  0  0  0  0  0  0  0  0  0  0  0
    4.9436    1.8800   16.9555 H   0  0  0  0  0  0  0  0  0  0  0  0
    4.7592    1.3054   19.0354 C   0  0  0  0  0  0  0  0  0  0  0  0
    3.8322    1.8475   19.1788 H   0  0  0  0  0  0  0  0  0  0  0  0
    5.3611    0.6078   20.0828 C   0  0  0  0  0  0  0  0  0  0  0  0
    4.9130    0.5735   21.0775 H   0  0  0  0  0  0  0  0  0  0  0  0
  1  2  1  0
  2  3  2  3
  3  4  1  0
  4  5  1  0
  5  6  2  0
  6  7  1  0
  6  8  1  0
  8  9  1  0
  8 10  1  0
 10 11  2  0
 11 12  1  0
 11 13  1  0
 13 14  1  0
 13 15  2  0
 15 16  1  0
 15 17  1  0
 17 18  1  0
 17 19  2  0
  4 20  2  0
 20 21  1  0
 21 22  1  0
 21 23  1  0
 21 24  1  0
 24 25  1  0
 24 26  1  0
  2 27  1  0
 27 28  2  0
 28 29  1  0
 28 30  1  0
 30 31  2  0
 31 32  1  0
 31 33  1  0
 33 34  1  0
 33 35  2  0
 35 36  1  0
 24  3  1  0
 35 27  1  0
 19  5  1  0
 19 10  1  0
M  END
>  <cnnaffinity>  (1) 
-5.51279

>  <filename>  (1) 
C(=C1CCN=C1c1c[nH]c2ccccc12)c1cccnc1

$$$$
