
     RDKit          3D

 42 45  0  0  0  0  0  0  0  0999 V2000
    8.3635    0.6825   20.8153 H   0  0  0  0  0  0  0  0  0  0  0  0
    8.7982   -0.2422   21.2020 C   0  0  0  0  0  0  0  0  0  0  0  0
    7.9748   -1.3081   21.3047 C   0  0  0  0  0  0  0  0  0  0  0  0
    6.6083   -1.3790   20.7001 C   0  0  0  0  0  0  0  0  0  0  0  0
    6.1849   -0.5153   19.5689 C   0  0  0  0  0  0  0  0  0  0  0  0
    6.9732   -0.5074   18.4126 C   0  0  0  0  0  0  0  0  0  0  0  0
    7.8764   -1.1152   18.3707 H   0  0  0  0  0  0  0  0  0  0  0  0
    6.6988    0.2252   17.3299 N   0  0  0  0  0  0  0  0  0  0  0  0
    5.6057    0.9970   17.3696 C   0  0  0  0  0  0  0  0  0  0  0  0
    5.4067    1.5823   16.4742 H   0  0  0  0  0  0  0  0  0  0  0  0
    4.7428    1.0568   18.4704 C   0  0  0  0  0  0  0  0  0  0  0  0
    3.8804    1.7160   18.4280 H   0  0  0  0  0  0  0  0  0  0  0  0
    5.0270    0.2754   19.5920 C   0  0  0  0  0  0  0  0  0  0  0  0
    4.3755    0.2903   20.4675 H   0  0  0  0  0  0  0  0  0  0  0  0
    5.8552   -2.2778   21.2063 N   0  0  0  0  0  0  0  0  0  0  0  0
    6.5929   -2.9588   22.2871 C   0  0  0  0  0  0  0  0  0  0  0  0
    6.1944   -2.5977   23.2438 H   0  0  0  0  0  0  0  0  0  0  0  0
    6.4032   -4.0346   22.2464 H   0  0  0  0  0  0  0  0  0  0  0  0
    8.0912   -2.5728   22.1412 C   0  0  0  0  0  0  0  0  0  0  0  0
    8.5938   -2.4171   23.1036 H   0  0  0  0  0  0  0  0  0  0  0  0
    8.6298   -3.3496   21.5806 H   0  0  0  0  0  0  0  0  0  0  0  0
   10.2176   -0.1095   21.5831 C   0  0  0  0  0  0  0  0  0  0  0  0
   11.0485   -1.2222   21.8214 C   0  0  0  0  0  0  0  0  0  0  0  0
   10.6548   -2.2281   21.7007 H   0  0  0  0  0  0  0  0  0  0  0  0
   12.3890   -1.0512   22.1800 C   0  0  0  0  0  0  0  0  0  0  0  0
   13.0143   -1.9196   22.3605 H   0  0  0  0  0  0  0  0  0  0  0  0
   12.9226    0.2299   22.3247 C   0  0  0  0  0  0  0  0  0  0  0  0
   13.9664    0.3753   22.5967 H   0  0  0  0  0  0  0  0  0  0  0  0
   12.1197    1.3563   22.0861 C   0  0  0  0  0  0  0  0  0  0  0  0
   12.6924    2.7724   22.2821 C   0  0  0  0  0  0  0  0  0  0  0  0
   12.5441    3.7304   21.2682 C   0  0  0  0  0  0  0  0  0  0  0  0
   12.1517    3.4607   20.2859 H   0  0  0  0  0  0  0  0  0  0  0  0
   13.1682    5.1146   21.4875 C   0  0  0  0  0  0  0  0  0  0  0  0
   13.0236    5.8433   20.6726 H   0  0  0  0  0  0  0  0  0  0  0  0
   13.5771    5.5598   22.8533 C   0  0  0  0  0  0  0  0  0  0  0  0
   13.4315    6.6247   23.4052 H   0  0  0  0  0  0  0  0  0  0  0  0
   13.4163    5.7154   22.6578 C   0  0  0  0  0  0  0  0  0  0  0  0
   13.7582    4.4428   23.5339 H   0  0  0  0  0  0  0  0  0  0  0  0
   13.3755    3.0326   23.4484 C   0  0  0  0  0  0  0  0  0  0  0  0
   13.5837    2.2612   24.1751 H   0  0  0  0  0  0  0  0  0  0  0  0
   10.7881    1.1802   21.7003 C   0  0  0  0  0  0  0  0  0  0  0  0
   10.1835    2.0709   21.5355 H   0  0  0  0  0  0  0  0  0  0  0  0
  1  2  1  0
  2  3  2  3
  3  4  1  0
  4  5  1  0
  5  6  2  0
  6  7  1  0
  6  8  1  0
  8  9  2  0
  9 10  1  0
  9 11  1  0
 11 12  1  0
 11 13  2  0
 13 14  1  0
  4 15  2  0
 15 16  1  0
 16 17  1  0
 16 18  1  0
 16 19  1  0
 19 20  1  0
 19 21  1  0
  2 22  1  0
 22 23  2  0
 23 24  1  0
 23 25  1  0
 25 26  1  0
 25 27  2  0
 27 28  1  0
 27 29  1  0
 29 30  1  0
 30 31  2  0
 31 32  1  0
 31 33  1  0
 33 34  1  0
 33 35  2  0
 35 36  1  0
 35 37  1  0
 37 38  1  0
 37 39  2  0
 39 40  1  0
 29 41  2  0
 41 42  1  0
 19  3  1  0
 41 22  1  0
 13  5  1  0
 39 30  1  0
M  END
>  <cnnaffinity>  (1) 
-5.85405

>  <filename>  (1) 
C(=C1CCN=C1c1cccnc1)c1cccc(-c2ccccc2)c1

$$$$
