
     RDKit          3D

 29 31  0  0  0  0  0  0  0  0999 V2000
    7.0198    1.7467   22.1134 H   0  0  0  0  0  0  0  0  0  0  0  0
    7.3247    0.9473   22.7917 C   0  0  0  0  0  0  0  0  0  0  0  0
    7.5445   -0.2964   22.3244 C   0  0  0  0  0  0  0  0  0  0  0  0
    7.3805   -0.7619   20.9342 C   0  0  0  0  0  0  0  0  0  0  0  0
    6.6524    0.0126   19.9091 C   0  0  0  0  0  0  0  0  0  0  0  0
    7.1692    0.0536   18.6078 C   0  0  0  0  0  0  0  0  0  0  0  0
    8.1119   -0.4364   18.3804 H   0  0  0  0  0  0  0  0  0  0  0  0
    6.5730    0.6758   17.5874 N   0  0  0  0  0  0  0  0  0  0  0  0
    5.4067    1.2917   17.8419 C   0  0  0  0  0  0  0  0  0  0  0  0
    4.9255    1.7793   16.9968 H   0  0  0  0  0  0  0  0  0  0  0  0
    4.8001    1.3095   19.1033 C   0  0  0  0  0  0  0  0  0  0  0  0
    3.8684    1.8451   19.2543 H   0  0  0  0  0  0  0  0  0  0  0  0
    5.4311    0.6583   20.1617 C   0  0  0  0  0  0  0  0  0  0  0  0
    4.9864    0.6382   21.1603 H   0  0  0  0  0  0  0  0  0  0  0  0
    7.9233   -1.8952   20.6876 N   0  0  0  0  0  0  0  0  0  0  0  0
    8.5075   -2.4203   21.9219 C   0  0  0  0  0  0  0  0  0  0  0  0
    8.1233   -3.4234   22.1055 H   0  0  0  0  0  0  0  0  0  0  0  0
    9.5851   -2.5027   21.7761 H   0  0  0  0  0  0  0  0  0  0  0  0
    8.1650   -1.4469   23.0737 C   0  0  0  0  0  0  0  0  0  0  0  0
    9.0471   -1.1352   23.6405 H   0  0  0  0  0  0  0  0  0  0  0  0
    7.4523   -1.8982   23.7729 H   0  0  0  0  0  0  0  0  0  0  0  0
    7.5239    1.3850   24.1581 C   0  0  0  0  0  0  0  0  0  0  0  0
    7.5674    0.6542   25.3138 C   0  0  0  0  0  0  0  0  0  0  0  0
    7.4390   -0.4012   25.5340 H   0  0  0  0  0  0  0  0  0  0  0  0
    7.7737    1.4653   26.3754 O   0  0  0  0  0  0  0  0  0  0  0  0
    7.8796    2.7317   25.9033 C   0  0  0  0  0  0  0  0  0  0  0  0
    8.0508    3.5042   26.6432 H   0  0  0  0  0  0  0  0  0  0  0  0
    7.7323    2.7521   24.5598 C   0  0  0  0  0  0  0  0  0  0  0  0
    7.7825    3.6163   23.9122 H   0  0  0  0  0  0  0  0  0  0  0  0
  1  2  1  0
  2  3  2  3
  3  4  1  0
  4  5  1  0
  5  6  2  0
  6  7  1  0
  6  8  1  0
  8  9  2  0
  9 10  1  0
  9 11  1  0
 11 12  1  0
 11 13  2  0
 13 14  1  0
  4 15  2  0
 15 16  1  0
 16 17  1  0
 16 18  1  0
 16 19  1  0
 19 20  1  0
 19 21  1  0
  2 22  1  0
 22 23  2  0
 23 24  1  0
 23 25  1  0
 25 26  1  0
 26 27  1  0
 26 28  2  0
 28 29  1  0
 19  3  1  0
 28 22  1  0
 13  5  1  0
M  END
>  <cnnaffinity>  (1) 
-4.84974

>  <filename>  (1) 
C(=C1CCN=C1c1cccnc1)c1ccoc1

$$$$
