
     RDKit          3D

 35 38  0  0  0  0  0  0  0  0999 V2000
    6.7040   -1.4780   21.4223 H   0  0  0  0  0  0  0  0  0  0  0  0
    7.2791   -0.6720   20.9619 C   0  0  0  0  0  0  0  0  0  0  0  0
    8.4922   -0.3440   21.4392 C   0  0  0  0  0  0  0  0  0  0  0  0
    9.2270   -0.9843   22.5610 C   0  0  0  0  0  0  0  0  0  0  0  0
    8.5609   -1.9765   23.4410 C   0  0  0  0  0  0  0  0  0  0  0  0
    7.2368   -1.9343   23.7605 C   0  0  0  0  0  0  0  0  0  0  0  0
    6.5422   -1.1084   23.6405 H   0  0  0  0  0  0  0  0  0  0  0  0
    6.6689   -3.3593   24.5643 S   0  0  0  0  0  0  0  0  0  0  0  0
    8.2886   -3.9882   24.6753 C   0  0  0  0  0  0  0  0  0  0  0  0
    8.7036   -5.1543   25.3454 C   0  0  0  0  0  0  0  0  0  0  0  0
    7.9789   -5.8094   25.8176 H   0  0  0  0  0  0  0  0  0  0  0  0
   10.0662   -5.4202   25.4188 C   0  0  0  0  0  0  0  0  0  0  0  0
   10.4083   -6.3107   25.9371 H   0  0  0  0  0  0  0  0  0  0  0  0
   11.0055   -4.5693   24.8031 C   0  0  0  0  0  0  0  0  0  0  0  0
   12.0529   -4.8218   24.8762 H   0  0  0  0  0  0  0  0  0  0  0  0
   10.5877   -3.4410   24.1116 C   0  0  0  0  0  0  0  0  0  0  0  0
   11.2706   -2.7736   23.5996 H   0  0  0  0  0  0  0  0  0  0  0  0
    9.2142   -3.1263   24.0493 C   0  0  0  0  0  0  0  0  0  0  0  0
   10.4405   -0.5735   22.6809 N   0  0  0  0  0  0  0  0  0  0  0  0
   10.6912    0.5218   21.7448 C   0  0  0  0  0  0  0  0  0  0  0  0
   11.5601    0.2781   21.1218 H   0  0  0  0  0  0  0  0  0  0  0  0
   10.9513    1.4201   22.3187 H   0  0  0  0  0  0  0  0  0  0  0  0
    9.4048    0.7369   20.9021 C   0  0  0  0  0  0  0  0  0  0  0  0
    9.5679    0.6266   19.8277 H   0  0  0  0  0  0  0  0  0  0  0  0
    8.9694    1.7272   21.0611 H   0  0  0  0  0  0  0  0  0  0  0  0
    6.5936   -0.0037   19.8400 C   0  0  0  0  0  0  0  0  0  0  0  0
    7.1279    0.0551   18.5393 C   0  0  0  0  0  0  0  0  0  0  0  0
    8.0586   -0.4703   18.3249 H   0  0  0  0  0  0  0  0  0  0  0  0
    6.5550    0.7013   17.5163 N   0  0  0  0  0  0  0  0  0  0  0  0
    5.3981    1.3336   17.7656 C   0  0  0  0  0  0  0  0  0  0  0  0
    4.9619    1.8751   16.9287 H   0  0  0  0  0  0  0  0  0  0  0  0
    4.7557    1.3080   19.0089 C   0  0  0  0  0  0  0  0  0  0  0  0
    3.8197    1.8395   19.1399 H   0  0  0  0  0  0  0  0  0  0  0  0
    5.3520    0.6112   20.0592 C   0  0  0  0  0  0  0  0  0  0  0  0
    4.8936    0.5610   21.0476 H   0  0  0  0  0  0  0  0  0  0  0  0
  1  2  1  0
  2  3  2  3
  3  4  1  0
  4  5  1  0
  5  6  2  0
  6  7  1  0
  6  8  1  0
  8  9  1  0
  9 10  2  0
 10 11  1  0
 10 12  1  0
 12 13  1  0
 12 14  2  0
 14 15  1  0
 14 16  1  0
 16 17  1  0
 16 18  2  0
  4 19  2  0
 19 20  1  0
 20 21  1  0
 20 22  1  0
 20 23  1  0
 23 24  1  0
 23 25  1  0
  2 26  1  0
 26 27  2  0
 27 28  1  0
 27 29  1  0
 29 30  2  0
 30 31  1  0
 30 32  1  0
 32 33  1  0
 32 34  2  0
 34 35  1  0
 23  3  1  0
 34 26  1  0
 18  5  1  0
 18  9  1  0
M  END
>  <cnnaffinity>  (1) 
-5.74805

>  <filename>  (1) 
C(=C1CCN=C1c1csc2ccccc12)c1cccnc1

$$$$
