
     RDKit          3D

 32 34  0  0  0  0  0  0  0  0999 V2000
    9.3936    0.9089   20.2456 H   0  0  0  0  0  0  0  0  0  0  0  0
    9.6855    0.0588   20.8690 C   0  0  0  0  0  0  0  0  0  0  0  0
    8.7431   -0.8022   21.2890 C   0  0  0  0  0  0  0  0  0  0  0  0
    7.2800   -0.8095   20.9997 C   0  0  0  0  0  0  0  0  0  0  0  0
    6.6233   -0.0262   19.9281 C   0  0  0  0  0  0  0  0  0  0  0  0
    7.2006    0.0137   18.6539 C   0  0  0  0  0  0  0  0  0  0  0  0
    8.1480   -0.4916   18.4686 H   0  0  0  0  0  0  0  0  0  0  0  0
    6.6585    0.6510   17.6090 N   0  0  0  0  0  0  0  0  0  0  0  0
    5.5050    1.3004   17.8165 C   0  0  0  0  0  0  0  0  0  0  0  0
    5.0823    1.8107   16.9528 H   0  0  0  0  0  0  0  0  0  0  0  0
    4.8375    1.3176   19.0472 C   0  0  0  0  0  0  0  0  0  0  0  0
    3.9066    1.8672   19.1449 H   0  0  0  0  0  0  0  0  0  0  0  0
    5.3959    0.6288   20.1239 C   0  0  0  0  0  0  0  0  0  0  0  0
    4.9040    0.5951   21.0967 H   0  0  0  0  0  0  0  0  0  0  0  0
    6.6047   -1.5816   21.7661 N   0  0  0  0  0  0  0  0  0  0  0  0
    7.4886   -2.1883   22.7633 C   0  0  0  0  0  0  0  0  0  0  0  0
    7.2812   -3.2593   22.8337 H   0  0  0  0  0  0  0  0  0  0  0  0
    7.2425   -1.7523   23.7371 H   0  0  0  0  0  0  0  0  0  0  0  0
    8.9435   -1.8670   22.3529 C   0  0  0  0  0  0  0  0  0  0  0  0
    9.5633   -1.5158   23.1851 H   0  0  0  0  0  0  0  0  0  0  0  0
    9.4256   -2.7555   21.9313 H   0  0  0  0  0  0  0  0  0  0  0  0
   11.1002    0.0620   21.3439 C   0  0  0  0  0  0  0  0  0  0  0  0
   11.8958   -1.1015   21.3882 C   0  0  0  0  0  0  0  0  0  0  0  0
   11.4822   -2.0337   21.0116 H   0  0  0  0  0  0  0  0  0  0  0  0
   13.1945   -1.0705   21.9094 C   0  0  0  0  0  0  0  0  0  0  0  0
   13.7886   -1.9806   21.9242 H   0  0  0  0  0  0  0  0  0  0  0  0
   13.7177    0.1145   22.4458 C   0  0  0  0  0  0  0  0  0  0  0  0
   14.7008    0.1279   22.9108 H   0  0  0  0  0  0  0  0  0  0  0  0
   12.9423    1.2830   22.3959 C   0  0  0  0  0  0  0  0  0  0  0  0
   13.3356    2.2221   22.7794 H   0  0  0  0  0  0  0  0  0  0  0  0
   11.6640    1.2595   21.8288 C   0  0  0  0  0  0  0  0  0  0  0  0
   11.0777    2.1755   21.8178 H   0  0  0  0  0  0  0  0  0  0  0  0
  1  2  1  0
  2  3  2  3
  3  4  1  0
  4  5  1  0
  5  6  2  0
  6  7  1  0
  6  8  1  0
  8  9  2  0
  9 10  1  0
  9 11  1  0
 11 12  1  0
 11 13  2  0
 13 14  1  0
  4 15  2  0
 15 16  1  0
 16 17  1  0
 16 18  1  0
 16 19  1  0
 19 20  1  0
 19 21  1  0
  2 22  1  0
 22 23  2  0
 23 24  1  0
 23 25  1  0
 25 26  1  0
 25 27  2  0
 27 28  1  0
 27 29  1  0
 29 30  1  0
 29 31  2  0
 31 32  1  0
 19  3  1  0
 31 22  1  0
 13  5  1  0
M  END
>  <cnnaffinity>  (1) 
-5.57465

>  <filename>  (1) 
C(=C1CCN=C1c1cccnc1)c1ccccc1

$$$$
