
     RDKit          3D

 30 32  0  0  0  0  0  0  0  0999 V2000
    6.6925   -1.3683   21.6071 H   0  0  0  0  0  0  0  0  0  0  0  0
    7.3233   -0.7110   21.0063 C   0  0  0  0  0  0  0  0  0  0  0  0
    8.6066   -0.5255   21.3547 C   0  0  0  0  0  0  0  0  0  0  0  0
    9.3835   -1.1506   22.4394 C   0  0  0  0  0  0  0  0  0  0  0  0
    8.9014   -2.3813   23.2146 C   0  0  0  0  0  0  0  0  0  0  0  0
    9.5153   -2.6295   24.3825 N   0  0  0  0  0  0  0  0  0  0  0  0
    9.1643   -3.7154   25.0621 C   0  0  0  0  0  0  0  0  0  0  0  0
    9.6991   -3.8852   25.9914 H   0  0  0  0  0  0  0  0  0  0  0  0
    8.1889   -4.5918   24.6121 C   0  0  0  0  0  0  0  0  0  0  0  0
    7.9078   -5.4695   25.1744 H   0  0  0  0  0  0  0  0  0  0  0  0
    7.5978   -4.2586   23.4045 C   0  0  0  0  0  0  0  0  0  0  0  0
    6.8185   -4.8818   22.9784 H   0  0  0  0  0  0  0  0  0  0  0  0
    7.9258   -3.1659   22.7103 N   0  0  0  0  0  0  0  0  0  0  0  0
   10.4985   -0.5507   22.6788 N   0  0  0  0  0  0  0  0  0  0  0  0
   10.6774    0.5600   21.7514 C   0  0  0  0  0  0  0  0  0  0  0  0
   11.6474    0.4476   21.2646 H   0  0  0  0  0  0  0  0  0  0  0  0
   10.7104    1.4903   22.3259 H   0  0  0  0  0  0  0  0  0  0  0  0
    9.4873    0.5503   20.7698 C   0  0  0  0  0  0  0  0  0  0  0  0
    8.9879    1.5215   20.6851 H   0  0  0  0  0  0  0  0  0  0  0  0
    9.7348    0.2506   19.7517 H   0  0  0  0  0  0  0  0  0  0  0  0
    6.6481   -0.0066   19.8991 C   0  0  0  0  0  0  0  0  0  0  0  0
    7.1673    0.0703   18.5885 C   0  0  0  0  0  0  0  0  0  0  0  0
    8.1087   -0.4281   18.3740 H   0  0  0  0  0  0  0  0  0  0  0  0
    6.5639    0.6858   17.5646 N   0  0  0  0  0  0  0  0  0  0  0  0
    5.4015    1.2991   17.8330 C   0  0  0  0  0  0  0  0  0  0  0  0
    4.9143    1.7843   16.9922 H   0  0  0  0  0  0  0  0  0  0  0  0
    4.7999    1.3145   19.0999 C   0  0  0  0  0  0  0  0  0  0  0  0
    3.8671    1.8492   19.2563 H   0  0  0  0  0  0  0  0  0  0  0  0
    5.4224    0.6382   20.1471 C   0  0  0  0  0  0  0  0  0  0  0  0
    5.0078    0.6236   21.1596 H   0  0  0  0  0  0  0  0  0  0  0  0
  1  2  1  0
  2  3  2  3
  3  4  1  0
  4  5  1  0
  5  6  2  0
  6  7  1  0
  7  8  1  0
  7  9  2  0
  9 10  1  0
  9 11  1  0
 11 12  1  0
 11 13  2  0
  4 14  2  0
 14 15  1  0
 15 16  1  0
 15 17  1  0
 15 18  1  0
 18 19  1  0
 18 20  1  0
  2 21  1  0
 21 22  2  0
 22 23  1  0
 22 24  1  0
 24 25  2  0
 25 26  1  0
 25 27  1  0
 27 28  1  0
 27 29  2  0
 29 30  1  0
 18  3  1  0
 29 21  1  0
 13  5  1  0
M  END
>  <cnnaffinity>  (1) 
-5.20083

>  <filename>  (1) 
C(=C1CCN=C1c1ncccn1)c1cccnc1

$$$$
