
     RDKit          3D

 38 40  0  0  0  0  0  0  0  0999 V2000
    6.9564    1.7458   22.1154 H   0  0  0  0  0  0  0  0  0  0  0  0
    7.3567    0.9718   22.7762 C   0  0  0  0  0  0  0  0  0  0  0  0
    7.5990   -0.2547   22.3004 C   0  0  0  0  0  0  0  0  0  0  0  0
    7.3790   -0.7652   20.9274 C   0  0  0  0  0  0  0  0  0  0  0  0
    6.6527    0.0121   19.9033 C   0  0  0  0  0  0  0  0  0  0  0  0
    7.1711    0.0536   18.6059 C   0  0  0  0  0  0  0  0  0  0  0  0
    8.1154   -0.4372   18.3803 H   0  0  0  0  0  0  0  0  0  0  0  0
    6.5715    0.6779   17.5896 N   0  0  0  0  0  0  0  0  0  0  0  0
    5.4052    1.2912   17.8444 C   0  0  0  0  0  0  0  0  0  0  0  0
    4.9213    1.7771   16.9998 H   0  0  0  0  0  0  0  0  0  0  0  0
    4.8012    1.3102   19.1071 C   0  0  0  0  0  0  0  0  0  0  0  0
    3.8692    1.8454   19.2575 H   0  0  0  0  0  0  0  0  0  0  0  0
    5.4378    0.6593   20.1619 C   0  0  0  0  0  0  0  0  0  0  0  0
    5.0000    0.6381   21.1657 H   0  0  0  0  0  0  0  0  0  0  0  0
    7.8608   -1.9287   20.7052 N   0  0  0  0  0  0  0  0  0  0  0  0
    8.4501   -2.4481   21.9409 C   0  0  0  0  0  0  0  0  0  0  0  0
    9.5054   -2.6502   21.7530 H   0  0  0  0  0  0  0  0  0  0  0  0
    7.9684   -3.3943   22.1957 H   0  0  0  0  0  0  0  0  0  0  0  0
    8.2657   -1.3876   23.0509 C   0  0  0  0  0  0  0  0  0  0  0  0
    9.2233   -1.0714   23.4791 H   0  0  0  0  0  0  0  0  0  0  0  0
    7.6361   -1.7527   23.8710 H   0  0  0  0  0  0  0  0  0  0  0  0
    7.5950    1.3793   24.2135 C   0  0  0  0  0  0  0  0  0  0  0  0
    8.5101    0.8793   24.5755 H   0  0  0  0  0  0  0  0  0  0  0  0
    6.4358    0.9254   25.1251 C   0  0  0  0  0  0  0  0  0  0  0  0
    6.3131   -0.1630   25.0600 H   0  0  0  0  0  0  0  0  0  0  0  0
    5.5016    1.3576   24.7442 H   0  0  0  0  0  0  0  0  0  0  0  0
    6.6463    1.3609   26.5784 C   0  0  0  0  0  0  0  0  0  0  0  0
    7.5155    0.8296   26.9887 H   0  0  0  0  0  0  0  0  0  0  0  0
    5.7841    1.0659   27.1884 H   0  0  0  0  0  0  0  0  0  0  0  0
    6.8857    2.8733   26.6839 C   0  0  0  0  0  0  0  0  0  0  0  0
    5.9699    3.3981   26.3813 H   0  0  0  0  0  0  0  0  0  0  0  0
    7.0804    3.1553   27.7246 H   0  0  0  0  0  0  0  0  0  0  0  0
    8.0403    3.3327   25.7839 C   0  0  0  0  0  0  0  0  0  0  0  0
    8.1584    4.4211   25.8338 H   0  0  0  0  0  0  0  0  0  0  0  0
    8.9789    2.8966   26.1503 H   0  0  0  0  0  0  0  0  0  0  0  0
    7.8272    2.8960   24.3316 C   0  0  0  0  0  0  0  0  0  0  0  0
    6.9506    3.4128   23.9190 H   0  0  0  0  0  0  0  0  0  0  0  0
    8.6823    3.1887   23.7090 H   0  0  0  0  0  0  0  0  0  0  0  0
  1  2  1  0
  2  3  2  3
  3  4  1  0
  4  5  1  0
  5  6  2  0
  6  7  1  0
  6  8  1  0
  8  9  2  0
  9 10  1  0
  9 11  1  0
 11 12  1  0
 11 13  2  0
 13 14  1  0
  4 15  2  0
 15 16  1  0
 16 17  1  0
 16 18  1  0
 16 19  1  0
 19 20  1  0
 19 21  1  0
  2 22  1  0
 22 23  1  0
 22 24  1  0
 24 25  1  0
 24 26  1  0
 24 27  1  0
 27 28  1  0
 27 29  1  0
 27 30  1  0
 30 31  1  0
 30 32  1  0
 30 33  1  0
 33 34  1  0
 33 35  1  0
 33 36  1  0
 36 37  1  0
 36 38  1  0
 19  3  1  0
 36 22  1  0
 13  5  1  0
M  END
>  <cnnaffinity>  (1) 
-5.16469

>  <filename>  (1) 
C(=C1CCN=C1c1cccnc1)C1CCCCC1

$$$$
