
     RDKit          3D

 35 38  0  0  0  0  0  0  0  0999 V2000
    7.0574    1.7082   22.0425 H   0  0  0  0  0  0  0  0  0  0  0  0
    7.4487    0.9636   22.7274 C   0  0  0  0  0  0  0  0  0  0  0  0
    7.6673   -0.2891   22.2762 C   0  0  0  0  0  0  0  0  0  0  0  0
    7.3743   -0.7896   20.9126 C   0  0  0  0  0  0  0  0  0  0  0  0
    6.6192   -0.0331   19.8851 C   0  0  0  0  0  0  0  0  0  0  0  0
    7.1483    0.0029   18.5879 C   0  0  0  0  0  0  0  0  0  0  0  0
    8.0778   -0.5182   18.3675 H   0  0  0  0  0  0  0  0  0  0  0  0
    6.5829    0.6590   17.5702 N   0  0  0  0  0  0  0  0  0  0  0  0
    5.4278    1.2991   17.8112 C   0  0  0  0  0  0  0  0  0  0  0  0
    4.9888    1.8349   16.9714 H   0  0  0  0  0  0  0  0  0  0  0  0
    4.7972    1.3010   19.0583 C   0  0  0  0  0  0  0  0  0  0  0  0
    3.8702    1.8460   19.1892 H   0  0  0  0  0  0  0  0  0  0  0  0
    5.4020    0.6262   20.1194 C   0  0  0  0  0  0  0  0  0  0  0  0
    4.9351    0.6154   21.1059 H   0  0  0  0  0  0  0  0  0  0  0  0
    7.8526   -1.9552   20.6769 N   0  0  0  0  0  0  0  0  0  0  0  0
    8.4728   -2.4872   21.8914 C   0  0  0  0  0  0  0  0  0  0  0  0
    7.9924   -3.4378   22.1449 H   0  0  0  0  0  0  0  0  0  0  0  0
    9.5295   -2.6942   21.6912 H   0  0  0  0  0  0  0  0  0  0  0  0
    8.3057   -1.4376   23.0214 C   0  0  0  0  0  0  0  0  0  0  0  0
    7.6480   -1.8144   23.8122 H   0  0  0  0  0  0  0  0  0  0  0  0
    9.2629   -1.1611   23.4752 H   0  0  0  0  0  0  0  0  0  0  0  0
    7.6284    1.4846   24.0704 C   0  0  0  0  0  0  0  0  0  0  0  0
    8.0289    0.6505   25.0845 O   0  0  0  0  0  0  0  0  0  0  0  0
    7.9662    1.3754   26.2325 C   0  0  0  0  0  0  0  0  0  0  0  0
    8.1453    0.8769   27.5241 C   0  0  0  0  0  0  0  0  0  0  0  0
    8.4957   -0.1411   27.6886 H   0  0  0  0  0  0  0  0  0  0  0  0
    7.8476    1.7492   28.5694 C   0  0  0  0  0  0  0  0  0  0  0  0
    7.8986    1.3692   29.5876 H   0  0  0  0  0  0  0  0  0  0  0  0
    7.4882    3.0974   28.3342 C   0  0  0  0  0  0  0  0  0  0  0  0
    7.2457    3.7467   29.1711 H   0  0  0  0  0  0  0  0  0  0  0  0
    7.3910    3.5968   27.0366 C   0  0  0  0  0  0  0  0  0  0  0  0
    7.1522    4.6454   26.8622 H   0  0  0  0  0  0  0  0  0  0  0  0
    7.5885    2.7026   25.9597 C   0  0  0  0  0  0  0  0  0  0  0  0
    7.4038    2.7424   24.5321 C   0  0  0  0  0  0  0  0  0  0  0  0
    7.1393    3.5969   23.9267 H   0  0  0  0  0  0  0  0  0  0  0  0
  1  2  1  0
  2  3  2  3
  3  4  1  0
  4  5  1  0
  5  6  2  0
  6  7  1  0
  6  8  1  0
  8  9  2  0
  9 10  1  0
  9 11  1  0
 11 12  1  0
 11 13  2  0
 13 14  1  0
  4 15  2  0
 15 16  1  0
 16 17  1  0
 16 18  1  0
 16 19  1  0
 19 20  1  0
 19 21  1  0
  2 22  1  0
 22 23  1  0
 23 24  1  0
 24 25  2  0
 25 26  1  0
 25 27  1  0
 27 28  1  0
 27 29  2  0
 29 30  1  0
 29 31  1  0
 31 32  1  0
 31 33  2  0
 33 34  1  0
 34 35  1  0
 19  3  1  0
 34 22  2  0
 13  5  1  0
 33 24  1  0
M  END
>  <cnnaffinity>  (1) 
-5.3466

>  <filename>  (1) 
C(=C1CCN=C1c1cccnc1)c1cc2ccccc2o1

$$$$
