
     RDKit          3D

 29 31  0  0  0  0  0  0  0  0999 V2000
    7.0253    1.7374   22.1246 H   0  0  0  0  0  0  0  0  0  0  0  0
    7.3006    0.9313   22.8094 C   0  0  0  0  0  0  0  0  0  0  0  0
    7.5229   -0.3043   22.3282 C   0  0  0  0  0  0  0  0  0  0  0  0
    7.3800   -0.7601   20.9302 C   0  0  0  0  0  0  0  0  0  0  0  0
    6.6512    0.0113   19.9071 C   0  0  0  0  0  0  0  0  0  0  0  0
    7.1701    0.0534   18.6075 C   0  0  0  0  0  0  0  0  0  0  0  0
    8.1136   -0.4370   18.3805 H   0  0  0  0  0  0  0  0  0  0  0  0
    6.5714    0.6770   17.5898 N   0  0  0  0  0  0  0  0  0  0  0  0
    5.4048    1.2914   17.8437 C   0  0  0  0  0  0  0  0  0  0  0  0
    4.9252    1.7789   16.9979 H   0  0  0  0  0  0  0  0  0  0  0  0
    4.8010    1.3103   19.1055 C   0  0  0  0  0  0  0  0  0  0  0  0
    3.8704    1.8441   19.2541 H   0  0  0  0  0  0  0  0  0  0  0  0
    5.4328    0.6593   20.1626 C   0  0  0  0  0  0  0  0  0  0  0  0
    4.9938    0.6410   21.1637 H   0  0  0  0  0  0  0  0  0  0  0  0
    7.9447   -1.8834   20.6833 N   0  0  0  0  0  0  0  0  0  0  0  0
    8.5299   -2.4101   21.9180 C   0  0  0  0  0  0  0  0  0  0  0  0
    8.1604   -3.4227   22.0903 H   0  0  0  0  0  0  0  0  0  0  0  0
    9.6125   -2.4679   21.7838 H   0  0  0  0  0  0  0  0  0  0  0  0
    8.1565   -1.4535   23.0744 C   0  0  0  0  0  0  0  0  0  0  0  0
    7.4460   -1.9251   23.7629 H   0  0  0  0  0  0  0  0  0  0  0  0
    9.0224   -1.1249   23.6563 H   0  0  0  0  0  0  0  0  0  0  0  0
    7.5019    1.3673   24.1924 C   0  0  0  0  0  0  0  0  0  0  0  0
    7.2875    0.6285   25.3239 C   0  0  0  0  0  0  0  0  0  0  0  0
    6.9028   -0.3788   25.3651 H   0  0  0  0  0  0  0  0  0  0  0  0
    7.6536    1.4882   26.7562 S   0  0  0  0  0  0  0  0  0  0  0  0
    8.1080    2.8762   25.8501 C   0  0  0  0  0  0  0  0  0  0  0  0
    8.4365    3.7697   26.3560 H   0  0  0  0  0  0  0  0  0  0  0  0
    7.9770    2.6829   24.5125 C   0  0  0  0  0  0  0  0  0  0  0  0
    8.2236    3.4159   23.7504 H   0  0  0  0  0  0  0  0  0  0  0  0
  1  2  1  0
  2  3  2  3
  3  4  1  0
  4  5  1  0
  5  6  2  0
  6  7  1  0
  6  8  1  0
  8  9  2  0
  9 10  1  0
  9 11  1  0
 11 12  1  0
 11 13  2  0
 13 14  1  0
  4 15  2  0
 15 16  1  0
 16 17  1  0
 16 18  1  0
 16 19  1  0
 19 20  1  0
 19 21  1  0
  2 22  1  0
 22 23  2  0
 23 24  1  0
 23 25  1  0
 25 26  1  0
 26 27  1  0
 26 28  2  0
 28 29  1  0
 19  3  1  0
 28 22  1  0
 13  5  1  0
M  END
>  <cnnaffinity>  (1) 
-5.61298

>  <filename>  (1) 
C(=C1CCN=C1c1cccnc1)c1ccsc1

$$$$
