
     RDKit          3D

 37 40  0  0  0  0  0  0  0  0999 V2000
    6.7674   -1.5432   21.4398 H   0  0  0  0  0  0  0  0  0  0  0  0
    7.3332   -0.7188   20.9957 C   0  0  0  0  0  0  0  0  0  0  0  0
    8.5624   -0.4026   21.4348 C   0  0  0  0  0  0  0  0  0  0  0  0
    9.3558   -1.0219   22.5246 C   0  0  0  0  0  0  0  0  0  0  0  0
    8.8280   -2.1583   23.3834 C   0  0  0  0  0  0  0  0  0  0  0  0
    9.6560   -3.1578   23.6280 N   0  0  0  0  0  0  0  0  0  0  0  0
    9.2445   -4.1656   24.4495 C   0  0  0  0  0  0  0  0  0  0  0  0
   10.1673   -5.2200   24.7421 C   0  0  0  0  0  0  0  0  0  0  0  0
   11.1596   -5.1504   24.3099 H   0  0  0  0  0  0  0  0  0  0  0  0
    9.7853   -6.2619   25.5538 C   0  0  0  0  0  0  0  0  0  0  0  0
   10.4598   -7.0815   25.7943 H   0  0  0  0  0  0  0  0  0  0  0  0
    8.4840   -6.2763   26.1252 C   0  0  0  0  0  0  0  0  0  0  0  0
    8.2209   -7.0580   26.8121 H   0  0  0  0  0  0  0  0  0  0  0  0
    7.5741   -5.2811   25.8764 C   0  0  0  0  0  0  0  0  0  0  0  0
    6.5799   -5.3001   26.3211 H   0  0  0  0  0  0  0  0  0  0  0  0
    7.9358   -4.1948   25.0359 C   0  0  0  0  0  0  0  0  0  0  0  0
    7.0584   -3.1115   24.7581 C   0  0  0  0  0  0  0  0  0  0  0  0
    6.0599   -3.1137   25.2035 H   0  0  0  0  0  0  0  0  0  0  0  0
    7.4956   -2.0999   23.9367 C   0  0  0  0  0  0  0  0  0  0  0  0
    6.8451   -1.2544   23.7313 H   0  0  0  0  0  0  0  0  0  0  0  0
   10.5058   -0.4845   22.7057 N   0  0  0  0  0  0  0  0  0  0  0  0
   10.6961    0.6011   21.7525 C   0  0  0  0  0  0  0  0  0  0  0  0
   11.5672    0.3570   21.1407 H   0  0  0  0  0  0  0  0  0  0  0  0
   10.9266    1.5043   22.3191 H   0  0  0  0  0  0  0  0  0  0  0  0
    9.4097    0.7402   20.9090 C   0  0  0  0  0  0  0  0  0  0  0  0
    8.9253    1.7125   21.0487 H   0  0  0  0  0  0  0  0  0  0  0  0
    9.5931    0.6364   19.8380 H   0  0  0  0  0  0  0  0  0  0  0  0
    6.6431   -0.0047   19.8955 C   0  0  0  0  0  0  0  0  0  0  0  0
    7.1619    0.0684   18.5865 C   0  0  0  0  0  0  0  0  0  0  0  0
    8.1076   -0.4272   18.3743 H   0  0  0  0  0  0  0  0  0  0  0  0
    6.5590    0.6853   17.5623 N   0  0  0  0  0  0  0  0  0  0  0  0
    5.3969    1.3009   17.8312 C   0  0  0  0  0  0  0  0  0  0  0  0
    4.9129    1.7884   16.9894 H   0  0  0  0  0  0  0  0  0  0  0  0
    4.7985    1.3149   19.0976 C   0  0  0  0  0  0  0  0  0  0  0  0
    3.8678    1.8492   19.2538 H   0  0  0  0  0  0  0  0  0  0  0  0
    5.4219    0.6376   20.1462 C   0  0  0  0  0  0  0  0  0  0  0  0
    5.0084    0.6236   21.1580 H   0  0  0  0  0  0  0  0  0  0  0  0
  1  2  1  0
  2  3  2  3
  3  4  1  0
  4  5  1  0
  5  6  2  0
  6  7  1  0
  7  8  2  0
  8  9  1  0
  8 10  1  0
 10 11  1  0
 10 12  2  0
 12 13  1  0
 12 14  1  0
 14 15  1  0
 14 16  2  0
 16 17  1  0
 17 18  1  0
 17 19  2  0
 19 20  1  0
  4 21  2  0
 21 22  1  0
 22 23  1  0
 22 24  1  0
 22 25  1  0
 25 26  1  0
 25 27  1  0
  2 28  1  0
 28 29  2  0
 29 30  1  0
 29 31  1  0
 31 32  2  0
 32 33  1  0
 32 34  1  0
 34 35  1  0
 34 36  2  0
 36 37  1  0
 25  3  1  0
 36 28  1  0
 19  5  1  0
 16  7  1  0
M  END
>  <cnnaffinity>  (1) 
-5.97635

>  <filename>  (1) 
C(=C1CCN=C1c1ccc2ccccc2n1)c1cccnc1

$$$$
