
     RDKit          3D

 30 32  0  0  0  0  0  0  0  0999 V2000
    5.3810   -2.5673   20.8972 H   0  0  0  0  0  0  0  0  0  0  0  0
    5.8755   -2.4431   21.8592 C   0  0  0  0  0  0  0  0  0  0  0  0
    7.0061   -1.7179   21.9731 C   0  0  0  0  0  0  0  0  0  0  0  0
    7.5145   -0.7286   20.9776 C   0  0  0  0  0  0  0  0  0  0  0  0
    6.6909   -0.0411   19.9448 C   0  0  0  0  0  0  0  0  0  0  0  0
    7.2304    0.0421   18.6531 C   0  0  0  0  0  0  0  0  0  0  0  0
    8.1933   -0.4152   18.4349 H   0  0  0  0  0  0  0  0  0  0  0  0
    6.6303    0.6425   17.6227 N   0  0  0  0  0  0  0  0  0  0  0  0
    5.4577    1.2505   17.8660 C   0  0  0  0  0  0  0  0  0  0  0  0
    4.9889    1.7541   17.0206 H   0  0  0  0  0  0  0  0  0  0  0  0
    4.8389    1.2501   19.1189 C   0  0  0  0  0  0  0  0  0  0  0  0
    3.9057    1.7897   19.2466 H   0  0  0  0  0  0  0  0  0  0  0  0
    5.4578    0.5894   20.1842 C   0  0  0  0  0  0  0  0  0  0  0  0
    5.0044    0.5939   21.1776 H   0  0  0  0  0  0  0  0  0  0  0  0
    8.7727   -0.5055   21.0716 N   0  0  0  0  0  0  0  0  0  0  0  0
    9.3292   -1.2755   22.1893 C   0  0  0  0  0  0  0  0  0  0  0  0
    9.9575   -0.6385   22.8162 H   0  0  0  0  0  0  0  0  0  0  0  0
    9.9790   -2.0646   21.7891 H   0  0  0  0  0  0  0  0  0  0  0  0
    8.1375   -1.8592   22.9839 C   0  0  0  0  0  0  0  0  0  0  0  0
    8.3124   -2.8831   23.3236 H   0  0  0  0  0  0  0  0  0  0  0  0
    7.9463   -1.2279   23.8604 H   0  0  0  0  0  0  0  0  0  0  0  0
    5.2420   -3.2216   22.9339 C   0  0  0  0  0  0  0  0  0  0  0  0
    4.4185   -4.2228   22.5219 N   0  0  0  0  0  0  0  0  0  0  0  0
    3.8396   -4.9450   23.4905 C   0  0  0  0  0  0  0  0  0  0  0  0
    3.1889   -5.7546   23.1749 H   0  0  0  0  0  0  0  0  0  0  0  0
    4.0148   -4.6785   24.8645 C   0  0  0  0  0  0  0  0  0  0  0  0
    3.5033   -5.2732   25.6214 H   0  0  0  0  0  0  0  0  0  0  0  0
    4.7950   -3.6647   25.2820 N   0  0  0  0  0  0  0  0  0  0  0  0
    5.4031   -2.9458   24.3209 C   0  0  0  0  0  0  0  0  0  0  0  0
    5.9923   -2.0955   24.6560 H   0  0  0  0  0  0  0  0  0  0  0  0
  1  2  1  0
  2  3  2  3
  3  4  1  0
  4  5  1  0
  5  6  2  0
  6  7  1  0
  6  8  1  0
  8  9  2  0
  9 10  1  0
  9 11  1  0
 11 12  1  0
 11 13  2  0
 13 14  1  0
  4 15  2  0
 15 16  1  0
 16 17  1  0
 16 18  1  0
 16 19  1  0
 19 20  1  0
 19 21  1  0
  2 22  1  0
 22 23  2  0
 23 24  1  0
 24 25  1  0
 24 26  2  0
 26 27  1  0
 26 28  1  0
 28 29  2  0
 29 30  1  0
 19  3  1  0
 29 22  1  0
 13  5  1  0
M  END
>  <cnnaffinity>  (1) 
-5.06926

>  <filename>  (1) 
C(=C1CCN=C1c1cccnc1)c1cnccn1

$$$$
