
     RDKit          3D

 29 31  0  0  0  0  0  0  0  0999 V2000
    7.0129    1.7419   22.1110 H   0  0  0  0  0  0  0  0  0  0  0  0
    7.3333    0.9568   22.7982 C   0  0  0  0  0  0  0  0  0  0  0  0
    7.5535   -0.2835   22.3268 C   0  0  0  0  0  0  0  0  0  0  0  0
    7.3802   -0.7543   20.9379 C   0  0  0  0  0  0  0  0  0  0  0  0
    6.6533    0.0157   19.9071 C   0  0  0  0  0  0  0  0  0  0  0  0
    7.1717    0.0539   18.6081 C   0  0  0  0  0  0  0  0  0  0  0  0
    8.1141   -0.4363   18.3812 H   0  0  0  0  0  0  0  0  0  0  0  0
    6.5722    0.6764   17.5905 N   0  0  0  0  0  0  0  0  0  0  0  0
    5.4058    1.2912   17.8430 C   0  0  0  0  0  0  0  0  0  0  0  0
    4.9222    1.7774   16.9991 H   0  0  0  0  0  0  0  0  0  0  0  0
    4.8006    1.3099   19.1045 C   0  0  0  0  0  0  0  0  0  0  0  0
    3.8693    1.8450   19.2568 H   0  0  0  0  0  0  0  0  0  0  0  0
    5.4338    0.6585   20.1608 C   0  0  0  0  0  0  0  0  0  0  0  0
    4.9905    0.6377   21.1620 H   0  0  0  0  0  0  0  0  0  0  0  0
    7.9116   -1.8929   20.6951 N   0  0  0  0  0  0  0  0  0  0  0  0
    8.4994   -2.4205   21.9254 C   0  0  0  0  0  0  0  0  0  0  0  0
    8.1038   -3.4198   22.1171 H   0  0  0  0  0  0  0  0  0  0  0  0
    9.5766   -2.5157   21.7737 H   0  0  0  0  0  0  0  0  0  0  0  0
    8.1744   -1.4376   23.0722 C   0  0  0  0  0  0  0  0  0  0  0  0
    7.4650   -1.8817   23.7790 H   0  0  0  0  0  0  0  0  0  0  0  0
    9.0671   -1.1277   23.6234 H   0  0  0  0  0  0  0  0  0  0  0  0
    7.5375    1.3883   24.1741 C   0  0  0  0  0  0  0  0  0  0  0  0
    7.6887    2.7223   24.6150 C   0  0  0  0  0  0  0  0  0  0  0  0
    7.6861    3.6084   23.9992 H   0  0  0  0  0  0  0  0  0  0  0  0
    7.8552    2.8009   25.9240 N   0  0  0  0  0  0  0  0  0  0  0  0
    7.8111    1.5277   26.3326 N   0  0  0  0  0  0  0  0  0  0  0  0
    7.9032    1.3438   27.3164 H   0  0  0  0  0  0  0  0  0  0  0  0
    7.6264    0.6356   25.3357 C   0  0  0  0  0  0  0  0  0  0  0  0
    7.5433   -0.4283   25.5063 H   0  0  0  0  0  0  0  0  0  0  0  0
  1  2  1  0
  2  3  2  3
  3  4  1  0
  4  5  1  0
  5  6  2  0
  6  7  1  0
  6  8  1  0
  8  9  2  0
  9 10  1  0
  9 11  1  0
 11 12  1  0
 11 13  2  0
 13 14  1  0
  4 15  2  0
 15 16  1  0
 16 17  1  0
 16 18  1  0
 16 19  1  0
 19 20  1  0
 19 21  1  0
  2 22  1  0
 22 23  1  0
 23 24  1  0
 23 25  2  0
 25 26  1  0
 26 27  1  0
 26 28  1  0
 28 29  1  0
 19  3  1  0
 28 22  2  0
 13  5  1  0
M  END
>  <cnnaffinity>  (1) 
-4.79928

>  <filename>  (1) 
C(=C1CCN=C1c1cccnc1)c1cn[nH]c1

$$$$
