
     RDKit          3D

 36 39  0  0  0  0  0  0  0  0999 V2000
    9.4087    0.8250   20.2508 H   0  0  0  0  0  0  0  0  0  0  0  0
    9.6895   -0.0109   20.8907 C   0  0  0  0  0  0  0  0  0  0  0  0
    8.7279   -0.8579   21.3164 C   0  0  0  0  0  0  0  0  0  0  0  0
    7.2706   -0.8502   21.0086 C   0  0  0  0  0  0  0  0  0  0  0  0
    6.6273   -0.0546   19.9337 C   0  0  0  0  0  0  0  0  0  0  0  0
    7.2206    0.0005   18.6690 C   0  0  0  0  0  0  0  0  0  0  0  0
    8.1764   -0.4952   18.4941 H   0  0  0  0  0  0  0  0  0  0  0  0
    6.6929    0.6467   17.6220 N   0  0  0  0  0  0  0  0  0  0  0  0
    5.5365    1.2961   17.8197 C   0  0  0  0  0  0  0  0  0  0  0  0
    5.1249    1.8065   16.9508 H   0  0  0  0  0  0  0  0  0  0  0  0
    4.8568    1.3091   19.0442 C   0  0  0  0  0  0  0  0  0  0  0  0
    3.9249    1.8598   19.1326 H   0  0  0  0  0  0  0  0  0  0  0  0
    5.4027    0.6088   20.1211 C   0  0  0  0  0  0  0  0  0  0  0  0
    4.9027    0.5760   21.0909 H   0  0  0  0  0  0  0  0  0  0  0  0
    6.5783   -1.6161   21.7679 N   0  0  0  0  0  0  0  0  0  0  0  0
    7.4457   -2.2303   22.7753 C   0  0  0  0  0  0  0  0  0  0  0  0
    7.2316   -3.2997   22.8456 H   0  0  0  0  0  0  0  0  0  0  0  0
    7.1918   -1.7950   23.7474 H   0  0  0  0  0  0  0  0  0  0  0  0
    8.9094   -1.9121   22.3859 C   0  0  0  0  0  0  0  0  0  0  0  0
    9.5097   -1.5424   23.2233 H   0  0  0  0  0  0  0  0  0  0  0  0
    9.4081   -2.7966   21.9747 H   0  0  0  0  0  0  0  0  0  0  0  0
   11.0951    0.0193   21.3434 C   0  0  0  0  0  0  0  0  0  0  0  0
   11.8999   -1.1253   21.4569 C   0  0  0  0  0  0  0  0  0  0  0  0
   11.5152   -2.0734   21.1013 H   0  0  0  0  0  0  0  0  0  0  0  0
   13.2012   -1.0780   22.0006 C   0  0  0  0  0  0  0  0  0  0  0  0
   13.7919   -1.9888   22.0449 H   0  0  0  0  0  0  0  0  0  0  0  0
   13.7543    0.1152   22.4583 C   0  0  0  0  0  0  0  0  0  0  0  0
   14.7342    0.1476   22.9262 H   0  0  0  0  0  0  0  0  0  0  0  0
   12.9864    1.2820   22.2889 C   0  0  0  0  0  0  0  0  0  0  0  0
   11.6828    1.2654   21.7263 C   0  0  0  0  0  0  0  0  0  0  0  0
   11.2223    2.6214   21.7426 C   0  0  0  0  0  0  0  0  0  0  0  0
   10.2202    2.9418   21.4804 H   0  0  0  0  0  0  0  0  0  0  0  0
   12.2321    3.3975   22.2338 C   0  0  0  0  0  0  0  0  0  0  0  0
   12.2702    4.4704   22.3513 H   0  0  0  0  0  0  0  0  0  0  0  0
   13.2947    2.5932   22.5847 N   0  0  0  0  0  0  0  0  0  0  0  0
   14.1975    2.9169   22.8957 H   0  0  0  0  0  0  0  0  0  0  0  0
  1  2  1  0
  2  3  2  3
  3  4  1  0
  4  5  1  0
  5  6  2  0
  6  7  1  0
  6  8  1  0
  8  9  2  0
  9 10  1  0
  9 11  1  0
 11 12  1  0
 11 13  2  0
 13 14  1  0
  4 15  2  0
 15 16  1  0
 16 17  1  0
 16 18  1  0
 16 19  1  0
 19 20  1  0
 19 21  1  0
  2 22  1  0
 22 23  2  0
 23 24  1  0
 23 25  1  0
 25 26  1  0
 25 27  2  0
 27 28  1  0
 27 29  1  0
 29 30  2  0
 30 31  1  0
 31 32  1  0
 31 33  2  0
 33 34  1  0
 33 35  1  0
 35 36  1  0
 19  3  1  0
 30 22  1  0
 13  5  1  0
 35 29  1  0
M  END
>  <cnnaffinity>  (1) 
-6.41512

>  <filename>  (1) 
C(=C1CCN=C1c1cccnc1)c1cccc2[nH]ccc12

$$$$
