
     RDKit          3D

 31 33  0  0  0  0  0  0  0  0999 V2000
    9.4098    0.9276   20.1960 H   0  0  0  0  0  0  0  0  0  0  0  0
    9.6948    0.0740   20.8190 C   0  0  0  0  0  0  0  0  0  0  0  0
    8.7503   -0.7787   21.2615 C   0  0  0  0  0  0  0  0  0  0  0  0
    7.2859   -0.7912   20.9936 C   0  0  0  0  0  0  0  0  0  0  0  0
    6.6166   -0.0181   19.9209 C   0  0  0  0  0  0  0  0  0  0  0  0
    7.1807    0.0237   18.6416 C   0  0  0  0  0  0  0  0  0  0  0  0
    8.1291   -0.4750   18.4496 H   0  0  0  0  0  0  0  0  0  0  0  0
    6.6290    0.6597   17.6003 N   0  0  0  0  0  0  0  0  0  0  0  0
    5.4710    1.2979   17.8162 C   0  0  0  0  0  0  0  0  0  0  0  0
    5.0379    1.8112   16.9588 H   0  0  0  0  0  0  0  0  0  0  0  0
    4.8223    1.3228   19.0585 C   0  0  0  0  0  0  0  0  0  0  0  0
    3.8922    1.8697   19.1637 H   0  0  0  0  0  0  0  0  0  0  0  0
    5.3957    0.6383   20.1307 C   0  0  0  0  0  0  0  0  0  0  0  0
    4.9114    0.6099   21.1104 H   0  0  0  0  0  0  0  0  0  0  0  0
    6.6191   -1.5613   21.7696 N   0  0  0  0  0  0  0  0  0  0  0  0
    7.5152   -2.1668   22.7587 C   0  0  0  0  0  0  0  0  0  0  0  0
    7.3351   -3.2449   22.8115 H   0  0  0  0  0  0  0  0  0  0  0  0
    7.2886   -1.7352   23.7423 H   0  0  0  0  0  0  0  0  0  0  0  0
    8.9631   -1.8287   22.3368 C   0  0  0  0  0  0  0  0  0  0  0  0
    9.4768   -2.7093   21.9396 H   0  0  0  0  0  0  0  0  0  0  0  0
    9.5795   -1.4472   23.1546 H   0  0  0  0  0  0  0  0  0  0  0  0
   11.1159    0.0702   21.2697 C   0  0  0  0  0  0  0  0  0  0  0  0
   11.9031   -1.0928   21.3369 C   0  0  0  0  0  0  0  0  0  0  0  0
   11.5126   -2.0361   20.9834 H   0  0  0  0  0  0  0  0  0  0  0  0
   13.1805   -1.0339   21.9045 C   0  0  0  0  0  0  0  0  0  0  0  0
   13.7776   -1.9428   21.9836 H   0  0  0  0  0  0  0  0  0  0  0  0
   13.7158    0.0857   22.4096 N   0  0  0  0  0  0  0  0  0  0  0  0
   12.9777    1.2037   22.3173 C   0  0  0  0  0  0  0  0  0  0  0  0
   13.4007    2.1060   22.7597 H   0  0  0  0  0  0  0  0  0  0  0  0
   11.7167    1.2554   21.7184 C   0  0  0  0  0  0  0  0  0  0  0  0
   11.1891    2.2019   21.6630 H   0  0  0  0  0  0  0  0  0  0  0  0
  1  2  1  0
  2  3  2  3
  3  4  1  0
  4  5  1  0
  5  6  2  0
  6  7  1  0
  6  8  1  0
  8  9  2  0
  9 10  1  0
  9 11  1  0
 11 12  1  0
 11 13  2  0
 13 14  1  0
  4 15  2  0
 15 16  1  0
 16 17  1  0
 16 18  1  0
 16 19  1  0
 19 20  1  0
 19 21  1  0
  2 22  1  0
 22 23  2  0
 23 24  1  0
 23 25  1  0
 25 26  1  0
 25 27  2  0
 27 28  1  0
 28 29  1  0
 28 30  2  0
 30 31  1  0
 19  3  1  0
 30 22  1  0
 13  5  1  0
M  END
>  <cnnaffinity>  (1) 
-5.73822

>  <filename>  (1) 
C(=C1CCN=C1c1cccnc1)c1ccncc1

$$$$
