
     RDKit          3D

 35 38  0  0  0  0  0  0  0  0999 V2000
    8.7088    0.8295   20.6090 H   0  0  0  0  0  0  0  0  0  0  0  0
    9.0304   -0.1205   21.0473 C   0  0  0  0  0  0  0  0  0  0  0  0
    8.1053   -1.0408   21.3914 C   0  0  0  0  0  0  0  0  0  0  0  0
    6.6748   -1.0587   20.9956 C   0  0  0  0  0  0  0  0  0  0  0  0
    6.1859   -0.2492   19.8603 C   0  0  0  0  0  0  0  0  0  0  0  0
    6.9539   -0.1942   18.6889 C   0  0  0  0  0  0  0  0  0  0  0  0
    7.8614   -0.7922   18.6023 H   0  0  0  0  0  0  0  0  0  0  0  0
    6.6607    0.5742   17.6352 N   0  0  0  0  0  0  0  0  0  0  0  0
    5.5614    1.3373   17.7293 C   0  0  0  0  0  0  0  0  0  0  0  0
    5.3406    1.9703   16.8712 H   0  0  0  0  0  0  0  0  0  0  0  0
    4.7061    1.3329   18.8385 C   0  0  0  0  0  0  0  0  0  0  0  0
    3.8301    1.9769   18.8474 H   0  0  0  0  0  0  0  0  0  0  0  0
    5.0103    0.5077   19.9219 C   0  0  0  0  0  0  0  0  0  0  0  0
    4.3769    0.4594   20.8091 H   0  0  0  0  0  0  0  0  0  0  0  0
    5.9471   -1.8473   21.6917 N   0  0  0  0  0  0  0  0  0  0  0  0
    6.7812   -2.4189   22.7635 C   0  0  0  0  0  0  0  0  0  0  0  0
    6.5187   -3.4668   22.9237 H   0  0  0  0  0  0  0  0  0  0  0  0
    6.5524   -1.8771   23.6885 H   0  0  0  0  0  0  0  0  0  0  0  0
    8.2579   -2.1871   22.3671 C   0  0  0  0  0  0  0  0  0  0  0  0
    8.6332   -3.0762   21.8443 H   0  0  0  0  0  0  0  0  0  0  0  0
    8.9393   -1.9626   23.1968 H   0  0  0  0  0  0  0  0  0  0  0  0
   10.4640   -0.2278   21.3503 C   0  0  0  0  0  0  0  0  0  0  0  0
   11.1234   -1.4719   21.3175 C   0  0  0  0  0  0  0  0  0  0  0  0
   10.5878   -2.3392   20.9464 H   0  0  0  0  0  0  0  0  0  0  0  0
   12.4685   -1.5997   21.6988 C   0  0  0  0  0  0  0  0  0  0  0  0
   13.0319   -2.5198   21.6436 H   0  0  0  0  0  0  0  0  0  0  0  0
   13.0882   -0.4659   22.1775 C   0  0  0  0  0  0  0  0  0  0  0  0
   12.4531    0.7818   22.1996 C   0  0  0  0  0  0  0  0  0  0  0  0
   11.1742    0.9458   21.7196 C   0  0  0  0  0  0  0  0  0  0  0  0
   10.7308    1.9344   21.6354 H   0  0  0  0  0  0  0  0  0  0  0  0
   13.3064    1.7115   22.7223 O   0  0  0  0  0  0  0  0  0  0  0  0
   14.4179    0.9623   23.2006 C   0  0  0  0  0  0  0  0  0  0  0  0
   15.3283    1.4583   22.8675 H   0  0  0  0  0  0  0  0  0  0  0  0
   14.3714    0.8632   24.2978 H   0  0  0  0  0  0  0  0  0  0  0  0
   14.3632   -0.3403   22.6337 O   0  0  0  0  0  0  0  0  0  0  0  0
  1  2  1  0
  2  3  2  3
  3  4  1  0
  4  5  1  0
  5  6  2  0
  6  7  1  0
  6  8  1  0
  8  9  2  0
  9 10  1  0
  9 11  1  0
 11 12  1  0
 11 13  2  0
 13 14  1  0
  4 15  2  0
 15 16  1  0
 16 17  1  0
 16 18  1  0
 16 19  1  0
 19 20  1  0
 19 21  1  0
  2 22  1  0
 22 23  2  0
 23 24  1  0
 23 25  1  0
 25 26  1  0
 25 27  2  0
 27 28  1  0
 28 29  2  0
 29 30  1  0
 28 31  1  0
 31 32  1  0
 32 33  1  0
 32 34  1  0
 32 35  1  0
 19  3  1  0
 29 22  1  0
 13  5  1  0
 35 27  1  0
M  END
>  <cnnaffinity>  (1) 
-5.84849

>  <filename>  (1) 
C(=C1CCN=C1c1cccnc1)c1ccc2c(c1)OCO2

$$$$
