
     RDKit          3D

 35 38  0  0  0  0  0  0  0  0999 V2000
    5.3284   -2.3195   20.9874 H   0  0  0  0  0  0  0  0  0  0  0  0
    5.8844   -2.3629   21.9287 C   0  0  0  0  0  0  0  0  0  0  0  0
    7.0449   -1.6787   21.9841 C   0  0  0  0  0  0  0  0  0  0  0  0
    7.5456   -0.7023   20.9739 C   0  0  0  0  0  0  0  0  0  0  0  0
    6.7181   -0.0260   19.9373 C   0  0  0  0  0  0  0  0  0  0  0  0
    7.2448    0.0503   18.6366 C   0  0  0  0  0  0  0  0  0  0  0  0
    8.2058   -0.4047   18.4104 H   0  0  0  0  0  0  0  0  0  0  0  0
    6.6335    0.6502   17.6112 N   0  0  0  0  0  0  0  0  0  0  0  0
    5.4621    1.2551   17.8638 C   0  0  0  0  0  0  0  0  0  0  0  0
    4.9831    1.7497   17.0191 H   0  0  0  0  0  0  0  0  0  0  0  0
    4.8516    1.2523   19.1216 C   0  0  0  0  0  0  0  0  0  0  0  0
    3.9146    1.7810   19.2553 H   0  0  0  0  0  0  0  0  0  0  0  0
    5.4818    0.5924   20.1805 C   0  0  0  0  0  0  0  0  0  0  0  0
    5.0321    0.5796   21.1753 H   0  0  0  0  0  0  0  0  0  0  0  0
    8.8102   -0.4879   21.0396 N   0  0  0  0  0  0  0  0  0  0  0  0
    9.3829   -1.2473   22.1557 C   0  0  0  0  0  0  0  0  0  0  0  0
   10.0431   -2.0276   21.7540 H   0  0  0  0  0  0  0  0  0  0  0  0
   10.0079   -0.6020   22.7797 H   0  0  0  0  0  0  0  0  0  0  0  0
    8.1997   -1.8403   22.9614 C   0  0  0  0  0  0  0  0  0  0  0  0
    8.0437   -1.2363   23.8651 H   0  0  0  0  0  0  0  0  0  0  0  0
    8.3699   -2.8739   23.2682 H   0  0  0  0  0  0  0  0  0  0  0  0
    5.2648   -3.2005   22.9925 C   0  0  0  0  0  0  0  0  0  0  0  0
    5.3801   -2.8647   24.3847 C   0  0  0  0  0  0  0  0  0  0  0  0
    5.9590   -1.9901   24.6658 H   0  0  0  0  0  0  0  0  0  0  0  0
    4.7635   -3.5981   25.3857 C   0  0  0  0  0  0  0  0  0  0  0  0
    4.8049   -3.3027   26.4298 H   0  0  0  0  0  0  0  0  0  0  0  0
    4.0473   -4.7482   24.9881 C   0  0  0  0  0  0  0  0  0  0  0  0
    3.9010   -5.1138   23.6312 C   0  0  0  0  0  0  0  0  0  0  0  0
    3.0855   -6.2932   23.6768 C   0  0  0  0  0  0  0  0  0  0  0  0
    2.7194   -6.8987   22.8513 H   0  0  0  0  0  0  0  0  0  0  0  0
    2.7812   -6.6185   24.9167 N   0  0  0  0  0  0  0  0  0  0  0  0
    3.3603   -5.6804   25.7041 N   0  0  0  0  0  0  0  0  0  0  0  0
    3.3426   -5.7755   26.7094 H   0  0  0  0  0  0  0  0  0  0  0  0
    4.5112   -4.3182   22.6266 C   0  0  0  0  0  0  0  0  0  0  0  0
    4.4323   -4.5918   21.5800 H   0  0  0  0  0  0  0  0  0  0  0  0
  1  2  1  0
  2  3  2  3
  3  4  1  0
  4  5  1  0
  5  6  2  0
  6  7  1  0
  6  8  1  0
  8  9  2  0
  9 10  1  0
  9 11  1  0
 11 12  1  0
 11 13  2  0
 13 14  1  0
  4 15  2  0
 15 16  1  0
 16 17  1  0
 16 18  1  0
 16 19  1  0
 19 20  1  0
 19 21  1  0
  2 22  1  0
 22 23  2  0
 23 24  1  0
 23 25  1  0
 25 26  1  0
 25 27  2  0
 27 28  1  0
 28 29  1  0
 29 30  1  0
 29 31  2  0
 31 32  1  0
 32 33  1  0
 28 34  2  0
 34 35  1  0
 19  3  1  0
 34 22  1  0
 13  5  1  0
 32 27  1  0
M  END
>  <cnnaffinity>  (1) 
-5.30796

>  <filename>  (1) 
C(=C1CCN=C1c1cccnc1)c1ccc2[nH]ncc2c1

$$$$
