
     RDKit          3D

 29 31  0  0  0  0  0  0  0  0999 V2000
    5.2998   -2.4522   20.9360 H   0  0  0  0  0  0  0  0  0  0  0  0
    5.8768   -2.4305   21.8585 C   0  0  0  0  0  0  0  0  0  0  0  0
    7.0209   -1.7230   21.9369 C   0  0  0  0  0  0  0  0  0  0  0  0
    7.5266   -0.7183   20.9540 C   0  0  0  0  0  0  0  0  0  0  0  0
    6.6941   -0.0354   19.9288 C   0  0  0  0  0  0  0  0  0  0  0  0
    7.2283    0.0440   18.6348 C   0  0  0  0  0  0  0  0  0  0  0  0
    8.1905   -0.4126   18.4179 H   0  0  0  0  0  0  0  0  0  0  0  0
    6.6236    0.6477   17.6080 N   0  0  0  0  0  0  0  0  0  0  0  0
    5.4525    1.2532   17.8561 C   0  0  0  0  0  0  0  0  0  0  0  0
    4.9838    1.7564   17.0109 H   0  0  0  0  0  0  0  0  0  0  0  0
    4.8386    1.2570   19.1125 C   0  0  0  0  0  0  0  0  0  0  0  0
    3.9078    1.7980   19.2421 H   0  0  0  0  0  0  0  0  0  0  0  0
    5.4628    0.5953   20.1748 C   0  0  0  0  0  0  0  0  0  0  0  0
    5.0138    0.6045   21.1704 H   0  0  0  0  0  0  0  0  0  0  0  0
    8.7809   -0.4770   21.0638 N   0  0  0  0  0  0  0  0  0  0  0  0
    9.3312   -1.2459   22.1872 C   0  0  0  0  0  0  0  0  0  0  0  0
    9.9417   -0.6021   22.8270 H   0  0  0  0  0  0  0  0  0  0  0  0
    9.9906   -2.0260   21.7830 H   0  0  0  0  0  0  0  0  0  0  0  0
    8.1350   -1.8491   22.9615 C   0  0  0  0  0  0  0  0  0  0  0  0
    8.3246   -2.8693   23.3080 H   0  0  0  0  0  0  0  0  0  0  0  0
    7.9122   -1.2209   23.8338 H   0  0  0  0  0  0  0  0  0  0  0  0
    5.2879   -3.2431   22.9305 C   0  0  0  0  0  0  0  0  0  0  0  0
    4.2738   -4.0479   22.6085 N   0  0  0  0  0  0  0  0  0  0  0  0
    3.8630   -4.5777   23.7638 N   0  0  0  0  0  0  0  0  0  0  0  0
    3.0374   -5.1632   23.7636 H   0  0  0  0  0  0  0  0  0  0  0  0
    4.5595   -4.1273   24.8339 C   0  0  0  0  0  0  0  0  0  0  0  0
    4.3013   -4.4087   25.8461 H   0  0  0  0  0  0  0  0  0  0  0  0
    5.5198   -3.2789   24.3394 C   0  0  0  0  0  0  0  0  0  0  0  0
    6.2638   -2.7197   24.8920 H   0  0  0  0  0  0  0  0  0  0  0  0
  1  2  1  0
  2  3  2  3
  3  4  1  0
  4  5  1  0
  5  6  2  0
  6  7  1  0
  6  8  1  0
  8  9  2  0
  9 10  1  0
  9 11  1  0
 11 12  1  0
 11 13  2  0
 13 14  1  0
  4 15  2  0
 15 16  1  0
 16 17  1  0
 16 18  1  0
 16 19  1  0
 19 20  1  0
 19 21  1  0
  2 22  1  0
 22 23  2  0
 23 24  1  0
 24 25  1  0
 24 26  1  0
 26 27  1  0
 26 28  2  0
 28 29  1  0
 19  3  1  0
 28 22  1  0
 13  5  1  0
M  END
>  <cnnaffinity>  (1) 
-4.79123

>  <filename>  (1) 
C(=C1CCN=C1c1cccnc1)c1cc[nH]n1

$$$$
