
     RDKit          3D

 38 41  0  0  0  0  0  0  0  0999 V2000
    9.3782    0.8643   20.2891 H   0  0  0  0  0  0  0  0  0  0  0  0
    9.6552    0.0359   20.9415 C   0  0  0  0  0  0  0  0  0  0  0  0
    8.7029   -0.8348   21.3453 C   0  0  0  0  0  0  0  0  0  0  0  0
    7.2580   -0.8362   21.0184 C   0  0  0  0  0  0  0  0  0  0  0  0
    6.6346   -0.0371   19.9381 C   0  0  0  0  0  0  0  0  0  0  0  0
    7.2345    0.0164   18.6772 C   0  0  0  0  0  0  0  0  0  0  0  0
    8.1884   -0.4838   18.4967 H   0  0  0  0  0  0  0  0  0  0  0  0
    6.7006    0.6537   17.6275 N   0  0  0  0  0  0  0  0  0  0  0  0
    5.5400    1.2966   17.8191 C   0  0  0  0  0  0  0  0  0  0  0  0
    5.1262    1.8071   16.9504 H   0  0  0  0  0  0  0  0  0  0  0  0
    4.8613    1.3118   19.0420 C   0  0  0  0  0  0  0  0  0  0  0  0
    3.9275    1.8548   19.1310 H   0  0  0  0  0  0  0  0  0  0  0  0
    5.4086    0.6199   20.1200 C   0  0  0  0  0  0  0  0  0  0  0  0
    4.9082    0.5814   21.0887 H   0  0  0  0  0  0  0  0  0  0  0  0
    6.5608   -1.6104   21.7640 N   0  0  0  0  0  0  0  0  0  0  0  0
    7.4200   -2.2331   22.7750 C   0  0  0  0  0  0  0  0  0  0  0  0
    7.1307   -1.8359   23.7540 H   0  0  0  0  0  0  0  0  0  0  0  0
    7.2280   -3.3093   22.8029 H   0  0  0  0  0  0  0  0  0  0  0  0
    8.8894   -1.8768   22.4277 C   0  0  0  0  0  0  0  0  0  0  0  0
    9.4197   -2.7544   22.0376 H   0  0  0  0  0  0  0  0  0  0  0  0
    9.4582   -1.4937   23.2856 H   0  0  0  0  0  0  0  0  0  0  0  0
   11.0545    0.0152   21.3962 C   0  0  0  0  0  0  0  0  0  0  0  0
   11.8079   -1.1535   21.4210 C   0  0  0  0  0  0  0  0  0  0  0  0
   11.3754   -2.0613   21.0137 H   0  0  0  0  0  0  0  0  0  0  0  0
   13.1346   -1.1985   21.9220 C   0  0  0  0  0  0  0  0  0  0  0  0
   13.6724   -2.1438   21.9325 H   0  0  0  0  0  0  0  0  0  0  0  0
   13.7291   -0.0468   22.3783 C   0  0  0  0  0  0  0  0  0  0  0  0
   14.7500   -0.0437   22.7593 H   0  0  0  0  0  0  0  0  0  0  0  0
   13.0169    1.1900   22.3439 C   0  0  0  0  0  0  0  0  0  0  0  0
   13.6460    2.3924   22.7573 C   0  0  0  0  0  0  0  0  0  0  0  0
   14.7054    2.3185   22.9113 H   0  0  0  0  0  0  0  0  0  0  0  0
   12.9899    3.5967   22.7870 C   0  0  0  0  0  0  0  0  0  0  0  0
   13.4872    4.4974   23.1397 H   0  0  0  0  0  0  0  0  0  0  0  0
   11.6431    3.6524   22.3470 C   0  0  0  0  0  0  0  0  0  0  0  0
   11.1217    4.6053   22.3426 H   0  0  0  0  0  0  0  0  0  0  0  0
   11.0021    2.5101   21.9091 C   0  0  0  0  0  0  0  0  0  0  0  0
    9.9631    2.5648   21.6009 H   0  0  0  0  0  0  0  0  0  0  0  0
   11.6674    1.2434   21.8654 C   0  0  0  0  0  0  0  0  0  0  0  0
  1  2  1  0
  2  3  2  3
  3  4  1  0
  4  5  1  0
  5  6  2  0
  6  7  1  0
  6  8  1  0
  8  9  2  0
  9 10  1  0
  9 11  1  0
 11 12  1  0
 11 13  2  0
 13 14  1  0
  4 15  2  0
 15 16  1  0
 16 17  1  0
 16 18  1  0
 16 19  1  0
 19 20  1  0
 19 21  1  0
  2 22  1  0
 22 23  2  0
 23 24  1  0
 23 25  1  0
 25 26  1  0
 25 27  2  0
 27 28  1  0
 27 29  1  0
 29 30  2  0
 30 31  1  0
 30 32  1  0
 32 33  1  0
 32 34  2  0
 34 35  1  0
 34 36  1  0
 36 37  1  0
 36 38  2  0
 19  3  1  0
 38 22  1  0
 13  5  1  0
 38 29  1  0
M  END
>  <cnnaffinity>  (1) 
-6.21125

>  <filename>  (1) 
C(=C1CCN=C1c1cccnc1)c1cccc2ccccc12

$$$$
