
     RDKit          3D

 36 39  0  0  0  0  0  0  0  0999 V2000
    6.7100   -1.4841   21.4863 H   0  0  0  0  0  0  0  0  0  0  0  0
    7.2928   -0.6981   21.0023 C   0  0  0  0  0  0  0  0  0  0  0  0
    8.5249   -0.3994   21.4554 C   0  0  0  0  0  0  0  0  0  0  0  0
    9.2905   -1.0284   22.5677 C   0  0  0  0  0  0  0  0  0  0  0  0
    8.7238   -2.0567   23.4852 C   0  0  0  0  0  0  0  0  0  0  0  0
    7.4078   -1.9669   23.9741 C   0  0  0  0  0  0  0  0  0  0  0  0
    6.7868   -1.1126   23.7174 H   0  0  0  0  0  0  0  0  0  0  0  0
    6.8596   -2.9699   24.8019 C   0  0  0  0  0  0  0  0  0  0  0  0
    5.8255   -2.8858   25.1203 H   0  0  0  0  0  0  0  0  0  0  0  0
    7.5938   -4.0977   25.1568 C   0  0  0  0  0  0  0  0  0  0  0  0
    7.1683   -4.9107   25.7392 H   0  0  0  0  0  0  0  0  0  0  0  0
    8.9333   -4.1438   24.7479 C   0  0  0  0  0  0  0  0  0  0  0  0
    9.5291   -3.1319   23.9528 C   0  0  0  0  0  0  0  0  0  0  0  0
   10.9231   -3.4881   23.8502 C   0  0  0  0  0  0  0  0  0  0  0  0
   11.6477   -2.9475   23.2623 H   0  0  0  0  0  0  0  0  0  0  0  0
   11.1190   -4.6323   24.5646 C   0  0  0  0  0  0  0  0  0  0  0  0
   12.0301   -5.1588   24.8250 H   0  0  0  0  0  0  0  0  0  0  0  0
    9.9114   -5.0462   25.0851 N   0  0  0  0  0  0  0  0  0  0  0  0
    9.7201   -5.9487   25.4850 H   0  0  0  0  0  0  0  0  0  0  0  0
   10.4784   -0.5522   22.7064 N   0  0  0  0  0  0  0  0  0  0  0  0
   10.6954    0.5383   21.7633 C   0  0  0  0  0  0  0  0  0  0  0  0
   10.9219    1.4549   22.3210 H   0  0  0  0  0  0  0  0  0  0  0  0
   11.5682    0.3002   21.1468 H   0  0  0  0  0  0  0  0  0  0  0  0
    9.4113    0.7030   20.9127 C   0  0  0  0  0  0  0  0  0  0  0  0
    8.9522    1.6863   21.0536 H   0  0  0  0  0  0  0  0  0  0  0  0
    9.5901    0.5813   19.8420 H   0  0  0  0  0  0  0  0  0  0  0  0
    6.6035   -0.0181   19.8770 C   0  0  0  0  0  0  0  0  0  0  0  0
    7.1264    0.0417   18.5686 C   0  0  0  0  0  0  0  0  0  0  0  0
    8.0598   -0.4741   18.3473 H   0  0  0  0  0  0  0  0  0  0  0  0
    6.5470    0.6831   17.5437 N   0  0  0  0  0  0  0  0  0  0  0  0
    5.3945    1.3217   17.7964 C   0  0  0  0  0  0  0  0  0  0  0  0
    4.9479    1.8614   16.9618 H   0  0  0  0  0  0  0  0  0  0  0  0
    4.7674    1.3070   19.0471 C   0  0  0  0  0  0  0  0  0  0  0  0
    3.8384    1.8479   19.1864 H   0  0  0  0  0  0  0  0  0  0  0  0
    5.3686    0.6112   20.0972 C   0  0  0  0  0  0  0  0  0  0  0  0
    4.9160    0.5848   21.0893 H   0  0  0  0  0  0  0  0  0  0  0  0
  1  2  1  0
  2  3  2  3
  3  4  1  0
  4  5  1  0
  5  6  2  0
  6  7  1  0
  6  8  1  0
  8  9  1  0
  8 10  2  0
 10 11  1  0
 10 12  1  0
 12 13  2  0
 13 14  1  0
 14 15  1  0
 14 16  2  0
 16 17  1  0
 16 18  1  0
 18 19  1  0
  4 20  2  0
 20 21  1  0
 21 22  1  0
 21 23  1  0
 21 24  1  0
 24 25  1  0
 24 26  1  0
  2 27  1  0
 27 28  2  0
 28 29  1  0
 28 30  1  0
 30 31  2  0
 31 32  1  0
 31 33  1  0
 33 34  1  0
 33 35  2  0
 35 36  1  0
 24  3  1  0
 35 27  1  0
 13  5  1  0
 18 12  1  0
M  END
>  <cnnaffinity>  (1) 
-5.54028

>  <filename>  (1) 
C(=C1CCN=C1c1cccc2[nH]ccc12)c1cccnc1

$$$$
