
     RDKit          3D

 34 36  0  0  0  0  0  0  0  0999 V2000
    8.0747   -1.3737   20.5598 H   0  0  0  0  0  0  0  0  0  0  0  0
    7.5061   -0.5061   20.9175 C   0  0  0  0  0  0  0  0  0  0  0  0
    7.6443   -0.1814   22.2146 C   0  0  0  0  0  0  0  0  0  0  0  0
    7.4011    1.1048   22.8894 C   0  0  0  0  0  0  0  0  0  0  0  0
    7.0397    2.2175   22.1754 N   0  0  0  0  0  0  0  0  0  0  0  0
    7.5289    2.2470   21.2975 H   0  0  0  0  0  0  0  0  0  0  0  0
    6.8630    3.4842   22.8544 C   0  0  0  0  0  0  0  0  0  0  0  0
    6.2587    3.2911   23.7475 H   0  0  0  0  0  0  0  0  0  0  0  0
    6.2737    4.1385   22.2029 H   0  0  0  0  0  0  0  0  0  0  0  0
    8.1142    4.1953   23.3274 C   0  0  0  0  0  0  0  0  0  0  0  0
    8.8421    5.4909   22.4476 S   0  0  0  0  0  0  0  0  0  0  0  0
    9.9974    5.7771   23.6871 C   0  0  0  0  0  0  0  0  0  0  0  0
   10.7400    6.5575   23.5626 H   0  0  0  0  0  0  0  0  0  0  0  0
    9.8211    4.9310   24.7366 C   0  0  0  0  0  0  0  0  0  0  0  0
   10.4234    4.9755   25.6312 H   0  0  0  0  0  0  0  0  0  0  0  0
    8.7431    4.0185   24.5265 C   0  0  0  0  0  0  0  0  0  0  0  0
    8.4348    3.2328   25.2070 H   0  0  0  0  0  0  0  0  0  0  0  0
    7.5540    1.1059   24.1641 N   0  0  0  0  0  0  0  0  0  0  0  0
    7.9297   -0.2343   24.5892 C   0  0  0  0  0  0  0  0  0  0  0  0
    7.1347   -0.6300   25.2328 H   0  0  0  0  0  0  0  0  0  0  0  0
    8.8367   -0.1881   25.2035 H   0  0  0  0  0  0  0  0  0  0  0  0
    8.1321   -1.0984   23.3179 C   0  0  0  0  0  0  0  0  0  0  0  0
    7.5585   -2.0294   23.3506 H   0  0  0  0  0  0  0  0  0  0  0  0
    9.1850   -1.3740   23.1812 H   0  0  0  0  0  0  0  0  0  0  0  0
    6.7032    0.1492   19.8592 C   0  0  0  0  0  0  0  0  0  0  0  0
    7.1589    0.0681   18.5236 C   0  0  0  0  0  0  0  0  0  0  0  0
    8.0535   -0.5093   18.2961 H   0  0  0  0  0  0  0  0  0  0  0  0
    6.5697    0.6537   17.4798 N   0  0  0  0  0  0  0  0  0  0  0  0
    5.4328    1.3300   17.7170 C   0  0  0  0  0  0  0  0  0  0  0  0
    4.9752    1.8193   16.8590 H   0  0  0  0  0  0  0  0  0  0  0  0
    4.8425    1.4114   18.9789 C   0  0  0  0  0  0  0  0  0  0  0  0
    3.9074    1.9426   19.1047 H   0  0  0  0  0  0  0  0  0  0  0  0
    5.4862    0.8162   20.0709 C   0  0  0  0  0  0  0  0  0  0  0  0
    5.0634    0.8749   21.0730 H   0  0  0  0  0  0  0  0  0  0  0  0
  1  2  1  0
  2  3  2  3
  3  4  1  0
  4  5  1  0
  5  6  1  0
  5  7  1  0
  7  8  1  0
  7  9  1  0
  7 10  1  0
 10 11  1  0
 11 12  1  0
 12 13  1  0
 12 14  2  0
 14 15  1  0
 14 16  1  0
 16 17  1  0
  4 18  2  0
 18 19  1  0
 19 20  1  0
 19 21  1  0
 19 22  1  0
 22 23  1  0
 22 24  1  0
  2 25  1  0
 25 26  2  0
 26 27  1  0
 26 28  1  0
 28 29  2  0
 29 30  1  0
 29 31  1  0
 31 32  1  0
 31 33  2  0
 33 34  1  0
 22  3  1  0
 33 25  1  0
 16 10  2  0
M  END
>  <cnnaffinity>  (1) 
-5.17083

>  <filename>  (1) 
C(=C1CCN=C1NCc1cccs1)c1cccnc1

$$$$
