
     RDKit          3D

 30 32  0  0  0  0  0  0  0  0999 V2000
    6.6825   -1.3360   21.6257 H   0  0  0  0  0  0  0  0  0  0  0  0
    7.3276   -0.7196   20.9936 C   0  0  0  0  0  0  0  0  0  0  0  0
    8.6112   -0.5270   21.3374 C   0  0  0  0  0  0  0  0  0  0  0  0
    9.3655   -1.1415   22.4368 C   0  0  0  0  0  0  0  0  0  0  0  0
    8.8496   -2.3248   23.1652 C   0  0  0  0  0  0  0  0  0  0  0  0
    9.0829   -2.4312   24.5454 C   0  0  0  0  0  0  0  0  0  0  0  0
    9.6008   -1.6519   25.0931 H   0  0  0  0  0  0  0  0  0  0  0  0
    8.6867   -3.4811   25.2684 N   0  0  0  0  0  0  0  0  0  0  0  0
    8.0495   -4.5040   24.6850 N   0  0  0  0  0  0  0  0  0  0  0  0
    7.8077   -4.4675   23.3693 C   0  0  0  0  0  0  0  0  0  0  0  0
    7.2895   -5.3239   22.9538 H   0  0  0  0  0  0  0  0  0  0  0  0
    8.1865   -3.3914   22.5569 C   0  0  0  0  0  0  0  0  0  0  0  0
    7.9823   -3.4031   21.4882 H   0  0  0  0  0  0  0  0  0  0  0  0
   10.4809   -0.5708   22.7116 N   0  0  0  0  0  0  0  0  0  0  0  0
   10.6990    0.5157   21.7511 C   0  0  0  0  0  0  0  0  0  0  0  0
   11.6673    0.3753   21.2675 H   0  0  0  0  0  0  0  0  0  0  0  0
   10.7381    1.4560   22.3065 H   0  0  0  0  0  0  0  0  0  0  0  0
    9.5169    0.5177   20.7499 C   0  0  0  0  0  0  0  0  0  0  0  0
    9.7616    0.1839   19.7435 H   0  0  0  0  0  0  0  0  0  0  0  0
    9.0290    1.4918   20.6570 H   0  0  0  0  0  0  0  0  0  0  0  0
    6.6428   -0.0151   19.8962 C   0  0  0  0  0  0  0  0  0  0  0  0
    7.1652    0.0657   18.5910 C   0  0  0  0  0  0  0  0  0  0  0  0
    8.1094   -0.4281   18.3745 H   0  0  0  0  0  0  0  0  0  0  0  0
    6.5635    0.6859   17.5686 N   0  0  0  0  0  0  0  0  0  0  0  0
    5.3998    1.2988   17.8348 C   0  0  0  0  0  0  0  0  0  0  0  0
    4.9140    1.7844   16.9931 H   0  0  0  0  0  0  0  0  0  0  0  0
    4.7997    1.3138   19.1018 C   0  0  0  0  0  0  0  0  0  0  0  0
    3.8689    1.8488   19.2563 H   0  0  0  0  0  0  0  0  0  0  0  0
    5.4224    0.6351   20.1473 C   0  0  0  0  0  0  0  0  0  0  0  0
    5.0066    0.6240   21.1593 H   0  0  0  0  0  0  0  0  0  0  0  0
  1  2  1  0
  2  3  2  3
  3  4  1  0
  4  5  1  0
  5  6  2  0
  6  7  1  0
  6  8  1  0
  8  9  2  0
  9 10  1  0
 10 11  1  0
 10 12  2  0
 12 13  1  0
  4 14  2  0
 14 15  1  0
 15 16  1  0
 15 17  1  0
 15 18  1  0
 18 19  1  0
 18 20  1  0
  2 21  1  0
 21 22  2  0
 22 23  1  0
 22 24  1  0
 24 25  2  0
 25 26  1  0
 25 27  1  0
 27 28  1  0
 27 29  2  0
 29 30  1  0
 18  3  1  0
 29 21  1  0
 12  5  1  0
M  END
>  <cnnaffinity>  (1) 
-5.40818

>  <filename>  (1) 
C(=C1CCN=C1c1ccnnc1)c1cccnc1

$$$$
