
     RDKit          3D

 30 32  0  0  0  0  0  0  0  0999 V2000
    6.7002   -0.4422   21.8281 H   0  0  0  0  0  0  0  0  0  0  0  0
    7.1703   -0.5264   20.8404 C   0  0  0  0  0  0  0  0  0  0  0  0
    8.2597   -1.1695   20.6874 N   0  0  0  0  0  0  0  0  0  0  0  0
    8.8013   -1.8145   21.8177 C   0  0  0  0  0  0  0  0  0  0  0  0
   10.2218   -1.7941   21.9002 C   0  0  0  0  0  0  0  0  0  0  0  0
   10.7508   -1.2483   21.1236 H   0  0  0  0  0  0  0  0  0  0  0  0
   10.8501   -2.5014   22.8865 C   0  0  0  0  0  0  0  0  0  0  0  0
   11.9315   -2.5567   22.9176 H   0  0  0  0  0  0  0  0  0  0  0  0
   10.0958   -3.2231   23.8654 C   0  0  0  0  0  0  0  0  0  0  0  0
   10.7351   -4.0144   24.8541 C   0  0  0  0  0  0  0  0  0  0  0  0
   11.8103   -4.1180   24.8202 H   0  0  0  0  0  0  0  0  0  0  0  0
   10.0147   -4.6660   25.8234 C   0  0  0  0  0  0  0  0  0  0  0  0
   10.5435   -5.2447   26.5721 H   0  0  0  0  0  0  0  0  0  0  0  0
    8.5953   -4.5788   25.8405 C   0  0  0  0  0  0  0  0  0  0  0  0
    8.0349   -5.1336   26.5910 H   0  0  0  0  0  0  0  0  0  0  0  0
    7.9359   -3.8427   24.8793 C   0  0  0  0  0  0  0  0  0  0  0  0
    6.8484   -3.7908   24.8710 H   0  0  0  0  0  0  0  0  0  0  0  0
    8.6661   -3.1709   23.8436 C   0  0  0  0  0  0  0  0  0  0  0  0
    8.0435   -2.4900   22.7583 C   0  0  0  0  0  0  0  0  0  0  0  0
    6.9706   -2.5389   22.6100 H   0  0  0  0  0  0  0  0  0  0  0  0
    6.4855    0.1498   19.7516 C   0  0  0  0  0  0  0  0  0  0  0  0
    7.0319    0.1309   18.4591 C   0  0  0  0  0  0  0  0  0  0  0  0
    7.9562   -0.4129   18.2795 H   0  0  0  0  0  0  0  0  0  0  0  0
    6.4763    0.7517   17.4197 N   0  0  0  0  0  0  0  0  0  0  0  0
    5.3348    1.4223   17.6407 C   0  0  0  0  0  0  0  0  0  0  0  0
    4.9182    1.9383   16.7805 H   0  0  0  0  0  0  0  0  0  0  0  0
    4.6913    1.4726   18.8822 C   0  0  0  0  0  0  0  0  0  0  0  0
    3.7681    2.0299   18.9874 H   0  0  0  0  0  0  0  0  0  0  0  0
    5.2737    0.8208   19.9639 C   0  0  0  0  0  0  0  0  0  0  0  0
    4.8059    0.8333   20.9507 H   0  0  0  0  0  0  0  0  0  0  0  0
  1  2  1  0
  2  3  2  3
  3  4  1  0
  4  5  2  0
  5  6  1  0
  5  7  1  0
  7  8  1  0
  7  9  2  0
  9 10  1  0
 10 11  1  0
 10 12  2  0
 12 13  1  0
 12 14  1  0
 14 15  1  0
 14 16  2  0
 16 17  1  0
 16 18  1  0
 18 19  2  0
 19 20  1  0
  2 21  1  0
 21 22  2  0
 22 23  1  0
 22 24  1  0
 24 25  2  0
 25 26  1  0
 25 27  1  0
 27 28  1  0
 27 29  2  0
 29 30  1  0
 19  4  1  0
 29 21  1  0
 18  9  1  0
M  END
>  <cnnaffinity>  (1) 
-4.92143

>  <filename>  (1) 
C(=Nc1ccc2ccccc2c1)c1cccnc1

$$$$
