
     RDKit          3D

 33 35  0  0  0  0  0  0  0  0999 V2000
    5.8801   -0.8874   22.2142 H   0  0  0  0  0  0  0  0  0  0  0  0
    6.9140   -1.1009   21.9338 C   0  0  0  0  0  0  0  0  0  0  0  0
    7.3815   -0.8054   20.7869 N   0  0  0  0  0  0  0  0  0  0  0  0
    6.6472   -0.0612   19.8374 C   0  0  0  0  0  0  0  0  0  0  0  0
    7.1617    0.0253   18.5190 C   0  0  0  0  0  0  0  0  0  0  0  0
    8.0966   -0.4857   18.3076 H   0  0  0  0  0  0  0  0  0  0  0  0
    6.5741    0.6823   17.5147 N   0  0  0  0  0  0  0  0  0  0  0  0
    5.4158    1.3160   17.7871 C   0  0  0  0  0  0  0  0  0  0  0  0
    4.9488    1.8434   16.9587 H   0  0  0  0  0  0  0  0  0  0  0  0
    4.8239    1.3085   19.0533 C   0  0  0  0  0  0  0  0  0  0  0  0
    3.8923    1.8386   19.2186 H   0  0  0  0  0  0  0  0  0  0  0  0
    5.4494    0.6222   20.1014 C   0  0  0  0  0  0  0  0  0  0  0  0
    5.0340    0.6305   21.1090 H   0  0  0  0  0  0  0  0  0  0  0  0
    7.7606   -1.8318   22.9464 C   0  0  0  0  0  0  0  0  0  0  0  0
    8.1466   -2.7280   22.4491 H   0  0  0  0  0  0  0  0  0  0  0  0
    7.1296   -2.1641   23.7703 H   0  0  0  0  0  0  0  0  0  0  0  0
    8.9233   -0.9922   23.4386 C   0  0  0  0  0  0  0  0  0  0  0  0
    8.7843   -0.1123   24.5576 C   0  0  0  0  0  0  0  0  0  0  0  0
    7.8528   -0.1021   25.1240 H   0  0  0  0  0  0  0  0  0  0  0  0
    9.8060    0.7382   24.9211 C   0  0  0  0  0  0  0  0  0  0  0  0
    9.7161    1.4138   25.7694 H   0  0  0  0  0  0  0  0  0  0  0  0
   11.0207    0.7846   24.1704 C   0  0  0  0  0  0  0  0  0  0  0  0
   12.0612    1.7229   24.4422 C   0  0  0  0  0  0  0  0  0  0  0  0
   11.9276    2.4134   25.2700 H   0  0  0  0  0  0  0  0  0  0  0  0
   13.1828    1.7683   23.6508 C   0  0  0  0  0  0  0  0  0  0  0  0
   13.9430    2.5136   23.8362 H   0  0  0  0  0  0  0  0  0  0  0  0
   13.3430    0.8631   22.5641 C   0  0  0  0  0  0  0  0  0  0  0  0
   14.2412    0.9019   21.9546 H   0  0  0  0  0  0  0  0  0  0  0  0
   12.3585   -0.0482   22.2730 C   0  0  0  0  0  0  0  0  0  0  0  0
   12.4487   -0.7167   21.4175 H   0  0  0  0  0  0  0  0  0  0  0  0
   11.1680   -0.1048   23.0583 C   0  0  0  0  0  0  0  0  0  0  0  0
   10.0954   -0.9784   22.7159 C   0  0  0  0  0  0  0  0  0  0  0  0
   10.1942   -1.6017   21.8256 H   0  0  0  0  0  0  0  0  0  0  0  0
  1  2  1  0
  2  3  2  3
  3  4  1  0
  4  5  2  0
  5  6  1  0
  5  7  1  0
  7  8  2  0
  8  9  1  0
  8 10  1  0
 10 11  1  0
 10 12  2  0
 12 13  1  0
  2 14  1  0
 14 15  1  0
 14 16  1  0
 14 17  1  0
 17 18  2  0
 18 19  1  0
 18 20  1  0
 20 21  1  0
 20 22  2  0
 22 23  1  0
 23 24  1  0
 23 25  2  0
 25 26  1  0
 25 27  1  0
 27 28  1  0
 27 29  2  0
 29 30  1  0
 29 31  1  0
 31 32  2  0
 32 33  1  0
 12  4  1  0
 32 17  1  0
 31 22  1  0
M  END
>  <cnnaffinity>  (1) 
-5.0654

>  <filename>  (1) 
C(Cc1ccc2ccccc2c1)=Nc1cccnc1

$$$$
