
     RDKit          3D

 41 43  0  0  0  0  0  0  0  0999 V2000
    6.9578    1.7662   22.1256 H   0  0  0  0  0  0  0  0  0  0  0  0
    7.3446    0.9783   22.7804 C   0  0  0  0  0  0  0  0  0  0  0  0
    7.6184   -0.2398   22.2953 C   0  0  0  0  0  0  0  0  0  0  0  0
    7.3856   -0.7601   20.9280 C   0  0  0  0  0  0  0  0  0  0  0  0
    6.6533    0.0138   19.9042 C   0  0  0  0  0  0  0  0  0  0  0  0
    7.1692    0.0537   18.6056 C   0  0  0  0  0  0  0  0  0  0  0  0
    8.1127   -0.4366   18.3800 H   0  0  0  0  0  0  0  0  0  0  0  0
    6.5716    0.6771   17.5875 N   0  0  0  0  0  0  0  0  0  0  0  0
    5.4065    1.2915   17.8428 C   0  0  0  0  0  0  0  0  0  0  0  0
    4.9229    1.7783   16.9983 H   0  0  0  0  0  0  0  0  0  0  0  0
    4.8011    1.3099   19.1059 C   0  0  0  0  0  0  0  0  0  0  0  0
    3.8682    1.8456   19.2565 H   0  0  0  0  0  0  0  0  0  0  0  0
    5.4373    0.6596   20.1629 C   0  0  0  0  0  0  0  0  0  0  0  0
    4.9943    0.6369   21.1650 H   0  0  0  0  0  0  0  0  0  0  0  0
    7.8557   -1.9300   20.7102 N   0  0  0  0  0  0  0  0  0  0  0  0
    8.4606   -2.4385   21.9425 C   0  0  0  0  0  0  0  0  0  0  0  0
    7.9847   -3.3829   22.2113 H   0  0  0  0  0  0  0  0  0  0  0  0
    9.5112   -2.6465   21.7366 H   0  0  0  0  0  0  0  0  0  0  0  0
    8.2916   -1.3703   23.0467 C   0  0  0  0  0  0  0  0  0  0  0  0
    7.6646   -1.7236   23.8729 H   0  0  0  0  0  0  0  0  0  0  0  0
    9.2516   -1.0557   23.4719 H   0  0  0  0  0  0  0  0  0  0  0  0
    7.7128    1.4096   24.1799 C   0  0  0  0  0  0  0  0  0  0  0  0
    7.0179    2.1896   24.5120 H   0  0  0  0  0  0  0  0  0  0  0  0
    7.6046    0.5641   24.8724 H   0  0  0  0  0  0  0  0  0  0  0  0
    9.1474    1.9574   24.2653 C   0  0  0  0  0  0  0  0  0  0  0  0
    9.4232    2.1103   25.3154 H   0  0  0  0  0  0  0  0  0  0  0  0
    9.8519    1.2083   23.8828 H   0  0  0  0  0  0  0  0  0  0  0  0
    9.3430    3.2688   23.4979 C   0  0  0  0  0  0  0  0  0  0  0  0
    9.0886    3.1219   22.4400 H   0  0  0  0  0  0  0  0  0  0  0  0
    8.6316    4.0118   23.8779 H   0  0  0  0  0  0  0  0  0  0  0  0
   10.7500    3.7971   23.6141 C   0  0  0  0  0  0  0  0  0  0  0  0
   11.1046    4.6568   24.6648 C   0  0  0  0  0  0  0  0  0  0  0  0
   10.3483    4.9472   25.3914 H   0  0  0  0  0  0  0  0  0  0  0  0
   12.4251    5.0900   24.8230 C   0  0  0  0  0  0  0  0  0  0  0  0
   12.6866    5.7340   25.6586 H   0  0  0  0  0  0  0  0  0  0  0  0
   13.4049    4.6778   23.9120 C   0  0  0  0  0  0  0  0  0  0  0  0
   14.4320    5.0061   24.0264 H   0  0  0  0  0  0  0  0  0  0  0  0
   13.0663    3.8112   22.8674 C   0  0  0  0  0  0  0  0  0  0  0  0
   13.8242    3.4830   22.1623 H   0  0  0  0  0  0  0  0  0  0  0  0
   11.7473    3.3719   22.7227 C   0  0  0  0  0  0  0  0  0  0  0  0
   11.4849    2.6981   21.9099 H   0  0  0  0  0  0  0  0  0  0  0  0
  1  2  1  0
  2  3  2  3
  3  4  1  0
  4  5  1  0
  5  6  2  0
  6  7  1  0
  6  8  1  0
  8  9  2  0
  9 10  1  0
  9 11  1  0
 11 12  1  0
 11 13  2  0
 13 14  1  0
  4 15  2  0
 15 16  1  0
 16 17  1  0
 16 18  1  0
 16 19  1  0
 19 20  1  0
 19 21  1  0
  2 22  1  0
 22 23  1  0
 22 24  1  0
 22 25  1  0
 25 26  1  0
 25 27  1  0
 25 28  1  0
 28 29  1  0
 28 30  1  0
 28 31  1  0
 31 32  2  0
 32 33  1  0
 32 34  1  0
 34 35  1  0
 34 36  2  0
 36 37  1  0
 36 38  1  0
 38 39  1  0
 38 40  2  0
 40 41  1  0
 19  3  1  0
 40 31  1  0
 13  5  1  0
M  END
>  <cnnaffinity>  (1) 
-5.6262

>  <filename>  (1) 
C(CCCc1ccccc1)=C1CCN=C1c1cccnc1

$$$$
