
     RDKit          3D

 32 34  0  0  0  0  0  0  0  0999 V2000
    5.3010   -1.9832   20.9992 H   0  0  0  0  0  0  0  0  0  0  0  0
    5.9507   -2.2370   21.8382 C   0  0  0  0  0  0  0  0  0  0  0  0
    7.1559   -1.6571   21.8783 C   0  0  0  0  0  0  0  0  0  0  0  0
    7.6753   -0.6359   20.9281 C   0  0  0  0  0  0  0  0  0  0  0  0
    6.8541    0.0442   19.9057 C   0  0  0  0  0  0  0  0  0  0  0  0
    7.3683    0.0955   18.6054 C   0  0  0  0  0  0  0  0  0  0  0  0
    8.3337   -0.3596   18.3831 H   0  0  0  0  0  0  0  0  0  0  0  0
    6.7247    0.6639   17.5837 N   0  0  0  0  0  0  0  0  0  0  0  0
    5.5390    1.2396   17.8376 C   0  0  0  0  0  0  0  0  0  0  0  0
    5.0452    1.6947   16.9823 H   0  0  0  0  0  0  0  0  0  0  0  0
    4.9485    1.2651   19.1039 C   0  0  0  0  0  0  0  0  0  0  0  0
    3.9937    1.7584   19.2391 H   0  0  0  0  0  0  0  0  0  0  0  0
    5.6158    0.6501   20.1627 C   0  0  0  0  0  0  0  0  0  0  0  0
    5.1926    0.6465   21.1676 H   0  0  0  0  0  0  0  0  0  0  0  0
    8.9265   -0.3947   21.0434 N   0  0  0  0  0  0  0  0  0  0  0  0
    9.4700   -1.1539   22.1745 C   0  0  0  0  0  0  0  0  0  0  0  0
    9.9475   -0.4535   22.8682 H   0  0  0  0  0  0  0  0  0  0  0  0
   10.2551   -1.8137   21.7929 H   0  0  0  0  0  0  0  0  0  0  0  0
    8.3045   -1.9514   22.8272 C   0  0  0  0  0  0  0  0  0  0  0  0
    8.5155   -3.0253   22.8832 H   0  0  0  0  0  0  0  0  0  0  0  0
    8.0934   -1.5817   23.8376 H   0  0  0  0  0  0  0  0  0  0  0  0
    5.3797   -3.2289   22.8408 C   0  0  0  0  0  0  0  0  0  0  0  0
    4.2890   -3.2145   22.7410 H   0  0  0  0  0  0  0  0  0  0  0  0
    5.6221   -2.9334   23.8715 H   0  0  0  0  0  0  0  0  0  0  0  0
    5.7761   -4.6728   22.6686 C   0  0  0  0  0  0  0  0  0  0  0  0
    5.2405   -5.4259   21.6472 N   0  0  0  0  0  0  0  0  0  0  0  0
    5.7156   -6.6312   21.8041 C   0  0  0  0  0  0  0  0  0  0  0  0
    5.4703   -7.4861   21.1871 H   0  0  0  0  0  0  0  0  0  0  0  0
    6.5358   -6.7155   22.8822 N   0  0  0  0  0  0  0  0  0  0  0  0
    7.0325   -7.5420   23.1712 H   0  0  0  0  0  0  0  0  0  0  0  0
    6.5744   -5.4580   23.4568 C   0  0  0  0  0  0  0  0  0  0  0  0
    7.1062   -5.2277   24.3716 H   0  0  0  0  0  0  0  0  0  0  0  0
  1  2  1  0
  2  3  2  3
  3  4  1  0
  4  5  1  0
  5  6  2  0
  6  7  1  0
  6  8  1  0
  8  9  2  0
  9 10  1  0
  9 11  1  0
 11 12  1  0
 11 13  2  0
 13 14  1  0
  4 15  2  0
 15 16  1  0
 16 17  1  0
 16 18  1  0
 16 19  1  0
 19 20  1  0
 19 21  1  0
  2 22  1  0
 22 23  1  0
 22 24  1  0
 22 25  1  0
 25 26  1  0
 26 27  2  0
 27 28  1  0
 27 29  1  0
 29 30  1  0
 29 31  1  0
 31 32  1  0
 19  3  1  0
 31 25  2  0
 13  5  1  0
M  END
>  <cnnaffinity>  (1) 
-5.03421

>  <filename>  (1) 
C(Cc1c[nH]cn1)=C1CCN=C1c1cccnc1

$$$$
