
     RDKit          3D

 32 34  0  0  0  0  0  0  0  0999 V2000
    6.9291    1.7524   22.1240 H   0  0  0  0  0  0  0  0  0  0  0  0
    7.3323    0.9750   22.7811 C   0  0  0  0  0  0  0  0  0  0  0  0
    7.6092   -0.2461   22.3020 C   0  0  0  0  0  0  0  0  0  0  0  0
    7.3757   -0.7600   20.9308 C   0  0  0  0  0  0  0  0  0  0  0  0
    6.6336   -0.0028   19.9003 C   0  0  0  0  0  0  0  0  0  0  0  0
    7.1559    0.0354   18.6002 C   0  0  0  0  0  0  0  0  0  0  0  0
    8.1004   -0.4563   18.3743 H   0  0  0  0  0  0  0  0  0  0  0  0
    6.5680    0.6731   17.5835 N   0  0  0  0  0  0  0  0  0  0  0  0
    5.4066    1.2972   17.8344 C   0  0  0  0  0  0  0  0  0  0  0  0
    4.9506    1.8014   16.9858 H   0  0  0  0  0  0  0  0  0  0  0  0
    4.7945    1.3149   19.0922 C   0  0  0  0  0  0  0  0  0  0  0  0
    3.8607    1.8473   19.2285 H   0  0  0  0  0  0  0  0  0  0  0  0
    5.4197    0.6565   20.1508 C   0  0  0  0  0  0  0  0  0  0  0  0
    4.9805    0.6552   21.1500 H   0  0  0  0  0  0  0  0  0  0  0  0
    7.8677   -1.9202   20.7064 N   0  0  0  0  0  0  0  0  0  0  0  0
    8.4640   -2.4523   21.9367 C   0  0  0  0  0  0  0  0  0  0  0  0
    7.9601   -3.3903   22.1988 H   0  0  0  0  0  0  0  0  0  0  0  0
    9.5128   -2.6951   21.7337 H   0  0  0  0  0  0  0  0  0  0  0  0
    8.3107   -1.3709   23.0464 C   0  0  0  0  0  0  0  0  0  0  0  0
    9.2698   -1.0443   23.4589 H   0  0  0  0  0  0  0  0  0  0  0  0
    7.7106   -1.7150   23.8972 H   0  0  0  0  0  0  0  0  0  0  0  0
    7.6758    1.3989   24.1995 C   0  0  0  0  0  0  0  0  0  0  0  0
    7.1031    2.2995   24.4533 H   0  0  0  0  0  0  0  0  0  0  0  0
    7.3799    0.6226   24.9182 H   0  0  0  0  0  0  0  0  0  0  0  0
    9.1578    1.7108   24.3687 C   0  0  0  0  0  0  0  0  0  0  0  0
   10.1594    0.9546   25.5671 S   0  0  0  0  0  0  0  0  0  0  0  0
   11.5784    1.7365   24.9749 C   0  0  0  0  0  0  0  0  0  0  0  0
   12.5632    1.4745   25.3478 H   0  0  0  0  0  0  0  0  0  0  0  0
   11.2804    2.6028   23.9708 C   0  0  0  0  0  0  0  0  0  0  0  0
   12.0278    3.2350   23.5081 H   0  0  0  0  0  0  0  0  0  0  0  0
    9.8969    2.5732   23.6126 C   0  0  0  0  0  0  0  0  0  0  0  0
    9.4489    3.1206   22.7886 H   0  0  0  0  0  0  0  0  0  0  0  0
  1  2  1  0
  2  3  2  3
  3  4  1  0
  4  5  1  0
  5  6  2  0
  6  7  1  0
  6  8  1  0
  8  9  2  0
  9 10  1  0
  9 11  1  0
 11 12  1  0
 11 13  2  0
 13 14  1  0
  4 15  2  0
 15 16  1  0
 16 17  1  0
 16 18  1  0
 16 19  1  0
 19 20  1  0
 19 21  1  0
  2 22  1  0
 22 23  1  0
 22 24  1  0
 22 25  1  0
 25 26  1  0
 26 27  1  0
 27 28  1  0
 27 29  2  0
 29 30  1  0
 29 31  1  0
 31 32  1  0
 19  3  1  0
 31 25  2  0
 13  5  1  0
M  END
>  <cnnaffinity>  (1) 
-5.27305

>  <filename>  (1) 
C(Cc1cccs1)=C1CCN=C1c1cccnc1

$$$$
