
     RDKit          3D

 41 43  0  0  0  0  0  0  0  0999 V2000
    5.7936   -1.2986   22.1897 H   0  0  0  0  0  0  0  0  0  0  0  0
    6.8548   -1.2266   22.0200 C   0  0  0  0  0  0  0  0  0  0  0  0
    7.4049   -0.6664   20.9462 C   0  0  0  0  0  0  0  0  0  0  0  0
    6.6678    0.0293   19.8833 C   0  0  0  0  0  0  0  0  0  0  0  0
    7.1649    0.0814   18.5710 C   0  0  0  0  0  0  0  0  0  0  0  0
    8.1136   -0.4042   18.3365 H   0  0  0  0  0  0  0  0  0  0  0  0
    6.5526    0.6867   17.5499 N   0  0  0  0  0  0  0  0  0  0  0  0
    5.3890    1.3030   17.8123 C   0  0  0  0  0  0  0  0  0  0  0  0
    4.9182    1.8051   16.9699 H   0  0  0  0  0  0  0  0  0  0  0  0
    4.7986    1.3161   19.0817 C   0  0  0  0  0  0  0  0  0  0  0  0
    3.8662    1.8460   19.2346 H   0  0  0  0  0  0  0  0  0  0  0  0
    5.4354    0.6629   20.1328 C   0  0  0  0  0  0  0  0  0  0  0  0
    5.0092    0.6611   21.1388 H   0  0  0  0  0  0  0  0  0  0  0  0
    8.9033   -0.9055   20.9349 C   0  0  0  0  0  0  0  0  0  0  0  0
    9.4515    0.0208   20.7409 H   0  0  0  0  0  0  0  0  0  0  0  0
    9.1694   -1.5981   20.1264 H   0  0  0  0  0  0  0  0  0  0  0  0
    9.1953   -1.5086   22.3381 C   0  0  0  0  0  0  0  0  0  0  0  0
    9.6855   -0.7659   22.9793 H   0  0  0  0  0  0  0  0  0  0  0  0
    9.8668   -2.3748   22.2847 H   0  0  0  0  0  0  0  0  0  0  0  0
    7.8109   -1.8979   22.9515 C   0  0  2  0  0  0  0  0  0  0  0  0
    7.6897   -1.4815   23.9658 H   0  0  0  0  0  0  0  0  0  0  0  0
    7.5415   -3.4163   23.0396 C   0  0  0  0  0  0  0  0  0  0  0  0
    6.4598   -3.5948   22.9451 H   0  0  0  0  0  0  0  0  0  0  0  0
    8.0005   -3.8896   22.1608 H   0  0  0  0  0  0  0  0  0  0  0  0
    8.0252   -4.1158   24.3205 C   0  0  0  0  0  0  0  0  0  0  0  0
    7.8784   -5.1987   24.1619 H   0  0  0  0  0  0  0  0  0  0  0  0
    7.1681   -3.7298   25.5482 C   0  0  0  0  0  0  0  0  0  0  0  0
    6.1058   -3.9195   25.3364 H   0  0  0  0  0  0  0  0  0  0  0  0
    7.2491   -2.6443   25.7239 H   0  0  0  0  0  0  0  0  0  0  0  0
    7.6067   -4.4942   26.8087 C   0  0  0  0  0  0  0  0  0  0  0  0
    7.0030   -4.1833   27.6712 H   0  0  0  0  0  0  0  0  0  0  0  0
    7.4038   -5.5666   26.6605 H   0  0  0  0  0  0  0  0  0  0  0  0
    9.1068   -4.2927   27.0900 C   0  0  0  0  0  0  0  0  0  0  0  0
    9.2800   -3.2326   27.3291 H   0  0  0  0  0  0  0  0  0  0  0  0
    9.4156   -4.8701   27.9711 H   0  0  0  0  0  0  0  0  0  0  0  0
    9.9706   -4.6657   25.8715 C   0  0  0  0  0  0  0  0  0  0  0  0
   11.0313   -4.4738   26.0763 H   0  0  0  0  0  0  0  0  0  0  0  0
    9.8876   -5.7469   25.6797 H   0  0  0  0  0  0  0  0  0  0  0  0
    9.5255   -3.8989   24.6154 C   0  0  0  0  0  0  0  0  0  0  0  0
   10.1317   -4.2066   23.7514 H   0  0  0  0  0  0  0  0  0  0  0  0
    9.7239   -2.8236   24.7613 H   0  0  0  0  0  0  0  0  0  0  0  0
  1  2  1  0
  2  3  2  0
  3  4  1  0
  4  5  2  0
  5  6  1  0
  5  7  1  0
  7  8  2  0
  8  9  1  0
  8 10  1  0
 10 11  1  0
 10 12  2  0
 12 13  1  0
  3 14  1  0
 14 15  1  0
 14 16  1  0
 14 17  1  0
 17 18  1  0
 17 19  1  0
 17 20  1  0
 20 21  1  1
 20 22  1  0
 22 23  1  0
 22 24  1  0
 22 25  1  0
 25 26  1  0
 25 27  1  0
 27 28  1  0
 27 29  1  0
 27 30  1  0
 30 31  1  0
 30 32  1  0
 30 33  1  0
 33 34  1  0
 33 35  1  0
 33 36  1  0
 36 37  1  0
 36 38  1  0
 36 39  1  0
 39 40  1  0
 39 41  1  0
 20  2  1  0
 39 25  1  0
 12  4  1  0
M  END
>  <cnnaffinity>  (1) 
-5.11602

>  <filename>  (1) 
C1=C(c2cccnc2)CC[C@@H]1CC1CCCCC1

$$$$
