
     RDKit          3D

 35 38  0  0  0  0  0  0  0  0999 V2000
    6.6991    0.4043   22.7636 H   0  0  0  0  0  0  0  0  0  0  0  0
    7.3245   -0.3552   22.2982 C   0  0  0  0  0  0  0  0  0  0  0  0
    7.4304   -0.5952   20.9922 C   0  0  0  0  0  0  0  0  0  0  0  0
    6.6751    0.0500   19.9033 C   0  0  0  0  0  0  0  0  0  0  0  0
    7.1587    0.0671   18.5796 C   0  0  0  0  0  0  0  0  0  0  0  0
    8.1022   -0.4224   18.3401 H   0  0  0  0  0  0  0  0  0  0  0  0
    6.5463    0.6698   17.5546 N   0  0  0  0  0  0  0  0  0  0  0  0
    5.3889    1.3000   17.8121 C   0  0  0  0  0  0  0  0  0  0  0  0
    4.9216    1.8092   16.9705 H   0  0  0  0  0  0  0  0  0  0  0  0
    4.7902    1.3143   19.0778 C   0  0  0  0  0  0  0  0  0  0  0  0
    3.8576    1.8509   19.2283 H   0  0  0  0  0  0  0  0  0  0  0  0
    5.4343    0.6708   20.1337 C   0  0  0  0  0  0  0  0  0  0  0  0
    4.9864    0.6377   21.1269 H   0  0  0  0  0  0  0  0  0  0  0  0
    8.3152   -1.7951   20.7379 C   0  0  0  0  0  0  0  0  0  0  0  0
    7.6749   -2.5173   20.2346 H   0  0  0  0  0  0  0  0  0  0  0  0
    9.1733   -1.5639   20.0962 H   0  0  0  0  0  0  0  0  0  0  0  0
    8.7014   -2.3373   22.1256 C   0  0  0  0  0  0  0  0  0  0  0  0
    8.2382   -3.3209   22.2742 H   0  0  0  0  0  0  0  0  0  0  0  0
    9.7754   -2.4938   22.2624 H   0  0  0  0  0  0  0  0  0  0  0  0
    8.1328   -1.3061   23.1442 C   0  0  2  0  0  0  0  0  0  0  0  0
    8.9514   -0.7436   23.6150 H   0  0  0  0  0  0  0  0  0  0  0  0
    7.3135   -1.9536   24.2436 C   0  0  0  0  0  0  0  0  0  0  0  0
    7.7874   -1.9323   25.5824 C   0  0  0  0  0  0  0  0  0  0  0  0
    8.7344   -1.4392   25.7803 H   0  0  0  0  0  0  0  0  0  0  0  0
    7.0825   -2.5190   26.6193 C   0  0  0  0  0  0  0  0  0  0  0  0
    7.4670   -2.4834   27.6307 H   0  0  0  0  0  0  0  0  0  0  0  0
    5.8607   -3.1538   26.2936 C   0  0  0  0  0  0  0  0  0  0  0  0
    5.3673   -3.2027   24.9679 C   0  0  0  0  0  0  0  0  0  0  0  0
    4.1281   -3.9133   25.0826 C   0  0  0  0  0  0  0  0  0  0  0  0
    3.4098   -4.1790   24.3100 H   0  0  0  0  0  0  0  0  0  0  0  0
    3.8879   -4.2607   26.3310 N   0  0  0  0  0  0  0  0  0  0  0  0
    4.9342   -3.8013   27.0543 N   0  0  0  0  0  0  0  0  0  0  0  0
    4.9645   -3.9595   28.0512 H   0  0  0  0  0  0  0  0  0  0  0  0
    6.1200   -2.5918   23.9321 C   0  0  0  0  0  0  0  0  0  0  0  0
    5.7774   -2.5779   22.8996 H   0  0  0  0  0  0  0  0  0  0  0  0
  1  2  1  0
  2  3  2  0
  3  4  1  0
  4  5  2  0
  5  6  1  0
  5  7  1  0
  7  8  2  0
  8  9  1  0
  8 10  1  0
 10 11  1  0
 10 12  2  0
 12 13  1  0
  3 14  1  0
 14 15  1  0
 14 16  1  0
 14 17  1  0
 17 18  1  0
 17 19  1  0
 17 20  1  0
 20 21  1  1
 20 22  1  0
 22 23  2  0
 23 24  1  0
 23 25  1  0
 25 26  1  0
 25 27  2  0
 27 28  1  0
 28 29  1  0
 29 30  1  0
 29 31  2  0
 31 32  1  0
 32 33  1  0
 28 34  2  0
 34 35  1  0
 20  2  1  0
 34 22  1  0
 12  4  1  0
 32 27  1  0
M  END
>  <cnnaffinity>  (1) 
-4.90219

>  <filename>  (1) 
C1=C(c2cccnc2)CC[C@@H]1c1ccc2[nH]ncc2c1

$$$$
