
     RDKit          3D

 36 39  0  0  0  0  0  0  0  0999 V2000
    7.0774    0.7297   22.6114 H   0  0  0  0  0  0  0  0  0  0  0  0
    7.4792   -0.1847   22.1860 C   0  0  0  0  0  0  0  0  0  0  0  0
    7.4418   -0.5033   20.8900 C   0  0  0  0  0  0  0  0  0  0  0  0
    6.6924    0.1659   19.8118 C   0  0  0  0  0  0  0  0  0  0  0  0
    7.1686    0.1620   18.4838 C   0  0  0  0  0  0  0  0  0  0  0  0
    8.1103   -0.3319   18.2467 H   0  0  0  0  0  0  0  0  0  0  0  0
    6.5444    0.7357   17.4492 N   0  0  0  0  0  0  0  0  0  0  0  0
    5.3724    1.3375   17.7053 C   0  0  0  0  0  0  0  0  0  0  0  0
    4.8853    1.8043   16.8538 H   0  0  0  0  0  0  0  0  0  0  0  0
    4.7887    1.3867   18.9772 C   0  0  0  0  0  0  0  0  0  0  0  0
    3.8342    1.8819   19.1144 H   0  0  0  0  0  0  0  0  0  0  0  0
    5.4634    0.8051   20.0517 C   0  0  0  0  0  0  0  0  0  0  0  0
    5.0463    0.8098   21.0611 H   0  0  0  0  0  0  0  0  0  0  0  0
    8.2045   -1.7806   20.6318 C   0  0  0  0  0  0  0  0  0  0  0  0
    8.9814   -1.6382   19.8710 H   0  0  0  0  0  0  0  0  0  0  0  0
    7.4771   -2.5166   20.2716 H   0  0  0  0  0  0  0  0  0  0  0  0
    8.8000   -2.1914   21.9963 C   0  0  0  0  0  0  0  0  0  0  0  0
    8.6128   -3.2473   22.2272 H   0  0  0  0  0  0  0  0  0  0  0  0
    9.8880   -2.0547   21.9898 H   0  0  0  0  0  0  0  0  0  0  0  0
    8.1337   -1.2485   23.0523 C   0  0  2  0  0  0  0  0  0  0  0  0
    8.9074   -0.7721   23.6673 H   0  0  0  0  0  0  0  0  0  0  0  0
    7.1674   -1.9793   23.9897 C   0  0  0  0  0  0  0  0  0  0  0  0
    6.0033   -2.5920   23.4526 C   0  0  0  0  0  0  0  0  0  0  0  0
    5.8188   -2.4729   22.3867 H   0  0  0  0  0  0  0  0  0  0  0  0
    5.0831   -3.2584   24.2539 C   0  0  0  0  0  0  0  0  0  0  0  0
    4.1786   -3.6894   23.8413 H   0  0  0  0  0  0  0  0  0  0  0  0
    5.3223   -3.3545   25.6394 C   0  0  0  0  0  0  0  0  0  0  0  0
    4.6317   -3.9396   26.7624 C   0  0  0  0  0  0  0  0  0  0  0  0
    3.6875   -4.4612   26.7512 H   0  0  0  0  0  0  0  0  0  0  0  0
    5.3912   -3.7142   27.8729 C   0  0  0  0  0  0  0  0  0  0  0  0
    5.2289   -4.0022   28.9070 H   0  0  0  0  0  0  0  0  0  0  0  0
    6.5185   -3.0084   27.4986 N   0  0  0  0  0  0  0  0  0  0  0  0
    7.2751   -2.7163   28.0853 H   0  0  0  0  0  0  0  0  0  0  0  0
    6.5013   -2.7724   26.1564 C   0  0  0  0  0  0  0  0  0  0  0  0
    7.4284   -2.0825   25.3557 C   0  0  0  0  0  0  0  0  0  0  0  0
    8.3170   -1.6426   25.7955 H   0  0  0  0  0  0  0  0  0  0  0  0
  1  2  1  0
  2  3  2  0
  3  4  1  0
  4  5  2  0
  5  6  1  0
  5  7  1  0
  7  8  2  0
  8  9  1  0
  8 10  1  0
 10 11  1  0
 10 12  2  0
 12 13  1  0
  3 14  1  0
 14 15  1  0
 14 16  1  0
 14 17  1  0
 17 18  1  0
 17 19  1  0
 17 20  1  0
 20 21  1  1
 20 22  1  0
 22 23  2  0
 23 24  1  0
 23 25  1  0
 25 26  1  0
 25 27  2  0
 27 28  1  0
 28 29  1  0
 28 30  2  0
 30 31  1  0
 30 32  1  0
 32 33  1  0
 32 34  1  0
 34 35  2  0
 35 36  1  0
 20  2  1  0
 35 22  1  0
 12  4  1  0
 34 27  1  0
M  END
>  <cnnaffinity>  (1) 
-4.95222

>  <filename>  (1) 
C1=C(c2cccnc2)CC[C@@H]1c1ccc2cc[nH]c2c1

$$$$
