
     RDKit          3D

 33 35  0  0  0  0  0  0  0  0999 V2000
   12.8238    0.4068   23.8345 C   0  0  0  0  0  0  0  0  0  0  0  0
   12.7775    0.1053   22.5345 C   0  0  0  0  0  0  0  0  0  0  0  0
   11.7023   -0.7454   21.9245 C   0  0  0  0  0  0  0  0  0  0  0  0
   11.0838   -1.6722   23.0046 N   0  0  0  0  0  4  0  0  0  0  0  0
    9.9944   -2.5592   22.4140 C   0  0  0  0  0  0  0  0  0  0  0  0
    8.7684   -1.8263   21.9143 C   0  0  0  0  0  0  0  0  0  0  0  0
    8.4590   -1.3978   20.7271 N   0  0  0  0  0  0  0  0  0  0  0  0
    7.2755   -0.7215   20.9789 C   0  0  0  0  0  0  0  0  0  0  0  0
    6.5683    0.0059   19.9307 C   0  0  0  0  0  0  0  0  0  0  0  0
    5.3606    0.6902   20.1428 C   0  0  0  0  0  0  0  0  0  0  0  0
    4.7879    1.3380   19.0533 C   0  0  0  0  0  0  0  0  0  0  0  0
    5.4362    1.2965   17.8143 C   0  0  0  0  0  0  0  0  0  0  0  0
    6.5969    0.6547   17.6103 N   0  0  0  0  0  0  0  0  0  0  0  0
    7.1465    0.0300   18.6537 C   0  0  0  0  0  0  0  0  0  0  0  0
    8.0975   -0.4707   18.4754 H   0  0  0  0  0  0  0  0  0  0  0  0
    5.0064    1.8002   16.9508 H   0  0  0  0  0  0  0  0  0  0  0  0
    3.8554    1.8792   19.1514 H   0  0  0  0  0  0  0  0  0  0  0  0
    4.8994    0.7251   21.1331 H   0  0  0  0  0  0  0  0  0  0  0  0
    6.8833   -0.7711   22.2230 N   0  0  0  0  0  0  0  0  0  0  0  0
    7.8667   -1.5137   22.8430 O   0  0  0  0  0  0  0  0  0  0  0  0
    9.6595   -3.3002   23.1443 H   0  0  0  0  0  0  0  0  0  0  0  0
   10.3982   -3.0798   21.5487 H   0  0  0  0  0  0  0  0  0  0  0  0
   10.6235   -0.8296   24.2206 C   0  0  0  0  0  0  0  0  0  0  0  0
   11.7902   -0.0500   24.8321 C   0  0  0  0  0  0  0  0  0  0  0  0
   12.2923   -0.6597   25.5889 H   0  0  0  0  0  0  0  0  0  0  0  0
   11.3734    0.8162   25.3631 H   0  0  0  0  0  0  0  0  0  0  0  0
   10.1599   -1.4931   24.9570 H   0  0  0  0  0  0  0  0  0  0  0  0
    9.8585   -0.1442   23.8627 H   0  0  0  0  0  0  0  0  0  0  0  0
   11.8833   -2.2687   23.3329 H   0  0  0  0  0  0  0  0  0  0  0  0
   10.8718   -0.1681   21.4958 H   0  0  0  0  0  0  0  0  0  0  0  0
   12.1254   -1.3629   21.1252 H   0  0  0  0  0  0  0  0  0  0  0  0
   13.5486    0.4724   21.8613 H   0  0  0  0  0  0  0  0  0  0  0  0
   13.6640    0.9806   24.2319 H   0  0  0  0  0  0  0  0  0  0  0  0
  1  2  2  0
  2  3  1  0
  3  4  1  0
  4  5  1  0
  5  6  1  0
  6  7  2  0
  7  8  1  0
  8  9  1  0
  9 10  2  0
 10 11  1  0
 11 12  2  0
 12 13  1  0
 13 14  2  0
 14 15  1  0
 12 16  1  0
 11 17  1  0
 10 18  1  0
  8 19  2  0
 19 20  1  0
  5 21  1  0
  5 22  1  0
  4 23  1  0
 23 24  1  0
 24 25  1  0
 24 26  1  0
 23 27  1  0
 23 28  1  0
  4 29  1  0
  3 30  1  0
  3 31  1  0
  2 32  1  0
  1 33  1  0
 24  1  1  0
 20  6  1  0
 14  9  1  0
M  CHG  1   4   1
M  END
>  <cnnaffinity>  (1) 
-5.17567

>  <filename>  (1) 
C1=CC[NH+](Cc2nc(-c3cccnc3)no2)CC1

$$$$
