
     RDKit          3D

 46 49  0  0  0  0  0  0  0  0999 V2000
   14.6648    4.3698   23.2176 H   0  0  0  0  0  0  0  0  0  0  0  0
   13.6399    4.3482   23.5886 C   0  0  0  0  0  0  0  0  0  0  0  0
   12.8943    3.3279   23.1580 N   0  0  0  0  0  0  0  0  0  0  0  0
   11.6354    3.2426   23.6059 C   0  0  0  0  0  0  0  0  0  0  0  0
   10.9174    2.1113   23.2515 N   0  0  0  0  0  0  0  0  0  0  0  0
   11.0665    1.4902   21.9190 C   0  0  0  0  0  0  0  0  0  0  0  0
   10.4336    1.9838   21.1612 H   0  0  0  0  0  0  0  0  0  0  0  0
   12.1044    1.5936   21.5958 H   0  0  0  0  0  0  0  0  0  0  0  0
   10.6658   -0.0007   21.9584 C   0  0  0  0  0  0  0  0  0  0  0  0
   10.6886   -0.4219   20.9486 H   0  0  0  0  0  0  0  0  0  0  0  0
   11.3784   -0.5594   22.5782 H   0  0  0  0  0  0  0  0  0  0  0  0
    9.3150   -0.2442   22.5227 N   0  0  0  0  0  0  0  0  0  0  0  0
    8.3408    0.3515   21.6383 N   0  0  0  0  0  0  0  0  0  0  0  0
    7.8337    1.1073   22.1080 H   0  0  0  0  0  0  0  0  0  0  0  0
    7.3324   -0.5527   21.0833 C   0  0  0  0  0  0  0  0  0  0  0  0
    6.6069    0.2195   20.0061 C   0  0  0  0  0  0  0  0  0  0  0  0
    7.2028    0.3047   18.7322 C   0  0  0  0  0  0  0  0  0  0  0  0
    8.1794   -0.1461   18.5583 H   0  0  0  0  0  0  0  0  0  0  0  0
    6.6328    0.8567   17.6573 N   0  0  0  0  0  0  0  0  0  0  0  0
    5.4232    1.4108   17.8247 C   0  0  0  0  0  0  0  0  0  0  0  0
    4.9710    1.8516   16.9397 H   0  0  0  0  0  0  0  0  0  0  0  0
    4.7516    1.4284   19.0547 C   0  0  0  0  0  0  0  0  0  0  0  0
    3.7837    1.9076   19.1262 H   0  0  0  0  0  0  0  0  0  0  0  0
    5.3553    0.8328   20.1640 C   0  0  0  0  0  0  0  0  0  0  0  0
    4.8569    0.8349   21.1352 H   0  0  0  0  0  0  0  0  0  0  0  0
    6.4812   -1.3343   22.1298 C   0  0  0  0  0  0  0  0  0  0  0  0
    6.4271   -0.9180   23.1408 H   0  0  0  0  0  0  0  0  0  0  0  0
    5.4872   -1.4806   21.7059 H   0  0  0  0  0  0  0  0  0  0  0  0
    7.3318   -2.6026   21.9067 C   0  0  0  0  0  0  0  0  0  0  0  0
    6.7852   -3.5389   21.7623 H   0  0  0  0  0  0  0  0  0  0  0  0
    8.1054   -2.7434   22.6623 H   0  0  0  0  0  0  0  0  0  0  0  0
    7.8655   -1.9365   20.6277 C   0  0  0  0  0  0  0  0  0  0  0  0
    8.9330   -2.0043   20.3849 H   0  0  0  0  0  0  0  0  0  0  0  0
    7.2363   -2.2223   19.7843 H   0  0  0  0  0  0  0  0  0  0  0  0
    9.2706    0.3381   23.8788 C   0  0  0  0  0  0  0  0  0  0  0  0
    9.9663   -0.2481   24.4865 H   0  0  0  0  0  0  0  0  0  0  0  0
    8.2729    0.2269   24.3203 H   0  0  0  0  0  0  0  0  0  0  0  0
    9.6668    1.8189   23.9584 C   0  0  0  0  0  0  0  0  0  0  0  0
    8.8332    2.4395   23.5886 H   0  0  0  0  0  0  0  0  0  0  0  0
    9.8074    2.0585   25.0154 H   0  0  0  0  0  0  0  0  0  0  0  0
   11.0755    4.2270   24.4602 C   0  0  0  0  0  0  0  0  0  0  0  0
   10.0566    4.1251   24.7916 H   0  0  0  0  0  0  0  0  0  0  0  0
   11.8666    5.2663   24.9164 C   0  0  0  0  0  0  0  0  0  0  0  0
   11.4705    6.0188   25.6019 H   0  0  0  0  0  0  0  0  0  0  0  0
   13.1851    5.3253   24.4760 C   0  0  0  0  0  0  0  0  0  0  0  0
   13.8157    6.1119   24.8434 H   0  0  0  0  0  0  0  0  0  0  0  0
  1  2  1  0
  2  3  2  0
  3  4  1  0
  4  5  1  0
  5  6  1  0
  6  7  1  0
  6  8  1  0
  6  9  1  0
  9 10  1  0
  9 11  1  0
  9 12  1  0
 12 13  1  0
 13 14  1  0
 13 15  1  0
 15 16  1  0
 16 17  2  0
 17 18  1  0
 17 19  1  0
 19 20  2  0
 20 21  1  0
 20 22  1  0
 22 23  1  0
 22 24  2  0
 24 25  1  0
 15 26  1  0
 26 27  1  0
 26 28  1  0
 26 29  1  0
 29 30  1  0
 29 31  1  0
 29 32  1  0
 32 33  1  0
 32 34  1  0
 12 35  1  0
 35 36  1  0
 35 37  1  0
 35 38  1  0
 38 39  1  0
 38 40  1  0
  4 41  2  0
 41 42  1  0
 41 43  1  0
 43 44  1  0
 43 45  2  0
 45 46  1  0
 45  2  1  0
 38  5  1  0
 32 15  1  0
 24 16  1  0
M  END
>  <cnnaffinity>  (1) 
-5.71251

>  <filename>  (1) 
c1ccc(N2CCN(NC3(c4cccnc4)CCC3)CC2)nc1

$$$$
