
     RDKit          3D

 37 39  0  0  0  0  0  0  0  0999 V2000
    4.9321    1.8009   16.9794 H   0  0  0  0  0  0  0  0  0  0  0  0
    5.4236    1.2975   17.8093 C   0  0  0  0  0  0  0  0  0  0  0  0
    6.5842    0.6834   17.5258 N   0  0  0  0  0  0  0  0  0  0  0  0
    7.2111    0.0598   18.5318 C   0  0  0  0  0  0  0  0  0  0  0  0
    8.1462   -0.4345   18.2765 H   0  0  0  0  0  0  0  0  0  0  0  0
    6.7286    0.0026   19.8566 C   0  0  0  0  0  0  0  0  0  0  0  0
    7.4499   -0.7092   20.9327 C   0  0  0  0  0  0  0  0  0  0  0  0
    9.1458   -1.0711   20.8787 S   0  0  0  0  0  0  0  0  0  0  0  0
    9.0896   -1.8176   22.4341 C   0  0  0  0  0  0  0  0  0  0  0  0
    9.9960   -2.1917   22.8864 H   0  0  0  0  0  0  0  0  0  0  0  0
    7.8373   -1.8154   22.9747 C   0  0  0  0  0  0  0  0  0  0  0  0
    7.3982   -2.3775   24.3057 C   0  0  0  0  0  0  0  0  0  0  0  0
    6.9512   -1.5715   24.9019 H   0  0  0  0  0  0  0  0  0  0  0  0
    8.2706   -2.7182   24.8772 H   0  0  0  0  0  0  0  0  0  0  0  0
    6.3792   -3.5309   24.1818 C   0  0  0  0  0  0  0  0  0  0  0  0
    5.4899   -3.1836   23.6385 H   0  0  0  0  0  0  0  0  0  0  0  0
    6.0380   -3.8114   25.1863 H   0  0  0  0  0  0  0  0  0  0  0  0
    6.9602   -4.7792   23.4873 C   0  0  0  0  0  0  0  0  0  0  0  0
    7.3212   -4.4995   22.4895 H   0  0  0  0  0  0  0  0  0  0  0  0
    6.1749   -5.5306   23.3360 H   0  0  0  0  0  0  0  0  0  0  0  0
    8.0931   -5.3612   24.2998 C   0  0  0  0  0  0  0  0  0  0  0  0
    9.4215   -4.9895   24.0412 C   0  0  0  0  0  0  0  0  0  0  0  0
    9.6390   -4.3404   23.1973 H   0  0  0  0  0  0  0  0  0  0  0  0
   10.4606   -5.4094   24.8752 C   0  0  0  0  0  0  0  0  0  0  0  0
   11.4810   -5.0909   24.6663 H   0  0  0  0  0  0  0  0  0  0  0  0
   10.1808   -6.2392   25.9628 C   0  0  0  0  0  0  0  0  0  0  0  0
   10.9984   -6.6113   26.5712 H   0  0  0  0  0  0  0  0  0  0  0  0
    8.8583   -6.5666   26.2731 C   0  0  0  0  0  0  0  0  0  0  0  0
    8.6260   -7.0750   27.2071 H   0  0  0  0  0  0  0  0  0  0  0  0
    7.8243   -6.1280   25.4459 C   0  0  0  0  0  0  0  0  0  0  0  0
    6.7932   -6.3631   25.7089 H   0  0  0  0  0  0  0  0  0  0  0  0
    6.9157   -1.1774   22.0943 C   0  0  0  0  0  0  0  0  0  0  0  0
    5.8729   -1.0771   22.3373 H   0  0  0  0  0  0  0  0  0  0  0  0
    5.5075    0.6459   20.1219 C   0  0  0  0  0  0  0  0  0  0  0  0
    5.0898    0.6489   21.1296 H   0  0  0  0  0  0  0  0  0  0  0  0
    4.8467    1.3019   19.0827 C   0  0  0  0  0  0  0  0  0  0  0  0
    3.9076    1.8158   19.2470 H   0  0  0  0  0  0  0  0  0  0  0  0
  1  2  1  0
  2  3  2  0
  3  4  1  0
  4  5  1  0
  4  6  2  0
  6  7  1  0
  7  8  1  0
  8  9  1  0
  9 10  1  0
  9 11  2  0
 11 12  1  0
 12 13  1  0
 12 14  1  0
 12 15  1  0
 15 16  1  0
 15 17  1  0
 15 18  1  0
 18 19  1  0
 18 20  1  0
 18 21  1  0
 21 22  2  0
 22 23  1  0
 22 24  1  0
 24 25  1  0
 24 26  2  0
 26 27  1  0
 26 28  1  0
 28 29  1  0
 28 30  2  0
 30 31  1  0
 11 32  1  0
 32 33  1  0
  6 34  1  0
 34 35  1  0
 34 36  2  0
 36 37  1  0
 36  2  1  0
 32  7  2  0
 30 21  1  0
M  END
>  <cnnaffinity>  (1) 
-5.62507

>  <filename>  (1) 
c1ccc(CCCc2csc(-c3cccnc3)c2)cc1

$$$$
