
     RDKit          3D

 37 39  0  0  0  0  0  0  0  0999 V2000
    5.1684    1.7910   16.4381 H   0  0  0  0  0  0  0  0  0  0  0  0
    5.5386    1.2935   17.3331 C   0  0  0  0  0  0  0  0  0  0  0  0
    6.7593    0.7417   17.2478 N   0  0  0  0  0  0  0  0  0  0  0  0
    7.2428    0.1237   18.3335 C   0  0  0  0  0  0  0  0  0  0  0  0
    8.2397   -0.3028   18.2178 H   0  0  0  0  0  0  0  0  0  0  0  0
    6.5490    0.0214   19.5531 C   0  0  0  0  0  0  0  0  0  0  0  0
    7.1015   -0.6620   20.7372 C   0  0  0  0  0  0  0  0  0  0  0  0
    7.1434   -0.2638   22.0639 C   0  0  0  0  0  0  0  0  0  0  0  0
    6.9652    1.1473   22.5621 C   0  0  0  0  0  0  0  0  0  0  0  0
    7.0659    1.1691   23.6521 H   0  0  0  0  0  0  0  0  0  0  0  0
    5.9299    1.4627   22.3845 H   0  0  0  0  0  0  0  0  0  0  0  0
    7.8805    2.1442   21.8273 C   0  0  0  0  0  0  0  0  0  0  0  0
    7.5866    3.1659   22.1019 H   0  0  0  0  0  0  0  0  0  0  0  0
    7.6223    2.0556   20.7606 H   0  0  0  0  0  0  0  0  0  0  0  0
    9.4225    1.9091   21.9211 C   0  0  0  0  0  0  0  0  0  0  0  0
    9.8907    2.5765   21.1780 H   0  0  0  0  0  0  0  0  0  0  0  0
    9.6067    0.8876   21.5735 H   0  0  0  0  0  0  0  0  0  0  0  0
   10.1786    1.9873   23.2278 C   0  0  0  0  0  0  0  0  0  0  0  0
   10.4316    3.3035   24.1588 C   0  0  0  0  0  0  0  0  0  0  0  0
   10.3473    4.1897   23.3409 H   0  0  0  0  0  0  0  0  0  0  0  0
   10.6852    3.1294   23.8146 C   0  0  0  0  0  0  0  0  0  0  0  0
    9.9978    3.3231   25.1726 H   0  0  0  0  0  0  0  0  0  0  0  0
   11.9884    0.8518   24.7233 C   0  0  0  0  0  0  0  0  0  0  0  0
   12.0256    0.0051   25.8172 H   0  0  0  0  0  0  0  0  0  0  0  0
   11.8728    1.1463   24.5061 C   0  0  0  0  0  0  0  0  0  0  0  0
   13.0300    1.2911   24.3520 H   0  0  0  0  0  0  0  0  0  0  0  0
   10.9308    0.7225   23.6496 C   0  0  0  0  0  0  0  0  0  0  0  0
   10.5341   -0.2105   23.2521 H   0  0  0  0  0  0  0  0  0  0  0  0
    7.5798   -1.4195   22.7520 C   0  0  0  0  0  0  0  0  0  0  0  0
    7.6931   -1.5579   23.8211 H   0  0  0  0  0  0  0  0  0  0  0  0
    7.8526   -2.4311   21.9288 N   0  0  0  0  0  0  0  0  0  0  0  0
    7.5709   -1.9309   20.7130 N   0  0  0  0  0  0  0  0  0  0  0  0
    7.6734   -2.4992   19.8847 H   0  0  0  0  0  0  0  0  0  0  0  0
    5.2742    0.6035   19.6170 C   0  0  0  0  0  0  0  0  0  0  0  0
    4.7066    0.5343   20.5447 H   0  0  0  0  0  0  0  0  0  0  0  0
    4.7567    1.2427   18.4913 C   0  0  0  0  0  0  0  0  0  0  0  0
    3.7797    1.7097   18.5068 H   0  0  0  0  0  0  0  0  0  0  0  0
  1  2  1  0
  2  3  2  0
  3  4  1  0
  4  5  1  0
  4  6  2  0
  6  7  1  0
  7  8  2  0
  8  9  1  0
  9 10  1  0
  9 11  1  0
  9 12  1  0
 12 13  1  0
 12 14  1  0
 12 15  1  0
 15 16  1  0
 15 17  1  0
 15 18  1  0
 18 19  2  0
 19 20  1  0
 19 21  1  0
 21 22  1  0
 21 23  2  0
 23 24  1  0
 23 25  1  0
 25 26  1  0
 25 27  2  0
 27 28  1  0
  8 29  1  0
 29 30  1  0
 29 31  2  0
 31 32  1  0
 32 33  1  0
  6 34  1  0
 34 35  1  0
 34 36  2  0
 36 37  1  0
 36  2  1  0
 32  7  1  0
 27 18  1  0
M  END
>  <cnnaffinity>  (1) 
-5.48431

>  <filename>  (1) 
c1ccc(CCCc2cn[nH]c2-c2cccnc2)cc1

$$$$
