
     RDKit          3D

 44 47  0  0  0  0  0  0  0  0999 V2000
    4.9250    1.8176   16.9887 H   0  0  0  0  0  0  0  0  0  0  0  0
    5.3945    1.3021   17.8244 C   0  0  0  0  0  0  0  0  0  0  0  0
    6.5570    0.6840   17.5561 N   0  0  0  0  0  0  0  0  0  0  0  0
    7.1644    0.0512   18.5716 C   0  0  0  0  0  0  0  0  0  0  0  0
    8.1152   -0.4317   18.3507 H   0  0  0  0  0  0  0  0  0  0  0  0
    6.6537   -0.0268   19.8916 C   0  0  0  0  0  0  0  0  0  0  0  0
    7.2938   -0.7532   20.9121 N   0  0  0  0  0  0  0  0  0  0  0  0
    6.7262   -0.9863   21.7180 H   0  0  0  0  0  0  0  0  0  0  0  0
    8.6898   -0.7703   21.1522 C   0  0  0  0  0  0  0  0  0  0  0  0
    9.6913    0.1356   20.7098 C   0  0  0  0  0  0  0  0  0  0  0  0
    9.5783    1.0032   20.0693 H   0  0  0  0  0  0  0  0  0  0  0  0
   10.9011   -0.1967   21.1482 N   0  0  0  0  0  0  0  0  0  0  0  0
   10.6908   -1.3108   21.8748 N   0  0  0  0  0  0  0  0  0  0  0  0
   11.4623   -1.8127   22.2866 H   0  0  0  0  0  0  0  0  0  0  0  0
    9.3892   -1.7164   21.9017 C   0  0  0  0  0  0  0  0  0  0  0  0
    9.0385   -2.9167   22.5034 N   0  0  0  0  0  0  0  0  0  0  0  0
    7.9895   -3.7683   21.9308 C   0  0  0  0  0  0  0  0  0  0  0  0
    7.6178   -3.2985   21.0189 H   0  0  0  0  0  0  0  0  0  0  0  0
    8.4245   -4.7437   21.6616 H   0  0  0  0  0  0  0  0  0  0  0  0
    6.8199   -4.0357   22.9029 C   0  0  0  0  0  0  0  0  0  0  0  0
    6.1946   -4.8344   22.4707 H   0  0  0  0  0  0  0  0  0  0  0  0
    6.1706   -3.1489   22.9922 H   0  0  0  0  0  0  0  0  0  0  0  0
    7.2957   -4.4555   24.2223 N   0  0  0  0  0  0  0  0  0  0  0  0
    6.4085   -5.0496   25.1253 C   0  0  0  0  0  0  0  0  0  0  0  0
    6.8042   -6.1469   25.9141 C   0  0  0  0  0  0  0  0  0  0  0  0
    7.8158   -6.5201   25.7894 H   0  0  0  0  0  0  0  0  0  0  0  0
    5.9058   -6.7374   26.8087 C   0  0  0  0  0  0  0  0  0  0  0  0
    6.2077   -7.5807   27.4247 H   0  0  0  0  0  0  0  0  0  0  0  0
    4.6086   -6.2347   26.9448 C   0  0  0  0  0  0  0  0  0  0  0  0
    3.9261   -6.7009   27.6507 H   0  0  0  0  0  0  0  0  0  0  0  0
    4.2075   -5.1344   26.1780 C   0  0  0  0  0  0  0  0  0  0  0  0
    3.2047   -4.7248   26.2921 H   0  0  0  0  0  0  0  0  0  0  0  0
    5.0978   -4.5534   25.2699 C   0  0  0  0  0  0  0  0  0  0  0  0
    4.8118   -3.6948   24.6720 H   0  0  0  0  0  0  0  0  0  0  0  0
    8.7322   -4.3862   24.4890 C   0  0  0  0  0  0  0  0  0  0  0  0
    9.2673   -5.2476   24.0484 H   0  0  0  0  0  0  0  0  0  0  0  0
    8.8904   -4.4040   25.5737 H   0  0  0  0  0  0  0  0  0  0  0  0
    9.3764   -3.1084   23.9174 C   0  0  0  0  0  0  0  0  0  0  0  0
   10.4676   -3.2020   24.0267 H   0  0  0  0  0  0  0  0  0  0  0  0
    9.0619   -2.2215   24.4880 H   0  0  0  0  0  0  0  0  0  0  0  0
    5.4395    0.6258   20.1445 C   0  0  0  0  0  0  0  0  0  0  0  0
    5.0259    0.6155   21.1528 H   0  0  0  0  0  0  0  0  0  0  0  0
    4.8040    1.3025   19.0959 C   0  0  0  0  0  0  0  0  0  0  0  0
    3.8724    1.8402   19.2544 H   0  0  0  0  0  0  0  0  0  0  0  0
  1  2  1  0
  2  3  2  0
  3  4  1  0
  4  5  1  0
  4  6  2  0
  6  7  1  0
  7  8  1  0
  7  9  1  0
  9 10  1  0
 10 11  1  0
 10 12  2  0
 12 13  1  0
 13 14  1  0
 13 15  1  0
 15 16  1  0
 16 17  1  0
 17 18  1  0
 17 19  1  0
 17 20  1  0
 20 21  1  0
 20 22  1  0
 20 23  1  0
 23 24  1  0
 24 25  2  0
 25 26  1  0
 25 27  1  0
 27 28  1  0
 27 29  2  0
 29 30  1  0
 29 31  1  0
 31 32  1  0
 31 33  2  0
 33 34  1  0
 23 35  1  0
 35 36  1  0
 35 37  1  0
 35 38  1  0
 38 39  1  0
 38 40  1  0
  6 41  1  0
 41 42  1  0
 41 43  2  0
 43 44  1  0
 43  2  1  0
 15  9  2  0
 38 16  1  0
 33 24  1  0
M  END
>  <cnnaffinity>  (1) 
-5.80879

>  <filename>  (1) 
c1ccc(N2CCN(c3[nH]ncc3Nc3cccnc3)CC2)cc1

$$$$
