
     RDKit          3D

 47 50  0  0  0  0  0  0  0  0999 V2000
    4.8794    1.8198   16.9191 H   0  0  0  0  0  0  0  0  0  0  0  0
    5.3849    1.2893   17.7210 C   0  0  0  0  0  0  0  0  0  0  0  0
    6.5211    0.6554   17.3925 N   0  0  0  0  0  0  0  0  0  0  0  0
    7.1824    0.0227   18.3749 C   0  0  0  0  0  0  0  0  0  0  0  0
    8.0864   -0.5110   18.0789 H   0  0  0  0  0  0  0  0  0  0  0  0
    6.7716   -0.0049   19.7363 C   0  0  0  0  0  0  0  0  0  0  0  0
    7.5033   -0.6747   20.7524 N   0  0  0  0  0  0  0  0  0  0  0  0
    6.9506   -1.3056   21.3104 H   0  0  0  0  0  0  0  0  0  0  0  0
    8.3642   -0.0134   21.7237 C   0  0  0  0  0  0  0  0  0  0  0  0
    8.7441   -1.0271   22.6704 N   0  0  0  0  0  0  0  0  0  0  0  0
    9.6079   -2.1189   22.2091 C   0  0  0  0  0  0  0  0  0  0  0  0
    9.0498   -2.8822   21.6390 H   0  0  0  0  0  0  0  0  0  0  0  0
   10.3969   -1.7453   21.5484 H   0  0  0  0  0  0  0  0  0  0  0  0
   10.2636   -2.7733   23.4372 C   0  0  0  0  0  0  0  0  0  0  0  0
   10.9122   -2.0222   23.9037 H   0  0  0  0  0  0  0  0  0  0  0  0
   10.8756   -3.6257   23.1304 H   0  0  0  0  0  0  0  0  0  0  0  0
    9.2548   -3.1940   24.3944 N   0  0  0  0  0  0  0  0  0  0  0  0
    9.2319   -4.4623   24.9462 C   0  0  0  0  0  0  0  0  0  0  0  0
   10.4342   -5.1001   25.2871 C   0  0  0  0  0  0  0  0  0  0  0  0
   11.3795   -4.6264   25.0479 H   0  0  0  0  0  0  0  0  0  0  0  0
   10.3839   -6.3286   25.9263 C   0  0  0  0  0  0  0  0  0  0  0  0
   11.2682   -6.8492   26.2625 H   0  0  0  0  0  0  0  0  0  0  0  0
    9.1683   -6.9558   26.1478 C   0  0  0  0  0  0  0  0  0  0  0  0
    9.2474   -7.9336   26.5845 H   0  0  0  0  0  0  0  0  0  0  0  0
    7.9660   -6.3550   25.7846 C   0  0  0  0  0  0  0  0  0  0  0  0
    7.0254   -6.8574   25.9914 H   0  0  0  0  0  0  0  0  0  0  0  0
    7.9977   -5.1076   25.1613 C   0  0  0  0  0  0  0  0  0  0  0  0
    7.0870   -4.6392   24.8047 H   0  0  0  0  0  0  0  0  0  0  0  0
    8.3698   -2.1208   24.8244 C   0  0  0  0  0  0  0  0  0  0  0  0
    8.9539   -1.3325   25.3330 H   0  0  0  0  0  0  0  0  0  0  0  0
    7.6169   -2.4867   25.5352 H   0  0  0  0  0  0  0  0  0  0  0  0
    7.7018   -1.5140   23.5853 C   0  0  0  0  0  0  0  0  0  0  0  0
    7.0709   -2.2938   23.1180 H   0  0  0  0  0  0  0  0  0  0  0  0
    7.0319   -0.7026   23.8849 H   0  0  0  0  0  0  0  0  0  0  0  0
    9.5176    0.8204   21.1173 C   0  0  0  0  0  0  0  0  0  0  0  0
   10.4873    0.5788   21.5589 H   0  0  0  0  0  0  0  0  0  0  0  0
    9.5624    0.7380   20.0323 H   0  0  0  0  0  0  0  0  0  0  0  0
    8.8944    2.1220   21.6841 C   0  0  0  0  0  0  0  0  0  0  0  0
    8.4787    2.7899   20.9265 H   0  0  0  0  0  0  0  0  0  0  0  0
    9.5547    2.7009   22.3390 H   0  0  0  0  0  0  0  0  0  0  0  0
    7.8468    1.2678   22.4327 C   0  0  0  0  0  0  0  0  0  0  0  0
    6.7891    1.4943   22.2987 H   0  0  0  0  0  0  0  0  0  0  0  0
    8.0777    1.2169   23.4996 H   0  0  0  0  0  0  0  0  0  0  0  0
    5.5455    0.6177   20.0309 C   0  0  0  0  0  0  0  0  0  0  0  0
    5.1622    0.5843   21.0522 H   0  0  0  0  0  0  0  0  0  0  0  0
    4.8538    1.2871   19.0142 C   0  0  0  0  0  0  0  0  0  0  0  0
    3.9258    1.8121   19.2187 H   0  0  0  0  0  0  0  0  0  0  0  0
  1  2  1  0
  2  3  2  0
  3  4  1  0
  4  5  1  0
  4  6  2  0
  6  7  1  0
  7  8  1  0
  7  9  1  0
  9 10  1  0
 10 11  1  0
 11 12  1  0
 11 13  1  0
 11 14  1  0
 14 15  1  0
 14 16  1  0
 14 17  1  0
 17 18  1  0
 18 19  2  0
 19 20  1  0
 19 21  1  0
 21 22  1  0
 21 23  2  0
 23 24  1  0
 23 25  1  0
 25 26  1  0
 25 27  2  0
 27 28  1  0
 17 29  1  0
 29 30  1  0
 29 31  1  0
 29 32  1  0
 32 33  1  0
 32 34  1  0
  9 35  1  0
 35 36  1  0
 35 37  1  0
 35 38  1  0
 38 39  1  0
 38 40  1  0
 38 41  1  0
 41 42  1  0
 41 43  1  0
  6 44  1  0
 44 45  1  0
 44 46  2  0
 46 47  1  0
 46  2  1  0
 41  9  1  0
 32 10  1  0
 27 18  1  0
M  END
>  <cnnaffinity>  (1) 
-5.6142

>  <filename>  (1) 
c1ccc(N2CCN(C3(Nc4cccnc4)CCC3)CC2)cc1

$$$$
