
     RDKit          3D

 35 37  0  0  0  0  0  0  0  0999 V2000
    4.9016    1.7809   16.9096 H   0  0  0  0  0  0  0  0  0  0  0  0
    5.3899    1.3642   17.7839 C   0  0  0  0  0  0  0  0  0  0  0  0
    6.5891    0.8003   17.5694 N   0  0  0  0  0  0  0  0  0  0  0  0
    7.2085    0.2504   18.6168 C   0  0  0  0  0  0  0  0  0  0  0  0
    8.1679   -0.2239   18.4072 H   0  0  0  0  0  0  0  0  0  0  0  0
    6.6785    0.2434   19.9241 C   0  0  0  0  0  0  0  0  0  0  0  0
    7.3566   -0.4448   20.9678 N   0  0  0  0  0  0  0  0  0  0  0  0
    7.1467   -0.3758   22.3265 C   0  0  0  0  0  0  0  0  0  0  0  0
    6.7516    0.5145   22.7984 H   0  0  0  0  0  0  0  0  0  0  0  0
    7.6270   -1.4116   22.9726 N   0  0  0  0  0  0  0  0  0  0  0  0
    8.2104   -2.1737   22.0071 C   0  0  0  0  0  0  0  0  0  0  0  0
    8.8086   -3.3530   22.2476 O   0  0  0  0  0  0  0  0  0  0  0  0
    9.4209   -3.4791   23.5313 C   0  0  0  0  0  0  0  0  0  0  0  0
    8.7262   -3.1359   24.3080 H   0  0  0  0  0  0  0  0  0  0  0  0
    9.6103   -4.5531   23.6613 H   0  0  0  0  0  0  0  0  0  0  0  0
   10.7510   -2.7286   23.6053 C   0  0  0  0  0  0  0  0  0  0  0  0
   11.2188   -3.0564   24.5442 H   0  0  0  0  0  0  0  0  0  0  0  0
   11.3734   -3.0905   22.7762 H   0  0  0  0  0  0  0  0  0  0  0  0
   10.6929   -1.2049   23.5852 C   0  0  0  0  0  0  0  0  0  0  0  0
   11.0412   -0.4833   22.4326 C   0  0  0  0  0  0  0  0  0  0  0  0
   11.2867   -1.0342   21.5263 H   0  0  0  0  0  0  0  0  0  0  0  0
   11.0525    0.9168   22.4293 C   0  0  0  0  0  0  0  0  0  0  0  0
   11.3423    1.4582   21.5315 H   0  0  0  0  0  0  0  0  0  0  0  0
   10.7016    1.6209   23.5856 C   0  0  0  0  0  0  0  0  0  0  0  0
   10.7259    2.7114   23.5908 H   0  0  0  0  0  0  0  0  0  0  0  0
   10.3464    0.9161   24.7401 C   0  0  0  0  0  0  0  0  0  0  0  0
   10.0977    1.4523   25.6534 H   0  0  0  0  0  0  0  0  0  0  0  0
   10.3304   -0.4849   24.7349 C   0  0  0  0  0  0  0  0  0  0  0  0
   10.0229   -1.0250   25.6291 H   0  0  0  0  0  0  0  0  0  0  0  0
    8.1240   -1.5909   20.7815 C   0  0  0  0  0  0  0  0  0  0  0  0
    8.6391   -1.8191   19.8715 H   0  0  0  0  0  0  0  0  0  0  0  0
    5.4224    0.8410   20.1366 C   0  0  0  0  0  0  0  0  0  0  0  0
    4.9468    0.8295   21.1182 H   0  0  0  0  0  0  0  0  0  0  0  0
    4.7695    1.4041   19.0354 C   0  0  0  0  0  0  0  0  0  0  0  0
    3.7882    1.8571   19.1338 H   0  0  0  0  0  0  0  0  0  0  0  0
  1  2  1  0
  2  3  2  0
  3  4  1  0
  4  5  1  0
  4  6  2  0
  6  7  1  0
  7  8  1  0
  8  9  1  0
  8 10  2  0
 10 11  1  0
 11 12  1  0
 12 13  1  0
 13 14  1  0
 13 15  1  0
 13 16  1  0
 16 17  1  0
 16 18  1  0
 16 19  1  0
 19 20  2  0
 20 21  1  0
 20 22  1  0
 22 23  1  0
 22 24  2  0
 24 25  1  0
 24 26  1  0
 26 27  1  0
 26 28  2  0
 28 29  1  0
 11 30  2  0
 30 31  1  0
  6 32  1  0
 32 33  1  0
 32 34  2  0
 34 35  1  0
 34  2  1  0
 30  7  1  0
 28 19  1  0
M  END
>  <cnnaffinity>  (1) 
-5.44966

>  <filename>  (1) 
c1ccc(CCOc2cn(-c3cccnc3)cn2)cc1

$$$$
