
     RDKit          3D

 36 38  0  0  0  0  0  0  0  0999 V2000
    4.9290    1.7810   16.9990 H   0  0  0  0  0  0  0  0  0  0  0  0
    5.4036    1.2911   17.8496 C   0  0  0  0  0  0  0  0  0  0  0  0
    6.5692    0.6694   17.6054 N   0  0  0  0  0  0  0  0  0  0  0  0
    7.1795    0.0584   18.6307 C   0  0  0  0  0  0  0  0  0  0  0  0
    8.1195   -0.4366   18.4074 H   0  0  0  0  0  0  0  0  0  0  0  0
    6.6617    0.0199   19.9392 C   0  0  0  0  0  0  0  0  0  0  0  0
    7.3762   -0.6947   20.8692 O   0  0  0  0  0  0  0  0  0  0  0  0
    7.3329   -0.3466   22.1922 C   0  0  0  0  0  0  0  0  0  0  0  0
    7.2173   -1.2442   23.2720 C   0  0  0  0  0  0  0  0  0  0  0  0
    7.1318   -2.3195   23.2400 H   0  0  0  0  0  0  0  0  0  0  0  0
    7.2987   -0.6016   24.4356 N   0  0  0  0  0  0  0  0  0  0  0  0
    7.4717    0.6779   24.0963 N   0  0  0  0  0  0  0  0  0  0  0  0
    7.5279    1.3715   24.8261 H   0  0  0  0  0  0  0  0  0  0  0  0
    7.5175    0.9016   22.7574 C   0  0  0  0  0  0  0  0  0  0  0  0
    7.7802    2.2474   22.1636 C   0  0  0  0  0  0  0  0  0  0  0  0
    8.7220    2.6477   22.5618 H   0  0  0  0  0  0  0  0  0  0  0  0
    7.9234    2.1127   21.0873 H   0  0  0  0  0  0  0  0  0  0  0  0
    6.6662    3.2775   22.3969 C   0  0  0  0  0  0  0  0  0  0  0  0
    5.7065    2.8475   22.0979 H   0  0  0  0  0  0  0  0  0  0  0  0
    6.8200    4.1728   21.7767 H   0  0  0  0  0  0  0  0  0  0  0  0
    6.4824    3.6189   23.7711 O   0  0  0  0  0  0  0  0  0  0  0  0
    7.3649    4.4293   24.4243 C   0  0  0  0  0  0  0  0  0  0  0  0
    7.1399    4.5683   25.8071 C   0  0  0  0  0  0  0  0  0  0  0  0
    6.3060    4.0316   26.2483 H   0  0  0  0  0  0  0  0  0  0  0  0
    7.9679    5.3888   26.5728 C   0  0  0  0  0  0  0  0  0  0  0  0
    7.7834    5.4929   27.6383 H   0  0  0  0  0  0  0  0  0  0  0  0
    9.0286    6.0827   25.9789 C   0  0  0  0  0  0  0  0  0  0  0  0
    9.6713    6.7235   26.5797 H   0  0  0  0  0  0  0  0  0  0  0  0
    9.2463    5.9446   24.6085 C   0  0  0  0  0  0  0  0  0  0  0  0
   10.0657    6.4794   24.1335 H   0  0  0  0  0  0  0  0  0  0  0  0
    8.4252    5.1233   23.8221 C   0  0  0  0  0  0  0  0  0  0  0  0
    8.6048    5.0285   22.7550 H   0  0  0  0  0  0  0  0  0  0  0  0
    5.4375    0.6501   20.1866 C   0  0  0  0  0  0  0  0  0  0  0  0
    5.0046    0.6180   21.1876 H   0  0  0  0  0  0  0  0  0  0  0  0
    4.8111    1.3073   19.1150 C   0  0  0  0  0  0  0  0  0  0  0  0
    3.8766    1.8358   19.2522 H   0  0  0  0  0  0  0  0  0  0  0  0
  1  2  1  0
  2  3  2  0
  3  4  1  0
  4  5  1  0
  4  6  2  0
  6  7  1  0
  7  8  1  0
  8  9  1  0
  9 10  1  0
  9 11  2  0
 11 12  1  0
 12 13  1  0
 12 14  1  0
 14 15  1  0
 15 16  1  0
 15 17  1  0
 15 18  1  0
 18 19  1  0
 18 20  1  0
 18 21  1  0
 21 22  1  0
 22 23  2  0
 23 24  1  0
 23 25  1  0
 25 26  1  0
 25 27  2  0
 27 28  1  0
 27 29  1  0
 29 30  1  0
 29 31  2  0
 31 32  1  0
  6 33  1  0
 33 34  1  0
 33 35  2  0
 35 36  1  0
 35  2  1  0
 14  8  2  0
 31 22  1  0
M  END
>  <cnnaffinity>  (1) 
-5.09058

>  <filename>  (1) 
c1ccc(OCCc2[nH]ncc2Oc2cccnc2)cc1

$$$$
