
     RDKit          3D

 35 38  0  0  0  0  0  0  0  0999 V2000
    7.9794    1.6925   27.3047 H   0  0  0  0  0  0  0  0  0  0  0  0
    7.2997    1.4059   26.5047 C   0  0  0  0  0  0  0  0  0  0  0  0
    7.7971    1.4559   25.2614 N   0  0  0  0  0  0  0  0  0  0  0  0
    6.9780    1.1491   24.2421 C   0  0  0  0  0  0  0  0  0  0  0  0
    7.5590    1.2218   22.8402 C   0  0  0  0  0  0  0  0  0  0  0  0
    6.9108    1.8362   22.2107 H   0  0  0  0  0  0  0  0  0  0  0  0
    8.5157    1.7469   22.9246 H   0  0  0  0  0  0  0  0  0  0  0  0
    7.7629   -0.0982   22.1640 C   0  0  0  0  0  0  0  0  0  0  0  0
    7.3993   -0.6480   20.9402 C   0  0  0  0  0  0  0  0  0  0  0  0
    6.6198    0.0015   19.8900 C   0  0  0  0  0  0  0  0  0  0  0  0
    7.1281    0.0077   18.5830 C   0  0  0  0  0  0  0  0  0  0  0  0
    8.0651   -0.4998   18.3610 H   0  0  0  0  0  0  0  0  0  0  0  0
    6.5465    0.6447   17.5622 N   0  0  0  0  0  0  0  0  0  0  0  0
    5.3983    1.2950   17.8051 C   0  0  0  0  0  0  0  0  0  0  0  0
    4.9586    1.8255   16.9627 H   0  0  0  0  0  0  0  0  0  0  0  0
    4.7793    1.3143   19.0577 C   0  0  0  0  0  0  0  0  0  0  0  0
    3.8533    1.8587   19.1948 H   0  0  0  0  0  0  0  0  0  0  0  0
    5.4006    0.6617   20.1195 C   0  0  0  0  0  0  0  0  0  0  0  0
    4.9359    0.6597   21.1066 H   0  0  0  0  0  0  0  0  0  0  0  0
    7.8912   -1.9275   20.8022 N   0  0  0  0  0  0  0  0  0  0  0  0
    8.4742   -2.1577   21.9450 C   0  0  0  0  0  0  0  0  0  0  0  0
    8.4925   -1.0801   22.7680 N   0  0  0  0  0  0  0  0  0  0  0  0
    9.2353   -1.1917   24.0068 C   0  0  0  0  0  0  0  0  0  0  0  0
    9.7814   -0.2673   24.2090 H   0  0  0  0  0  0  0  0  0  0  0  0
    8.5460   -1.3696   24.8364 H   0  0  0  0  0  0  0  0  0  0  0  0
   10.1722   -2.3836   23.7692 C   0  0  0  0  0  0  0  0  0  0  0  0
   11.0505   -2.0801   23.1922 H   0  0  0  0  0  0  0  0  0  0  0  0
   10.4907   -2.8815   24.6885 H   0  0  0  0  0  0  0  0  0  0  0  0
    9.2283   -3.5442   22.7169 S   0  0  0  0  0  0  0  0  0  0  0  0
    5.6378    0.7932   24.4398 C   0  0  0  0  0  0  0  0  0  0  0  0
    5.0070    0.6275   23.5741 H   0  0  0  0  0  0  0  0  0  0  0  0
    5.1375    0.6961   25.7392 C   0  0  0  0  0  0  0  0  0  0  0  0
    4.1125    0.3779   25.9182 H   0  0  0  0  0  0  0  0  0  0  0  0
    5.9900    1.0227   26.7975 C   0  0  0  0  0  0  0  0  0  0  0  0
    5.6605    0.9973   27.8287 H   0  0  0  0  0  0  0  0  0  0  0  0
  1  2  1  0
  2  3  2  0
  3  4  1  0
  4  5  1  0
  5  6  1  0
  5  7  1  0
  5  8  1  0
  8  9  2  0
  9 10  1  0
 10 11  2  0
 11 12  1  0
 11 13  1  0
 13 14  2  0
 14 15  1  0
 14 16  1  0
 16 17  1  0
 16 18  2  0
 18 19  1  0
  9 20  1  0
 20 21  2  0
 21 22  1  0
 22 23  1  0
 23 24  1  0
 23 25  1  0
 23 26  1  0
 26 27  1  0
 26 28  1  0
 26 29  1  0
  4 30  2  0
 30 31  1  0
 30 32  1  0
 32 33  1  0
 32 34  2  0
 34 35  1  0
 34  2  1  0
 22  8  1  0
 18 10  1  0
 29 21  1  0
M  END
>  <cnnaffinity>  (1) 
-5.30223

>  <filename>  (1) 
c1ccc(Cc2c(-c3cccnc3)nc3n2CCS3)nc1

$$$$
