
     RDKit          3D

 30 32  0  0  0  0  0  0  0  0999 V2000
    4.9190    1.7820   16.9976 H   0  0  0  0  0  0  0  0  0  0  0  0
    5.4052    1.2896   17.8413 C   0  0  0  0  0  0  0  0  0  0  0  0
    6.5633    0.6681   17.5856 N   0  0  0  0  0  0  0  0  0  0  0  0
    7.1872    0.0549   18.5995 C   0  0  0  0  0  0  0  0  0  0  0  0
    8.1275   -0.4381   18.3661 H   0  0  0  0  0  0  0  0  0  0  0  0
    6.6865    0.0189   19.9132 C   0  0  0  0  0  0  0  0  0  0  0  0
    7.2824   -0.6687   20.9453 O   0  0  0  0  0  0  0  0  0  0  0  0
    8.6431   -0.7470   21.0804 C   0  0  0  0  0  0  0  0  0  0  0  0
    9.6751    0.0976   20.6233 C   0  0  0  0  0  0  0  0  0  0  0  0
    9.5846    0.9376   19.9581 H   0  0  0  0  0  0  0  0  0  0  0  0
   10.8552   -0.2739   21.0979 N   0  0  0  0  0  0  0  0  0  0  0  0
   10.5853   -1.3466   21.8442 N   0  0  0  0  0  0  0  0  0  0  0  0
   11.3322   -1.8045   22.3436 H   0  0  0  0  0  0  0  0  0  0  0  0
    9.2735   -1.6902   21.8676 C   0  0  0  0  0  0  0  0  0  0  0  0
    8.6116   -2.9338   22.9384 S   0  0  0  0  0  0  0  0  0  0  0  0
    8.2777   -1.8650   24.3410 C   0  0  0  0  0  0  0  0  0  0  0  0
    9.2779   -1.7027   25.3045 C   0  0  0  0  0  0  0  0  0  0  0  0
   10.1970   -2.2625   25.1700 H   0  0  0  0  0  0  0  0  0  0  0  0
    9.0834   -0.8338   26.3820 C   0  0  0  0  0  0  0  0  0  0  0  0
    9.8572   -0.7214   27.1384 H   0  0  0  0  0  0  0  0  0  0  0  0
    7.8833   -0.1196   26.4824 C   0  0  0  0  0  0  0  0  0  0  0  0
    7.7239    0.5484   27.3252 H   0  0  0  0  0  0  0  0  0  0  0  0
    6.8920   -0.2606   25.5025 C   0  0  0  0  0  0  0  0  0  0  0  0
    5.9623    0.2972   25.5794 H   0  0  0  0  0  0  0  0  0  0  0  0
    7.0886   -1.1295   24.4222 C   0  0  0  0  0  0  0  0  0  0  0  0
    6.3450   -1.2251   23.6331 H   0  0  0  0  0  0  0  0  0  0  0  0
    5.4626    0.6451   20.1711 C   0  0  0  0  0  0  0  0  0  0  0  0
    5.0380    0.6091   21.1753 H   0  0  0  0  0  0  0  0  0  0  0  0
    4.8217    1.3012   19.1139 C   0  0  0  0  0  0  0  0  0  0  0  0
    3.8883    1.8297   19.2667 H   0  0  0  0  0  0  0  0  0  0  0  0
  1  2  1  0
  2  3  2  0
  3  4  1  0
  4  5  1  0
  4  6  2  0
  6  7  1  0
  7  8  1  0
  8  9  1  0
  9 10  1  0
  9 11  2  0
 11 12  1  0
 12 13  1  0
 12 14  1  0
 14 15  1  0
 15 16  1  0
 16 17  2  0
 17 18  1  0
 17 19  1  0
 19 20  1  0
 19 21  2  0
 21 22  1  0
 21 23  1  0
 23 24  1  0
 23 25  2  0
 25 26  1  0
  6 27  1  0
 27 28  1  0
 27 29  2  0
 29 30  1  0
 29  2  1  0
 14  8  2  0
 25 16  1  0
M  END
>  <cnnaffinity>  (1) 
-5.42326

>  <filename>  (1) 
c1ccc(Sc2[nH]ncc2Oc2cccnc2)cc1

$$$$
