
     RDKit          3D

 39 41  0  0  0  0  0  0  0  0999 V2000
    4.9153    1.7823   16.9920 H   0  0  0  0  0  0  0  0  0  0  0  0
    5.3992    1.2962   17.8327 C   0  0  0  0  0  0  0  0  0  0  0  0
    6.5618    0.6779   17.5676 N   0  0  0  0  0  0  0  0  0  0  0  0
    7.1700    0.0739   18.5935 C   0  0  0  0  0  0  0  0  0  0  0  0
    8.1113   -0.4260   18.3697 H   0  0  0  0  0  0  0  0  0  0  0  0
    6.6548    0.0180   19.8968 C   0  0  0  0  0  0  0  0  0  0  0  0
    7.3775   -0.6979   20.9607 C   0  0  0  0  0  0  0  0  0  0  0  0
    8.7593   -0.5670   21.1146 C   0  0  0  0  0  0  0  0  0  0  0  0
    9.3265    0.0837   20.4609 H   0  0  0  0  0  0  0  0  0  0  0  0
    9.3753   -1.2595   22.1503 C   0  0  0  0  0  0  0  0  0  0  0  0
   10.4473   -1.1721   22.2855 H   0  0  0  0  0  0  0  0  0  0  0  0
    8.7318   -2.0607   23.0127 N   0  0  0  0  0  0  0  0  0  0  0  0
    7.4003   -2.1755   22.8715 C   0  0  0  0  0  0  0  0  0  0  0  0
    6.6698   -3.1119   23.7947 C   0  0  0  0  0  0  0  0  0  0  0  0
    5.6739   -2.7090   24.0183 H   0  0  0  0  0  0  0  0  0  0  0  0
    7.2151   -3.1619   24.7390 H   0  0  0  0  0  0  0  0  0  0  0  0
    6.5286   -4.5197   23.1948 C   0  0  0  0  0  0  0  0  0  0  0  0
    7.5252   -4.8924   22.9325 H   0  0  0  0  0  0  0  0  0  0  0  0
    5.9617   -4.4626   22.2561 H   0  0  0  0  0  0  0  0  0  0  0  0
    5.8372   -5.5246   24.1296 C   0  0  0  0  0  0  0  0  0  0  0  0
    5.9156   -6.5314   23.6988 H   0  0  0  0  0  0  0  0  0  0  0  0
    6.3810   -5.5583   25.0834 H   0  0  0  0  0  0  0  0  0  0  0  0
    4.3817   -5.1918   24.3757 C   0  0  0  0  0  0  0  0  0  0  0  0
    3.4180   -5.4884   23.3962 C   0  0  0  0  0  0  0  0  0  0  0  0
    3.7319   -5.9867   22.4799 H   0  0  0  0  0  0  0  0  0  0  0  0
    2.0763   -5.1538   23.5885 C   0  0  0  0  0  0  0  0  0  0  0  0
    1.3420   -5.4023   22.8254 H   0  0  0  0  0  0  0  0  0  0  0  0
    1.6785   -4.5038   24.7631 C   0  0  0  0  0  0  0  0  0  0  0  0
    0.6340   -4.2474   24.9179 H   0  0  0  0  0  0  0  0  0  0  0  0
    2.6302   -4.1864   25.7391 C   0  0  0  0  0  0  0  0  0  0  0  0
    2.3309   -3.6799   26.6537 H   0  0  0  0  0  0  0  0  0  0  0  0
    3.9721   -4.5251   25.5419 C   0  0  0  0  0  0  0  0  0  0  0  0
    4.7151   -4.2662   26.2961 H   0  0  0  0  0  0  0  0  0  0  0  0
    6.7016   -1.5222   21.8567 C   0  0  0  0  0  0  0  0  0  0  0  0
    5.6348   -1.6711   21.7392 H   0  0  0  0  0  0  0  0  0  0  0  0
    5.4298    0.6541   20.1488 C   0  0  0  0  0  0  0  0  0  0  0  0
    5.0108    0.6359   21.1600 H   0  0  0  0  0  0  0  0  0  0  0  0
    4.8018    1.3181   19.0995 C   0  0  0  0  0  0  0  0  0  0  0  0
    3.8690    1.8472   19.2557 H   0  0  0  0  0  0  0  0  0  0  0  0
  1  2  1  0
  2  3  2  0
  3  4  1  0
  4  5  1  0
  4  6  2  0
  6  7  1  0
  7  8  2  0
  8  9  1  0
  8 10  1  0
 10 11  1  0
 10 12  2  0
 12 13  1  0
 13 14  1  0
 14 15  1  0
 14 16  1  0
 14 17  1  0
 17 18  1  0
 17 19  1  0
 17 20  1  0
 20 21  1  0
 20 22  1  0
 20 23  1  0
 23 24  2  0
 24 25  1  0
 24 26  1  0
 26 27  1  0
 26 28  2  0
 28 29  1  0
 28 30  1  0
 30 31  1  0
 30 32  2  0
 32 33  1  0
 13 34  2  0
 34 35  1  0
  6 36  1  0
 36 37  1  0
 36 38  2  0
 38 39  1  0
 38  2  1  0
 34  7  1  0
 32 23  1  0
M  END
>  <cnnaffinity>  (1) 
-5.29328

>  <filename>  (1) 
c1ccc(CCCc2cc(-c3cccnc3)ccn2)cc1

$$$$
