
     RDKit          3D

 36 39  0  0  0  0  0  0  0  0999 V2000
    4.9567    1.8053   16.9712 H   0  0  0  0  0  0  0  0  0  0  0  0
    5.4149    1.2904   17.8142 C   0  0  0  0  0  0  0  0  0  0  0  0
    6.5664    0.6485   17.5629 N   0  0  0  0  0  0  0  0  0  0  0  0
    7.1577    0.0242   18.5830 C   0  0  0  0  0  0  0  0  0  0  0  0
    8.0903   -0.4934   18.3606 H   0  0  0  0  0  0  0  0  0  0  0  0
    6.6452    0.0215   19.8939 C   0  0  0  0  0  0  0  0  0  0  0  0
    7.4241   -0.6691   20.9284 C   0  0  0  0  0  0  0  0  0  0  0  0
    8.3120   -1.6087   20.7102 N   0  0  0  0  0  0  0  0  0  0  0  0
    8.8404   -2.0308   21.9104 N   0  0  0  0  0  0  0  0  0  0  0  0
    8.2552   -1.3118   22.8257 C   0  0  0  0  0  0  0  0  0  0  0  0
    8.3228   -1.0625   24.5480 S   0  0  0  0  0  0  0  0  0  0  0  0
    7.1653    0.2600   24.3196 C   0  0  0  0  0  0  0  0  0  0  0  0
    6.7323    1.1478   25.4314 C   0  0  0  0  0  0  0  0  0  0  0  0
    5.7105    1.4808   25.2337 H   0  0  0  0  0  0  0  0  0  0  0  0
    6.7168    0.6094   26.3835 H   0  0  0  0  0  0  0  0  0  0  0  0
    7.6055    2.4033   25.5814 C   0  0  0  0  0  0  0  0  0  0  0  0
    8.6646    2.1792   25.7902 H   0  0  0  0  0  0  0  0  0  0  0  0
    7.5644    3.0216   24.6774 H   0  0  0  0  0  0  0  0  0  0  0  0
    7.0556    3.2069   26.6150 O   0  0  0  0  0  0  0  0  0  0  0  0
    7.3435    2.9177   27.9145 C   0  0  0  0  0  0  0  0  0  0  0  0
    7.9796    1.7524   28.3713 C   0  0  0  0  0  0  0  0  0  0  0  0
    8.2774    0.9591   27.6944 H   0  0  0  0  0  0  0  0  0  0  0  0
    8.2979    1.6213   29.7267 C   0  0  0  0  0  0  0  0  0  0  0  0
    8.8398    0.7354   30.0488 H   0  0  0  0  0  0  0  0  0  0  0  0
    7.9603    2.6150   30.6416 C   0  0  0  0  0  0  0  0  0  0  0  0
    8.2291    2.5141   31.6877 H   0  0  0  0  0  0  0  0  0  0  0  0
    7.2790    3.7528   30.1864 C   0  0  0  0  0  0  0  0  0  0  0  0
    6.9763    4.5188   30.8917 H   0  0  0  0  0  0  0  0  0  0  0  0
    6.9799    3.9113   28.8363 C   0  0  0  0  0  0  0  0  0  0  0  0
    6.4823    4.7961   28.4477 H   0  0  0  0  0  0  0  0  0  0  0  0
    6.7599    0.4605   23.1110 N   0  0  0  0  0  0  0  0  0  0  0  0
    7.3555   -0.4433   22.2853 N   0  0  0  0  0  0  0  0  0  0  0  0
    5.4266    0.6722   20.1419 C   0  0  0  0  0  0  0  0  0  0  0  0
    4.9899    0.6849   21.1412 H   0  0  0  0  0  0  0  0  0  0  0  0
    4.8065    1.3140   19.0724 C   0  0  0  0  0  0  0  0  0  0  0  0
    3.8681    1.8408   19.2010 H   0  0  0  0  0  0  0  0  0  0  0  0
  1  2  1  0
  2  3  2  0
  3  4  1  0
  4  5  1  0
  4  6  2  0
  6  7  1  0
  7  8  2  0
  8  9  1  0
  9 10  2  0
 10 11  1  0
 11 12  1  0
 12 13  1  0
 13 14  1  0
 13 15  1  0
 13 16  1  0
 16 17  1  0
 16 18  1  0
 16 19  1  0
 19 20  1  0
 20 21  2  0
 21 22  1  0
 21 23  1  0
 23 24  1  0
 23 25  2  0
 25 26  1  0
 25 27  1  0
 27 28  1  0
 27 29  2  0
 29 30  1  0
 12 31  2  0
 31 32  1  0
  6 33  1  0
 33 34  1  0
 33 35  2  0
 35 36  1  0
 35  2  1  0
 32  7  1  0
 32 10  1  0
 29 20  1  0
M  END
>  <cnnaffinity>  (1) 
-5.26659

>  <filename>  (1) 
c1ccc(OCCc2nn3c(-c4cccnc4)nnc3s2)cc1

$$$$
