
     RDKit          3D

 35 37  0  0  0  0  0  0  0  0999 V2000
    9.2871   -1.6103   20.1080 H   0  0  0  0  0  0  0  0  0  0  0  0
    8.6351   -1.4133   20.9405 C   0  0  0  0  0  0  0  0  0  0  0  0
    8.9442   -1.8662   22.2155 N   0  0  0  0  0  0  0  0  0  0  0  0
    7.9396   -1.4389   22.9073 C   0  0  0  0  0  0  0  0  0  0  0  0
    7.6716   -1.5429   24.2255 N   0  0  0  0  0  0  0  0  0  0  0  0
    6.6684   -1.5048   24.2845 H   0  0  0  0  0  0  0  0  0  0  0  0
    8.3578   -2.5309   25.0414 C   0  0  0  0  0  0  0  0  0  0  0  0
    8.5207   -2.1185   26.0458 H   0  0  0  0  0  0  0  0  0  0  0  0
    9.3548   -2.7102   24.6165 H   0  0  0  0  0  0  0  0  0  0  0  0
    7.5536   -3.8374   25.1468 C   0  0  0  0  0  0  0  0  0  0  0  0
    8.1013   -4.5093   25.8217 H   0  0  0  0  0  0  0  0  0  0  0  0
    6.5907   -3.6354   25.6307 H   0  0  0  0  0  0  0  0  0  0  0  0
    7.3655   -4.5360   23.8166 C   0  0  0  0  0  0  0  0  0  0  0  0
    6.2110   -4.4387   23.0182 C   0  0  0  0  0  0  0  0  0  0  0  0
    5.3916   -3.7838   23.3200 H   0  0  0  0  0  0  0  0  0  0  0  0
    6.1326   -5.1440   21.8062 C   0  0  0  0  0  0  0  0  0  0  0  0
    5.2145   -5.1413   21.2222 H   0  0  0  0  0  0  0  0  0  0  0  0
    7.2268   -5.8879   21.3435 C   0  0  0  0  0  0  0  0  0  0  0  0
    7.1644   -6.4008   20.3870 H   0  0  0  0  0  0  0  0  0  0  0  0
    8.3940   -5.9405   22.1156 C   0  0  0  0  0  0  0  0  0  0  0  0
    9.2827   -6.4832   21.8155 H   0  0  0  0  0  0  0  0  0  0  0  0
    8.4504   -5.2811   23.3380 C   0  0  0  0  0  0  0  0  0  0  0  0
    9.3452   -5.3512   23.9546 H   0  0  0  0  0  0  0  0  0  0  0  0
    6.9927   -0.7661   22.2352 O   0  0  0  0  0  0  0  0  0  0  0  0
    7.4533   -0.7421   20.9397 C   0  0  0  0  0  0  0  0  0  0  0  0
    6.6712   -0.0365   19.9348 C   0  0  0  0  0  0  0  0  0  0  0  0
    7.1695    0.0139   18.6226 C   0  0  0  0  0  0  0  0  0  0  0  0
    8.1039   -0.4890   18.3752 H   0  0  0  0  0  0  0  0  0  0  0  0
    6.5773    0.6491   17.6108 N   0  0  0  0  0  0  0  0  0  0  0  0
    5.4261    1.2835   17.8770 C   0  0  0  0  0  0  0  0  0  0  0  0
    4.9715    1.8029   17.0372 H   0  0  0  0  0  0  0  0  0  0  0  0
    4.8217    1.2908   19.1400 C   0  0  0  0  0  0  0  0  0  0  0  0
    3.8882    1.8278   19.2804 H   0  0  0  0  0  0  0  0  0  0  0  0
    5.4481    0.6222   20.1912 C   0  0  0  0  0  0  0  0  0  0  0  0
    5.0067    0.6171   21.1876 H   0  0  0  0  0  0  0  0  0  0  0  0
  1  2  1  0
  2  3  1  0
  3  4  2  0
  4  5  1  0
  5  6  1  0
  5  7  1  0
  7  8  1  0
  7  9  1  0
  7 10  1  0
 10 11  1  0
 10 12  1  0
 10 13  1  0
 13 14  2  0
 14 15  1  0
 14 16  1  0
 16 17  1  0
 16 18  2  0
 18 19  1  0
 18 20  1  0
 20 21  1  0
 20 22  2  0
 22 23  1  0
  4 24  1  0
 24 25  1  0
 25 26  1  0
 26 27  2  0
 27 28  1  0
 27 29  1  0
 29 30  2  0
 30 31  1  0
 30 32  1  0
 32 33  1  0
 32 34  2  0
 34 35  1  0
 25  2  2  0
 34 26  1  0
 22 13  1  0
M  END
>  <cnnaffinity>  (1) 
-5.15464

>  <filename>  (1) 
c1ccc(CCNc2ncc(-c3cccnc3)o2)cc1

$$$$
