
     RDKit          3D

 41 44  0  0  0  0  0  0  0  0999 V2000
    7.3492   -7.1923   28.9984 H   0  0  0  0  0  0  0  0  0  0  0  0
    6.6266   -6.5602   28.4853 C   0  0  0  0  0  0  0  0  0  0  0  0
    7.1596   -5.6355   27.6907 N   0  0  0  0  0  0  0  0  0  0  0  0
    6.3253   -4.8088   27.0384 C   0  0  0  0  0  0  0  0  0  0  0  0
    6.9132   -3.8732   26.2190 N   0  0  0  0  0  0  0  0  0  0  0  0
    8.3492   -3.9333   25.8967 C   0  0  0  0  0  0  0  0  0  0  0  0
    8.9312   -3.3177   26.6044 H   0  0  0  0  0  0  0  0  0  0  0  0
    8.7073   -4.9583   26.0026 H   0  0  0  0  0  0  0  0  0  0  0  0
    8.5831   -3.4620   24.4540 C   0  0  0  0  0  0  0  0  0  0  0  0
    9.6530   -3.5927   24.2190 H   0  0  0  0  0  0  0  0  0  0  0  0
    7.9944   -4.1045   23.7769 H   0  0  0  0  0  0  0  0  0  0  0  0
    8.1922   -2.0416   24.2607 N   0  0  0  0  0  0  0  0  0  0  0  0
    8.0237   -1.6918   22.9072 N   0  0  0  0  0  0  0  0  0  0  0  0
    9.0035   -1.7265   21.9492 C   0  0  0  0  0  0  0  0  0  0  0  0
    9.9848   -2.1340   22.1747 H   0  0  0  0  0  0  0  0  0  0  0  0
    8.6105   -1.2297   20.8061 N   0  0  0  0  0  0  0  0  0  0  0  0
    7.3203   -0.7956   21.0229 C   0  0  0  0  0  0  0  0  0  0  0  0
    6.6188   -0.0623   19.9640 C   0  0  0  0  0  0  0  0  0  0  0  0
    7.2029   -0.0208   18.6819 C   0  0  0  0  0  0  0  0  0  0  0  0
    8.1505   -0.5273   18.5152 H   0  0  0  0  0  0  0  0  0  0  0  0
    6.6685    0.6056   17.6315 N   0  0  0  0  0  0  0  0  0  0  0  0
    5.5094    1.2516   17.8280 C   0  0  0  0  0  0  0  0  0  0  0  0
    5.0928    1.7569   16.9595 H   0  0  0  0  0  0  0  0  0  0  0  0
    4.8486    1.2920   19.0619 C   0  0  0  0  0  0  0  0  0  0  0  0
    3.9219    1.8474   19.1493 H   0  0  0  0  0  0  0  0  0  0  0  0
    5.4097    0.6314   20.1541 C   0  0  0  0  0  0  0  0  0  0  0  0
    4.9194    0.6681   21.1291 H   0  0  0  0  0  0  0  0  0  0  0  0
    6.9347   -1.0896   22.3019 C   0  0  0  0  0  0  0  0  0  0  0  0
    6.0216   -0.8969   22.8301 H   0  0  0  0  0  0  0  0  0  0  0  0
    7.1612   -1.5829   25.2236 C   0  0  0  0  0  0  0  0  0  0  0  0
    7.6905   -1.1935   26.1055 H   0  0  0  0  0  0  0  0  0  0  0  0
    6.5987   -0.7525   24.7905 H   0  0  0  0  0  0  0  0  0  0  0  0
    6.1887   -2.6926   25.7083 C   0  0  0  0  0  0  0  0  0  0  0  0
    5.4892   -2.9631   24.8981 H   0  0  0  0  0  0  0  0  0  0  0  0
    5.5913   -2.2496   26.5154 H   0  0  0  0  0  0  0  0  0  0  0  0
    4.9158   -4.9040   27.1656 C   0  0  0  0  0  0  0  0  0  0  0  0
    4.3052   -4.2042   26.6053 H   0  0  0  0  0  0  0  0  0  0  0  0
    4.3794   -5.8926   27.9825 C   0  0  0  0  0  0  0  0  0  0  0  0
    3.2964   -5.9996   28.0870 H   0  0  0  0  0  0  0  0  0  0  0  0
    5.2562   -6.7480   28.6696 C   0  0  0  0  0  0  0  0  0  0  0  0
    4.9032   -7.5379   29.3218 H   0  0  0  0  0  0  0  0  0  0  0  0
  1  2  1  0
  2  3  2  0
  3  4  1  0
  4  5  1  0
  5  6  1  0
  6  7  1  0
  6  8  1  0
  6  9  1  0
  9 10  1  0
  9 11  1  0
  9 12  1  0
 12 13  1  0
 13 14  1  0
 14 15  1  0
 14 16  2  0
 16 17  1  0
 17 18  1  0
 18 19  2  0
 19 20  1  0
 19 21  1  0
 21 22  2  0
 22 23  1  0
 22 24  1  0
 24 25  1  0
 24 26  2  0
 26 27  1  0
 17 28  2  0
 28 29  1  0
 12 30  1  0
 30 31  1  0
 30 32  1  0
 30 33  1  0
 33 34  1  0
 33 35  1  0
  4 36  2  0
 36 37  1  0
 36 38  1  0
 38 39  1  0
 38 40  2  0
 40 41  1  0
 40  2  1  0
 33  5  1  0
 28 13  1  0
 26 18  1  0
M  END
>  <cnnaffinity>  (1) 
-5.10338

>  <filename>  (1) 
c1ccc(N2CCN(n3cnc(-c4cccnc4)c3)CC2)nc1

$$$$
