
     RDKit          3D

 42 44  0  0  0  0  0  0  0  0999 V2000
    4.9102    1.7918   16.9857 H   0  0  0  0  0  0  0  0  0  0  0  0
    5.3964    1.2999   17.8262 C   0  0  0  0  0  0  0  0  0  0  0  0
    6.5600    0.6835   17.5651 N   0  0  0  0  0  0  0  0  0  0  0  0
    7.1667    0.0609   18.5913 C   0  0  0  0  0  0  0  0  0  0  0  0
    8.1138   -0.4263   18.3588 H   0  0  0  0  0  0  0  0  0  0  0  0
    6.6618   -0.0049   19.9202 C   0  0  0  0  0  0  0  0  0  0  0  0
    7.2781   -0.7168   20.9783 N   0  0  0  0  0  0  0  0  0  0  0  0
    7.4921   -1.6913   20.8218 H   0  0  0  0  0  0  0  0  0  0  0  0
    8.1032   -0.0371   21.9771 C   0  0  0  0  0  0  0  0  0  0  0  0
    7.1949    0.7378   22.9438 C   0  0  0  0  0  0  0  0  0  0  0  0
    6.3348    0.1022   23.1940 H   0  0  0  0  0  0  0  0  0  0  0  0
    6.7775    1.5857   22.3815 H   0  0  0  0  0  0  0  0  0  0  0  0
    7.8316    1.2686   24.2355 C   0  0  0  0  0  0  0  0  0  0  0  0
    8.8307    1.6758   24.0327 H   0  0  0  0  0  0  0  0  0  0  0  0
    7.9872    0.4392   24.9358 H   0  0  0  0  0  0  0  0  0  0  0  0
    6.9817    2.3456   24.9336 C   0  0  0  0  0  0  0  0  0  0  0  0
    6.8552    3.2011   24.2566 H   0  0  0  0  0  0  0  0  0  0  0  0
    7.5264    2.7363   25.8032 H   0  0  0  0  0  0  0  0  0  0  0  0
    5.6251    1.8334   25.3709 C   0  0  0  0  0  0  0  0  0  0  0  0
    5.5034    1.0820   26.5514 C   0  0  0  0  0  0  0  0  0  0  0  0
    6.3889    0.9081   27.1609 H   0  0  0  0  0  0  0  0  0  0  0  0
    4.2703    0.5513   26.9409 C   0  0  0  0  0  0  0  0  0  0  0  0
    4.1950   -0.0208   27.8624 H   0  0  0  0  0  0  0  0  0  0  0  0
    3.1376    0.7638   26.1483 C   0  0  0  0  0  0  0  0  0  0  0  0
    2.1751    0.3557   26.4483 H   0  0  0  0  0  0  0  0  0  0  0  0
    3.2441    1.5082   24.9705 C   0  0  0  0  0  0  0  0  0  0  0  0
    2.3580    1.6918   24.3694 H   0  0  0  0  0  0  0  0  0  0  0  0
    4.4824    2.0274   24.5775 C   0  0  0  0  0  0  0  0  0  0  0  0
    4.5746    2.5849   23.6454 H   0  0  0  0  0  0  0  0  0  0  0  0
    9.1316   -0.9997   22.6216 C   0  0  0  0  0  0  0  0  0  0  0  0
    9.0682   -1.0784   23.7094 H   0  0  0  0  0  0  0  0  0  0  0  0
    9.0864   -2.0200   22.2290 H   0  0  0  0  0  0  0  0  0  0  0  0
   10.3024   -0.1285   22.0961 C   0  0  0  0  0  0  0  0  0  0  0  0
   10.9800   -0.6464   21.4128 H   0  0  0  0  0  0  0  0  0  0  0  0
   10.9111    0.3471   22.8725 H   0  0  0  0  0  0  0  0  0  0  0  0
    9.2834    0.8120   21.4113 C   0  0  0  0  0  0  0  0  0  0  0  0
    9.3274    0.8117   20.3213 H   0  0  0  0  0  0  0  0  0  0  0  0
    9.2990    1.8570   21.7374 H   0  0  0  0  0  0  0  0  0  0  0  0
    5.4436    0.6507   20.1523 C   0  0  0  0  0  0  0  0  0  0  0  0
    5.0276    0.6110   21.1601 H   0  0  0  0  0  0  0  0  0  0  0  0
    4.8062    1.3112   19.0940 C   0  0  0  0  0  0  0  0  0  0  0  0
    3.8759    1.8403   19.2564 H   0  0  0  0  0  0  0  0  0  0  0  0
  1  2  1  0
  2  3  2  0
  3  4  1  0
  4  5  1  0
  4  6  2  0
  6  7  1  0
  7  8  1  0
  7  9  1  0
  9 10  1  0
 10 11  1  0
 10 12  1  0
 10 13  1  0
 13 14  1  0
 13 15  1  0
 13 16  1  0
 16 17  1  0
 16 18  1  0
 16 19  1  0
 19 20  2  0
 20 21  1  0
 20 22  1  0
 22 23  1  0
 22 24  2  0
 24 25  1  0
 24 26  1  0
 26 27  1  0
 26 28  2  0
 28 29  1  0
  9 30  1  0
 30 31  1  0
 30 32  1  0
 30 33  1  0
 33 34  1  0
 33 35  1  0
 33 36  1  0
 36 37  1  0
 36 38  1  0
  6 39  1  0
 39 40  1  0
 39 41  2  0
 41 42  1  0
 41  2  1  0
 36  9  1  0
 28 19  1  0
M  END
>  <cnnaffinity>  (1) 
-5.07933

>  <filename>  (1) 
c1ccc(CCCC2(Nc3cccnc3)CCC2)cc1

$$$$
