
     RDKit          3D

 38 41  0  0  0  0  0  0  0  0999 V2000
    4.9939    1.8552   17.0020 H   0  0  0  0  0  0  0  0  0  0  0  0
    5.5170    1.3280   17.7976 C   0  0  0  0  0  0  0  0  0  0  0  0
    6.6724    0.7387   17.4525 N   0  0  0  0  0  0  0  0  0  0  0  0
    7.3509    0.0720   18.3983 C   0  0  0  0  0  0  0  0  0  0  0  0
    8.2934   -0.3784   18.0776 H   0  0  0  0  0  0  0  0  0  0  0  0
    6.8857   -0.0684   19.7218 C   0  0  0  0  0  0  0  0  0  0  0  0
    7.5572   -0.8866   20.6688 N   0  0  0  0  0  0  0  0  0  0  0  0
    8.8968   -0.8107   21.0451 C   0  0  0  0  0  0  0  0  0  0  0  0
    9.5333   -0.0655   20.5964 H   0  0  0  0  0  0  0  0  0  0  0  0
    9.1334   -1.6907   22.0564 C   0  0  0  0  0  0  0  0  0  0  0  0
    9.9974   -1.9300   22.6486 H   0  0  0  0  0  0  0  0  0  0  0  0
    7.9213   -2.3152   22.3150 N   0  0  0  0  0  0  0  0  0  0  0  0
    7.4627   -3.2196   23.2211 N   0  0  0  0  0  0  0  0  0  0  0  0
    6.1572   -3.2736   22.9512 C   0  0  0  0  0  0  0  0  0  0  0  0
    5.1860   -4.1539   23.7027 C   0  0  0  0  0  0  0  0  0  0  0  0
    5.7159   -5.0318   24.0870 H   0  0  0  0  0  0  0  0  0  0  0  0
    4.4707   -4.5323   22.9631 H   0  0  0  0  0  0  0  0  0  0  0  0
    4.3537   -3.5162   24.8560 C   0  0  0  0  0  0  0  0  0  0  0  0
    5.0219   -3.1905   25.6652 H   0  0  0  0  0  0  0  0  0  0  0  0
    3.8377   -2.6123   24.5112 H   0  0  0  0  0  0  0  0  0  0  0  0
    3.3218   -4.4898   25.4097 C   0  0  0  0  0  0  0  0  0  0  0  0
    1.9900   -4.4990   24.9568 C   0  0  0  0  0  0  0  0  0  0  0  0
    1.6608   -3.7507   24.2388 H   0  0  0  0  0  0  0  0  0  0  0  0
    1.0731   -5.4475   25.4319 C   0  0  0  0  0  0  0  0  0  0  0  0
    0.0487   -5.4420   25.0680 H   0  0  0  0  0  0  0  0  0  0  0  0
    1.4717   -6.3979   26.3766 C   0  0  0  0  0  0  0  0  0  0  0  0
    0.7665   -7.1420   26.7417 H   0  0  0  0  0  0  0  0  0  0  0  0
    2.7871   -6.3885   26.8500 C   0  0  0  0  0  0  0  0  0  0  0  0
    3.1080   -7.1146   27.5918 H   0  0  0  0  0  0  0  0  0  0  0  0
    3.6986   -5.4410   26.3716 C   0  0  0  0  0  0  0  0  0  0  0  0
    4.7180   -5.4292   26.7534 H   0  0  0  0  0  0  0  0  0  0  0  0
    5.7908   -2.4641   21.8600 C   0  0  0  0  0  0  0  0  0  0  0  0
    4.7898   -2.3370   21.5214 H   0  0  0  0  0  0  0  0  0  0  0  0
    6.9685   -1.8427   21.4855 C   0  0  0  0  0  0  0  0  0  0  0  0
    5.7005    0.5905   20.0813 C   0  0  0  0  0  0  0  0  0  0  0  0
    5.3643    0.5741   21.1196 H   0  0  0  0  0  0  0  0  0  0  0  0
    4.9989    1.2913   19.0969 C   0  0  0  0  0  0  0  0  0  0  0  0
    4.0787    1.8152   19.3258 H   0  0  0  0  0  0  0  0  0  0  0  0
  1  2  1  0
  2  3  2  0
  3  4  1  0
  4  5  1  0
  4  6  2  0
  6  7  1  0
  7  8  1  0
  8  9  1  0
  8 10  2  0
 10 11  1  0
 10 12  1  0
 12 13  1  0
 13 14  2  0
 14 15  1  0
 15 16  1  0
 15 17  1  0
 15 18  1  0
 18 19  1  0
 18 20  1  0
 18 21  1  0
 21 22  2  0
 22 23  1  0
 22 24  1  0
 24 25  1  0
 24 26  2  0
 26 27  1  0
 26 28  1  0
 28 29  1  0
 28 30  2  0
 30 31  1  0
 14 32  1  0
 32 33  1  0
 32 34  2  0
  6 35  1  0
 35 36  1  0
 35 37  2  0
 37 38  1  0
 37  2  1  0
 34  7  1  0
 34 12  1  0
 30 21  1  0
M  END
>  <cnnaffinity>  (1) 
-5.10216

>  <filename>  (1) 
c1ccc(CCc2cc3n(-c4cccnc4)ccn3n2)cc1

$$$$
