
     RDKit          3D

 39 42  0  0  0  0  0  0  0  0999 V2000
    4.9766    1.8370   17.0070 H   0  0  0  0  0  0  0  0  0  0  0  0
    5.4873    1.3170   17.8117 C   0  0  0  0  0  0  0  0  0  0  0  0
    6.6477    0.7261   17.4851 N   0  0  0  0  0  0  0  0  0  0  0  0
    7.3129    0.0757   18.4473 C   0  0  0  0  0  0  0  0  0  0  0  0
    8.2473   -0.4027   18.1501 H   0  0  0  0  0  0  0  0  0  0  0  0
    6.8446   -0.0370   19.7703 C   0  0  0  0  0  0  0  0  0  0  0  0
    7.5262   -0.8388   20.7211 N   0  0  0  0  0  0  0  0  0  0  0  0
    8.8822   -0.8210   21.0624 C   0  0  0  0  0  0  0  0  0  0  0  0
    9.5519   -0.1358   20.5650 H   0  0  0  0  0  0  0  0  0  0  0  0
    9.1015   -1.7033   22.0758 C   0  0  0  0  0  0  0  0  0  0  0  0
    9.9666   -1.9790   22.6541 H   0  0  0  0  0  0  0  0  0  0  0  0
    7.8750   -2.2805   22.3505 N   0  0  0  0  0  0  0  0  0  0  0  0
    7.4161   -3.1931   23.2462 N   0  0  0  0  0  0  0  0  0  0  0  0
    6.1172   -3.2454   22.9492 C   0  0  0  0  0  0  0  0  0  0  0  0
    5.1364   -4.1203   23.6479 C   0  0  0  0  0  0  0  0  0  0  0  0
    5.6142   -5.0583   23.9367 H   0  0  0  0  0  0  0  0  0  0  0  0
    4.3598   -4.4012   22.9317 H   0  0  0  0  0  0  0  0  0  0  0  0
    4.3905   -3.5143   24.8463 C   0  0  0  0  0  0  0  0  0  0  0  0
    3.8102   -2.6309   24.5604 H   0  0  0  0  0  0  0  0  0  0  0  0
    5.0570   -3.2259   25.6722 H   0  0  0  0  0  0  0  0  0  0  0  0
    3.4149   -4.4490   25.3025 O   0  0  0  0  0  0  0  0  0  0  0  0
    3.8272   -5.5259   26.0326 C   0  0  0  0  0  0  0  0  0  0  0  0
    2.8154   -6.4009   26.4619 C   0  0  0  0  0  0  0  0  0  0  0  0
    1.8020   -6.2084   26.1295 H   0  0  0  0  0  0  0  0  0  0  0  0
    3.1192   -7.4667   27.3071 C   0  0  0  0  0  0  0  0  0  0  0  0
    2.3281   -8.1304   27.6494 H   0  0  0  0  0  0  0  0  0  0  0  0
    4.4404   -7.6781   27.7206 C   0  0  0  0  0  0  0  0  0  0  0  0
    4.7129   -8.4870   28.3876 H   0  0  0  0  0  0  0  0  0  0  0  0
    5.4475   -6.8371   27.2581 C   0  0  0  0  0  0  0  0  0  0  0  0
    6.4724   -7.0068   27.5713 H   0  0  0  0  0  0  0  0  0  0  0  0
    5.1572   -5.7743   26.4031 C   0  0  0  0  0  0  0  0  0  0  0  0
    5.9601   -5.1427   26.0409 H   0  0  0  0  0  0  0  0  0  0  0  0
    5.7444   -2.4121   21.8867 C   0  0  0  0  0  0  0  0  0  0  0  0
    4.7353   -2.2995   21.5662 H   0  0  0  0  0  0  0  0  0  0  0  0
    6.9227   -1.7757   21.5415 C   0  0  0  0  0  0  0  0  0  0  0  0
    5.6410    0.6080   20.1065 C   0  0  0  0  0  0  0  0  0  0  0  0
    5.2766    0.5848   21.1353 H   0  0  0  0  0  0  0  0  0  0  0  0
    4.9501    1.2907   19.1041 C   0  0  0  0  0  0  0  0  0  0  0  0
    4.0208    1.8119   19.3108 H   0  0  0  0  0  0  0  0  0  0  0  0
  1  2  1  0
  2  3  2  0
  3  4  1  0
  4  5  1  0
  4  6  2  0
  6  7  1  0
  7  8  1  0
  8  9  1  0
  8 10  2  0
 10 11  1  0
 10 12  1  0
 12 13  1  0
 13 14  2  0
 14 15  1  0
 15 16  1  0
 15 17  1  0
 15 18  1  0
 18 19  1  0
 18 20  1  0
 18 21  1  0
 21 22  1  0
 22 23  2  0
 23 24  1  0
 23 25  1  0
 25 26  1  0
 25 27  2  0
 27 28  1  0
 27 29  1  0
 29 30  1  0
 29 31  2  0
 31 32  1  0
 14 33  1  0
 33 34  1  0
 33 35  2  0
  6 36  1  0
 36 37  1  0
 36 38  2  0
 38 39  1  0
 38  2  1  0
 35  7  1  0
 35 12  1  0
 31 22  1  0
M  END
>  <cnnaffinity>  (1) 
-5.29246

>  <filename>  (1) 
c1ccc(OCCc2cc3n(-c4cccnc4)ccn3n2)cc1

$$$$
