
     RDKit          3D

 37 40  0  0  0  0  0  0  0  0999 V2000
    4.9186    1.7863   16.9929 H   0  0  0  0  0  0  0  0  0  0  0  0
    5.4023    1.2957   17.8358 C   0  0  0  0  0  0  0  0  0  0  0  0
    6.5656    0.6791   17.5715 N   0  0  0  0  0  0  0  0  0  0  0  0
    7.1680    0.0616   18.5928 C   0  0  0  0  0  0  0  0  0  0  0  0
    8.1125   -0.4263   18.3708 H   0  0  0  0  0  0  0  0  0  0  0  0
    6.6637    0.0027   19.9088 C   0  0  0  0  0  0  0  0  0  0  0  0
    7.3792   -0.7099   20.9908 C   0  0  0  0  0  0  0  0  0  0  0  0
    8.1251   -2.2403   20.8049 S   0  0  0  0  0  0  0  0  0  0  0  0
    8.5721   -2.4314   22.3819 N   0  0  0  0  0  0  0  0  0  0  0  0
    8.1912   -1.3781   23.0446 C   0  0  0  0  0  0  0  0  0  0  0  0
    8.4382   -1.3290   24.1029 H   0  0  0  0  0  0  0  0  0  0  0  0
    7.5200   -0.3482   22.3165 C   0  0  0  0  0  0  0  0  0  0  0  0
    7.1155    0.9315   22.9129 C   0  0  0  0  0  0  0  0  0  0  0  0
    7.3998    2.1450   22.2658 C   0  0  0  0  0  0  0  0  0  0  0  0
    7.8973    2.1174   21.2993 H   0  0  0  0  0  0  0  0  0  0  0  0
    7.0132    3.3496   22.8494 C   0  0  0  0  0  0  0  0  0  0  0  0
    7.2110    4.2861   22.3355 H   0  0  0  0  0  0  0  0  0  0  0  0
    6.3536    3.3476   24.0805 C   0  0  0  0  0  0  0  0  0  0  0  0
    6.0668    4.2870   24.5404 H   0  0  0  0  0  0  0  0  0  0  0  0
    6.0764    2.1429   24.7558 C   0  0  0  0  0  0  0  0  0  0  0  0
    5.3908    2.1411   26.0799 C   0  0  0  0  0  0  0  0  0  0  0  0
    5.8085    1.2762   27.1087 C   0  0  0  0  0  0  0  0  0  0  0  0
    6.6525    0.6120   26.9297 H   0  0  0  0  0  0  0  0  0  0  0  0
    5.1676    1.2823   28.3509 C   0  0  0  0  0  0  0  0  0  0  0  0
    5.5023    0.6030   29.1320 H   0  0  0  0  0  0  0  0  0  0  0  0
    4.0908    2.1488   28.5789 C   0  0  0  0  0  0  0  0  0  0  0  0
    3.5888    2.1517   29.5428 H   0  0  0  0  0  0  0  0  0  0  0  0
    3.6625    3.0106   27.5620 C   0  0  0  0  0  0  0  0  0  0  0  0
    2.8329    3.6932   27.7306 H   0  0  0  0  0  0  0  0  0  0  0  0
    4.3111    3.0077   26.3251 C   0  0  0  0  0  0  0  0  0  0  0  0
    3.9749    3.6693   25.5296 H   0  0  0  0  0  0  0  0  0  0  0  0
    6.4700    0.9423   24.1539 C   0  0  0  0  0  0  0  0  0  0  0  0
    6.2517   -0.0089   24.6360 H   0  0  0  0  0  0  0  0  0  0  0  0
    5.4361    0.6395   20.1548 C   0  0  0  0  0  0  0  0  0  0  0  0
    5.0167    0.6328   21.1646 H   0  0  0  0  0  0  0  0  0  0  0  0
    4.8027    1.3047   19.1015 C   0  0  0  0  0  0  0  0  0  0  0  0
    3.8720    1.8430   19.2547 H   0  0  0  0  0  0  0  0  0  0  0  0
  1  2  1  0
  2  3  2  0
  3  4  1  0
  4  5  1  0
  4  6  2  0
  6  7  1  0
  7  8  1  0
  8  9  1  0
  9 10  2  0
 10 11  1  0
 10 12  1  0
 12 13  1  0
 13 14  2  0
 14 15  1  0
 14 16  1  0
 16 17  1  0
 16 18  2  0
 18 19  1  0
 18 20  1  0
 20 21  1  0
 21 22  2  0
 22 23  1  0
 22 24  1  0
 24 25  1  0
 24 26  2  0
 26 27  1  0
 26 28  1  0
 28 29  1  0
 28 30  2  0
 30 31  1  0
 20 32  2  0
 32 33  1  0
  6 34  1  0
 34 35  1  0
 34 36  2  0
 36 37  1  0
 36  2  1  0
 12  7  2  0
 32 13  1  0
 30 21  1  0
M  END
>  <cnnaffinity>  (1) 
-5.07593

>  <filename>  (1) 
c1ccc(-c2cccc(-c3cnsc3-c3cccnc3)c2)cc1

$$$$
