
     RDKit          3D

 37 39  0  0  0  0  0  0  0  0999 V2000
    4.8651    2.1673   16.6650 H   0  0  0  0  0  0  0  0  0  0  0  0
    5.1950    1.5604   17.5051 C   0  0  0  0  0  0  0  0  0  0  0  0
    6.2756    0.7989   17.2799 N   0  0  0  0  0  0  0  0  0  0  0  0
    6.7291    0.0699   18.2981 C   0  0  0  0  0  0  0  0  0  0  0  0
    7.6015   -0.5477   18.0839 H   0  0  0  0  0  0  0  0  0  0  0  0
    6.1473    0.0478   19.5720 C   0  0  0  0  0  0  0  0  0  0  0  0
    6.8523   -0.7292   20.6229 C   0  0  0  0  0  0  0  0  0  0  0  0
    6.0969   -1.4231   21.4932 N   0  0  0  0  0  0  0  0  0  0  0  0
    6.6842   -2.1662   22.4346 N   0  0  0  0  0  0  0  0  0  0  0  0
    8.0163   -2.1926   22.5578 C   0  0  0  0  0  0  0  0  0  0  0  0
    8.3919   -2.8424   23.3436 H   0  0  0  0  0  0  0  0  0  0  0  0
    8.8731   -1.4444   21.6970 C   0  0  0  0  0  0  0  0  0  0  0  0
   10.2511   -1.4101   21.7538 N   0  0  0  0  0  0  0  0  0  0  0  0
   10.6213   -0.6497   21.1894 H   0  0  0  0  0  0  0  0  0  0  0  0
   11.0097   -1.6067   22.9801 C   0  0  0  0  0  0  0  0  0  0  0  0
   12.0649   -1.6644   22.6771 H   0  0  0  0  0  0  0  0  0  0  0  0
   10.7447   -2.5838   23.4040 H   0  0  0  0  0  0  0  0  0  0  0  0
   10.8118   -0.5092   24.0578 C   0  0  0  0  0  0  0  0  0  0  0  0
   11.3135   -0.8192   24.9849 H   0  0  0  0  0  0  0  0  0  0  0  0
    9.7423   -0.4395   24.2940 H   0  0  0  0  0  0  0  0  0  0  0  0
   11.3537    0.8385   23.6207 C   0  0  0  0  0  0  0  0  0  0  0  0
   10.5097    1.9150   23.3231 C   0  0  0  0  0  0  0  0  0  0  0  0
    9.4405    1.8246   23.5101 H   0  0  0  0  0  0  0  0  0  0  0  0
   11.0305    3.1140   22.8193 C   0  0  0  0  0  0  0  0  0  0  0  0
   10.3597    3.9200   22.5455 H   0  0  0  0  0  0  0  0  0  0  0  0
   12.4079    3.2741   22.6466 C   0  0  0  0  0  0  0  0  0  0  0  0
   12.8134    4.2190   22.2917 H   0  0  0  0  0  0  0  0  0  0  0  0
   13.2647    2.2118   22.9512 C   0  0  0  0  0  0  0  0  0  0  0  0
   14.3364    2.3130   22.8045 H   0  0  0  0  0  0  0  0  0  0  0  0
   12.7337    1.0041   23.4160 C   0  0  0  0  0  0  0  0  0  0  0  0
   13.4005    0.1656   23.5847 H   0  0  0  0  0  0  0  0  0  0  0  0
    8.2466   -0.7251   20.6900 C   0  0  0  0  0  0  0  0  0  0  0  0
    8.8451   -0.1282   20.0064 H   0  0  0  0  0  0  0  0  0  0  0  0
    4.9778    0.7925   19.7794 C   0  0  0  0  0  0  0  0  0  0  0  0
    4.4567    0.7614   20.7379 H   0  0  0  0  0  0  0  0  0  0  0  0
    4.5078    1.5784   18.7239 C   0  0  0  0  0  0  0  0  0  0  0  0
    3.6278    2.2055   18.8188 H   0  0  0  0  0  0  0  0  0  0  0  0
  1  2  1  0
  2  3  2  0
  3  4  1  0
  4  5  1  0
  4  6  2  0
  6  7  1  0
  7  8  2  0
  8  9  1  0
  9 10  2  0
 10 11  1  0
 10 12  1  0
 12 13  1  0
 13 14  1  0
 13 15  1  0
 15 16  1  0
 15 17  1  0
 15 18  1  0
 18 19  1  0
 18 20  1  0
 18 21  1  0
 21 22  2  0
 22 23  1  0
 22 24  1  0
 24 25  1  0
 24 26  2  0
 26 27  1  0
 26 28  1  0
 28 29  1  0
 28 30  2  0
 30 31  1  0
 12 32  2  0
 32 33  1  0
  6 34  1  0
 34 35  1  0
 34 36  2  0
 36 37  1  0
 36  2  1  0
 32  7  1  0
 30 21  1  0
M  END
>  <cnnaffinity>  (1) 
-5.05377

>  <filename>  (1) 
c1ccc(CCNc2cnnc(-c3cccnc3)c2)cc1

$$$$
