
     RDKit          3D

 28 30  0  0  0  0  0  0  0  0999 V2000
    9.7471   -4.7724   25.1353 H   0  0  0  0  0  0  0  0  0  0  0  0
    9.0917   -4.3832   24.3612 C   0  0  0  0  0  0  0  0  0  0  0  0
    9.5762   -3.3728   23.6335 N   0  0  0  0  0  0  0  0  0  0  0  0
    8.7752   -2.8533   22.6757 C   0  0  0  0  0  0  0  0  0  0  0  0
    9.2873   -1.7178   21.8915 C   0  0  0  0  0  0  0  0  0  0  0  0
    8.6486   -0.7748   21.0991 C   0  0  0  0  0  0  0  0  0  0  0  0
    7.2848   -0.6984   20.9455 O   0  0  0  0  0  0  0  0  0  0  0  0
    6.6890    0.0113   19.9163 C   0  0  0  0  0  0  0  0  0  0  0  0
    7.1863    0.0550   18.6000 C   0  0  0  0  0  0  0  0  0  0  0  0
    8.1274   -0.4355   18.3654 H   0  0  0  0  0  0  0  0  0  0  0  0
    6.5645    0.6701   17.5856 N   0  0  0  0  0  0  0  0  0  0  0  0
    5.4039    1.2907   17.8421 C   0  0  0  0  0  0  0  0  0  0  0  0
    4.9155    1.7802   16.9984 H   0  0  0  0  0  0  0  0  0  0  0  0
    4.8210    1.3009   19.1152 C   0  0  0  0  0  0  0  0  0  0  0  0
    3.8854    1.8327   19.2674 H   0  0  0  0  0  0  0  0  0  0  0  0
    5.4624    0.6413   20.1730 C   0  0  0  0  0  0  0  0  0  0  0  0
    5.0292    0.6147   21.1731 H   0  0  0  0  0  0  0  0  0  0  0  0
    9.6616    0.0794   20.6333 C   0  0  0  0  0  0  0  0  0  0  0  0
    9.5552    0.9471   20.0032 H   0  0  0  0  0  0  0  0  0  0  0  0
   10.8483   -0.3054   21.0850 N   0  0  0  0  0  0  0  0  0  0  0  0
   10.6054   -1.3799   21.8226 N   0  0  0  0  0  0  0  0  0  0  0  0
   11.3683   -1.8441   22.2908 H   0  0  0  0  0  0  0  0  0  0  0  0
    7.4974   -3.3716   22.3978 C   0  0  0  0  0  0  0  0  0  0  0  0
    6.9145   -2.9278   21.6007 H   0  0  0  0  0  0  0  0  0  0  0  0
    7.0123   -4.4346   23.1549 C   0  0  0  0  0  0  0  0  0  0  0  0
    6.0206   -4.8427   22.9628 H   0  0  0  0  0  0  0  0  0  0  0  0
    7.8262   -4.9513   24.1643 C   0  0  0  0  0  0  0  0  0  0  0  0
    7.4953   -5.7761   24.7824 H   0  0  0  0  0  0  0  0  0  0  0  0
  1  2  1  0
  2  3  2  0
  3  4  1  0
  4  5  1  0
  5  6  2  0
  6  7  1  0
  7  8  1  0
  8  9  2  0
  9 10  1  0
  9 11  1  0
 11 12  2  0
 12 13  1  0
 12 14  1  0
 14 15  1  0
 14 16  2  0
 16 17  1  0
  6 18  1  0
 18 19  1  0
 18 20  2  0
 20 21  1  0
 21 22  1  0
  4 23  2  0
 23 24  1  0
 23 25  1  0
 25 26  1  0
 25 27  2  0
 27 28  1  0
 27  2  1  0
 21  5  1  0
 16  8  1  0
M  END
>  <cnnaffinity>  (1) 
-5.28721

>  <filename>  (1) 
c1ccc(-c2[nH]ncc2Oc2cccnc2)nc1

$$$$
