
     RDKit          3D

 37 39  0  0  0  0  0  0  0  0999 V2000
    9.4023   -0.2951   20.2859 H   0  0  0  0  0  0  0  0  0  0  0  0
    8.7783   -0.7845   21.0321 C   0  0  0  0  0  0  0  0  0  0  0  0
    9.4214   -1.4316   22.0229 N   0  0  0  0  0  0  0  0  0  0  0  0
    8.6552   -1.9722   22.9852 C   0  0  0  0  0  0  0  0  0  0  0  0
    9.1585   -2.5096   23.7862 H   0  0  0  0  0  0  0  0  0  0  0  0
    7.2256   -1.8489   22.9576 C   0  0  0  0  0  0  0  0  0  0  0  0
    6.3432   -2.2875   23.8902 N   0  0  0  0  0  0  0  0  0  0  0  0
    5.4190   -2.1404   23.4951 H   0  0  0  0  0  0  0  0  0  0  0  0
    6.6695   -3.2845   24.8688 C   0  0  0  0  0  0  0  0  0  0  0  0
    7.5458   -2.9238   25.4294 H   0  0  0  0  0  0  0  0  0  0  0  0
    5.8561   -3.3542   25.5999 H   0  0  0  0  0  0  0  0  0  0  0  0
    6.9960   -4.6879   24.3072 C   0  0  0  0  0  0  0  0  0  0  0  0
    7.7941   -4.5969   23.5611 H   0  0  0  0  0  0  0  0  0  0  0  0
    6.1199   -5.1110   23.8036 H   0  0  0  0  0  0  0  0  0  0  0  0
    7.4583   -5.5255   25.4699 C   0  0  0  0  0  0  0  0  0  0  0  0
    8.7837   -5.3997   25.9098 C   0  0  0  0  0  0  0  0  0  0  0  0
    9.5148   -4.8920   25.2855 H   0  0  0  0  0  0  0  0  0  0  0  0
    9.1394   -5.7876   27.1981 C   0  0  0  0  0  0  0  0  0  0  0  0
   10.1450   -5.6002   27.5667 H   0  0  0  0  0  0  0  0  0  0  0  0
    8.1965   -6.3956   28.0291 C   0  0  0  0  0  0  0  0  0  0  0  0
    8.4819   -6.7240   29.0164 H   0  0  0  0  0  0  0  0  0  0  0  0
    6.8900   -6.5964   27.5824 C   0  0  0  0  0  0  0  0  0  0  0  0
    6.1578   -7.0691   28.2292 H   0  0  0  0  0  0  0  0  0  0  0  0
    6.5264   -6.1523   26.3087 C   0  0  0  0  0  0  0  0  0  0  0  0
    5.5003   -6.2554   25.9818 H   0  0  0  0  0  0  0  0  0  0  0  0
    6.5910   -1.2361   21.9543 N   0  0  0  0  0  0  0  0  0  0  0  0
    7.3586   -0.7020   20.9945 C   0  0  0  0  0  0  0  0  0  0  0  0
    6.6224   -0.0059   19.9300 C   0  0  0  0  0  0  0  0  0  0  0  0
    7.1508    0.0097   18.6362 C   0  0  0  0  0  0  0  0  0  0  0  0
    8.0801   -0.5190   18.4268 H   0  0  0  0  0  0  0  0  0  0  0  0
    6.5796    0.6323   17.6042 N   0  0  0  0  0  0  0  0  0  0  0  0
    5.4318    1.2822   17.8460 C   0  0  0  0  0  0  0  0  0  0  0  0
    4.9923    1.7998   16.9986 H   0  0  0  0  0  0  0  0  0  0  0  0
    4.8035    1.3082   19.0966 C   0  0  0  0  0  0  0  0  0  0  0  0
    3.8772    1.8562   19.2222 H   0  0  0  0  0  0  0  0  0  0  0  0
    5.3975    0.6403   20.1620 C   0  0  0  0  0  0  0  0  0  0  0  0
    4.9365    0.6098   21.1526 H   0  0  0  0  0  0  0  0  0  0  0  0
  1  2  1  0
  2  3  2  0
  3  4  1  0
  4  5  1  0
  4  6  2  0
  6  7  1  0
  7  8  1  0
  7  9  1  0
  9 10  1  0
  9 11  1  0
  9 12  1  0
 12 13  1  0
 12 14  1  0
 12 15  1  0
 15 16  2  0
 16 17  1  0
 16 18  1  0
 18 19  1  0
 18 20  2  0
 20 21  1  0
 20 22  1  0
 22 23  1  0
 22 24  2  0
 24 25  1  0
  6 26  1  0
 26 27  2  0
 27 28  1  0
 28 29  2  0
 29 30  1  0
 29 31  1  0
 31 32  2  0
 32 33  1  0
 32 34  1  0
 34 35  1  0
 34 36  2  0
 36 37  1  0
 27  2  1  0
 36 28  1  0
 24 15  1  0
M  END
>  <cnnaffinity>  (1) 
-5.40603

>  <filename>  (1) 
c1ccc(CCNc2cncc(-c3cccnc3)n2)cc1

$$$$
