
     RDKit          3D

 47 51  0  0  0  0  0  0  0  0999 V2000
    4.9694    1.8450   16.9580 H   0  0  0  0  0  0  0  0  0  0  0  0
    5.4109    1.2998   17.7913 C   0  0  0  0  0  0  0  0  0  0  0  0
    6.5517    0.6407   17.5392 N   0  0  0  0  0  0  0  0  0  0  0  0
    7.1375   -0.0113   18.5491 C   0  0  0  0  0  0  0  0  0  0  0  0
    8.0688   -0.5239   18.3182 H   0  0  0  0  0  0  0  0  0  0  0  0
    6.6331   -0.0188   19.8604 C   0  0  0  0  0  0  0  0  0  0  0  0
    7.3894   -0.6652   20.9353 C   0  0  0  0  0  0  0  0  0  0  0  0
    8.2386   -1.7338   20.7472 N   0  0  0  0  0  0  0  0  0  0  0  0
    8.7009   -1.9683   21.9372 C   0  0  0  0  0  0  0  0  0  0  0  0
    8.2518   -1.1292   22.9062 N   0  0  0  0  0  0  0  0  0  0  0  0
    7.4006   -0.2654   22.2725 C   0  0  0  0  0  0  0  0  0  0  0  0
    6.9102    0.8592   22.8764 N   0  0  0  0  0  0  0  0  0  0  0  0
    6.3507    0.8181   24.2269 C   0  0  0  0  0  0  0  0  0  0  0  0
    5.8826   -0.1581   24.3882 H   0  0  0  0  0  0  0  0  0  0  0  0
    7.1237    0.9559   25.0008 H   0  0  0  0  0  0  0  0  0  0  0  0
    5.3014    1.9322   24.3327 C   0  0  0  0  0  0  0  0  0  0  0  0
    4.8593    1.9580   25.3343 H   0  0  0  0  0  0  0  0  0  0  0  0
    4.4871    1.6859   23.6288 H   0  0  0  0  0  0  0  0  0  0  0  0
    5.9055    3.2223   23.9865 N   0  0  0  0  0  0  0  0  0  0  0  0
    5.4436    4.4002   24.5912 C   0  0  0  0  0  0  0  0  0  0  0  0
    4.8929    5.4684   23.8611 C   0  0  0  0  0  0  0  0  0  0  0  0
    4.7703    5.3596   22.7858 H   0  0  0  0  0  0  0  0  0  0  0  0
    4.5153    6.6405   24.5226 C   0  0  0  0  0  0  0  0  0  0  0  0
    4.0959    7.4661   23.9534 H   0  0  0  0  0  0  0  0  0  0  0  0
    4.6958    6.7603   25.9045 C   0  0  0  0  0  0  0  0  0  0  0  0
    4.4232    7.6807   26.4101 H   0  0  0  0  0  0  0  0  0  0  0  0
    5.2396    5.6960   26.6327 C   0  0  0  0  0  0  0  0  0  0  0  0
    5.3888    5.7823   27.7050 H   0  0  0  0  0  0  0  0  0  0  0  0
    5.5930    4.5158   25.9821 C   0  0  0  0  0  0  0  0  0  0  0  0
    6.0241    3.6675   26.5076 H   0  0  0  0  0  0  0  0  0  0  0  0
    6.4287    3.2402   22.6244 C   0  0  0  0  0  0  0  0  0  0  0  0
    6.8659    4.2167   22.3895 H   0  0  0  0  0  0  0  0  0  0  0  0
    5.6330    3.0387   21.8849 H   0  0  0  0  0  0  0  0  0  0  0  0
    7.4853    2.1528   22.4712 C   0  0  0  0  0  0  0  0  0  0  0  0
    8.3744    2.3892   23.0762 H   0  0  0  0  0  0  0  0  0  0  0  0
    7.8077    2.0861   21.4292 H   0  0  0  0  0  0  0  0  0  0  0  0
    8.8821   -1.1643   24.2182 C   0  0  0  0  0  0  0  0  0  0  0  0
    9.1366   -0.1619   24.5750 H   0  0  0  0  0  0  0  0  0  0  0  0
    8.2009   -1.6272   24.9359 H   0  0  0  0  0  0  0  0  0  0  0  0
   10.1650   -1.9877   23.9980 C   0  0  0  0  0  0  0  0  0  0  0  0
   10.9871   -1.3269   23.7093 H   0  0  0  0  0  0  0  0  0  0  0  0
   10.4616   -2.5928   24.8547 H   0  0  0  0  0  0  0  0  0  0  0  0
    9.8362   -3.1171   22.6070 S   0  0  0  0  0  0  0  0  0  0  0  0
    5.4276    0.6641   20.1013 C   0  0  0  0  0  0  0  0  0  0  0  0
    5.0047    0.6884   21.1044 H   0  0  0  0  0  0  0  0  0  0  0  0
    4.7973    1.3185   19.0467 C   0  0  0  0  0  0  0  0  0  0  0  0
    3.8695    1.8618   19.1860 H   0  0  0  0  0  0  0  0  0  0  0  0
  1  2  1  0
  2  3  2  0
  3  4  1  0
  4  5  1  0
  4  6  2  0
  6  7  1  0
  7  8  1  0
  8  9  2  0
  9 10  1  0
 10 11  1  0
 11 12  1  0
 12 13  1  0
 13 14  1  0
 13 15  1  0
 13 16  1  0
 16 17  1  0
 16 18  1  0
 16 19  1  0
 19 20  1  0
 20 21  2  0
 21 22  1  0
 21 23  1  0
 23 24  1  0
 23 25  2  0
 25 26  1  0
 25 27  1  0
 27 28  1  0
 27 29  2  0
 29 30  1  0
 19 31  1  0
 31 32  1  0
 31 33  1  0
 31 34  1  0
 34 35  1  0
 34 36  1  0
 10 37  1  0
 37 38  1  0
 37 39  1  0
 37 40  1  0
 40 41  1  0
 40 42  1  0
 40 43  1  0
  6 44  1  0
 44 45  1  0
 44 46  2  0
 46 47  1  0
 46  2  1  0
 11  7  2  0
 34 12  1  0
 43  9  1  0
 29 20  1  0
M  END
>  <cnnaffinity>  (1) 
-5.548

>  <filename>  (1) 
c1ccc(N2CCN(c3c(-c4cccnc4)nc4n3CCS4)CC2)cc1

$$$$
