
     RDKit          3D

 28 30  0  0  0  0  0  0  0  0999 V2000
    3.6324   -4.1140   24.4460 H   0  0  0  0  0  0  0  0  0  0  0  0
    4.7088   -4.0365   24.5882 C   0  0  0  0  0  0  0  0  0  0  0  0
    5.3511   -3.2546   23.7149 N   0  0  0  0  0  0  0  0  0  0  0  0
    6.6828   -3.0954   23.8524 C   0  0  0  0  0  0  0  0  0  0  0  0
    7.3827   -2.1864   22.8639 C   0  0  0  0  0  0  0  0  0  0  0  0
    8.7196   -2.0338   22.9902 N   0  0  0  0  0  0  0  0  0  0  0  0
    9.3942   -1.2439   22.1537 N   0  0  0  0  0  0  0  0  0  0  0  0
    8.7517   -0.6052   21.1726 C   0  0  0  0  0  0  0  0  0  0  0  0
    9.3582    0.0306   20.5348 H   0  0  0  0  0  0  0  0  0  0  0  0
    7.3606   -0.7094   20.9670 C   0  0  0  0  0  0  0  0  0  0  0  0
    6.6523    0.0216   19.8859 C   0  0  0  0  0  0  0  0  0  0  0  0
    7.1591    0.0761   18.5744 C   0  0  0  0  0  0  0  0  0  0  0  0
    8.1015   -0.4215   18.3572 H   0  0  0  0  0  0  0  0  0  0  0  0
    6.5499    0.6838   17.5513 N   0  0  0  0  0  0  0  0  0  0  0  0
    5.3907    1.3038   17.8211 C   0  0  0  0  0  0  0  0  0  0  0  0
    4.9134    1.7956   16.9797 H   0  0  0  0  0  0  0  0  0  0  0  0
    4.7982    1.3237   19.0903 C   0  0  0  0  0  0  0  0  0  0  0  0
    3.8668    1.8495   19.2472 H   0  0  0  0  0  0  0  0  0  0  0  0
    5.4299    0.6589   20.1413 C   0  0  0  0  0  0  0  0  0  0  0  0
    5.0210    0.6350   21.1567 H   0  0  0  0  0  0  0  0  0  0  0  0
    6.6691   -1.5278   21.8497 C   0  0  0  0  0  0  0  0  0  0  0  0
    5.5965   -1.6805   21.7516 H   0  0  0  0  0  0  0  0  0  0  0  0
    7.3984   -3.7577   24.8672 C   0  0  0  0  0  0  0  0  0  0  0  0
    8.4643   -3.6037   24.9213 H   0  0  0  0  0  0  0  0  0  0  0  0
    6.7224   -4.5889   25.7626 C   0  0  0  0  0  0  0  0  0  0  0  0
    7.2664   -5.1128   26.5535 H   0  0  0  0  0  0  0  0  0  0  0  0
    5.3416   -4.7297   25.6239 C   0  0  0  0  0  0  0  0  0  0  0  0
    4.7601   -5.3603   26.2905 H   0  0  0  0  0  0  0  0  0  0  0  0
  1  2  1  0
  2  3  2  0
  3  4  1  0
  4  5  1  0
  5  6  2  0
  6  7  1  0
  7  8  2  0
  8  9  1  0
  8 10  1  0
 10 11  1  0
 11 12  2  0
 12 13  1  0
 12 14  1  0
 14 15  2  0
 15 16  1  0
 15 17  1  0
 17 18  1  0
 17 19  2  0
 19 20  1  0
 10 21  2  0
 21 22  1  0
  4 23  2  0
 23 24  1  0
 23 25  1  0
 25 26  1  0
 25 27  2  0
 27 28  1  0
 27  2  1  0
 21  5  1  0
 19 11  1  0
M  END
>  <cnnaffinity>  (1) 
-4.83825

>  <filename>  (1) 
c1ccc(-c2cc(-c3cccnc3)cnn2)nc1

$$$$
