
     RDKit          3D

 37 40  0  0  0  0  0  0  0  0999 V2000
    5.0382    1.8211   16.7620 H   0  0  0  0  0  0  0  0  0  0  0  0
    5.4490    1.2659   17.6020 C   0  0  0  0  0  0  0  0  0  0  0  0
    6.5832    0.5881   17.3674 N   0  0  0  0  0  0  0  0  0  0  0  0
    7.1501   -0.0466   18.3984 C   0  0  0  0  0  0  0  0  0  0  0  0
    8.0623   -0.5955   18.1741 H   0  0  0  0  0  0  0  0  0  0  0  0
    6.6401   -0.0222   19.7117 C   0  0  0  0  0  0  0  0  0  0  0  0
    7.4367   -0.5456   20.8403 C   0  0  0  0  0  0  0  0  0  0  0  0
    8.6315   -1.1280   20.6312 N   0  0  0  0  0  0  0  0  0  0  0  0
    9.0466   -1.4197   21.8785 N   0  0  0  0  0  0  0  0  0  0  0  0
   10.1175   -2.1176   22.4142 C   0  0  0  0  0  0  0  0  0  0  0  0
   10.8635   -2.5398   21.7638 H   0  0  0  0  0  0  0  0  0  0  0  0
    9.9088   -2.1336   23.7554 C   0  0  0  0  0  0  0  0  0  0  0  0
   10.4600   -2.5897   24.5610 H   0  0  0  0  0  0  0  0  0  0  0  0
    8.7412   -1.4392   24.0358 N   0  0  0  0  0  0  0  0  0  0  0  0
    8.0840   -1.3864   25.2585 N   0  0  0  0  0  0  0  0  0  0  0  0
    7.1875   -0.9348   25.0765 H   0  0  0  0  0  0  0  0  0  0  0  0
    8.8161   -0.6409   26.3031 C   0  0  0  0  0  0  0  0  0  0  0  0
    9.5192    0.0727   25.8484 H   0  0  0  0  0  0  0  0  0  0  0  0
    9.4214   -1.3712   26.8619 H   0  0  0  0  0  0  0  0  0  0  0  0
    7.8985    0.1031   27.2566 C   0  0  0  0  0  0  0  0  0  0  0  0
    8.1160    1.4675   27.5074 C   0  0  0  0  0  0  0  0  0  0  0  0
    8.9234    1.9725   26.9793 H   0  0  0  0  0  0  0  0  0  0  0  0
    7.3693    2.1573   28.4689 C   0  0  0  0  0  0  0  0  0  0  0  0
    7.5740    3.2130   28.6501 H   0  0  0  0  0  0  0  0  0  0  0  0
    6.3622    1.4948   29.1727 C   0  0  0  0  0  0  0  0  0  0  0  0
    5.7597    2.0374   29.9019 H   0  0  0  0  0  0  0  0  0  0  0  0
    6.1300    0.1342   28.9331 C   0  0  0  0  0  0  0  0  0  0  0  0
    5.3787   -0.3986   29.5111 H   0  0  0  0  0  0  0  0  0  0  0  0
    6.8880   -0.5539   27.9781 C   0  0  0  0  0  0  0  0  0  0  0  0
    6.7201   -1.6187   27.8224 H   0  0  0  0  0  0  0  0  0  0  0  0
    8.1858   -1.0348   22.8459 C   0  0  0  0  0  0  0  0  0  0  0  0
    7.0979   -0.4602   22.2110 C   0  0  0  0  0  0  0  0  0  0  0  0
    6.2003   -0.0619   22.6517 H   0  0  0  0  0  0  0  0  0  0  0  0
    5.3969    0.6075   19.9097 C   0  0  0  0  0  0  0  0  0  0  0  0
    4.9000    0.5915   20.8807 H   0  0  0  0  0  0  0  0  0  0  0  0
    4.8059    1.2786   18.8434 C   0  0  0  0  0  0  0  0  0  0  0  0
    3.8874    1.8428   18.9697 H   0  0  0  0  0  0  0  0  0  0  0  0
  1  2  1  0
  2  3  2  0
  3  4  1  0
  4  5  1  0
  4  6  2  0
  6  7  1  0
  7  8  2  0
  8  9  1  0
  9 10  1  0
 10 11  1  0
 10 12  2  0
 12 13  1  0
 12 14  1  0
 14 15  1  0
 15 16  1  0
 15 17  1  0
 17 18  1  0
 17 19  1  0
 17 20  1  0
 20 21  2  0
 21 22  1  0
 21 23  1  0
 23 24  1  0
 23 25  2  0
 25 26  1  0
 25 27  1  0
 27 28  1  0
 27 29  2  0
 29 30  1  0
 14 31  1  0
 31 32  2  0
 32 33  1  0
  6 34  1  0
 34 35  1  0
 34 36  2  0
 36 37  1  0
 36  2  1  0
 32  7  1  0
 31  9  1  0
 29 20  1  0
M  END
>  <cnnaffinity>  (1) 
-4.89352

>  <filename>  (1) 
c1ccc(CNn2ccn3nc(-c4cccnc4)cc23)cc1

$$$$
