
     RDKit          3D

 43 46  0  0  0  0  0  0  0  0999 V2000
    4.9588    1.8528   16.9289 H   0  0  0  0  0  0  0  0  0  0  0  0
    5.4002    1.3090   17.7623 C   0  0  0  0  0  0  0  0  0  0  0  0
    6.5440    0.6559   17.5047 N   0  0  0  0  0  0  0  0  0  0  0  0
    7.1264    0.0152   18.5234 C   0  0  0  0  0  0  0  0  0  0  0  0
    8.0490   -0.5150   18.2912 H   0  0  0  0  0  0  0  0  0  0  0  0
    6.6219    0.0191   19.8374 C   0  0  0  0  0  0  0  0  0  0  0  0
    7.3820   -0.5894   20.9320 C   0  0  0  0  0  0  0  0  0  0  0  0
    8.1023   -1.6940   20.7365 N   0  0  0  0  0  0  0  0  0  0  0  0
    8.6356   -1.9249   21.9331 N   0  0  0  0  0  0  0  0  0  0  0  0
    8.3441   -1.0305   22.8860 C   0  0  0  0  0  0  0  0  0  0  0  0
    7.4825   -0.1188   22.2964 C   0  0  0  0  0  0  0  0  0  0  0  0
    6.7627    0.9418   22.8804 N   0  0  0  0  0  0  0  0  0  0  0  0
    6.8764    1.8066   22.3570 H   0  0  0  0  0  0  0  0  0  0  0  0
    6.7517    1.1103   24.3197 C   0  0  0  0  0  0  0  0  0  0  0  0
    6.8577    0.1161   24.7722 H   0  0  0  0  0  0  0  0  0  0  0  0
    5.7627    1.4817   24.6324 H   0  0  0  0  0  0  0  0  0  0  0  0
    7.8212    2.0586   24.8928 C   0  0  0  0  0  0  0  0  0  0  0  0
    7.7222    3.0631   24.4504 H   0  0  0  0  0  0  0  0  0  0  0  0
    8.8204    1.6888   24.6242 H   0  0  0  0  0  0  0  0  0  0  0  0
    7.6825    2.1386   26.3997 C   0  0  0  0  0  0  0  0  0  0  0  0
    6.8597    3.1134   26.9859 C   0  0  0  0  0  0  0  0  0  0  0  0
    6.3419    3.8302   26.3519 H   0  0  0  0  0  0  0  0  0  0  0  0
    6.6663    3.1541   28.3709 C   0  0  0  0  0  0  0  0  0  0  0  0
    6.0295    3.9204   28.8049 H   0  0  0  0  0  0  0  0  0  0  0  0
    7.2720    2.1977   29.1901 C   0  0  0  0  0  0  0  0  0  0  0  0
    7.1255    2.2303   30.2668 H   0  0  0  0  0  0  0  0  0  0  0  0
    8.0634    1.1989   28.6179 C   0  0  0  0  0  0  0  0  0  0  0  0
    8.5423    0.4533   29.2480 H   0  0  0  0  0  0  0  0  0  0  0  0
    8.2735    1.1741   27.2326 C   0  0  0  0  0  0  0  0  0  0  0  0
    8.9347    0.4154   26.8135 H   0  0  0  0  0  0  0  0  0  0  0  0
    9.1450   -1.3521   24.1239 C   0  0  0  0  0  0  0  0  0  0  0  0
    8.4840   -1.5868   24.9641 H   0  0  0  0  0  0  0  0  0  0  0  0
    9.7898   -0.5120   24.4040 H   0  0  0  0  0  0  0  0  0  0  0  0
   10.0025   -2.5821   23.7149 C   0  0  0  0  0  0  0  0  0  0  0  0
   11.0555   -2.3274   23.6661 H   0  0  0  0  0  0  0  0  0  0  0  0
    9.8998   -3.4057   24.4230 H   0  0  0  0  0  0  0  0  0  0  0  0
    9.5571   -2.9694   22.2856 C   0  0  0  0  0  0  0  0  0  0  0  0
   10.3914   -2.9194   21.5882 H   0  0  0  0  0  0  0  0  0  0  0  0
    9.0670   -3.9441   22.2272 H   0  0  0  0  0  0  0  0  0  0  0  0
    5.3953    0.6585   20.0769 C   0  0  0  0  0  0  0  0  0  0  0  0
    4.9541    0.6389   21.0762 H   0  0  0  0  0  0  0  0  0  0  0  0
    4.7798    1.3154   19.0159 C   0  0  0  0  0  0  0  0  0  0  0  0
    3.8502    1.8535   19.1520 H   0  0  0  0  0  0  0  0  0  0  0  0
  1  2  1  0
  2  3  2  0
  3  4  1  0
  4  5  1  0
  4  6  2  0
  6  7  1  0
  7  8  2  0
  8  9  1  0
  9 10  1  0
 10 11  2  0
 11 12  1  0
 12 13  1  0
 12 14  1  0
 14 15  1  0
 14 16  1  0
 14 17  1  0
 17 18  1  0
 17 19  1  0
 17 20  1  0
 20 21  2  0
 21 22  1  0
 21 23  1  0
 23 24  1  0
 23 25  2  0
 25 26  1  0
 25 27  1  0
 27 28  1  0
 27 29  2  0
 29 30  1  0
 10 31  1  0
 31 32  1  0
 31 33  1  0
 31 34  1  0
 34 35  1  0
 34 36  1  0
 34 37  1  0
 37 38  1  0
 37 39  1  0
  6 40  1  0
 40 41  1  0
 40 42  2  0
 42 43  1  0
 42  2  1  0
 11  7  1  0
 29 20  1  0
 37  9  1  0
M  END
>  <cnnaffinity>  (1) 
-5.4654

>  <filename>  (1) 
c1ccc(CCNc2c(-c3cccnc3)nn3c2CCC3)cc1

$$$$
