
     RDKit          3D

 30 33  0  0  0  0  0  0  0  0999 V2000
    4.9091    1.7701   17.0074 H   0  0  0  0  0  0  0  0  0  0  0  0
    5.4050    1.2878   17.8488 C   0  0  0  0  0  0  0  0  0  0  0  0
    6.5743    0.6751   17.5949 N   0  0  0  0  0  0  0  0  0  0  0  0
    7.1849    0.0549   18.6125 C   0  0  0  0  0  0  0  0  0  0  0  0
    8.1324   -0.4372   18.3825 H   0  0  0  0  0  0  0  0  0  0  0  0
    6.6541    0.0116   19.9089 C   0  0  0  0  0  0  0  0  0  0  0  0
    7.3626   -0.6914   20.9679 C   0  0  0  0  0  0  0  0  0  0  0  0
    8.5472   -1.3288   20.7620 N   0  0  0  0  0  0  0  0  0  0  0  0
    8.7907   -1.8081   21.9610 C   0  0  0  0  0  0  0  0  0  0  0  0
    9.9831   -2.8234   22.7142 S   0  0  0  0  0  0  0  0  0  0  0  0
    9.0810   -2.7653   24.2047 C   0  0  0  0  0  0  0  0  0  0  0  0
    9.4531   -3.2887   25.0722 H   0  0  0  0  0  0  0  0  0  0  0  0
    7.9603   -2.0158   24.1256 C   0  0  0  0  0  0  0  0  0  0  0  0
    6.9700   -1.7652   25.1961 C   0  0  0  0  0  0  0  0  0  0  0  0
    6.2428   -0.5600   25.2788 C   0  0  0  0  0  0  0  0  0  0  0  0
    6.3970    0.2193   24.5381 H   0  0  0  0  0  0  0  0  0  0  0  0
    5.3299   -0.3642   26.3138 C   0  0  0  0  0  0  0  0  0  0  0  0
    4.7730    0.5668   26.3662 H   0  0  0  0  0  0  0  0  0  0  0  0
    5.1317   -1.3536   27.2818 C   0  0  0  0  0  0  0  0  0  0  0  0
    4.4205   -1.1926   28.0862 H   0  0  0  0  0  0  0  0  0  0  0  0
    5.8543   -2.5473   27.2128 C   0  0  0  0  0  0  0  0  0  0  0  0
    5.7048   -3.3163   27.9642 H   0  0  0  0  0  0  0  0  0  0  0  0
    6.7682   -2.7530   26.1804 C   0  0  0  0  0  0  0  0  0  0  0  0
    7.3133   -3.6932   26.1355 H   0  0  0  0  0  0  0  0  0  0  0  0
    7.8264   -1.4741   22.8403 N   0  0  0  0  0  0  0  0  0  0  0  0
    6.8709   -0.7488   22.2033 N   0  0  0  0  0  0  0  0  0  0  0  0
    5.4372    0.6545   20.1628 C   0  0  0  0  0  0  0  0  0  0  0  0
    5.0073    0.6287   21.1630 H   0  0  0  0  0  0  0  0  0  0  0  0
    4.8057    1.3105   19.1138 C   0  0  0  0  0  0  0  0  0  0  0  0
    3.8719    1.8452   19.2676 H   0  0  0  0  0  0  0  0  0  0  0  0
  1  2  1  0
  2  3  2  0
  3  4  1  0
  4  5  1  0
  4  6  2  0
  6  7  1  0
  7  8  1  0
  8  9  2  0
  9 10  1  0
 10 11  1  0
 11 12  1  0
 11 13  2  0
 13 14  1  0
 14 15  2  0
 15 16  1  0
 15 17  1  0
 17 18  1  0
 17 19  2  0
 19 20  1  0
 19 21  1  0
 21 22  1  0
 21 23  2  0
 23 24  1  0
 13 25  1  0
 25 26  1  0
  6 27  1  0
 27 28  1  0
 27 29  2  0
 29 30  1  0
 29  2  1  0
 26  7  2  0
 25  9  1  0
 23 14  1  0
M  END
>  <cnnaffinity>  (1) 
-5.3243

>  <filename>  (1) 
c1ccc(-c2csc3nc(-c4cccnc4)nn23)cc1

$$$$
