
     RDKit          3D

 33 36  0  0  0  0  0  0  0  0999 V2000
    4.9363    1.7999   16.9745 H   0  0  0  0  0  0  0  0  0  0  0  0
    5.4106    1.3042   17.8195 C   0  0  0  0  0  0  0  0  0  0  0  0
    6.5834    0.7011   17.5681 N   0  0  0  0  0  0  0  0  0  0  0  0
    7.1945    0.0961   18.5909 C   0  0  0  0  0  0  0  0  0  0  0  0
    8.1490   -0.3810   18.3752 H   0  0  0  0  0  0  0  0  0  0  0  0
    6.6584    0.0220   19.8848 C   0  0  0  0  0  0  0  0  0  0  0  0
    7.3891   -0.7162   20.9106 C   0  0  0  0  0  0  0  0  0  0  0  0
    8.7421   -0.5422   21.1165 N   0  0  0  0  0  0  0  0  0  0  0  0
    9.0028   -1.3190   22.1341 C   0  0  0  0  0  0  0  0  0  0  0  0
   10.4040   -1.7010   23.1124 S   0  0  0  0  0  0  0  0  0  0  0  0
    9.4432   -2.8242   24.0713 C   0  0  0  0  0  0  0  0  0  0  0  0
    9.9132   -3.3701   24.8801 H   0  0  0  0  0  0  0  0  0  0  0  0
    8.1680   -2.8817   23.6667 C   0  0  0  0  0  0  0  0  0  0  0  0
    7.3427   -3.4701   24.0602 H   0  0  0  0  0  0  0  0  0  0  0  0
    7.9261   -2.0488   22.5739 N   0  0  0  0  0  0  0  0  0  0  0  0
    6.8662   -1.6863   21.7620 C   0  0  0  0  0  0  0  0  0  0  0  0
    5.6522   -2.3242   21.8092 N   0  0  0  0  0  0  0  0  0  0  0  0
    4.8299   -1.7404   21.8481 H   0  0  0  0  0  0  0  0  0  0  0  0
    5.4239   -3.6728   22.1037 C   0  0  0  0  0  0  0  0  0  0  0  0
    6.2746   -4.6787   21.6283 C   0  0  0  0  0  0  0  0  0  0  0  0
    7.1711   -4.3809   21.0931 H   0  0  0  0  0  0  0  0  0  0  0  0
    5.9447   -6.0172   21.8711 C   0  0  0  0  0  0  0  0  0  0  0  0
    6.6062   -6.8008   21.5206 H   0  0  0  0  0  0  0  0  0  0  0  0
    4.7401   -6.3508   22.5024 C   0  0  0  0  0  0  0  0  0  0  0  0
    4.4428   -7.3879   22.6136 H   0  0  0  0  0  0  0  0  0  0  0  0
    3.9074   -5.3374   22.9924 C   0  0  0  0  0  0  0  0  0  0  0  0
    2.9554   -5.5788   23.4642 H   0  0  0  0  0  0  0  0  0  0  0  0
    4.2841   -4.0011   22.8412 C   0  0  0  0  0  0  0  0  0  0  0  0
    3.7579   -3.1968   23.3380 H   0  0  0  0  0  0  0  0  0  0  0  0
    5.4272    0.6533   20.1329 C   0  0  0  0  0  0  0  0  0  0  0  0
    4.9926    0.6553   21.1353 H   0  0  0  0  0  0  0  0  0  0  0  0
    4.8005    1.3148   19.0788 C   0  0  0  0  0  0  0  0  0  0  0  0
    3.8649    1.8439   19.2193 H   0  0  0  0  0  0  0  0  0  0  0  0
  1  2  1  0
  2  3  2  0
  3  4  1  0
  4  5  1  0
  4  6  2  0
  6  7  1  0
  7  8  1  0
  8  9  2  0
  9 10  1  0
 10 11  1  0
 11 12  1  0
 11 13  2  0
 13 14  1  0
 13 15  1  0
 15 16  1  0
 16 17  1  0
 17 18  1  0
 17 19  1  0
 19 20  2  0
 20 21  1  0
 20 22  1  0
 22 23  1  0
 22 24  2  0
 24 25  1  0
 24 26  1  0
 26 27  1  0
 26 28  2  0
 28 29  1  0
  6 30  1  0
 30 31  1  0
 30 32  2  0
 32 33  1  0
 32  2  1  0
 16  7  2  0
 28 19  1  0
 15  9  1  0
M  END
>  <cnnaffinity>  (1) 
-5.73764

>  <filename>  (1) 
c1ccc(Nc2c(-c3cccnc3)nc3sccn23)cc1

$$$$
