
     RDKit          3D

 37 39  0  0  0  0  0  0  0  0999 V2000
    4.9478    1.8042   16.9834 H   0  0  0  0  0  0  0  0  0  0  0  0
    5.4127    1.2960   17.8256 C   0  0  0  0  0  0  0  0  0  0  0  0
    6.5699    0.6652   17.5738 N   0  0  0  0  0  0  0  0  0  0  0  0
    7.1667    0.0490   18.6065 C   0  0  0  0  0  0  0  0  0  0  0  0
    8.1063   -0.4536   18.3777 H   0  0  0  0  0  0  0  0  0  0  0  0
    6.6573    0.0092   19.9200 C   0  0  0  0  0  0  0  0  0  0  0  0
    7.3830   -0.6834   21.0168 C   0  0  0  0  0  0  0  0  0  0  0  0
    6.5998   -1.9118   21.9494 S   0  0  0  0  0  0  0  0  0  0  0  0
    8.0156   -2.2058   22.8824 C   0  0  0  0  0  0  0  0  0  0  0  0
    8.0050   -2.9516   23.6670 H   0  0  0  0  0  0  0  0  0  0  0  0
    9.0353   -1.3915   22.4977 C   0  0  0  0  0  0  0  0  0  0  0  0
   10.0270   -1.3872   22.9424 H   0  0  0  0  0  0  0  0  0  0  0  0
    8.6799   -0.4980   21.4402 C   0  0  0  0  0  0  0  0  0  0  0  0
    9.5726    0.5777   20.8945 C   0  0  0  0  0  0  0  0  0  0  0  0
    9.6422    0.4363   19.8132 H   0  0  0  0  0  0  0  0  0  0  0  0
   10.5886    0.4598   21.2946 H   0  0  0  0  0  0  0  0  0  0  0  0
    9.0518    2.0040   21.1414 C   0  0  0  0  0  0  0  0  0  0  0  0
    8.1210    2.1459   20.5852 H   0  0  0  0  0  0  0  0  0  0  0  0
    9.7878    2.7045   20.7330 H   0  0  0  0  0  0  0  0  0  0  0  0
    8.8259    2.3803   22.6168 C   0  0  0  0  0  0  0  0  0  0  0  0
    8.3956    3.3909   22.6651 H   0  0  0  0  0  0  0  0  0  0  0  0
    8.0762    1.7086   23.0574 H   0  0  0  0  0  0  0  0  0  0  0  0
   10.1261    2.2974   23.3864 C   0  0  0  0  0  0  0  0  0  0  0  0
   11.1813    3.1917   23.1015 C   0  0  0  0  0  0  0  0  0  0  0  0
   10.9942    4.0712   22.4793 H   0  0  0  0  0  0  0  0  0  0  0  0
   12.4613    2.9418   23.6037 C   0  0  0  0  0  0  0  0  0  0  0  0
   13.2977    3.5979   23.3693 H   0  0  0  0  0  0  0  0  0  0  0  0
   12.6830    1.8209   24.4087 C   0  0  0  0  0  0  0  0  0  0  0  0
   13.6876    1.5929   24.7274 H   0  0  0  0  0  0  0  0  0  0  0  0
   11.6218    1.0136   24.8179 C   0  0  0  0  0  0  0  0  0  0  0  0
   11.7876    0.2279   25.5525 H   0  0  0  0  0  0  0  0  0  0  0  0
   10.3429    1.2574   24.3063 C   0  0  0  0  0  0  0  0  0  0  0  0
    9.4932    0.6777   24.6671 H   0  0  0  0  0  0  0  0  0  0  0  0
    5.4282    0.6555   20.1462 C   0  0  0  0  0  0  0  0  0  0  0  0
    4.9948    0.6549   21.1463 H   0  0  0  0  0  0  0  0  0  0  0  0
    4.8026    1.3127   19.0853 C   0  0  0  0  0  0  0  0  0  0  0  0
    3.8645    1.8415   19.2238 H   0  0  0  0  0  0  0  0  0  0  0  0
  1  2  1  0
  2  3  2  0
  3  4  1  0
  4  5  1  0
  4  6  2  0
  6  7  1  0
  7  8  1  0
  8  9  1  0
  9 10  1  0
  9 11  2  0
 11 12  1  0
 11 13  1  0
 13 14  1  0
 14 15  1  0
 14 16  1  0
 14 17  1  0
 17 18  1  0
 17 19  1  0
 17 20  1  0
 20 21  1  0
 20 22  1  0
 20 23  1  0
 23 24  2  0
 24 25  1  0
 24 26  1  0
 26 27  1  0
 26 28  2  0
 28 29  1  0
 28 30  1  0
 30 31  1  0
 30 32  2  0
 32 33  1  0
  6 34  1  0
 34 35  1  0
 34 36  2  0
 36 37  1  0
 36  2  1  0
 13  7  2  0
 32 23  1  0
M  END
>  <cnnaffinity>  (1) 
-5.39052

>  <filename>  (1) 
c1ccc(CCCc2ccsc2-c2cccnc2)cc1

$$$$
