
     RDKit          3D

 46 50  0  0  0  0  0  0  0  0999 V2000
    5.0043    1.8346   16.8276 H   0  0  0  0  0  0  0  0  0  0  0  0
    5.4258    1.2943   17.6731 C   0  0  0  0  0  0  0  0  0  0  0  0
    6.5620    0.6211   17.4357 N   0  0  0  0  0  0  0  0  0  0  0  0
    7.1313   -0.0142   18.4652 C   0  0  0  0  0  0  0  0  0  0  0  0
    8.0477   -0.5577   18.2393 H   0  0  0  0  0  0  0  0  0  0  0  0
    6.6134   -0.0027   19.7778 C   0  0  0  0  0  0  0  0  0  0  0  0
    7.3996   -0.5508   20.9027 C   0  0  0  0  0  0  0  0  0  0  0  0
    8.5641   -1.1812   20.6822 N   0  0  0  0  0  0  0  0  0  0  0  0
    8.9991   -1.4547   21.9298 N   0  0  0  0  0  0  0  0  0  0  0  0
   10.0755   -2.1625   22.4402 C   0  0  0  0  0  0  0  0  0  0  0  0
   10.7642   -2.6299   21.7580 H   0  0  0  0  0  0  0  0  0  0  0  0
    9.9335   -2.1165   23.7888 C   0  0  0  0  0  0  0  0  0  0  0  0
   10.4960   -2.5524   24.6018 H   0  0  0  0  0  0  0  0  0  0  0  0
    8.8108   -1.3640   24.1089 N   0  0  0  0  0  0  0  0  0  0  0  0
    8.3673   -1.2440   25.4255 N   0  0  0  0  0  0  0  0  0  0  0  0
    6.9029   -1.0410   25.5848 C   0  0  0  0  0  0  0  0  0  0  0  0
    6.3693   -1.8053   25.0070 H   0  0  0  0  0  0  0  0  0  0  0  0
    6.6051   -0.0472   25.2022 H   0  0  0  0  0  0  0  0  0  0  0  0
    6.5004   -1.1188   27.0709 C   0  0  0  0  0  0  0  0  0  0  0  0
    6.6339   -2.1608   27.4189 H   0  0  0  0  0  0  0  0  0  0  0  0
    5.4352   -0.8772   27.1545 H   0  0  0  0  0  0  0  0  0  0  0  0
    7.2914   -0.1644   27.8489 N   0  0  0  0  0  0  0  0  0  0  0  0
    6.8617    0.3787   29.0787 C   0  0  0  0  0  0  0  0  0  0  0  0
    5.9688   -0.2834   29.9376 C   0  0  0  0  0  0  0  0  0  0  0  0
    5.5408   -1.2297   29.6194 H   0  0  0  0  0  0  0  0  0  0  0  0
    5.6989    0.2412   31.2042 C   0  0  0  0  0  0  0  0  0  0  0  0
    5.0253   -0.2914   31.8712 H   0  0  0  0  0  0  0  0  0  0  0  0
    6.3109    1.4261   31.6290 C   0  0  0  0  0  0  0  0  0  0  0  0
    6.1499    1.7943   32.6372 H   0  0  0  0  0  0  0  0  0  0  0  0
    7.1612    2.1201   30.7571 C   0  0  0  0  0  0  0  0  0  0  0  0
    7.6466    3.0381   31.0782 H   0  0  0  0  0  0  0  0  0  0  0  0
    7.4181    1.6084   29.4844 C   0  0  0  0  0  0  0  0  0  0  0  0
    8.0730    2.1130   28.7804 H   0  0  0  0  0  0  0  0  0  0  0  0
    8.7224   -0.4708   27.6976 C   0  0  0  0  0  0  0  0  0  0  0  0
    9.3006    0.1227   28.4050 H   0  0  0  0  0  0  0  0  0  0  0  0
    8.9355   -1.5213   27.9613 H   0  0  0  0  0  0  0  0  0  0  0  0
    9.1100   -0.2404   26.2341 C   0  0  0  0  0  0  0  0  0  0  0  0
   10.1913   -0.3556   26.0870 H   0  0  0  0  0  0  0  0  0  0  0  0
    8.8385    0.7886   25.9429 H   0  0  0  0  0  0  0  0  0  0  0  0
    8.2019   -0.9998   22.9157 C   0  0  0  0  0  0  0  0  0  0  0  0
    7.1049   -0.4231   22.2819 C   0  0  0  0  0  0  0  0  0  0  0  0
    6.2165   -0.0332   22.7358 H   0  0  0  0  0  0  0  0  0  0  0  0
    5.3770    0.6359   19.9835 C   0  0  0  0  0  0  0  0  0  0  0  0
    4.8860    0.6145   20.9605 H   0  0  0  0  0  0  0  0  0  0  0  0
    4.7864    1.3086   18.9175 C   0  0  0  0  0  0  0  0  0  0  0  0
    3.8596    1.8586   19.0397 H   0  0  0  0  0  0  0  0  0  0  0  0
  1  2  1  0
  2  3  2  0
  3  4  1  0
  4  5  1  0
  4  6  2  0
  6  7  1  0
  7  8  2  0
  8  9  1  0
  9 10  1  0
 10 11  1  0
 10 12  2  0
 12 13  1  0
 12 14  1  0
 14 15  1  0
 15 16  1  0
 16 17  1  0
 16 18  1  0
 16 19  1  0
 19 20  1  0
 19 21  1  0
 19 22  1  0
 22 23  1  0
 23 24  2  0
 24 25  1  0
 24 26  1  0
 26 27  1  0
 26 28  2  0
 28 29  1  0
 28 30  1  0
 30 31  1  0
 30 32  2  0
 32 33  1  0
 22 34  1  0
 34 35  1  0
 34 36  1  0
 34 37  1  0
 37 38  1  0
 37 39  1  0
 14 40  1  0
 40 41  2  0
 41 42  1  0
  6 43  1  0
 43 44  1  0
 43 45  2  0
 45 46  1  0
 45  2  1  0
 41  7  1  0
 40  9  1  0
 37 15  1  0
 32 23  1  0
M  END
>  <cnnaffinity>  (1) 
-5.51643

>  <filename>  (1) 
c1ccc(N2CCN(n3ccn4nc(-c5cccnc5)cc34)CC2)cc1

$$$$
