
     RDKit          3D

 33 36  0  0  0  0  0  0  0  0999 V2000
    5.0287    1.8803   17.0146 H   0  0  0  0  0  0  0  0  0  0  0  0
    5.5434    1.3319   17.8034 C   0  0  0  0  0  0  0  0  0  0  0  0
    6.6812    0.7091   17.4562 N   0  0  0  0  0  0  0  0  0  0  0  0
    7.3306    0.0204   18.4031 C   0  0  0  0  0  0  0  0  0  0  0  0
    8.2754   -0.4210   18.0941 H   0  0  0  0  0  0  0  0  0  0  0  0
    6.8550   -0.1355   19.7207 C   0  0  0  0  0  0  0  0  0  0  0  0
    7.5321   -0.9411   20.6645 N   0  0  0  0  0  0  0  0  0  0  0  0
    8.8704   -0.8282   21.0445 C   0  0  0  0  0  0  0  0  0  0  0  0
    9.4800   -0.0874   20.5551 H   0  0  0  0  0  0  0  0  0  0  0  0
    9.1238   -1.7016   22.0579 C   0  0  0  0  0  0  0  0  0  0  0  0
    9.9997   -1.9564   22.6296 H   0  0  0  0  0  0  0  0  0  0  0  0
    7.9193   -2.3336   22.3186 N   0  0  0  0  0  0  0  0  0  0  0  0
    7.4916   -3.2151   23.2482 N   0  0  0  0  0  0  0  0  0  0  0  0
    6.1796   -3.2733   23.0106 C   0  0  0  0  0  0  0  0  0  0  0  0
    5.0982   -4.3428   23.9390 S   0  0  0  0  0  0  0  0  0  0  0  0
    4.5327   -3.2930   25.2789 C   0  0  0  0  0  0  0  0  0  0  0  0
    3.3988   -2.4740   25.1447 C   0  0  0  0  0  0  0  0  0  0  0  0
    2.8386   -2.4690   24.2164 H   0  0  0  0  0  0  0  0  0  0  0  0
    2.9943   -1.6556   26.2043 C   0  0  0  0  0  0  0  0  0  0  0  0
    2.1186   -1.0167   26.0981 H   0  0  0  0  0  0  0  0  0  0  0  0
    3.7232   -1.6557   27.3990 C   0  0  0  0  0  0  0  0  0  0  0  0
    3.4319   -1.0004   28.2134 H   0  0  0  0  0  0  0  0  0  0  0  0
    4.8208   -2.5101   27.5554 C   0  0  0  0  0  0  0  0  0  0  0  0
    5.3700   -2.5305   28.4946 H   0  0  0  0  0  0  0  0  0  0  0  0
    5.2191   -3.3374   26.5025 C   0  0  0  0  0  0  0  0  0  0  0  0
    6.0606   -4.0191   26.6136 H   0  0  0  0  0  0  0  0  0  0  0  0
    5.7708   -2.4812   21.9134 C   0  0  0  0  0  0  0  0  0  0  0  0
    4.7613   -2.3380   21.6032 H   0  0  0  0  0  0  0  0  0  0  0  0
    6.9487   -1.8831   21.4949 C   0  0  0  0  0  0  0  0  0  0  0  0
    5.6826    0.5433   20.0841 C   0  0  0  0  0  0  0  0  0  0  0  0
    5.3314    0.4909   21.1181 H   0  0  0  0  0  0  0  0  0  0  0  0
    5.0239    1.2877   19.1031 C   0  0  0  0  0  0  0  0  0  0  0  0
    4.1099    1.8201   19.3350 H   0  0  0  0  0  0  0  0  0  0  0  0
  1  2  1  0
  2  3  2  0
  3  4  1  0
  4  5  1  0
  4  6  2  0
  6  7  1  0
  7  8  1  0
  8  9  1  0
  8 10  2  0
 10 11  1  0
 10 12  1  0
 12 13  1  0
 13 14  2  0
 14 15  1  0
 15 16  1  0
 16 17  2  0
 17 18  1  0
 17 19  1  0
 19 20  1  0
 19 21  2  0
 21 22  1  0
 21 23  1  0
 23 24  1  0
 23 25  2  0
 25 26  1  0
 14 27  1  0
 27 28  1  0
 27 29  2  0
  6 30  1  0
 30 31  1  0
 30 32  2  0
 32 33  1  0
 32  2  1  0
 29  7  1  0
 29 12  1  0
 25 16  1  0
M  END
>  <cnnaffinity>  (1) 
-5.24056

>  <filename>  (1) 
c1ccc(Sc2cc3n(-c4cccnc4)ccn3n2)cc1

$$$$
