
     RDKit          3D

 31 33  0  0  0  0  0  0  0  0999 V2000
    4.9220    1.7760   17.0026 H   0  0  0  0  0  0  0  0  0  0  0  0
    5.4060    1.2864   17.8471 C   0  0  0  0  0  0  0  0  0  0  0  0
    6.5671    0.6654   17.5910 N   0  0  0  0  0  0  0  0  0  0  0  0
    7.1839    0.0606   18.6098 C   0  0  0  0  0  0  0  0  0  0  0  0
    8.1279   -0.4243   18.3763 H   0  0  0  0  0  0  0  0  0  0  0  0
    6.6713    0.0063   19.9147 C   0  0  0  0  0  0  0  0  0  0  0  0
    7.4096   -0.7222   20.9862 C   0  0  0  0  0  0  0  0  0  0  0  0
    8.7552   -0.7146   20.9251 N   0  0  0  0  0  0  0  0  0  0  0  0
    9.4717   -1.3121   21.8778 N   0  0  0  0  0  0  0  0  0  0  0  0
    8.8572   -1.9642   22.8677 C   0  0  0  0  0  0  0  0  0  0  0  0
    9.4938   -2.4336   23.6006 H   0  0  0  0  0  0  0  0  0  0  0  0
    7.4490   -2.0542   22.9861 C   0  0  0  0  0  0  0  0  0  0  0  0
    6.8099   -2.7470   24.0115 N   0  0  0  0  0  0  0  0  0  0  0  0
    5.9177   -2.3722   24.3034 H   0  0  0  0  0  0  0  0  0  0  0  0
    7.2679   -3.8895   24.6941 C   0  0  0  0  0  0  0  0  0  0  0  0
    6.9302   -4.0900   26.0422 C   0  0  0  0  0  0  0  0  0  0  0  0
    6.3202   -3.3532   26.5588 H   0  0  0  0  0  0  0  0  0  0  0  0
    7.3987   -5.2201   26.7200 C   0  0  0  0  0  0  0  0  0  0  0  0
    7.1389   -5.3765   27.7635 H   0  0  0  0  0  0  0  0  0  0  0  0
    8.1950   -6.1642   26.0613 C   0  0  0  0  0  0  0  0  0  0  0  0
    8.5677   -7.0349   26.5881 H   0  0  0  0  0  0  0  0  0  0  0  0
    8.5165   -5.9710   24.7155 C   0  0  0  0  0  0  0  0  0  0  0  0
    9.1329   -6.6906   24.1877 H   0  0  0  0  0  0  0  0  0  0  0  0
    8.0548   -4.8487   24.0337 C   0  0  0  0  0  0  0  0  0  0  0  0
    8.2962   -4.6978   22.9872 H   0  0  0  0  0  0  0  0  0  0  0  0
    6.7226   -1.3883   22.0103 C   0  0  0  0  0  0  0  0  0  0  0  0
    5.6432   -1.4335   21.9739 H   0  0  0  0  0  0  0  0  0  0  0  0
    5.4456    0.6469   20.1637 C   0  0  0  0  0  0  0  0  0  0  0  0
    5.0011    0.6466   21.1625 H   0  0  0  0  0  0  0  0  0  0  0  0
    4.8132    1.3075   19.1129 C   0  0  0  0  0  0  0  0  0  0  0  0
    3.8794    1.8393   19.2606 H   0  0  0  0  0  0  0  0  0  0  0  0
  1  2  1  0
  2  3  2  0
  3  4  1  0
  4  5  1  0
  4  6  2  0
  6  7  1  0
  7  8  2  0
  8  9  1  0
  9 10  2  0
 10 11  1  0
 10 12  1  0
 12 13  1  0
 13 14  1  0
 13 15  1  0
 15 16  2  0
 16 17  1  0
 16 18  1  0
 18 19  1  0
 18 20  2  0
 20 21  1  0
 20 22  1  0
 22 23  1  0
 22 24  2  0
 24 25  1  0
 12 26  2  0
 26 27  1  0
  6 28  1  0
 28 29  1  0
 28 30  2  0
 30 31  1  0
 30  2  1  0
 26  7  1  0
 24 15  1  0
M  END
>  <cnnaffinity>  (1) 
-5.17471

>  <filename>  (1) 
c1ccc(Nc2cnnc(-c3cccnc3)c2)cc1

$$$$
