
     RDKit          3D

 30 32  0  0  0  0  0  0  0  0999 V2000
    6.5691   -3.1397   23.1610 H   0  0  0  0  0  0  0  0  0  0  0  0
    7.1778   -2.4231   22.6150 C   0  0  0  0  0  0  0  0  0  0  0  0
    8.4604   -2.3228   22.9621 N   0  0  0  0  0  0  0  0  0  0  0  0
    9.1752   -1.4017   22.3240 C   0  0  0  0  0  0  0  0  0  0  0  0
   10.2229   -1.3015   22.6157 H   0  0  0  0  0  0  0  0  0  0  0  0
    8.6467   -0.5683   21.3387 C   0  0  0  0  0  0  0  0  0  0  0  0
    9.6606    0.7819   20.7875 S   0  0  0  0  0  0  0  0  0  0  0  0
    9.0725    2.0652   21.8983 C   0  0  0  0  0  0  0  0  0  0  0  0
    7.8942    2.7502   21.5687 C   0  0  0  0  0  0  0  0  0  0  0  0
    7.3524    2.4314   20.6808 H   0  0  0  0  0  0  0  0  0  0  0  0
    7.4384    3.8055   22.3681 C   0  0  0  0  0  0  0  0  0  0  0  0
    6.5404    4.3538   22.0776 H   0  0  0  0  0  0  0  0  0  0  0  0
    8.1499    4.1517   23.5242 C   0  0  0  0  0  0  0  0  0  0  0  0
    7.8300    4.9995   24.1282 H   0  0  0  0  0  0  0  0  0  0  0  0
    9.3009    3.4348   23.8807 C   0  0  0  0  0  0  0  0  0  0  0  0
    9.8438    3.6926   24.7864 H   0  0  0  0  0  0  0  0  0  0  0  0
    9.7780    2.4030   23.0612 C   0  0  0  0  0  0  0  0  0  0  0  0
   10.6992    1.8797   23.3153 H   0  0  0  0  0  0  0  0  0  0  0  0
    7.2969   -0.8163   21.0050 C   0  0  0  0  0  0  0  0  0  0  0  0
    6.5958   -0.0788   19.9321 C   0  0  0  0  0  0  0  0  0  0  0  0
    7.1754   -0.0180   18.6619 C   0  0  0  0  0  0  0  0  0  0  0  0
    8.1140   -0.5281   18.4591 H   0  0  0  0  0  0  0  0  0  0  0  0
    6.6405    0.6377   17.6261 N   0  0  0  0  0  0  0  0  0  0  0  0
    5.4834    1.2810   17.8367 C   0  0  0  0  0  0  0  0  0  0  0  0
    5.0544    1.8065   16.9842 H   0  0  0  0  0  0  0  0  0  0  0  0
    4.8184    1.2769   19.0683 C   0  0  0  0  0  0  0  0  0  0  0  0
    3.8857    1.8170   19.1736 H   0  0  0  0  0  0  0  0  0  0  0  0
    5.3640    0.5635   20.1332 C   0  0  0  0  0  0  0  0  0  0  0  0
    4.8549    0.5090   21.1010 H   0  0  0  0  0  0  0  0  0  0  0  0
    6.5706   -1.7272   21.6589 N   0  0  0  0  0  0  0  0  0  0  0  0
  1  2  1  0
  2  3  2  0
  3  4  1  0
  4  5  1  0
  4  6  2  0
  6  7  1  0
  7  8  1  0
  8  9  2  0
  9 10  1  0
  9 11  1  0
 11 12  1  0
 11 13  2  0
 13 14  1  0
 13 15  1  0
 15 16  1  0
 15 17  2  0
 17 18  1  0
  6 19  1  0
 19 20  1  0
 20 21  2  0
 21 22  1  0
 21 23  1  0
 23 24  2  0
 24 25  1  0
 24 26  1  0
 26 27  1  0
 26 28  2  0
 28 29  1  0
 19 30  2  0
 30  2  1  0
 17  8  1  0
 28 20  1  0
M  END
>  <cnnaffinity>  (1) 
-5.34297

>  <filename>  (1) 
c1ccc(Sc2cncnc2-c2cccnc2)cc1

$$$$
