
     RDKit          3D

 45 49  0  0  0  0  0  0  0  0999 V2000
    4.9483    1.8252   16.9746 H   0  0  0  0  0  0  0  0  0  0  0  0
    5.4025    1.2944   17.8095 C   0  0  0  0  0  0  0  0  0  0  0  0
    6.5623    0.6643   17.5556 N   0  0  0  0  0  0  0  0  0  0  0  0
    7.1505    0.0152   18.5651 C   0  0  0  0  0  0  0  0  0  0  0  0
    8.1040   -0.4593   18.3297 H   0  0  0  0  0  0  0  0  0  0  0  0
    6.6229   -0.0364   19.8670 C   0  0  0  0  0  0  0  0  0  0  0  0
    7.3579   -0.6971   20.9526 C   0  0  0  0  0  0  0  0  0  0  0  0
    8.0859   -1.7910   20.7337 N   0  0  0  0  0  0  0  0  0  0  0  0
    8.5614   -2.0944   21.9395 N   0  0  0  0  0  0  0  0  0  0  0  0
    8.2351   -1.2597   22.9215 C   0  0  0  0  0  0  0  0  0  0  0  0
    7.4468   -0.2941   22.3231 C   0  0  0  0  0  0  0  0  0  0  0  0
    7.0791    0.9512   22.9643 C   0  0  0  0  0  0  0  0  0  0  0  0
    6.5945    0.9209   24.2764 C   0  0  0  0  0  0  0  0  0  0  0  0
    6.4712   -0.0423   24.7677 H   0  0  0  0  0  0  0  0  0  0  0  0
    6.2773    2.1017   24.9280 C   0  0  0  0  0  0  0  0  0  0  0  0
    5.8739    2.0656   25.9360 H   0  0  0  0  0  0  0  0  0  0  0  0
    6.4581    3.3437   24.2884 C   0  0  0  0  0  0  0  0  0  0  0  0
    6.1093    4.6116   24.9756 C   0  0  0  0  0  0  0  0  0  0  0  0
    5.4646    5.6495   24.2791 C   0  0  0  0  0  0  0  0  0  0  0  0
    5.2157    5.5025   23.2305 H   0  0  0  0  0  0  0  0  0  0  0  0
    5.1340    6.8443   24.9203 C   0  0  0  0  0  0  0  0  0  0  0  0
    4.6402    7.6332   24.3611 H   0  0  0  0  0  0  0  0  0  0  0  0
    5.4480    7.0239   26.2728 C   0  0  0  0  0  0  0  0  0  0  0  0
    5.1924    7.9535   26.7718 H   0  0  0  0  0  0  0  0  0  0  0  0
    6.0921    6.0001   26.9775 C   0  0  0  0  0  0  0  0  0  0  0  0
    6.3359    6.1274   28.0277 H   0  0  0  0  0  0  0  0  0  0  0  0
    6.4170    4.8048   26.3337 C   0  0  0  0  0  0  0  0  0  0  0  0
    6.9305    4.0123   26.8722 H   0  0  0  0  0  0  0  0  0  0  0  0
    6.9717    3.3615   22.9758 C   0  0  0  0  0  0  0  0  0  0  0  0
    7.1394    4.3088   22.4709 H   0  0  0  0  0  0  0  0  0  0  0  0
    7.2820    2.1828   22.3211 C   0  0  0  0  0  0  0  0  0  0  0  0
    7.6821    2.1911   21.3096 H   0  0  0  0  0  0  0  0  0  0  0  0
    9.0729   -1.5039   24.1515 C   0  0  0  0  0  0  0  0  0  0  0  0
    9.6706   -0.6085   24.3686 H   0  0  0  0  0  0  0  0  0  0  0  0
    8.4612   -1.7055   25.0395 H   0  0  0  0  0  0  0  0  0  0  0  0
    9.9431   -2.7229   23.7277 C   0  0  0  0  0  0  0  0  0  0  0  0
    9.7587   -3.5916   24.3563 H   0  0  0  0  0  0  0  0  0  0  0  0
   11.0023   -2.4893   23.7844 H   0  0  0  0  0  0  0  0  0  0  0  0
    9.5697   -3.0601   22.2580 C   0  0  0  0  0  0  0  0  0  0  0  0
   10.4070   -2.9100   21.5741 H   0  0  0  0  0  0  0  0  0  0  0  0
    9.1486   -4.0623   22.1432 H   0  0  0  0  0  0  0  0  0  0  0  0
    5.4086    0.6229   20.1097 C   0  0  0  0  0  0  0  0  0  0  0  0
    4.9928    0.6483   21.1182 H   0  0  0  0  0  0  0  0  0  0  0  0
    4.7861    1.2968   19.0642 C   0  0  0  0  0  0  0  0  0  0  0  0
    3.8614    1.8470   19.2195 H   0  0  0  0  0  0  0  0  0  0  0  0
  1  2  1  0
  2  3  2  0
  3  4  1  0
  4  5  1  0
  4  6  2  0
  6  7  1  0
  7  8  2  0
  8  9  1  0
  9 10  1  0
 10 11  2  0
 11 12  1  0
 12 13  2  0
 13 14  1  0
 13 15  1  0
 15 16  1  0
 15 17  2  0
 17 18  1  0
 18 19  2  0
 19 20  1  0
 19 21  1  0
 21 22  1  0
 21 23  2  0
 23 24  1  0
 23 25  1  0
 25 26  1  0
 25 27  2  0
 27 28  1  0
 17 29  1  0
 29 30  1  0
 29 31  2  0
 31 32  1  0
 10 33  1  0
 33 34  1  0
 33 35  1  0
 33 36  1  0
 36 37  1  0
 36 38  1  0
 36 39  1  0
 39 40  1  0
 39 41  1  0
  6 42  1  0
 42 43  1  0
 42 44  2  0
 44 45  1  0
 44  2  1  0
 11  7  1  0
 31 12  1  0
 39  9  1  0
 27 18  1  0
M  END
>  <cnnaffinity>  (1) 
-5.62513

>  <filename>  (1) 
c1ccc(-c2ccc(-c3c(-c4cccnc4)nn4c3CCC4)cc2)cc1

$$$$
