
     RDKit          3D

 34 37  0  0  0  0  0  0  0  0999 V2000
   14.4656    2.3908   22.6373 H   0  0  0  0  0  0  0  0  0  0  0  0
   13.3878    2.3081   22.7083 C   0  0  0  0  0  0  0  0  0  0  0  0
   12.8711    1.1554   22.2705 N   0  0  0  0  0  0  0  0  0  0  0  0
   11.5371    1.0173   22.3301 C   0  0  0  0  0  0  0  0  0  0  0  0
   10.9492   -0.2854   21.8285 C   0  0  1  0  0  0  0  0  0  0  0  0
   11.7823   -0.8648   21.4229 H   0  0  0  0  0  0  0  0  0  0  0  0
   10.2509   -1.1213   22.9708 C   0  0  0  0  0  0  0  0  0  0  0  0
   10.3780   -0.6654   23.9600 H   0  0  0  0  0  0  0  0  0  0  0  0
   10.6736   -2.1294   23.0369 H   0  0  0  0  0  0  0  0  0  0  0  0
    8.8134   -1.1564   22.5415 C   0  0  0  0  0  0  0  0  0  0  0  0
    7.7008   -1.6263   23.0699 N   0  0  0  0  0  0  0  0  0  0  0  0
    6.7549   -1.2735   22.1608 N   0  0  0  0  0  0  0  0  0  0  0  0
    5.7931   -1.5275   22.3592 H   0  0  0  0  0  0  0  0  0  0  0  0
    7.2496   -0.6074   21.0729 C   0  0  0  0  0  0  0  0  0  0  0  0
    6.4942    0.0003   19.9501 C   0  0  0  0  0  0  0  0  0  0  0  0
    7.0730    0.0295   18.6635 C   0  0  0  0  0  0  0  0  0  0  0  0
    8.0118   -0.4918   18.4787 H   0  0  0  0  0  0  0  0  0  0  0  0
    6.5448    0.6472   17.5976 N   0  0  0  0  0  0  0  0  0  0  0  0
    5.3913    1.3066   17.7829 C   0  0  0  0  0  0  0  0  0  0  0  0
    4.9956    1.8367   16.9149 H   0  0  0  0  0  0  0  0  0  0  0  0
    4.7213    1.3349   19.0112 C   0  0  0  0  0  0  0  0  0  0  0  0
    3.8023    1.9024   19.0941 H   0  0  0  0  0  0  0  0  0  0  0  0
    5.2678    0.6693   20.1109 C   0  0  0  0  0  0  0  0  0  0  0  0
    4.7704    0.7052   21.0831 H   0  0  0  0  0  0  0  0  0  0  0  0
    8.6033   -0.5353   21.3166 C   0  0  0  0  0  0  0  0  0  0  0  0
    9.8716   -0.0546   20.7096 C   0  0  0  0  0  0  0  0  0  0  0  0
    9.8054    0.9861   20.3663 H   0  0  0  0  0  0  0  0  0  0  0  0
   10.1200   -0.6513   19.8286 H   0  0  0  0  0  0  0  0  0  0  0  0
   10.7026    2.0194   22.8512 C   0  0  0  0  0  0  0  0  0  0  0  0
    9.6367    1.8418   22.8954 H   0  0  0  0  0  0  0  0  0  0  0  0
   11.2466    3.2187   23.3057 C   0  0  0  0  0  0  0  0  0  0  0  0
   10.6098    4.0086   23.7062 H   0  0  0  0  0  0  0  0  0  0  0  0
   12.6310    3.3655   23.2213 C   0  0  0  0  0  0  0  0  0  0  0  0
   13.1203    4.2765   23.5337 H   0  0  0  0  0  0  0  0  0  0  0  0
  1  2  1  0
  2  3  2  0
  3  4  1  0
  4  5  1  0
  5  6  1  6
  5  7  1  0
  7  8  1  0
  7  9  1  0
  7 10  1  0
 10 11  2  0
 11 12  1  0
 12 13  1  0
 12 14  1  0
 14 15  1  0
 15 16  2  0
 16 17  1  0
 16 18  1  0
 18 19  2  0
 19 20  1  0
 19 21  1  0
 21 22  1  0
 21 23  2  0
 23 24  1  0
 14 25  2  0
 25 26  1  0
 26 27  1  0
 26 28  1  0
  4 29  2  0
 29 30  1  0
 29 31  1  0
 31 32  1  0
 31 33  2  0
 33 34  1  0
 33  2  1  0
 26  5  1  0
 25 10  1  0
 23 15  1  0
M  END
>  <cnnaffinity>  (1) 
-5.38241

>  <filename>  (1) 
c1ccc([C@H]2Cc3n[nH]c(-c4cccnc4)c3C2)nc1

$$$$
