
     RDKit          3D

 47 50  0  0  0  0  0  0  0  0999 V2000
    5.0496    1.9529   16.9386 H   0  0  0  0  0  0  0  0  0  0  0  0
    5.4768    1.5217   17.8428 C   0  0  0  0  0  0  0  0  0  0  0  0
    6.7042    0.9914   17.7263 N   0  0  0  0  0  0  0  0  0  0  0  0
    7.2455    0.4531   18.8227 C   0  0  0  0  0  0  0  0  0  0  0  0
    8.2551    0.0603   18.6839 H   0  0  0  0  0  0  0  0  0  0  0  0
    6.5948    0.3300   20.0646 C   0  0  0  0  0  0  0  0  0  0  0  0
    7.2572   -0.4734   21.1664 C   0  0  0  0  0  0  0  0  0  0  0  0
    8.1497    0.4436   21.8792 N   0  0  0  0  0  0  0  0  0  0  0  0
    8.7419    0.9020   21.1876 H   0  0  0  0  0  0  0  0  0  0  0  0
    8.9006   -0.0686   22.9950 N   0  0  0  0  0  0  0  0  0  0  0  0
    8.6694    0.8114   24.1619 C   0  0  0  0  0  0  0  0  0  0  0  0
    7.5897    0.8937   24.3136 H   0  0  0  0  0  0  0  0  0  0  0  0
    9.0982    0.3203   25.0441 H   0  0  0  0  0  0  0  0  0  0  0  0
    9.2784    2.2016   23.9665 C   0  0  0  0  0  0  0  0  0  0  0  0
    8.7450    2.6763   23.1269 H   0  0  0  0  0  0  0  0  0  0  0  0
    9.0996    2.8259   24.8529 H   0  0  0  0  0  0  0  0  0  0  0  0
   10.7133    2.1300   23.6632 N   0  0  0  0  0  0  0  0  0  0  0  0
   11.4143    3.3099   23.4294 C   0  0  0  0  0  0  0  0  0  0  0  0
   12.8275    3.3357   23.4202 C   0  0  0  0  0  0  0  0  0  0  0  0
   13.3682    2.4188   23.6362 H   0  0  0  0  0  0  0  0  0  0  0  0
   13.5174    4.5216   23.1567 C   0  0  0  0  0  0  0  0  0  0  0  0
   14.6080    4.5309   23.1456 H   0  0  0  0  0  0  0  0  0  0  0  0
   12.8269    5.7123   22.9035 C   0  0  0  0  0  0  0  0  0  0  0  0
   13.3732    6.6260   22.6707 H   0  0  0  0  0  0  0  0  0  0  0  0
   11.4313    5.7101   22.9500 C   0  0  0  0  0  0  0  0  0  0  0  0
   10.8609    6.6207   22.7872 H   0  0  0  0  0  0  0  0  0  0  0  0
   10.7305    4.5271   23.2072 C   0  0  0  0  0  0  0  0  0  0  0  0
    9.6472    4.5364   23.2241 H   0  0  0  0  0  0  0  0  0  0  0  0
   11.3052    0.8074   23.4165 C   0  0  0  0  0  0  0  0  0  0  0  0
   12.1801    0.9220   22.7724 H   0  0  0  0  0  0  0  0  0  0  0  0
   11.6609    0.3470   24.3548 H   0  0  0  0  0  0  0  0  0  0  0  0
   10.3483   -0.1961   22.6998 C   0  0  0  0  0  0  0  0  0  0  0  0
   10.6682   -1.2024   22.9929 H   0  0  0  0  0  0  0  0  0  0  0  0
   10.4999   -0.1215   21.6154 H   0  0  0  0  0  0  0  0  0  0  0  0
    6.3704   -1.3230   22.1116 C   0  0  0  0  0  0  0  0  0  0  0  0
    6.2145   -0.9076   23.1123 H   0  0  0  0  0  0  0  0  0  0  0  0
    5.4197   -1.5398   21.6196 H   0  0  0  0  0  0  0  0  0  0  0  0
    7.3429   -2.5151   21.9719 C   0  0  0  0  0  0  0  0  0  0  0  0
    8.0787   -2.5162   22.7806 H   0  0  0  0  0  0  0  0  0  0  0  0
    6.9018   -3.5099   21.8538 H   0  0  0  0  0  0  0  0  0  0  0  0
    7.8863   -1.8267   20.7055 C   0  0  0  0  0  0  0  0  0  0  0  0
    7.3073   -2.1377   19.8322 H   0  0  0  0  0  0  0  0  0  0  0  0
    8.9627   -1.8493   20.4903 H   0  0  0  0  0  0  0  0  0  0  0  0
    5.3309    0.9319   20.1744 C   0  0  0  0  0  0  0  0  0  0  0  0
    4.8038    0.9283   21.1305 H   0  0  0  0  0  0  0  0  0  0  0  0
    4.7672    1.5335   19.0484 C   0  0  0  0  0  0  0  0  0  0  0  0
    3.7958    2.0154   19.0904 H   0  0  0  0  0  0  0  0  0  0  0  0
  1  2  1  0
  2  3  2  0
  3  4  1  0
  4  5  1  0
  4  6  2  0
  6  7  1  0
  7  8  1  0
  8  9  1  0
  8 10  1  0
 10 11  1  0
 11 12  1  0
 11 13  1  0
 11 14  1  0
 14 15  1  0
 14 16  1  0
 14 17  1  0
 17 18  1  0
 18 19  2  0
 19 20  1  0
 19 21  1  0
 21 22  1  0
 21 23  2  0
 23 24  1  0
 23 25  1  0
 25 26  1  0
 25 27  2  0
 27 28  1  0
 17 29  1  0
 29 30  1  0
 29 31  1  0
 29 32  1  0
 32 33  1  0
 32 34  1  0
  7 35  1  0
 35 36  1  0
 35 37  1  0
 35 38  1  0
 38 39  1  0
 38 40  1  0
 38 41  1  0
 41 42  1  0
 41 43  1  0
  6 44  1  0
 44 45  1  0
 44 46  2  0
 46 47  1  0
 46  2  1  0
 41  7  1  0
 32 10  1  0
 27 18  1  0
M  END
>  <cnnaffinity>  (1) 
-5.28179

>  <filename>  (1) 
c1ccc(N2CCN(NC3(c4cccnc4)CCC3)CC2)cc1

$$$$
