
     RDKit          3D

 46 50  0  0  0  0  0  0  0  0999 V2000
    1.3935  -10.1283   25.0632 H   0  0  0  0  0  0  0  0  0  0  0  0
    1.8628   -9.2667   25.5351 C   0  0  0  0  0  0  0  0  0  0  0  0
    2.5819   -8.4856   24.7275 N   0  0  0  0  0  0  0  0  0  0  0  0
    3.1169   -7.3687   25.2508 C   0  0  0  0  0  0  0  0  0  0  0  0
    3.6987   -6.4892   24.3703 N   0  0  0  0  0  0  0  0  0  0  0  0
    3.8817   -6.8801   22.9664 C   0  0  0  0  0  0  0  0  0  0  0  0
    2.9636   -6.7108   22.3806 H   0  0  0  0  0  0  0  0  0  0  0  0
    4.0763   -7.9437   22.9787 H   0  0  0  0  0  0  0  0  0  0  0  0
    5.0608   -6.1504   22.3171 C   0  0  0  0  0  0  0  0  0  0  0  0
    5.9871   -6.4767   22.8123 H   0  0  0  0  0  0  0  0  0  0  0  0
    5.1136   -6.4470   21.2623 H   0  0  0  0  0  0  0  0  0  0  0  0
    4.9225   -4.6851   22.4080 N   0  0  0  0  0  0  0  0  0  0  0  0
    5.9798   -3.9520   21.9661 C   0  0  0  0  0  0  0  0  0  0  0  0
    7.1662   -4.3659   21.6409 N   0  0  0  0  0  0  0  0  0  0  0  0
    7.8665   -3.2216   21.2674 N   0  0  0  0  0  0  0  0  0  0  0  0
    7.0453   -2.2314   21.3432 C   0  0  0  0  0  0  0  0  0  0  0  0
    7.3186   -0.7772   21.0859 C   0  0  0  0  0  0  0  0  0  0  0  0
    6.5750   -0.0744   19.9676 C   0  0  0  0  0  0  0  0  0  0  0  0
    7.1289   -0.0272   18.6759 C   0  0  0  0  0  0  0  0  0  0  0  0
    8.0772   -0.5330   18.4977 H   0  0  0  0  0  0  0  0  0  0  0  0
    6.5931    0.6197   17.6329 N   0  0  0  0  0  0  0  0  0  0  0  0
    5.4408    1.2716   17.8479 C   0  0  0  0  0  0  0  0  0  0  0  0
    5.0169    1.7867   16.9869 H   0  0  0  0  0  0  0  0  0  0  0  0
    4.7898    1.2927   19.0860 C   0  0  0  0  0  0  0  0  0  0  0  0
    3.8606    1.8421   19.1906 H   0  0  0  0  0  0  0  0  0  0  0  0
    5.3698    0.6146   20.1643 C   0  0  0  0  0  0  0  0  0  0  0  0
    4.9190    0.6382   21.1577 H   0  0  0  0  0  0  0  0  0  0  0  0
    7.7321    0.0686   22.2883 C   0  0  0  0  0  0  0  0  0  0  0  0
    7.7227   -0.3991   23.2676 H   0  0  0  0  0  0  0  0  0  0  0  0
    7.4367    1.1163   22.2817 H   0  0  0  0  0  0  0  0  0  0  0  0
    8.7586   -0.3674   21.2998 C   0  0  0  0  0  0  0  0  0  0  0  0
    9.1815    0.3742   20.6275 H   0  0  0  0  0  0  0  0  0  0  0  0
    9.4351   -1.1655   21.5918 H   0  0  0  0  0  0  0  0  0  0  0  0
    5.8080   -2.6223   21.7829 O   0  0  0  0  0  0  0  0  0  0  0  0
    3.9739   -4.2112   23.4340 C   0  0  0  0  0  0  0  0  0  0  0  0
    4.1432   -3.1608   23.6739 H   0  0  0  0  0  0  0  0  0  0  0  0
    2.9627   -4.3304   23.0285 H   0  0  0  0  0  0  0  0  0  0  0  0
    4.0059   -5.0858   24.7074 C   0  0  0  0  0  0  0  0  0  0  0  0
    4.9899   -4.9984   25.1911 H   0  0  0  0  0  0  0  0  0  0  0  0
    3.2554   -4.6913   25.4045 H   0  0  0  0  0  0  0  0  0  0  0  0
    3.1056   -7.1067   26.6426 C   0  0  0  0  0  0  0  0  0  0  0  0
    3.6875   -6.2769   27.0260 H   0  0  0  0  0  0  0  0  0  0  0  0
    2.3535   -7.9399   27.4627 C   0  0  0  0  0  0  0  0  0  0  0  0
    2.2947   -7.7424   28.5324 H   0  0  0  0  0  0  0  0  0  0  0  0
    1.6789   -9.0273   26.8944 C   0  0  0  0  0  0  0  0  0  0  0  0
    1.0796   -9.7046   27.4913 H   0  0  0  0  0  0  0  0  0  0  0  0
  1  2  1  0
  2  3  2  0
  3  4  1  0
  4  5  1  0
  5  6  1  0
  6  7  1  0
  6  8  1  0
  6  9  1  0
  9 10  1  0
  9 11  1  0
  9 12  1  0
 12 13  1  0
 13 14  2  0
 14 15  1  0
 15 16  2  0
 16 17  1  0
 17 18  1  0
 18 19  2  0
 19 20  1  0
 19 21  1  0
 21 22  2  0
 22 23  1  0
 22 24  1  0
 24 25  1  0
 24 26  2  0
 26 27  1  0
 17 28  1  0
 28 29  1  0
 28 30  1  0
 28 31  1  0
 31 32  1  0
 31 33  1  0
 16 34  1  0
 12 35  1  0
 35 36  1  0
 35 37  1  0
 35 38  1  0
 38 39  1  0
 38 40  1  0
  4 41  2  0
 41 42  1  0
 41 43  1  0
 43 44  1  0
 43 45  2  0
 45 46  1  0
 45  2  1  0
 38  5  1  0
 34 13  1  0
 31 17  1  0
 26 18  1  0
M  END
>  <cnnaffinity>  (1) 
-5.08059

>  <filename>  (1) 
c1ccc(N2CCN(c3nnc(C4(c5cccnc5)CC4)o3)CC2)nc1

$$$$
