
     RDKit          3D

 41 44  0  0  0  0  0  0  0  0999 V2000
    8.6035   -7.0754   28.8742 H   0  0  0  0  0  0  0  0  0  0  0  0
    7.8604   -6.2992   28.7143 C   0  0  0  0  0  0  0  0  0  0  0  0
    8.1004   -5.4690   27.6948 N   0  0  0  0  0  0  0  0  0  0  0  0
    7.1633   -4.5632   27.4118 C   0  0  0  0  0  0  0  0  0  0  0  0
    7.3730   -3.7442   26.2940 N   0  0  0  0  0  0  0  0  0  0  0  0
    6.4215   -3.9005   25.1817 C   0  0  0  0  0  0  0  0  0  0  0  0
    6.6283   -4.8148   24.5979 H   0  0  0  0  0  0  0  0  0  0  0  0
    5.4014   -3.9915   25.5699 H   0  0  0  0  0  0  0  0  0  0  0  0
    6.4797   -2.7117   24.2172 C   0  0  0  0  0  0  0  0  0  0  0  0
    5.7850   -2.9122   23.3946 H   0  0  0  0  0  0  0  0  0  0  0  0
    6.1298   -1.8025   24.7339 H   0  0  0  0  0  0  0  0  0  0  0  0
    7.8455   -2.5310   23.6941 N   0  0  0  0  0  0  0  0  0  0  0  0
    7.9846   -1.7462   22.5393 C   0  0  0  0  0  0  0  0  0  0  0  0
    9.1401   -1.4894   21.7277 C   0  0  0  0  0  0  0  0  0  0  0  0
   10.1619   -1.8121   21.8850 H   0  0  0  0  0  0  0  0  0  0  0  0
    8.8407   -0.7859   20.6448 N   0  0  0  0  0  0  0  0  0  0  0  0
    7.5151   -0.5520   20.7323 N   0  0  0  0  0  0  0  0  0  0  0  0
    6.7916    0.1130   19.7124 C   0  0  0  0  0  0  0  0  0  0  0  0
    7.2577    0.0969   18.3875 C   0  0  0  0  0  0  0  0  0  0  0  0
    8.1867   -0.4077   18.1352 H   0  0  0  0  0  0  0  0  0  0  0  0
    6.6077    0.6794   17.3767 N   0  0  0  0  0  0  0  0  0  0  0  0
    5.4594    1.3221   17.6483 C   0  0  0  0  0  0  0  0  0  0  0  0
    4.9633    1.8020   16.8090 H   0  0  0  0  0  0  0  0  0  0  0  0
    4.9113    1.3879   18.9319 C   0  0  0  0  0  0  0  0  0  0  0  0
    3.9815    1.9200   19.1009 H   0  0  0  0  0  0  0  0  0  0  0  0
    5.5820    0.7725   19.9884 C   0  0  0  0  0  0  0  0  0  0  0  0
    5.1780    0.8228   21.0000 H   0  0  0  0  0  0  0  0  0  0  0  0
    6.9799   -1.1196   21.8436 C   0  0  0  0  0  0  0  0  0  0  0  0
    5.9259   -1.0492   22.0651 H   0  0  0  0  0  0  0  0  0  0  0  0
    8.7987   -2.3414   24.8046 C   0  0  0  0  0  0  0  0  0  0  0  0
    8.5851   -1.4041   25.3442 H   0  0  0  0  0  0  0  0  0  0  0  0
    9.8125   -2.2438   24.3990 H   0  0  0  0  0  0  0  0  0  0  0  0
    8.7464   -3.5262   25.7931 C   0  0  0  0  0  0  0  0  0  0  0  0
    9.1387   -4.4243   25.2874 H   0  0  0  0  0  0  0  0  0  0  0  0
    9.4059   -3.3229   26.6451 H   0  0  0  0  0  0  0  0  0  0  0  0
    5.9753   -4.4235   28.1645 C   0  0  0  0  0  0  0  0  0  0  0  0
    5.2680   -3.6608   27.8634 H   0  0  0  0  0  0  0  0  0  0  0  0
    5.7775   -5.2525   29.2653 C   0  0  0  0  0  0  0  0  0  0  0  0
    4.8698   -5.1716   29.8702 H   0  0  0  0  0  0  0  0  0  0  0  0
    6.7528   -6.2153   29.5529 C   0  0  0  0  0  0  0  0  0  0  0  0
    6.6336   -6.9013   30.3846 H   0  0  0  0  0  0  0  0  0  0  0  0
  1  2  1  0
  2  3  2  0
  3  4  1  0
  4  5  1  0
  5  6  1  0
  6  7  1  0
  6  8  1  0
  6  9  1  0
  9 10  1  0
  9 11  1  0
  9 12  1  0
 12 13  1  0
 13 14  1  0
 14 15  1  0
 14 16  2  0
 16 17  1  0
 17 18  1  0
 18 19  2  0
 19 20  1  0
 19 21  1  0
 21 22  2  0
 22 23  1  0
 22 24  1  0
 24 25  1  0
 24 26  2  0
 26 27  1  0
 17 28  1  0
 28 29  1  0
 12 30  1  0
 30 31  1  0
 30 32  1  0
 30 33  1  0
 33 34  1  0
 33 35  1  0
  4 36  2  0
 36 37  1  0
 36 38  1  0
 38 39  1  0
 38 40  2  0
 40 41  1  0
 40  2  1  0
 33  5  1  0
 28 13  2  0
 26 18  1  0
M  END
>  <cnnaffinity>  (1) 
-5.32724

>  <filename>  (1) 
c1ccc(N2CCN(c3cnn(-c4cccnc4)c3)CC2)nc1

$$$$
