
     RDKit          3D

 34 36  0  0  0  0  0  0  0  0999 V2000
    7.4903   -2.7696   23.2448 H   0  0  0  0  0  0  0  0  0  0  0  0
    7.6707   -2.0047   22.5050 C   0  0  0  0  0  0  0  0  0  0  0  0
    8.8498   -1.3388   22.3904 N   0  0  0  0  0  0  0  0  0  0  0  0
    8.6010   -0.4909   21.4175 C   0  0  0  0  0  0  0  0  0  0  0  0
    9.5193    0.5906   20.9921 C   0  0  0  0  0  0  0  0  0  0  0  0
   10.5283    0.2157   21.1580 H   0  0  0  0  0  0  0  0  0  0  0  0
    9.4100    0.7829   19.9288 H   0  0  0  0  0  0  0  0  0  0  0  0
    9.3156    1.8787   21.7818 C   0  0  0  0  0  0  0  0  0  0  0  0
   10.1105    2.6007   21.5465 H   0  0  0  0  0  0  0  0  0  0  0  0
    9.3661    1.6512   22.8540 H   0  0  0  0  0  0  0  0  0  0  0  0
    8.0334    2.3976   21.4505 O   0  0  0  0  0  0  0  0  0  0  0  0
    7.5900    3.5541   22.0340 C   0  0  0  0  0  0  0  0  0  0  0  0
    8.2835    4.2802   23.0160 C   0  0  0  0  0  0  0  0  0  0  0  0
    9.2559    3.9366   23.3574 H   0  0  0  0  0  0  0  0  0  0  0  0
    7.7223    5.4505   23.5503 C   0  0  0  0  0  0  0  0  0  0  0  0
    8.2673    6.0019   24.3117 H   0  0  0  0  0  0  0  0  0  0  0  0
    6.4784    5.9167   23.1191 C   0  0  0  0  0  0  0  0  0  0  0  0
    6.0495    6.8287   23.5361 H   0  0  0  0  0  0  0  0  0  0  0  0
    5.7944    5.1944   22.1368 C   0  0  0  0  0  0  0  0  0  0  0  0
    4.8311    5.5531   21.7801 H   0  0  0  0  0  0  0  0  0  0  0  0
    6.3360    4.0237   21.5974 C   0  0  0  0  0  0  0  0  0  0  0  0
    5.8158    3.4733   20.8223 H   0  0  0  0  0  0  0  0  0  0  0  0
    7.3375   -0.6781   20.9371 N   0  0  0  0  0  0  0  0  0  0  0  0
    6.6495    0.0068   19.9009 C   0  0  0  0  0  0  0  0  0  0  0  0
    7.1612    0.0506   18.5940 C   0  0  0  0  0  0  0  0  0  0  0  0
    8.1062   -0.4325   18.3646 H   0  0  0  0  0  0  0  0  0  0  0  0
    6.5555    0.6646   17.5696 N   0  0  0  0  0  0  0  0  0  0  0  0
    5.4005    1.2934   17.8346 C   0  0  0  0  0  0  0  0  0  0  0  0
    4.9261    1.7906   16.9916 H   0  0  0  0  0  0  0  0  0  0  0  0
    4.8101    1.3043   19.1045 C   0  0  0  0  0  0  0  0  0  0  0  0
    3.8810    1.8406   19.2523 H   0  0  0  0  0  0  0  0  0  0  0  0
    5.4332    0.6417   20.1664 C   0  0  0  0  0  0  0  0  0  0  0  0
    5.0164    0.6193   21.1780 H   0  0  0  0  0  0  0  0  0  0  0  0
    6.7251   -1.6431   21.6627 N   0  0  0  0  0  0  0  0  0  0  0  0
  1  2  1  0
  2  3  1  0
  3  4  2  0
  4  5  1  0
  5  6  1  0
  5  7  1  0
  5  8  1  0
  8  9  1  0
  8 10  1  0
  8 11  1  0
 11 12  1  0
 12 13  2  0
 13 14  1  0
 13 15  1  0
 15 16  1  0
 15 17  2  0
 17 18  1  0
 17 19  1  0
 19 20  1  0
 19 21  2  0
 21 22  1  0
  4 23  1  0
 23 24  1  0
 24 25  2  0
 25 26  1  0
 25 27  1  0
 27 28  2  0
 28 29  1  0
 28 30  1  0
 30 31  1  0
 30 32  2  0
 32 33  1  0
 23 34  1  0
 34  2  2  0
 21 12  1  0
 32 24  1  0
M  END
>  <cnnaffinity>  (1) 
-4.99066

>  <filename>  (1) 
c1ccc(OCCc2ncnn2-c2cccnc2)cc1

$$$$
