
     RDKit          3D

 37 39  0  0  0  0  0  0  0  0999 V2000
    5.2207    2.1272   16.8028 H   0  0  0  0  0  0  0  0  0  0  0  0
    5.6443    1.4596   17.5545 C   0  0  0  0  0  0  0  0  0  0  0  0
    6.6869    0.7047   17.1715 N   0  0  0  0  0  0  0  0  0  0  0  0
    7.2419   -0.1113   18.0751 C   0  0  0  0  0  0  0  0  0  0  0  0
    8.0948   -0.7107   17.7508 H   0  0  0  0  0  0  0  0  0  0  0  0
    6.7896   -0.2150   19.3969 C   0  0  0  0  0  0  0  0  0  0  0  0
    7.5013   -1.0446   20.2398 O   0  0  0  0  0  0  0  0  0  0  0  0
    6.7963   -1.7795   21.1697 C   0  0  0  0  0  0  0  0  0  0  0  0
    5.7127   -2.6668   20.9906 C   0  0  0  0  0  0  0  0  0  0  0  0
    5.2273   -2.9315   20.0600 H   0  0  0  0  0  0  0  0  0  0  0  0
    5.2910   -3.1759   22.1412 N   0  0  0  0  0  0  0  0  0  0  0  0
    6.1506   -2.6516   23.0568 N   0  0  0  0  0  0  0  0  0  0  0  0
    5.9023   -2.6218   24.0351 H   0  0  0  0  0  0  0  0  0  0  0  0
    7.0930   -1.8382   22.5102 C   0  0  0  0  0  0  0  0  0  0  0  0
    8.1180   -1.2552   23.2334 N   0  0  0  0  0  0  0  0  0  0  0  0
    8.7589   -0.8263   22.5777 H   0  0  0  0  0  0  0  0  0  0  0  0
    8.7266   -1.9310   24.3750 C   0  0  0  0  0  0  0  0  0  0  0  0
    7.9667   -1.9396   25.1644 H   0  0  0  0  0  0  0  0  0  0  0  0
    9.5531   -1.3160   24.7510 H   0  0  0  0  0  0  0  0  0  0  0  0
    9.2316   -3.3744   24.1056 C   0  0  0  0  0  0  0  0  0  0  0  0
   10.2876   -3.3672   23.8029 H   0  0  0  0  0  0  0  0  0  0  0  0
    8.6664   -3.7818   23.2629 H   0  0  0  0  0  0  0  0  0  0  0  0
    9.0428   -4.2671   25.3169 C   0  0  0  0  0  0  0  0  0  0  0  0
    7.7867   -4.8159   25.6151 C   0  0  0  0  0  0  0  0  0  0  0  0
    6.9626   -4.6398   24.9270 H   0  0  0  0  0  0  0  0  0  0  0  0
    7.5814   -5.5593   26.7827 C   0  0  0  0  0  0  0  0  0  0  0  0
    6.6013   -5.9772   27.0077 H   0  0  0  0  0  0  0  0  0  0  0  0
    8.6454   -5.7816   27.6609 C   0  0  0  0  0  0  0  0  0  0  0  0
    8.5052   -6.4079   28.5407 H   0  0  0  0  0  0  0  0  0  0  0  0
    9.9005   -5.2355   27.3759 C   0  0  0  0  0  0  0  0  0  0  0  0
   10.7355   -5.3917   28.0542 H   0  0  0  0  0  0  0  0  0  0  0  0
   10.0945   -4.4959   26.2068 C   0  0  0  0  0  0  0  0  0  0  0  0
   11.0774   -4.1035   25.9651 H   0  0  0  0  0  0  0  0  0  0  0  0
    5.6951    0.5621   19.7964 C   0  0  0  0  0  0  0  0  0  0  0  0
    5.3137    0.4947   20.8164 H   0  0  0  0  0  0  0  0  0  0  0  0
    5.1149    1.4102   18.8451 C   0  0  0  0  0  0  0  0  0  0  0  0
    4.2680    2.0384   19.0935 H   0  0  0  0  0  0  0  0  0  0  0  0
  1  2  1  0
  2  3  2  0
  3  4  1  0
  4  5  1  0
  4  6  2  0
  6  7  1  0
  7  8  1  0
  8  9  1  0
  9 10  1  0
  9 11  2  0
 11 12  1  0
 12 13  1  0
 12 14  1  0
 14 15  1  0
 15 16  1  0
 15 17  1  0
 17 18  1  0
 17 19  1  0
 17 20  1  0
 20 21  1  0
 20 22  1  0
 20 23  1  0
 23 24  2  0
 24 25  1  0
 24 26  1  0
 26 27  1  0
 26 28  2  0
 28 29  1  0
 28 30  1  0
 30 31  1  0
 30 32  2  0
 32 33  1  0
  6 34  1  0
 34 35  1  0
 34 36  2  0
 36 37  1  0
 36  2  1  0
 14  8  2  0
 32 23  1  0
M  END
>  <cnnaffinity>  (1) 
-5.37334

>  <filename>  (1) 
c1ccc(CCNc2[nH]ncc2Oc2cccnc2)cc1

$$$$
