
     RDKit          3D

 43 46  0  0  0  0  0  0  0  0999 V2000
    8.4587   -1.9125   19.8594 H   0  0  0  0  0  0  0  0  0  0  0  0
    8.2409   -1.6278   20.8731 C   0  0  0  0  0  0  0  0  0  0  0  0
    8.8526   -2.3293   21.8446 N   0  0  0  0  0  0  0  0  0  0  0  0
    8.6520   -1.8805   23.0902 C   0  0  0  0  0  0  0  0  0  0  0  0
    9.1245   -2.4301   23.8983 H   0  0  0  0  0  0  0  0  0  0  0  0
    7.8446   -0.7244   23.3644 C   0  0  0  0  0  0  0  0  0  0  0  0
    7.7114   -0.2019   24.6197 N   0  0  0  0  0  0  0  0  0  0  0  0
    8.6497   -0.5546   25.7007 C   0  0  0  0  0  0  0  0  0  0  0  0
    9.6808   -0.5381   25.3234 H   0  0  0  0  0  0  0  0  0  0  0  0
    8.4606   -1.5754   26.0674 H   0  0  0  0  0  0  0  0  0  0  0  0
    8.5611    0.4471   26.8692 C   0  0  0  0  0  0  0  0  0  0  0  0
    8.9717    1.4075   26.5159 H   0  0  0  0  0  0  0  0  0  0  0  0
    9.2141    0.0946   27.6721 H   0  0  0  0  0  0  0  0  0  0  0  0
    7.1918    0.5861   27.3616 N   0  0  0  0  0  0  0  0  0  0  0  0
    6.8962    0.8318   28.6963 C   0  0  0  0  0  0  0  0  0  0  0  0
    7.7481    1.6444   29.4617 C   0  0  0  0  0  0  0  0  0  0  0  0
    8.5740    2.1029   28.9472 H   0  0  0  0  0  0  0  0  0  0  0  0
    7.4983    1.8793   30.8128 C   0  0  0  0  0  0  0  0  0  0  0  0
    8.1924    2.4858   31.3913 H   0  0  0  0  0  0  0  0  0  0  0  0
    6.3676    1.3209   31.4156 C   0  0  0  0  0  0  0  0  0  0  0  0
    6.1646    1.5058   32.4673 H   0  0  0  0  0  0  0  0  0  0  0  0
    5.4945    0.5316   30.6574 C   0  0  0  0  0  0  0  0  0  0  0  0
    4.6088    0.1028   31.1208 H   0  0  0  0  0  0  0  0  0  0  0  0
    5.7482    0.2920   29.3040 C   0  0  0  0  0  0  0  0  0  0  0  0
    5.0729   -0.3132   28.7064 H   0  0  0  0  0  0  0  0  0  0  0  0
    6.1237    0.5043   26.3718 C   0  0  0  0  0  0  0  0  0  0  0  0
    5.3535    1.2500   26.6008 H   0  0  0  0  0  0  0  0  0  0  0  0
    5.6306   -0.4796   26.3961 H   0  0  0  0  0  0  0  0  0  0  0  0
    6.6305    0.7427   24.9423 C   0  0  0  0  0  0  0  0  0  0  0  0
    6.9785    1.7803   24.8279 H   0  0  0  0  0  0  0  0  0  0  0  0
    5.8004    0.6044   24.2471 H   0  0  0  0  0  0  0  0  0  0  0  0
    7.1603   -0.1054   22.3825 N   0  0  0  0  0  0  0  0  0  0  0  0
    7.3647   -0.5514   21.1350 C   0  0  0  0  0  0  0  0  0  0  0  0
    6.6170    0.1170   20.0451 C   0  0  0  0  0  0  0  0  0  0  0  0
    7.1677    0.1088   18.7577 C   0  0  0  0  0  0  0  0  0  0  0  0
    8.1259   -0.3706   18.5753 H   0  0  0  0  0  0  0  0  0  0  0  0
    6.6040    0.6677   17.6880 N   0  0  0  0  0  0  0  0  0  0  0  0
    5.4258    1.2807   17.8682 C   0  0  0  0  0  0  0  0  0  0  0  0
    4.9902    1.7433   16.9837 H   0  0  0  0  0  0  0  0  0  0  0  0
    4.7734    1.3351   19.1039 C   0  0  0  0  0  0  0  0  0  0  0  0
    3.8171    1.8397   19.1764 H   0  0  0  0  0  0  0  0  0  0  0  0
    5.3782    0.7534   20.2183 C   0  0  0  0  0  0  0  0  0  0  0  0
    4.9062    0.7931   21.2014 H   0  0  0  0  0  0  0  0  0  0  0  0
  1  2  1  0
  2  3  2  0
  3  4  1  0
  4  5  1  0
  4  6  2  0
  6  7  1  0
  7  8  1  0
  8  9  1  0
  8 10  1  0
  8 11  1  0
 11 12  1  0
 11 13  1  0
 11 14  1  0
 14 15  1  0
 15 16  2  0
 16 17  1  0
 16 18  1  0
 18 19  1  0
 18 20  2  0
 20 21  1  0
 20 22  1  0
 22 23  1  0
 22 24  2  0
 24 25  1  0
 14 26  1  0
 26 27  1  0
 26 28  1  0
 26 29  1  0
 29 30  1  0
 29 31  1  0
  6 32  1  0
 32 33  2  0
 33 34  1  0
 34 35  2  0
 35 36  1  0
 35 37  1  0
 37 38  2  0
 38 39  1  0
 38 40  1  0
 40 41  1  0
 40 42  2  0
 42 43  1  0
 33  2  1  0
 42 34  1  0
 29  7  1  0
 24 15  1  0
M  END
>  <cnnaffinity>  (1) 
-5.28621

>  <filename>  (1) 
c1ccc(N2CCN(c3cncc(-c4cccnc4)n3)CC2)cc1

$$$$
