
     RDKit          3D

 29 31  0  0  0  0  0  0  0  0999 V2000
    5.0699    1.5890   16.8735 H   0  0  0  0  0  0  0  0  0  0  0  0
    5.4598    1.0821   17.7537 C   0  0  0  0  0  0  0  0  0  0  0  0
    6.5679    0.3505   17.5632 N   0  0  0  0  0  0  0  0  0  0  0  0
    7.0747   -0.2796   18.6266 C   0  0  0  0  0  0  0  0  0  0  0  0
    7.9529   -0.8995   18.4531 H   0  0  0  0  0  0  0  0  0  0  0  0
    6.5397   -0.1785   19.9231 C   0  0  0  0  0  0  0  0  0  0  0  0
    7.2524   -0.8493   21.0134 C   0  0  0  0  0  0  0  0  0  0  0  0
    7.8688   -2.0575   20.7780 N   0  0  0  0  0  0  0  0  0  0  0  0
    8.3773   -2.4398   21.9145 C   0  0  0  0  0  0  0  0  0  0  0  0
    8.9277   -3.3570   22.0841 H   0  0  0  0  0  0  0  0  0  0  0  0
    8.1512   -1.5292   22.8912 N   0  0  0  0  0  0  0  0  0  0  0  0
    8.4247   -1.6162   23.8558 H   0  0  0  0  0  0  0  0  0  0  0  0
    7.4498   -0.4804   22.3334 C   0  0  0  0  0  0  0  0  0  0  0  0
    7.1167    1.0115   23.2569 S   0  0  0  0  0  0  0  0  0  0  0  0
    8.6976    1.8454   23.2025 C   0  0  0  0  0  0  0  0  0  0  0  0
    9.8467    1.5540   23.9301 C   0  0  0  0  0  0  0  0  0  0  0  0
    9.8621    0.9853   24.8599 H   0  0  0  0  0  0  0  0  0  0  0  0
   11.0608    2.0617   23.2942 C   0  0  0  0  0  0  0  0  0  0  0  0
   12.0243    1.9405   23.7829 H   0  0  0  0  0  0  0  0  0  0  0  0
   10.8896    2.6952   22.0380 C   0  0  0  0  0  0  0  0  0  0  0  0
   11.4662    3.5969   21.8030 H   0  0  0  0  0  0  0  0  0  0  0  0
    9.3012    2.8673   21.8646 C   0  0  0  0  0  0  0  0  0  0  0  0
    8.8707    1.9862   20.7214 H   0  0  0  0  0  0  0  0  0  0  0  0
    9.1636    2.7477   21.5534 C   0  0  0  0  0  0  0  0  0  0  0  0
    8.6066    3.8541   21.4397 H   0  0  0  0  0  0  0  0  0  0  0  0
    5.3469    0.5478   20.0989 C   0  0  0  0  0  0  0  0  0  0  0  0
    4.8608    0.6105   21.0762 H   0  0  0  0  0  0  0  0  0  0  0  0
    4.8122    1.1978   18.9887 C   0  0  0  0  0  0  0  0  0  0  0  0
    3.9131    1.7960   19.0637 H   0  0  0  0  0  0  0  0  0  0  0  0
  1  2  1  0
  2  3  2  0
  3  4  1  0
  4  5  1  0
  4  6  2  0
  6  7  1  0
  7  8  1  0
  8  9  2  0
  9 10  1  0
  9 11  1  0
 11 12  1  0
 11 13  1  0
 13 14  1  0
 14 15  1  0
 15 16  2  0
 16 17  1  0
 16 18  1  0
 18 19  1  0
 18 20  2  0
 20 21  1  0
 20 22  1  0
 22 23  1  0
 22 24  2  0
 24 25  1  0
  6 26  1  0
 26 27  1  0
 26 28  2  0
 28 29  1  0
 28  2  1  0
 13  7  2  0
 24 15  1  0
M  END
>  <cnnaffinity>  (1) 
-5.06408

>  <filename>  (1) 
c1ccc(Sc2[nH]cnc2-c2cccnc2)cc1

$$$$
