
     RDKit          3D

 37 40  0  0  0  0  0  0  0  0999 V2000
    4.9632    1.8475   16.7903 H   0  0  0  0  0  0  0  0  0  0  0  0
    5.2734    1.2092   17.6179 C   0  0  0  0  0  0  0  0  0  0  0  0
    6.3431    0.4238   17.4067 N   0  0  0  0  0  0  0  0  0  0  0  0
    6.7951   -0.3125   18.4271 C   0  0  0  0  0  0  0  0  0  0  0  0
    7.6480   -0.9602   18.2268 H   0  0  0  0  0  0  0  0  0  0  0  0
    6.2205   -0.2902   19.7113 C   0  0  0  0  0  0  0  0  0  0  0  0
    6.8710   -0.9273   20.8008 N   0  0  0  0  0  0  0  0  0  0  0  0
    6.3961   -1.9705   21.5917 C   0  0  0  0  0  0  0  0  0  0  0  0
    5.4645   -2.4465   21.3395 H   0  0  0  0  0  0  0  0  0  0  0  0
    7.2780   -2.2129   22.6016 C   0  0  0  0  0  0  0  0  0  0  0  0
    7.3120   -2.8798   23.4461 H   0  0  0  0  0  0  0  0  0  0  0  0
    8.2985   -1.3008   22.4178 N   0  0  0  0  0  0  0  0  0  0  0  0
    9.4418   -1.0150   23.0713 N   0  0  0  0  0  0  0  0  0  0  0  0
    9.9328    0.0197   22.3821 C   0  0  0  0  0  0  0  0  0  0  0  0
   11.2695    0.6488   22.7578 C   0  0  0  0  0  0  0  0  0  0  0  0
   11.8788   -0.1150   23.2620 H   0  0  0  0  0  0  0  0  0  0  0  0
   11.7755    0.8758   21.8049 H   0  0  0  0  0  0  0  0  0  0  0  0
   11.2404    1.8785   23.5738 N   0  0  0  0  0  0  0  0  0  0  0  0
   10.3684    2.1665   24.0023 H   0  0  0  0  0  0  0  0  0  0  0  0
   12.1012    2.9437   23.3558 C   0  0  0  0  0  0  0  0  0  0  0  0
   13.3569    2.7964   22.7434 C   0  0  0  0  0  0  0  0  0  0  0  0
   13.6955    1.7997   22.4772 H   0  0  0  0  0  0  0  0  0  0  0  0
   14.1595    3.9148   22.5012 C   0  0  0  0  0  0  0  0  0  0  0  0
   15.0899    3.7722   21.9642 H   0  0  0  0  0  0  0  0  0  0  0  0
   13.7453    5.1921   22.8899 C   0  0  0  0  0  0  0  0  0  0  0  0
   14.3473    6.0672   22.6525 H   0  0  0  0  0  0  0  0  0  0  0  0
   12.5204    5.3359   23.5505 C   0  0  0  0  0  0  0  0  0  0  0  0
   12.1947    6.3202   23.8819 H   0  0  0  0  0  0  0  0  0  0  0  0
   11.6971    4.2292   23.7665 C   0  0  0  0  0  0  0  0  0  0  0  0
   10.6964    4.3449   24.1682 H   0  0  0  0  0  0  0  0  0  0  0  0
    9.1297    0.3841   21.2721 C   0  0  0  0  0  0  0  0  0  0  0  0
    9.3182    1.1726   20.5644 H   0  0  0  0  0  0  0  0  0  0  0  0
    8.0721   -0.5133   21.3498 C   0  0  0  0  0  0  0  0  0  0  0  0
    5.0484    0.4552   19.8959 C   0  0  0  0  0  0  0  0  0  0  0  0
    4.5445    0.4479   20.8610 H   0  0  0  0  0  0  0  0  0  0  0  0
    4.5789    1.2322   18.8317 C   0  0  0  0  0  0  0  0  0  0  0  0
    3.7078    1.8683   18.9458 H   0  0  0  0  0  0  0  0  0  0  0  0
  1  2  1  0
  2  3  2  0
  3  4  1  0
  4  5  1  0
  4  6  2  0
  6  7  1  0
  7  8  1  0
  8  9  1  0
  8 10  2  0
 10 11  1  0
 10 12  1  0
 12 13  1  0
 13 14  2  0
 14 15  1  0
 15 16  1  0
 15 17  1  0
 15 18  1  0
 18 19  1  0
 18 20  1  0
 20 21  2  0
 21 22  1  0
 21 23  1  0
 23 24  1  0
 23 25  2  0
 25 26  1  0
 25 27  1  0
 27 28  1  0
 27 29  2  0
 29 30  1  0
 14 31  1  0
 31 32  1  0
 31 33  2  0
  6 34  1  0
 34 35  1  0
 34 36  2  0
 36 37  1  0
 36  2  1  0
 33  7  1  0
 33 12  1  0
 29 20  1  0
M  END
>  <cnnaffinity>  (1) 
-5.44129

>  <filename>  (1) 
c1ccc(NCc2cc3n(-c4cccnc4)ccn3n2)cc1

$$$$
