
     RDKit          3D

 36 39  0  0  0  0  0  0  0  0999 V2000
    4.9267    1.7730   17.0025 H   0  0  0  0  0  0  0  0  0  0  0  0
    5.4100    1.2863   17.8464 C   0  0  0  0  0  0  0  0  0  0  0  0
    6.5735    0.6669   17.5958 N   0  0  0  0  0  0  0  0  0  0  0  0
    7.1791    0.0540   18.6173 C   0  0  0  0  0  0  0  0  0  0  0  0
    8.1252   -0.4315   18.3865 H   0  0  0  0  0  0  0  0  0  0  0  0
    6.6433    0.0159   19.9104 C   0  0  0  0  0  0  0  0  0  0  0  0
    7.3647   -0.6795   20.9701 C   0  0  0  0  0  0  0  0  0  0  0  0
    8.5831   -1.2649   20.7734 N   0  0  0  0  0  0  0  0  0  0  0  0
    8.8771   -1.6785   21.9894 C   0  0  0  0  0  0  0  0  0  0  0  0
   10.2217   -2.3987   22.8398 S   0  0  0  0  0  0  0  0  0  0  0  0
    9.3572   -2.2006   24.3461 C   0  0  0  0  0  0  0  0  0  0  0  0
    9.8460   -2.4806   25.2706 H   0  0  0  0  0  0  0  0  0  0  0  0
    8.1261   -1.6709   24.2011 C   0  0  0  0  0  0  0  0  0  0  0  0
    7.2131   -1.2114   25.2994 C   0  0  0  0  0  0  0  0  0  0  0  0
    7.2986   -1.9154   26.1361 H   0  0  0  0  0  0  0  0  0  0  0  0
    6.1762   -1.2457   24.9505 H   0  0  0  0  0  0  0  0  0  0  0  0
    7.5571    0.2216   25.7893 C   0  0  0  0  0  0  0  0  0  0  0  0
    8.5985    0.2396   26.1330 H   0  0  0  0  0  0  0  0  0  0  0  0
    6.9414    0.4585   26.6657 H   0  0  0  0  0  0  0  0  0  0  0  0
    7.3517    1.2557   24.7073 C   0  0  0  0  0  0  0  0  0  0  0  0
    6.0559    1.7135   24.4189 C   0  0  0  0  0  0  0  0  0  0  0  0
    5.2160    1.3531   25.0104 H   0  0  0  0  0  0  0  0  0  0  0  0
    5.8321    2.6076   23.3691 C   0  0  0  0  0  0  0  0  0  0  0  0
    4.8223    2.9508   23.1527 H   0  0  0  0  0  0  0  0  0  0  0  0
    6.9028    3.0440   22.5816 C   0  0  0  0  0  0  0  0  0  0  0  0
    6.7272    3.7336   21.7582 H   0  0  0  0  0  0  0  0  0  0  0  0
    8.1994    2.5925   22.8541 C   0  0  0  0  0  0  0  0  0  0  0  0
    9.0337    2.9279   22.2406 H   0  0  0  0  0  0  0  0  0  0  0  0
    8.4193    1.7049   23.9127 C   0  0  0  0  0  0  0  0  0  0  0  0
    9.4237    1.3328   24.1083 H   0  0  0  0  0  0  0  0  0  0  0  0
    7.8785   -1.4056   22.8518 N   0  0  0  0  0  0  0  0  0  0  0  0
    6.8795   -0.7570   22.2014 N   0  0  0  0  0  0  0  0  0  0  0  0
    5.4262    0.6612   20.1659 C   0  0  0  0  0  0  0  0  0  0  0  0
    5.0047    0.6295   21.1770 H   0  0  0  0  0  0  0  0  0  0  0  0
    4.8024    1.3124   19.1081 C   0  0  0  0  0  0  0  0  0  0  0  0
    3.8702    1.8443   19.2558 H   0  0  0  0  0  0  0  0  0  0  0  0
  1  2  1  0
  2  3  2  0
  3  4  1  0
  4  5  1  0
  4  6  2  0
  6  7  1  0
  7  8  1  0
  8  9  2  0
  9 10  1  0
 10 11  1  0
 11 12  1  0
 11 13  2  0
 13 14  1  0
 14 15  1  0
 14 16  1  0
 14 17  1  0
 17 18  1  0
 17 19  1  0
 17 20  1  0
 20 21  2  0
 21 22  1  0
 21 23  1  0
 23 24  1  0
 23 25  2  0
 25 26  1  0
 25 27  1  0
 27 28  1  0
 27 29  2  0
 29 30  1  0
 13 31  1  0
 31 32  1  0
  6 33  1  0
 33 34  1  0
 33 35  2  0
 35 36  1  0
 35  2  1  0
 32  7  2  0
 31  9  1  0
 29 20  1  0
M  END
>  <cnnaffinity>  (1) 
-5.52181

>  <filename>  (1) 
c1ccc(CCc2csc3nc(-c4cccnc4)nn23)cc1

$$$$
