
     RDKit          3D

 34 37  0  0  0  0  0  0  0  0999 V2000
    4.9649    1.8642   16.9891 H   0  0  0  0  0  0  0  0  0  0  0  0
    5.4794    1.3385   17.7871 C   0  0  0  0  0  0  0  0  0  0  0  0
    6.6391    0.7486   17.4486 N   0  0  0  0  0  0  0  0  0  0  0  0
    7.3114    0.0931   18.4016 C   0  0  0  0  0  0  0  0  0  0  0  0
    8.2463   -0.3789   18.0903 H   0  0  0  0  0  0  0  0  0  0  0  0
    6.8487   -0.0283   19.7244 C   0  0  0  0  0  0  0  0  0  0  0  0
    7.5325   -0.8277   20.6760 N   0  0  0  0  0  0  0  0  0  0  0  0
    8.8835   -0.7811   21.0136 C   0  0  0  0  0  0  0  0  0  0  0  0
    9.5337   -0.0813   20.5190 H   0  0  0  0  0  0  0  0  0  0  0  0
    9.1244   -1.6614   22.0220 C   0  0  0  0  0  0  0  0  0  0  0  0
   10.0151   -1.8940   22.5746 H   0  0  0  0  0  0  0  0  0  0  0  0
    7.9167   -2.2652   22.3048 N   0  0  0  0  0  0  0  0  0  0  0  0
    7.4753   -3.1874   23.2128 N   0  0  0  0  0  0  0  0  0  0  0  0
    6.1817   -3.2543   22.9067 C   0  0  0  0  0  0  0  0  0  0  0  0
    5.2488   -4.0473   23.5266 N   0  0  0  0  0  0  0  0  0  0  0  0
    4.4301   -4.1494   22.9586 H   0  0  0  0  0  0  0  0  0  0  0  0
    5.4136   -5.0316   24.4986 C   0  0  0  0  0  0  0  0  0  0  0  0
    6.2371   -4.8333   25.6118 C   0  0  0  0  0  0  0  0  0  0  0  0
    6.7951   -3.9023   25.6840 H   0  0  0  0  0  0  0  0  0  0  0  0
    6.3076   -5.8364   26.5835 C   0  0  0  0  0  0  0  0  0  0  0  0
    6.9388   -5.6792   27.4537 H   0  0  0  0  0  0  0  0  0  0  0  0
    5.5776   -7.0234   26.4459 C   0  0  0  0  0  0  0  0  0  0  0  0
    5.6539   -7.7953   27.2039 H   0  0  0  0  0  0  0  0  0  0  0  0
    4.7544   -7.2097   25.3269 C   0  0  0  0  0  0  0  0  0  0  0  0
    4.1697   -8.1164   25.1961 H   0  0  0  0  0  0  0  0  0  0  0  0
    4.6661   -6.2103   24.3618 C   0  0  0  0  0  0  0  0  0  0  0  0
    4.0331   -6.3373   23.4865 H   0  0  0  0  0  0  0  0  0  0  0  0
    5.7823   -2.4335   21.8373 C   0  0  0  0  0  0  0  0  0  0  0  0
    4.7704   -2.3366   21.5276 H   0  0  0  0  0  0  0  0  0  0  0  0
    6.9469   -1.7766   21.4959 C   0  0  0  0  0  0  0  0  0  0  0  0
    5.6464    0.6134   20.0736 C   0  0  0  0  0  0  0  0  0  0  0  0
    5.2933    0.5700   21.1045 H   0  0  0  0  0  0  0  0  0  0  0  0
    4.9503    1.3057   19.0818 C   0  0  0  0  0  0  0  0  0  0  0  0
    4.0222    1.8281   19.3010 H   0  0  0  0  0  0  0  0  0  0  0  0
  1  2  1  0
  2  3  2  0
  3  4  1  0
  4  5  1  0
  4  6  2  0
  6  7  1  0
  7  8  1  0
  8  9  1  0
  8 10  2  0
 10 11  1  0
 10 12  1  0
 12 13  1  0
 13 14  2  0
 14 15  1  0
 15 16  1  0
 15 17  1  0
 17 18  2  0
 18 19  1  0
 18 20  1  0
 20 21  1  0
 20 22  2  0
 22 23  1  0
 22 24  1  0
 24 25  1  0
 24 26  2  0
 26 27  1  0
 14 28  1  0
 28 29  1  0
 28 30  2  0
  6 31  1  0
 31 32  1  0
 31 33  2  0
 33 34  1  0
 33  2  1  0
 30  7  1  0
 30 12  1  0
 26 17  1  0
M  END
>  <cnnaffinity>  (1) 
-5.01386

>  <filename>  (1) 
c1ccc(Nc2cc3n(-c4cccnc4)ccn3n2)cc1

$$$$
