
     RDKit          3D

 41 44  0  0  0  0  0  0  0  0999 V2000
    8.5099   -7.4372   28.9373 H   0  0  0  0  0  0  0  0  0  0  0  0
    7.8455   -6.5899   28.7777 C   0  0  0  0  0  0  0  0  0  0  0  0
    8.0989   -5.8628   27.6819 N   0  0  0  0  0  0  0  0  0  0  0  0
    7.2579   -4.8694   27.4071 C   0  0  0  0  0  0  0  0  0  0  0  0
    7.4613   -4.1011   26.2595 N   0  0  0  0  0  0  0  0  0  0  0  0
    6.4623   -4.2121   25.1917 C   0  0  0  0  0  0  0  0  0  0  0  0
    5.4695   -4.4410   25.5977 H   0  0  0  0  0  0  0  0  0  0  0  0
    6.7354   -5.0327   24.5060 H   0  0  0  0  0  0  0  0  0  0  0  0
    6.4155   -2.9208   24.3643 C   0  0  0  0  0  0  0  0  0  0  0  0
    6.0704   -2.0914   25.0021 H   0  0  0  0  0  0  0  0  0  0  0  0
    5.6908   -3.0591   23.5587 H   0  0  0  0  0  0  0  0  0  0  0  0
    7.7367   -2.6332   23.8012 N   0  0  0  0  0  0  0  0  0  0  0  0
    7.8438   -1.8468   22.6759 C   0  0  0  0  0  0  0  0  0  0  0  0
    9.0621   -1.4405   22.1957 N   0  0  0  0  0  0  0  0  0  0  0  0
    8.7967   -0.7535   21.1141 C   0  0  0  0  0  0  0  0  0  0  0  0
    9.5145   -0.2664   20.4616 H   0  0  0  0  0  0  0  0  0  0  0  0
    7.4515   -0.6845   20.8467 N   0  0  0  0  0  0  0  0  0  0  0  0
    6.7545    0.0042   19.8165 C   0  0  0  0  0  0  0  0  0  0  0  0
    7.2072    0.0012   18.4837 C   0  0  0  0  0  0  0  0  0  0  0  0
    8.1042   -0.5516   18.2071 H   0  0  0  0  0  0  0  0  0  0  0  0
    6.5742    0.6385   17.4910 N   0  0  0  0  0  0  0  0  0  0  0  0
    5.4435    1.2974   17.7853 C   0  0  0  0  0  0  0  0  0  0  0  0
    4.9589    1.8076   16.9573 H   0  0  0  0  0  0  0  0  0  0  0  0
    4.8899    1.3363   19.0706 C   0  0  0  0  0  0  0  0  0  0  0  0
    3.9587    1.8653   19.2473 H   0  0  0  0  0  0  0  0  0  0  0  0
    5.5602    0.6822   20.1072 C   0  0  0  0  0  0  0  0  0  0  0  0
    5.1803    0.6995   21.1300 H   0  0  0  0  0  0  0  0  0  0  0  0
    6.8411   -1.4079   21.8537 C   0  0  0  0  0  0  0  0  0  0  0  0
    5.7777   -1.5342   21.9144 H   0  0  0  0  0  0  0  0  0  0  0  0
    8.7858   -2.5814   24.8262 C   0  0  0  0  0  0  0  0  0  0  0  0
    8.6209   -1.7063   25.4737 H   0  0  0  0  0  0  0  0  0  0  0  0
    9.7488   -2.4550   24.3257 H   0  0  0  0  0  0  0  0  0  0  0  0
    8.7945   -3.8632   25.6899 C   0  0  0  0  0  0  0  0  0  0  0  0
    9.0922   -4.7010   25.0387 H   0  0  0  0  0  0  0  0  0  0  0  0
    9.5486   -3.7624   26.4804 H   0  0  0  0  0  0  0  0  0  0  0  0
    6.1450   -4.5534   28.2076 C   0  0  0  0  0  0  0  0  0  0  0  0
    5.5098   -3.7506   27.8569 H   0  0  0  0  0  0  0  0  0  0  0  0
    5.9497   -5.2548   29.3916 C   0  0  0  0  0  0  0  0  0  0  0  0
    5.1329   -4.9936   30.0657 H   0  0  0  0  0  0  0  0  0  0  0  0
    6.8235   -6.3124   29.6856 C   0  0  0  0  0  0  0  0  0  0  0  0
    6.7267   -6.9057   30.5906 H   0  0  0  0  0  0  0  0  0  0  0  0
  1  2  1  0
  2  3  2  0
  3  4  1  0
  4  5  1  0
  5  6  1  0
  6  7  1  0
  6  8  1  0
  6  9  1  0
  9 10  1  0
  9 11  1  0
  9 12  1  0
 12 13  1  0
 13 14  1  0
 14 15  2  0
 15 16  1  0
 15 17  1  0
 17 18  1  0
 18 19  2  0
 19 20  1  0
 19 21  1  0
 21 22  2  0
 22 23  1  0
 22 24  1  0
 24 25  1  0
 24 26  2  0
 26 27  1  0
 17 28  1  0
 28 29  1  0
 12 30  1  0
 30 31  1  0
 30 32  1  0
 30 33  1  0
 33 34  1  0
 33 35  1  0
  4 36  2  0
 36 37  1  0
 36 38  1  0
 38 39  1  0
 38 40  2  0
 40 41  1  0
 40  2  1  0
 33  5  1  0
 28 13  2  0
 26 18  1  0
M  END
>  <cnnaffinity>  (1) 
-5.1799

>  <filename>  (1) 
c1ccc(N2CCN(c3cn(-c4cccnc4)cn3)CC2)nc1

$$$$
