
     RDKit          3D

 31 33  0  0  0  0  0  0  0  0999 V2000
    9.3246   -0.2889   20.3234 H   0  0  0  0  0  0  0  0  0  0  0  0
    8.7574   -0.7961   21.0980 C   0  0  0  0  0  0  0  0  0  0  0  0
    9.4539   -1.4373   22.0615 N   0  0  0  0  0  0  0  0  0  0  0  0
    8.7120   -2.0274   23.0130 C   0  0  0  0  0  0  0  0  0  0  0  0
    9.2350   -2.5436   23.8108 H   0  0  0  0  0  0  0  0  0  0  0  0
    7.2805   -1.9680   23.0062 C   0  0  0  0  0  0  0  0  0  0  0  0
    6.4463   -2.5119   23.9466 N   0  0  0  0  0  0  0  0  0  0  0  0
    5.5048   -2.1957   23.7242 H   0  0  0  0  0  0  0  0  0  0  0  0
    6.7063   -3.6741   24.6977 C   0  0  0  0  0  0  0  0  0  0  0  0
    6.2080   -3.7656   26.0012 C   0  0  0  0  0  0  0  0  0  0  0  0
    5.6032   -2.9410   26.3668 H   0  0  0  0  0  0  0  0  0  0  0  0
    6.5344   -4.8637   26.8043 C   0  0  0  0  0  0  0  0  0  0  0  0
    6.1536   -4.9228   27.8212 H   0  0  0  0  0  0  0  0  0  0  0  0
    7.3560   -5.8830   26.3069 C   0  0  0  0  0  0  0  0  0  0  0  0
    7.6184   -6.7274   26.9379 H   0  0  0  0  0  0  0  0  0  0  0  0
    7.8476   -5.8001   25.0004 C   0  0  0  0  0  0  0  0  0  0  0  0
    8.5036   -6.5735   24.6075 H   0  0  0  0  0  0  0  0  0  0  0  0
    7.5137   -4.7107   24.1924 C   0  0  0  0  0  0  0  0  0  0  0  0
    7.8775   -4.6464   23.1736 H   0  0  0  0  0  0  0  0  0  0  0  0
    6.5980   -1.3044   22.0588 N   0  0  0  0  0  0  0  0  0  0  0  0
    7.3342   -0.7410   21.0816 C   0  0  0  0  0  0  0  0  0  0  0  0
    6.5940   -0.0402   19.9936 C   0  0  0  0  0  0  0  0  0  0  0  0
    7.1391   -0.0127   18.6996 C   0  0  0  0  0  0  0  0  0  0  0  0
    8.0780   -0.5246   18.4902 H   0  0  0  0  0  0  0  0  0  0  0  0
    6.5853    0.6096   17.6567 N   0  0  0  0  0  0  0  0  0  0  0  0
    5.4358    1.2671   17.8730 C   0  0  0  0  0  0  0  0  0  0  0  0
    5.0107    1.7888   17.0165 H   0  0  0  0  0  0  0  0  0  0  0  0
    4.7919    1.3005   19.1138 C   0  0  0  0  0  0  0  0  0  0  0  0
    3.8670    1.8657   19.2250 H   0  0  0  0  0  0  0  0  0  0  0  0
    5.3712    0.6298   20.1938 C   0  0  0  0  0  0  0  0  0  0  0  0
    4.9012    0.6372   21.1794 H   0  0  0  0  0  0  0  0  0  0  0  0
  1  2  1  0
  2  3  2  0
  3  4  1  0
  4  5  1  0
  4  6  2  0
  6  7  1  0
  7  8  1  0
  7  9  1  0
  9 10  2  0
 10 11  1  0
 10 12  1  0
 12 13  1  0
 12 14  2  0
 14 15  1  0
 14 16  1  0
 16 17  1  0
 16 18  2  0
 18 19  1  0
  6 20  1  0
 20 21  2  0
 21 22  1  0
 22 23  2  0
 23 24  1  0
 23 25  1  0
 25 26  2  0
 26 27  1  0
 26 28  1  0
 28 29  1  0
 28 30  2  0
 30 31  1  0
 21  2  1  0
 30 22  1  0
 18  9  1  0
M  END
>  <cnnaffinity>  (1) 
-5.20592

>  <filename>  (1) 
c1ccc(Nc2cncc(-c3cccnc3)n2)cc1

$$$$
