
     RDKit          3D

 33 35  0  0  0  0  0  0  0  0999 V2000
    4.9354    1.7779   16.9981 H   0  0  0  0  0  0  0  0  0  0  0  0
    5.4098    1.2854   17.8449 C   0  0  0  0  0  0  0  0  0  0  0  0
    6.5707    0.6668   17.5875 N   0  0  0  0  0  0  0  0  0  0  0  0
    7.1768    0.0562   18.6096 C   0  0  0  0  0  0  0  0  0  0  0  0
    8.1220   -0.4229   18.3718 H   0  0  0  0  0  0  0  0  0  0  0  0
    6.6566    0.0111   19.9082 C   0  0  0  0  0  0  0  0  0  0  0  0
    7.4065   -0.6964   20.9427 C   0  0  0  0  0  0  0  0  0  0  0  0
    8.5543   -1.3010   20.7482 N   0  0  0  0  0  0  0  0  0  0  0  0
    8.8577   -1.8181   21.9965 O   0  0  0  0  0  0  0  0  0  0  0  0
    7.8763   -1.4558   22.8187 C   0  0  0  0  0  0  0  0  0  0  0  0
    7.9729   -1.7748   24.2606 C   0  0  0  0  0  0  0  0  0  0  0  0
    8.6527   -2.6108   24.4099 H   0  0  0  0  0  0  0  0  0  0  0  0
    6.9750   -2.0745   24.5892 H   0  0  0  0  0  0  0  0  0  0  0  0
    8.4484   -0.5756   25.0864 C   0  0  0  0  0  0  0  0  0  0  0  0
    8.4511   -0.8436   26.1433 H   0  0  0  0  0  0  0  0  0  0  0  0
    7.7716    0.2827   24.9763 H   0  0  0  0  0  0  0  0  0  0  0  0
    9.8012   -0.2374   24.8150 O   0  0  0  0  0  0  0  0  0  0  0  0
   10.1839    0.5857   23.7930 C   0  0  0  0  0  0  0  0  0  0  0  0
    9.3305    1.4341   23.0701 C   0  0  0  0  0  0  0  0  0  0  0  0
    8.2664    1.4500   23.2881 H   0  0  0  0  0  0  0  0  0  0  0  0
    9.8502    2.2044   22.0159 C   0  0  0  0  0  0  0  0  0  0  0  0
    9.1781    2.8390   21.4407 H   0  0  0  0  0  0  0  0  0  0  0  0
   11.2087    2.1697   21.7000 C   0  0  0  0  0  0  0  0  0  0  0  0
   11.6018    2.7840   20.8887 H   0  0  0  0  0  0  0  0  0  0  0  0
   12.0613    1.3505   22.4517 C   0  0  0  0  0  0  0  0  0  0  0  0
   13.1239    1.3285   22.2231 H   0  0  0  0  0  0  0  0  0  0  0  0
   11.5572    0.5682   23.4925 C   0  0  0  0  0  0  0  0  0  0  0  0
   12.2074   -0.0690   24.0853 H   0  0  0  0  0  0  0  0  0  0  0  0
    6.9434   -0.7723   22.2346 N   0  0  0  0  0  0  0  0  0  0  0  0
    5.4329    0.6527   20.1729 C   0  0  0  0  0  0  0  0  0  0  0  0
    4.9965    0.6398   21.1770 H   0  0  0  0  0  0  0  0  0  0  0  0
    4.8082    1.3054   19.1102 C   0  0  0  0  0  0  0  0  0  0  0  0
    3.8777    1.8400   19.2526 H   0  0  0  0  0  0  0  0  0  0  0  0
  1  2  1  0
  2  3  2  0
  3  4  1  0
  4  5  1  0
  4  6  2  0
  6  7  1  0
  7  8  2  0
  8  9  1  0
  9 10  1  0
 10 11  1  0
 11 12  1  0
 11 13  1  0
 11 14  1  0
 14 15  1  0
 14 16  1  0
 14 17  1  0
 17 18  1  0
 18 19  2  0
 19 20  1  0
 19 21  1  0
 21 22  1  0
 21 23  2  0
 23 24  1  0
 23 25  1  0
 25 26  1  0
 25 27  2  0
 27 28  1  0
 10 29  2  0
  6 30  1  0
 30 31  1  0
 30 32  2  0
 32 33  1  0
 32  2  1  0
 29  7  1  0
 27 18  1  0
M  END
>  <cnnaffinity>  (1) 
-5.30952

>  <filename>  (1) 
c1ccc(OCCc2nc(-c3cccnc3)no2)cc1

$$$$
