
     RDKit          3D

 40 44  0  0  0  0  0  0  0  0999 V2000
    4.9093    1.7701   17.0073 H   0  0  0  0  0  0  0  0  0  0  0  0
    5.4052    1.2878   17.8487 C   0  0  0  0  0  0  0  0  0  0  0  0
    6.5744    0.6750   17.5948 N   0  0  0  0  0  0  0  0  0  0  0  0
    7.1848    0.0550   18.6125 C   0  0  0  0  0  0  0  0  0  0  0  0
    8.1322   -0.4371   18.3825 H   0  0  0  0  0  0  0  0  0  0  0  0
    6.6540    0.0116   19.9089 C   0  0  0  0  0  0  0  0  0  0  0  0
    7.3626   -0.6914   20.9677 C   0  0  0  0  0  0  0  0  0  0  0  0
    8.5471   -1.3288   20.7619 N   0  0  0  0  0  0  0  0  0  0  0  0
    8.7906   -1.8083   21.9612 C   0  0  0  0  0  0  0  0  0  0  0  0
    9.9833   -2.8238   22.7150 S   0  0  0  0  0  0  0  0  0  0  0  0
    9.0807   -2.7658   24.2050 C   0  0  0  0  0  0  0  0  0  0  0  0
    9.4522   -3.2888   25.0723 H   0  0  0  0  0  0  0  0  0  0  0  0
    7.9596   -2.0157   24.1255 C   0  0  0  0  0  0  0  0  0  0  0  0
    6.9722   -1.7659   25.1923 C   0  0  0  0  0  0  0  0  0  0  0  0
    6.7648   -2.7532   26.1742 C   0  0  0  0  0  0  0  0  0  0  0  0
    7.3069   -3.6940   26.1310 H   0  0  0  0  0  0  0  0  0  0  0  0
    5.8561   -2.5482   27.2030 C   0  0  0  0  0  0  0  0  0  0  0  0
    5.7001   -3.3320   27.9388 H   0  0  0  0  0  0  0  0  0  0  0  0
    5.1206   -1.3519   27.2887 C   0  0  0  0  0  0  0  0  0  0  0  0
    4.1451   -1.1321   28.3873 C   0  0  0  0  0  0  0  0  0  0  0  0
    2.9052   -0.5115   28.1373 C   0  0  0  0  0  0  0  0  0  0  0  0
    2.6486   -0.2026   27.1259 H   0  0  0  0  0  0  0  0  0  0  0  0
    1.9884   -0.3087   29.1695 C   0  0  0  0  0  0  0  0  0  0  0  0
    1.0368    0.1708   28.9601 H   0  0  0  0  0  0  0  0  0  0  0  0
    2.2964   -0.7166   30.4705 C   0  0  0  0  0  0  0  0  0  0  0  0
    1.5846   -0.5569   31.2733 H   0  0  0  0  0  0  0  0  0  0  0  0
    3.5236   -1.3309   30.7355 C   0  0  0  0  0  0  0  0  0  0  0  0
    3.7670   -1.6514   31.7445 H   0  0  0  0  0  0  0  0  0  0  0  0
    4.4389   -1.5395   29.7032 C   0  0  0  0  0  0  0  0  0  0  0  0
    5.3968   -2.0056   29.9261 H   0  0  0  0  0  0  0  0  0  0  0  0
    5.3362   -0.3664   26.3065 C   0  0  0  0  0  0  0  0  0  0  0  0
    4.7974    0.5762   26.3591 H   0  0  0  0  0  0  0  0  0  0  0  0
    6.2477   -0.5601   25.2786 C   0  0  0  0  0  0  0  0  0  0  0  0
    6.4018    0.2207   24.5412 H   0  0  0  0  0  0  0  0  0  0  0  0
    7.8263   -1.4738   22.8401 N   0  0  0  0  0  0  0  0  0  0  0  0
    6.8707   -0.7483   22.2031 N   0  0  0  0  0  0  0  0  0  0  0  0
    5.4374    0.6544   20.1630 C   0  0  0  0  0  0  0  0  0  0  0  0
    5.0071    0.6288   21.1633 H   0  0  0  0  0  0  0  0  0  0  0  0
    4.8057    1.3104   19.1138 C   0  0  0  0  0  0  0  0  0  0  0  0
    3.8717    1.8453   19.2675 H   0  0  0  0  0  0  0  0  0  0  0  0
  1  2  1  0
  2  3  2  0
  3  4  1  0
  4  5  1  0
  4  6  2  0
  6  7  1  0
  7  8  1  0
  8  9  2  0
  9 10  1  0
 10 11  1  0
 11 12  1  0
 11 13  2  0
 13 14  1  0
 14 15  2  0
 15 16  1  0
 15 17  1  0
 17 18  1  0
 17 19  2  0
 19 20  1  0
 20 21  2  0
 21 22  1  0
 21 23  1  0
 23 24  1  0
 23 25  2  0
 25 26  1  0
 25 27  1  0
 27 28  1  0
 27 29  2  0
 29 30  1  0
 19 31  1  0
 31 32  1  0
 31 33  2  0
 33 34  1  0
 13 35  1  0
 35 36  1  0
  6 37  1  0
 37 38  1  0
 37 39  2  0
 39 40  1  0
 39  2  1  0
 36  7  2  0
 35  9  1  0
 33 14  1  0
 29 20  1  0
M  END
>  <cnnaffinity>  (1) 
-5.79777

>  <filename>  (1) 
c1ccc(-c2ccc(-c3csc4nc(-c5cccnc5)nn34)cc2)cc1

$$$$
