
     RDKit          3D

 31 33  0  0  0  0  0  0  0  0999 V2000
    6.5341   -3.1200   23.1353 H   0  0  0  0  0  0  0  0  0  0  0  0
    7.1784   -2.4135   22.6200 C   0  0  0  0  0  0  0  0  0  0  0  0
    6.6139   -1.7146   21.6296 N   0  0  0  0  0  0  0  0  0  0  0  0
    7.3473   -0.7948   20.9899 C   0  0  0  0  0  0  0  0  0  0  0  0
    6.6183   -0.0409   19.9307 C   0  0  0  0  0  0  0  0  0  0  0  0
    7.1663   -0.0029   18.6467 C   0  0  0  0  0  0  0  0  0  0  0  0
    8.1055   -0.5140   18.4323 H   0  0  0  0  0  0  0  0  0  0  0  0
    6.5955    0.6278   17.6126 N   0  0  0  0  0  0  0  0  0  0  0  0
    5.4420    1.2720   17.8371 C   0  0  0  0  0  0  0  0  0  0  0  0
    5.0099    1.8159   16.9983 H   0  0  0  0  0  0  0  0  0  0  0  0
    4.7954    1.2788   19.0791 C   0  0  0  0  0  0  0  0  0  0  0  0
    3.8749    1.8391   19.2066 H   0  0  0  0  0  0  0  0  0  0  0  0
    5.3790    0.5857   20.1392 C   0  0  0  0  0  0  0  0  0  0  0  0
    4.8910    0.5477   21.1154 H   0  0  0  0  0  0  0  0  0  0  0  0
    8.7064   -0.5513   21.3272 C   0  0  0  0  0  0  0  0  0  0  0  0
    9.6582    0.8264   20.7072 S   0  0  0  0  0  0  0  0  0  0  0  0
    9.0707    2.0842   21.8463 C   0  0  0  0  0  0  0  0  0  0  0  0
    9.7470    2.3786   23.0405 C   0  0  0  0  0  0  0  0  0  0  0  0
   10.6754    1.8664   23.2885 H   0  0  0  0  0  0  0  0  0  0  0  0
    9.2584    3.3845   23.8857 C   0  0  0  0  0  0  0  0  0  0  0  0
    9.7945    3.6112   24.8028 H   0  0  0  0  0  0  0  0  0  0  0  0
    8.1367    4.1375   23.5185 C   0  0  0  0  0  0  0  0  0  0  0  0
    7.8074    4.9661   24.1435 H   0  0  0  0  0  0  0  0  0  0  0  0
    7.4529    3.8250   22.3408 C   0  0  0  0  0  0  0  0  0  0  0  0
    6.5757    4.3922   22.0415 H   0  0  0  0  0  0  0  0  0  0  0  0
    7.8881    2.7695   21.5375 C   0  0  0  0  0  0  0  0  0  0  0  0
    7.2954    2.4752   20.6760 H   0  0  0  0  0  0  0  0  0  0  0  0
    9.2853   -1.3138   22.3514 C   0  0  0  0  0  0  0  0  0  0  0  0
   10.3218   -1.1414   22.6464 H   0  0  0  0  0  0  0  0  0  0  0  0
    8.5056   -2.2501   23.0208 C   0  0  0  0  0  0  0  0  0  0  0  0
    8.9015   -2.8130   23.8613 H   0  0  0  0  0  0  0  0  0  0  0  0
  1  2  1  0
  2  3  2  0
  3  4  1  0
  4  5  1  0
  5  6  2  0
  6  7  1  0
  6  8  1  0
  8  9  2  0
  9 10  1  0
  9 11  1  0
 11 12  1  0
 11 13  2  0
 13 14  1  0
  4 15  2  0
 15 16  1  0
 16 17  1  0
 17 18  2  0
 18 19  1  0
 18 20  1  0
 20 21  1  0
 20 22  2  0
 22 23  1  0
 22 24  1  0
 24 25  1  0
 24 26  2  0
 26 27  1  0
 15 28  1  0
 28 29  1  0
 28 30  2  0
 30 31  1  0
 30  2  1  0
 13  5  1  0
 26 17  1  0
M  END
>  <cnnaffinity>  (1) 
-5.31809

>  <filename>  (1) 
c1ccc(Sc2cccnc2-c2cccnc2)cc1

$$$$
