
     RDKit          3D

 44 47  0  0  0  0  0  0  0  0999 V2000
    4.9064    1.8788   16.9473 H   0  0  0  0  0  0  0  0  0  0  0  0
    5.3658    1.3204   17.7593 C   0  0  0  0  0  0  0  0  0  0  0  0
    6.5166    0.6921   17.4702 N   0  0  0  0  0  0  0  0  0  0  0  0
    7.1281    0.0370   18.4628 C   0  0  0  0  0  0  0  0  0  0  0  0
    8.0873   -0.4141   18.1986 H   0  0  0  0  0  0  0  0  0  0  0  0
    6.6317   -0.0522   19.7842 C   0  0  0  0  0  0  0  0  0  0  0  0
    7.3938   -0.6813   20.8908 C   0  0  0  0  0  0  0  0  0  0  0  0
    7.5704   -0.2417   22.1857 C   0  0  0  0  0  0  0  0  0  0  0  0
    8.5186   -1.0830   22.7630 C   0  0  0  0  0  0  0  0  0  0  0  0
    8.9116   -2.0421   21.9437 N   0  0  0  0  0  0  0  0  0  0  0  0
    8.2294   -1.7661   20.8037 N   0  0  0  0  0  0  0  0  0  0  0  0
    8.4122   -2.3407   19.9953 H   0  0  0  0  0  0  0  0  0  0  0  0
    8.8783   -0.6682   24.1593 C   0  0  0  0  0  0  0  0  0  0  0  0
    8.4908   -1.4018   24.8740 H   0  0  0  0  0  0  0  0  0  0  0  0
    9.9554   -0.5930   24.3431 H   0  0  0  0  0  0  0  0  0  0  0  0
    8.1982    0.7357   24.2827 C   0  0  2  0  0  0  0  0  0  0  0  0
    8.9967    1.4661   24.0797 H   0  0  0  0  0  0  0  0  0  0  0  0
    7.5804    0.9984   25.6624 C   0  0  0  0  0  0  0  0  0  0  0  0
    8.3236    0.7902   26.4475 H   0  0  0  0  0  0  0  0  0  0  0  0
    6.7698    0.2706   25.8266 H   0  0  0  0  0  0  0  0  0  0  0  0
    7.0291    2.4176   25.8611 C   0  0  0  0  0  0  0  0  0  0  0  0
    6.4522    2.4503   26.7937 H   0  0  0  0  0  0  0  0  0  0  0  0
    6.3158    2.6656   25.0614 H   0  0  0  0  0  0  0  0  0  0  0  0
    8.1155    3.5074   25.9152 C   0  0  0  0  0  0  0  0  0  0  0  0
    8.6589    3.5379   24.9610 H   0  0  0  0  0  0  0  0  0  0  0  0
    8.8553    3.2365   26.6809 H   0  0  0  0  0  0  0  0  0  0  0  0
    7.5505    4.8774   26.2243 C   0  0  0  0  0  0  0  0  0  0  0  0
    7.3970    5.2996   27.5553 C   0  0  0  0  0  0  0  0  0  0  0  0
    7.7301    4.6540   28.3656 H   0  0  0  0  0  0  0  0  0  0  0  0
    6.8092    6.5316   27.8567 C   0  0  0  0  0  0  0  0  0  0  0  0
    6.6896    6.8367   28.8927 H   0  0  0  0  0  0  0  0  0  0  0  0
    6.3621    7.3645   26.8273 C   0  0  0  0  0  0  0  0  0  0  0  0
    5.8946    8.3181   27.0602 H   0  0  0  0  0  0  0  0  0  0  0  0
    6.5033    6.9560   25.4979 C   0  0  0  0  0  0  0  0  0  0  0  0
    6.1432    7.5938   24.6947 H   0  0  0  0  0  0  0  0  0  0  0  0
    7.0944    5.7237   25.1995 C   0  0  0  0  0  0  0  0  0  0  0  0
    7.1934    5.4217   24.1578 H   0  0  0  0  0  0  0  0  0  0  0  0
    7.1718    0.8654   23.1082 C   0  0  0  0  0  0  0  0  0  0  0  0
    7.2344    1.8630   22.6456 H   0  0  0  0  0  0  0  0  0  0  0  0
    6.1389    0.7142   23.4574 H   0  0  0  0  0  0  0  0  0  0  0  0
    5.4174    0.6117   20.0494 C   0  0  0  0  0  0  0  0  0  0  0  0
    4.9895    0.6050   21.0515 H   0  0  0  0  0  0  0  0  0  0  0  0
    4.7713    1.3048   19.0254 C   0  0  0  0  0  0  0  0  0  0  0  0
    3.8584    1.8635   19.2007 H   0  0  0  0  0  0  0  0  0  0  0  0
  1  2  1  0
  2  3  2  0
  3  4  1  0
  4  5  1  0
  4  6  2  0
  6  7  1  0
  7  8  2  0
  8  9  1  0
  9 10  2  0
 10 11  1  0
 11 12  1  0
  9 13  1  0
 13 14  1  0
 13 15  1  0
 13 16  1  0
 16 17  1  6
 16 18  1  0
 18 19  1  0
 18 20  1  0
 18 21  1  0
 21 22  1  0
 21 23  1  0
 21 24  1  0
 24 25  1  0
 24 26  1  0
 24 27  1  0
 27 28  2  0
 28 29  1  0
 28 30  1  0
 30 31  1  0
 30 32  2  0
 32 33  1  0
 32 34  1  0
 34 35  1  0
 34 36  2  0
 36 37  1  0
 16 38  1  0
 38 39  1  0
 38 40  1  0
  6 41  1  0
 41 42  1  0
 41 43  2  0
 43 44  1  0
 43  2  1  0
 11  7  1  0
 36 27  1  0
 38  8  1  0
M  END
>  <cnnaffinity>  (1) 
-5.60111

>  <filename>  (1) 
c1ccc(CCC[C@H]2Cc3n[nH]c(-c4cccnc4)c3C2)cc1

$$$$
