
     RDKit          3D

 41 44  0  0  0  0  0  0  0  0999 V2000
    7.2080    5.8936   27.7248 H   0  0  0  0  0  0  0  0  0  0  0  0
    7.9299    5.6685   26.9421 C   0  0  0  0  0  0  0  0  0  0  0  0
    7.6633    4.5814   26.2190 N   0  0  0  0  0  0  0  0  0  0  0  0
    8.5029    4.2973   25.2137 C   0  0  0  0  0  0  0  0  0  0  0  0
    8.1462    3.2259   24.4266 N   0  0  0  0  0  0  0  0  0  0  0  0
    8.6403    3.0489   23.0557 C   0  0  0  0  0  0  0  0  0  0  0  0
    9.5693    2.4528   23.0465 H   0  0  0  0  0  0  0  0  0  0  0  0
    8.8557    4.0179   22.5940 H   0  0  0  0  0  0  0  0  0  0  0  0
    7.5811    2.3389   22.1817 C   0  0  0  0  0  0  0  0  0  0  0  0
    7.9868    2.1045   21.1905 H   0  0  0  0  0  0  0  0  0  0  0  0
    6.7213    3.0138   22.0542 H   0  0  0  0  0  0  0  0  0  0  0  0
    7.1208    1.1077   22.8265 N   0  0  0  0  0  0  0  0  0  0  0  0
    7.4900   -0.1266   22.3504 C   0  0  0  0  0  0  0  0  0  0  0  0
    8.4488   -1.2294   23.3087 S   0  0  0  0  0  0  0  0  0  0  0  0
    8.3793   -2.4388   22.0795 C   0  0  0  0  0  0  0  0  0  0  0  0
    8.8805   -3.3928   22.2175 H   0  0  0  0  0  0  0  0  0  0  0  0
    7.6716   -2.0046   21.0059 C   0  0  0  0  0  0  0  0  0  0  0  0
    7.3593   -2.6400   20.1906 H   0  0  0  0  0  0  0  0  0  0  0  0
    7.2223   -0.6506   21.0977 C   0  0  0  0  0  0  0  0  0  0  0  0
    6.5814    0.0863   19.9673 C   0  0  0  0  0  0  0  0  0  0  0  0
    7.1459    0.1129   18.6704 C   0  0  0  0  0  0  0  0  0  0  0  0
    8.1068   -0.3663   18.4838 H   0  0  0  0  0  0  0  0  0  0  0  0
    6.5942    0.7186   17.6099 N   0  0  0  0  0  0  0  0  0  0  0  0
    5.4162    1.3328   17.8058 C   0  0  0  0  0  0  0  0  0  0  0  0
    4.9629    1.7929   16.9324 H   0  0  0  0  0  0  0  0  0  0  0  0
    4.7720    1.3876   19.0441 C   0  0  0  0  0  0  0  0  0  0  0  0
    3.8202    1.8987   19.1359 H   0  0  0  0  0  0  0  0  0  0  0  0
    5.3761    0.7807   20.1446 C   0  0  0  0  0  0  0  0  0  0  0  0
    4.9315    0.8275   21.1376 H   0  0  0  0  0  0  0  0  0  0  0  0
    6.6178    1.3196   24.1800 C   0  0  0  0  0  0  0  0  0  0  0  0
    6.2902    0.3648   24.6094 H   0  0  0  0  0  0  0  0  0  0  0  0
    5.7532    1.9960   24.1178 H   0  0  0  0  0  0  0  0  0  0  0  0
    7.6649    1.9989   25.0702 C   0  0  0  0  0  0  0  0  0  0  0  0
    8.5042    1.3116   25.2746 H   0  0  0  0  0  0  0  0  0  0  0  0
    7.2035    2.2546   26.0260 H   0  0  0  0  0  0  0  0  0  0  0  0
    9.6859    5.0237   24.9605 C   0  0  0  0  0  0  0  0  0  0  0  0
   10.3394    4.6774   24.1674 H   0  0  0  0  0  0  0  0  0  0  0  0
    9.9639    6.1254   25.7580 C   0  0  0  0  0  0  0  0  0  0  0  0
   10.8727    6.7015   25.5846 H   0  0  0  0  0  0  0  0  0  0  0  0
    9.0552    6.4730   26.7638 C   0  0  0  0  0  0  0  0  0  0  0  0
    9.2033    7.3458   27.3885 H   0  0  0  0  0  0  0  0  0  0  0  0
  1  2  1  0
  2  3  2  0
  3  4  1  0
  4  5  1  0
  5  6  1  0
  6  7  1  0
  6  8  1  0
  6  9  1  0
  9 10  1  0
  9 11  1  0
  9 12  1  0
 12 13  1  0
 13 14  1  0
 14 15  1  0
 15 16  1  0
 15 17  2  0
 17 18  1  0
 17 19  1  0
 19 20  1  0
 20 21  2  0
 21 22  1  0
 21 23  1  0
 23 24  2  0
 24 25  1  0
 24 26  1  0
 26 27  1  0
 26 28  2  0
 28 29  1  0
 12 30  1  0
 30 31  1  0
 30 32  1  0
 30 33  1  0
 33 34  1  0
 33 35  1  0
  4 36  2  0
 36 37  1  0
 36 38  1  0
 38 39  1  0
 38 40  2  0
 40 41  1  0
 40  2  1  0
 33  5  1  0
 19 13  2  0
 28 20  1  0
M  END
>  <cnnaffinity>  (1) 
-5.15932

>  <filename>  (1) 
c1ccc(N2CCN(c3sccc3-c3cccnc3)CC2)nc1

$$$$
