
     RDKit          3D

 29 31  0  0  0  0  0  0  0  0999 V2000
    6.9484    3.4691   26.4055 H   0  0  0  0  0  0  0  0  0  0  0  0
    6.7610    2.4521   26.0531 C   0  0  0  0  0  0  0  0  0  0  0  0
    6.9523    2.2398   24.7426 N   0  0  0  0  0  0  0  0  0  0  0  0
    6.7771    0.9876   24.3196 C   0  0  0  0  0  0  0  0  0  0  0  0
    6.9737    0.8281   22.9728 N   0  0  0  0  0  0  0  0  0  0  0  0
    7.0693    1.7489   22.5624 H   0  0  0  0  0  0  0  0  0  0  0  0
    7.5155   -0.3111   22.3425 C   0  0  0  0  0  0  0  0  0  0  0  0
    8.2975   -1.3735   22.8904 C   0  0  0  0  0  0  0  0  0  0  0  0
    8.6518   -1.4982   23.9092 H   0  0  0  0  0  0  0  0  0  0  0  0
    8.6182   -2.2768   21.9677 N   0  0  0  0  0  0  0  0  0  0  0  0
    8.0613   -1.8063   20.8418 N   0  0  0  0  0  0  0  0  0  0  0  0
    8.1154   -2.3482   19.9853 H   0  0  0  0  0  0  0  0  0  0  0  0
    7.3822   -0.6363   20.9981 C   0  0  0  0  0  0  0  0  0  0  0  0
    6.6645    0.0355   19.8963 C   0  0  0  0  0  0  0  0  0  0  0  0
    7.1599    0.0757   18.5724 C   0  0  0  0  0  0  0  0  0  0  0  0
    8.1103   -0.3929   18.3180 H   0  0  0  0  0  0  0  0  0  0  0  0
    6.5411    0.6846   17.5546 N   0  0  0  0  0  0  0  0  0  0  0  0
    5.3804    1.3071   17.8144 C   0  0  0  0  0  0  0  0  0  0  0  0
    4.9144    1.8158   16.9700 H   0  0  0  0  0  0  0  0  0  0  0  0
    4.7853    1.3217   19.0798 C   0  0  0  0  0  0  0  0  0  0  0  0
    3.8517    1.8546   19.2231 H   0  0  0  0  0  0  0  0  0  0  0  0
    5.4356    0.6753   20.1324 C   0  0  0  0  0  0  0  0  0  0  0  0
    5.0123    0.6442   21.1354 H   0  0  0  0  0  0  0  0  0  0  0  0
    6.3492   -0.0805   25.1189 C   0  0  0  0  0  0  0  0  0  0  0  0
    6.1996   -1.0214   24.6024 H   0  0  0  0  0  0  0  0  0  0  0  0
    6.1264    0.1609   26.4688 C   0  0  0  0  0  0  0  0  0  0  0  0
    5.7895   -0.6451   27.1227 H   0  0  0  0  0  0  0  0  0  0  0  0
    6.3496    1.4613   26.9513 C   0  0  0  0  0  0  0  0  0  0  0  0
    6.2059    1.7149   27.9940 H   0  0  0  0  0  0  0  0  0  0  0  0
  1  2  1  0
  2  3  2  0
  3  4  1  0
  4  5  1  0
  5  6  1  0
  5  7  1  0
  7  8  1  0
  8  9  1  0
  8 10  2  0
 10 11  1  0
 11 12  1  0
 11 13  1  0
 13 14  1  0
 14 15  2  0
 15 16  1  0
 15 17  1  0
 17 18  2  0
 18 19  1  0
 18 20  1  0
 20 21  1  0
 20 22  2  0
 22 23  1  0
  4 24  2  0
 24 25  1  0
 24 26  1  0
 26 27  1  0
 26 28  2  0
 28 29  1  0
 28  2  1  0
 13  7  2  0
 22 14  1  0
M  END
>  <cnnaffinity>  (1) 
-5.1296

>  <filename>  (1) 
c1ccc(Nc2cn[nH]c2-c2cccnc2)nc1

$$$$
