
     RDKit          3D

 38 41  0  0  0  0  0  0  0  0999 V2000
    5.3167    1.6474   17.0641 H   0  0  0  0  0  0  0  0  0  0  0  0
    5.8756    1.2456   17.9097 C   0  0  0  0  0  0  0  0  0  0  0  0
    7.0688    0.7016   17.6291 N   0  0  0  0  0  0  0  0  0  0  0  0
    7.7631    0.1606   18.6378 C   0  0  0  0  0  0  0  0  0  0  0  0
    8.7392   -0.2443   18.3775 H   0  0  0  0  0  0  0  0  0  0  0  0
    7.2898    0.0913   19.9614 C   0  0  0  0  0  0  0  0  0  0  0  0
    8.0496   -0.6460   20.9813 C   0  0  0  0  0  0  0  0  0  0  0  0
    9.3810   -0.5791   21.0235 N   0  0  0  0  0  0  0  0  0  0  0  0
    9.6882   -1.3806   22.0408 N   0  0  0  0  0  0  0  0  0  0  0  0
    8.6505   -1.9976   22.6219 C   0  0  0  0  0  0  0  0  0  0  0  0
    7.5274   -1.5504   21.9657 C   0  0  0  0  0  0  0  0  0  0  0  0
    6.1330   -2.0806   22.1357 C   0  0  0  0  0  0  0  0  0  0  0  0
    5.4550   -1.3094   21.7642 H   0  0  0  0  0  0  0  0  0  0  0  0
    5.9136   -2.2725   23.1942 H   0  0  0  0  0  0  0  0  0  0  0  0
    5.8623   -3.2951   21.2855 C   0  0  0  0  0  0  0  0  0  0  0  0
    5.7563   -3.0625   19.9122 C   0  0  0  0  0  0  0  0  0  0  0  0
    5.8825   -2.0435   19.5465 H   0  0  0  0  0  0  0  0  0  0  0  0
    5.5254   -4.1080   19.0352 C   0  0  0  0  0  0  0  0  0  0  0  0
    5.3945   -3.8439   17.9927 H   0  0  0  0  0  0  0  0  0  0  0  0
    5.4546   -5.4216   19.5258 C   0  0  0  0  0  0  0  0  0  0  0  0
    5.3334   -6.2556   18.8430 H   0  0  0  0  0  0  0  0  0  0  0  0
    5.5087   -5.6626   20.9026 C   0  0  0  0  0  0  0  0  0  0  0  0
    5.3733   -6.6693   21.2960 H   0  0  0  0  0  0  0  0  0  0  0  0
    5.7248   -4.5929   21.7814 C   0  0  0  0  0  0  0  0  0  0  0  0
    5.7804   -4.7632   22.8562 H   0  0  0  0  0  0  0  0  0  0  0  0
    9.1381   -2.9802   23.6439 C   0  0  0  0  0  0  0  0  0  0  0  0
    8.9838   -4.0138   23.3116 H   0  0  0  0  0  0  0  0  0  0  0  0
    8.6089   -2.8806   24.5939 H   0  0  0  0  0  0  0  0  0  0  0  0
   10.6379   -2.6064   23.7627 C   0  0  0  0  0  0  0  0  0  0  0  0
   10.7695   -1.9852   24.6515 H   0  0  0  0  0  0  0  0  0  0  0  0
   11.2858   -3.4790   23.8540 H   0  0  0  0  0  0  0  0  0  0  0  0
   10.9907   -1.7755   22.4990 C   0  0  0  0  0  0  0  0  0  0  0  0
   11.4852   -2.3630   21.7212 H   0  0  0  0  0  0  0  0  0  0  0  0
   11.6005   -0.8934   22.7060 H   0  0  0  0  0  0  0  0  0  0  0  0
    6.0654    0.7120   20.2440 C   0  0  0  0  0  0  0  0  0  0  0  0
    5.6896    0.7490   21.2681 H   0  0  0  0  0  0  0  0  0  0  0  0
    5.3449    1.2935   19.2031 C   0  0  0  0  0  0  0  0  0  0  0  0
    4.3881    1.7675   19.3778 H   0  0  0  0  0  0  0  0  0  0  0  0
  1  2  1  0
  2  3  2  0
  3  4  1  0
  4  5  1  0
  4  6  2  0
  6  7  1  0
  7  8  2  0
  8  9  1  0
  9 10  1  0
 10 11  2  0
 11 12  1  0
 12 13  1  0
 12 14  1  0
 12 15  1  0
 15 16  2  0
 16 17  1  0
 16 18  1  0
 18 19  1  0
 18 20  2  0
 20 21  1  0
 20 22  1  0
 22 23  1  0
 22 24  2  0
 24 25  1  0
 10 26  1  0
 26 27  1  0
 26 28  1  0
 26 29  1  0
 29 30  1  0
 29 31  1  0
 29 32  1  0
 32 33  1  0
 32 34  1  0
  6 35  1  0
 35 36  1  0
 35 37  2  0
 37 38  1  0
 37  2  1  0
 11  7  1  0
 24 15  1  0
 32  9  1  0
M  END
>  <cnnaffinity>  (1) 
-5.55694

>  <filename>  (1) 
c1ccc(Cc2c(-c3cccnc3)nn3c2CCC3)cc1

$$$$
