
     RDKit          3D

 35 37  0  0  0  0  0  0  0  0999 V2000
    4.9213    1.7843   16.9941 H   0  0  0  0  0  0  0  0  0  0  0  0
    5.3999    1.2916   17.8397 C   0  0  0  0  0  0  0  0  0  0  0  0
    6.5627    0.6745   17.5821 N   0  0  0  0  0  0  0  0  0  0  0  0
    7.1762    0.0601   18.6003 C   0  0  0  0  0  0  0  0  0  0  0  0
    8.1183   -0.4211   18.3539 H   0  0  0  0  0  0  0  0  0  0  0  0
    6.6767   -0.0034   19.9191 C   0  0  0  0  0  0  0  0  0  0  0  0
    7.4035   -0.7224   20.9967 C   0  0  0  0  0  0  0  0  0  0  0  0
    9.0962   -1.1038   20.9193 S   0  0  0  0  0  0  0  0  0  0  0  0
    9.0595   -1.8781   22.4623 C   0  0  0  0  0  0  0  0  0  0  0  0
    9.9511   -2.2957   22.8888 H   0  0  0  0  0  0  0  0  0  0  0  0
    7.8159   -1.8517   23.0150 C   0  0  0  0  0  0  0  0  0  0  0  0
    7.4082   -2.3103   24.2211 O   0  0  0  0  0  0  0  0  0  0  0  0
    8.2707   -3.1468   24.9915 C   0  0  0  0  0  0  0  0  0  0  0  0
    7.7724   -3.1938   25.9615 H   0  0  0  0  0  0  0  0  0  0  0  0
    9.2395   -2.6514   25.1353 H   0  0  0  0  0  0  0  0  0  0  0  0
    8.4390   -4.5645   24.4274 C   0  0  0  0  0  0  0  0  0  0  0  0
    9.0792   -5.1322   25.1146 H   0  0  0  0  0  0  0  0  0  0  0  0
    8.9816   -4.5052   23.4766 H   0  0  0  0  0  0  0  0  0  0  0  0
    7.1089   -5.2639   24.2438 C   0  0  0  0  0  0  0  0  0  0  0  0
    6.4353   -5.1946   23.0155 C   0  0  0  0  0  0  0  0  0  0  0  0
    6.8987   -4.6569   22.1902 H   0  0  0  0  0  0  0  0  0  0  0  0
    5.1828   -5.7944   22.8531 C   0  0  0  0  0  0  0  0  0  0  0  0
    4.6774   -5.7429   21.8914 H   0  0  0  0  0  0  0  0  0  0  0  0
    4.5861   -6.4645   23.9270 C   0  0  0  0  0  0  0  0  0  0  0  0
    3.6146   -6.9378   23.8005 H   0  0  0  0  0  0  0  0  0  0  0  0
    5.2362   -6.5197   25.1654 C   0  0  0  0  0  0  0  0  0  0  0  0
    4.7775   -7.0381   26.0052 H   0  0  0  0  0  0  0  0  0  0  0  0
    6.4870   -5.9137   25.3222 C   0  0  0  0  0  0  0  0  0  0  0  0
    6.9964   -5.9523   26.2850 H   0  0  0  0  0  0  0  0  0  0  0  0
    6.8834   -1.1935   22.1632 C   0  0  0  0  0  0  0  0  0  0  0  0
    5.8561   -1.0920   22.4255 H   0  0  0  0  0  0  0  0  0  0  0  0
    5.4487    0.6438   20.1599 C   0  0  0  0  0  0  0  0  0  0  0  0
    5.0107    0.6441   21.1590 H   0  0  0  0  0  0  0  0  0  0  0  0
    4.8096    1.3073   19.1071 C   0  0  0  0  0  0  0  0  0  0  0  0
    3.8784    1.8392   19.2567 H   0  0  0  0  0  0  0  0  0  0  0  0
  1  2  1  0
  2  3  2  0
  3  4  1  0
  4  5  1  0
  4  6  2  0
  6  7  1  0
  7  8  1  0
  8  9  1  0
  9 10  1  0
  9 11  2  0
 11 12  1  0
 12 13  1  0
 13 14  1  0
 13 15  1  0
 13 16  1  0
 16 17  1  0
 16 18  1  0
 16 19  1  0
 19 20  2  0
 20 21  1  0
 20 22  1  0
 22 23  1  0
 22 24  2  0
 24 25  1  0
 24 26  1  0
 26 27  1  0
 26 28  2  0
 28 29  1  0
 11 30  1  0
 30 31  1  0
  6 32  1  0
 32 33  1  0
 32 34  2  0
 34 35  1  0
 34  2  1  0
 30  7  2  0
 28 19  1  0
M  END
>  <cnnaffinity>  (1) 
-5.39033

>  <filename>  (1) 
c1ccc(CCOc2csc(-c3cccnc3)c2)cc1

$$$$
