
     RDKit          3D

 40 43  0  0  0  0  0  0  0  0999 V2000
    4.9881    1.7600   16.9746 H   0  0  0  0  0  0  0  0  0  0  0  0
    5.4170    1.2868   17.8521 C   0  0  0  0  0  0  0  0  0  0  0  0
    6.5934    0.6751   17.6561 N   0  0  0  0  0  0  0  0  0  0  0  0
    7.1665    0.1161   18.7213 C   0  0  0  0  0  0  0  0  0  0  0  0
    8.1239   -0.3669   18.5305 H   0  0  0  0  0  0  0  0  0  0  0  0
    6.6177    0.1318   20.0114 C   0  0  0  0  0  0  0  0  0  0  0  0
    7.3667   -0.5441   21.0934 C   0  0  0  0  0  0  0  0  0  0  0  0
    7.1790   -0.1089   22.3404 N   0  0  0  0  0  0  0  0  0  0  0  0
    7.8272   -0.7372   23.3377 C   0  0  0  0  0  0  0  0  0  0  0  0
    7.6887   -0.1631   24.7083 C   0  0  0  0  0  0  0  0  0  0  0  0
    8.6883   -0.3096   25.6903 C   0  0  0  0  0  0  0  0  0  0  0  0
    9.6162   -0.8343   25.4730 H   0  0  0  0  0  0  0  0  0  0  0  0
    8.5129    0.2554   26.9546 C   0  0  0  0  0  0  0  0  0  0  0  0
    9.2729    0.1110   27.7169 H   0  0  0  0  0  0  0  0  0  0  0  0
    7.3566    0.9842   27.2493 C   0  0  0  0  0  0  0  0  0  0  0  0
    7.2333    1.4437   28.2271 H   0  0  0  0  0  0  0  0  0  0  0  0
    6.3492    1.1466   26.2786 C   0  0  0  0  0  0  0  0  0  0  0  0
    5.1049    1.9249   26.5524 C   0  0  0  0  0  0  0  0  0  0  0  0
    4.5621    2.7958   25.5861 C   0  0  0  0  0  0  0  0  0  0  0  0
    5.0681    2.9021   24.6276 H   0  0  0  0  0  0  0  0  0  0  0  0
    3.4029    3.5307   25.8517 C   0  0  0  0  0  0  0  0  0  0  0  0
    3.0025    4.2060   25.0985 H   0  0  0  0  0  0  0  0  0  0  0  0
    2.7559    3.3935   27.0865 C   0  0  0  0  0  0  0  0  0  0  0  0
    1.8550    3.9642   27.2968 H   0  0  0  0  0  0  0  0  0  0  0  0
    3.2731    2.5188   28.0486 C   0  0  0  0  0  0  0  0  0  0  0  0
    2.7782    2.4086   29.0103 H   0  0  0  0  0  0  0  0  0  0  0  0
    4.4365    1.7924   27.7815 C   0  0  0  0  0  0  0  0  0  0  0  0
    4.8283    1.0971   28.5201 H   0  0  0  0  0  0  0  0  0  0  0  0
    6.5318    0.5564   25.0232 C   0  0  0  0  0  0  0  0  0  0  0  0
    5.7682    0.6488   24.2548 H   0  0  0  0  0  0  0  0  0  0  0  0
    8.5778   -1.9067   23.1303 C   0  0  0  0  0  0  0  0  0  0  0  0
    9.0092   -2.4297   23.9742 H   0  0  0  0  0  0  0  0  0  0  0  0
    8.7609   -2.3779   21.8322 C   0  0  0  0  0  0  0  0  0  0  0  0
    9.3247   -3.2879   21.6398 H   0  0  0  0  0  0  0  0  0  0  0  0
    8.2039   -1.6307   20.8026 C   0  0  0  0  0  0  0  0  0  0  0  0
    8.4029   -1.8588   19.7738 H   0  0  0  0  0  0  0  0  0  0  0  0
    5.3720    0.7536   20.1965 C   0  0  0  0  0  0  0  0  0  0  0  0
    4.8988    0.7667   21.1819 H   0  0  0  0  0  0  0  0  0  0  0  0
    4.7645    1.3398   19.0881 C   0  0  0  0  0  0  0  0  0  0  0  0
    3.8113    1.8456   19.1707 H   0  0  0  0  0  0  0  0  0  0  0  0
  1  2  1  0
  2  3  2  0
  3  4  1  0
  4  5  1  0
  4  6  2  0
  6  7  1  0
  7  8  2  0
  8  9  1  0
  9 10  1  0
 10 11  2  0
 11 12  1  0
 11 13  1  0
 13 14  1  0
 13 15  2  0
 15 16  1  0
 15 17  1  0
 17 18  1  0
 18 19  2  0
 19 20  1  0
 19 21  1  0
 21 22  1  0
 21 23  2  0
 23 24  1  0
 23 25  1  0
 25 26  1  0
 25 27  2  0
 27 28  1  0
 17 29  2  0
 29 30  1  0
  9 31  2  0
 31 32  1  0
 31 33  1  0
 33 34  1  0
 33 35  2  0
 35 36  1  0
  6 37  1  0
 37 38  1  0
 37 39  2  0
 39 40  1  0
 39  2  1  0
 35  7  1  0
 29 10  1  0
 27 18  1  0
M  END
>  <cnnaffinity>  (1) 
-5.05668

>  <filename>  (1) 
c1ccc(-c2cccc(-c3cccc(-c4cccnc4)n3)c2)cc1

$$$$
