
     RDKit          3D

 31 34  0  0  0  0  0  0  0  0999 V2000
    5.1834    1.7304   17.1608 H   0  0  0  0  0  0  0  0  0  0  0  0
    5.6010    1.0695   17.9190 C   0  0  0  0  0  0  0  0  0  0  0  0
    6.7210    0.4114   17.5857 N   0  0  0  0  0  0  0  0  0  0  0  0
    7.2808   -0.3561   18.5288 C   0  0  0  0  0  0  0  0  0  0  0  0
    8.1818   -0.8901   18.2293 H   0  0  0  0  0  0  0  0  0  0  0  0
    6.7721   -0.5045   19.8323 C   0  0  0  0  0  0  0  0  0  0  0  0
    7.6109   -1.1593   20.8531 C   0  0  0  0  0  0  0  0  0  0  0  0
    8.9334   -0.9550   21.0283 C   0  0  0  0  0  0  0  0  0  0  0  0
    9.5826   -0.3737   20.3895 H   0  0  0  0  0  0  0  0  0  0  0  0
    9.5427   -1.6254   22.5156 S   0  0  0  0  0  0  0  0  0  0  0  0
    7.9416   -2.1741   22.9116 C   0  0  0  0  0  0  0  0  0  0  0  0
    7.3117   -2.7085   23.9390 N   0  0  0  0  0  0  0  0  0  0  0  0
    6.0342   -2.7848   23.4643 C   0  0  0  0  0  0  0  0  0  0  0  0
    4.7189   -3.4396   24.4483 S   0  0  0  0  0  0  0  0  0  0  0  0
    4.4403   -2.0311   25.5303 C   0  0  0  0  0  0  0  0  0  0  0  0
    3.2474   -1.2957   25.4221 C   0  0  0  0  0  0  0  0  0  0  0  0
    2.5027   -1.5840   24.6835 H   0  0  0  0  0  0  0  0  0  0  0  0
    3.0484   -0.1749   26.2338 C   0  0  0  0  0  0  0  0  0  0  0  0
    2.1460    0.4211   26.0927 H   0  0  0  0  0  0  0  0  0  0  0  0
    4.0051    0.1874   27.1892 C   0  0  0  0  0  0  0  0  0  0  0  0
    3.8498    1.0497   27.8348 H   0  0  0  0  0  0  0  0  0  0  0  0
    5.1909   -0.5474   27.2957 C   0  0  0  0  0  0  0  0  0  0  0  0
    5.9261   -0.2902   28.0539 H   0  0  0  0  0  0  0  0  0  0  0  0
    5.4257   -1.6370   26.4536 C   0  0  0  0  0  0  0  0  0  0  0  0
    6.3797   -2.1559   26.4732 H   0  0  0  0  0  0  0  0  0  0  0  0
    5.8413   -2.3611   22.2228 N   0  0  0  0  0  0  0  0  0  0  0  0
    7.0872   -1.9105   21.9030 N   0  0  0  0  0  0  0  0  0  0  0  0
    5.5450    0.1115   20.1264 C   0  0  0  0  0  0  0  0  0  0  0  0
    5.0810   -0.0455   21.0986 H   0  0  0  0  0  0  0  0  0  0  0  0
    4.9642    0.9304   19.1574 C   0  0  0  0  0  0  0  0  0  0  0  0
    4.0497    1.4731   19.3629 H   0  0  0  0  0  0  0  0  0  0  0  0
  1  2  1  0
  2  3  2  0
  3  4  1  0
  4  5  1  0
  4  6  2  0
  6  7  1  0
  7  8  2  0
  8  9  1  0
  8 10  1  0
 10 11  1  0
 11 12  2  0
 12 13  1  0
 13 14  1  0
 14 15  1  0
 15 16  2  0
 16 17  1  0
 16 18  1  0
 18 19  1  0
 18 20  2  0
 20 21  1  0
 20 22  1  0
 22 23  1  0
 22 24  2  0
 24 25  1  0
 13 26  2  0
 26 27  1  0
  6 28  1  0
 28 29  1  0
 28 30  2  0
 30 31  1  0
 30  2  1  0
 27  7  1  0
 27 11  1  0
 24 15  1  0
M  END
>  <cnnaffinity>  (1) 
-5.41436

>  <filename>  (1) 
c1ccc(Sc2nc3scc(-c4cccnc4)n3n2)cc1

$$$$
