
     RDKit          3D

 30 32  0  0  0  0  0  0  0  0999 V2000
    5.0040    1.8274   16.9464 H   0  0  0  0  0  0  0  0  0  0  0  0
    5.4497    1.3111   17.7987 C   0  0  0  0  0  0  0  0  0  0  0  0
    6.5984    0.6606   17.5716 N   0  0  0  0  0  0  0  0  0  0  0  0
    7.1511    0.0219   18.6072 C   0  0  0  0  0  0  0  0  0  0  0  0
    8.0691   -0.5141   18.3825 H   0  0  0  0  0  0  0  0  0  0  0  0
    6.6103   -0.0131   19.9008 C   0  0  0  0  0  0  0  0  0  0  0  0
    7.3356   -0.7539   20.9610 C   0  0  0  0  0  0  0  0  0  0  0  0
    6.5922   -1.3254   21.9294 N   0  0  0  0  0  0  0  0  0  0  0  0
    7.1652   -2.0332   22.9007 N   0  0  0  0  0  0  0  0  0  0  0  0
    8.4918   -2.1661   22.9514 C   0  0  0  0  0  0  0  0  0  0  0  0
    8.8925   -2.7574   23.7683 H   0  0  0  0  0  0  0  0  0  0  0  0
    9.3404   -1.5823   21.9934 C   0  0  0  0  0  0  0  0  0  0  0  0
   11.1000   -1.6659   22.2114 S   0  0  0  0  0  0  0  0  0  0  0  0
   11.2854   -0.0794   23.0289 C   0  0  0  0  0  0  0  0  0  0  0  0
   11.4812    1.0670   22.2444 C   0  0  0  0  0  0  0  0  0  0  0  0
   11.5789    0.9702   21.1694 H   0  0  0  0  0  0  0  0  0  0  0  0
   11.5575    2.3289   22.8359 C   0  0  0  0  0  0  0  0  0  0  0  0
   11.7222    3.2067   22.2158 H   0  0  0  0  0  0  0  0  0  0  0  0
   11.4128    2.4478   24.2201 C   0  0  0  0  0  0  0  0  0  0  0  0
   11.4783    3.4334   24.6653 H   0  0  0  0  0  0  0  0  0  0  0  0
   11.1830    1.3141   25.0114 C   0  0  0  0  0  0  0  0  0  0  0  0
   11.0094    1.4449   26.0758 H   0  0  0  0  0  0  0  0  0  0  0  0
   11.1385    0.0466   24.4191 C   0  0  0  0  0  0  0  0  0  0  0  0
   10.9898   -0.8392   25.0362 H   0  0  0  0  0  0  0  0  0  0  0  0
    8.7412   -0.8715   20.9608 C   0  0  0  0  0  0  0  0  0  0  0  0
    9.3551   -0.4037   20.1951 H   0  0  0  0  0  0  0  0  0  0  0  0
    5.3980    0.6534   20.1217 C   0  0  0  0  0  0  0  0  0  0  0  0
    4.9307    0.6321   21.1090 H   0  0  0  0  0  0  0  0  0  0  0  0
    4.8195    1.3277   19.0471 C   0  0  0  0  0  0  0  0  0  0  0  0
    3.8883    1.8615   19.1644 H   0  0  0  0  0  0  0  0  0  0  0  0
  1  2  1  0
  2  3  2  0
  3  4  1  0
  4  5  1  0
  4  6  2  0
  6  7  1  0
  7  8  2  0
  8  9  1  0
  9 10  2  0
 10 11  1  0
 10 12  1  0
 12 13  1  0
 13 14  1  0
 14 15  2  0
 15 16  1  0
 15 17  1  0
 17 18  1  0
 17 19  2  0
 19 20  1  0
 19 21  1  0
 21 22  1  0
 21 23  2  0
 23 24  1  0
 12 25  2  0
 25 26  1  0
  6 27  1  0
 27 28  1  0
 27 29  2  0
 29 30  1  0
 29  2  1  0
 25  7  1  0
 23 14  1  0
M  END
>  <cnnaffinity>  (1) 
-5.51264

>  <filename>  (1) 
c1ccc(Sc2cnnc(-c3cccnc3)c2)cc1

$$$$
