
     RDKit          3D

 42 45  0  0  0  0  0  0  0  0999 V2000
    8.7595   -3.6571   21.3883 H   0  0  0  0  0  0  0  0  0  0  0  0
    8.4347   -2.6502   21.6271 C   0  0  0  0  0  0  0  0  0  0  0  0
    7.8619   -1.9452   20.6263 N   0  0  0  0  0  0  0  0  0  0  0  0
    7.4047   -0.7293   20.9331 C   0  0  0  0  0  0  0  0  0  0  0  0
    6.6532   -0.0181   19.8729 C   0  0  0  0  0  0  0  0  0  0  0  0
    7.1635    0.0219   18.5660 C   0  0  0  0  0  0  0  0  0  0  0  0
    8.1112   -0.4589   18.3273 H   0  0  0  0  0  0  0  0  0  0  0  0
    6.5680    0.6679   17.5611 N   0  0  0  0  0  0  0  0  0  0  0  0
    5.4108    1.2938   17.8300 C   0  0  0  0  0  0  0  0  0  0  0  0
    4.9403    1.8039   16.9934 H   0  0  0  0  0  0  0  0  0  0  0  0
    4.8099    1.3012   19.0928 C   0  0  0  0  0  0  0  0  0  0  0  0
    3.8792    1.8372   19.2437 H   0  0  0  0  0  0  0  0  0  0  0  0
    5.4443    0.6422   20.1414 C   0  0  0  0  0  0  0  0  0  0  0  0
    5.0218    0.6437   21.1475 H   0  0  0  0  0  0  0  0  0  0  0  0
    7.5972   -0.1663   22.2714 C   0  0  0  0  0  0  0  0  0  0  0  0
    7.2184    1.1384   22.5631 N   0  0  0  0  0  0  0  0  0  0  0  0
    6.6195    1.5066   23.8414 C   0  0  0  0  0  0  0  0  0  0  0  0
    6.2124    0.6176   24.3374 H   0  0  0  0  0  0  0  0  0  0  0  0
    5.7968    2.2050   23.6187 H   0  0  0  0  0  0  0  0  0  0  0  0
    7.6237    2.2055   24.7694 C   0  0  0  0  0  0  0  0  0  0  0  0
    7.0969    2.5483   25.6631 H   0  0  0  0  0  0  0  0  0  0  0  0
    8.3799    1.4556   25.0624 H   0  0  0  0  0  0  0  0  0  0  0  0
    8.2501    3.3543   24.0992 N   0  0  0  0  0  0  0  0  0  0  0  0
    8.6245    4.4699   24.8280 C   0  0  0  0  0  0  0  0  0  0  0  0
    7.7163    4.9157   25.7069 N   0  0  0  0  0  0  0  0  0  0  0  0
    7.9995    6.0441   26.3579 C   0  0  0  0  0  0  0  0  0  0  0  0
    7.2126    6.4061   27.0179 H   0  0  0  0  0  0  0  0  0  0  0  0
    9.2072    6.7368   26.2491 C   0  0  0  0  0  0  0  0  0  0  0  0
    9.3596    7.6302   26.8444 H   0  0  0  0  0  0  0  0  0  0  0  0
   10.1833    6.2343   25.3776 C   0  0  0  0  0  0  0  0  0  0  0  0
   11.1521    6.7288   25.2672 H   0  0  0  0  0  0  0  0  0  0  0  0
    9.8831    5.0872   24.6481 C   0  0  0  0  0  0  0  0  0  0  0  0
   10.5742    4.6203   23.9581 H   0  0  0  0  0  0  0  0  0  0  0  0
    8.8408    3.0275   22.7952 C   0  0  0  0  0  0  0  0  0  0  0  0
    9.1535    3.9466   22.2862 H   0  0  0  0  0  0  0  0  0  0  0  0
    9.7272    2.3797   22.9196 H   0  0  0  0  0  0  0  0  0  0  0  0
    7.8228    2.2904   21.8836 C   0  0  0  0  0  0  0  0  0  0  0  0
    8.3086    1.9645   20.9551 H   0  0  0  0  0  0  0  0  0  0  0  0
    7.0106    2.9857   21.6178 H   0  0  0  0  0  0  0  0  0  0  0  0
    8.1583   -0.8869   23.2538 N   0  0  0  0  0  0  0  0  0  0  0  0
    8.5893   -2.1196   22.9131 C   0  0  0  0  0  0  0  0  0  0  0  0
    9.0786   -2.7018   23.6896 H   0  0  0  0  0  0  0  0  0  0  0  0
  1  2  1  0
  2  3  2  0
  3  4  1  0
  4  5  1  0
  5  6  2  0
  6  7  1  0
  6  8  1  0
  8  9  2  0
  9 10  1  0
  9 11  1  0
 11 12  1  0
 11 13  2  0
 13 14  1  0
  4 15  2  0
 15 16  1  0
 16 17  1  0
 17 18  1  0
 17 19  1  0
 17 20  1  0
 20 21  1  0
 20 22  1  0
 20 23  1  0
 23 24  1  0
 24 25  2  0
 25 26  1  0
 26 27  1  0
 26 28  2  0
 28 29  1  0
 28 30  1  0
 30 31  1  0
 30 32  2  0
 32 33  1  0
 23 34  1  0
 34 35  1  0
 34 36  1  0
 34 37  1  0
 37 38  1  0
 37 39  1  0
 15 40  1  0
 40 41  2  0
 41 42  1  0
 41  2  1  0
 13  5  1  0
 37 16  1  0
 32 24  1  0
M  END
>  <cnnaffinity>  (1) 
-5.52517

>  <filename>  (1) 
c1ccc(N2CCN(c3nccnc3-c3cccnc3)CC2)nc1

$$$$
