
     RDKit          3D

 29 32  0  0  0  0  0  0  0  0999 V2000
    4.1268    0.0541   25.3159 H   0  0  0  0  0  0  0  0  0  0  0  0
    4.9582   -0.5305   25.7043 C   0  0  0  0  0  0  0  0  0  0  0  0
    5.9116   -0.8150   24.8246 N   0  0  0  0  0  0  0  0  0  0  0  0
    6.9640   -1.5721   25.1884 C   0  0  0  0  0  0  0  0  0  0  0  0
    8.0017   -1.9132   24.1465 C   0  0  0  0  0  0  0  0  0  0  0  0
    9.1566   -2.6149   24.2474 C   0  0  0  0  0  0  0  0  0  0  0  0
    9.5694   -3.1077   25.1189 H   0  0  0  0  0  0  0  0  0  0  0  0
   10.0679   -2.7197   22.7619 S   0  0  0  0  0  0  0  0  0  0  0  0
    8.8378   -1.8024   21.9423 C   0  0  0  0  0  0  0  0  0  0  0  0
    8.5763   -1.3348   20.7370 N   0  0  0  0  0  0  0  0  0  0  0  0
    7.3810   -0.7053   20.9506 C   0  0  0  0  0  0  0  0  0  0  0  0
    6.6354    0.0032   19.9079 C   0  0  0  0  0  0  0  0  0  0  0  0
    7.1748    0.0297   18.6187 C   0  0  0  0  0  0  0  0  0  0  0  0
    8.1260   -0.4655   18.4262 H   0  0  0  0  0  0  0  0  0  0  0  0
    6.5871    0.6486   17.5907 N   0  0  0  0  0  0  0  0  0  0  0  0
    5.4291    1.2832   17.8291 C   0  0  0  0  0  0  0  0  0  0  0  0
    4.9851    1.8014   16.9831 H   0  0  0  0  0  0  0  0  0  0  0  0
    4.8013    1.3094   19.0805 C   0  0  0  0  0  0  0  0  0  0  0  0
    3.8642    1.8464   19.1975 H   0  0  0  0  0  0  0  0  0  0  0  0
    5.4149    0.6630   20.1504 C   0  0  0  0  0  0  0  0  0  0  0  0
    4.9792    0.6741   21.1526 H   0  0  0  0  0  0  0  0  0  0  0  0
    6.9104   -0.7643   22.1812 N   0  0  0  0  0  0  0  0  0  0  0  0
    7.8628   -1.4793   22.8186 N   0  0  0  0  0  0  0  0  0  0  0  0
    7.0827   -2.0325   26.5190 C   0  0  0  0  0  0  0  0  0  0  0  0
    7.9403   -2.6307   26.8145 H   0  0  0  0  0  0  0  0  0  0  0  0
    6.0802   -1.7077   27.4455 C   0  0  0  0  0  0  0  0  0  0  0  0
    6.1282   -2.0407   28.4750 H   0  0  0  0  0  0  0  0  0  0  0  0
    4.9855   -0.9416   27.0394 C   0  0  0  0  0  0  0  0  0  0  0  0
    4.1751   -0.6601   27.7095 H   0  0  0  0  0  0  0  0  0  0  0  0
  1  2  1  0
  2  3  2  0
  3  4  1  0
  4  5  1  0
  5  6  2  0
  6  7  1  0
  6  8  1  0
  8  9  1  0
  9 10  2  0
 10 11  1  0
 11 12  1  0
 12 13  2  0
 13 14  1  0
 13 15  1  0
 15 16  2  0
 16 17  1  0
 16 18  1  0
 18 19  1  0
 18 20  2  0
 20 21  1  0
 11 22  2  0
 22 23  1  0
  4 24  2  0
 24 25  1  0
 24 26  1  0
 26 27  1  0
 26 28  2  0
 28 29  1  0
 28  2  1  0
 23  5  1  0
 23  9  1  0
 20 12  1  0
M  END
>  <cnnaffinity>  (1) 
-5.26844

>  <filename>  (1) 
c1ccc(-c2csc3nc(-c4cccnc4)nn23)nc1

$$$$
