
     RDKit          3D

 40 43  0  0  0  0  0  0  0  0999 V2000
   10.8068    5.7853   26.0517 H   0  0  0  0  0  0  0  0  0  0  0  0
    9.8305    5.3381   26.2293 C   0  0  0  0  0  0  0  0  0  0  0  0
    9.4691    4.3922   25.3628 N   0  0  0  0  0  0  0  0  0  0  0  0
    8.3057    3.7743   25.5902 C   0  0  0  0  0  0  0  0  0  0  0  0
    7.9370    2.7799   24.7096 N   0  0  0  0  0  0  0  0  0  0  0  0
    8.4794    2.7442   23.3512 C   0  0  0  0  0  0  0  0  0  0  0  0
    8.7500    3.7534   23.0250 H   0  0  0  0  0  0  0  0  0  0  0  0
    9.3969    2.1369   23.3107 H   0  0  0  0  0  0  0  0  0  0  0  0
    7.4168    2.1916   22.3889 C   0  0  0  0  0  0  0  0  0  0  0  0
    7.8564    2.0573   21.3941 H   0  0  0  0  0  0  0  0  0  0  0  0
    6.6167    2.9324   22.2957 H   0  0  0  0  0  0  0  0  0  0  0  0
    6.7857    0.9265   22.8301 N   0  0  0  0  0  0  0  0  0  0  0  0
    7.3967   -0.2212   22.3359 N   0  0  0  0  0  0  0  0  0  0  0  0
    8.0937   -1.0456   23.1274 N   0  0  0  0  0  0  0  0  0  0  0  0
    8.5225   -2.0230   22.3914 N   0  0  0  0  0  0  0  0  0  0  0  0
    8.1033   -1.8207   21.1217 C   0  0  0  0  0  0  0  0  0  0  0  0
    8.3648   -2.5556   20.3907 H   0  0  0  0  0  0  0  0  0  0  0  0
    7.3639   -0.6576   21.0324 C   0  0  0  0  0  0  0  0  0  0  0  0
    6.6418    0.0403   19.9219 C   0  0  0  0  0  0  0  0  0  0  0  0
    7.1512    0.0783   18.5978 C   0  0  0  0  0  0  0  0  0  0  0  0
    8.1037   -0.3958   18.3649 H   0  0  0  0  0  0  0  0  0  0  0  0
    6.5572    0.6893   17.5646 N   0  0  0  0  0  0  0  0  0  0  0  0
    5.3939    1.3130   17.8055 C   0  0  0  0  0  0  0  0  0  0  0  0
    4.9340    1.8180   16.9606 H   0  0  0  0  0  0  0  0  0  0  0  0
    4.7801    1.3348   19.0615 C   0  0  0  0  0  0  0  0  0  0  0  0
    3.8344    1.8554   19.1841 H   0  0  0  0  0  0  0  0  0  0  0  0
    5.4122    0.7042   20.1334 C   0  0  0  0  0  0  0  0  0  0  0  0
    4.9827    0.7395   21.1350 H   0  0  0  0  0  0  0  0  0  0  0  0
    6.4352    0.8885   24.2661 C   0  0  0  0  0  0  0  0  0  0  0  0
    6.2051   -0.1414   24.5491 H   0  0  0  0  0  0  0  0  0  0  0  0
    5.5251    1.4833   24.3789 H   0  0  0  0  0  0  0  0  0  0  0  0
    7.5177    1.4621   25.1940 C   0  0  0  0  0  0  0  0  0  0  0  0
    8.3679    0.7636   25.2211 H   0  0  0  0  0  0  0  0  0  0  0  0
    7.1207    1.5116   26.2136 H   0  0  0  0  0  0  0  0  0  0  0  0
    7.4351    4.1123   26.6449 C   0  0  0  0  0  0  0  0  0  0  0  0
    6.4938    3.5786   26.7133 H   0  0  0  0  0  0  0  0  0  0  0  0
    7.8054    5.1376   27.5013 C   0  0  0  0  0  0  0  0  0  0  0  0
    7.1481    5.4413   28.3148 H   0  0  0  0  0  0  0  0  0  0  0  0
    9.0476    5.7570   27.3002 C   0  0  0  0  0  0  0  0  0  0  0  0
    9.4061    6.5491   27.9420 H   0  0  0  0  0  0  0  0  0  0  0  0
  1  2  1  0
  2  3  2  0
  3  4  1  0
  4  5  1  0
  5  6  1  0
  6  7  1  0
  6  8  1  0
  6  9  1  0
  9 10  1  0
  9 11  1  0
  9 12  1  0
 12 13  1  0
 13 14  1  0
 14 15  2  0
 15 16  1  0
 16 17  1  0
 16 18  2  0
 18 19  1  0
 19 20  2  0
 20 21  1  0
 20 22  1  0
 22 23  2  0
 23 24  1  0
 23 25  1  0
 25 26  1  0
 25 27  2  0
 27 28  1  0
 12 29  1  0
 29 30  1  0
 29 31  1  0
 29 32  1  0
 32 33  1  0
 32 34  1  0
  4 35  2  0
 35 36  1  0
 35 37  1  0
 37 38  1  0
 37 39  2  0
 39 40  1  0
 39  2  1  0
 32  5  1  0
 18 13  1  0
 27 19  1  0
M  END
>  <cnnaffinity>  (1) 
-5.20596

>  <filename>  (1) 
c1ccc(N2CCN(n3nncc3-c3cccnc3)CC2)nc1

$$$$
