
     RDKit          3D

 44 46  0  0  0  0  0  0  0  0999 V2000
    4.9431    1.7830   16.7393 H   0  0  0  0  0  0  0  0  0  0  0  0
    5.3673    1.3059   17.6184 C   0  0  0  0  0  0  0  0  0  0  0  0
    6.5778    0.7481   17.4589 N   0  0  0  0  0  0  0  0  0  0  0  0
    7.1429    0.1869   18.5383 C   0  0  0  0  0  0  0  0  0  0  0  0
    8.1338   -0.2436   18.3958 H   0  0  0  0  0  0  0  0  0  0  0  0
    6.5427    0.1168   19.8262 C   0  0  0  0  0  0  0  0  0  0  0  0
    7.2212   -0.4227   20.9383 N   0  0  0  0  0  0  0  0  0  0  0  0
    6.6137   -1.3859   21.8504 C   0  0  0  0  0  0  0  0  0  0  0  0
    6.4986   -0.9427   22.8536 H   0  0  0  0  0  0  0  0  0  0  0  0
    5.6111   -1.6351   21.4791 H   0  0  0  0  0  0  0  0  0  0  0  0
    7.4095   -2.7013   22.0529 C   0  0  0  0  0  0  0  0  0  0  0  0
    6.7246   -3.4111   22.5268 H   0  0  0  0  0  0  0  0  0  0  0  0
    7.6602   -3.1341   21.0689 H   0  0  0  0  0  0  0  0  0  0  0  0
    8.5942   -2.5272   22.8973 N   0  0  0  0  0  0  0  0  0  0  0  0
    8.8247   -3.5572   23.9271 C   0  0  0  0  0  0  0  0  0  0  0  0
    7.8640   -3.7719   24.4120 H   0  0  0  0  0  0  0  0  0  0  0  0
    9.2000   -4.4868   23.4632 H   0  0  0  0  0  0  0  0  0  0  0  0
    9.7867   -3.0192   25.0039 C   0  0  0  0  0  0  0  0  0  0  0  0
   10.8248   -3.0743   24.6379 H   0  0  0  0  0  0  0  0  0  0  0  0
    9.5493   -1.9509   25.1463 H   0  0  0  0  0  0  0  0  0  0  0  0
    9.6362   -3.7131   26.3398 C   0  0  0  0  0  0  0  0  0  0  0  0
    9.5102   -5.3736   26.1950 C   0  0  0  0  0  0  0  0  0  0  0  0
    9.7492   -6.2577   25.2207 H   0  0  0  0  0  0  0  0  0  0  0  0
    9.8072   -5.5593   26.3226 C   0  0  0  0  0  0  0  0  0  0  0  0
   10.7032   -5.9168   26.9709 H   0  0  0  0  0  0  0  0  0  0  0  0
    8.1671   -5.6783   27.1133 C   0  0  0  0  0  0  0  0  0  0  0  0
    7.6583   -6.6730   27.2994 H   0  0  0  0  0  0  0  0  0  0  0  0
    7.6434   -4.4735   27.5519 C   0  0  0  0  0  0  0  0  0  0  0  0
    6.7272   -4.3207   28.1230 H   0  0  0  0  0  0  0  0  0  0  0  0
    8.4763   -3.3659   27.0963 C   0  0  0  0  0  0  0  0  0  0  0  0
    8.1886   -2.3297   27.2807 H   0  0  0  0  0  0  0  0  0  0  0  0
    9.8116   -2.0492   22.2378 C   0  0  0  0  0  0  0  0  0  0  0  0
   10.4481   -2.8881   21.9069 H   0  0  0  0  0  0  0  0  0  0  0  0
   10.4045   -1.4981   22.9842 H   0  0  0  0  0  0  0  0  0  0  0  0
    9.6127   -1.1147   21.0411 C   0  0  0  0  0  0  0  0  0  0  0  0
    9.3115   -1.6928   20.1608 H   0  0  0  0  0  0  0  0  0  0  0  0
   10.5877   -0.6742   20.8018 H   0  0  0  0  0  0  0  0  0  0  0  0
    8.5810   -0.0025   21.2630 C   0  0  0  0  0  0  0  0  0  0  0  0
    8.6159    0.3375   22.3126 H   0  0  0  0  0  0  0  0  0  0  0  0
    8.8236    0.8724   20.6455 H   0  0  0  0  0  0  0  0  0  0  0  0
    5.2535    0.6713   19.9462 C   0  0  0  0  0  0  0  0  0  0  0  0
    4.7635    0.6448   20.9186 H   0  0  0  0  0  0  0  0  0  0  0  0
    4.6715    1.2872   18.8326 C   0  0  0  0  0  0  0  0  0  0  0  0
    3.7004    1.7626   18.8988 H   0  0  0  0  0  0  0  0  0  0  0  0
  1  2  1  0
  2  3  2  0
  3  4  1  0
  4  5  1  0
  4  6  2  0
  6  7  1  0
  7  8  1  0
  8  9  1  0
  8 10  1  0
  8 11  1  0
 11 12  1  0
 11 13  1  0
 11 14  1  0
 14 15  1  0
 15 16  1  0
 15 17  1  0
 15 18  1  0
 18 19  1  0
 18 20  1  0
 18 21  1  0
 21 22  2  0
 22 23  1  0
 22 24  1  0
 24 25  1  0
 24 26  2  0
 26 27  1  0
 26 28  1  0
 28 29  1  0
 28 30  2  0
 30 31  1  0
 14 32  1  0
 32 33  1  0
 32 34  1  0
 32 35  1  0
 35 36  1  0
 35 37  1  0
 35 38  1  0
 38 39  1  0
 38 40  1  0
  6 41  1  0
 41 42  1  0
 41 43  2  0
 43 44  1  0
 43  2  1  0
 38  7  1  0
 30 21  1  0
M  END
>  <cnnaffinity>  (1) 
-4.50823

>  <filename>  (1) 
c1ccc(CCN2CCCN(c3cccnc3)CC2)cc1

$$$$
