
     RDKit          3D

 38 40  0  0  0  0  0  0  0  0999 V2000
    4.9217    1.8032   16.9789 H   0  0  0  0  0  0  0  0  0  0  0  0
    5.3873    1.3030   17.8269 C   0  0  0  0  0  0  0  0  0  0  0  0
    6.5492    0.6846   17.5711 N   0  0  0  0  0  0  0  0  0  0  0  0
    7.1531    0.0666   18.5926 C   0  0  0  0  0  0  0  0  0  0  0  0
    8.1052   -0.4117   18.3535 H   0  0  0  0  0  0  0  0  0  0  0  0
    6.6415    0.0043   19.9009 C   0  0  0  0  0  0  0  0  0  0  0  0
    7.4215   -0.7009   20.9936 C   0  0  0  0  0  0  0  0  0  0  0  0
    7.6626   -1.7307   20.7034 H   0  0  0  0  0  0  0  0  0  0  0  0
    6.8241   -0.7753   21.9078 H   0  0  0  0  0  0  0  0  0  0  0  0
    8.6799   -0.0388   21.3277 N   0  0  0  0  0  0  0  0  0  0  0  0
    9.9021   -0.3616   20.8143 C   0  0  0  0  0  0  0  0  0  0  0  0
   10.0101   -1.1995   20.1405 H   0  0  0  0  0  0  0  0  0  0  0  0
   10.8483    0.4485   21.2093 N   0  0  0  0  0  0  0  0  0  0  0  0
   10.2143    1.3581   22.0112 C   0  0  0  0  0  0  0  0  0  0  0  0
   10.7719    2.1429   22.5159 H   0  0  0  0  0  0  0  0  0  0  0  0
    8.8719    1.0950   22.0992 C   0  0  0  0  0  0  0  0  0  0  0  0
    7.8109    1.7602   22.9188 C   0  0  0  0  0  0  0  0  0  0  0  0
    8.0620    2.8234   23.0170 H   0  0  0  0  0  0  0  0  0  0  0  0
    6.8302    1.7326   22.4242 H   0  0  0  0  0  0  0  0  0  0  0  0
    7.6917    1.1398   24.3249 C   0  0  0  0  0  0  0  0  0  0  0  0
    8.6648    1.1377   24.8366 H   0  0  0  0  0  0  0  0  0  0  0  0
    7.3522    0.1023   24.2494 H   0  0  0  0  0  0  0  0  0  0  0  0
    6.7064    1.7657   25.1304 O   0  0  0  0  0  0  0  0  0  0  0  0
    6.9292    2.9835   25.7029 C   0  0  0  0  0  0  0  0  0  0  0  0
    8.1443    3.6804   25.6945 C   0  0  0  0  0  0  0  0  0  0  0  0
    9.0076    3.2620   25.1891 H   0  0  0  0  0  0  0  0  0  0  0  0
    8.2297    4.9202   26.3440 C   0  0  0  0  0  0  0  0  0  0  0  0
    9.1719    5.4624   26.3362 H   0  0  0  0  0  0  0  0  0  0  0  0
    7.1205    5.4638   26.9923 C   0  0  0  0  0  0  0  0  0  0  0  0
    7.1869    6.4260   27.4908 H   0  0  0  0  0  0  0  0  0  0  0  0
    5.9079    4.7609   26.9948 C   0  0  0  0  0  0  0  0  0  0  0  0
    5.0350    5.1710   27.4969 H   0  0  0  0  0  0  0  0  0  0  0  0
    5.8130    3.5286   26.3558 C   0  0  0  0  0  0  0  0  0  0  0  0
    4.8970    2.9461   26.3362 H   0  0  0  0  0  0  0  0  0  0  0  0
    5.4230    0.6491   20.1419 C   0  0  0  0  0  0  0  0  0  0  0  0
    4.9786    0.6409   21.1401 H   0  0  0  0  0  0  0  0  0  0  0  0
    4.7892    1.3141   19.0892 C   0  0  0  0  0  0  0  0  0  0  0  0
    3.8625    1.8521   19.2365 H   0  0  0  0  0  0  0  0  0  0  0  0
  1  2  1  0
  2  3  2  0
  3  4  1  0
  4  5  1  0
  4  6  2  0
  6  7  1  0
  7  8  1  0
  7  9  1  0
  7 10  1  0
 10 11  1  0
 11 12  1  0
 11 13  2  0
 13 14  1  0
 14 15  1  0
 14 16  2  0
 16 17  1  0
 17 18  1  0
 17 19  1  0
 17 20  1  0
 20 21  1  0
 20 22  1  0
 20 23  1  0
 23 24  1  0
 24 25  2  0
 25 26  1  0
 25 27  1  0
 27 28  1  0
 27 29  2  0
 29 30  1  0
 29 31  1  0
 31 32  1  0
 31 33  2  0
 33 34  1  0
  6 35  1  0
 35 36  1  0
 35 37  2  0
 37 38  1  0
 37  2  1  0
 16 10  1  0
 33 24  1  0
M  END
>  <cnnaffinity>  (1) 
-4.78127

>  <filename>  (1) 
c1ccc(OCCc2cncn2Cc2cccnc2)cc1

$$$$
