
     RDKit          3D

 29 31  0  0  0  0  0  0  0  0999 V2000
   12.1495   -5.0724   25.2141 H   0  0  0  0  0  0  0  0  0  0  0  0
   11.1741   -4.5977   25.1383 C   0  0  0  0  0  0  0  0  0  0  0  0
   10.8791   -4.0316   23.9704 N   0  0  0  0  0  0  0  0  0  0  0  0
    9.6580   -3.5085   23.8443 C   0  0  0  0  0  0  0  0  0  0  0  0
    9.5074   -3.0341   22.5682 N   0  0  0  0  0  0  0  0  0  0  0  0
   10.4180   -3.1193   22.1512 H   0  0  0  0  0  0  0  0  0  0  0  0
    8.7099   -1.9804   22.2017 C   0  0  0  0  0  0  0  0  0  0  0  0
    7.9911   -1.2867   23.0701 N   0  0  0  0  0  0  0  0  0  0  0  0
    7.2274   -0.4820   22.2945 N   0  0  0  0  0  0  0  0  0  0  0  0
    6.6968    0.2535   22.7345 H   0  0  0  0  0  0  0  0  0  0  0  0
    7.4675   -0.6301   20.9634 C   0  0  0  0  0  0  0  0  0  0  0  0
    6.6690    0.0541   19.9241 C   0  0  0  0  0  0  0  0  0  0  0  0
    7.1668    0.0760   18.6100 C   0  0  0  0  0  0  0  0  0  0  0  0
    8.1111   -0.4198   18.4016 H   0  0  0  0  0  0  0  0  0  0  0  0
    6.5718    0.6785   17.5742 N   0  0  0  0  0  0  0  0  0  0  0  0
    5.4086    1.3027   17.8154 C   0  0  0  0  0  0  0  0  0  0  0  0
    4.9498    1.8079   16.9681 H   0  0  0  0  0  0  0  0  0  0  0  0
    4.7958    1.3162   19.0748 C   0  0  0  0  0  0  0  0  0  0  0  0
    3.8579    1.8444   19.2055 H   0  0  0  0  0  0  0  0  0  0  0  0
    5.4249    0.6776   20.1445 C   0  0  0  0  0  0  0  0  0  0  0  0
    4.9504    0.6630   21.1290 H   0  0  0  0  0  0  0  0  0  0  0  0
    8.4786   -1.5672   20.8799 C   0  0  0  0  0  0  0  0  0  0  0  0
    9.0220   -1.9520   20.0374 H   0  0  0  0  0  0  0  0  0  0  0  0
    8.6858   -3.4921   24.8578 C   0  0  0  0  0  0  0  0  0  0  0  0
    7.7217   -3.0394   24.6668 H   0  0  0  0  0  0  0  0  0  0  0  0
    9.0470   -4.0267   26.0897 C   0  0  0  0  0  0  0  0  0  0  0  0
    8.3545   -3.9763   26.9302 H   0  0  0  0  0  0  0  0  0  0  0  0
   10.3105   -4.6033   26.2325 C   0  0  0  0  0  0  0  0  0  0  0  0
   10.6394   -5.0256   27.1698 H   0  0  0  0  0  0  0  0  0  0  0  0
  1  2  1  0
  2  3  2  0
  3  4  1  0
  4  5  1  0
  5  6  1  0
  5  7  1  0
  7  8  2  0
  8  9  1  0
  9 10  1  0
  9 11  1  0
 11 12  1  0
 12 13  2  0
 13 14  1  0
 13 15  1  0
 15 16  2  0
 16 17  1  0
 16 18  1  0
 18 19  1  0
 18 20  2  0
 20 21  1  0
 11 22  2  0
 22 23  1  0
  4 24  2  0
 24 25  1  0
 24 26  1  0
 26 27  1  0
 26 28  2  0
 28 29  1  0
 28  2  1  0
 22  7  1  0
 20 12  1  0
M  END
>  <cnnaffinity>  (1) 
-5.06862

>  <filename>  (1) 
c1ccc(Nc2cc(-c3cccnc3)[nH]n2)nc1

$$$$
