
     RDKit          3D

 31 33  0  0  0  0  0  0  0  0999 V2000
    4.9151    1.7780   16.9983 H   0  0  0  0  0  0  0  0  0  0  0  0
    5.4018    1.2915   17.8436 C   0  0  0  0  0  0  0  0  0  0  0  0
    6.5703    0.6736   17.5957 N   0  0  0  0  0  0  0  0  0  0  0  0
    7.1793    0.0569   18.6153 C   0  0  0  0  0  0  0  0  0  0  0  0
    8.1249   -0.4390   18.3938 H   0  0  0  0  0  0  0  0  0  0  0  0
    6.6612    0.0137   19.9235 C   0  0  0  0  0  0  0  0  0  0  0  0
    7.3746   -0.7052   20.8607 O   0  0  0  0  0  0  0  0  0  0  0  0
    7.2472   -0.4061   22.2029 C   0  0  0  0  0  0  0  0  0  0  0  0
    7.1089   -1.3652   23.2202 C   0  0  0  0  0  0  0  0  0  0  0  0
    7.0609   -2.4376   23.1063 H   0  0  0  0  0  0  0  0  0  0  0  0
    7.0581   -0.8074   24.4254 N   0  0  0  0  0  0  0  0  0  0  0  0
    7.1808    0.5098   24.1752 N   0  0  0  0  0  0  0  0  0  0  0  0
    7.1398    1.1781   24.9270 H   0  0  0  0  0  0  0  0  0  0  0  0
    7.3202    0.8113   22.8578 C   0  0  0  0  0  0  0  0  0  0  0  0
    7.4954    2.0898   22.3828 N   0  0  0  0  0  0  0  0  0  0  0  0
    7.3588    2.1993   21.3880 H   0  0  0  0  0  0  0  0  0  0  0  0
    7.9138    3.2325   23.0788 C   0  0  0  0  0  0  0  0  0  0  0  0
    7.3659    4.4753   22.7384 C   0  0  0  0  0  0  0  0  0  0  0  0
    6.6327    4.5406   21.9371 H   0  0  0  0  0  0  0  0  0  0  0  0
    7.7420    5.6216   23.4439 C   0  0  0  0  0  0  0  0  0  0  0  0
    7.3127    6.5831   23.1810 H   0  0  0  0  0  0  0  0  0  0  0  0
    8.6806    5.5407   24.4775 C   0  0  0  0  0  0  0  0  0  0  0  0
    8.9843    6.4278   25.0238 H   0  0  0  0  0  0  0  0  0  0  0  0
    9.2377    4.3010   24.7946 C   0  0  0  0  0  0  0  0  0  0  0  0
    9.9631    4.2347   25.5887 H   0  0  0  0  0  0  0  0  0  0  0  0
    8.8686    3.1479   24.1024 C   0  0  0  0  0  0  0  0  0  0  0  0
    9.3181    2.1851   24.3308 H   0  0  0  0  0  0  0  0  0  0  0  0
    5.4405    0.6465   20.1747 C   0  0  0  0  0  0  0  0  0  0  0  0
    5.0169    0.6280   21.1825 H   0  0  0  0  0  0  0  0  0  0  0  0
    4.8081    1.3069   19.1097 C   0  0  0  0  0  0  0  0  0  0  0  0
    3.8749    1.8412   19.2602 H   0  0  0  0  0  0  0  0  0  0  0  0
  1  2  1  0
  2  3  2  0
  3  4  1  0
  4  5  1  0
  4  6  2  0
  6  7  1  0
  7  8  1  0
  8  9  1  0
  9 10  1  0
  9 11  2  0
 11 12  1  0
 12 13  1  0
 12 14  1  0
 14 15  1  0
 15 16  1  0
 15 17  1  0
 17 18  2  0
 18 19  1  0
 18 20  1  0
 20 21  1  0
 20 22  2  0
 22 23  1  0
 22 24  1  0
 24 25  1  0
 24 26  2  0
 26 27  1  0
  6 28  1  0
 28 29  1  0
 28 30  2  0
 30 31  1  0
 30  2  1  0
 14  8  2  0
 26 17  1  0
M  END
>  <cnnaffinity>  (1) 
-4.95172

>  <filename>  (1) 
c1ccc(Nc2[nH]ncc2Oc2cccnc2)cc1

$$$$
