
     RDKit          3D

 35 38  0  0  0  0  0  0  0  0999 V2000
    4.9247    1.7741   17.0009 H   0  0  0  0  0  0  0  0  0  0  0  0
    5.4094    1.2870   17.8454 C   0  0  0  0  0  0  0  0  0  0  0  0
    6.5733    0.6680   17.5928 N   0  0  0  0  0  0  0  0  0  0  0  0
    7.1771    0.0557   18.6152 C   0  0  0  0  0  0  0  0  0  0  0  0
    8.1226   -0.4274   18.3733 H   0  0  0  0  0  0  0  0  0  0  0  0
    6.6518    0.0096   19.9176 C   0  0  0  0  0  0  0  0  0  0  0  0
    7.3503   -0.6919   21.0034 C   0  0  0  0  0  0  0  0  0  0  0  0
    6.8691   -0.7364   22.2020 N   0  0  0  0  0  0  0  0  0  0  0  0
    7.7161   -1.4487   22.9975 N   0  0  0  0  0  0  0  0  0  0  0  0
    7.7305   -1.8298   24.3311 C   0  0  0  0  0  0  0  0  0  0  0  0
    6.7837   -1.4604   25.2629 N   0  0  0  0  0  0  0  0  0  0  0  0
    5.9969   -0.9221   24.9245 H   0  0  0  0  0  0  0  0  0  0  0  0
    6.7864   -2.0240   26.6012 C   0  0  0  0  0  0  0  0  0  0  0  0
    7.7688   -1.8487   27.0586 H   0  0  0  0  0  0  0  0  0  0  0  0
    6.0665   -1.4654   27.2063 H   0  0  0  0  0  0  0  0  0  0  0  0
    6.4607   -3.5045   26.6461 C   0  0  0  0  0  0  0  0  0  0  0  0
    5.2182   -3.9511   26.1704 C   0  0  0  0  0  0  0  0  0  0  0  0
    4.4989   -3.2267   25.7894 H   0  0  0  0  0  0  0  0  0  0  0  0
    4.8981   -5.3104   26.1761 C   0  0  0  0  0  0  0  0  0  0  0  0
    3.9284   -5.6374   25.8083 H   0  0  0  0  0  0  0  0  0  0  0  0
    5.8224   -6.2453   26.6558 C   0  0  0  0  0  0  0  0  0  0  0  0
    5.5756   -7.3038   26.6648 H   0  0  0  0  0  0  0  0  0  0  0  0
    7.0658   -5.8133   27.1297 C   0  0  0  0  0  0  0  0  0  0  0  0
    7.7887   -6.5329   27.5070 H   0  0  0  0  0  0  0  0  0  0  0  0
    7.3828   -4.4503   27.1233 C   0  0  0  0  0  0  0  0  0  0  0  0
    8.3541   -4.1226   27.4934 H   0  0  0  0  0  0  0  0  0  0  0  0
    8.9036   -2.5540   24.4400 C   0  0  0  0  0  0  0  0  0  0  0  0
    9.2760   -3.0265   25.3336 H   0  0  0  0  0  0  0  0  0  0  0  0
    9.5944   -2.6386   23.2460 N   0  0  0  0  0  0  0  0  0  0  0  0
    8.8431   -1.9601   22.4243 C   0  0  0  0  0  0  0  0  0  0  0  0
    8.8946   -1.5253   20.7460 S   0  0  0  0  0  0  0  0  0  0  0  0
    5.4283    0.6572   20.1659 C   0  0  0  0  0  0  0  0  0  0  0  0
    4.9979    0.6362   21.1700 H   0  0  0  0  0  0  0  0  0  0  0  0
    4.8037    1.3106   19.1076 C   0  0  0  0  0  0  0  0  0  0  0  0
    3.8713    1.8454   19.2583 H   0  0  0  0  0  0  0  0  0  0  0  0
  1  2  1  0
  2  3  2  0
  3  4  1  0
  4  5  1  0
  4  6  2  0
  6  7  1  0
  7  8  2  0
  8  9  1  0
  9 10  1  0
 10 11  1  0
 11 12  1  0
 11 13  1  0
 13 14  1  0
 13 15  1  0
 13 16  1  0
 16 17  2  0
 17 18  1  0
 17 19  1  0
 19 20  1  0
 19 21  2  0
 21 22  1  0
 21 23  1  0
 23 24  1  0
 23 25  2  0
 25 26  1  0
 10 27  2  0
 27 28  1  0
 27 29  1  0
 29 30  2  0
 30 31  1  0
  6 32  1  0
 32 33  1  0
 32 34  2  0
 34 35  1  0
 34  2  1  0
 31  7  1  0
 30  9  1  0
 25 16  1  0
M  END
>  <cnnaffinity>  (1) 
-5.20607

>  <filename>  (1) 
c1ccc(CNc2cnc3sc(-c4cccnc4)nn23)cc1

$$$$
