
     RDKit          3D

 37 40  0  0  0  0  0  0  0  0999 V2000
    4.9358    1.7747   17.0026 H   0  0  0  0  0  0  0  0  0  0  0  0
    5.4093    1.2867   17.8490 C   0  0  0  0  0  0  0  0  0  0  0  0
    6.5709    0.6640   17.5975 N   0  0  0  0  0  0  0  0  0  0  0  0
    7.1748    0.0528   18.6201 C   0  0  0  0  0  0  0  0  0  0  0  0
    8.1225   -0.4310   18.3875 H   0  0  0  0  0  0  0  0  0  0  0  0
    6.6425    0.0191   19.9153 C   0  0  0  0  0  0  0  0  0  0  0  0
    7.3685   -0.6807   20.9707 C   0  0  0  0  0  0  0  0  0  0  0  0
    8.5486   -1.3294   20.7577 N   0  0  0  0  0  0  0  0  0  0  0  0
    8.8521   -1.7377   21.9684 C   0  0  0  0  0  0  0  0  0  0  0  0
   10.1349   -2.5758   22.8043 S   0  0  0  0  0  0  0  0  0  0  0  0
    9.3118   -2.3267   24.3243 C   0  0  0  0  0  0  0  0  0  0  0  0
    9.7854   -2.6619   25.2362 H   0  0  0  0  0  0  0  0  0  0  0  0
    8.1328   -1.6847   24.1935 C   0  0  0  0  0  0  0  0  0  0  0  0
    7.2475   -1.1674   25.2862 C   0  0  0  0  0  0  0  0  0  0  0  0
    6.2256   -1.0415   24.9167 H   0  0  0  0  0  0  0  0  0  0  0  0
    7.2156   -1.9065   26.0975 H   0  0  0  0  0  0  0  0  0  0  0  0
    7.7607    0.1685   25.8629 C   0  0  0  0  0  0  0  0  0  0  0  0
    8.7438    0.0146   26.3112 H   0  0  0  0  0  0  0  0  0  0  0  0
    7.1030    0.5402   26.6618 H   0  0  0  0  0  0  0  0  0  0  0  0
    8.0058    1.1679   24.8776 O   0  0  0  0  0  0  0  0  0  0  0  0
    6.9879    1.7952   24.2210 C   0  0  0  0  0  0  0  0  0  0  0  0
    7.3671    2.5707   23.1066 C   0  0  0  0  0  0  0  0  0  0  0  0
    8.4193    2.6128   22.8415 H   0  0  0  0  0  0  0  0  0  0  0  0
    6.4045    3.2598   22.3664 C   0  0  0  0  0  0  0  0  0  0  0  0
    6.7024    3.8555   21.5059 H   0  0  0  0  0  0  0  0  0  0  0  0
    5.0515    3.1989   22.7227 C   0  0  0  0  0  0  0  0  0  0  0  0
    4.3065    3.7401   22.1374 H   0  0  0  0  0  0  0  0  0  0  0  0
    4.6791    2.4321   23.8286 C   0  0  0  0  0  0  0  0  0  0  0  0
    3.6330    2.3787   24.1169 H   0  0  0  0  0  0  0  0  0  0  0  0
    5.6326    1.7299   24.5799 C   0  0  0  0  0  0  0  0  0  0  0  0
    5.3263    1.1401   25.4392 H   0  0  0  0  0  0  0  0  0  0  0  0
    7.9069   -1.3673   22.8573 N   0  0  0  0  0  0  0  0  0  0  0  0
    6.9173   -0.7048   22.2181 N   0  0  0  0  0  0  0  0  0  0  0  0
    5.4240    0.6637   20.1727 C   0  0  0  0  0  0  0  0  0  0  0  0
    5.0085    0.6321   21.1871 H   0  0  0  0  0  0  0  0  0  0  0  0
    4.8045    1.3154   19.1113 C   0  0  0  0  0  0  0  0  0  0  0  0
    3.8718    1.8459   19.2541 H   0  0  0  0  0  0  0  0  0  0  0  0
  1  2  1  0
  2  3  2  0
  3  4  1  0
  4  5  1  0
  4  6  2  0
  6  7  1  0
  7  8  1  0
  8  9  2  0
  9 10  1  0
 10 11  1  0
 11 12  1  0
 11 13  2  0
 13 14  1  0
 14 15  1  0
 14 16  1  0
 14 17  1  0
 17 18  1  0
 17 19  1  0
 17 20  1  0
 20 21  1  0
 21 22  2  0
 22 23  1  0
 22 24  1  0
 24 25  1  0
 24 26  2  0
 26 27  1  0
 26 28  1  0
 28 29  1  0
 28 30  2  0
 30 31  1  0
 13 32  1  0
 32 33  1  0
  6 34  1  0
 34 35  1  0
 34 36  2  0
 36 37  1  0
 36  2  1  0
 33  7  2  0
 32  9  1  0
 30 21  1  0
M  END
>  <cnnaffinity>  (1) 
-5.62172

>  <filename>  (1) 
c1ccc(OCCc2csc3nc(-c4cccnc4)nn23)cc1

$$$$
