
     RDKit          3D

 40 43  0  0  0  0  0  0  0  0999 V2000
    4.9834    1.8314   16.9267 H   0  0  0  0  0  0  0  0  0  0  0  0
    5.4222    1.2939   17.7645 C   0  0  0  0  0  0  0  0  0  0  0  0
    6.5718    0.6476   17.5164 N   0  0  0  0  0  0  0  0  0  0  0  0
    7.1523    0.0117   18.5393 C   0  0  0  0  0  0  0  0  0  0  0  0
    8.0889   -0.4971   18.3200 H   0  0  0  0  0  0  0  0  0  0  0  0
    6.6273   -0.0160   19.8465 C   0  0  0  0  0  0  0  0  0  0  0  0
    7.3842   -0.6484   20.9422 C   0  0  0  0  0  0  0  0  0  0  0  0
    8.5307   -1.3051   20.7018 N   0  0  0  0  0  0  0  0  0  0  0  0
    8.9411   -1.6577   21.9420 N   0  0  0  0  0  0  0  0  0  0  0  0
   10.0854   -2.2360   22.4770 C   0  0  0  0  0  0  0  0  0  0  0  0
   10.8530   -2.6187   21.8265 H   0  0  0  0  0  0  0  0  0  0  0  0
    9.9723   -2.1278   23.8225 C   0  0  0  0  0  0  0  0  0  0  0  0
   10.6646   -2.4667   24.5851 H   0  0  0  0  0  0  0  0  0  0  0  0
    8.7581   -1.4885   24.1381 N   0  0  0  0  0  0  0  0  0  0  0  0
    8.3681   -0.8244   25.3815 C   0  0  0  0  0  0  0  0  0  0  0  0
    8.5994   -1.4868   26.2243 H   0  0  0  0  0  0  0  0  0  0  0  0
    7.2756   -0.7046   25.3542 H   0  0  0  0  0  0  0  0  0  0  0  0
    8.9694    0.4725   25.6263 N   0  0  0  0  0  0  0  0  0  0  0  0
    9.9683    0.3667   25.7742 H   0  0  0  0  0  0  0  0  0  0  0  0
    8.7397    1.4746   24.5824 C   0  0  0  0  0  0  0  0  0  0  0  0
    7.6453    1.5972   24.5016 H   0  0  0  0  0  0  0  0  0  0  0  0
    9.0789    1.1393   23.5832 H   0  0  0  0  0  0  0  0  0  0  0  0
    9.3692    2.8186   24.9317 C   0  0  0  0  0  0  0  0  0  0  0  0
    8.7453    3.6425   25.8832 C   0  0  0  0  0  0  0  0  0  0  0  0
    7.8146    3.3152   26.3400 H   0  0  0  0  0  0  0  0  0  0  0  0
    9.2541    4.9057   26.1982 C   0  0  0  0  0  0  0  0  0  0  0  0
    8.7397    5.5287   26.9250 H   0  0  0  0  0  0  0  0  0  0  0  0
   10.3952    5.3815   25.5435 C   0  0  0  0  0  0  0  0  0  0  0  0
   10.7764    6.3766   25.7624 H   0  0  0  0  0  0  0  0  0  0  0  0
   11.0173    4.5896   24.5739 C   0  0  0  0  0  0  0  0  0  0  0  0
   11.8891    4.9691   24.0389 H   0  0  0  0  0  0  0  0  0  0  0  0
   10.5185    3.3110   24.2805 C   0  0  0  0  0  0  0  0  0  0  0  0
   11.0286    2.7184   23.5209 H   0  0  0  0  0  0  0  0  0  0  0  0
    8.1334   -1.2282   22.9296 C   0  0  0  0  0  0  0  0  0  0  0  0
    7.0693   -0.5846   22.3282 C   0  0  0  0  0  0  0  0  0  0  0  0
    6.2184   -0.1146   22.7911 H   0  0  0  0  0  0  0  0  0  0  0  0
    5.4014    0.6337   20.0757 C   0  0  0  0  0  0  0  0  0  0  0  0
    4.9336    0.6412   21.0634 H   0  0  0  0  0  0  0  0  0  0  0  0
    4.7963    1.3020   19.0155 C   0  0  0  0  0  0  0  0  0  0  0  0
    3.8734    1.8544   19.1521 H   0  0  0  0  0  0  0  0  0  0  0  0
  1  2  1  0
  2  3  2  0
  3  4  1  0
  4  5  1  0
  4  6  2  0
  6  7  1  0
  7  8  2  0
  8  9  1  0
  9 10  1  0
 10 11  1  0
 10 12  2  0
 12 13  1  0
 12 14  1  0
 14 15  1  0
 15 16  1  0
 15 17  1  0
 15 18  1  0
 18 19  1  0
 18 20  1  0
 20 21  1  0
 20 22  1  0
 20 23  1  0
 23 24  2  0
 24 25  1  0
 24 26  1  0
 26 27  1  0
 26 28  2  0
 28 29  1  0
 28 30  1  0
 30 31  1  0
 30 32  2  0
 32 33  1  0
 14 34  1  0
 34 35  2  0
 35 36  1  0
  6 37  1  0
 37 38  1  0
 37 39  2  0
 39 40  1  0
 39  2  1  0
 35  7  1  0
 34  9  1  0
 32 23  1  0
M  END
>  <cnnaffinity>  (1) 
-5.57523

>  <filename>  (1) 
c1ccc(CNCn2ccn3nc(-c4cccnc4)cc23)cc1

$$$$
