
     RDKit          3D

 38 41  0  0  0  0  0  0  0  0999 V2000
    5.0296    1.7743   16.7442 H   0  0  0  0  0  0  0  0  0  0  0  0
    5.4502    1.3118   17.6343 C   0  0  0  0  0  0  0  0  0  0  0  0
    6.6179    0.6732   17.4651 N   0  0  0  0  0  0  0  0  0  0  0  0
    7.1623    0.1008   18.5415 C   0  0  0  0  0  0  0  0  0  0  0  0
    8.1192   -0.3945   18.3948 H   0  0  0  0  0  0  0  0  0  0  0  0
    6.5698    0.1188   19.8186 C   0  0  0  0  0  0  0  0  0  0  0  0
    7.2793   -0.5326   20.9187 C   0  0  0  0  0  0  0  0  0  0  0  0
    8.4354   -1.0806   20.7320 N   0  0  0  0  0  0  0  0  0  0  0  0
    8.8872   -1.5544   21.9224 N   0  0  0  0  0  0  0  0  0  0  0  0
   10.1169   -2.0203   22.3273 C   0  0  0  0  0  0  0  0  0  0  0  0
   11.1769   -2.0790   21.4441 N   0  0  0  0  0  0  0  0  0  0  0  0
   10.9613   -1.8873   20.4730 H   0  0  0  0  0  0  0  0  0  0  0  0
   12.5430   -2.0458   21.9216 C   0  0  0  0  0  0  0  0  0  0  0  0
   12.5572   -2.7605   22.7437 H   0  0  0  0  0  0  0  0  0  0  0  0
   13.1951   -2.4315   21.1288 H   0  0  0  0  0  0  0  0  0  0  0  0
   13.1207   -0.6859   22.3959 C   0  0  0  0  0  0  0  0  0  0  0  0
   13.6098   -0.2139   21.5466 H   0  0  0  0  0  0  0  0  0  0  0  0
   13.9508   -0.8934   23.0827 H   0  0  0  0  0  0  0  0  0  0  0  0
   12.1313    0.2911   22.9876 C   0  0  0  0  0  0  0  0  0  0  0  0
   11.1415    0.8309   22.1489 C   0  0  0  0  0  0  0  0  0  0  0  0
   11.1533    0.5823   21.0915 H   0  0  0  0  0  0  0  0  0  0  0  0
   10.1249    1.6348   22.6592 C   0  0  0  0  0  0  0  0  0  0  0  0
    9.3516    2.0057   21.9912 H   0  0  0  0  0  0  0  0  0  0  0  0
   10.1135    1.9600   24.0190 C   0  0  0  0  0  0  0  0  0  0  0  0
    9.3386    2.6110   24.4153 H   0  0  0  0  0  0  0  0  0  0  0  0
   11.1087    1.4535   24.8598 C   0  0  0  0  0  0  0  0  0  0  0  0
   11.0837    1.7024   25.9165 H   0  0  0  0  0  0  0  0  0  0  0  0
   12.1190    0.6264   24.3469 C   0  0  0  0  0  0  0  0  0  0  0  0
   12.8889    0.2218   25.0059 H   0  0  0  0  0  0  0  0  0  0  0  0
    9.9413   -2.2383   23.6882 C   0  0  0  0  0  0  0  0  0  0  0  0
   10.6573   -2.6683   24.3790 H   0  0  0  0  0  0  0  0  0  0  0  0
    8.6876   -1.8401   24.1279 N   0  0  0  0  0  0  0  0  0  0  0  0
    8.1132   -1.4074   23.0337 C   0  0  0  0  0  0  0  0  0  0  0  0
    6.6648   -0.5656   22.5825 S   0  0  0  0  0  0  0  0  0  0  0  0
    5.3493    0.7924   19.9827 C   0  0  0  0  0  0  0  0  0  0  0  0
    4.8655    0.8554   20.9598 H   0  0  0  0  0  0  0  0  0  0  0  0
    4.7821    1.3947   18.8611 C   0  0  0  0  0  0  0  0  0  0  0  0
    3.8445    1.9358   18.9266 H   0  0  0  0  0  0  0  0  0  0  0  0
  1  2  1  0
  2  3  2  0
  3  4  1  0
  4  5  1  0
  4  6  2  0
  6  7  1  0
  7  8  2  0
  8  9  1  0
  9 10  1  0
 10 11  1  0
 11 12  1  0
 11 13  1  0
 13 14  1  0
 13 15  1  0
 13 16  1  0
 16 17  1  0
 16 18  1  0
 16 19  1  0
 19 20  2  0
 20 21  1  0
 20 22  1  0
 22 23  1  0
 22 24  2  0
 24 25  1  0
 24 26  1  0
 26 27  1  0
 26 28  2  0
 28 29  1  0
 10 30  2  0
 30 31  1  0
 30 32  1  0
 32 33  2  0
 33 34  1  0
  6 35  1  0
 35 36  1  0
 35 37  2  0
 37 38  1  0
 37  2  1  0
 34  7  1  0
 33  9  1  0
 28 19  1  0
M  END
>  <cnnaffinity>  (1) 
-6.06221

>  <filename>  (1) 
c1ccc(CCNc2cnc3sc(-c4cccnc4)nn23)cc1

$$$$
