
     RDKit          3D

 40 42  0  0  0  0  0  0  0  0999 V2000
    5.0131    1.8487   16.9292 H   0  0  0  0  0  0  0  0  0  0  0  0
    5.4319    1.3365   17.7923 C   0  0  0  0  0  0  0  0  0  0  0  0
    6.6042    0.7170   17.5875 N   0  0  0  0  0  0  0  0  0  0  0  0
    7.1583    0.0906   18.6306 C   0  0  0  0  0  0  0  0  0  0  0  0
    8.1014   -0.4186   18.4295 H   0  0  0  0  0  0  0  0  0  0  0  0
    6.5915    0.0353   19.9159 C   0  0  0  0  0  0  0  0  0  0  0  0
    7.3408   -0.6873   21.0277 C   0  0  0  0  0  0  0  0  0  0  0  0
    6.7185   -0.7503   21.9292 H   0  0  0  0  0  0  0  0  0  0  0  0
    7.5473   -1.7180   20.7248 H   0  0  0  0  0  0  0  0  0  0  0  0
    8.6310   -0.0894   21.3813 N   0  0  0  0  0  0  0  0  0  0  0  0
    9.8901   -0.5539   21.0455 C   0  0  0  0  0  0  0  0  0  0  0  0
   10.0079   -1.5217   20.5769 H   0  0  0  0  0  0  0  0  0  0  0  0
   10.8294    0.3510   21.4802 C   0  0  0  0  0  0  0  0  0  0  0  0
   11.9056    0.2464   21.4191 H   0  0  0  0  0  0  0  0  0  0  0  0
   10.1227    1.4233   22.0925 C   0  0  0  0  0  0  0  0  0  0  0  0
   10.4864    2.3407   22.5330 H   0  0  0  0  0  0  0  0  0  0  0  0
    8.7827    1.1066   22.0429 C   0  0  0  0  0  0  0  0  0  0  0  0
    7.6943    1.7236   22.6325 N   0  0  0  0  0  0  0  0  0  0  0  0
    6.8781    1.6764   22.0397 H   0  0  0  0  0  0  0  0  0  0  0  0
    7.8766    3.0093   23.2996 C   0  0  0  0  0  0  0  0  0  0  0  0
    8.4919    3.6916   22.6904 H   0  0  0  0  0  0  0  0  0  0  0  0
    6.8877    3.4674   23.3945 H   0  0  0  0  0  0  0  0  0  0  0  0
    8.4863    2.8150   24.6940 C   0  0  0  0  0  0  0  0  0  0  0  0
    7.8072    2.1608   25.2459 H   0  0  0  0  0  0  0  0  0  0  0  0
    9.4080    2.2369   24.5536 H   0  0  0  0  0  0  0  0  0  0  0  0
    8.7586    4.0799   25.4856 C   0  0  0  0  0  0  0  0  0  0  0  0
    7.9298    4.4684   26.5510 C   0  0  0  0  0  0  0  0  0  0  0  0
    7.0491    3.8701   26.7783 H   0  0  0  0  0  0  0  0  0  0  0  0
    8.2432    5.5757   27.3499 C   0  0  0  0  0  0  0  0  0  0  0  0
    7.6081    5.8286   28.1993 H   0  0  0  0  0  0  0  0  0  0  0  0
    9.3766    6.3446   27.0576 C   0  0  0  0  0  0  0  0  0  0  0  0
    9.6573    7.1750   27.7024 H   0  0  0  0  0  0  0  0  0  0  0  0
   10.1744    6.0104   25.9555 C   0  0  0  0  0  0  0  0  0  0  0  0
   11.0462    6.6111   25.7068 H   0  0  0  0  0  0  0  0  0  0  0  0
    9.8613    4.8897   25.1783 C   0  0  0  0  0  0  0  0  0  0  0  0
   10.4762    4.6273   24.3170 H   0  0  0  0  0  0  0  0  0  0  0  0
    5.3474    0.6567   20.0956 C   0  0  0  0  0  0  0  0  0  0  0  0
    4.8357    0.6110   21.0603 H   0  0  0  0  0  0  0  0  0  0  0  0
    4.7591    1.3283   19.0169 C   0  0  0  0  0  0  0  0  0  0  0  0
    3.8144    1.8536   19.1170 H   0  0  0  0  0  0  0  0  0  0  0  0
  1  2  1  0
  2  3  2  0
  3  4  1  0
  4  5  1  0
  4  6  2  0
  6  7  1  0
  7  8  1  0
  7  9  1  0
  7 10  1  0
 10 11  1  0
 11 12  1  0
 11 13  2  0
 13 14  1  0
 13 15  1  0
 15 16  1  0
 15 17  2  0
 17 18  1  0
 18 19  1  0
 18 20  1  0
 20 21  1  0
 20 22  1  0
 20 23  1  0
 23 24  1  0
 23 25  1  0
 23 26  1  0
 26 27  2  0
 27 28  1  0
 27 29  1  0
 29 30  1  0
 29 31  2  0
 31 32  1  0
 31 33  1  0
 33 34  1  0
 33 35  2  0
 35 36  1  0
  6 37  1  0
 37 38  1  0
 37 39  2  0
 39 40  1  0
 39  2  1  0
 17 10  1  0
 35 26  1  0
M  END
>  <cnnaffinity>  (1) 
-5.05536

>  <filename>  (1) 
c1ccc(CCNc2cccn2Cc2cccnc2)cc1

$$$$
