
     RDKit          3D

 35 38  0  0  0  0  0  0  0  0999 V2000
    4.9443    1.7859   16.9805 H   0  0  0  0  0  0  0  0  0  0  0  0
    5.4084    1.2891   17.8287 C   0  0  0  0  0  0  0  0  0  0  0  0
    6.5712    0.6625   17.5845 N   0  0  0  0  0  0  0  0  0  0  0  0
    7.1656    0.0708   18.6239 C   0  0  0  0  0  0  0  0  0  0  0  0
    8.1153   -0.4162   18.3967 H   0  0  0  0  0  0  0  0  0  0  0  0
    6.6624    0.0738   19.9401 C   0  0  0  0  0  0  0  0  0  0  0  0
    7.4395   -0.6004   20.9975 C   0  0  0  0  0  0  0  0  0  0  0  0
    8.2925   -1.6311   20.8416 C   0  0  0  0  0  0  0  0  0  0  0  0
    8.7038   -1.9996   19.9219 H   0  0  0  0  0  0  0  0  0  0  0  0
    8.8738   -2.2938   22.3423 S   0  0  0  0  0  0  0  0  0  0  0  0
    8.0725   -1.0251   23.1989 C   0  0  0  0  0  0  0  0  0  0  0  0
    8.0478   -0.5477   24.4305 N   0  0  0  0  0  0  0  0  0  0  0  0
    7.2647    0.5613   24.2708 C   0  0  0  0  0  0  0  0  0  0  0  0
    6.9586    1.5173   25.4209 C   0  0  0  0  0  0  0  0  0  0  0  0
    7.3028    1.0395   26.3426 H   0  0  0  0  0  0  0  0  0  0  0  0
    7.5923    2.4025   25.3229 H   0  0  0  0  0  0  0  0  0  0  0  0
    5.5857    1.9996   25.6051 N   0  0  0  0  0  0  0  0  0  0  0  0
    5.3520    2.7646   24.9853 H   0  0  0  0  0  0  0  0  0  0  0  0
    4.5277    1.0829   25.6507 C   0  0  0  0  0  0  0  0  0  0  0  0
    3.2354    1.5627   25.3887 C   0  0  0  0  0  0  0  0  0  0  0  0
    3.1231    2.5962   25.0714 H   0  0  0  0  0  0  0  0  0  0  0  0
    2.1300    0.7253   25.5361 C   0  0  0  0  0  0  0  0  0  0  0  0
    1.1347    1.1145   25.3474 H   0  0  0  0  0  0  0  0  0  0  0  0
    2.3011   -0.6085   25.9238 C   0  0  0  0  0  0  0  0  0  0  0  0
    1.4391   -1.2529   26.0739 H   0  0  0  0  0  0  0  0  0  0  0  0
    3.5933   -1.1008   26.1285 C   0  0  0  0  0  0  0  0  0  0  0  0
    3.7438   -2.1401   26.4049 H   0  0  0  0  0  0  0  0  0  0  0  0
    4.7081   -0.2690   25.9841 C   0  0  0  0  0  0  0  0  0  0  0  0
    5.7133   -0.6639   26.1045 H   0  0  0  0  0  0  0  0  0  0  0  0
    6.8360    0.7922   23.0351 N   0  0  0  0  0  0  0  0  0  0  0  0
    7.3486   -0.2659   22.3537 N   0  0  0  0  0  0  0  0  0  0  0  0
    5.4258    0.7081   20.1685 C   0  0  0  0  0  0  0  0  0  0  0  0
    4.9965    0.7321   21.1724 H   0  0  0  0  0  0  0  0  0  0  0  0
    4.7981    1.3202   19.0862 C   0  0  0  0  0  0  0  0  0  0  0  0
    3.8533    1.8364   19.2117 H   0  0  0  0  0  0  0  0  0  0  0  0
  1  2  1  0
  2  3  2  0
  3  4  1  0
  4  5  1  0
  4  6  2  0
  6  7  1  0
  7  8  2  0
  8  9  1  0
  8 10  1  0
 10 11  1  0
 11 12  2  0
 12 13  1  0
 13 14  1  0
 14 15  1  0
 14 16  1  0
 14 17  1  0
 17 18  1  0
 17 19  1  0
 19 20  2  0
 20 21  1  0
 20 22  1  0
 22 23  1  0
 22 24  2  0
 24 25  1  0
 24 26  1  0
 26 27  1  0
 26 28  2  0
 28 29  1  0
 13 30  2  0
 30 31  1  0
  6 32  1  0
 32 33  1  0
 32 34  2  0
 34 35  1  0
 34  2  1  0
 31  7  1  0
 31 11  1  0
 28 19  1  0
M  END
>  <cnnaffinity>  (1) 
-5.45757

>  <filename>  (1) 
c1ccc(NCc2nc3scc(-c4cccnc4)n3n2)cc1

$$$$
