
     RDKit          3D

 43 45  0  0  0  0  0  0  0  0999 V2000
    4.9840    1.8379   16.9761 H   0  0  0  0  0  0  0  0  0  0  0  0
    5.4423    1.3218   17.8189 C   0  0  0  0  0  0  0  0  0  0  0  0
    6.5966    0.6864   17.5700 N   0  0  0  0  0  0  0  0  0  0  0  0
    7.1836    0.0590   18.5998 C   0  0  0  0  0  0  0  0  0  0  0  0
    8.1086   -0.4688   18.3606 H   0  0  0  0  0  0  0  0  0  0  0  0
    6.6807    0.0176   19.9142 C   0  0  0  0  0  0  0  0  0  0  0  0
    7.4085   -0.7061   21.0210 C   0  0  0  0  0  0  0  0  0  0  0  0
    6.6511   -1.1516   21.6814 H   0  0  0  0  0  0  0  0  0  0  0  0
    7.9792   -1.5410   20.5895 H   0  0  0  0  0  0  0  0  0  0  0  0
    8.4001    0.1210   21.9083 C   0  0  1  0  0  0  0  0  0  0  0  0
    9.1461   -0.8283   22.8661 C   0  0  0  0  0  0  0  0  0  0  0  0
    9.8457   -0.2400   23.4802 H   0  0  0  0  0  0  0  0  0  0  0  0
    9.7520   -1.5478   22.2955 H   0  0  0  0  0  0  0  0  0  0  0  0
    8.2468   -1.6075   23.8152 C   0  0  0  0  0  0  0  0  0  0  0  0
    7.5684   -2.2836   23.2726 H   0  0  0  0  0  0  0  0  0  0  0  0
    7.6274   -0.9304   24.4265 H   0  0  0  0  0  0  0  0  0  0  0  0
    9.1167   -2.3603   24.6497 O   0  0  0  0  0  0  0  0  0  0  0  0
    8.5980   -3.1159   25.6501 C   0  0  0  0  0  0  0  0  0  0  0  0
    9.5387   -3.8499   26.3900 C   0  0  0  0  0  0  0  0  0  0  0  0
   10.5757   -3.8168   26.0715 H   0  0  0  0  0  0  0  0  0  0  0  0
    9.1282   -4.5895   27.4944 C   0  0  0  0  0  0  0  0  0  0  0  0
    9.8704   -5.1392   28.0718 H   0  0  0  0  0  0  0  0  0  0  0  0
    7.7718   -4.6290   27.8530 C   0  0  0  0  0  0  0  0  0  0  0  0
    7.4631   -5.1508   28.7543 H   0  0  0  0  0  0  0  0  0  0  0  0
    6.8271   -3.9539   27.0791 C   0  0  0  0  0  0  0  0  0  0  0  0
    5.7681   -3.9751   27.3469 H   0  0  0  0  0  0  0  0  0  0  0  0
    7.2362   -3.1860   25.9824 C   0  0  0  0  0  0  0  0  0  0  0  0
    6.5134   -2.6318   25.3928 H   0  0  0  0  0  0  0  0  0  0  0  0
    9.3957    0.9207   21.0412 C   0  0  0  0  0  0  0  0  0  0  0  0
    9.6483    0.3640   20.1308 H   0  0  0  0  0  0  0  0  0  0  0  0
   10.3434    1.0900   21.5932 H   0  0  0  0  0  0  0  0  0  0  0  0
    8.6796    2.1449   20.7085 N   0  0  0  0  0  0  0  0  0  0  0  0
    9.2895    2.9152   20.4554 H   0  0  0  0  0  0  0  0  0  0  0  0
    7.7694    2.5064   21.7916 C   0  0  0  0  0  0  0  0  0  0  0  0
    6.7908    2.7840   21.3800 H   0  0  0  0  0  0  0  0  0  0  0  0
    8.1199    3.3700   22.3789 H   0  0  0  0  0  0  0  0  0  0  0  0
    7.6772    1.2527   22.6803 C   0  0  0  0  0  0  0  0  0  0  0  0
    6.6372    0.9972   22.9113 H   0  0  0  0  0  0  0  0  0  0  0  0
    8.1800    1.4360   23.6421 H   0  0  0  0  0  0  0  0  0  0  0  0
    5.4611    0.6710   20.1383 C   0  0  0  0  0  0  0  0  0  0  0  0
    5.0055    0.6592   21.1335 H   0  0  0  0  0  0  0  0  0  0  0  0
    4.8347    1.3331   19.0790 C   0  0  0  0  0  0  0  0  0  0  0  0
    3.8955    1.8510   19.2126 H   0  0  0  0  0  0  0  0  0  0  0  0
  1  2  1  0
  2  3  2  0
  3  4  1  0
  4  5  1  0
  4  6  2  0
  6  7  1  0
  7  8  1  0
  7  9  1  0
 10  7  1  6
 10 11  1  0
 11 12  1  0
 11 13  1  0
 11 14  1  0
 14 15  1  0
 14 16  1  0
 14 17  1  0
 17 18  1  0
 18 19  2  0
 19 20  1  0
 19 21  1  0
 21 22  1  0
 21 23  2  0
 23 24  1  0
 23 25  1  0
 25 26  1  0
 25 27  2  0
 27 28  1  0
 10 29  1  0
 29 30  1  0
 29 31  1  0
 29 32  1  0
 32 33  1  0
 32 34  1  0
 34 35  1  0
 34 36  1  0
 34 37  1  0
 37 38  1  0
 37 39  1  0
  6 40  1  0
 40 41  1  0
 40 42  2  0
 42 43  1  0
 42  2  1  0
 37 10  1  0
 27 18  1  0
M  END
>  <cnnaffinity>  (1) 
-4.75423

>  <filename>  (1) 
c1ccc(OCC[C@@]2(Cc3cccnc3)CCNC2)cc1

$$$$
