
     RDKit          3D

 43 46  0  0  0  0  0  0  0  0999 V2000
    2.1141   -7.2703   26.6739 H   0  0  0  0  0  0  0  0  0  0  0  0
    3.1415   -7.0469   26.9646 C   0  0  0  0  0  0  0  0  0  0  0  0
    3.8184   -6.2892   26.1013 N   0  0  0  0  0  0  0  0  0  0  0  0
    5.0617   -5.9310   26.4486 C   0  0  0  0  0  0  0  0  0  0  0  0
    5.6945   -5.0591   25.5826 N   0  0  0  0  0  0  0  0  0  0  0  0
    6.7781   -4.1696   26.0056 C   0  0  0  0  0  0  0  0  0  0  0  0
    7.7605   -4.6399   25.8260 H   0  0  0  0  0  0  0  0  0  0  0  0
    6.6910   -3.9498   27.0770 H   0  0  0  0  0  0  0  0  0  0  0  0
    6.7334   -2.8394   25.2286 C   0  0  0  0  0  0  0  0  0  0  0  0
    5.8432   -2.2615   25.5419 H   0  0  0  0  0  0  0  0  0  0  0  0
    7.6190   -2.2498   25.4848 H   0  0  0  0  0  0  0  0  0  0  0  0
    6.7323   -3.0940   23.7880 N   0  0  0  0  0  0  0  0  0  0  0  0
    7.3738   -2.2091   22.8952 C   0  0  0  0  0  0  0  0  0  0  0  0
    8.7717   -1.9837   22.9730 C   0  0  0  0  0  0  0  0  0  0  0  0
    9.3583   -2.4906   23.7416 H   0  0  0  0  0  0  0  0  0  0  0  0
    9.4556   -1.2003   22.1279 N   0  0  0  0  0  0  0  0  0  0  0  0
    8.7737   -0.5810   21.1551 C   0  0  0  0  0  0  0  0  0  0  0  0
    9.3612    0.0629   20.4978 H   0  0  0  0  0  0  0  0  0  0  0  0
    7.3821   -0.7109   20.9784 C   0  0  0  0  0  0  0  0  0  0  0  0
    6.6599    0.0123   19.8926 C   0  0  0  0  0  0  0  0  0  0  0  0
    7.1622    0.0686   18.5779 C   0  0  0  0  0  0  0  0  0  0  0  0
    8.1046   -0.4236   18.3389 H   0  0  0  0  0  0  0  0  0  0  0  0
    6.5504    0.6808   17.5579 N   0  0  0  0  0  0  0  0  0  0  0  0
    5.3898    1.3027   17.8214 C   0  0  0  0  0  0  0  0  0  0  0  0
    4.9194    1.8041   16.9786 H   0  0  0  0  0  0  0  0  0  0  0  0
    4.7996    1.3189   19.0898 C   0  0  0  0  0  0  0  0  0  0  0  0
    3.8669    1.8491   19.2394 H   0  0  0  0  0  0  0  0  0  0  0  0
    5.4375    0.6554   20.1390 C   0  0  0  0  0  0  0  0  0  0  0  0
    5.0180    0.6418   21.1460 H   0  0  0  0  0  0  0  0  0  0  0  0
    6.6881   -1.5461   21.8661 C   0  0  0  0  0  0  0  0  0  0  0  0
    5.6145   -1.6966   21.7630 H   0  0  0  0  0  0  0  0  0  0  0  0
    5.6100   -3.9260   23.3709 C   0  0  0  0  0  0  0  0  0  0  0  0
    5.7047   -4.1251   22.2975 H   0  0  0  0  0  0  0  0  0  0  0  0
    4.6351   -3.4362   23.5496 H   0  0  0  0  0  0  0  0  0  0  0  0
    5.6438   -5.2662   24.1295 C   0  0  0  0  0  0  0  0  0  0  0  0
    4.7592   -5.8544   23.8708 H   0  0  0  0  0  0  0  0  0  0  0  0
    6.5415   -5.8182   23.7988 H   0  0  0  0  0  0  0  0  0  0  0  0
    5.6963   -6.3998   27.6222 C   0  0  0  0  0  0  0  0  0  0  0  0
    6.7261   -6.1150   27.7831 H   0  0  0  0  0  0  0  0  0  0  0  0
    4.9907   -7.2347   28.4842 C   0  0  0  0  0  0  0  0  0  0  0  0
    5.4592   -7.6324   29.3893 H   0  0  0  0  0  0  0  0  0  0  0  0
    3.6669   -7.5511   28.1538 C   0  0  0  0  0  0  0  0  0  0  0  0
    3.0546   -8.1995   28.7685 H   0  0  0  0  0  0  0  0  0  0  0  0
  1  2  1  0
  2  3  2  0
  3  4  1  0
  4  5  1  0
  5  6  1  0
  6  7  1  0
  6  8  1  0
  6  9  1  0
  9 10  1  0
  9 11  1  0
  9 12  1  0
 12 13  1  0
 13 14  2  0
 14 15  1  0
 14 16  1  0
 16 17  2  0
 17 18  1  0
 17 19  1  0
 19 20  1  0
 20 21  2  0
 21 22  1  0
 21 23  1  0
 23 24  2  0
 24 25  1  0
 24 26  1  0
 26 27  1  0
 26 28  2  0
 28 29  1  0
 19 30  2  0
 30 31  1  0
 12 32  1  0
 32 33  1  0
 32 34  1  0
 32 35  1  0
 35 36  1  0
 35 37  1  0
  4 38  2  0
 38 39  1  0
 38 40  1  0
 40 41  1  0
 40 42  2  0
 42 43  1  0
 42  2  1  0
 35  5  1  0
 30 13  1  0
 28 20  1  0
M  END
>  <cnnaffinity>  (1) 
-5.29022

>  <filename>  (1) 
c1ccc(N2CCN(c3cncc(-c4cccnc4)c3)CC2)nc1

$$$$
