
     RDKit          3D

 45 49  0  0  0  0  0  0  0  0999 V2000
    4.9098    1.8364   16.9514 H   0  0  0  0  0  0  0  0  0  0  0  0
    5.4026    1.3243   17.7761 C   0  0  0  0  0  0  0  0  0  0  0  0
    6.5606    0.7087   17.4894 N   0  0  0  0  0  0  0  0  0  0  0  0
    7.1809    0.0918   18.5031 C   0  0  0  0  0  0  0  0  0  0  0  0
    8.1147   -0.4076   18.2473 H   0  0  0  0  0  0  0  0  0  0  0  0
    6.7120    0.0435   19.8303 C   0  0  0  0  0  0  0  0  0  0  0  0
    7.4701   -0.6673   20.9326 C   0  0  1  0  0  0  0  0  0  0  0  0
    8.4026   -1.0508   20.5067 H   0  0  0  0  0  0  0  0  0  0  0  0
    7.8557    0.2722   22.1302 C   0  0  0  0  0  0  0  0  0  0  0  0
    8.9398    0.4108   22.1838 H   0  0  0  0  0  0  0  0  0  0  0  0
    7.4052    1.2693   22.0484 H   0  0  0  0  0  0  0  0  0  0  0  0
    7.3396   -0.4678   23.3227 C   0  0  0  0  0  0  0  0  0  0  0  0
    7.3097   -0.2121   24.6170 N   0  0  0  0  0  0  0  0  0  0  0  0
    6.6691   -1.2943   25.1259 N   0  0  0  0  0  0  0  0  0  0  0  0
    6.4488   -1.3094   26.1159 H   0  0  0  0  0  0  0  0  0  0  0  0
    6.2871   -2.2065   24.1825 C   0  0  0  0  0  0  0  0  0  0  0  0
    5.6284   -3.5057   24.4293 C   0  0  0  0  0  0  0  0  0  0  0  0
    4.7009   -4.0119   23.5000 C   0  0  0  0  0  0  0  0  0  0  0  0
    4.3674   -3.3821   22.6814 H   0  0  0  0  0  0  0  0  0  0  0  0
    4.1952   -5.3071   23.6343 C   0  0  0  0  0  0  0  0  0  0  0  0
    3.4901   -5.6961   22.9034 H   0  0  0  0  0  0  0  0  0  0  0  0
    4.5997   -6.1088   24.7051 C   0  0  0  0  0  0  0  0  0  0  0  0
    4.2295   -7.1282   24.7867 H   0  0  0  0  0  0  0  0  0  0  0  0
    5.4909   -5.6041   25.6727 C   0  0  0  0  0  0  0  0  0  0  0  0
    5.9116   -6.3974   26.8587 C   0  0  0  0  0  0  0  0  0  0  0  0
    5.0116   -7.2413   27.5244 C   0  0  0  0  0  0  0  0  0  0  0  0
    3.9816   -7.2997   27.1832 H   0  0  0  0  0  0  0  0  0  0  0  0
    5.3939   -7.9416   28.6677 C   0  0  0  0  0  0  0  0  0  0  0  0
    4.6759   -8.6004   29.1423 H   0  0  0  0  0  0  0  0  0  0  0  0
    6.6851   -7.7919   29.1875 C   0  0  0  0  0  0  0  0  0  0  0  0
    6.9751   -8.3390   30.0796 H   0  0  0  0  0  0  0  0  0  0  0  0
    7.5902   -6.9408   28.5397 C   0  0  0  0  0  0  0  0  0  0  0  0
    8.5980   -6.7847   28.9085 H   0  0  0  0  0  0  0  0  0  0  0  0
    7.2163   -6.2726   27.3749 C   0  0  0  0  0  0  0  0  0  0  0  0
    7.9497   -5.6606   26.8543 H   0  0  0  0  0  0  0  0  0  0  0  0
    5.9856   -4.3027   25.5197 C   0  0  0  0  0  0  0  0  0  0  0  0
    6.6740   -3.9153   26.2676 H   0  0  0  0  0  0  0  0  0  0  0  0
    6.7317   -1.6714   22.9912 C   0  0  0  0  0  0  0  0  0  0  0  0
    6.6808   -1.8922   21.5148 C   0  0  0  0  0  0  0  0  0  0  0  0
    5.6452   -1.9172   21.1423 H   0  0  0  0  0  0  0  0  0  0  0  0
    7.1402   -2.8391   21.2063 H   0  0  0  0  0  0  0  0  0  0  0  0
    5.4870    0.6758   20.0941 C   0  0  0  0  0  0  0  0  0  0  0  0
    5.0584    0.6658   21.1011 H   0  0  0  0  0  0  0  0  0  0  0  0
    4.8245    1.3242   19.0509 C   0  0  0  0  0  0  0  0  0  0  0  0
    3.8820    1.8369   19.2158 H   0  0  0  0  0  0  0  0  0  0  0  0
  1  2  1  0
  2  3  2  0
  3  4  1  0
  4  5  1  0
  4  6  2  0
  6  7  1  0
  7  8  1  6
  7  9  1  0
  9 10  1  0
  9 11  1  0
  9 12  1  0
 12 13  2  0
 13 14  1  0
 14 15  1  0
 14 16  1  0
 16 17  1  0
 17 18  2  0
 18 19  1  0
 18 20  1  0
 20 21  1  0
 20 22  2  0
 22 23  1  0
 22 24  1  0
 24 25  1  0
 25 26  2  0
 26 27  1  0
 26 28  1  0
 28 29  1  0
 28 30  2  0
 30 31  1  0
 30 32  1  0
 32 33  1  0
 32 34  2  0
 34 35  1  0
 24 36  2  0
 36 37  1  0
 16 38  2  0
 38 39  1  0
 39 40  1  0
 39 41  1  0
  6 42  1  0
 42 43  1  0
 42 44  2  0
 44 45  1  0
 44  2  1  0
 39  7  1  0
 38 12  1  0
 36 17  1  0
 34 25  1  0
M  END
>  <cnnaffinity>  (1) 
-5.95324

>  <filename>  (1) 
c1ccc(-c2cccc(-c3[nH]nc4c3C[C@@H](c3cccnc3)C4)c2)cc1

$$$$
