
     RDKit          3D

 41 44  0  0  0  0  0  0  0  0999 V2000
    4.9477    1.8538   16.9363 H   0  0  0  0  0  0  0  0  0  0  0  0
    5.3831    1.3108   17.7720 C   0  0  0  0  0  0  0  0  0  0  0  0
    6.5239    0.6522   17.5157 N   0  0  0  0  0  0  0  0  0  0  0  0
    7.1136    0.0231   18.5371 C   0  0  0  0  0  0  0  0  0  0  0  0
    8.0264   -0.5191   18.3002 H   0  0  0  0  0  0  0  0  0  0  0  0
    6.6225    0.0439   19.8561 C   0  0  0  0  0  0  0  0  0  0  0  0
    7.4033   -0.5583   20.9385 C   0  0  0  0  0  0  0  0  0  0  0  0
    7.9728   -1.7485   20.7674 N   0  0  0  0  0  0  0  0  0  0  0  0
    8.6054   -1.9491   21.9226 N   0  0  0  0  0  0  0  0  0  0  0  0
    8.5291   -0.9437   22.7999 C   0  0  0  0  0  0  0  0  0  0  0  0
    7.7068    0.0094   22.2206 C   0  0  0  0  0  0  0  0  0  0  0  0
    7.2451    1.2981   22.8640 C   0  0  0  0  0  0  0  0  0  0  0  0
    8.0887    1.7686   23.3924 H   0  0  0  0  0  0  0  0  0  0  0  0
    6.9609    2.0084   22.0805 H   0  0  0  0  0  0  0  0  0  0  0  0
    6.0839    1.1474   23.8823 C   0  0  0  0  0  0  0  0  0  0  0  0
    5.7973    2.1511   24.2267 H   0  0  0  0  0  0  0  0  0  0  0  0
    5.1960    0.7605   23.3669 H   0  0  0  0  0  0  0  0  0  0  0  0
    6.4410    0.2825   25.0791 C   0  0  0  0  0  0  0  0  0  0  0  0
    6.0337   -1.0622   25.2009 C   0  0  0  0  0  0  0  0  0  0  0  0
    5.4163   -1.5322   24.4430 H   0  0  0  0  0  0  0  0  0  0  0  0
    6.4698   -1.8579   26.2634 C   0  0  0  0  0  0  0  0  0  0  0  0
    6.1057   -2.8817   26.3530 H   0  0  0  0  0  0  0  0  0  0  0  0
    7.3643   -1.3374   27.2044 C   0  0  0  0  0  0  0  0  0  0  0  0
    7.8114   -1.9829   27.9509 H   0  0  0  0  0  0  0  0  0  0  0  0
    7.7351    0.0119   27.1333 C   0  0  0  0  0  0  0  0  0  0  0  0
    8.3729    0.4438   27.9025 H   0  0  0  0  0  0  0  0  0  0  0  0
    7.2919    0.8055   26.0729 C   0  0  0  0  0  0  0  0  0  0  0  0
    7.6388    1.8377   25.9922 H   0  0  0  0  0  0  0  0  0  0  0  0
    9.4465   -1.2204   23.9604 C   0  0  0  0  0  0  0  0  0  0  0  0
    8.8683   -1.4108   24.8687 H   0  0  0  0  0  0  0  0  0  0  0  0
   10.1184   -0.3798   24.1540 H   0  0  0  0  0  0  0  0  0  0  0  0
   10.2478   -2.4720   23.5006 C   0  0  0  0  0  0  0  0  0  0  0  0
   10.2808   -3.2405   24.2769 H   0  0  0  0  0  0  0  0  0  0  0  0
   11.2724   -2.1998   23.2463 H   0  0  0  0  0  0  0  0  0  0  0  0
    9.5682   -2.9752   22.2018 C   0  0  0  0  0  0  0  0  0  0  0  0
   10.2649   -2.9575   21.3661 H   0  0  0  0  0  0  0  0  0  0  0  0
    9.0803   -3.9508   22.2796 H   0  0  0  0  0  0  0  0  0  0  0  0
    5.3953    0.6758   20.0900 C   0  0  0  0  0  0  0  0  0  0  0  0
    4.9323    0.6495   21.0784 H   0  0  0  0  0  0  0  0  0  0  0  0
    4.7679    1.3229   19.0276 C   0  0  0  0  0  0  0  0  0  0  0  0
    3.8348    1.8531   19.1622 H   0  0  0  0  0  0  0  0  0  0  0  0
  1  2  1  0
  2  3  2  0
  3  4  1  0
  4  5  1  0
  4  6  2  0
  6  7  1  0
  7  8  2  0
  8  9  1  0
  9 10  1  0
 10 11  2  0
 11 12  1  0
 12 13  1  0
 12 14  1  0
 12 15  1  0
 15 16  1  0
 15 17  1  0
 15 18  1  0
 18 19  2  0
 19 20  1  0
 19 21  1  0
 21 22  1  0
 21 23  2  0
 23 24  1  0
 23 25  1  0
 25 26  1  0
 25 27  2  0
 27 28  1  0
 10 29  1  0
 29 30  1  0
 29 31  1  0
 29 32  1  0
 32 33  1  0
 32 34  1  0
 32 35  1  0
 35 36  1  0
 35 37  1  0
  6 38  1  0
 38 39  1  0
 38 40  2  0
 40 41  1  0
 40  2  1  0
 11  7  1  0
 27 18  1  0
 35  9  1  0
M  END
>  <cnnaffinity>  (1) 
-5.66086

>  <filename>  (1) 
c1ccc(CCc2c(-c3cccnc3)nn3c2CCC3)cc1

$$$$
