
     RDKit          3D

 43 47  0  0  0  0  0  0  0  0999 V2000
    6.7412    5.5489   30.9612 H   0  0  0  0  0  0  0  0  0  0  0  0
    5.9937    5.2151   30.2429 C   0  0  0  0  0  0  0  0  0  0  0  0
    6.4486    4.4101   29.2759 N   0  0  0  0  0  0  0  0  0  0  0  0
    5.5659    4.0081   28.3544 C   0  0  0  0  0  0  0  0  0  0  0  0
    6.0151    3.1625   27.3459 N   0  0  0  0  0  0  0  0  0  0  0  0
    7.1940    2.3092   27.5248 C   0  0  0  0  0  0  0  0  0  0  0  0
    8.1128    2.8228   27.1883 H   0  0  0  0  0  0  0  0  0  0  0  0
    7.3171    2.0574   28.5827 H   0  0  0  0  0  0  0  0  0  0  0  0
    7.0410    0.9937   26.7407 C   0  0  0  0  0  0  0  0  0  0  0  0
    7.9780    0.4326   26.8272 H   0  0  0  0  0  0  0  0  0  0  0  0
    6.2339    0.3917   27.1918 H   0  0  0  0  0  0  0  0  0  0  0  0
    6.7344    1.2454   25.3267 N   0  0  0  0  0  0  0  0  0  0  0  0
    7.1170    0.3983   24.3356 C   0  0  0  0  0  0  0  0  0  0  0  0
    6.7122    0.5500   23.1056 N   0  0  0  0  0  0  0  0  0  0  0  0
    7.3171   -0.4048   22.3522 N   0  0  0  0  0  0  0  0  0  0  0  0
    7.4126   -0.6519   20.9863 C   0  0  0  0  0  0  0  0  0  0  0  0
    6.6625    0.0349   19.9157 C   0  0  0  0  0  0  0  0  0  0  0  0
    7.1524    0.0778   18.5874 C   0  0  0  0  0  0  0  0  0  0  0  0
    8.1021   -0.3912   18.3362 H   0  0  0  0  0  0  0  0  0  0  0  0
    6.5400    0.6825   17.5643 N   0  0  0  0  0  0  0  0  0  0  0  0
    5.3776    1.3037   17.8197 C   0  0  0  0  0  0  0  0  0  0  0  0
    4.9149    1.8119   16.9731 H   0  0  0  0  0  0  0  0  0  0  0  0
    4.7851    1.3164   19.0866 C   0  0  0  0  0  0  0  0  0  0  0  0
    3.8513    1.8506   19.2263 H   0  0  0  0  0  0  0  0  0  0  0  0
    5.4298    0.6724   20.1474 C   0  0  0  0  0  0  0  0  0  0  0  0
    5.0144    0.6625   21.1536 H   0  0  0  0  0  0  0  0  0  0  0  0
    8.3306   -1.6774   20.9322 C   0  0  0  0  0  0  0  0  0  0  0  0
    8.7385   -2.1058   20.0336 H   0  0  0  0  0  0  0  0  0  0  0  0
    8.7776   -2.0877   22.1563 N   0  0  0  0  0  0  0  0  0  0  0  0
    8.1564   -1.2761   22.9708 C   0  0  0  0  0  0  0  0  0  0  0  0
    8.2336   -0.9416   24.6649 S   0  0  0  0  0  0  0  0  0  0  0  0
    5.5799    2.1357   25.1247 C   0  0  0  0  0  0  0  0  0  0  0  0
    5.4888    2.3779   24.0620 H   0  0  0  0  0  0  0  0  0  0  0  0
    4.6551    1.6276   25.4481 H   0  0  0  0  0  0  0  0  0  0  0  0
    5.7563    3.4405   25.9266 C   0  0  0  0  0  0  0  0  0  0  0  0
    6.5980    4.0032   25.4819 H   0  0  0  0  0  0  0  0  0  0  0  0
    4.8520    4.0476   25.8078 H   0  0  0  0  0  0  0  0  0  0  0  0
    4.2006    4.3624   28.3914 C   0  0  0  0  0  0  0  0  0  0  0  0
    3.5688    3.9353   27.6237 H   0  0  0  0  0  0  0  0  0  0  0  0
    3.7344    5.1637   29.4290 C   0  0  0  0  0  0  0  0  0  0  0  0
    2.6762    5.4284   29.5003 H   0  0  0  0  0  0  0  0  0  0  0  0
    4.6640    5.6147   30.3788 C   0  0  0  0  0  0  0  0  0  0  0  0
    4.3819    6.2474   31.2134 H   0  0  0  0  0  0  0  0  0  0  0  0
  1  2  1  0
  2  3  2  0
  3  4  1  0
  4  5  1  0
  5  6  1  0
  6  7  1  0
  6  8  1  0
  6  9  1  0
  9 10  1  0
  9 11  1  0
  9 12  1  0
 12 13  1  0
 13 14  2  0
 14 15  1  0
 15 16  1  0
 16 17  1  0
 17 18  2  0
 18 19  1  0
 18 20  1  0
 20 21  2  0
 21 22  1  0
 21 23  1  0
 23 24  1  0
 23 25  2  0
 25 26  1  0
 16 27  2  0
 27 28  1  0
 27 29  1  0
 29 30  2  0
 30 31  1  0
 12 32  1  0
 32 33  1  0
 32 34  1  0
 32 35  1  0
 35 36  1  0
 35 37  1  0
  4 38  2  0
 38 39  1  0
 38 40  1  0
 40 41  1  0
 40 42  2  0
 42 43  1  0
 42  2  1  0
 35  5  1  0
 31 13  1  0
 30 15  1  0
 25 17  1  0
M  END
>  <cnnaffinity>  (1) 
-5.26428

>  <filename>  (1) 
c1ccc(N2CCN(c3nn4c(-c5cccnc5)cnc4s3)CC2)nc1

$$$$
