
     RDKit          3D

 39 42  0  0  0  0  0  0  0  0999 V2000
    8.2754   -2.0292   19.8359 H   0  0  0  0  0  0  0  0  0  0  0  0
    8.1556   -1.7572   20.8588 C   0  0  0  0  0  0  0  0  0  0  0  0
    8.7577   -2.4611   21.8298 N   0  0  0  0  0  0  0  0  0  0  0  0
    8.6143   -1.9535   23.0678 C   0  0  0  0  0  0  0  0  0  0  0  0
    9.1073   -2.4970   23.8706 H   0  0  0  0  0  0  0  0  0  0  0  0
    7.8539   -0.7839   23.3207 C   0  0  0  0  0  0  0  0  0  0  0  0
    7.7004   -0.2232   24.6814 C   0  0  0  0  0  0  0  0  0  0  0  0
    8.6975   -0.3957   25.6513 C   0  0  0  0  0  0  0  0  0  0  0  0
    9.6129   -0.9421   25.4242 H   0  0  0  0  0  0  0  0  0  0  0  0
    8.5170    0.1499   26.9205 C   0  0  0  0  0  0  0  0  0  0  0  0
    9.2792    0.0044   27.6762 H   0  0  0  0  0  0  0  0  0  0  0  0
    7.3550    0.8636   27.2261 C   0  0  0  0  0  0  0  0  0  0  0  0
    7.2283    1.3036   28.2098 H   0  0  0  0  0  0  0  0  0  0  0  0
    6.3458    1.0472   26.2656 C   0  0  0  0  0  0  0  0  0  0  0  0
    5.1101    1.8280   26.5752 C   0  0  0  0  0  0  0  0  0  0  0  0
    4.4607    1.6768   27.8106 C   0  0  0  0  0  0  0  0  0  0  0  0
    4.8710    0.9724   28.5307 H   0  0  0  0  0  0  0  0  0  0  0  0
    3.3006    2.3991   28.1071 C   0  0  0  0  0  0  0  0  0  0  0  0
    2.8224    2.2666   29.0745 H   0  0  0  0  0  0  0  0  0  0  0  0
    2.7745    3.2938   27.1668 C   0  0  0  0  0  0  0  0  0  0  0  0
    1.8732    3.8589   27.3977 H   0  0  0  0  0  0  0  0  0  0  0  0
    3.4120    3.4589   25.9303 C   0  0  0  0  0  0  0  0  0  0  0  0
    3.0089    4.1450   25.1887 H   0  0  0  0  0  0  0  0  0  0  0  0
    4.5685    2.7275   25.6389 C   0  0  0  0  0  0  0  0  0  0  0  0
    5.0786    2.8488   24.6851 H   0  0  0  0  0  0  0  0  0  0  0  0
    6.5366    0.4905   24.9972 C   0  0  0  0  0  0  0  0  0  0  0  0
    5.7732    0.6078   24.2317 H   0  0  0  0  0  0  0  0  0  0  0  0
    7.1909   -0.1469   22.3255 N   0  0  0  0  0  0  0  0  0  0  0  0
    7.3617   -0.6186   21.0835 C   0  0  0  0  0  0  0  0  0  0  0  0
    6.6534    0.0440   19.9532 C   0  0  0  0  0  0  0  0  0  0  0  0
    7.1691    0.0610   18.6422 C   0  0  0  0  0  0  0  0  0  0  0  0
    8.1184   -0.4033   18.3785 H   0  0  0  0  0  0  0  0  0  0  0  0
    6.5690    0.6602   17.6092 N   0  0  0  0  0  0  0  0  0  0  0  0
    5.4040    1.2835   17.8404 C   0  0  0  0  0  0  0  0  0  0  0  0
    4.9458    1.7821   16.9863 H   0  0  0  0  0  0  0  0  0  0  0  0
    4.7953    1.3058   19.0968 C   0  0  0  0  0  0  0  0  0  0  0  0
    3.8682    1.8414   19.2372 H   0  0  0  0  0  0  0  0  0  0  0  0
    5.4225    0.6703   20.1656 C   0  0  0  0  0  0  0  0  0  0  0  0
    4.9913    0.6591   21.1663 H   0  0  0  0  0  0  0  0  0  0  0  0
  1  2  1  0
  2  3  2  0
  3  4  1  0
  4  5  1  0
  4  6  2  0
  6  7  1  0
  7  8  2  0
  8  9  1  0
  8 10  1  0
 10 11  1  0
 10 12  2  0
 12 13  1  0
 12 14  1  0
 14 15  1  0
 15 16  2  0
 16 17  1  0
 16 18  1  0
 18 19  1  0
 18 20  2  0
 20 21  1  0
 20 22  1  0
 22 23  1  0
 22 24  2  0
 24 25  1  0
 14 26  2  0
 26 27  1  0
  6 28  1  0
 28 29  2  0
 29 30  1  0
 30 31  2  0
 31 32  1  0
 31 33  1  0
 33 34  2  0
 34 35  1  0
 34 36  1  0
 36 37  1  0
 36 38  2  0
 38 39  1  0
 29  2  1  0
 38 30  1  0
 26  7  1  0
 24 15  1  0
M  END
>  <cnnaffinity>  (1) 
-5.32254

>  <filename>  (1) 
c1ccc(-c2cccc(-c3cncc(-c4cccnc4)n3)c2)cc1

$$$$
