
     RDKit          3D

 42 45  0  0  0  0  0  0  0  0999 V2000
    5.0536    1.7305   16.8343 H   0  0  0  0  0  0  0  0  0  0  0  0
    5.4643    1.2236   17.7072 C   0  0  0  0  0  0  0  0  0  0  0  0
    6.5741    0.4947   17.5011 N   0  0  0  0  0  0  0  0  0  0  0  0
    7.1130   -0.1302   18.5530 C   0  0  0  0  0  0  0  0  0  0  0  0
    8.0060   -0.7251   18.3557 H   0  0  0  0  0  0  0  0  0  0  0  0
    6.6053   -0.0320   19.8557 C   0  0  0  0  0  0  0  0  0  0  0  0
    7.3309   -0.6529   20.9569 C   0  0  0  0  0  0  0  0  0  0  0  0
    7.7333   -1.9658   20.9010 N   0  0  0  0  0  0  0  0  0  0  0  0
    8.3107   -2.1578   22.0506 C   0  0  0  0  0  0  0  0  0  0  0  0
    8.3715   -1.0473   22.8301 N   0  0  0  0  0  0  0  0  0  0  0  0
    7.7244   -0.0455   22.1423 C   0  0  0  0  0  0  0  0  0  0  0  0
    7.3122    1.2400   22.7740 C   0  0  0  0  0  0  0  0  0  0  0  0
    8.1464    1.6612   23.3557 H   0  0  0  0  0  0  0  0  0  0  0  0
    7.0842    1.9754   21.9885 H   0  0  0  0  0  0  0  0  0  0  0  0
    6.0868    1.0184   23.6870 C   0  0  0  0  0  0  0  0  0  0  0  0
    6.3629    0.2841   24.4582 H   0  0  0  0  0  0  0  0  0  0  0  0
    5.2964    0.5508   23.0932 H   0  0  0  0  0  0  0  0  0  0  0  0
    5.5087    2.2791   24.3469 C   0  0  0  0  0  0  0  0  0  0  0  0
    5.0482    2.9284   23.5892 H   0  0  0  0  0  0  0  0  0  0  0  0
    4.6976    1.9812   25.0242 H   0  0  0  0  0  0  0  0  0  0  0  0
    6.5566    3.0469   25.1136 C   0  0  0  0  0  0  0  0  0  0  0  0
    7.3008    4.0706   24.5028 C   0  0  0  0  0  0  0  0  0  0  0  0
    7.0832    4.3231   23.4638 H   0  0  0  0  0  0  0  0  0  0  0  0
    8.3529    4.6980   25.1773 C   0  0  0  0  0  0  0  0  0  0  0  0
    8.9021    5.4996   24.6870 H   0  0  0  0  0  0  0  0  0  0  0  0
    8.6929    4.2851   26.4706 C   0  0  0  0  0  0  0  0  0  0  0  0
    9.5372    4.7400   26.9849 H   0  0  0  0  0  0  0  0  0  0  0  0
    7.9474    3.2725   27.0881 C   0  0  0  0  0  0  0  0  0  0  0  0
    8.1777    2.9499   28.0966 H   0  0  0  0  0  0  0  0  0  0  0  0
    6.8925    2.6556   26.4159 C   0  0  0  0  0  0  0  0  0  0  0  0
    6.3370    1.8467   26.8948 H   0  0  0  0  0  0  0  0  0  0  0  0
    8.9498   -1.2295   24.1485 C   0  0  0  0  0  0  0  0  0  0  0  0
    8.1708   -1.5082   24.8676 H   0  0  0  0  0  0  0  0  0  0  0  0
    9.4342   -0.3074   24.4866 H   0  0  0  0  0  0  0  0  0  0  0  0
    9.9297   -2.4026   23.9547 C   0  0  0  0  0  0  0  0  0  0  0  0
   10.1481   -2.9486   24.8717 H   0  0  0  0  0  0  0  0  0  0  0  0
   10.8703   -2.0482   23.5262 H   0  0  0  0  0  0  0  0  0  0  0  0
    9.1099   -3.5389   22.7674 S   0  0  0  0  0  0  0  0  0  0  0  0
    5.4245    0.6986   20.0478 C   0  0  0  0  0  0  0  0  0  0  0  0
    4.9735    0.7665   21.0395 H   0  0  0  0  0  0  0  0  0  0  0  0
    4.8422    1.3335   18.9556 C   0  0  0  0  0  0  0  0  0  0  0  0
    3.9381    1.9189   19.0641 H   0  0  0  0  0  0  0  0  0  0  0  0
  1  2  1  0
  2  3  2  0
  3  4  1  0
  4  5  1  0
  4  6  2  0
  6  7  1  0
  7  8  1  0
  8  9  2  0
  9 10  1  0
 10 11  1  0
 11 12  1  0
 12 13  1  0
 12 14  1  0
 12 15  1  0
 15 16  1  0
 15 17  1  0
 15 18  1  0
 18 19  1  0
 18 20  1  0
 18 21  1  0
 21 22  2  0
 22 23  1  0
 22 24  1  0
 24 25  1  0
 24 26  2  0
 26 27  1  0
 26 28  1  0
 28 29  1  0
 28 30  2  0
 30 31  1  0
 10 32  1  0
 32 33  1  0
 32 34  1  0
 32 35  1  0
 35 36  1  0
 35 37  1  0
 35 38  1  0
  6 39  1  0
 39 40  1  0
 39 41  2  0
 41 42  1  0
 41  2  1  0
 11  7  2  0
 30 21  1  0
 38  9  1  0
M  END
>  <cnnaffinity>  (1) 
-5.38204

>  <filename>  (1) 
c1ccc(CCCc2c(-c3cccnc3)nc3n2CCS3)cc1

$$$$
