
     RDKit          3D

 30 32  0  0  0  0  0  0  0  0999 V2000
    6.8802   -5.1251   27.5376 H   0  0  0  0  0  0  0  0  0  0  0  0
    7.2409   -5.0775   26.5123 C   0  0  0  0  0  0  0  0  0  0  0  0
    6.7923   -4.0461   25.7917 N   0  0  0  0  0  0  0  0  0  0  0  0
    7.2666   -3.9582   24.5497 C   0  0  0  0  0  0  0  0  0  0  0  0
    6.8119   -2.8380   23.9065 N   0  0  0  0  0  0  0  0  0  0  0  0
    6.1772   -2.3979   24.5603 H   0  0  0  0  0  0  0  0  0  0  0  0
    7.4991   -2.0817   22.9514 C   0  0  0  0  0  0  0  0  0  0  0  0
    8.9102   -1.9316   22.8492 C   0  0  0  0  0  0  0  0  0  0  0  0
    9.5836   -2.3735   23.5728 H   0  0  0  0  0  0  0  0  0  0  0  0
    9.4914   -1.2536   21.8568 N   0  0  0  0  0  0  0  0  0  0  0  0
    8.7503   -0.6784   20.9104 N   0  0  0  0  0  0  0  0  0  0  0  0
    7.4060   -0.7335   20.9798 C   0  0  0  0  0  0  0  0  0  0  0  0
    6.6559   -0.0137   19.9269 C   0  0  0  0  0  0  0  0  0  0  0  0
    7.1915    0.0307   18.6326 C   0  0  0  0  0  0  0  0  0  0  0  0
    8.1442   -0.4542   18.4350 H   0  0  0  0  0  0  0  0  0  0  0  0
    6.5939    0.6397   17.6053 N   0  0  0  0  0  0  0  0  0  0  0  0
    5.4350    1.2701   17.8470 C   0  0  0  0  0  0  0  0  0  0  0  0
    4.9783    1.7765   16.9990 H   0  0  0  0  0  0  0  0  0  0  0  0
    4.8244    1.2978   19.1049 C   0  0  0  0  0  0  0  0  0  0  0  0
    3.8952    1.8363   19.2352 H   0  0  0  0  0  0  0  0  0  0  0  0
    5.4408    0.6408   20.1696 C   0  0  0  0  0  0  0  0  0  0  0  0
    5.0049    0.6721   21.1694 H   0  0  0  0  0  0  0  0  0  0  0  0
    6.7493   -1.4463   21.9860 C   0  0  0  0  0  0  0  0  0  0  0  0
    5.6790   -1.5988   21.9843 H   0  0  0  0  0  0  0  0  0  0  0  0
    8.1107   -4.8967   23.9418 C   0  0  0  0  0  0  0  0  0  0  0  0
    8.3863   -4.7481   22.9095 H   0  0  0  0  0  0  0  0  0  0  0  0
    8.5531   -5.9651   24.7083 C   0  0  0  0  0  0  0  0  0  0  0  0
    9.2233   -6.7089   24.2797 H   0  0  0  0  0  0  0  0  0  0  0  0
    8.1175   -6.0503   26.0329 C   0  0  0  0  0  0  0  0  0  0  0  0
    8.4485   -6.8425   26.6889 H   0  0  0  0  0  0  0  0  0  0  0  0
  1  2  1  0
  2  3  2  0
  3  4  1  0
  4  5  1  0
  5  6  1  0
  5  7  1  0
  7  8  2  0
  8  9  1  0
  8 10  1  0
 10 11  2  0
 11 12  1  0
 12 13  1  0
 13 14  2  0
 14 15  1  0
 14 16  1  0
 16 17  2  0
 17 18  1  0
 17 19  1  0
 19 20  1  0
 19 21  2  0
 21 22  1  0
 12 23  2  0
 23 24  1  0
  4 25  2  0
 25 26  1  0
 25 27  1  0
 27 28  1  0
 27 29  2  0
 29 30  1  0
 29  2  1  0
 23  7  1  0
 21 13  1  0
M  END
>  <cnnaffinity>  (1) 
-5.18674

>  <filename>  (1) 
c1ccc(Nc2cnnc(-c3cccnc3)c2)nc1

$$$$
