
     RDKit          3D

 41 44  0  0  0  0  0  0  0  0999 V2000
    5.2059    1.9525   16.9900 H   0  0  0  0  0  0  0  0  0  0  0  0
    5.6862    1.3662   17.7721 C   0  0  0  0  0  0  0  0  0  0  0  0
    6.8263    0.7410   17.4368 N   0  0  0  0  0  0  0  0  0  0  0  0
    7.4637    0.0313   18.3757 C   0  0  0  0  0  0  0  0  0  0  0  0
    8.3714   -0.4783   18.0546 H   0  0  0  0  0  0  0  0  0  0  0  0
    6.9857   -0.1106   19.6881 C   0  0  0  0  0  0  0  0  0  0  0  0
    7.6700   -0.9110   20.6294 N   0  0  0  0  0  0  0  0  0  0  0  0
    9.0017   -0.8186   21.0407 C   0  0  0  0  0  0  0  0  0  0  0  0
    9.6351   -0.0548   20.6278 H   0  0  0  0  0  0  0  0  0  0  0  0
    9.2327   -1.7258   22.0267 C   0  0  0  0  0  0  0  0  0  0  0  0
   10.0803   -1.9629   22.6445 H   0  0  0  0  0  0  0  0  0  0  0  0
    8.0258   -2.3610   22.2309 N   0  0  0  0  0  0  0  0  0  0  0  0
    7.5885   -3.3065   23.0866 N   0  0  0  0  0  0  0  0  0  0  0  0
    6.2839   -3.3672   22.8184 C   0  0  0  0  0  0  0  0  0  0  0  0
    5.4003   -4.3588   23.5098 C   0  0  0  0  0  0  0  0  0  0  0  0
    4.5065   -3.8396   23.8851 H   0  0  0  0  0  0  0  0  0  0  0  0
    5.9381   -4.7593   24.3777 H   0  0  0  0  0  0  0  0  0  0  0  0
    4.9677   -5.5040   22.5725 C   0  0  0  0  0  0  0  0  0  0  0  0
    4.5917   -5.0744   21.6337 H   0  0  0  0  0  0  0  0  0  0  0  0
    5.8599   -6.0878   22.3023 H   0  0  0  0  0  0  0  0  0  0  0  0
    3.9254   -6.4747   23.1659 C   0  0  0  0  0  0  0  0  0  0  0  0
    4.2384   -6.7441   24.1857 H   0  0  0  0  0  0  0  0  0  0  0  0
    3.9619   -7.3950   22.5773 H   0  0  0  0  0  0  0  0  0  0  0  0
    2.4772   -6.0047   23.1754 C   0  0  0  0  0  0  0  0  0  0  0  0
    1.6474   -6.2681   22.0733 C   0  0  0  0  0  0  0  0  0  0  0  0
    2.0491   -6.8125   21.2245 H   0  0  0  0  0  0  0  0  0  0  0  0
    0.3078   -5.8681   22.0537 C   0  0  0  0  0  0  0  0  0  0  0  0
   -0.2954   -6.0470   21.1685 H   0  0  0  0  0  0  0  0  0  0  0  0
   -0.2371   -5.2078   23.1616 C   0  0  0  0  0  0  0  0  0  0  0  0
   -1.2848   -4.9200   23.1641 H   0  0  0  0  0  0  0  0  0  0  0  0
    0.5759   -4.9243   24.2647 C   0  0  0  0  0  0  0  0  0  0  0  0
    0.1664   -4.3822   25.1164 H   0  0  0  0  0  0  0  0  0  0  0  0
    1.9183   -5.3254   24.2697 C   0  0  0  0  0  0  0  0  0  0  0  0
    2.5398   -5.1216   25.1412 H   0  0  0  0  0  0  0  0  0  0  0  0
    5.8871   -2.4933   21.7828 C   0  0  0  0  0  0  0  0  0  0  0  0
    4.8821   -2.2981   21.4814 H   0  0  0  0  0  0  0  0  0  0  0  0
    7.0725   -1.8754   21.4144 C   0  0  0  0  0  0  0  0  0  0  0  0
    5.7807    0.5264   20.0266 C   0  0  0  0  0  0  0  0  0  0  0  0
    5.3753    0.4035   21.0303 H   0  0  0  0  0  0  0  0  0  0  0  0
    5.1365    1.2984   19.0568 C   0  0  0  0  0  0  0  0  0  0  0  0
    4.2413    1.8663   19.2888 H   0  0  0  0  0  0  0  0  0  0  0  0
  1  2  1  0
  2  3  2  0
  3  4  1  0
  4  5  1  0
  4  6  2  0
  6  7  1  0
  7  8  1  0
  8  9  1  0
  8 10  2  0
 10 11  1  0
 10 12  1  0
 12 13  1  0
 13 14  2  0
 14 15  1  0
 15 16  1  0
 15 17  1  0
 15 18  1  0
 18 19  1  0
 18 20  1  0
 18 21  1  0
 21 22  1  0
 21 23  1  0
 21 24  1  0
 24 25  2  0
 25 26  1  0
 25 27  1  0
 27 28  1  0
 27 29  2  0
 29 30  1  0
 29 31  1  0
 31 32  1  0
 31 33  2  0
 33 34  1  0
 14 35  1  0
 35 36  1  0
 35 37  2  0
  6 38  1  0
 38 39  1  0
 38 40  2  0
 40 41  1  0
 40  2  1  0
 37  7  1  0
 37 12  1  0
 33 24  1  0
M  END
>  <cnnaffinity>  (1) 
-5.60839

>  <filename>  (1) 
c1ccc(CCCc2cc3n(-c4cccnc4)ccn3n2)cc1

$$$$
