
     RDKit          3D

 45 49  0  0  0  0  0  0  0  0999 V2000
    8.2507    2.5454   30.8053 H   0  0  0  0  0  0  0  0  0  0  0  0
    7.4252    2.5081   30.0987 C   0  0  0  0  0  0  0  0  0  0  0  0
    7.7405    2.0151   28.9026 N   0  0  0  0  0  0  0  0  0  0  0  0
    6.7494    1.8556   28.0140 C   0  0  0  0  0  0  0  0  0  0  0  0
    7.0944    1.2662   26.8058 N   0  0  0  0  0  0  0  0  0  0  0  0
    8.4303    1.4231   26.2275 C   0  0  0  0  0  0  0  0  0  0  0  0
    8.3453    1.8207   25.2026 H   0  0  0  0  0  0  0  0  0  0  0  0
    8.9986    2.1310   26.8324 H   0  0  0  0  0  0  0  0  0  0  0  0
    9.2094    0.0884   26.1776 C   0  0  0  0  0  0  0  0  0  0  0  0
    9.4177   -0.2258   27.2118 H   0  0  0  0  0  0  0  0  0  0  0  0
   10.1648    0.2536   25.6657 H   0  0  0  0  0  0  0  0  0  0  0  0
    8.4794   -1.0110   25.5153 N   0  0  0  0  0  0  0  0  0  0  0  0
    8.7721   -1.2683   24.1891 N   0  0  0  0  0  0  0  0  0  0  0  0
    9.8531   -2.0671   23.8452 C   0  0  0  0  0  0  0  0  0  0  0  0
   10.4118   -2.5281   24.6395 H   0  0  0  0  0  0  0  0  0  0  0  0
    9.9609   -2.1214   22.5004 C   0  0  0  0  0  0  0  0  0  0  0  0
   10.6547   -2.5756   21.8185 H   0  0  0  0  0  0  0  0  0  0  0  0
    8.9016   -1.3811   22.0191 N   0  0  0  0  0  0  0  0  0  0  0  0
    8.4697   -1.1227   20.7804 N   0  0  0  0  0  0  0  0  0  0  0  0
    7.3494   -0.4220   20.9911 C   0  0  0  0  0  0  0  0  0  0  0  0
    6.6027    0.0612   19.8186 C   0  0  0  0  0  0  0  0  0  0  0  0
    7.1777   -0.0428   18.5348 C   0  0  0  0  0  0  0  0  0  0  0  0
    8.1067   -0.5910   18.3851 H   0  0  0  0  0  0  0  0  0  0  0  0
    6.6485    0.5092   17.4371 N   0  0  0  0  0  0  0  0  0  0  0  0
    5.4929    1.1787   17.5787 C   0  0  0  0  0  0  0  0  0  0  0  0
    5.0948    1.6506   16.6819 H   0  0  0  0  0  0  0  0  0  0  0  0
    4.8016    1.2776   18.7923 C   0  0  0  0  0  0  0  0  0  0  0  0
    3.8554    1.8083   18.8385 H   0  0  0  0  0  0  0  0  0  0  0  0
    5.3575    0.6969   19.9317 C   0  0  0  0  0  0  0  0  0  0  0  0
    4.8462    0.7306   20.8973 H   0  0  0  0  0  0  0  0  0  0  0  0
    7.0775   -0.2252   22.3717 C   0  0  0  0  0  0  0  0  0  0  0  0
    6.2310    0.2700   22.8085 H   0  0  0  0  0  0  0  0  0  0  0  0
    8.1424   -0.8698   23.0124 C   0  0  0  0  0  0  0  0  0  0  0  0
    7.0827   -1.1337   25.9715 C   0  0  0  0  0  0  0  0  0  0  0  0
    7.1064   -1.6443   26.9473 H   0  0  0  0  0  0  0  0  0  0  0  0
    6.5187   -1.7659   25.2726 H   0  0  0  0  0  0  0  0  0  0  0  0
    6.3084    0.2202   26.1505 C   0  0  0  0  0  0  0  0  0  0  0  0
    5.4106    0.0042   26.7409 H   0  0  0  0  0  0  0  0  0  0  0  0
    5.9681    0.5754   25.1649 H   0  0  0  0  0  0  0  0  0  0  0  0
    5.4243    2.2855   28.2689 C   0  0  0  0  0  0  0  0  0  0  0  0
    4.6755    2.1762   27.4910 H   0  0  0  0  0  0  0  0  0  0  0  0
    5.1359    2.8703   29.4979 C   0  0  0  0  0  0  0  0  0  0  0  0
    4.1307    3.2275   29.7268 H   0  0  0  0  0  0  0  0  0  0  0  0
    6.1625    2.9803   30.4474 C   0  0  0  0  0  0  0  0  0  0  0  0
    5.9999    3.4108   31.4277 H   0  0  0  0  0  0  0  0  0  0  0  0
  1  2  1  0
  2  3  2  0
  3  4  1  0
  4  5  1  0
  5  6  1  0
  6  7  1  0
  6  8  1  0
  6  9  1  0
  9 10  1  0
  9 11  1  0
  9 12  1  0
 12 13  1  0
 13 14  1  0
 14 15  1  0
 14 16  2  0
 16 17  1  0
 16 18  1  0
 18 19  1  0
 19 20  2  0
 20 21  1  0
 21 22  2  0
 22 23  1  0
 22 24  1  0
 24 25  2  0
 25 26  1  0
 25 27  1  0
 27 28  1  0
 27 29  2  0
 29 30  1  0
 20 31  1  0
 31 32  1  0
 31 33  2  0
 12 34  1  0
 34 35  1  0
 34 36  1  0
 34 37  1  0
 37 38  1  0
 37 39  1  0
  4 40  2  0
 40 41  1  0
 40 42  1  0
 42 43  1  0
 42 44  2  0
 44 45  1  0
 44  2  1  0
 37  5  1  0
 33 13  1  0
 33 18  1  0
 29 21  1  0
M  END
>  <cnnaffinity>  (1) 
-5.57578

>  <filename>  (1) 
c1ccc(N2CCN(n3ccn4nc(-c5cccnc5)cc34)CC2)nc1

$$$$
