
     RDKit          3D

 37 40  0  0  0  0  0  0  0  0999 V2000
    5.0134    1.8132   16.8513 H   0  0  0  0  0  0  0  0  0  0  0  0
    5.4833    1.3309   17.7059 C   0  0  0  0  0  0  0  0  0  0  0  0
    6.6575    0.7252   17.4707 N   0  0  0  0  0  0  0  0  0  0  0  0
    7.2690    0.1333   18.5019 C   0  0  0  0  0  0  0  0  0  0  0  0
    8.2221   -0.3430   18.2783 H   0  0  0  0  0  0  0  0  0  0  0  0
    6.7393    0.0949   19.8064 C   0  0  0  0  0  0  0  0  0  0  0  0
    7.4009   -0.6752   20.8772 C   0  0  0  0  0  0  0  0  0  0  0  0
    8.6028   -1.2443   20.6885 N   0  0  0  0  0  0  0  0  0  0  0  0
    8.7801   -1.9430   21.8364 N   0  0  0  0  0  0  0  0  0  0  0  0
    9.7744   -2.7540   22.3700 C   0  0  0  0  0  0  0  0  0  0  0  0
   10.7269   -2.8109   21.8703 H   0  0  0  0  0  0  0  0  0  0  0  0
    9.2763   -3.2352   23.5417 C   0  0  0  0  0  0  0  0  0  0  0  0
    9.7074   -3.8838   24.2987 H   0  0  0  0  0  0  0  0  0  0  0  0
    7.9974   -2.7117   23.7434 N   0  0  0  0  0  0  0  0  0  0  0  0
    7.0072   -3.1431   24.7216 C   0  0  0  0  0  0  0  0  0  0  0  0
    7.5241   -3.7432   25.4798 H   0  0  0  0  0  0  0  0  0  0  0  0
    6.2784   -3.8032   24.2334 H   0  0  0  0  0  0  0  0  0  0  0  0
    6.2945   -2.0722   25.3660 N   0  0  0  0  0  0  0  0  0  0  0  0
    5.6767   -1.5953   24.7237 H   0  0  0  0  0  0  0  0  0  0  0  0
    6.9459   -1.1453   26.1836 C   0  0  0  0  0  0  0  0  0  0  0  0
    8.2469   -1.3290   26.6793 C   0  0  0  0  0  0  0  0  0  0  0  0
    8.8529   -2.1545   26.3162 H   0  0  0  0  0  0  0  0  0  0  0  0
    8.7602   -0.4273   27.6195 C   0  0  0  0  0  0  0  0  0  0  0  0
    9.7527   -0.5994   28.0354 H   0  0  0  0  0  0  0  0  0  0  0  0
    7.9977    0.6695   28.0442 C   0  0  0  0  0  0  0  0  0  0  0  0
    8.3747    1.3726   28.7835 H   0  0  0  0  0  0  0  0  0  0  0  0
    6.7206    0.8733   27.5117 C   0  0  0  0  0  0  0  0  0  0  0  0
    6.1155    1.7115   27.8478 H   0  0  0  0  0  0  0  0  0  0  0  0
    6.2063   -0.0171   26.5720 C   0  0  0  0  0  0  0  0  0  0  0  0
    5.2208    0.1202   26.1381 H   0  0  0  0  0  0  0  0  0  0  0  0
    7.7370   -1.8739   22.6811 C   0  0  0  0  0  0  0  0  0  0  0  0
    6.8308   -0.9856   22.1398 C   0  0  0  0  0  0  0  0  0  0  0  0
    5.9921   -0.5199   22.6217 H   0  0  0  0  0  0  0  0  0  0  0  0
    5.5150    0.7492   20.0336 C   0  0  0  0  0  0  0  0  0  0  0  0
    5.0699    0.7734   21.0308 H   0  0  0  0  0  0  0  0  0  0  0  0
    4.8770    1.3735   18.9659 C   0  0  0  0  0  0  0  0  0  0  0  0
    3.9380    1.9022   19.0969 H   0  0  0  0  0  0  0  0  0  0  0  0
  1  2  1  0
  2  3  2  0
  3  4  1  0
  4  5  1  0
  4  6  2  0
  6  7  1  0
  7  8  2  0
  8  9  1  0
  9 10  1  0
 10 11  1  0
 10 12  2  0
 12 13  1  0
 12 14  1  0
 14 15  1  0
 15 16  1  0
 15 17  1  0
 15 18  1  0
 18 19  1  0
 18 20  1  0
 20 21  2  0
 21 22  1  0
 21 23  1  0
 23 24  1  0
 23 25  2  0
 25 26  1  0
 25 27  1  0
 27 28  1  0
 27 29  2  0
 29 30  1  0
 14 31  1  0
 31 32  2  0
 32 33  1  0
  6 34  1  0
 34 35  1  0
 34 36  2  0
 36 37  1  0
 36  2  1  0
 32  7  1  0
 31  9  1  0
 29 20  1  0
M  END
>  <cnnaffinity>  (1) 
-5.47961

>  <filename>  (1) 
c1ccc(NCn2ccn3nc(-c4cccnc4)cc23)cc1

$$$$
