
     RDKit          3D

 30 32  0  0  0  0  0  0  0  0999 V2000
    8.4366   -1.9914   19.8804 H   0  0  0  0  0  0  0  0  0  0  0  0
    8.2268   -1.6973   20.8880 C   0  0  0  0  0  0  0  0  0  0  0  0
    8.8130   -2.4039   21.8847 N   0  0  0  0  0  0  0  0  0  0  0  0
    8.5986   -1.9357   23.1183 C   0  0  0  0  0  0  0  0  0  0  0  0
    9.0576   -2.4410   23.9644 H   0  0  0  0  0  0  0  0  0  0  0  0
    7.8323   -0.7446   23.3552 C   0  0  0  0  0  0  0  0  0  0  0  0
    7.7546   -0.1700   24.6070 N   0  0  0  0  0  0  0  0  0  0  0  0
    7.4838   -0.7036   25.4174 H   0  0  0  0  0  0  0  0  0  0  0  0
    7.1735    1.0501   24.8475 C   0  0  0  0  0  0  0  0  0  0  0  0
    6.5101    1.0128   26.0021 N   0  0  0  0  0  0  0  0  0  0  0  0
    5.9397    2.1545   26.3962 C   0  0  0  0  0  0  0  0  0  0  0  0
    5.3923    2.1162   27.3348 H   0  0  0  0  0  0  0  0  0  0  0  0
    6.0260    3.3547   25.6886 C   0  0  0  0  0  0  0  0  0  0  0  0
    5.5515    4.2487   26.0667 H   0  0  0  0  0  0  0  0  0  0  0  0
    6.7544    3.3697   24.4971 C   0  0  0  0  0  0  0  0  0  0  0  0
    6.8671    4.2777   23.9067 H   0  0  0  0  0  0  0  0  0  0  0  0
    7.3361    2.1891   24.0566 C   0  0  0  0  0  0  0  0  0  0  0  0
    7.8701    2.0997   23.1245 H   0  0  0  0  0  0  0  0  0  0  0  0
    7.2175   -0.1015   22.3597 N   0  0  0  0  0  0  0  0  0  0  0  0
    7.3878   -0.5936   21.1176 C   0  0  0  0  0  0  0  0  0  0  0  0
    6.6456    0.0891   20.0234 C   0  0  0  0  0  0  0  0  0  0  0  0
    7.1761    0.0884   18.7258 C   0  0  0  0  0  0  0  0  0  0  0  0
    8.1285   -0.3957   18.5190 H   0  0  0  0  0  0  0  0  0  0  0  0
    6.5903    0.6627   17.6722 N   0  0  0  0  0  0  0  0  0  0  0  0
    5.4176    1.2783   17.8737 C   0  0  0  0  0  0  0  0  0  0  0  0
    4.9603    1.7502   17.0021 H   0  0  0  0  0  0  0  0  0  0  0  0
    4.7886    1.3255   19.1215 C   0  0  0  0  0  0  0  0  0  0  0  0
    3.8397    1.8363   19.2196 H   0  0  0  0  0  0  0  0  0  0  0  0
    5.4132    0.7301   20.2191 C   0  0  0  0  0  0  0  0  0  0  0  0
    4.9674    0.7574   21.2137 H   0  0  0  0  0  0  0  0  0  0  0  0
  1  2  1  0
  2  3  2  0
  3  4  1  0
  4  5  1  0
  4  6  2  0
  6  7  1  0
  7  8  1  0
  7  9  1  0
  9 10  2  0
 10 11  1  0
 11 12  1  0
 11 13  2  0
 13 14  1  0
 13 15  1  0
 15 16  1  0
 15 17  2  0
 17 18  1  0
  6 19  1  0
 19 20  2  0
 20 21  1  0
 21 22  2  0
 22 23  1  0
 22 24  1  0
 24 25  2  0
 25 26  1  0
 25 27  1  0
 27 28  1  0
 27 29  2  0
 29 30  1  0
 20  2  1  0
 29 21  1  0
 17  9  1  0
M  END
>  <cnnaffinity>  (1) 
-5.18559

>  <filename>  (1) 
c1ccc(Nc2cncc(-c3cccnc3)n2)nc1

$$$$
