
     RDKit          3D

 39 41  0  0  0  0  0  0  0  0999 V2000
    4.9263    1.8829   16.9997 H   0  0  0  0  0  0  0  0  0  0  0  0
    5.4130    1.3403   17.8083 C   0  0  0  0  0  0  0  0  0  0  0  0
    6.5722    0.7305   17.5085 N   0  0  0  0  0  0  0  0  0  0  0  0
    7.2043    0.0784   18.4959 C   0  0  0  0  0  0  0  0  0  0  0  0
    8.1396   -0.4119   18.2207 H   0  0  0  0  0  0  0  0  0  0  0  0
    6.7276   -0.0296   19.8333 C   0  0  0  0  0  0  0  0  0  0  0  0
    7.4307   -0.7796   20.8195 N   0  0  0  0  0  0  0  0  0  0  0  0
    6.6851   -1.5273   21.8465 C   0  0  0  0  0  0  0  0  0  0  0  0
    6.3885   -0.9082   22.7139 H   0  0  0  0  0  0  0  0  0  0  0  0
    5.7654   -1.9359   21.4145 H   0  0  0  0  0  0  0  0  0  0  0  0
    7.5553   -2.6837   22.3514 C   0  0  0  0  0  0  0  0  0  0  0  0
    7.0687   -3.1975   23.1851 H   0  0  0  0  0  0  0  0  0  0  0  0
    7.7043   -3.4200   21.5436 H   0  0  0  0  0  0  0  0  0  0  0  0
    8.8009   -2.2166   22.8473 O   0  0  0  0  0  0  0  0  0  0  0  0
    9.5224   -1.4693   21.8723 C   0  0  0  0  0  0  0  0  0  0  0  0
   10.4407   -1.1473   22.3721 H   0  0  0  0  0  0  0  0  0  0  0  0
    9.7973   -2.1079   21.0167 H   0  0  0  0  0  0  0  0  0  0  0  0
    8.7323   -0.2634   21.3266 C   0  0  2  0  0  0  0  0  0  0  0  0
    9.2888    0.1414   20.4706 H   0  0  0  0  0  0  0  0  0  0  0  0
    8.6195    0.8943   22.3614 C   0  0  0  0  0  0  0  0  0  0  0  0
    8.1730    0.5244   23.2945 H   0  0  0  0  0  0  0  0  0  0  0  0
    7.9328    1.6575   21.9559 H   0  0  0  0  0  0  0  0  0  0  0  0
    9.9271    1.4698   22.6699 N   0  0  0  0  0  0  0  0  0  0  0  0
   10.6471    1.3740   21.9698 H   0  0  0  0  0  0  0  0  0  0  0  0
   10.0728    2.6103   23.4484 C   0  0  0  0  0  0  0  0  0  0  0  0
   11.3427    3.2194   23.5133 C   0  0  0  0  0  0  0  0  0  0  0  0
   12.1685    2.7490   22.9866 H   0  0  0  0  0  0  0  0  0  0  0  0
   11.5342    4.3897   24.2485 C   0  0  0  0  0  0  0  0  0  0  0  0
   12.5193    4.8506   24.2734 H   0  0  0  0  0  0  0  0  0  0  0  0
   10.4725    4.9660   24.9592 C   0  0  0  0  0  0  0  0  0  0  0  0
   10.6188    5.8881   25.5180 H   0  0  0  0  0  0  0  0  0  0  0  0
    9.2222    4.3400   24.9403 C   0  0  0  0  0  0  0  0  0  0  0  0
    8.3970    4.7513   25.5202 H   0  0  0  0  0  0  0  0  0  0  0  0
    9.0182    3.1775   24.1894 C   0  0  0  0  0  0  0  0  0  0  0  0
    8.0405    2.7040   24.1580 H   0  0  0  0  0  0  0  0  0  0  0  0
    5.5037    0.6093   20.1083 C   0  0  0  0  0  0  0  0  0  0  0  0
    5.0958    0.5733   21.1177 H   0  0  0  0  0  0  0  0  0  0  0  0
    4.8457    1.3007   19.0850 C   0  0  0  0  0  0  0  0  0  0  0  0
    3.9100    1.8140   19.2672 H   0  0  0  0  0  0  0  0  0  0  0  0
  1  2  1  0
  2  3  2  0
  3  4  1  0
  4  5  1  0
  4  6  2  0
  6  7  1  0
  7  8  1  0
  8  9  1  0
  8 10  1  0
  8 11  1  0
 11 12  1  0
 11 13  1  0
 11 14  1  0
 14 15  1  0
 15 16  1  0
 15 17  1  0
 15 18  1  0
 18 19  1  6
 18 20  1  0
 20 21  1  0
 20 22  1  0
 20 23  1  0
 23 24  1  0
 23 25  1  0
 25 26  2  0
 26 27  1  0
 26 28  1  0
 28 29  1  0
 28 30  2  0
 30 31  1  0
 30 32  1  0
 32 33  1  0
 32 34  2  0
 34 35  1  0
  6 36  1  0
 36 37  1  0
 36 38  2  0
 38 39  1  0
 38  2  1  0
 18  7  1  0
 34 25  1  0
M  END
>  <cnnaffinity>  (1) 
-4.77754

>  <filename>  (1) 
c1ccc(NC[C@H]2COCCN2c2cccnc2)cc1

$$$$
