
     RDKit          3D

 40 44  0  0  0  0  0  0  0  0999 V2000
    4.9420    1.7786   16.9723 H   0  0  0  0  0  0  0  0  0  0  0  0
    5.4054    1.2933   17.8308 C   0  0  0  0  0  0  0  0  0  0  0  0
    6.5678    0.6656   17.5954 N   0  0  0  0  0  0  0  0  0  0  0  0
    7.1566    0.0851   18.6437 C   0  0  0  0  0  0  0  0  0  0  0  0
    8.1014   -0.4096   18.4306 H   0  0  0  0  0  0  0  0  0  0  0  0
    6.6543    0.0960   19.9620 C   0  0  0  0  0  0  0  0  0  0  0  0
    7.4342   -0.6001   21.0034 C   0  0  0  0  0  0  0  0  0  0  0  0
    8.3058   -1.6140   20.8327 C   0  0  0  0  0  0  0  0  0  0  0  0
    8.7254   -1.9625   19.9069 H   0  0  0  0  0  0  0  0  0  0  0  0
    8.8794   -2.3064   22.3206 S   0  0  0  0  0  0  0  0  0  0  0  0
    8.0724   -1.0511   23.1977 C   0  0  0  0  0  0  0  0  0  0  0  0
    8.0919   -0.5557   24.4110 N   0  0  0  0  0  0  0  0  0  0  0  0
    7.3311    0.5663   24.2545 C   0  0  0  0  0  0  0  0  0  0  0  0
    7.0763    1.5120   25.3505 C   0  0  0  0  0  0  0  0  0  0  0  0
    6.2767    2.6518   25.1273 C   0  0  0  0  0  0  0  0  0  0  0  0
    5.8714    2.8504   24.1391 H   0  0  0  0  0  0  0  0  0  0  0  0
    6.0223    3.5291   26.1724 C   0  0  0  0  0  0  0  0  0  0  0  0
    5.3900    4.3965   26.0069 H   0  0  0  0  0  0  0  0  0  0  0  0
    6.5522    3.3015   27.4529 C   0  0  0  0  0  0  0  0  0  0  0  0
    6.2661    4.2339   28.5657 C   0  0  0  0  0  0  0  0  0  0  0  0
    5.9696    3.7393   29.8482 C   0  0  0  0  0  0  0  0  0  0  0  0
    5.9397    2.6614   30.0026 H   0  0  0  0  0  0  0  0  0  0  0  0
    5.6979    4.6149   30.9003 C   0  0  0  0  0  0  0  0  0  0  0  0
    5.4760    4.2129   31.8863 H   0  0  0  0  0  0  0  0  0  0  0  0
    5.7260    5.9975   30.6780 C   0  0  0  0  0  0  0  0  0  0  0  0
    5.5145    6.6791   31.4952 H   0  0  0  0  0  0  0  0  0  0  0  0
    6.0215    6.5035   29.4054 C   0  0  0  0  0  0  0  0  0  0  0  0
    6.0353    7.5755   29.2231 H   0  0  0  0  0  0  0  0  0  0  0  0
    6.2866    5.6234   28.3548 C   0  0  0  0  0  0  0  0  0  0  0  0
    6.5302    6.0026   27.3629 H   0  0  0  0  0  0  0  0  0  0  0  0
    7.3600    2.1701   27.6604 C   0  0  0  0  0  0  0  0  0  0  0  0
    7.7880    2.0063   28.6450 H   0  0  0  0  0  0  0  0  0  0  0  0
    7.6277    1.2852   26.6275 C   0  0  0  0  0  0  0  0  0  0  0  0
    8.2542    0.4156   26.8164 H   0  0  0  0  0  0  0  0  0  0  0  0
    6.8485    0.7742   23.0319 N   0  0  0  0  0  0  0  0  0  0  0  0
    7.3292   -0.2978   22.3623 N   0  0  0  0  0  0  0  0  0  0  0  0
    5.4201    0.7405   20.1844 C   0  0  0  0  0  0  0  0  0  0  0  0
    4.9877    0.7806   21.1884 H   0  0  0  0  0  0  0  0  0  0  0  0
    4.7935    1.3356   19.0891 C   0  0  0  0  0  0  0  0  0  0  0  0
    3.8418    1.8447   19.1987 H   0  0  0  0  0  0  0  0  0  0  0  0
  1  2  1  0
  2  3  2  0
  3  4  1  0
  4  5  1  0
  4  6  2  0
  6  7  1  0
  7  8  2  0
  8  9  1  0
  8 10  1  0
 10 11  1  0
 11 12  2  0
 12 13  1  0
 13 14  1  0
 14 15  2  0
 15 16  1  0
 15 17  1  0
 17 18  1  0
 17 19  2  0
 19 20  1  0
 20 21  2  0
 21 22  1  0
 21 23  1  0
 23 24  1  0
 23 25  2  0
 25 26  1  0
 25 27  1  0
 27 28  1  0
 27 29  2  0
 29 30  1  0
 19 31  1  0
 31 32  1  0
 31 33  2  0
 33 34  1  0
 13 35  2  0
 35 36  1  0
  6 37  1  0
 37 38  1  0
 37 39  2  0
 39 40  1  0
 39  2  1  0
 36  7  1  0
 36 11  1  0
 33 14  1  0
 29 20  1  0
M  END
>  <cnnaffinity>  (1) 
-5.19079

>  <filename>  (1) 
c1ccc(-c2ccc(-c3nc4scc(-c5cccnc5)n4n3)cc2)cc1

$$$$
