
     RDKit          3D

 36 38  0  0  0  0  0  0  0  0999 V2000
   10.4675   -1.2299   21.9202 H   0  0  0  0  0  0  0  0  0  0  0  0
    9.3832   -1.2740   21.9341 C   0  0  0  0  0  0  0  0  0  0  0  0
    8.7568   -0.6614   20.9272 N   0  0  0  0  0  0  0  0  0  0  0  0
    7.4267   -0.6972   20.9643 C   0  0  0  0  0  0  0  0  0  0  0  0
    6.6772    0.0158   19.9160 C   0  0  0  0  0  0  0  0  0  0  0  0
    7.1885    0.0628   18.6118 C   0  0  0  0  0  0  0  0  0  0  0  0
    8.1296   -0.4231   18.3701 H   0  0  0  0  0  0  0  0  0  0  0  0
    6.5677    0.6642   17.5921 N   0  0  0  0  0  0  0  0  0  0  0  0
    5.4067    1.2848   17.8486 C   0  0  0  0  0  0  0  0  0  0  0  0
    4.9245    1.7741   17.0041 H   0  0  0  0  0  0  0  0  0  0  0  0
    4.8118    1.3065   19.1139 C   0  0  0  0  0  0  0  0  0  0  0  0
    3.8798    1.8374   19.2620 H   0  0  0  0  0  0  0  0  0  0  0  0
    5.4466    0.6476   20.1627 C   0  0  0  0  0  0  0  0  0  0  0  0
    4.9989    0.6434   21.1606 H   0  0  0  0  0  0  0  0  0  0  0  0
    6.7510   -1.3960   21.9590 C   0  0  0  0  0  0  0  0  0  0  0  0
    5.6821   -1.4550   21.9470 H   0  0  0  0  0  0  0  0  0  0  0  0
    7.5034   -2.0072   22.9519 C   0  0  0  0  0  0  0  0  0  0  0  0
    6.8232   -2.6645   24.1147 C   0  0  0  0  0  0  0  0  0  0  0  0
    5.9766   -3.2622   23.7582 H   0  0  0  0  0  0  0  0  0  0  0  0
    7.5250   -3.3428   24.5999 H   0  0  0  0  0  0  0  0  0  0  0  0
    6.3132   -1.6546   25.1498 C   0  0  0  0  0  0  0  0  0  0  0  0
    5.5429   -0.9928   24.7307 H   0  0  0  0  0  0  0  0  0  0  0  0
    5.8299   -2.1985   25.9652 H   0  0  0  0  0  0  0  0  0  0  0  0
    7.3559   -0.9188   25.7833 O   0  0  0  0  0  0  0  0  0  0  0  0
    7.9224    0.2055   25.2420 C   0  0  0  0  0  0  0  0  0  0  0  0
    9.1801    0.5694   25.7560 C   0  0  0  0  0  0  0  0  0  0  0  0
    9.6193   -0.0345   26.5450 H   0  0  0  0  0  0  0  0  0  0  0  0
    9.8510    1.6903   25.2628 C   0  0  0  0  0  0  0  0  0  0  0  0
   10.8254    1.9516   25.6656 H   0  0  0  0  0  0  0  0  0  0  0  0
    9.2848    2.4705   24.2484 C   0  0  0  0  0  0  0  0  0  0  0  0
    9.8109    3.3404   23.8563 H   0  0  0  0  0  0  0  0  0  0  0  0
    8.0310    2.1211   23.7474 C   0  0  0  0  0  0  0  0  0  0  0  0
    7.5817    2.7158   22.9513 H   0  0  0  0  0  0  0  0  0  0  0  0
    7.3408    1.0085   24.2476 C   0  0  0  0  0  0  0  0  0  0  0  0
    6.3695    0.7481   23.8401 H   0  0  0  0  0  0  0  0  0  0  0  0
    8.8346   -1.9586   22.9390 N   0  0  0  0  0  0  0  0  0  0  0  0
  1  2  1  0
  2  3  2  0
  3  4  1  0
  4  5  1  0
  5  6  2  0
  6  7  1  0
  6  8  1  0
  8  9  2  0
  9 10  1  0
  9 11  1  0
 11 12  1  0
 11 13  2  0
 13 14  1  0
  4 15  2  0
 15 16  1  0
 15 17  1  0
 17 18  1  0
 18 19  1  0
 18 20  1  0
 18 21  1  0
 21 22  1  0
 21 23  1  0
 21 24  1  0
 24 25  1  0
 25 26  2  0
 26 27  1  0
 26 28  1  0
 28 29  1  0
 28 30  2  0
 30 31  1  0
 30 32  1  0
 32 33  1  0
 32 34  2  0
 34 35  1  0
 17 36  2  0
 36  2  1  0
 13  5  1  0
 34 25  1  0
M  END
>  <cnnaffinity>  (1) 
-5.12026

>  <filename>  (1) 
c1ccc(OCCc2cc(-c3cccnc3)ncn2)cc1

$$$$
