
     RDKit          3D

 30 32  0  0  0  0  0  0  0  0999 V2000
    4.9742    1.7977   16.9538 H   0  0  0  0  0  0  0  0  0  0  0  0
    5.4267    1.2908   17.8051 C   0  0  0  0  0  0  0  0  0  0  0  0
    6.5877    0.6596   17.5773 N   0  0  0  0  0  0  0  0  0  0  0  0
    7.1725    0.0491   18.6181 C   0  0  0  0  0  0  0  0  0  0  0  0
    8.1176   -0.4439   18.4031 H   0  0  0  0  0  0  0  0  0  0  0  0
    6.6552    0.0231   19.9276 C   0  0  0  0  0  0  0  0  0  0  0  0
    7.4024   -0.6358   21.0279 C   0  0  0  0  0  0  0  0  0  0  0  0
    6.9188   -0.3561   22.6746 S   0  0  0  0  0  0  0  0  0  0  0  0
    8.1383   -1.3914   23.2795 C   0  0  0  0  0  0  0  0  0  0  0  0
    8.2789   -1.5397   24.3369 H   0  0  0  0  0  0  0  0  0  0  0  0
    8.8684   -1.9632   22.2810 C   0  0  0  0  0  0  0  0  0  0  0  0
    9.8710   -2.8917   22.5058 N   0  0  0  0  0  0  0  0  0  0  0  0
   10.4842   -3.0975   21.7333 H   0  0  0  0  0  0  0  0  0  0  0  0
    9.9485   -3.7685   23.6063 C   0  0  0  0  0  0  0  0  0  0  0  0
   11.2202   -4.0440   24.1183 C   0  0  0  0  0  0  0  0  0  0  0  0
   12.0585   -3.5612   23.6368 H   0  0  0  0  0  0  0  0  0  0  0  0
   11.3860   -4.9789   25.1424 C   0  0  0  0  0  0  0  0  0  0  0  0
   12.3794   -5.1949   25.5108 H   0  0  0  0  0  0  0  0  0  0  0  0
   10.2809   -5.6563   25.6632 C   0  0  0  0  0  0  0  0  0  0  0  0
   10.4140   -6.4136   26.4283 H   0  0  0  0  0  0  0  0  0  0  0  0
    9.0052   -5.3630   25.1755 C   0  0  0  0  0  0  0  0  0  0  0  0
    8.1405   -5.8960   25.5624 H   0  0  0  0  0  0  0  0  0  0  0  0
    8.8342   -4.4298   24.1448 C   0  0  0  0  0  0  0  0  0  0  0  0
    7.8456   -4.1777   23.7777 H   0  0  0  0  0  0  0  0  0  0  0  0
    8.4721   -1.4915   20.9893 C   0  0  0  0  0  0  0  0  0  0  0  0
    8.9786   -1.8016   20.0837 H   0  0  0  0  0  0  0  0  0  0  0  0
    5.4165    0.6727   20.1327 C   0  0  0  0  0  0  0  0  0  0  0  0
    4.9476    0.6819   21.1166 H   0  0  0  0  0  0  0  0  0  0  0  0
    4.8024    1.3152   19.0575 C   0  0  0  0  0  0  0  0  0  0  0  0
    3.8670    1.8485   19.1854 H   0  0  0  0  0  0  0  0  0  0  0  0
  1  2  1  0
  2  3  2  0
  3  4  1  0
  4  5  1  0
  4  6  2  0
  6  7  1  0
  7  8  1  0
  8  9  1  0
  9 10  1  0
  9 11  2  0
 11 12  1  0
 12 13  1  0
 12 14  1  0
 14 15  2  0
 15 16  1  0
 15 17  1  0
 17 18  1  0
 17 19  2  0
 19 20  1  0
 19 21  1  0
 21 22  1  0
 21 23  2  0
 23 24  1  0
 11 25  1  0
 25 26  1  0
  6 27  1  0
 27 28  1  0
 27 29  2  0
 29 30  1  0
 29  2  1  0
 25  7  2  0
 23 14  1  0
M  END
>  <cnnaffinity>  (1) 
-5.32922

>  <filename>  (1) 
c1ccc(Nc2csc(-c3cccnc3)c2)cc1

$$$$
