
     RDKit          3D

 27 29  0  0  0  0  0  0  0  0999 V2000
    4.9193    1.7902   16.9986 H   0  0  0  0  0  0  0  0  0  0  0  0
    5.3976    1.2891   17.8393 C   0  0  0  0  0  0  0  0  0  0  0  0
    6.5509    0.6613   17.5714 N   0  0  0  0  0  0  0  0  0  0  0  0
    7.1906    0.0584   18.5801 C   0  0  0  0  0  0  0  0  0  0  0  0
    8.1382   -0.4150   18.3446 H   0  0  0  0  0  0  0  0  0  0  0  0
    6.6930    0.0287   19.8983 C   0  0  0  0  0  0  0  0  0  0  0  0
    7.2951   -0.6670   20.9579 O   0  0  0  0  0  0  0  0  0  0  0  0
    8.6272   -0.7690   21.0812 C   0  0  0  0  0  0  0  0  0  0  0  0
    9.5499   -0.0843   20.4584 N   0  0  0  0  0  0  0  0  0  0  0  0
   10.7254   -0.5446   20.9478 N   0  0  0  0  0  0  0  0  0  0  0  0
   10.5475   -1.4700   21.8113 N   0  0  0  0  0  0  0  0  0  0  0  0
    9.2010   -1.6439   21.9344 N   0  0  0  0  0  0  0  0  0  0  0  0
    8.6412   -2.6005   22.8443 C   0  0  0  0  0  0  0  0  0  0  0  0
    7.3761   -2.3886   23.3982 C   0  0  0  0  0  0  0  0  0  0  0  0
    6.8254   -1.4897   23.1469 H   0  0  0  0  0  0  0  0  0  0  0  0
    6.8446   -3.3525   24.2597 C   0  0  0  0  0  0  0  0  0  0  0  0
    5.8571   -3.1842   24.6753 H   0  0  0  0  0  0  0  0  0  0  0  0
    7.5588   -4.5153   24.5706 C   0  0  0  0  0  0  0  0  0  0  0  0
    7.1337   -5.2541   25.2493 H   0  0  0  0  0  0  0  0  0  0  0  0
    8.8337   -4.7064   24.0256 C   0  0  0  0  0  0  0  0  0  0  0  0
    9.4081   -5.5944   24.2836 H   0  0  0  0  0  0  0  0  0  0  0  0
    9.3862   -3.7353   23.1837 C   0  0  0  0  0  0  0  0  0  0  0  0
   10.4102   -3.7725   22.8349 H   0  0  0  0  0  0  0  0  0  0  0  0
    5.4706    0.6430   20.1735 C   0  0  0  0  0  0  0  0  0  0  0  0
    5.0496    0.6044   21.1801 H   0  0  0  0  0  0  0  0  0  0  0  0
    4.8271    1.2969   19.1169 C   0  0  0  0  0  0  0  0  0  0  0  0
    3.8949    1.8231   19.2687 H   0  0  0  0  0  0  0  0  0  0  0  0
  1  2  1  0
  2  3  2  0
  3  4  1  0
  4  5  1  0
  4  6  2  0
  6  7  1  0
  7  8  1  0
  8  9  2  0
  9 10  1  0
 10 11  2  0
 11 12  1  0
 12 13  1  0
 13 14  2  0
 14 15  1  0
 14 16  1  0
 16 17  1  0
 16 18  2  0
 18 19  1  0
 18 20  1  0
 20 21  1  0
 20 22  2  0
 22 23  1  0
  6 24  1  0
 24 25  1  0
 24 26  2  0
 26 27  1  0
 26  2  1  0
 12  8  1  0
 22 13  1  0
M  END
>  <cnnaffinity>  (1) 
-4.98253

>  <filename>  (1) 
c1ccc(-n2nnnc2Oc2cccnc2)cc1

$$$$
