
     RDKit          3D

 31 33  0  0  0  0  0  0  0  0999 V2000
    4.9481    1.7839   16.9038 H   0  0  0  0  0  0  0  0  0  0  0  0
    5.3975    1.3542   17.7984 C   0  0  0  0  0  0  0  0  0  0  0  0
    6.5876    0.7534   17.6360 N   0  0  0  0  0  0  0  0  0  0  0  0
    7.1352    0.1844   18.7179 C   0  0  0  0  0  0  0  0  0  0  0  0
    8.0867   -0.3208   18.5512 H   0  0  0  0  0  0  0  0  0  0  0  0
    6.5594    0.1790   20.0094 C   0  0  0  0  0  0  0  0  0  0  0  0
    7.2005   -0.5458   21.1513 C   0  0  0  0  0  0  0  0  0  0  0  0
    7.6007   -1.8851   21.0017 C   0  0  0  0  0  0  0  0  0  0  0  0
    7.3233   -2.4111   20.0953 H   0  0  0  0  0  0  0  0  0  0  0  0
    8.2675   -2.5846   21.9289 N   0  0  0  0  0  0  0  0  0  0  0  0
    8.5500   -1.9750   23.0864 C   0  0  0  0  0  0  0  0  0  0  0  0
    9.1254   -2.5455   23.8152 H   0  0  0  0  0  0  0  0  0  0  0  0
    8.1219   -0.6775   23.3944 C   0  0  0  0  0  0  0  0  0  0  0  0
    8.4770   -0.0021   25.0079 S   0  0  0  0  0  0  0  0  0  0  0  0
   10.0009    0.8463   24.6043 C   0  0  0  0  0  0  0  0  0  0  0  0
   11.2459    0.2294   24.7959 C   0  0  0  0  0  0  0  0  0  0  0  0
   11.2951   -0.7433   25.2774 H   0  0  0  0  0  0  0  0  0  0  0  0
   12.4150    0.8671   24.3659 C   0  0  0  0  0  0  0  0  0  0  0  0
   13.3738    0.3683   24.4800 H   0  0  0  0  0  0  0  0  0  0  0  0
   12.3462    2.1294   23.7642 C   0  0  0  0  0  0  0  0  0  0  0  0
   13.2529    2.6173   23.4184 H   0  0  0  0  0  0  0  0  0  0  0  0
   11.1078    2.7597   23.5993 C   0  0  0  0  0  0  0  0  0  0  0  0
   11.0427    3.7326   23.1189 H   0  0  0  0  0  0  0  0  0  0  0  0
    9.9414    2.1197   24.0219 C   0  0  0  0  0  0  0  0  0  0  0  0
    8.9739    2.5972   23.8917 H   0  0  0  0  0  0  0  0  0  0  0  0
    7.4231    0.0331   22.4096 C   0  0  0  0  0  0  0  0  0  0  0  0
    7.0394    1.0234   22.6306 H   0  0  0  0  0  0  0  0  0  0  0  0
    5.3380    0.8456   20.1558 C   0  0  0  0  0  0  0  0  0  0  0  0
    4.8584    0.8883   21.1351 H   0  0  0  0  0  0  0  0  0  0  0  0
    4.7393    1.4186   19.0298 C   0  0  0  0  0  0  0  0  0  0  0  0
    3.7722    1.8988   19.0862 H   0  0  0  0  0  0  0  0  0  0  0  0
  1  2  1  0
  2  3  2  0
  3  4  1  0
  4  5  1  0
  4  6  2  0
  6  7  1  0
  7  8  2  0
  8  9  1  0
  8 10  1  0
 10 11  2  0
 11 12  1  0
 11 13  1  0
 13 14  1  0
 14 15  1  0
 15 16  2  0
 16 17  1  0
 16 18  1  0
 18 19  1  0
 18 20  2  0
 20 21  1  0
 20 22  1  0
 22 23  1  0
 22 24  2  0
 24 25  1  0
 13 26  2  0
 26 27  1  0
  6 28  1  0
 28 29  1  0
 28 30  2  0
 30 31  1  0
 30  2  1  0
 26  7  1  0
 24 15  1  0
M  END
>  <cnnaffinity>  (1) 
-5.58364

>  <filename>  (1) 
c1ccc(Sc2cncc(-c3cccnc3)c2)cc1

$$$$
