
     RDKit          3D

 32 35  0  0  0  0  0  0  0  0999 V2000
    2.8617   -5.3005   23.1654 H   0  0  0  0  0  0  0  0  0  0  0  0
    3.8448   -5.1595   22.7225 C   0  0  0  0  0  0  0  0  0  0  0  0
    4.1731   -3.8912   22.4617 N   0  0  0  0  0  0  0  0  0  0  0  0
    5.3884   -3.6811   21.9608 C   0  0  0  0  0  0  0  0  0  0  0  0
    5.6008   -2.3408   21.7453 N   0  0  0  0  0  0  0  0  0  0  0  0
    4.7540   -1.9138   22.1045 H   0  0  0  0  0  0  0  0  0  0  0  0
    6.8260   -1.6823   21.7625 C   0  0  0  0  0  0  0  0  0  0  0  0
    7.3670   -0.7293   20.9058 C   0  0  0  0  0  0  0  0  0  0  0  0
    6.6433    0.0162   19.8796 C   0  0  0  0  0  0  0  0  0  0  0  0
    7.1886    0.0926   18.5912 C   0  0  0  0  0  0  0  0  0  0  0  0
    8.1500   -0.3792   18.3878 H   0  0  0  0  0  0  0  0  0  0  0  0
    6.5834    0.7021   17.5698 N   0  0  0  0  0  0  0  0  0  0  0  0
    5.4117    1.3086   17.8201 C   0  0  0  0  0  0  0  0  0  0  0  0
    4.9430    1.8019   16.9735 H   0  0  0  0  0  0  0  0  0  0  0  0
    4.7932    1.3170   19.0738 C   0  0  0  0  0  0  0  0  0  0  0  0
    3.8583    1.8508   19.2074 H   0  0  0  0  0  0  0  0  0  0  0  0
    5.4120    0.6505   20.1271 C   0  0  0  0  0  0  0  0  0  0  0  0
    4.9793    0.6596   21.1299 H   0  0  0  0  0  0  0  0  0  0  0  0
    8.7225   -0.5759   21.1049 N   0  0  0  0  0  0  0  0  0  0  0  0
    8.9739   -1.3436   22.1300 C   0  0  0  0  0  0  0  0  0  0  0  0
   10.3879   -1.7150   23.0934 S   0  0  0  0  0  0  0  0  0  0  0  0
    9.4373   -2.8240   24.0674 C   0  0  0  0  0  0  0  0  0  0  0  0
    9.9216   -3.3637   24.8693 H   0  0  0  0  0  0  0  0  0  0  0  0
    8.1525   -2.8808   23.6805 C   0  0  0  0  0  0  0  0  0  0  0  0
    7.3501   -3.4655   24.1150 H   0  0  0  0  0  0  0  0  0  0  0  0
    7.8884   -2.0584   22.5817 N   0  0  0  0  0  0  0  0  0  0  0  0
    6.3117   -4.6826   21.6358 C   0  0  0  0  0  0  0  0  0  0  0  0
    7.2630   -4.3706   21.2147 H   0  0  0  0  0  0  0  0  0  0  0  0
    5.9339   -6.0017   21.8867 C   0  0  0  0  0  0  0  0  0  0  0  0
    6.5963   -6.8329   21.6470 H   0  0  0  0  0  0  0  0  0  0  0  0
    4.6751   -6.2457   22.4532 C   0  0  0  0  0  0  0  0  0  0  0  0
    4.3281   -7.2436   22.6928 H   0  0  0  0  0  0  0  0  0  0  0  0
  1  2  1  0
  2  3  2  0
  3  4  1  0
  4  5  1  0
  5  6  1  0
  5  7  1  0
  7  8  2  0
  8  9  1  0
  9 10  2  0
 10 11  1  0
 10 12  1  0
 12 13  2  0
 13 14  1  0
 13 15  1  0
 15 16  1  0
 15 17  2  0
 17 18  1  0
  8 19  1  0
 19 20  2  0
 20 21  1  0
 21 22  1  0
 22 23  1  0
 22 24  2  0
 24 25  1  0
 24 26  1  0
  4 27  2  0
 27 28  1  0
 27 29  1  0
 29 30  1  0
 29 31  2  0
 31 32  1  0
 31  2  1  0
 26  7  1  0
 17  9  1  0
 26 20  1  0
M  END
>  <cnnaffinity>  (1) 
-5.95397

>  <filename>  (1) 
c1ccc(Nc2c(-c3cccnc3)nc3sccn23)nc1

$$$$
