
     RDKit          3D

 35 38  0  0  0  0  0  0  0  0999 V2000
    5.0020    1.7980   16.9907 H   0  0  0  0  0  0  0  0  0  0  0  0
    5.4335    1.2694   17.8410 C   0  0  0  0  0  0  0  0  0  0  0  0
    6.5880    0.6241   17.6155 N   0  0  0  0  0  0  0  0  0  0  0  0
    7.1453   -0.0067   18.6579 C   0  0  0  0  0  0  0  0  0  0  0  0
    8.0853   -0.5195   18.4583 H   0  0  0  0  0  0  0  0  0  0  0  0
    6.6061   -0.0475   19.9567 C   0  0  0  0  0  0  0  0  0  0  0  0
    7.3406   -0.7548   21.0720 C   0  0  0  0  0  0  0  0  0  0  0  0
    7.0541   -2.2050   21.2978 C   0  0  0  0  0  0  0  0  0  0  0  0
    7.8350   -3.2239   21.1575 N   0  0  0  0  0  0  0  0  0  0  0  0
    7.1003   -4.3493   21.5285 N   0  0  0  0  0  0  0  0  0  0  0  0
    5.9579   -3.8885   21.9190 C   0  0  0  0  0  0  0  0  0  0  0  0
    4.9279   -4.6391   22.3948 N   0  0  0  0  0  0  0  0  0  0  0  0
    5.1916   -5.6079   22.3208 H   0  0  0  0  0  0  0  0  0  0  0  0
    4.1758   -4.3222   23.5570 C   0  0  0  0  0  0  0  0  0  0  0  0
    4.5542   -3.3435   24.4906 C   0  0  0  0  0  0  0  0  0  0  0  0
    5.5080   -2.8378   24.3899 H   0  0  0  0  0  0  0  0  0  0  0  0
    3.6993   -3.0372   25.5583 C   0  0  0  0  0  0  0  0  0  0  0  0
    3.9751   -2.2553   26.2642 H   0  0  0  0  0  0  0  0  0  0  0  0
    2.4816   -3.7068   25.7104 C   0  0  0  0  0  0  0  0  0  0  0  0
    1.7966   -3.4269   26.5066 H   0  0  0  0  0  0  0  0  0  0  0  0
    2.1370   -4.7274   24.8164 C   0  0  0  0  0  0  0  0  0  0  0  0
    1.1972   -5.2632   24.9345 H   0  0  0  0  0  0  0  0  0  0  0  0
    2.9938   -5.0449   23.7587 C   0  0  0  0  0  0  0  0  0  0  0  0
    2.7633   -5.8468   23.0657 H   0  0  0  0  0  0  0  0  0  0  0  0
    5.8235   -2.5613   21.7839 O   0  0  0  0  0  0  0  0  0  0  0  0
    7.7388    0.0731   22.2908 C   0  0  0  0  0  0  0  0  0  0  0  0
    7.7226   -0.4151   23.2597 H   0  0  0  0  0  0  0  0  0  0  0  0
    7.4513    1.1232   22.3073 H   0  0  0  0  0  0  0  0  0  0  0  0
    8.7747   -0.3521   21.3047 C   0  0  0  0  0  0  0  0  0  0  0  0
    9.2061    0.3962   20.6472 H   0  0  0  0  0  0  0  0  0  0  0  0
    9.4429   -1.1573   21.5910 H   0  0  0  0  0  0  0  0  0  0  0  0
    5.3958    0.6247   20.1641 C   0  0  0  0  0  0  0  0  0  0  0  0
    4.9418    0.6307   21.1570 H   0  0  0  0  0  0  0  0  0  0  0  0
    4.7990    1.2891   19.0879 C   0  0  0  0  0  0  0  0  0  0  0  0
    3.8666    1.8279   19.2050 H   0  0  0  0  0  0  0  0  0  0  0  0
  1  2  1  0
  2  3  2  0
  3  4  1  0
  4  5  1  0
  4  6  2  0
  6  7  1  0
  7  8  1  0
  8  9  2  0
  9 10  1  0
 10 11  2  0
 11 12  1  0
 12 13  1  0
 12 14  1  0
 14 15  2  0
 15 16  1  0
 15 17  1  0
 17 18  1  0
 17 19  2  0
 19 20  1  0
 19 21  1  0
 21 22  1  0
 21 23  2  0
 23 24  1  0
 11 25  1  0
  7 26  1  0
 26 27  1  0
 26 28  1  0
 26 29  1  0
 29 30  1  0
 29 31  1  0
  6 32  1  0
 32 33  1  0
 32 34  2  0
 34 35  1  0
 34  2  1  0
 29  7  1  0
 25  8  1  0
 23 14  1  0
M  END
>  <cnnaffinity>  (1) 
-4.9368

>  <filename>  (1) 
c1ccc(Nc2nnc(C3(c4cccnc4)CC3)o2)cc1

$$$$
