
     RDKit          3D

 43 46  0  0  0  0  0  0  0  0999 V2000
    8.9425    5.6938   27.5583 H   0  0  0  0  0  0  0  0  0  0  0  0
    8.3590    5.7819   26.6390 C   0  0  0  0  0  0  0  0  0  0  0  0
    8.3043    4.6746   25.8998 N   0  0  0  0  0  0  0  0  0  0  0  0
    7.6565    4.7440   24.7284 C   0  0  0  0  0  0  0  0  0  0  0  0
    7.7128    3.6026   23.9528 N   0  0  0  0  0  0  0  0  0  0  0  0
    7.4431    3.6390   22.5084 C   0  0  0  0  0  0  0  0  0  0  0  0
    7.7857    4.5975   22.0951 H   0  0  0  0  0  0  0  0  0  0  0  0
    6.3622    3.5368   22.3118 H   0  0  0  0  0  0  0  0  0  0  0  0
    8.1820    2.5067   21.7816 C   0  0  0  0  0  0  0  0  0  0  0  0
    9.2728    2.6934   21.8125 H   0  0  0  0  0  0  0  0  0  0  0  0
    7.8522    2.4717   20.7386 H   0  0  0  0  0  0  0  0  0  0  0  0
    7.8496    1.2172   22.3971 N   0  0  0  0  0  0  0  0  0  0  0  0
    8.3996    0.1044   21.7033 N   0  0  0  0  0  0  0  0  0  0  0  0
    9.0779    0.3972   20.9973 H   0  0  0  0  0  0  0  0  0  0  0  0
    7.3865   -0.6825   21.0251 C   0  0  0  0  0  0  0  0  0  0  0  0
    6.6601    0.0163   19.9148 C   0  0  0  0  0  0  0  0  0  0  0  0
    7.1806    0.0721   18.6113 C   0  0  0  0  0  0  0  0  0  0  0  0
    8.1271   -0.4133   18.3662 H   0  0  0  0  0  0  0  0  0  0  0  0
    6.5732    0.6843   17.5831 N   0  0  0  0  0  0  0  0  0  0  0  0
    5.4048    1.2959   17.8295 C   0  0  0  0  0  0  0  0  0  0  0  0
    4.9352    1.7936   16.9809 H   0  0  0  0  0  0  0  0  0  0  0  0
    4.7998    1.3153   19.0925 C   0  0  0  0  0  0  0  0  0  0  0  0
    3.8630    1.8406   19.2329 H   0  0  0  0  0  0  0  0  0  0  0  0
    5.4427    0.6678   20.1480 C   0  0  0  0  0  0  0  0  0  0  0  0
    5.0397    0.6575   21.1618 H   0  0  0  0  0  0  0  0  0  0  0  0
    7.6914   -2.1334   20.8673 C   0  0  0  0  0  0  0  0  0  0  0  0
    8.6775   -2.5021   21.1357 H   0  0  0  0  0  0  0  0  0  0  0  0
    7.2083   -2.5922   20.0185 H   0  0  0  0  0  0  0  0  0  0  0  0
    6.6863   -1.6891   21.8950 C   0  0  0  0  0  0  0  0  0  0  0  0
    6.9434   -1.6978   22.9516 H   0  0  0  0  0  0  0  0  0  0  0  0
    5.6450   -1.8983   21.6617 H   0  0  0  0  0  0  0  0  0  0  0  0
    8.2627    1.1947   23.8041 C   0  0  0  0  0  0  0  0  0  0  0  0
    9.3551    1.3236   23.8909 H   0  0  0  0  0  0  0  0  0  0  0  0
    7.9949    0.2091   24.1995 H   0  0  0  0  0  0  0  0  0  0  0  0
    7.5185    2.2828   24.5791 C   0  0  0  0  0  0  0  0  0  0  0  0
    6.4433    2.0277   24.5941 H   0  0  0  0  0  0  0  0  0  0  0  0
    7.8790    2.3184   25.6128 H   0  0  0  0  0  0  0  0  0  0  0  0
    6.9654    5.9032   24.3053 C   0  0  0  0  0  0  0  0  0  0  0  0
    6.4171    5.8487   23.3738 H   0  0  0  0  0  0  0  0  0  0  0  0
    6.9982    7.0376   25.1118 C   0  0  0  0  0  0  0  0  0  0  0  0
    6.4678    7.9484   24.8154 H   0  0  0  0  0  0  0  0  0  0  0  0
    7.7281    6.9806   26.3070 C   0  0  0  0  0  0  0  0  0  0  0  0
    7.8077    7.8212   26.9852 H   0  0  0  0  0  0  0  0  0  0  0  0
  1  2  1  0
  2  3  2  0
  3  4  1  0
  4  5  1  0
  5  6  1  0
  6  7  1  0
  6  8  1  0
  6  9  1  0
  9 10  1  0
  9 11  1  0
  9 12  1  0
 12 13  1  0
 13 14  1  0
 13 15  1  0
 15 16  1  0
 16 17  2  0
 17 18  1  0
 17 19  1  0
 19 20  2  0
 20 21  1  0
 20 22  1  0
 22 23  1  0
 22 24  2  0
 24 25  1  0
 15 26  1  0
 26 27  1  0
 26 28  1  0
 26 29  1  0
 29 30  1  0
 29 31  1  0
 12 32  1  0
 32 33  1  0
 32 34  1  0
 32 35  1  0
 35 36  1  0
 35 37  1  0
  4 38  2  0
 38 39  1  0
 38 40  1  0
 40 41  1  0
 40 42  2  0
 42 43  1  0
 42  2  1  0
 35  5  1  0
 29 15  1  0
 24 16  1  0
M  END
>  <cnnaffinity>  (1) 
-4.89866

>  <filename>  (1) 
c1ccc(N2CCN(NC3(c4cccnc4)CC3)CC2)nc1

$$$$
