
     RDKit          3D

 38 40  0  0  0  0  0  0  0  0999 V2000
    7.0439    0.2792   24.4153 H   0  0  0  0  0  0  0  0  0  0  0  0
    7.1700   -0.1350   23.4165 C   0  0  0  0  0  0  0  0  0  0  0  0
    6.6382    0.5672   22.4171 N   0  0  0  0  0  0  0  0  0  0  0  0
    6.8090    0.0590   21.1937 C   0  0  0  0  0  0  0  0  0  0  0  0
    6.2689    0.7725   20.0309 C   0  0  0  0  0  0  0  0  0  0  0  0
    6.9988    0.7383   18.8357 C   0  0  0  0  0  0  0  0  0  0  0  0
    8.0280    0.3804   18.8241 H   0  0  0  0  0  0  0  0  0  0  0  0
    6.5184    1.1131   17.6502 N   0  0  0  0  0  0  0  0  0  0  0  0
    5.2750    1.6159   17.6384 C   0  0  0  0  0  0  0  0  0  0  0  0
    4.8860    1.8785   16.6588 H   0  0  0  0  0  0  0  0  0  0  0  0
    4.4950    1.7857   18.7861 C   0  0  0  0  0  0  0  0  0  0  0  0
    3.5198    2.2543   18.7117 H   0  0  0  0  0  0  0  0  0  0  0  0
    5.0018    1.3645   20.0139 C   0  0  0  0  0  0  0  0  0  0  0  0
    4.4409    1.4737   20.9435 H   0  0  0  0  0  0  0  0  0  0  0  0
    7.4393   -1.1577   20.9826 C   0  0  0  0  0  0  0  0  0  0  0  0
    7.4664   -1.6101   20.0024 H   0  0  0  0  0  0  0  0  0  0  0  0
    7.9500   -1.8119   22.0882 C   0  0  0  0  0  0  0  0  0  0  0  0
    8.5522   -3.1740   21.9030 C   0  0  0  0  0  0  0  0  0  0  0  0
    9.1316   -3.1682   20.9747 H   0  0  0  0  0  0  0  0  0  0  0  0
    9.2646   -3.3673   22.7093 H   0  0  0  0  0  0  0  0  0  0  0  0
    7.4740   -4.2767   21.8439 C   0  0  0  0  0  0  0  0  0  0  0  0
    7.9155   -5.1990   21.4472 H   0  0  0  0  0  0  0  0  0  0  0  0
    6.6908   -3.9778   21.1280 H   0  0  0  0  0  0  0  0  0  0  0  0
    6.8411   -4.5693   23.2198 C   0  0  0  0  0  0  0  0  0  0  0  0
    6.1031   -5.3716   23.0963 H   0  0  0  0  0  0  0  0  0  0  0  0
    6.2980   -3.6798   23.5671 H   0  0  0  0  0  0  0  0  0  0  0  0
    7.8699   -4.9455   24.2747 C   0  0  0  0  0  0  0  0  0  0  0  0
    8.5370   -6.1810   24.2330 C   0  0  0  0  0  0  0  0  0  0  0  0
    8.2682   -6.8996   23.4607 H   0  0  0  0  0  0  0  0  0  0  0  0
    9.5495   -6.4822   25.1530 C   0  0  0  0  0  0  0  0  0  0  0  0
   10.0310   -7.4559   25.1457 H   0  0  0  0  0  0  0  0  0  0  0  0
    9.9384   -5.5365   26.1062 C   0  0  0  0  0  0  0  0  0  0  0  0
   10.7696   -5.7442   26.7736 H   0  0  0  0  0  0  0  0  0  0  0  0
    9.2733   -4.3088   26.1713 C   0  0  0  0  0  0  0  0  0  0  0  0
    9.5486   -3.5849   26.9351 H   0  0  0  0  0  0  0  0  0  0  0  0
    8.2429   -4.0244   25.2695 C   0  0  0  0  0  0  0  0  0  0  0  0
    7.7551   -3.0545   25.2891 H   0  0  0  0  0  0  0  0  0  0  0  0
    7.8332   -1.2917   23.3167 N   0  0  0  0  0  0  0  0  0  0  0  0
  1  2  1  0
  2  3  2  0
  3  4  1  0
  4  5  1  0
  5  6  2  0
  6  7  1  0
  6  8  1  0
  8  9  2  0
  9 10  1  0
  9 11  1  0
 11 12  1  0
 11 13  2  0
 13 14  1  0
  4 15  2  0
 15 16  1  0
 15 17  1  0
 17 18  1  0
 18 19  1  0
 18 20  1  0
 18 21  1  0
 21 22  1  0
 21 23  1  0
 21 24  1  0
 24 25  1  0
 24 26  1  0
 24 27  1  0
 27 28  2  0
 28 29  1  0
 28 30  1  0
 30 31  1  0
 30 32  2  0
 32 33  1  0
 32 34  1  0
 34 35  1  0
 34 36  2  0
 36 37  1  0
 17 38  2  0
 38  2  1  0
 13  5  1  0
 36 27  1  0
M  END
>  <cnnaffinity>  (1) 
-5.51777

>  <filename>  (1) 
c1ccc(CCCc2cc(-c3cccnc3)ncn2)cc1

$$$$
