
     RDKit          3D

 36 38  0  0  0  0  0  0  0  0999 V2000
    8.8361   -3.2002   22.0303 H   0  0  0  0  0  0  0  0  0  0  0  0
    8.3682   -2.2343   21.8677 C   0  0  0  0  0  0  0  0  0  0  0  0
    8.2895   -1.2693   22.8188 N   0  0  0  0  0  0  0  0  0  0  0  0
    7.6698   -0.2857   22.1981 C   0  0  0  0  0  0  0  0  0  0  0  0
    7.3496    1.0535   22.7828 C   0  0  0  0  0  0  0  0  0  0  0  0
    6.3892    0.9540   23.3055 H   0  0  0  0  0  0  0  0  0  0  0  0
    7.1904    1.7668   21.9661 H   0  0  0  0  0  0  0  0  0  0  0  0
    8.4022    1.6016   23.7590 C   0  0  0  0  0  0  0  0  0  0  0  0
    9.3586    1.7179   23.2334 H   0  0  0  0  0  0  0  0  0  0  0  0
    8.5664    0.8704   24.5614 H   0  0  0  0  0  0  0  0  0  0  0  0
    8.0208    2.9529   24.3935 C   0  0  0  0  0  0  0  0  0  0  0  0
    7.0662    2.8415   24.9268 H   0  0  0  0  0  0  0  0  0  0  0  0
    8.7611    3.1939   25.1681 H   0  0  0  0  0  0  0  0  0  0  0  0
    7.9378    4.1089   23.4120 C   0  0  0  0  0  0  0  0  0  0  0  0
    6.7272    4.4478   22.7792 C   0  0  0  0  0  0  0  0  0  0  0  0
    5.8129    3.9253   23.0516 H   0  0  0  0  0  0  0  0  0  0  0  0
    6.6644    5.4762   21.8321 C   0  0  0  0  0  0  0  0  0  0  0  0
    5.7282    5.6800   21.3135 H   0  0  0  0  0  0  0  0  0  0  0  0
    7.8088    6.2255   21.5422 C   0  0  0  0  0  0  0  0  0  0  0  0
    7.7540    7.0557   20.8446 H   0  0  0  0  0  0  0  0  0  0  0  0
    9.0202    5.9042   22.1649 C   0  0  0  0  0  0  0  0  0  0  0  0
    9.9189    6.4695   21.9361 H   0  0  0  0  0  0  0  0  0  0  0  0
    9.0907    4.8403   23.0715 C   0  0  0  0  0  0  0  0  0  0  0  0
   10.0522    4.5729   23.5079 H   0  0  0  0  0  0  0  0  0  0  0  0
    7.3507   -0.6827   20.9219 N   0  0  0  0  0  0  0  0  0  0  0  0
    6.6350   -0.0153   19.8894 C   0  0  0  0  0  0  0  0  0  0  0  0
    7.1531   -0.0214   18.5820 C   0  0  0  0  0  0  0  0  0  0  0  0
    8.0703   -0.5652   18.3722 H   0  0  0  0  0  0  0  0  0  0  0  0
    6.5856    0.6286   17.5626 N   0  0  0  0  0  0  0  0  0  0  0  0
    5.4390    1.2904   17.8036 C   0  0  0  0  0  0  0  0  0  0  0  0
    5.0020    1.8254   16.9622 H   0  0  0  0  0  0  0  0  0  0  0  0
    4.8190    1.3024   19.0553 C   0  0  0  0  0  0  0  0  0  0  0  0
    3.8853    1.8337   19.1861 H   0  0  0  0  0  0  0  0  0  0  0  0
    5.4228    0.6403   20.1290 C   0  0  0  0  0  0  0  0  0  0  0  0
    4.9644    0.6279   21.1200 H   0  0  0  0  0  0  0  0  0  0  0  0
    7.8377   -1.9266   20.7059 N   0  0  0  0  0  0  0  0  0  0  0  0
  1  2  1  0
  2  3  1  0
  3  4  2  0
  4  5  1  0
  5  6  1  0
  5  7  1  0
  5  8  1  0
  8  9  1  0
  8 10  1  0
  8 11  1  0
 11 12  1  0
 11 13  1  0
 11 14  1  0
 14 15  2  0
 15 16  1  0
 15 17  1  0
 17 18  1  0
 17 19  2  0
 19 20  1  0
 19 21  1  0
 21 22  1  0
 21 23  2  0
 23 24  1  0
  4 25  1  0
 25 26  1  0
 26 27  2  0
 27 28  1  0
 27 29  1  0
 29 30  2  0
 30 31  1  0
 30 32  1  0
 32 33  1  0
 32 34  2  0
 34 35  1  0
 25 36  1  0
 36  2  2  0
 23 14  1  0
 34 26  1  0
M  END
>  <cnnaffinity>  (1) 
-5.16171

>  <filename>  (1) 
c1ccc(CCCc2ncnn2-c2cccnc2)cc1

$$$$
