
     RDKit          3D

 40 43  0  0  0  0  0  0  0  0999 V2000
    4.9509    1.8263   16.9728 H   0  0  0  0  0  0  0  0  0  0  0  0
    5.3997    1.2976   17.8123 C   0  0  0  0  0  0  0  0  0  0  0  0
    6.5462    0.6460   17.5655 N   0  0  0  0  0  0  0  0  0  0  0  0
    7.1321    0.0092   18.5843 C   0  0  0  0  0  0  0  0  0  0  0  0
    8.0677   -0.5016   18.3614 H   0  0  0  0  0  0  0  0  0  0  0  0
    6.6263    0.0072   19.8911 C   0  0  0  0  0  0  0  0  0  0  0  0
    7.4001   -0.6370   20.9497 C   0  0  0  0  0  0  0  0  0  0  0  0
    7.9149   -1.9059   20.8132 N   0  0  0  0  0  0  0  0  0  0  0  0
    8.4639   -2.1374   21.9702 C   0  0  0  0  0  0  0  0  0  0  0  0
    8.4285   -1.0755   22.8155 N   0  0  0  0  0  0  0  0  0  0  0  0
    7.7202   -0.0920   22.1818 C   0  0  0  0  0  0  0  0  0  0  0  0
    7.4640    1.2318   22.8094 C   0  0  0  0  0  0  0  0  0  0  0  0
    8.3984    1.6293   23.2262 H   0  0  0  0  0  0  0  0  0  0  0  0
    7.1656    1.9434   22.0357 H   0  0  0  0  0  0  0  0  0  0  0  0
    6.4223    1.2239   23.9377 C   0  0  0  0  0  0  0  0  0  0  0  0
    6.7079    0.5081   24.7104 H   0  0  0  0  0  0  0  0  0  0  0  0
    5.4191    0.9413   23.5868 H   0  0  0  0  0  0  0  0  0  0  0  0
    6.3873    2.4684   24.6117 O   0  0  0  0  0  0  0  0  0  0  0  0
    5.8086    3.5588   24.0341 C   0  0  0  0  0  0  0  0  0  0  0  0
    5.0473    3.5649   22.8547 C   0  0  0  0  0  0  0  0  0  0  0  0
    4.8918    2.6462   22.2984 H   0  0  0  0  0  0  0  0  0  0  0  0
    4.5073    4.7734   22.3893 C   0  0  0  0  0  0  0  0  0  0  0  0
    3.9306    4.7821   21.4629 H   0  0  0  0  0  0  0  0  0  0  0  0
    4.7182    5.9600   23.0933 C   0  0  0  0  0  0  0  0  0  0  0  0
    4.2957    6.8906   22.7248 H   0  0  0  0  0  0  0  0  0  0  0  0
    5.4763    5.9461   24.2736 C   0  0  0  0  0  0  0  0  0  0  0  0
    5.6502    6.8689   24.8224 H   0  0  0  0  0  0  0  0  0  0  0  0
    6.0150    4.7516   24.7420 C   0  0  0  0  0  0  0  0  0  0  0  0
    6.6132    4.6900   25.6460 H   0  0  0  0  0  0  0  0  0  0  0  0
    9.1455   -1.1906   24.0690 C   0  0  0  0  0  0  0  0  0  0  0  0
    9.7024   -0.2732   24.2832 H   0  0  0  0  0  0  0  0  0  0  0  0
    8.4445   -1.3699   24.8890 H   0  0  0  0  0  0  0  0  0  0  0  0
   10.0942   -2.3830   23.8581 C   0  0  0  0  0  0  0  0  0  0  0  0
   11.0110   -2.0702   23.3531 H   0  0  0  0  0  0  0  0  0  0  0  0
   10.3486   -2.9005   24.7852 H   0  0  0  0  0  0  0  0  0  0  0  0
    9.2270   -3.5239   22.7215 S   0  0  0  0  0  0  0  0  0  0  0  0
    5.4079    0.6638   20.1243 C   0  0  0  0  0  0  0  0  0  0  0  0
    4.9469    0.6532   21.1129 H   0  0  0  0  0  0  0  0  0  0  0  0
    4.7795    1.3191   19.0650 C   0  0  0  0  0  0  0  0  0  0  0  0
    3.8515    1.8627   19.2041 H   0  0  0  0  0  0  0  0  0  0  0  0
  1  2  1  0
  2  3  2  0
  3  4  1  0
  4  5  1  0
  4  6  2  0
  6  7  1  0
  7  8  1  0
  8  9  2  0
  9 10  1  0
 10 11  1  0
 11 12  1  0
 12 13  1  0
 12 14  1  0
 12 15  1  0
 15 16  1  0
 15 17  1  0
 15 18  1  0
 18 19  1  0
 19 20  2  0
 20 21  1  0
 20 22  1  0
 22 23  1  0
 22 24  2  0
 24 25  1  0
 24 26  1  0
 26 27  1  0
 26 28  2  0
 28 29  1  0
 10 30  1  0
 30 31  1  0
 30 32  1  0
 30 33  1  0
 33 34  1  0
 33 35  1  0
 33 36  1  0
  6 37  1  0
 37 38  1  0
 37 39  2  0
 39 40  1  0
 39  2  1  0
 11  7  2  0
 28 19  1  0
 36  9  1  0
M  END
>  <cnnaffinity>  (1) 
-5.56797

>  <filename>  (1) 
c1ccc(OCCc2c(-c3cccnc3)nc3n2CCS3)cc1

$$$$
