
     RDKit          3D

 45 49  0  0  0  0  0  0  0  0999 V2000
    4.9468    1.8089   16.9788 H   0  0  0  0  0  0  0  0  0  0  0  0
    5.4022    1.2983   17.8253 C   0  0  0  0  0  0  0  0  0  0  0  0
    6.5575    0.6670   17.5727 N   0  0  0  0  0  0  0  0  0  0  0  0
    7.1576    0.0303   18.5824 C   0  0  0  0  0  0  0  0  0  0  0  0
    8.1052   -0.4502   18.3515 H   0  0  0  0  0  0  0  0  0  0  0  0
    6.6460   -0.0036   19.8890 C   0  0  0  0  0  0  0  0  0  0  0  0
    7.3903   -0.6844   20.9422 C   0  0  0  0  0  0  0  0  0  0  0  0
    8.0892   -1.8520   20.7355 N   0  0  0  0  0  0  0  0  0  0  0  0
    8.4876   -2.1804   21.9331 C   0  0  0  0  0  0  0  0  0  0  0  0
    9.4380   -3.4591   22.6173 S   0  0  0  0  0  0  0  0  0  0  0  0
    9.4600   -2.6685   24.1745 C   0  0  0  0  0  0  0  0  0  0  0  0
   10.0440   -3.1309   24.9589 H   0  0  0  0  0  0  0  0  0  0  0  0
    8.7208   -1.5460   24.1781 C   0  0  0  0  0  0  0  0  0  0  0  0
    8.5351   -0.8510   24.9910 H   0  0  0  0  0  0  0  0  0  0  0  0
    8.1444   -1.3049   22.9267 N   0  0  0  0  0  0  0  0  0  0  0  0
    7.4468   -0.2944   22.2905 C   0  0  0  0  0  0  0  0  0  0  0  0
    7.1163    0.8523   22.9386 N   0  0  0  0  0  0  0  0  0  0  0  0
    6.2693    0.8800   24.1283 C   0  0  0  0  0  0  0  0  0  0  0  0
    5.2637    1.2498   23.8657 H   0  0  0  0  0  0  0  0  0  0  0  0
    6.1611   -0.1328   24.5256 H   0  0  0  0  0  0  0  0  0  0  0  0
    6.8754    1.8305   25.1757 C   0  0  0  0  0  0  0  0  0  0  0  0
    6.1674    1.9578   26.0042 H   0  0  0  0  0  0  0  0  0  0  0  0
    7.8030    1.3761   25.5748 H   0  0  0  0  0  0  0  0  0  0  0  0
    7.1288    3.1363   24.5756 N   0  0  0  0  0  0  0  0  0  0  0  0
    7.0098    4.3229   25.3184 C   0  0  0  0  0  0  0  0  0  0  0  0
    7.3386    4.3953   26.6820 C   0  0  0  0  0  0  0  0  0  0  0  0
    7.7317    3.4963   27.1469 H   0  0  0  0  0  0  0  0  0  0  0  0
    7.1547    5.5896   27.3881 C   0  0  0  0  0  0  0  0  0  0  0  0
    7.4039    5.6308   28.4475 H   0  0  0  0  0  0  0  0  0  0  0  0
    6.6350    6.7183   26.7395 C   0  0  0  0  0  0  0  0  0  0  0  0
    6.4826    7.6445   27.2874 H   0  0  0  0  0  0  0  0  0  0  0  0
    6.3092    6.6534   25.3774 C   0  0  0  0  0  0  0  0  0  0  0  0
    5.9021    7.5191   24.8559 H   0  0  0  0  0  0  0  0  0  0  0  0
    6.5088    5.4648   24.6740 C   0  0  0  0  0  0  0  0  0  0  0  0
    6.2618    5.3554   23.6229 H   0  0  0  0  0  0  0  0  0  0  0  0
    7.9957    3.0821   23.3959 C   0  0  0  0  0  0  0  0  0  0  0  0
    8.9937    2.6869   23.6638 H   0  0  0  0  0  0  0  0  0  0  0  0
    8.1367    4.0916   22.9908 H   0  0  0  0  0  0  0  0  0  0  0  0
    7.3733    2.1606   22.3351 C   0  0  0  0  0  0  0  0  0  0  0  0
    6.4443    2.6107   21.9475 H   0  0  0  0  0  0  0  0  0  0  0  0
    8.0557    2.0043   21.4940 H   0  0  0  0  0  0  0  0  0  0  0  0
    5.4273    0.6516   20.1378 C   0  0  0  0  0  0  0  0  0  0  0  0
    4.9925    0.6486   21.1403 H   0  0  0  0  0  0  0  0  0  0  0  0
    4.7973    1.3143   19.0871 C   0  0  0  0  0  0  0  0  0  0  0  0
    3.8664    1.8466   19.2318 H   0  0  0  0  0  0  0  0  0  0  0  0
  1  2  1  0
  2  3  2  0
  3  4  1  0
  4  5  1  0
  4  6  2  0
  6  7  1  0
  7  8  1  0
  8  9  2  0
  9 10  1  0
 10 11  1  0
 11 12  1  0
 11 13  2  0
 13 14  1  0
 13 15  1  0
 15 16  1  0
 16 17  1  0
 17 18  1  0
 18 19  1  0
 18 20  1  0
 18 21  1  0
 21 22  1  0
 21 23  1  0
 21 24  1  0
 24 25  1  0
 25 26  2  0
 26 27  1  0
 26 28  1  0
 28 29  1  0
 28 30  2  0
 30 31  1  0
 30 32  1  0
 32 33  1  0
 32 34  2  0
 34 35  1  0
 24 36  1  0
 36 37  1  0
 36 38  1  0
 36 39  1  0
 39 40  1  0
 39 41  1  0
  6 42  1  0
 42 43  1  0
 42 44  2  0
 44 45  1  0
 44  2  1  0
 16  7  2  0
 39 17  1  0
 15  9  1  0
 34 25  1  0
M  END
>  <cnnaffinity>  (1) 
-5.79139

>  <filename>  (1) 
c1ccc(N2CCN(c3c(-c4cccnc4)nc4sccn34)CC2)cc1

$$$$
