
     RDKit          3D

 46 50  0  0  0  0  0  0  0  0999 V2000
    2.7330    5.5455   25.9665 H   0  0  0  0  0  0  0  0  0  0  0  0
    3.7618    5.5464   25.6152 C   0  0  0  0  0  0  0  0  0  0  0  0
    4.1837    4.4048   25.0673 N   0  0  0  0  0  0  0  0  0  0  0  0
    5.4323    4.3969   24.5875 C   0  0  0  0  0  0  0  0  0  0  0  0
    5.8940    3.2265   24.0214 N   0  0  0  0  0  0  0  0  0  0  0  0
    6.4437    3.2563   22.6628 C   0  0  0  0  0  0  0  0  0  0  0  0
    6.8776    4.2326   22.4234 H   0  0  0  0  0  0  0  0  0  0  0  0
    5.6525    3.0728   21.9161 H   0  0  0  0  0  0  0  0  0  0  0  0
    7.4920    2.1636   22.5035 C   0  0  0  0  0  0  0  0  0  0  0  0
    8.3742    2.3893   23.1235 H   0  0  0  0  0  0  0  0  0  0  0  0
    7.8163    2.1051   21.4578 H   0  0  0  0  0  0  0  0  0  0  0  0
    6.9054    0.8690   22.8928 N   0  0  0  0  0  0  0  0  0  0  0  0
    7.3948   -0.2561   22.2873 C   0  0  0  0  0  0  0  0  0  0  0  0
    7.3821   -0.6525   20.9443 C   0  0  0  0  0  0  0  0  0  0  0  0
    6.6333   -0.0107   19.8678 C   0  0  0  0  0  0  0  0  0  0  0  0
    7.1393   -0.0007   18.5564 C   0  0  0  0  0  0  0  0  0  0  0  0
    8.0771   -0.5071   18.3260 H   0  0  0  0  0  0  0  0  0  0  0  0
    6.5531    0.6445   17.5451 N   0  0  0  0  0  0  0  0  0  0  0  0
    5.4081    1.3009   17.7975 C   0  0  0  0  0  0  0  0  0  0  0  0
    4.9632    1.8387   16.9635 H   0  0  0  0  0  0  0  0  0  0  0  0
    4.7951    1.3195   19.0555 C   0  0  0  0  0  0  0  0  0  0  0  0
    3.8641    1.8637   19.1963 H   0  0  0  0  0  0  0  0  0  0  0  0
    5.4252    0.6673   20.1084 C   0  0  0  0  0  0  0  0  0  0  0  0
    5.0043    0.6836   21.1134 H   0  0  0  0  0  0  0  0  0  0  0  0
    8.2220   -1.7238   20.7484 N   0  0  0  0  0  0  0  0  0  0  0  0
    8.6843   -1.9624   21.9371 C   0  0  0  0  0  0  0  0  0  0  0  0
    8.2438   -1.1292   22.9125 N   0  0  0  0  0  0  0  0  0  0  0  0
    8.8930   -1.1658   24.2136 C   0  0  0  0  0  0  0  0  0  0  0  0
    8.2196   -1.6202   24.9461 H   0  0  0  0  0  0  0  0  0  0  0  0
    9.1510   -0.1588   24.5604 H   0  0  0  0  0  0  0  0  0  0  0  0
   10.1671   -1.9972   23.9850 C   0  0  0  0  0  0  0  0  0  0  0  0
   10.9970   -1.3406   23.7146 H   0  0  0  0  0  0  0  0  0  0  0  0
   10.4566   -2.6229   24.8295 H   0  0  0  0  0  0  0  0  0  0  0  0
    9.8344   -3.1046   22.5795 S   0  0  0  0  0  0  0  0  0  0  0  0
    6.3186    0.8232   24.2318 C   0  0  0  0  0  0  0  0  0  0  0  0
    5.8482   -0.1540   24.3891 H   0  0  0  0  0  0  0  0  0  0  0  0
    7.0763    0.9773   25.0163 H   0  0  0  0  0  0  0  0  0  0  0  0
    5.2723    1.9408   24.3448 C   0  0  0  0  0  0  0  0  0  0  0  0
    4.4478    1.7264   23.6467 H   0  0  0  0  0  0  0  0  0  0  0  0
    4.8439    1.9774   25.3497 H   0  0  0  0  0  0  0  0  0  0  0  0
    6.3154    5.4921   24.6633 C   0  0  0  0  0  0  0  0  0  0  0  0
    7.3122    5.3568   24.2532 H   0  0  0  0  0  0  0  0  0  0  0  0
    5.8750    6.6427   25.2992 C   0  0  0  0  0  0  0  0  0  0  0  0
    6.5404    7.4956   25.4133 H   0  0  0  0  0  0  0  0  0  0  0  0
    4.5555    6.6779   25.7777 C   0  0  0  0  0  0  0  0  0  0  0  0
    4.1441    7.5486   26.2724 H   0  0  0  0  0  0  0  0  0  0  0  0
  1  2  1  0
  2  3  2  0
  3  4  1  0
  4  5  1  0
  5  6  1  0
  6  7  1  0
  6  8  1  0
  6  9  1  0
  9 10  1  0
  9 11  1  0
  9 12  1  0
 12 13  1  0
 13 14  2  0
 14 15  1  0
 15 16  2  0
 16 17  1  0
 16 18  1  0
 18 19  2  0
 19 20  1  0
 19 21  1  0
 21 22  1  0
 21 23  2  0
 23 24  1  0
 14 25  1  0
 25 26  2  0
 26 27  1  0
 27 28  1  0
 28 29  1  0
 28 30  1  0
 28 31  1  0
 31 32  1  0
 31 33  1  0
 31 34  1  0
 12 35  1  0
 35 36  1  0
 35 37  1  0
 35 38  1  0
 38 39  1  0
 38 40  1  0
  4 41  2  0
 41 42  1  0
 41 43  1  0
 43 44  1  0
 43 45  2  0
 45 46  1  0
 45  2  1  0
 38  5  1  0
 27 13  1  0
 23 15  1  0
 34 26  1  0
M  END
>  <cnnaffinity>  (1) 
-5.69019

>  <filename>  (1) 
c1ccc(N2CCN(c3c(-c4cccnc4)nc4n3CCS4)CC2)nc1

$$$$
