
     RDKit          3D

 46 50  0  0  0  0  0  0  0  0999 V2000
    5.0006    1.8269   17.0259 H   0  0  0  0  0  0  0  0  0  0  0  0
    5.5000    1.3039   17.8389 C   0  0  0  0  0  0  0  0  0  0  0  0
    6.6593    0.7004   17.5329 N   0  0  0  0  0  0  0  0  0  0  0  0
    7.2956    0.0381   18.5061 C   0  0  0  0  0  0  0  0  0  0  0  0
    8.2354   -0.4394   18.2301 H   0  0  0  0  0  0  0  0  0  0  0  0
    6.8013   -0.0855   19.8187 C   0  0  0  0  0  0  0  0  0  0  0  0
    7.4877   -0.8938   20.7627 N   0  0  0  0  0  0  0  0  0  0  0  0
    8.8454   -0.8477   21.0829 C   0  0  0  0  0  0  0  0  0  0  0  0
    9.4867   -0.1138   20.6237 H   0  0  0  0  0  0  0  0  0  0  0  0
    9.1095   -1.7627   22.0539 C   0  0  0  0  0  0  0  0  0  0  0  0
    9.9882   -2.0073   22.6224 H   0  0  0  0  0  0  0  0  0  0  0  0
    7.9140   -2.3948   22.3244 N   0  0  0  0  0  0  0  0  0  0  0  0
    7.5087   -3.3715   23.1845 N   0  0  0  0  0  0  0  0  0  0  0  0
    6.2007   -3.4503   22.9013 C   0  0  0  0  0  0  0  0  0  0  0  0
    5.3261   -4.3019   23.5247 N   0  0  0  0  0  0  0  0  0  0  0  0
    5.6433   -5.1901   24.6518 C   0  0  0  0  0  0  0  0  0  0  0  0
    6.5289   -4.8364   25.1874 H   0  0  0  0  0  0  0  0  0  0  0  0
    5.8661   -6.1897   24.2591 H   0  0  0  0  0  0  0  0  0  0  0  0
    4.4435   -5.3067   25.6332 C   0  0  0  0  0  0  0  0  0  0  0  0
    4.6990   -5.9865   26.4549 H   0  0  0  0  0  0  0  0  0  0  0  0
    4.2652   -4.3092   26.0696 H   0  0  0  0  0  0  0  0  0  0  0  0
    3.2354   -5.7995   24.9576 N   0  0  0  0  0  0  0  0  0  0  0  0
    2.1296   -6.2642   25.6655 C   0  0  0  0  0  0  0  0  0  0  0  0
    1.8642   -5.8270   26.9768 C   0  0  0  0  0  0  0  0  0  0  0  0
    2.5212   -5.0826   27.4132 H   0  0  0  0  0  0  0  0  0  0  0  0
    0.7700   -6.3310   27.6849 C   0  0  0  0  0  0  0  0  0  0  0  0
    0.5807   -5.9738   28.6958 H   0  0  0  0  0  0  0  0  0  0  0  0
   -0.0671   -7.2902   27.1043 C   0  0  0  0  0  0  0  0  0  0  0  0
   -0.8970   -7.7088   27.6681 H   0  0  0  0  0  0  0  0  0  0  0  0
    0.1772   -7.7181   25.7929 C   0  0  0  0  0  0  0  0  0  0  0  0
   -0.4696   -8.4584   25.3243 H   0  0  0  0  0  0  0  0  0  0  0  0
    1.2530   -7.1947   25.0707 C   0  0  0  0  0  0  0  0  0  0  0  0
    1.4456   -7.4929   24.0443 H   0  0  0  0  0  0  0  0  0  0  0  0
    3.1201   -5.4544   23.5437 C   0  0  0  0  0  0  0  0  0  0  0  0
    2.0716   -5.2660   23.2833 H   0  0  0  0  0  0  0  0  0  0  0  0
    3.4814   -6.2779   22.9039 H   0  0  0  0  0  0  0  0  0  0  0  0
    3.9025   -4.1753   23.2177 C   0  0  0  0  0  0  0  0  0  0  0  0
    3.4705   -3.3264   23.7806 H   0  0  0  0  0  0  0  0  0  0  0  0
    3.7652   -3.9971   22.1518 H   0  0  0  0  0  0  0  0  0  0  0  0
    5.7795   -2.5598   21.8808 C   0  0  0  0  0  0  0  0  0  0  0  0
    4.7749   -2.3684   21.6040 H   0  0  0  0  0  0  0  0  0  0  0  0
    6.9331   -1.8896   21.5464 C   0  0  0  0  0  0  0  0  0  0  0  0
    5.6031    0.5777   20.1384 C   0  0  0  0  0  0  0  0  0  0  0  0
    5.2127    0.5699   21.1577 H   0  0  0  0  0  0  0  0  0  0  0  0
    4.9429    1.2751   19.1228 C   0  0  0  0  0  0  0  0  0  0  0  0
    4.0120    1.7977   19.3150 H   0  0  0  0  0  0  0  0  0  0  0  0
  1  2  1  0
  2  3  2  0
  3  4  1  0
  4  5  1  0
  4  6  2  0
  6  7  1  0
  7  8  1  0
  8  9  1  0
  8 10  2  0
 10 11  1  0
 10 12  1  0
 12 13  1  0
 13 14  2  0
 14 15  1  0
 15 16  1  0
 16 17  1  0
 16 18  1  0
 16 19  1  0
 19 20  1  0
 19 21  1  0
 19 22  1  0
 22 23  1  0
 23 24  2  0
 24 25  1  0
 24 26  1  0
 26 27  1  0
 26 28  2  0
 28 29  1  0
 28 30  1  0
 30 31  1  0
 30 32  2  0
 32 33  1  0
 22 34  1  0
 34 35  1  0
 34 36  1  0
 34 37  1  0
 37 38  1  0
 37 39  1  0
 14 40  1  0
 40 41  1  0
 40 42  2  0
  6 43  1  0
 43 44  1  0
 43 45  2  0
 45 46  1  0
 45  2  1  0
 42  7  1  0
 42 12  1  0
 37 15  1  0
 32 23  1  0
M  END
>  <cnnaffinity>  (1) 
-5.62117

>  <filename>  (1) 
c1ccc(N2CCN(c3cc4n(-c5cccnc5)ccn4n3)CC2)cc1

$$$$
