
     RDKit          3D

 43 46  0  0  0  0  0  0  0  0999 V2000
    8.3980    1.4211   31.2694 H   0  0  0  0  0  0  0  0  0  0  0  0
    7.8718    1.9270   30.4648 C   0  0  0  0  0  0  0  0  0  0  0  0
    7.9669    1.3561   29.2651 N   0  0  0  0  0  0  0  0  0  0  0  0
    7.3279    1.9492   28.2474 C   0  0  0  0  0  0  0  0  0  0  0  0
    7.4055    1.2931   27.0307 N   0  0  0  0  0  0  0  0  0  0  0  0
    8.6843    0.6917   26.6268 C   0  0  0  0  0  0  0  0  0  0  0  0
    9.3606    1.4472   26.1796 H   0  0  0  0  0  0  0  0  0  0  0  0
    9.1817    0.2901   27.5132 H   0  0  0  0  0  0  0  0  0  0  0  0
    8.5065   -0.4883   25.6474 C   0  0  0  0  0  0  0  0  0  0  0  0
    8.1804   -1.3739   26.2189 H   0  0  0  0  0  0  0  0  0  0  0  0
    9.5047   -0.6954   25.2432 H   0  0  0  0  0  0  0  0  0  0  0  0
    7.5679   -0.2026   24.5568 N   0  0  0  0  0  0  0  0  0  0  0  0
    7.7062   -0.7444   23.3005 C   0  0  0  0  0  0  0  0  0  0  0  0
    7.0188   -0.1596   22.3122 N   0  0  0  0  0  0  0  0  0  0  0  0
    7.3306   -0.5023   21.0584 C   0  0  0  0  0  0  0  0  0  0  0  0
    6.6033    0.2031   19.9655 C   0  0  0  0  0  0  0  0  0  0  0  0
    7.1697    0.2684   18.6808 C   0  0  0  0  0  0  0  0  0  0  0  0
    8.1705   -0.1103   18.4835 H   0  0  0  0  0  0  0  0  0  0  0  0
    6.5768    0.8100   17.6135 N   0  0  0  0  0  0  0  0  0  0  0  0
    5.3746    1.3735   17.7983 C   0  0  0  0  0  0  0  0  0  0  0  0
    4.9128    1.8197   16.9191 H   0  0  0  0  0  0  0  0  0  0  0  0
    4.7305    1.4065   19.0385 C   0  0  0  0  0  0  0  0  0  0  0  0
    3.7695    1.9042   19.1283 H   0  0  0  0  0  0  0  0  0  0  0  0
    5.3481    0.8159   20.1396 C   0  0  0  0  0  0  0  0  0  0  0  0
    4.8700    0.8351   21.1215 H   0  0  0  0  0  0  0  0  0  0  0  0
    8.2901   -1.4867   20.7551 C   0  0  0  0  0  0  0  0  0  0  0  0
    8.5530   -1.6939   19.7335 H   0  0  0  0  0  0  0  0  0  0  0  0
    8.8902   -2.2002   21.7967 C   0  0  0  0  0  0  0  0  0  0  0  0
    9.6099   -2.9971   21.6108 H   0  0  0  0  0  0  0  0  0  0  0  0
    8.5704   -1.8411   23.0941 C   0  0  0  0  0  0  0  0  0  0  0  0
    8.9540   -2.3722   23.9531 H   0  0  0  0  0  0  0  0  0  0  0  0
    6.2952    0.3521   25.0119 C   0  0  0  0  0  0  0  0  0  0  0  0
    5.6828    0.6292   24.1470 H   0  0  0  0  0  0  0  0  0  0  0  0
    5.7503   -0.4025   25.6085 H   0  0  0  0  0  0  0  0  0  0  0  0
    6.5181    1.5974   25.9003 C   0  0  0  0  0  0  0  0  0  0  0  0
    6.9336    2.4060   25.2709 H   0  0  0  0  0  0  0  0  0  0  0  0
    5.5339    1.9069   26.2736 H   0  0  0  0  0  0  0  0  0  0  0  0
    6.6248    3.1682   28.3910 C   0  0  0  0  0  0  0  0  0  0  0  0
    6.1977    3.6201   27.5045 H   0  0  0  0  0  0  0  0  0  0  0  0
    6.5426    3.7536   29.6507 C   0  0  0  0  0  0  0  0  0  0  0  0
    5.9965    4.6870   29.7971 H   0  0  0  0  0  0  0  0  0  0  0  0
    7.1817    3.1110   30.7182 C   0  0  0  0  0  0  0  0  0  0  0  0
    7.1609    3.5093   31.7226 H   0  0  0  0  0  0  0  0  0  0  0  0
  1  2  1  0
  2  3  2  0
  3  4  1  0
  4  5  1  0
  5  6  1  0
  6  7  1  0
  6  8  1  0
  6  9  1  0
  9 10  1  0
  9 11  1  0
  9 12  1  0
 12 13  1  0
 13 14  2  0
 14 15  1  0
 15 16  1  0
 16 17  2  0
 17 18  1  0
 17 19  1  0
 19 20  2  0
 20 21  1  0
 20 22  1  0
 22 23  1  0
 22 24  2  0
 24 25  1  0
 15 26  2  0
 26 27  1  0
 26 28  1  0
 28 29  1  0
 28 30  2  0
 30 31  1  0
 12 32  1  0
 32 33  1  0
 32 34  1  0
 32 35  1  0
 35 36  1  0
 35 37  1  0
  4 38  2  0
 38 39  1  0
 38 40  1  0
 40 41  1  0
 40 42  2  0
 42 43  1  0
 42  2  1  0
 35  5  1  0
 30 13  1  0
 24 16  1  0
M  END
>  <cnnaffinity>  (1) 
-5.09556

>  <filename>  (1) 
c1ccc(N2CCN(c3cccc(-c4cccnc4)n3)CC2)nc1

$$$$
