
     RDKit          3D

 35 37  0  0  0  0  0  0  0  0999 V2000
    4.9436    1.8174   17.0076 H   0  0  0  0  0  0  0  0  0  0  0  0
    5.4165    1.3017   17.8394 C   0  0  0  0  0  0  0  0  0  0  0  0
    6.5671    0.6633   17.5730 N   0  0  0  0  0  0  0  0  0  0  0  0
    7.1710    0.0248   18.5828 C   0  0  0  0  0  0  0  0  0  0  0  0
    8.1011   -0.4955   18.3458 H   0  0  0  0  0  0  0  0  0  0  0  0
    6.6586   -0.0055   19.8943 C   0  0  0  0  0  0  0  0  0  0  0  0
    7.3408   -0.6720   20.9593 N   0  0  0  0  0  0  0  0  0  0  0  0
    6.7287   -1.6104   21.7171 N   0  0  0  0  0  0  0  0  0  0  0  0
    7.5894   -2.0099   22.5776 N   0  0  0  0  0  0  0  0  0  0  0  0
    8.7649   -1.3582   22.4356 N   0  0  0  0  0  0  0  0  0  0  0  0
    8.6025   -0.5222   21.4380 C   0  0  0  0  0  0  0  0  0  0  0  0
    9.5453    0.5044   20.9125 C   0  0  0  0  0  0  0  0  0  0  0  0
    9.6262    0.3707   19.8318 H   0  0  0  0  0  0  0  0  0  0  0  0
   10.5393    0.3134   21.3242 H   0  0  0  0  0  0  0  0  0  0  0  0
    9.0838    1.9461   21.2062 C   0  0  0  0  0  0  0  0  0  0  0  0
    9.8373    2.6359   20.8104 H   0  0  0  0  0  0  0  0  0  0  0  0
    8.1523    2.1493   20.6640 H   0  0  0  0  0  0  0  0  0  0  0  0
    8.9174    2.2548   22.7102 C   0  0  0  0  0  0  0  0  0  0  0  0
    8.4716    3.2504   22.8326 H   0  0  0  0  0  0  0  0  0  0  0  0
    8.1857    1.5620   23.1496 H   0  0  0  0  0  0  0  0  0  0  0  0
   10.2661    2.1597   23.4085 C   0  0  0  0  0  0  0  0  0  0  0  0
   10.6326    1.0175   24.1403 C   0  0  0  0  0  0  0  0  0  0  0  0
    9.8812    0.2540   24.3643 H   0  0  0  0  0  0  0  0  0  0  0  0
   11.9622    0.8143   24.5274 C   0  0  0  0  0  0  0  0  0  0  0  0
   12.2258   -0.0760   25.1002 H   0  0  0  0  0  0  0  0  0  0  0  0
   12.9409    1.7471   24.1664 C   0  0  0  0  0  0  0  0  0  0  0  0
   13.9796    1.5164   24.3568 H   0  0  0  0  0  0  0  0  0  0  0  0
   12.5770    2.9507   23.5403 C   0  0  0  0  0  0  0  0  0  0  0  0
   13.3182    3.7178   23.3080 H   0  0  0  0  0  0  0  0  0  0  0  0
   11.2401    3.1548   23.1801 C   0  0  0  0  0  0  0  0  0  0  0  0
   10.9468    4.0777   22.6726 H   0  0  0  0  0  0  0  0  0  0  0  0
    5.4458    0.6384   20.1570 C   0  0  0  0  0  0  0  0  0  0  0  0
    5.0249    0.5988   21.1628 H   0  0  0  0  0  0  0  0  0  0  0  0
    4.8205    1.3117   19.1056 C   0  0  0  0  0  0  0  0  0  0  0  0
    3.8840    1.8368   19.2591 H   0  0  0  0  0  0  0  0  0  0  0  0
  1  2  1  0
  2  3  2  0
  3  4  1  0
  4  5  1  0
  4  6  2  0
  6  7  1  0
  7  8  1  0
  8  9  2  0
  9 10  1  0
 10 11  2  0
 11 12  1  0
 12 13  1  0
 12 14  1  0
 12 15  1  0
 15 16  1  0
 15 17  1  0
 15 18  1  0
 18 19  1  0
 18 20  1  0
 18 21  1  0
 21 22  2  0
 22 23  1  0
 22 24  1  0
 24 25  1  0
 24 26  2  0
 26 27  1  0
 26 28  1  0
 28 29  1  0
 28 30  2  0
 30 31  1  0
  6 32  1  0
 32 33  1  0
 32 34  2  0
 34 35  1  0
 34  2  1  0
 11  7  1  0
 30 21  1  0
M  END
>  <cnnaffinity>  (1) 
-5.26694

>  <filename>  (1) 
c1ccc(CCCc2nnnn2-c2cccnc2)cc1

$$$$
