
     RDKit          3D

 36 38  0  0  0  0  0  0  0  0999 V2000
    4.9618    1.8070   16.9818 H   0  0  0  0  0  0  0  0  0  0  0  0
    5.4268    1.3036   17.8276 C   0  0  0  0  0  0  0  0  0  0  0  0
    6.5920    0.6836   17.5879 N   0  0  0  0  0  0  0  0  0  0  0  0
    7.1821    0.0702   18.6221 C   0  0  0  0  0  0  0  0  0  0  0  0
    8.1371   -0.4111   18.4047 H   0  0  0  0  0  0  0  0  0  0  0  0
    6.6466    0.0142   19.9222 C   0  0  0  0  0  0  0  0  0  0  0  0
    7.4108   -0.7187   21.0096 C   0  0  0  0  0  0  0  0  0  0  0  0
    7.6473   -1.7365   20.6920 H   0  0  0  0  0  0  0  0  0  0  0  0
    6.8062   -0.8103   21.9206 H   0  0  0  0  0  0  0  0  0  0  0  0
    8.6961   -0.0985   21.3349 N   0  0  0  0  0  0  0  0  0  0  0  0
    9.8622   -0.5923   20.8698 N   0  0  0  0  0  0  0  0  0  0  0  0
   10.7865    0.2059   21.2591 N   0  0  0  0  0  0  0  0  0  0  0  0
   10.2742    1.2376   21.9621 N   0  0  0  0  0  0  0  0  0  0  0  0
    8.9780    1.0347   22.0119 C   0  0  0  0  0  0  0  0  0  0  0  0
    7.9793    1.9571   22.6061 C   0  0  0  0  0  0  0  0  0  0  0  0
    8.4110    2.4120   23.5037 H   0  0  0  0  0  0  0  0  0  0  0  0
    7.0837    1.3990   22.9037 H   0  0  0  0  0  0  0  0  0  0  0  0
    7.6128    3.0383   21.5794 C   0  0  0  0  0  0  0  0  0  0  0  0
    8.4969    3.6235   21.2888 H   0  0  0  0  0  0  0  0  0  0  0  0
    7.2316    2.5715   20.6669 H   0  0  0  0  0  0  0  0  0  0  0  0
    6.5704    3.8827   22.0149 O   0  0  0  0  0  0  0  0  0  0  0  0
    6.8190    4.9472   22.8289 C   0  0  0  0  0  0  0  0  0  0  0  0
    5.6735    5.7072   23.1138 C   0  0  0  0  0  0  0  0  0  0  0  0
    4.7711    5.4562   22.5620 H   0  0  0  0  0  0  0  0  0  0  0  0
    5.7262    6.7190   24.0637 C   0  0  0  0  0  0  0  0  0  0  0  0
    4.8188    7.2620   24.3167 H   0  0  0  0  0  0  0  0  0  0  0  0
    6.9353    7.0220   24.7054 C   0  0  0  0  0  0  0  0  0  0  0  0
    6.9651    7.7838   25.4795 H   0  0  0  0  0  0  0  0  0  0  0  0
    8.0942    6.3296   24.3464 C   0  0  0  0  0  0  0  0  0  0  0  0
    9.0404    6.5843   24.8183 H   0  0  0  0  0  0  0  0  0  0  0  0
    8.0533    5.2994   23.3938 C   0  0  0  0  0  0  0  0  0  0  0  0
    8.9668    4.7913   23.0898 H   0  0  0  0  0  0  0  0  0  0  0  0
    5.4218    0.6529   20.1433 C   0  0  0  0  0  0  0  0  0  0  0  0
    4.9676    0.6696   21.1371 H   0  0  0  0  0  0  0  0  0  0  0  0
    4.8052    1.3170   19.0790 C   0  0  0  0  0  0  0  0  0  0  0  0
    3.8714    1.8503   19.2099 H   0  0  0  0  0  0  0  0  0  0  0  0
  1  2  1  0
  2  3  2  0
  3  4  1  0
  4  5  1  0
  4  6  2  0
  6  7  1  0
  7  8  1  0
  7  9  1  0
  7 10  1  0
 10 11  1  0
 11 12  2  0
 12 13  1  0
 13 14  2  0
 14 15  1  0
 15 16  1  0
 15 17  1  0
 15 18  1  0
 18 19  1  0
 18 20  1  0
 18 21  1  0
 21 22  1  0
 22 23  2  0
 23 24  1  0
 23 25  1  0
 25 26  1  0
 25 27  2  0
 27 28  1  0
 27 29  1  0
 29 30  1  0
 29 31  2  0
 31 32  1  0
  6 33  1  0
 33 34  1  0
 33 35  2  0
 35 36  1  0
 35  2  1  0
 14 10  1  0
 31 22  1  0
M  END
>  <cnnaffinity>  (1) 
-5.11276

>  <filename>  (1) 
c1ccc(OCCc2nnnn2Cc2cccnc2)cc1

$$$$
