
     RDKit          3D

 40 43  0  0  0  0  0  0  0  0999 V2000
    4.9637    1.8374   16.9428 H   0  0  0  0  0  0  0  0  0  0  0  0
    5.3878    1.3075   17.7909 C   0  0  0  0  0  0  0  0  0  0  0  0
    6.5454    0.6614   17.5817 N   0  0  0  0  0  0  0  0  0  0  0  0
    7.0995    0.0339   18.6326 C   0  0  0  0  0  0  0  0  0  0  0  0
    8.0477   -0.4592   18.4147 H   0  0  0  0  0  0  0  0  0  0  0  0
    6.5223   -0.0157   19.9221 C   0  0  0  0  0  0  0  0  0  0  0  0
    7.2622   -0.6350   21.0432 C   0  0  0  0  0  0  0  0  0  0  0  0
    8.6133   -0.5785   21.2868 C   0  0  0  0  0  0  0  0  0  0  0  0
    8.8212   -1.1592   22.5284 C   0  0  0  0  0  0  0  0  0  0  0  0
    7.7098   -1.6316   23.0602 N   0  0  0  0  0  0  0  0  0  0  0  0
    6.7609   -1.2851   22.1433 N   0  0  0  0  0  0  0  0  0  0  0  0
    5.7909   -1.4551   22.3824 H   0  0  0  0  0  0  0  0  0  0  0  0
   10.2568   -1.0590   22.9667 C   0  0  0  0  0  0  0  0  0  0  0  0
   10.7228   -2.0420   23.0168 H   0  0  0  0  0  0  0  0  0  0  0  0
   10.3584   -0.6184   23.9640 H   0  0  0  0  0  0  0  0  0  0  0  0
   10.9122   -0.1865   21.8394 C   0  0  2  0  0  0  0  0  0  0  0  0
   11.7863   -0.7165   21.4521 H   0  0  0  0  0  0  0  0  0  0  0  0
   11.4353    1.1643   22.3389 C   0  0  0  0  0  0  0  0  0  0  0  0
   11.9455    1.6831   21.5105 H   0  0  0  0  0  0  0  0  0  0  0  0
   12.2045    0.9935   23.1085 H   0  0  0  0  0  0  0  0  0  0  0  0
   10.3810    1.9920   22.8728 N   0  0  0  0  0  0  0  0  0  0  0  0
    9.4327    1.6577   22.8387 H   0  0  0  0  0  0  0  0  0  0  0  0
   10.5839    3.2546   23.3877 C   0  0  0  0  0  0  0  0  0  0  0  0
    9.4782    3.9876   23.8650 C   0  0  0  0  0  0  0  0  0  0  0  0
    8.4892    3.5436   23.8027 H   0  0  0  0  0  0  0  0  0  0  0  0
    9.6544    5.2659   24.3984 C   0  0  0  0  0  0  0  0  0  0  0  0
    8.7855    5.8159   24.7563 H   0  0  0  0  0  0  0  0  0  0  0  0
   10.9282    5.8396   24.4686 C   0  0  0  0  0  0  0  0  0  0  0  0
   11.0549    6.8366   24.8825 H   0  0  0  0  0  0  0  0  0  0  0  0
   12.0308    5.1221   23.9970 C   0  0  0  0  0  0  0  0  0  0  0  0
   13.0264    5.5608   24.0407 H   0  0  0  0  0  0  0  0  0  0  0  0
   11.8663    3.8401   23.4599 C   0  0  0  0  0  0  0  0  0  0  0  0
   12.7247    3.2909   23.0862 H   0  0  0  0  0  0  0  0  0  0  0  0
    9.8625   -0.0371   20.6934 C   0  0  0  0  0  0  0  0  0  0  0  0
    9.7403    0.9925   20.3316 H   0  0  0  0  0  0  0  0  0  0  0  0
   10.1671   -0.6248   19.8293 H   0  0  0  0  0  0  0  0  0  0  0  0
    5.3033    0.6622   20.1027 C   0  0  0  0  0  0  0  0  0  0  0  0
    4.8453    0.7084   21.0895 H   0  0  0  0  0  0  0  0  0  0  0  0
    4.7296    1.3348   19.0239 C   0  0  0  0  0  0  0  0  0  0  0  0
    3.8133    1.9042   19.1431 H   0  0  0  0  0  0  0  0  0  0  0  0
  1  2  1  0
  2  3  2  0
  3  4  1  0
  4  5  1  0
  4  6  2  0
  6  7  1  0
  7  8  2  0
  8  9  1  0
  9 10  2  0
 10 11  1  0
 11 12  1  0
  9 13  1  0
 13 14  1  0
 13 15  1  0
 13 16  1  0
 16 17  1  6
 16 18  1  0
 18 19  1  0
 18 20  1  0
 18 21  1  0
 21 22  1  0
 21 23  1  0
 23 24  2  0
 24 25  1  0
 24 26  1  0
 26 27  1  0
 26 28  2  0
 28 29  1  0
 28 30  1  0
 30 31  1  0
 30 32  2  0
 32 33  1  0
 16 34  1  0
 34 35  1  0
 34 36  1  0
  6 37  1  0
 37 38  1  0
 37 39  2  0
 39 40  1  0
 39  2  1  0
 11  7  1  0
 32 23  1  0
 34  8  1  0
M  END
>  <cnnaffinity>  (1) 
-5.44674

>  <filename>  (1) 
c1ccc(NC[C@H]2Cc3n[nH]c(-c4cccnc4)c3C2)cc1

$$$$
