
     RDKit          3D

 37 40  0  0  0  0  0  0  0  0999 V2000
    4.9132    1.8181   16.9647 H   0  0  0  0  0  0  0  0  0  0  0  0
    5.3744    1.3071   17.8128 C   0  0  0  0  0  0  0  0  0  0  0  0
    6.5372    0.6852   17.5633 N   0  0  0  0  0  0  0  0  0  0  0  0
    7.1491    0.0763   18.5838 C   0  0  0  0  0  0  0  0  0  0  0  0
    8.1004   -0.3878   18.3302 H   0  0  0  0  0  0  0  0  0  0  0  0
    6.6595    0.0295   19.9114 C   0  0  0  0  0  0  0  0  0  0  0  0
    7.4140   -0.6661   20.9761 C   0  0  0  0  0  0  0  0  0  0  0  0
    8.3322   -1.6908   20.9181 C   0  0  0  0  0  0  0  0  0  0  0  0
    8.7442   -2.0995   20.0126 H   0  0  0  0  0  0  0  0  0  0  0  0
    8.7898   -2.1016   22.1401 N   0  0  0  0  0  0  0  0  0  0  0  0
    8.1784   -1.2911   22.9631 C   0  0  0  0  0  0  0  0  0  0  0  0
    8.2783   -0.9248   24.6535 S   0  0  0  0  0  0  0  0  0  0  0  0
    7.1792    0.4182   24.3277 C   0  0  0  0  0  0  0  0  0  0  0  0
    6.8029    1.3887   25.3899 C   0  0  0  0  0  0  0  0  0  0  0  0
    5.7889    1.7549   25.1885 H   0  0  0  0  0  0  0  0  0  0  0  0
    6.8125    0.8701   26.3528 H   0  0  0  0  0  0  0  0  0  0  0  0
    7.7769    2.5768   25.4374 C   0  0  0  0  0  0  0  0  0  0  0  0
    7.7760    3.1311   24.4849 H   0  0  0  0  0  0  0  0  0  0  0  0
    8.8042    2.2338   25.6345 H   0  0  0  0  0  0  0  0  0  0  0  0
    7.3475    3.4275   26.4871 O   0  0  0  0  0  0  0  0  0  0  0  0
    8.0388    4.5736   26.7502 C   0  0  0  0  0  0  0  0  0  0  0  0
    9.1791    5.0067   26.0584 C   0  0  0  0  0  0  0  0  0  0  0  0
    9.5712    4.4150   25.2380 H   0  0  0  0  0  0  0  0  0  0  0  0
    9.7985    6.2092   26.4255 C   0  0  0  0  0  0  0  0  0  0  0  0
   10.6793    6.5461   25.8808 H   0  0  0  0  0  0  0  0  0  0  0  0
    9.2909    6.9791   27.4718 C   0  0  0  0  0  0  0  0  0  0  0  0
    9.7660    7.9154   27.7508 H   0  0  0  0  0  0  0  0  0  0  0  0
    8.1502    6.5431   28.1597 C   0  0  0  0  0  0  0  0  0  0  0  0
    7.7416    7.1394   28.9729 H   0  0  0  0  0  0  0  0  0  0  0  0
    7.5265    5.3492   27.8040 C   0  0  0  0  0  0  0  0  0  0  0  0
    6.6400    4.9805   28.3080 H   0  0  0  0  0  0  0  0  0  0  0  0
    6.7734    0.5511   23.1088 N   0  0  0  0  0  0  0  0  0  0  0  0
    7.3340   -0.4161   22.3463 N   0  0  0  0  0  0  0  0  0  0  0  0
    5.4258    0.6659   20.1403 C   0  0  0  0  0  0  0  0  0  0  0  0
    5.0074    0.6548   21.1433 H   0  0  0  0  0  0  0  0  0  0  0  0
    4.7856    1.3158   19.0798 C   0  0  0  0  0  0  0  0  0  0  0  0
    3.8550    1.8507   19.2238 H   0  0  0  0  0  0  0  0  0  0  0  0
  1  2  1  0
  2  3  2  0
  3  4  1  0
  4  5  1  0
  4  6  2  0
  6  7  1  0
  7  8  2  0
  8  9  1  0
  8 10  1  0
 10 11  2  0
 11 12  1  0
 12 13  1  0
 13 14  1  0
 14 15  1  0
 14 16  1  0
 14 17  1  0
 17 18  1  0
 17 19  1  0
 17 20  1  0
 20 21  1  0
 21 22  2  0
 22 23  1  0
 22 24  1  0
 24 25  1  0
 24 26  2  0
 26 27  1  0
 26 28  1  0
 28 29  1  0
 28 30  2  0
 30 31  1  0
 13 32  2  0
 32 33  1  0
  6 34  1  0
 34 35  1  0
 34 36  2  0
 36 37  1  0
 36  2  1  0
 33  7  1  0
 33 11  1  0
 30 21  1  0
M  END
>  <cnnaffinity>  (1) 
-5.55947

>  <filename>  (1) 
c1ccc(OCCc2nn3c(-c4cccnc4)cnc3s2)cc1

$$$$
