
     RDKit          3D

 45 49  0  0  0  0  0  0  0  0999 V2000
    1.9291   -8.9247   27.6535 H   0  0  0  0  0  0  0  0  0  0  0  0
    1.9885   -8.7531   26.5803 C   0  0  0  0  0  0  0  0  0  0  0  0
    2.7429   -7.7170   26.2048 N   0  0  0  0  0  0  0  0  0  0  0  0
    2.8331   -7.4622   24.8939 C   0  0  0  0  0  0  0  0  0  0  0  0
    3.5908   -6.3811   24.5156 N   0  0  0  0  0  0  0  0  0  0  0  0
    3.4542   -5.7970   23.1716 C   0  0  0  0  0  0  0  0  0  0  0  0
    4.0519   -6.3679   22.4407 H   0  0  0  0  0  0  0  0  0  0  0  0
    2.4039   -5.8059   22.8464 H   0  0  0  0  0  0  0  0  0  0  0  0
    3.9176   -4.3336   23.1312 C   0  0  0  0  0  0  0  0  0  0  0  0
    3.2506   -3.7149   23.7534 H   0  0  0  0  0  0  0  0  0  0  0  0
    3.8279   -4.0071   22.0975 H   0  0  0  0  0  0  0  0  0  0  0  0
    5.2964   -4.2046   23.5874 N   0  0  0  0  0  0  0  0  0  0  0  0
    6.1761   -3.3935   22.9234 C   0  0  0  0  0  0  0  0  0  0  0  0
    7.4841   -3.3401   23.2136 N   0  0  0  0  0  0  0  0  0  0  0  0
    7.9182   -2.3948   22.3329 N   0  0  0  0  0  0  0  0  0  0  0  0
    9.1128   -1.7432   22.1023 C   0  0  0  0  0  0  0  0  0  0  0  0
    9.9761   -1.9551   22.7075 H   0  0  0  0  0  0  0  0  0  0  0  0
    8.8603   -0.8445   21.1066 C   0  0  0  0  0  0  0  0  0  0  0  0
    9.4720   -0.0908   20.6404 H   0  0  0  0  0  0  0  0  0  0  0  0
    7.5251   -0.9414   20.7271 N   0  0  0  0  0  0  0  0  0  0  0  0
    6.8469   -0.1444   19.7736 C   0  0  0  0  0  0  0  0  0  0  0  0
    7.3344   -0.0018   18.4616 C   0  0  0  0  0  0  0  0  0  0  0  0
    8.2766   -0.4597   18.1590 H   0  0  0  0  0  0  0  0  0  0  0  0
    6.6940    0.6828   17.5075 N   0  0  0  0  0  0  0  0  0  0  0  0
    5.5493    1.3048   17.8329 C   0  0  0  0  0  0  0  0  0  0  0  0
    5.0593    1.8640   17.0359 H   0  0  0  0  0  0  0  0  0  0  0  0
    5.0061    1.2605   19.1229 C   0  0  0  0  0  0  0  0  0  0  0  0
    4.0991    1.8116   19.3407 H   0  0  0  0  0  0  0  0  0  0  0  0
    5.6579    0.5203   20.1130 C   0  0  0  0  0  0  0  0  0  0  0  0
    5.2855    0.4720   21.1377 H   0  0  0  0  0  0  0  0  0  0  0  0
    6.9540   -1.9174   21.5169 C   0  0  0  0  0  0  0  0  0  0  0  0
    5.7788   -2.5324   21.8728 C   0  0  0  0  0  0  0  0  0  0  0  0
    4.7753   -2.3088   21.6086 H   0  0  0  0  0  0  0  0  0  0  0  0
    5.6685   -4.9910   24.7683 C   0  0  0  0  0  0  0  0  0  0  0  0
    6.3763   -5.7837   24.4964 H   0  0  0  0  0  0  0  0  0  0  0  0
    6.1821   -4.3455   25.4884 H   0  0  0  0  0  0  0  0  0  0  0  0
    4.4276   -5.6162   25.4660 C   0  0  0  0  0  0  0  0  0  0  0  0
    3.8300   -4.7978   25.8973 H   0  0  0  0  0  0  0  0  0  0  0  0
    4.7411   -6.2562   26.2961 H   0  0  0  0  0  0  0  0  0  0  0  0
    2.1912   -8.2703   23.9193 C   0  0  0  0  0  0  0  0  0  0  0  0
    2.3076   -8.0085   22.8785 H   0  0  0  0  0  0  0  0  0  0  0  0
    1.4307   -9.3546   24.3317 C   0  0  0  0  0  0  0  0  0  0  0  0
    0.9230   -9.9931   23.6055 H   0  0  0  0  0  0  0  0  0  0  0  0
    1.3154   -9.5992   25.7020 C   0  0  0  0  0  0  0  0  0  0  0  0
    0.7217  -10.4184   26.0871 H   0  0  0  0  0  0  0  0  0  0  0  0
  1  2  1  0
  2  3  2  0
  3  4  1  0
  4  5  1  0
  5  6  1  0
  6  7  1  0
  6  8  1  0
  6  9  1  0
  9 10  1  0
  9 11  1  0
  9 12  1  0
 12 13  1  0
 13 14  2  0
 14 15  1  0
 15 16  1  0
 16 17  1  0
 16 18  2  0
 18 19  1  0
 18 20  1  0
 20 21  1  0
 21 22  2  0
 22 23  1  0
 22 24  1  0
 24 25  2  0
 25 26  1  0
 25 27  1  0
 27 28  1  0
 27 29  2  0
 29 30  1  0
 20 31  1  0
 31 32  2  0
 32 33  1  0
 12 34  1  0
 34 35  1  0
 34 36  1  0
 34 37  1  0
 37 38  1  0
 37 39  1  0
  4 40  2  0
 40 41  1  0
 40 42  1  0
 42 43  1  0
 42 44  2  0
 44 45  1  0
 44  2  1  0
 37  5  1  0
 32 13  1  0
 31 15  1  0
 29 21  1  0
M  END
>  <cnnaffinity>  (1) 
-5.41035

>  <filename>  (1) 
c1ccc(N2CCN(c3cc4n(-c5cccnc5)ccn4n3)CC2)nc1

$$$$
