
     RDKit          3D

 31 33  0  0  0  0  0  0  0  0999 V2000
   14.5581    0.7732   22.5785 H   0  0  0  0  0  0  0  0  0  0  0  0
   13.4813    0.9339   22.5084 C   0  0  0  0  0  0  0  0  0  0  0  0
   12.7134   -0.1628   22.4803 N   0  0  0  0  0  0  0  0  0  0  0  0
   11.4005    0.0243   22.3180 C   0  0  0  0  0  0  0  0  0  0  0  0
   10.7058   -1.1576   22.2470 N   0  0  0  0  0  0  0  0  0  0  0  0
   11.1123   -1.8890   22.7957 H   0  0  0  0  0  0  0  0  0  0  0  0
    9.3597   -1.3024   22.0755 C   0  0  0  0  0  0  0  0  0  0  0  0
    8.7952   -2.1805   22.9020 N   0  0  0  0  0  0  0  0  0  0  0  0
    7.4584   -2.2885   22.8041 C   0  0  0  0  0  0  0  0  0  0  0  0
    6.9712   -2.9435   23.5260 H   0  0  0  0  0  0  0  0  0  0  0  0
    6.6822   -1.6107   21.8657 C   0  0  0  0  0  0  0  0  0  0  0  0
    5.6121   -1.7598   21.8385 H   0  0  0  0  0  0  0  0  0  0  0  0
    7.3147   -0.7590   20.9463 C   0  0  0  0  0  0  0  0  0  0  0  0
    6.5952   -0.0142   19.8832 C   0  0  0  0  0  0  0  0  0  0  0  0
    7.1400    0.0542   18.5873 C   0  0  0  0  0  0  0  0  0  0  0  0
    8.0875   -0.4413   18.3765 H   0  0  0  0  0  0  0  0  0  0  0  0
    6.5688    0.6841   17.5532 N   0  0  0  0  0  0  0  0  0  0  0  0
    5.4080    1.3159   17.7899 C   0  0  0  0  0  0  0  0  0  0  0  0
    4.9578    1.8233   16.9387 H   0  0  0  0  0  0  0  0  0  0  0  0
    4.7851    1.3372   19.0427 C   0  0  0  0  0  0  0  0  0  0  0  0
    3.8555    1.8802   19.1693 H   0  0  0  0  0  0  0  0  0  0  0  0
    5.3871    0.6650   20.1081 C   0  0  0  0  0  0  0  0  0  0  0  0
    4.9496    0.6873   21.1076 H   0  0  0  0  0  0  0  0  0  0  0  0
    8.6914   -0.6144   21.0657 C   0  0  0  0  0  0  0  0  0  0  0  0
    9.2677    0.0345   20.4236 H   0  0  0  0  0  0  0  0  0  0  0  0
   10.7915    1.2933   22.2794 C   0  0  0  0  0  0  0  0  0  0  0  0
    9.7115    1.3752   22.2862 H   0  0  0  0  0  0  0  0  0  0  0  0
   11.6118    2.4187   22.2969 C   0  0  0  0  0  0  0  0  0  0  0  0
   11.1693    3.4132   22.2418 H   0  0  0  0  0  0  0  0  0  0  0  0
   12.9951    2.2412   22.4180 C   0  0  0  0  0  0  0  0  0  0  0  0
   13.6926    3.0753   22.3972 H   0  0  0  0  0  0  0  0  0  0  0  0
  1  2  1  0
  2  3  2  0
  3  4  1  0
  4  5  1  0
  5  6  1  0
  5  7  1  0
  7  8  2  0
  8  9  1  0
  9 10  1  0
  9 11  2  0
 11 12  1  0
 11 13  1  0
 13 14  1  0
 14 15  2  0
 15 16  1  0
 15 17  1  0
 17 18  2  0
 18 19  1  0
 18 20  1  0
 20 21  1  0
 20 22  2  0
 22 23  1  0
 13 24  2  0
 24 25  1  0
  4 26  2  0
 26 27  1  0
 26 28  1  0
 28 29  1  0
 28 30  2  0
 30 31  1  0
 30  2  1  0
 24  7  1  0
 22 14  1  0
M  END
>  <cnnaffinity>  (1) 
-5.05412

>  <filename>  (1) 
c1ccc(Nc2cc(-c3cccnc3)ccn2)nc1

$$$$
