
     RDKit          3D

 38 41  0  0  0  0  0  0  0  0999 V2000
    4.9799    1.8173   16.9607 H   0  0  0  0  0  0  0  0  0  0  0  0
    5.4133    1.2942   17.8123 C   0  0  0  0  0  0  0  0  0  0  0  0
    6.5632    0.6364   17.5905 N   0  0  0  0  0  0  0  0  0  0  0  0
    7.1358    0.0101   18.6220 C   0  0  0  0  0  0  0  0  0  0  0  0
    8.0679   -0.5119   18.4083 H   0  0  0  0  0  0  0  0  0  0  0  0
    6.6218    0.0260   19.9261 C   0  0  0  0  0  0  0  0  0  0  0  0
    7.3755   -0.6351   20.9947 C   0  0  0  0  0  0  0  0  0  0  0  0
    8.0651   -1.8114   20.7835 N   0  0  0  0  0  0  0  0  0  0  0  0
    8.5116   -2.1307   21.9630 C   0  0  0  0  0  0  0  0  0  0  0  0
    8.2425   -1.2087   22.9201 N   0  0  0  0  0  0  0  0  0  0  0  0
    7.5167   -0.2222   22.3001 C   0  0  0  0  0  0  0  0  0  0  0  0
    7.0983    1.0233   22.9741 C   0  0  0  0  0  0  0  0  0  0  0  0
    6.9882    1.8209   22.2269 H   0  0  0  0  0  0  0  0  0  0  0  0
    7.8942    1.3609   23.6573 H   0  0  0  0  0  0  0  0  0  0  0  0
    5.8605    0.8281   23.6819 N   0  0  0  0  0  0  0  0  0  0  0  0
    5.4490   -0.0919   23.7115 H   0  0  0  0  0  0  0  0  0  0  0  0
    5.2481    1.8207   24.4032 C   0  0  0  0  0  0  0  0  0  0  0  0
    4.0522    1.5171   25.0750 C   0  0  0  0  0  0  0  0  0  0  0  0
    3.6838    0.4953   25.0194 H   0  0  0  0  0  0  0  0  0  0  0  0
    3.3846    2.5104   25.7883 C   0  0  0  0  0  0  0  0  0  0  0  0
    2.4572    2.2628   26.2983 H   0  0  0  0  0  0  0  0  0  0  0  0
    3.9005    3.8119   25.8480 C   0  0  0  0  0  0  0  0  0  0  0  0
    3.3727    4.5814   26.4030 H   0  0  0  0  0  0  0  0  0  0  0  0
    5.0982    4.1115   25.1905 C   0  0  0  0  0  0  0  0  0  0  0  0
    5.5125    5.1163   25.2296 H   0  0  0  0  0  0  0  0  0  0  0  0
    5.7762    3.1244   24.4738 C   0  0  0  0  0  0  0  0  0  0  0  0
    6.7107    3.3431   23.9664 H   0  0  0  0  0  0  0  0  0  0  0  0
    8.8558   -1.3526   24.2264 C   0  0  0  0  0  0  0  0  0  0  0  0
    8.1150   -1.2443   25.0205 H   0  0  0  0  0  0  0  0  0  0  0  0
    9.6090   -0.5753   24.3805 H   0  0  0  0  0  0  0  0  0  0  0  0
    9.5145   -2.7549   24.2566 C   0  0  0  0  0  0  0  0  0  0  0  0
    9.0763   -3.3979   25.0197 H   0  0  0  0  0  0  0  0  0  0  0  0
   10.5896   -2.6911   24.4319 H   0  0  0  0  0  0  0  0  0  0  0  0
    9.2545   -3.5610   22.6364 S   0  0  0  0  0  0  0  0  0  0  0  0
    5.3988    0.6922   20.1341 C   0  0  0  0  0  0  0  0  0  0  0  0
    4.9383    0.7155   21.1189 H   0  0  0  0  0  0  0  0  0  0  0  0
    4.7809    1.3280   19.0579 C   0  0  0  0  0  0  0  0  0  0  0  0
    3.8461    1.8664   19.1780 H   0  0  0  0  0  0  0  0  0  0  0  0
  1  2  1  0
  2  3  2  0
  3  4  1  0
  4  5  1  0
  4  6  2  0
  6  7  1  0
  7  8  1  0
  8  9  2  0
  9 10  1  0
 10 11  1  0
 11 12  1  0
 12 13  1  0
 12 14  1  0
 12 15  1  0
 15 16  1  0
 15 17  1  0
 17 18  2  0
 18 19  1  0
 18 20  1  0
 20 21  1  0
 20 22  2  0
 22 23  1  0
 22 24  1  0
 24 25  1  0
 24 26  2  0
 26 27  1  0
 10 28  1  0
 28 29  1  0
 28 30  1  0
 28 31  1  0
 31 32  1  0
 31 33  1  0
 31 34  1  0
  6 35  1  0
 35 36  1  0
 35 37  2  0
 37 38  1  0
 37  2  1  0
 11  7  2  0
 26 17  1  0
 34  9  1  0
M  END
>  <cnnaffinity>  (1) 
-5.1652

>  <filename>  (1) 
c1ccc(NCc2c(-c3cccnc3)nc3n2CCS3)cc1

$$$$
