
     RDKit          3D

 36 38  0  0  0  0  0  0  0  0999 V2000
    4.9746    1.7978   17.0328 H   0  0  0  0  0  0  0  0  0  0  0  0
    5.4346    1.2798   17.8678 C   0  0  0  0  0  0  0  0  0  0  0  0
    6.5784    0.6307   17.5960 N   0  0  0  0  0  0  0  0  0  0  0  0
    7.1755   -0.0019   18.6058 C   0  0  0  0  0  0  0  0  0  0  0  0
    8.0797   -0.5597   18.3763 H   0  0  0  0  0  0  0  0  0  0  0  0
    6.6867   -0.0128   19.9174 C   0  0  0  0  0  0  0  0  0  0  0  0
    7.4123   -0.6895   20.9169 N   0  0  0  0  0  0  0  0  0  0  0  0
    6.7642   -1.1746   21.9971 N   0  0  0  0  0  0  0  0  0  0  0  0
    7.6950   -1.7715   22.7159 C   0  0  0  0  0  0  0  0  0  0  0  0
    7.2848   -2.3830   23.8738 N   0  0  0  0  0  0  0  0  0  0  0  0
    6.4952   -1.8342   24.1886 H   0  0  0  0  0  0  0  0  0  0  0  0
    8.2307   -2.7861   24.8870 C   0  0  0  0  0  0  0  0  0  0  0  0
    7.6778   -3.3540   25.6495 H   0  0  0  0  0  0  0  0  0  0  0  0
    8.9533   -3.4890   24.4375 H   0  0  0  0  0  0  0  0  0  0  0  0
    8.9848   -1.6173   25.5543 C   0  0  0  0  0  0  0  0  0  0  0  0
    9.6240   -2.0532   26.3338 H   0  0  0  0  0  0  0  0  0  0  0  0
    9.6406   -1.1500   24.8104 H   0  0  0  0  0  0  0  0  0  0  0  0
    8.0881   -0.5850   26.2228 C   0  0  0  0  0  0  0  0  0  0  0  0
    7.6282   -0.8801   27.5126 C   0  0  0  0  0  0  0  0  0  0  0  0
    7.9672   -1.8226   27.9380 H   0  0  0  0  0  0  0  0  0  0  0  0
    6.8030   -0.0019   28.2230 C   0  0  0  0  0  0  0  0  0  0  0  0
    6.4716   -0.2562   29.2309 H   0  0  0  0  0  0  0  0  0  0  0  0
    6.4251    1.2092   27.6284 C   0  0  0  0  0  0  0  0  0  0  0  0
    5.7828    1.9048   28.1662 H   0  0  0  0  0  0  0  0  0  0  0  0
    6.8622    1.5223   26.3349 C   0  0  0  0  0  0  0  0  0  0  0  0
    6.5765    2.4707   25.8814 H   0  0  0  0  0  0  0  0  0  0  0  0
    7.6811    0.6263   25.6286 C   0  0  0  0  0  0  0  0  0  0  0  0
    7.9943    0.8734   24.6138 H   0  0  0  0  0  0  0  0  0  0  0  0
    8.9767   -1.6564   22.1311 C   0  0  0  0  0  0  0  0  0  0  0  0
    9.9106   -2.0285   22.5224 H   0  0  0  0  0  0  0  0  0  0  0  0
    8.7492   -0.9478   20.9738 C   0  0  0  0  0  0  0  0  0  0  0  0
    9.4205   -0.5597   20.2137 H   0  0  0  0  0  0  0  0  0  0  0  0
    5.4690    0.6319   20.1939 C   0  0  0  0  0  0  0  0  0  0  0  0
    5.0387    0.5896   21.1974 H   0  0  0  0  0  0  0  0  0  0  0  0
    4.8413    1.2945   19.1383 C   0  0  0  0  0  0  0  0  0  0  0  0
    3.9041    1.8232   19.2854 H   0  0  0  0  0  0  0  0  0  0  0  0
  1  2  1  0
  2  3  2  0
  3  4  1  0
  4  5  1  0
  4  6  2  0
  6  7  1  0
  7  8  1  0
  8  9  2  0
  9 10  1  0
 10 11  1  0
 10 12  1  0
 12 13  1  0
 12 14  1  0
 12 15  1  0
 15 16  1  0
 15 17  1  0
 15 18  1  0
 18 19  2  0
 19 20  1  0
 19 21  1  0
 21 22  1  0
 21 23  2  0
 23 24  1  0
 23 25  1  0
 25 26  1  0
 25 27  2  0
 27 28  1  0
  9 29  1  0
 29 30  1  0
 29 31  2  0
 31 32  1  0
  6 33  1  0
 33 34  1  0
 33 35  2  0
 35 36  1  0
 35  2  1  0
 31  7  1  0
 27 18  1  0
M  END
>  <cnnaffinity>  (1) 
-4.90818

>  <filename>  (1) 
c1ccc(CCNc2ccn(-c3cccnc3)n2)cc1

$$$$
