
     RDKit          3D

 39 42  0  0  0  0  0  0  0  0999 V2000
    7.0398    7.3186   25.0973 H   0  0  0  0  0  0  0  0  0  0  0  0
    6.2929    6.5314   25.1878 C   0  0  0  0  0  0  0  0  0  0  0  0
    6.5527    5.4025   24.5234 N   0  0  0  0  0  0  0  0  0  0  0  0
    5.6640    4.4038   24.6390 C   0  0  0  0  0  0  0  0  0  0  0  0
    5.9778    3.2154   23.9940 N   0  0  0  0  0  0  0  0  0  0  0  0
    5.4786    1.9065   24.4317 C   0  0  0  0  0  0  0  0  0  0  0  0
    4.5593    1.6145   23.8978 H   0  0  0  0  0  0  0  0  0  0  0  0
    5.2358    1.9238   25.4971 H   0  0  0  0  0  0  0  0  0  0  0  0
    6.5181    0.7865   24.2067 C   0  0  0  0  0  0  0  0  0  0  0  0
    6.0604   -0.1848   24.4060 H   0  0  0  0  0  0  0  0  0  0  0  0
    7.3478    0.8977   24.9211 H   0  0  0  0  0  0  0  0  0  0  0  0
    6.9813    0.7939   22.8193 N   0  0  0  0  0  0  0  0  0  0  0  0
    7.4698   -0.3710   22.2695 C   0  0  0  0  0  0  0  0  0  0  0  0
    8.1097   -1.3521   22.8641 N   0  0  0  0  0  0  0  0  0  0  0  0
    8.4206   -2.2355   21.8860 N   0  0  0  0  0  0  0  0  0  0  0  0
    7.9865   -1.8548   20.7462 N   0  0  0  0  0  0  0  0  0  0  0  0
    7.3643   -0.6656   20.9402 N   0  0  0  0  0  0  0  0  0  0  0  0
    6.6582    0.0063   19.8951 C   0  0  0  0  0  0  0  0  0  0  0  0
    7.1805    0.0490   18.5917 C   0  0  0  0  0  0  0  0  0  0  0  0
    8.1284   -0.4391   18.3747 H   0  0  0  0  0  0  0  0  0  0  0  0
    6.5691    0.6779   17.5845 N   0  0  0  0  0  0  0  0  0  0  0  0
    5.4021    1.2944   17.8421 C   0  0  0  0  0  0  0  0  0  0  0  0
    4.9187    1.7817   16.9994 H   0  0  0  0  0  0  0  0  0  0  0  0
    4.8096    1.3089   19.1084 C   0  0  0  0  0  0  0  0  0  0  0  0
    3.8770    1.8399   19.2594 H   0  0  0  0  0  0  0  0  0  0  0  0
    5.4451    0.6497   20.1634 C   0  0  0  0  0  0  0  0  0  0  0  0
    5.0196    0.6265   21.1668 H   0  0  0  0  0  0  0  0  0  0  0  0
    7.5259    2.0965   22.3952 C   0  0  0  0  0  0  0  0  0  0  0  0
    8.4447    2.3506   22.9464 H   0  0  0  0  0  0  0  0  0  0  0  0
    7.7924    2.0557   21.3351 H   0  0  0  0  0  0  0  0  0  0  0  0
    6.4891    3.2087   22.6138 C   0  0  0  0  0  0  0  0  0  0  0  0
    5.6769    3.0500   21.8819 H   0  0  0  0  0  0  0  0  0  0  0  0
    6.9508    4.1705   22.3867 H   0  0  0  0  0  0  0  0  0  0  0  0
    4.4662    4.5395   25.3811 C   0  0  0  0  0  0  0  0  0  0  0  0
    3.7679    3.7156   25.3942 H   0  0  0  0  0  0  0  0  0  0  0  0
    4.2005    5.7376   26.0335 C   0  0  0  0  0  0  0  0  0  0  0  0
    3.2794    5.8695   26.6039 H   0  0  0  0  0  0  0  0  0  0  0  0
    5.1452    6.7628   25.9442 C   0  0  0  0  0  0  0  0  0  0  0  0
    4.9896    7.7172   26.4311 H   0  0  0  0  0  0  0  0  0  0  0  0
  1  2  1  0
  2  3  2  0
  3  4  1  0
  4  5  1  0
  5  6  1  0
  6  7  1  0
  6  8  1  0
  6  9  1  0
  9 10  1  0
  9 11  1  0
  9 12  1  0
 12 13  1  0
 13 14  2  0
 14 15  1  0
 15 16  2  0
 16 17  1  0
 17 18  1  0
 18 19  2  0
 19 20  1  0
 19 21  1  0
 21 22  2  0
 22 23  1  0
 22 24  1  0
 24 25  1  0
 24 26  2  0
 26 27  1  0
 12 28  1  0
 28 29  1  0
 28 30  1  0
 28 31  1  0
 31 32  1  0
 31 33  1  0
  4 34  2  0
 34 35  1  0
 34 36  1  0
 36 37  1  0
 36 38  2  0
 38 39  1  0
 38  2  1  0
 31  5  1  0
 17 13  1  0
 26 18  1  0
M  END
>  <cnnaffinity>  (1) 
-5.10384

>  <filename>  (1) 
c1ccc(N2CCN(c3nnnn3-c3cccnc3)CC2)nc1

$$$$
