
     RDKit          3D

 38 41  0  0  0  0  0  0  0  0999 V2000
    4.9892    1.8039   16.9667 H   0  0  0  0  0  0  0  0  0  0  0  0
    5.4342    1.2944   17.8202 C   0  0  0  0  0  0  0  0  0  0  0  0
    6.5890    0.6574   17.5842 N   0  0  0  0  0  0  0  0  0  0  0  0
    7.1678    0.0339   18.6127 C   0  0  0  0  0  0  0  0  0  0  0  0
    8.0991   -0.4802   18.3816 H   0  0  0  0  0  0  0  0  0  0  0  0
    6.6413    0.0145   19.9179 C   0  0  0  0  0  0  0  0  0  0  0  0
    7.3770   -0.6473   21.0041 C   0  0  0  0  0  0  0  0  0  0  0  0
    6.9562   -0.6501   22.2308 N   0  0  0  0  0  0  0  0  0  0  0  0
    7.8339   -1.3563   22.9949 N   0  0  0  0  0  0  0  0  0  0  0  0
    7.9366   -1.7122   24.3202 C   0  0  0  0  0  0  0  0  0  0  0  0
    6.9716   -1.2852   25.3744 C   0  0  0  0  0  0  0  0  0  0  0  0
    6.9500   -2.0812   26.1253 H   0  0  0  0  0  0  0  0  0  0  0  0
    5.9765   -1.2337   24.9106 H   0  0  0  0  0  0  0  0  0  0  0  0
    7.3174    0.0595   26.0552 C   0  0  0  0  0  0  0  0  0  0  0  0
    6.5741    0.2162   26.8492 H   0  0  0  0  0  0  0  0  0  0  0  0
    8.2961   -0.0131   26.5516 H   0  0  0  0  0  0  0  0  0  0  0  0
    7.3160    1.2598   25.0901 C   0  0  0  0  0  0  0  0  0  0  0  0
    8.0727    1.1112   24.3108 H   0  0  0  0  0  0  0  0  0  0  0  0
    6.3557    1.2830   24.5567 H   0  0  0  0  0  0  0  0  0  0  0  0
    7.5483    2.6041   25.7605 C   0  0  0  0  0  0  0  0  0  0  0  0
    8.8093    3.2276   25.7087 C   0  0  0  0  0  0  0  0  0  0  0  0
    9.6250    2.7529   25.1621 H   0  0  0  0  0  0  0  0  0  0  0  0
    9.0334    4.4607   26.3323 C   0  0  0  0  0  0  0  0  0  0  0  0
   10.0100    4.9453   26.2592 H   0  0  0  0  0  0  0  0  0  0  0  0
    7.9977    5.0809   27.0375 C   0  0  0  0  0  0  0  0  0  0  0  0
    8.1631    6.0386   27.5236 H   0  0  0  0  0  0  0  0  0  0  0  0
    6.7383    4.4713   27.1087 C   0  0  0  0  0  0  0  0  0  0  0  0
    5.9312    4.9409   27.6672 H   0  0  0  0  0  0  0  0  0  0  0  0
    6.5133    3.2517   26.4615 C   0  0  0  0  0  0  0  0  0  0  0  0
    5.5120    2.8195   26.4622 H   0  0  0  0  0  0  0  0  0  0  0  0
    9.0167   -2.4363   24.4778 N   0  0  0  0  0  0  0  0  0  0  0  0
    9.6543   -2.5645   23.2566 N   0  0  0  0  0  0  0  0  0  0  0  0
    8.9251   -1.9108   22.4041 C   0  0  0  0  0  0  0  0  0  0  0  0
    8.9230   -1.4957   20.7190 S   0  0  0  0  0  0  0  0  0  0  0  0
    5.4148    0.6657   20.1466 C   0  0  0  0  0  0  0  0  0  0  0  0
    4.9567    0.6701   21.1387 H   0  0  0  0  0  0  0  0  0  0  0  0
    4.8091    1.3151   19.0717 C   0  0  0  0  0  0  0  0  0  0  0  0
    3.8780    1.8541   19.1915 H   0  0  0  0  0  0  0  0  0  0  0  0
  1  2  1  0
  2  3  2  0
  3  4  1  0
  4  5  1  0
  4  6  2  0
  6  7  1  0
  7  8  2  0
  8  9  1  0
  9 10  1  0
 10 11  1  0
 11 12  1  0
 11 13  1  0
 11 14  1  0
 14 15  1  0
 14 16  1  0
 14 17  1  0
 17 18  1  0
 17 19  1  0
 17 20  1  0
 20 21  2  0
 21 22  1  0
 21 23  1  0
 23 24  1  0
 23 25  2  0
 25 26  1  0
 25 27  1  0
 27 28  1  0
 27 29  2  0
 29 30  1  0
 10 31  2  0
 31 32  1  0
 32 33  2  0
 33 34  1  0
  6 35  1  0
 35 36  1  0
 35 37  2  0
 37 38  1  0
 37  2  1  0
 34  7  1  0
 33  9  1  0
 29 20  1  0
M  END
>  <cnnaffinity>  (1) 
-5.54445

>  <filename>  (1) 
c1ccc(CCCc2nnc3sc(-c4cccnc4)nn23)cc1

$$$$
