
     RDKit          3D

 37 39  0  0  0  0  0  0  0  0999 V2000
    4.9086    1.8298   16.9505 H   0  0  0  0  0  0  0  0  0  0  0  0
    5.3766    1.3167   17.7916 C   0  0  0  0  0  0  0  0  0  0  0  0
    6.5386    0.6953   17.5291 N   0  0  0  0  0  0  0  0  0  0  0  0
    7.1513    0.0712   18.5423 C   0  0  0  0  0  0  0  0  0  0  0  0
    8.1104   -0.3754   18.2844 H   0  0  0  0  0  0  0  0  0  0  0  0
    6.6474    0.0018   19.8569 C   0  0  0  0  0  0  0  0  0  0  0  0
    7.3485   -0.6704   20.9668 C   0  0  0  0  0  0  0  0  0  0  0  0
    7.2705   -0.4487   22.3270 C   0  0  0  0  0  0  0  0  0  0  0  0
    6.6825    0.2965   22.8487 H   0  0  0  0  0  0  0  0  0  0  0  0
    8.1428   -1.3844   22.9182 C   0  0  0  0  0  0  0  0  0  0  0  0
    8.3812   -1.6130   24.3824 C   0  0  0  0  0  0  0  0  0  0  0  0
    9.4511   -1.7913   24.5521 H   0  0  0  0  0  0  0  0  0  0  0  0
    8.1197   -0.6773   24.8971 H   0  0  0  0  0  0  0  0  0  0  0  0
    7.5337   -2.7774   24.9405 C   0  0  0  0  0  0  0  0  0  0  0  0
    7.8326   -2.9817   25.9771 H   0  0  0  0  0  0  0  0  0  0  0  0
    7.7511   -3.6900   24.3660 H   0  0  0  0  0  0  0  0  0  0  0  0
    6.0160   -2.5140   24.8887 C   0  0  0  0  0  0  0  0  0  0  0  0
    5.7793   -1.5892   25.4355 H   0  0  0  0  0  0  0  0  0  0  0  0
    5.7127   -2.3392   23.8471 H   0  0  0  0  0  0  0  0  0  0  0  0
    5.2249   -3.6688   25.4663 C   0  0  0  0  0  0  0  0  0  0  0  0
    4.9545   -3.7342   26.8416 C   0  0  0  0  0  0  0  0  0  0  0  0
    5.2760   -2.9139   27.4808 H   0  0  0  0  0  0  0  0  0  0  0  0
    4.2957   -4.8379   27.3950 C   0  0  0  0  0  0  0  0  0  0  0  0
    4.0995   -4.8661   28.4650 H   0  0  0  0  0  0  0  0  0  0  0  0
    3.9029   -5.9017   26.5739 C   0  0  0  0  0  0  0  0  0  0  0  0
    3.3905   -6.7611   27.0023 H   0  0  0  0  0  0  0  0  0  0  0  0
    4.1738   -5.8548   25.2011 C   0  0  0  0  0  0  0  0  0  0  0  0
    3.8821   -6.6795   24.5543 H   0  0  0  0  0  0  0  0  0  0  0  0
    4.8321   -4.7461   24.6568 C   0  0  0  0  0  0  0  0  0  0  0  0
    5.0573   -4.7142   23.5927 H   0  0  0  0  0  0  0  0  0  0  0  0
    8.7295   -2.1389   21.9956 N   0  0  0  0  0  0  0  0  0  0  0  0
    8.2453   -1.6841   20.8294 N   0  0  0  0  0  0  0  0  0  0  0  0
    8.5055   -2.1663   19.9837 H   0  0  0  0  0  0  0  0  0  0  0  0
    5.4301    0.6554   20.1036 C   0  0  0  0  0  0  0  0  0  0  0  0
    5.0077    0.6350   21.1073 H   0  0  0  0  0  0  0  0  0  0  0  0
    4.7857    1.3223   19.0610 C   0  0  0  0  0  0  0  0  0  0  0  0
    3.8557    1.8573   19.2192 H   0  0  0  0  0  0  0  0  0  0  0  0
  1  2  1  0
  2  3  2  0
  3  4  1  0
  4  5  1  0
  4  6  2  0
  6  7  1  0
  7  8  2  0
  8  9  1  0
  8 10  1  0
 10 11  1  0
 11 12  1  0
 11 13  1  0
 11 14  1  0
 14 15  1  0
 14 16  1  0
 14 17  1  0
 17 18  1  0
 17 19  1  0
 17 20  1  0
 20 21  2  0
 21 22  1  0
 21 23  1  0
 23 24  1  0
 23 25  2  0
 25 26  1  0
 25 27  1  0
 27 28  1  0
 27 29  2  0
 29 30  1  0
 10 31  2  0
 31 32  1  0
 32 33  1  0
  6 34  1  0
 34 35  1  0
 34 36  2  0
 36 37  1  0
 36  2  1  0
 32  7  1  0
 29 20  1  0
M  END
>  <cnnaffinity>  (1) 
-5.09147

>  <filename>  (1) 
c1ccc(CCCc2cc(-c3cccnc3)[nH]n2)cc1

$$$$
