
     RDKit          3D

 30 33  0  0  0  0  0  0  0  0999 V2000
    9.5457   -0.2469   28.4415 H   0  0  0  0  0  0  0  0  0  0  0  0
    8.5781    0.2352   28.2775 C   0  0  0  0  0  0  0  0  0  0  0  0
    8.1236    0.2029   27.0213 N   0  0  0  0  0  0  0  0  0  0  0  0
    6.9717    0.8140   26.7848 C   0  0  0  0  0  0  0  0  0  0  0  0
    6.5618    0.7858   25.4838 N   0  0  0  0  0  0  0  0  0  0  0  0
    5.7911    1.3620   25.1992 H   0  0  0  0  0  0  0  0  0  0  0  0
    7.0945    0.0789   24.4495 C   0  0  0  0  0  0  0  0  0  0  0  0
    6.6220    0.3455   23.2648 N   0  0  0  0  0  0  0  0  0  0  0  0
    7.2705   -0.4695   22.3579 N   0  0  0  0  0  0  0  0  0  0  0  0
    7.3841   -0.6501   20.9818 C   0  0  0  0  0  0  0  0  0  0  0  0
    6.6432    0.0307   19.9199 C   0  0  0  0  0  0  0  0  0  0  0  0
    7.1663    0.0477   18.6098 C   0  0  0  0  0  0  0  0  0  0  0  0
    8.1114   -0.4395   18.3681 H   0  0  0  0  0  0  0  0  0  0  0  0
    6.5628    0.6622   17.5913 N   0  0  0  0  0  0  0  0  0  0  0  0
    5.4003    1.2887   17.8363 C   0  0  0  0  0  0  0  0  0  0  0  0
    4.9355    1.7913   16.9900 H   0  0  0  0  0  0  0  0  0  0  0  0
    4.7949    1.3105   19.0964 C   0  0  0  0  0  0  0  0  0  0  0  0
    3.8654    1.8473   19.2367 H   0  0  0  0  0  0  0  0  0  0  0  0
    5.4205    0.6674   20.1598 C   0  0  0  0  0  0  0  0  0  0  0  0
    4.9976    0.6592   21.1625 H   0  0  0  0  0  0  0  0  0  0  0  0
    8.2860   -1.5722   20.7515 N   0  0  0  0  0  0  0  0  0  0  0  0
    8.7916   -2.0241   21.9419 N   0  0  0  0  0  0  0  0  0  0  0  0
    8.1774   -1.3429   22.8718 C   0  0  0  0  0  0  0  0  0  0  0  0
    8.3130   -1.1991   24.5829 S   0  0  0  0  0  0  0  0  0  0  0  0
    6.1887    1.4446   27.7682 C   0  0  0  0  0  0  0  0  0  0  0  0
    5.2409    1.8841   27.4896 H   0  0  0  0  0  0  0  0  0  0  0  0
    6.6607    1.4455   29.0794 C   0  0  0  0  0  0  0  0  0  0  0  0
    6.0873    1.9000   29.8930 H   0  0  0  0  0  0  0  0  0  0  0  0
    7.8973    0.8362   29.3346 C   0  0  0  0  0  0  0  0  0  0  0  0
    8.3423    0.7987   30.3214 H   0  0  0  0  0  0  0  0  0  0  0  0
  1  2  1  0
  2  3  2  0
  3  4  1  0
  4  5  1  0
  5  6  1  0
  5  7  1  0
  7  8  2  0
  8  9  1  0
  9 10  1  0
 10 11  1  0
 11 12  2  0
 12 13  1  0
 12 14  1  0
 14 15  2  0
 15 16  1  0
 15 17  1  0
 17 18  1  0
 17 19  2  0
 19 20  1  0
 10 21  2  0
 21 22  1  0
 22 23  2  0
 23 24  1  0
  4 25  2  0
 25 26  1  0
 25 27  1  0
 27 28  1  0
 27 29  2  0
 29 30  1  0
 29  2  1  0
 24  7  1  0
 23  9  1  0
 19 11  1  0
M  END
>  <cnnaffinity>  (1) 
-5.10119

>  <filename>  (1) 
c1ccc(Nc2nn3c(-c4cccnc4)nnc3s2)nc1

$$$$
