
     RDKit          3D

 36 38  0  0  0  0  0  0  0  0999 V2000
    4.9170    1.7860   16.9920 H   0  0  0  0  0  0  0  0  0  0  0  0
    5.3968    1.2971   17.8364 C   0  0  0  0  0  0  0  0  0  0  0  0
    6.5597    0.6813   17.5753 N   0  0  0  0  0  0  0  0  0  0  0  0
    7.1633    0.0677   18.5983 C   0  0  0  0  0  0  0  0  0  0  0  0
    8.1122   -0.4159   18.3729 H   0  0  0  0  0  0  0  0  0  0  0  0
    6.6461    0.0093   19.9034 C   0  0  0  0  0  0  0  0  0  0  0  0
    7.4137   -0.7069   20.9878 C   0  0  0  0  0  0  0  0  0  0  0  0
    7.5373   -1.7614   20.7234 H   0  0  0  0  0  0  0  0  0  0  0  0
    6.8440   -0.6853   21.9225 H   0  0  0  0  0  0  0  0  0  0  0  0
    8.7379   -0.1395   21.2267 N   0  0  0  0  0  0  0  0  0  0  0  0
    9.9446   -0.7473   21.0042 C   0  0  0  0  0  0  0  0  0  0  0  0
    9.9971   -1.7654   20.6359 H   0  0  0  0  0  0  0  0  0  0  0  0
   10.9550    0.0327   21.2917 N   0  0  0  0  0  0  0  0  0  0  0  0
   10.3857    1.2055   21.7100 C   0  0  0  0  0  0  0  0  0  0  0  0
   10.9907    2.0492   22.0184 H   0  0  0  0  0  0  0  0  0  0  0  0
    9.0225    1.1381   21.6860 C   0  0  0  0  0  0  0  0  0  0  0  0
    8.0218    2.2095   21.9917 C   0  0  0  0  0  0  0  0  0  0  0  0
    8.5733    3.1274   22.2419 H   0  0  0  0  0  0  0  0  0  0  0  0
    7.4356    2.4526   21.0927 H   0  0  0  0  0  0  0  0  0  0  0  0
    7.1278    1.8324   23.0639 N   0  0  0  0  0  0  0  0  0  0  0  0
    7.3914    1.0479   23.6290 H   0  0  0  0  0  0  0  0  0  0  0  0
    5.9532    2.4764   23.3840 C   0  0  0  0  0  0  0  0  0  0  0  0
    5.6021    3.7017   22.7856 C   0  0  0  0  0  0  0  0  0  0  0  0
    6.2841    4.1593   22.0756 H   0  0  0  0  0  0  0  0  0  0  0  0
    4.3918    4.3179   23.1064 C   0  0  0  0  0  0  0  0  0  0  0  0
    4.1405    5.2590   22.6264 H   0  0  0  0  0  0  0  0  0  0  0  0
    3.5142    3.7381   24.0243 C   0  0  0  0  0  0  0  0  0  0  0  0
    2.5748    4.2288   24.2679 H   0  0  0  0  0  0  0  0  0  0  0  0
    3.8636    2.5250   24.6264 C   0  0  0  0  0  0  0  0  0  0  0  0
    3.1914    2.0693   25.3478 H   0  0  0  0  0  0  0  0  0  0  0  0
    5.0708    1.8929   24.3191 C   0  0  0  0  0  0  0  0  0  0  0  0
    5.3387    0.9481   24.7872 H   0  0  0  0  0  0  0  0  0  0  0  0
    5.4298    0.6522   20.1545 C   0  0  0  0  0  0  0  0  0  0  0  0
    5.0010    0.6429   21.1621 H   0  0  0  0  0  0  0  0  0  0  0  0
    4.7965    1.3171   19.0998 C   0  0  0  0  0  0  0  0  0  0  0  0
    3.8651    1.8502   19.2487 H   0  0  0  0  0  0  0  0  0  0  0  0
  1  2  1  0
  2  3  2  0
  3  4  1  0
  4  5  1  0
  4  6  2  0
  6  7  1  0
  7  8  1  0
  7  9  1  0
  7 10  1  0
 10 11  1  0
 11 12  1  0
 11 13  2  0
 13 14  1  0
 14 15  1  0
 14 16  2  0
 16 17  1  0
 17 18  1  0
 17 19  1  0
 17 20  1  0
 20 21  1  0
 20 22  1  0
 22 23  2  0
 23 24  1  0
 23 25  1  0
 25 26  1  0
 25 27  2  0
 27 28  1  0
 27 29  1  0
 29 30  1  0
 29 31  2  0
 31 32  1  0
  6 33  1  0
 33 34  1  0
 33 35  2  0
 35 36  1  0
 35  2  1  0
 16 10  1  0
 31 22  1  0
M  END
>  <cnnaffinity>  (1) 
-4.95118

>  <filename>  (1) 
c1ccc(NCc2cncn2Cc2cccnc2)cc1

$$$$
