
     RDKit          3D

 39 42  0  0  0  0  0  0  0  0999 V2000
    4.9427    1.8064   16.9793 H   0  0  0  0  0  0  0  0  0  0  0  0
    5.4011    1.2893   17.8199 C   0  0  0  0  0  0  0  0  0  0  0  0
    6.5607    0.6622   17.5670 N   0  0  0  0  0  0  0  0  0  0  0  0
    7.1605    0.0322   18.5809 C   0  0  0  0  0  0  0  0  0  0  0  0
    8.1116   -0.4435   18.3389 H   0  0  0  0  0  0  0  0  0  0  0  0
    6.6374   -0.0076   19.8895 C   0  0  0  0  0  0  0  0  0  0  0  0
    7.3704   -0.6595   20.9783 C   0  0  0  0  0  0  0  0  0  0  0  0
    8.2658   -1.6264   20.7463 N   0  0  0  0  0  0  0  0  0  0  0  0
    8.7319   -1.9176   21.9548 N   0  0  0  0  0  0  0  0  0  0  0  0
    8.2256   -1.2088   22.9692 C   0  0  0  0  0  0  0  0  0  0  0  0
    7.3214   -0.3509   22.3763 C   0  0  0  0  0  0  0  0  0  0  0  0
    6.5891    0.6564   22.9123 O   0  0  0  0  0  0  0  0  0  0  0  0
    6.6943    0.8298   24.3242 C   0  0  0  0  0  0  0  0  0  0  0  0
    7.7380    1.0377   24.5979 H   0  0  0  0  0  0  0  0  0  0  0  0
    6.3882   -0.1034   24.8166 H   0  0  0  0  0  0  0  0  0  0  0  0
    5.7867    1.9705   24.6916 C   0  0  0  0  0  0  0  0  0  0  0  0
    4.4188    1.7319   24.8831 C   0  0  0  0  0  0  0  0  0  0  0  0
    4.0439    0.7119   24.8164 H   0  0  0  0  0  0  0  0  0  0  0  0
    3.5498    2.7902   25.1562 C   0  0  0  0  0  0  0  0  0  0  0  0
    2.4935    2.5936   25.3176 H   0  0  0  0  0  0  0  0  0  0  0  0
    4.0438    4.0977   25.2284 C   0  0  0  0  0  0  0  0  0  0  0  0
    3.3704    4.9231   25.4393 H   0  0  0  0  0  0  0  0  0  0  0  0
    5.4057    4.3439   25.0220 C   0  0  0  0  0  0  0  0  0  0  0  0
    5.7947    5.3574   25.0714 H   0  0  0  0  0  0  0  0  0  0  0  0
    6.2730    3.2829   24.7516 C   0  0  0  0  0  0  0  0  0  0  0  0
    7.3314    3.4753   24.5817 H   0  0  0  0  0  0  0  0  0  0  0  0
    8.9402   -1.5373   24.2517 C   0  0  0  0  0  0  0  0  0  0  0  0
    9.4799   -0.6484   24.6088 H   0  0  0  0  0  0  0  0  0  0  0  0
    8.2613   -1.8490   25.0574 H   0  0  0  0  0  0  0  0  0  0  0  0
    9.9183   -2.6748   23.8264 C   0  0  0  0  0  0  0  0  0  0  0  0
   10.9459   -2.4026   24.0409 H   0  0  0  0  0  0  0  0  0  0  0  0
    9.7146   -3.6093   24.3460 H   0  0  0  0  0  0  0  0  0  0  0  0
    9.7134   -2.9040   22.3054 C   0  0  0  0  0  0  0  0  0  0  0  0
    9.2947   -3.8932   22.1078 H   0  0  0  0  0  0  0  0  0  0  0  0
   10.6100   -2.7468   21.7033 H   0  0  0  0  0  0  0  0  0  0  0  0
    5.4209    0.6528   20.1326 C   0  0  0  0  0  0  0  0  0  0  0  0
    5.0045    0.6673   21.1389 H   0  0  0  0  0  0  0  0  0  0  0  0
    4.7925    1.3053   19.0786 C   0  0  0  0  0  0  0  0  0  0  0  0
    3.8641    1.8465   19.2260 H   0  0  0  0  0  0  0  0  0  0  0  0
  1  2  1  0
  2  3  2  0
  3  4  1  0
  4  5  1  0
  4  6  2  0
  6  7  1  0
  7  8  2  0
  8  9  1  0
  9 10  1  0
 10 11  2  0
 11 12  1  0
 12 13  1  0
 13 14  1  0
 13 15  1  0
 13 16  1  0
 16 17  2  0
 17 18  1  0
 17 19  1  0
 19 20  1  0
 19 21  2  0
 21 22  1  0
 21 23  1  0
 23 24  1  0
 23 25  2  0
 25 26  1  0
 10 27  1  0
 27 28  1  0
 27 29  1  0
 27 30  1  0
 30 31  1  0
 30 32  1  0
 30 33  1  0
 33 34  1  0
 33 35  1  0
  6 36  1  0
 36 37  1  0
 36 38  2  0
 38 39  1  0
 38  2  1  0
 11  7  1  0
 25 16  1  0
 33  9  1  0
M  END
>  <cnnaffinity>  (1) 
-5.48108

>  <filename>  (1) 
c1ccc(COc2c(-c3cccnc3)nn3c2CCC3)cc1

$$$$
