
     RDKit          3D

 31 33  0  0  0  0  0  0  0  0999 V2000
    4.9489    1.8350   16.9513 H   0  0  0  0  0  0  0  0  0  0  0  0
    5.4043    1.3211   17.7934 C   0  0  0  0  0  0  0  0  0  0  0  0
    6.5647    0.6936   17.5395 N   0  0  0  0  0  0  0  0  0  0  0  0
    7.1435    0.0526   18.5614 C   0  0  0  0  0  0  0  0  0  0  0  0
    8.0888   -0.4444   18.3427 H   0  0  0  0  0  0  0  0  0  0  0  0
    6.6015   -0.0316   19.8608 C   0  0  0  0  0  0  0  0  0  0  0  0
    7.3005   -0.7897   20.9347 C   0  0  0  0  0  0  0  0  0  0  0  0
    6.6226   -1.6017   21.8643 C   0  0  0  0  0  0  0  0  0  0  0  0
    5.5469   -1.7398   21.7880 H   0  0  0  0  0  0  0  0  0  0  0  0
    7.2361   -2.2766   22.8497 N   0  0  0  0  0  0  0  0  0  0  0  0
    8.5633   -2.1435   22.9809 C   0  0  0  0  0  0  0  0  0  0  0  0
    9.0405   -2.6887   23.7947 H   0  0  0  0  0  0  0  0  0  0  0  0
    9.3329   -1.3334   22.1217 C   0  0  0  0  0  0  0  0  0  0  0  0
   10.6950   -1.2710   22.3219 O   0  0  0  0  0  0  0  0  0  0  0  0
   11.4024   -0.0817   22.2796 C   0  0  0  0  0  0  0  0  0  0  0  0
   12.7973   -0.2202   22.3233 C   0  0  0  0  0  0  0  0  0  0  0  0
   13.2126   -1.2212   22.3061 H   0  0  0  0  0  0  0  0  0  0  0  0
   13.6113    0.9075   22.4162 C   0  0  0  0  0  0  0  0  0  0  0  0
   14.6925    0.8101   22.4340 H   0  0  0  0  0  0  0  0  0  0  0  0
   13.0395    2.1855   22.4408 C   0  0  0  0  0  0  0  0  0  0  0  0
   13.6740    3.0635   22.5074 H   0  0  0  0  0  0  0  0  0  0  0  0
   11.6535    2.3182   22.3731 C   0  0  0  0  0  0  0  0  0  0  0  0
   11.2020    3.3069   22.3774 H   0  0  0  0  0  0  0  0  0  0  0  0
   10.8218    1.1909   22.3351 C   0  0  0  0  0  0  0  0  0  0  0  0
    9.7425    1.3039   22.3808 H   0  0  0  0  0  0  0  0  0  0  0  0
    8.6937   -0.6825   21.0673 C   0  0  0  0  0  0  0  0  0  0  0  0
    9.2739   -0.0505   20.3984 H   0  0  0  0  0  0  0  0  0  0  0  0
    5.3947    0.6441   20.1015 C   0  0  0  0  0  0  0  0  0  0  0  0
    4.9686    0.6559   21.1059 H   0  0  0  0  0  0  0  0  0  0  0  0
    4.7879    1.3278   19.0485 C   0  0  0  0  0  0  0  0  0  0  0  0
    3.8605    1.8697   19.1892 H   0  0  0  0  0  0  0  0  0  0  0  0
  1  2  1  0
  2  3  2  0
  3  4  1  0
  4  5  1  0
  4  6  2  0
  6  7  1  0
  7  8  2  0
  8  9  1  0
  8 10  1  0
 10 11  2  0
 11 12  1  0
 11 13  1  0
 13 14  1  0
 14 15  1  0
 15 16  2  0
 16 17  1  0
 16 18  1  0
 18 19  1  0
 18 20  2  0
 20 21  1  0
 20 22  1  0
 22 23  1  0
 22 24  2  0
 24 25  1  0
 13 26  2  0
 26 27  1  0
  6 28  1  0
 28 29  1  0
 28 30  2  0
 30 31  1  0
 30  2  1  0
 26  7  1  0
 24 15  1  0
M  END
>  <cnnaffinity>  (1) 
-4.87676

>  <filename>  (1) 
c1ccc(Oc2cncc(-c3cccnc3)c2)cc1

$$$$
