
     RDKit          3D

 40 43  0  0  0  0  0  0  0  0999 V2000
    4.9114    1.7985   16.9796 H   0  0  0  0  0  0  0  0  0  0  0  0
    5.3879    1.3053   17.8203 C   0  0  0  0  0  0  0  0  0  0  0  0
    6.5528    0.6907   17.5512 N   0  0  0  0  0  0  0  0  0  0  0  0
    7.1578    0.0650   18.5673 C   0  0  0  0  0  0  0  0  0  0  0  0
    8.1150   -0.4001   18.3344 H   0  0  0  0  0  0  0  0  0  0  0  0
    6.6505    0.0138   19.8828 C   0  0  0  0  0  0  0  0  0  0  0  0
    7.3693   -0.6566   20.9732 C   0  0  0  0  0  0  0  0  0  0  0  0
    7.5149   -0.3219   22.3147 C   0  0  0  0  0  0  0  0  0  0  0  0
    7.0297    0.8343   22.9287 N   0  0  0  0  0  0  0  0  0  0  0  0
    6.9818    1.6464   22.3365 H   0  0  0  0  0  0  0  0  0  0  0  0
    6.8174    1.0296   24.2943 C   0  0  0  0  0  0  0  0  0  0  0  0
    6.3530   -0.0257   25.0922 C   0  0  0  0  0  0  0  0  0  0  0  0
    6.1739   -0.9799   24.6073 H   0  0  0  0  0  0  0  0  0  0  0  0
    6.1488    0.1697   26.4564 C   0  0  0  0  0  0  0  0  0  0  0  0
    5.7927   -0.6560   27.0637 H   0  0  0  0  0  0  0  0  0  0  0  0
    6.3872    1.4165   27.0327 C   0  0  0  0  0  0  0  0  0  0  0  0
    6.2338    1.5593   28.0982 H   0  0  0  0  0  0  0  0  0  0  0  0
    6.8385    2.4957   26.2480 C   0  0  0  0  0  0  0  0  0  0  0  0
    7.0830    3.8328   26.8742 C   0  0  0  0  0  0  0  0  0  0  0  0
    8.2044    4.6045   26.5176 C   0  0  0  0  0  0  0  0  0  0  0  0
    8.9015    4.2059   25.7831 H   0  0  0  0  0  0  0  0  0  0  0  0
    8.4338    5.8534   27.0992 C   0  0  0  0  0  0  0  0  0  0  0  0
    9.3011    6.4352   26.7945 H   0  0  0  0  0  0  0  0  0  0  0  0
    7.5396    6.3595   28.0502 C   0  0  0  0  0  0  0  0  0  0  0  0
    7.7122    7.3354   28.4990 H   0  0  0  0  0  0  0  0  0  0  0  0
    6.4182    5.6048   28.4173 C   0  0  0  0  0  0  0  0  0  0  0  0
    5.7199    5.9854   29.1602 H   0  0  0  0  0  0  0  0  0  0  0  0
    6.1975    4.3536   27.8368 C   0  0  0  0  0  0  0  0  0  0  0  0
    5.3196    3.7736   28.1173 H   0  0  0  0  0  0  0  0  0  0  0  0
    7.0424    2.2854   24.8726 C   0  0  0  0  0  0  0  0  0  0  0  0
    7.3887    3.1046   24.2470 H   0  0  0  0  0  0  0  0  0  0  0  0
    8.2891   -1.3766   22.8624 C   0  0  0  0  0  0  0  0  0  0  0  0
    8.6243   -1.4651   23.8854 H   0  0  0  0  0  0  0  0  0  0  0  0
    8.6040   -2.2897   21.9518 N   0  0  0  0  0  0  0  0  0  0  0  0
    8.0478   -1.8238   20.8237 N   0  0  0  0  0  0  0  0  0  0  0  0
    8.1328   -2.3623   19.9778 H   0  0  0  0  0  0  0  0  0  0  0  0
    5.4325    0.6621   20.1418 C   0  0  0  0  0  0  0  0  0  0  0  0
    5.0187    0.6263   21.1525 H   0  0  0  0  0  0  0  0  0  0  0  0
    4.7943    1.3191   19.0888 C   0  0  0  0  0  0  0  0  0  0  0  0
    3.8645    1.8488   19.2452 H   0  0  0  0  0  0  0  0  0  0  0  0
  1  2  1  0
  2  3  2  0
  3  4  1  0
  4  5  1  0
  4  6  2  0
  6  7  1  0
  7  8  2  0
  8  9  1  0
  9 10  1  0
  9 11  1  0
 11 12  2  0
 12 13  1  0
 12 14  1  0
 14 15  1  0
 14 16  2  0
 16 17  1  0
 16 18  1  0
 18 19  1  0
 19 20  2  0
 20 21  1  0
 20 22  1  0
 22 23  1  0
 22 24  2  0
 24 25  1  0
 24 26  1  0
 26 27  1  0
 26 28  2  0
 28 29  1  0
 18 30  2  0
 30 31  1  0
  8 32  1  0
 32 33  1  0
 32 34  2  0
 34 35  1  0
 35 36  1  0
  6 37  1  0
 37 38  1  0
 37 39  2  0
 39 40  1  0
 39  2  1  0
 35  7  1  0
 30 11  1  0
 28 19  1  0
M  END
>  <cnnaffinity>  (1) 
-5.47066

>  <filename>  (1) 
c1ccc(-c2cccc(Nc3cn[nH]c3-c3cccnc3)c2)cc1

$$$$
