
     RDKit          3D

 39 41  0  0  0  0  0  0  0  0999 V2000
    4.9192    1.8105   16.9821 H   0  0  0  0  0  0  0  0  0  0  0  0
    5.3916    1.3029   17.8237 C   0  0  0  0  0  0  0  0  0  0  0  0
    6.5509    0.6818   17.5659 N   0  0  0  0  0  0  0  0  0  0  0  0
    7.1729    0.0651   18.5777 C   0  0  0  0  0  0  0  0  0  0  0  0
    8.1097   -0.4282   18.3329 H   0  0  0  0  0  0  0  0  0  0  0  0
    6.6728    0.0164   19.9002 C   0  0  0  0  0  0  0  0  0  0  0  0
    7.3458   -0.6618   20.9707 N   0  0  0  0  0  0  0  0  0  0  0  0
    6.8360   -1.6392   21.7891 C   0  0  0  0  0  0  0  0  0  0  0  0
    5.8302   -2.0149   21.6864 H   0  0  0  0  0  0  0  0  0  0  0  0
    7.7164   -2.0551   22.6529 N   0  0  0  0  0  0  0  0  0  0  0  0
    8.8597   -1.3248   22.4383 N   0  0  0  0  0  0  0  0  0  0  0  0
    8.6288   -0.4977   21.4545 C   0  0  0  0  0  0  0  0  0  0  0  0
    9.5463    0.5665   20.9511 C   0  0  0  0  0  0  0  0  0  0  0  0
   10.5463    0.3546   21.3449 H   0  0  0  0  0  0  0  0  0  0  0  0
    9.6005    0.4865   19.8638 H   0  0  0  0  0  0  0  0  0  0  0  0
    9.0836    1.9922   21.3182 C   0  0  0  0  0  0  0  0  0  0  0  0
    9.8273    2.7128   20.9546 H   0  0  0  0  0  0  0  0  0  0  0  0
    8.1522    2.2060   20.7754 H   0  0  0  0  0  0  0  0  0  0  0  0
    8.8603    2.2030   22.8239 C   0  0  0  0  0  0  0  0  0  0  0  0
    8.1042    1.4834   23.1746 H   0  0  0  0  0  0  0  0  0  0  0  0
    8.4361    3.2037   22.9826 H   0  0  0  0  0  0  0  0  0  0  0  0
   10.1345    2.0661   23.6907 C   0  0  0  0  0  0  0  0  0  0  0  0
    9.8490    2.1584   24.7496 H   0  0  0  0  0  0  0  0  0  0  0  0
   10.5361    1.0466   23.5862 H   0  0  0  0  0  0  0  0  0  0  0  0
   11.1953    3.1095   23.3548 C   0  0  0  0  0  0  0  0  0  0  0  0
   12.3372    2.7990   22.5937 C   0  0  0  0  0  0  0  0  0  0  0  0
   12.4733    1.7762   22.2405 H   0  0  0  0  0  0  0  0  0  0  0  0
   13.2745    3.7951   22.2867 C   0  0  0  0  0  0  0  0  0  0  0  0
   14.2074    3.6013   21.7756 H   0  0  0  0  0  0  0  0  0  0  0  0
   13.0639    5.1130   22.6860 C   0  0  0  0  0  0  0  0  0  0  0  0
   13.8076    5.8527   22.4046 H   0  0  0  0  0  0  0  0  0  0  0  0
   11.9333    5.4454   23.4364 C   0  0  0  0  0  0  0  0  0  0  0  0
   11.7812    6.4733   23.7625 H   0  0  0  0  0  0  0  0  0  0  0  0
   11.0129    4.4455   23.7679 C   0  0  0  0  0  0  0  0  0  0  0  0
   10.1222    4.6934   24.3409 H   0  0  0  0  0  0  0  0  0  0  0  0
    5.4504    0.6521   20.1493 C   0  0  0  0  0  0  0  0  0  0  0  0
    5.0438    0.6281   21.1598 H   0  0  0  0  0  0  0  0  0  0  0  0
    4.8098    1.3112   19.0946 C   0  0  0  0  0  0  0  0  0  0  0  0
    3.8781    1.8376   19.2461 H   0  0  0  0  0  0  0  0  0  0  0  0
  1  2  1  0
  2  3  2  0
  3  4  1  0
  4  5  1  0
  4  6  2  0
  6  7  1  0
  7  8  1  0
  8  9  1  0
  8 10  2  0
 10 11  1  0
 11 12  2  0
 12 13  1  0
 13 14  1  0
 13 15  1  0
 13 16  1  0
 16 17  1  0
 16 18  1  0
 16 19  1  0
 19 20  1  0
 19 21  1  0
 19 22  1  0
 22 23  1  0
 22 24  1  0
 22 25  1  0
 25 26  2  0
 26 27  1  0
 26 28  1  0
 28 29  1  0
 28 30  2  0
 30 31  1  0
 30 32  1  0
 32 33  1  0
 32 34  2  0
 34 35  1  0
  6 36  1  0
 36 37  1  0
 36 38  2  0
 38 39  1  0
 38  2  1  0
 12  7  1  0
 34 25  1  0
M  END
>  <cnnaffinity>  (1) 
-5.12524

>  <filename>  (1) 
c1ccc(CCCCc2nncn2-c2cccnc2)cc1

$$$$
