
     RDKit          3D

 37 39  0  0  0  0  0  0  0  0999 V2000
    9.4620   -0.3109   20.3574 H   0  0  0  0  0  0  0  0  0  0  0  0
    8.7915   -0.7842   21.0687 C   0  0  0  0  0  0  0  0  0  0  0  0
    9.3698   -1.4330   22.0713 N   0  0  0  0  0  0  0  0  0  0  0  0
    8.5946   -2.0148   23.0051 N   0  0  0  0  0  0  0  0  0  0  0  0
    7.2612   -1.9002   22.9057 C   0  0  0  0  0  0  0  0  0  0  0  0
    6.3626   -2.5314   23.9368 C   0  0  0  0  0  0  0  0  0  0  0  0
    6.9676   -2.8887   24.7771 H   0  0  0  0  0  0  0  0  0  0  0  0
    5.6939   -1.7592   24.3303 H   0  0  0  0  0  0  0  0  0  0  0  0
    5.5539   -3.6925   23.3202 C   0  0  0  0  0  0  0  0  0  0  0  0
    4.9515   -3.3279   22.4790 H   0  0  0  0  0  0  0  0  0  0  0  0
    4.8468   -4.0635   24.0719 H   0  0  0  0  0  0  0  0  0  0  0  0
    6.4833   -4.8430   22.8790 C   0  0  0  0  0  0  0  0  0  0  0  0
    7.1878   -4.4873   22.1152 H   0  0  0  0  0  0  0  0  0  0  0  0
    5.8875   -5.6318   22.4006 H   0  0  0  0  0  0  0  0  0  0  0  0
    7.2177   -5.4021   24.0798 C   0  0  0  0  0  0  0  0  0  0  0  0
    8.6140   -5.3224   24.2566 C   0  0  0  0  0  0  0  0  0  0  0  0
    9.2276   -4.7641   23.5507 H   0  0  0  0  0  0  0  0  0  0  0  0
    9.2014   -5.8343   25.4242 C   0  0  0  0  0  0  0  0  0  0  0  0
   10.2800   -5.7816   25.5730 H   0  0  0  0  0  0  0  0  0  0  0  0
    8.3991   -6.3736   26.4350 C   0  0  0  0  0  0  0  0  0  0  0  0
    8.8219   -6.7117   27.3667 H   0  0  0  0  0  0  0  0  0  0  0  0
    7.0135   -6.4343   26.2777 C   0  0  0  0  0  0  0  0  0  0  0  0
    6.3713   -6.8486   27.0544 H   0  0  0  0  0  0  0  0  0  0  0  0
    6.4295   -5.9253   25.1234 C   0  0  0  0  0  0  0  0  0  0  0  0
    5.3483   -5.9321   25.0235 H   0  0  0  0  0  0  0  0  0  0  0  0
    6.6185   -1.2811   21.8970 N   0  0  0  0  0  0  0  0  0  0  0  0
    7.3757   -0.7005   20.9718 C   0  0  0  0  0  0  0  0  0  0  0  0
    6.6471    0.0101   19.9016 C   0  0  0  0  0  0  0  0  0  0  0  0
    7.1591    0.0249   18.5992 C   0  0  0  0  0  0  0  0  0  0  0  0
    8.0822   -0.5084   18.3742 H   0  0  0  0  0  0  0  0  0  0  0  0
    6.5781    0.6504   17.5730 N   0  0  0  0  0  0  0  0  0  0  0  0
    5.4314    1.3001   17.8197 C   0  0  0  0  0  0  0  0  0  0  0  0
    4.9814    1.8176   16.9753 H   0  0  0  0  0  0  0  0  0  0  0  0
    4.8156    1.3236   19.0760 C   0  0  0  0  0  0  0  0  0  0  0  0
    3.8842    1.8618   19.2071 H   0  0  0  0  0  0  0  0  0  0  0  0
    5.4217    0.6584   20.1376 C   0  0  0  0  0  0  0  0  0  0  0  0
    4.9616    0.6324   21.1290 H   0  0  0  0  0  0  0  0  0  0  0  0
  1  2  1  0
  2  3  2  0
  3  4  1  0
  4  5  2  0
  5  6  1  0
  6  7  1  0
  6  8  1  0
  6  9  1  0
  9 10  1  0
  9 11  1  0
  9 12  1  0
 12 13  1  0
 12 14  1  0
 12 15  1  0
 15 16  2  0
 16 17  1  0
 16 18  1  0
 18 19  1  0
 18 20  2  0
 20 21  1  0
 20 22  1  0
 22 23  1  0
 22 24  2  0
 24 25  1  0
  5 26  1  0
 26 27  2  0
 27 28  1  0
 28 29  2  0
 29 30  1  0
 29 31  1  0
 31 32  2  0
 32 33  1  0
 32 34  1  0
 34 35  1  0
 34 36  2  0
 36 37  1  0
 27  2  1  0
 36 28  1  0
 24 15  1  0
M  END
>  <cnnaffinity>  (1) 
-5.08071

>  <filename>  (1) 
c1ccc(CCCc2nncc(-c3cccnc3)n2)cc1

$$$$
