
     RDKit          3D

 45 49  0  0  0  0  0  0  0  0999 V2000
    4.9755    1.8711   16.9274 H   0  0  0  0  0  0  0  0  0  0  0  0
    5.4138    1.3142   17.7513 C   0  0  0  0  0  0  0  0  0  0  0  0
    6.5603    0.6669   17.4896 N   0  0  0  0  0  0  0  0  0  0  0  0
    7.1382    0.0093   18.5031 C   0  0  0  0  0  0  0  0  0  0  0  0
    8.0730   -0.4938   18.2504 H   0  0  0  0  0  0  0  0  0  0  0  0
    6.6364   -0.0621   19.8185 C   0  0  0  0  0  0  0  0  0  0  0  0
    7.3739   -0.8180   20.9271 C   0  0  1  0  0  0  0  0  0  0  0  0
    7.0192   -1.8607   20.9161 H   0  0  0  0  0  0  0  0  0  0  0  0
    8.9402   -0.8698   20.7759 C   0  0  0  0  0  0  0  0  0  0  0  0
    9.3158   -0.0390   20.1631 H   0  0  0  0  0  0  0  0  0  0  0  0
    9.2793   -1.8067   20.3208 H   0  0  0  0  0  0  0  0  0  0  0  0
    9.4237   -0.7197   22.1905 C   0  0  0  0  0  0  0  0  0  0  0  0
   10.6022   -0.8155   22.7802 N   0  0  0  0  0  0  0  0  0  0  0  0
   10.3248   -0.5350   24.0768 N   0  0  0  0  0  0  0  0  0  0  0  0
   11.0956   -0.4372   24.7211 H   0  0  0  0  0  0  0  0  0  0  0  0
    9.0055   -0.2426   24.3182 C   0  0  0  0  0  0  0  0  0  0  0  0
    8.4124    0.1189   25.6246 C   0  0  0  0  0  0  0  0  0  0  0  0
    9.0482   -0.0837   26.8654 C   0  0  0  0  0  0  0  0  0  0  0  0
   10.0286   -0.5508   26.9234 H   0  0  0  0  0  0  0  0  0  0  0  0
    8.4443    0.3451   28.0451 C   0  0  0  0  0  0  0  0  0  0  0  0
    8.9788    0.2050   28.9807 H   0  0  0  0  0  0  0  0  0  0  0  0
    7.2086    1.0217   28.0581 C   0  0  0  0  0  0  0  0  0  0  0  0
    6.6683    1.6107   29.3257 C   0  0  0  0  0  0  0  0  0  0  0  0
    6.9112    0.9949   30.5704 C   0  0  0  0  0  0  0  0  0  0  0  0
    7.5004    0.0847   30.6101 H   0  0  0  0  0  0  0  0  0  0  0  0
    6.4217    1.5374   31.7609 C   0  0  0  0  0  0  0  0  0  0  0  0
    6.6440    1.0406   32.7015 H   0  0  0  0  0  0  0  0  0  0  0  0
    5.6780    2.7199   31.7410 C   0  0  0  0  0  0  0  0  0  0  0  0
    5.2930    3.1364   32.6688 H   0  0  0  0  0  0  0  0  0  0  0  0
    5.4518    3.3667   30.5219 C   0  0  0  0  0  0  0  0  0  0  0  0
    4.8996    4.3019   30.5045 H   0  0  0  0  0  0  0  0  0  0  0  0
    5.9421    2.8203   29.3305 C   0  0  0  0  0  0  0  0  0  0  0  0
    5.7854    3.3617   28.4002 H   0  0  0  0  0  0  0  0  0  0  0  0
    6.5476    1.1561   26.8209 C   0  0  0  0  0  0  0  0  0  0  0  0
    5.5696    1.6231   26.7707 H   0  0  0  0  0  0  0  0  0  0  0  0
    7.1378    0.7173   25.6382 C   0  0  0  0  0  0  0  0  0  0  0  0
    6.6038    0.8605   24.7037 H   0  0  0  0  0  0  0  0  0  0  0  0
    8.4107   -0.3686   23.0720 C   0  0  0  0  0  0  0  0  0  0  0  0
    7.0928   -0.2552   22.3663 C   0  0  0  0  0  0  0  0  0  0  0  0
    6.7676    0.7963   22.3089 H   0  0  0  0  0  0  0  0  0  0  0  0
    6.2993   -0.8298   22.8614 H   0  0  0  0  0  0  0  0  0  0  0  0
    5.4131    0.6019   20.0457 C   0  0  0  0  0  0  0  0  0  0  0  0
    4.9448    0.5906   21.0320 H   0  0  0  0  0  0  0  0  0  0  0  0
    4.7995    1.2990   19.0051 C   0  0  0  0  0  0  0  0  0  0  0  0
    3.8794    1.8570   19.1647 H   0  0  0  0  0  0  0  0  0  0  0  0
  1  2  1  0
  2  3  2  0
  3  4  1  0
  4  5  1  0
  4  6  2  0
  6  7  1  0
  7  8  1  1
  7  9  1  0
  9 10  1  0
  9 11  1  0
  9 12  1  0
 12 13  2  0
 13 14  1  0
 14 15  1  0
 14 16  1  0
 16 17  1  0
 17 18  2  0
 18 19  1  0
 18 20  1  0
 20 21  1  0
 20 22  2  0
 22 23  1  0
 23 24  2  0
 24 25  1  0
 24 26  1  0
 26 27  1  0
 26 28  2  0
 28 29  1  0
 28 30  1  0
 30 31  1  0
 30 32  2  0
 32 33  1  0
 22 34  1  0
 34 35  1  0
 34 36  2  0
 36 37  1  0
 16 38  2  0
 38 39  1  0
 39 40  1  0
 39 41  1  0
  6 42  1  0
 42 43  1  0
 42 44  2  0
 44 45  1  0
 44  2  1  0
 39  7  1  0
 38 12  1  0
 36 17  1  0
 32 23  1  0
M  END
>  <cnnaffinity>  (1) 
-5.05957

>  <filename>  (1) 
c1ccc(-c2ccc(-c3[nH]nc4c3C[C@@H](c3cccnc3)C4)cc2)cc1

$$$$
