
     RDKit          3D

 31 33  0  0  0  0  0  0  0  0999 V2000
   14.5850    0.8036   22.4149 H   0  0  0  0  0  0  0  0  0  0  0  0
   13.5068    0.9617   22.3938 C   0  0  0  0  0  0  0  0  0  0  0  0
   12.7455   -0.1375   22.4119 N   0  0  0  0  0  0  0  0  0  0  0  0
   11.4193    0.0605   22.3669 C   0  0  0  0  0  0  0  0  0  0  0  0
   10.7427   -1.1299   22.4217 N   0  0  0  0  0  0  0  0  0  0  0  0
   11.4545   -1.8458   22.3687 H   0  0  0  0  0  0  0  0  0  0  0  0
    9.3688   -1.3394   22.1680 C   0  0  0  0  0  0  0  0  0  0  0  0
    8.5709   -2.1737   22.9874 C   0  0  0  0  0  0  0  0  0  0  0  0
    9.0417   -2.7182   23.8035 H   0  0  0  0  0  0  0  0  0  0  0  0
    7.2447   -2.3102   22.8446 N   0  0  0  0  0  0  0  0  0  0  0  0
    6.6433   -1.6075   21.8715 C   0  0  0  0  0  0  0  0  0  0  0  0
    5.5657   -1.7311   21.7827 H   0  0  0  0  0  0  0  0  0  0  0  0
    7.3345   -0.7801   20.9642 C   0  0  0  0  0  0  0  0  0  0  0  0
    6.6342   -0.0205   19.8884 C   0  0  0  0  0  0  0  0  0  0  0  0
    7.1652    0.0614   18.5847 C   0  0  0  0  0  0  0  0  0  0  0  0
    8.1091   -0.4333   18.3587 H   0  0  0  0  0  0  0  0  0  0  0  0
    6.5739    0.6887   17.5588 N   0  0  0  0  0  0  0  0  0  0  0  0
    5.4099    1.3101   17.8082 C   0  0  0  0  0  0  0  0  0  0  0  0
    4.9407    1.8150   16.9647 H   0  0  0  0  0  0  0  0  0  0  0  0
    4.8041    1.3217   19.0685 C   0  0  0  0  0  0  0  0  0  0  0  0
    3.8699    1.8519   19.2096 H   0  0  0  0  0  0  0  0  0  0  0  0
    5.4218    0.6468   20.1236 C   0  0  0  0  0  0  0  0  0  0  0  0
    4.9927    0.6596   21.1263 H   0  0  0  0  0  0  0  0  0  0  0  0
    8.7261   -0.6725   21.1196 C   0  0  0  0  0  0  0  0  0  0  0  0
    9.3156   -0.0288   20.4695 H   0  0  0  0  0  0  0  0  0  0  0  0
   10.8176    1.3271   22.3165 C   0  0  0  0  0  0  0  0  0  0  0  0
    9.7434    1.4096   22.3539 H   0  0  0  0  0  0  0  0  0  0  0  0
   11.6288    2.4566   22.2802 C   0  0  0  0  0  0  0  0  0  0  0  0
   11.1850    3.4511   22.1838 H   0  0  0  0  0  0  0  0  0  0  0  0
   13.0108    2.2668   22.3332 C   0  0  0  0  0  0  0  0  0  0  0  0
   13.6996    3.1022   22.3015 H   0  0  0  0  0  0  0  0  0  0  0  0
  1  2  1  0
  2  3  2  0
  3  4  1  0
  4  5  1  0
  5  6  1  0
  5  7  1  0
  7  8  2  0
  8  9  1  0
  8 10  1  0
 10 11  2  0
 11 12  1  0
 11 13  1  0
 13 14  1  0
 14 15  2  0
 15 16  1  0
 15 17  1  0
 17 18  2  0
 18 19  1  0
 18 20  1  0
 20 21  1  0
 20 22  2  0
 22 23  1  0
 13 24  2  0
 24 25  1  0
  4 26  2  0
 26 27  1  0
 26 28  1  0
 28 29  1  0
 28 30  2  0
 30 31  1  0
 30  2  1  0
 24  7  1  0
 22 14  1  0
M  END
>  <cnnaffinity>  (1) 
-5.16424

>  <filename>  (1) 
c1ccc(Nc2cncc(-c3cccnc3)c2)nc1

$$$$
