
     RDKit          3D

 36 39  0  0  0  0  0  0  0  0999 V2000
    4.9478    1.8296   16.9768 H   0  0  0  0  0  0  0  0  0  0  0  0
    5.3986    1.2952   17.8123 C   0  0  0  0  0  0  0  0  0  0  0  0
    6.5387    0.6358   17.5539 N   0  0  0  0  0  0  0  0  0  0  0  0
    7.1308    0.0049   18.5729 C   0  0  0  0  0  0  0  0  0  0  0  0
    8.0560   -0.5217   18.3434 H   0  0  0  0  0  0  0  0  0  0  0  0
    6.6458    0.0246   19.8878 C   0  0  0  0  0  0  0  0  0  0  0  0
    7.4336   -0.6231   20.9343 C   0  0  0  0  0  0  0  0  0  0  0  0
    7.8579   -1.9268   20.8162 N   0  0  0  0  0  0  0  0  0  0  0  0
    8.4537   -2.1613   21.9504 C   0  0  0  0  0  0  0  0  0  0  0  0
    8.5371   -1.0739   22.7565 N   0  0  0  0  0  0  0  0  0  0  0  0
    7.8745   -0.0541   22.1203 C   0  0  0  0  0  0  0  0  0  0  0  0
    7.7121    1.3296   22.6660 C   0  0  0  0  0  0  0  0  0  0  0  0
    7.8032    2.0399   21.8372 H   0  0  0  0  0  0  0  0  0  0  0  0
    8.5465    1.5500   23.3470 H   0  0  0  0  0  0  0  0  0  0  0  0
    6.3895    1.5927   23.3818 C   0  0  0  0  0  0  0  0  0  0  0  0
    5.9682    0.7714   24.4387 C   0  0  0  0  0  0  0  0  0  0  0  0
    6.5670   -0.0887   24.7320 H   0  0  0  0  0  0  0  0  0  0  0  0
    4.7706    1.0333   25.1127 C   0  0  0  0  0  0  0  0  0  0  0  0
    4.4537    0.3844   25.9237 H   0  0  0  0  0  0  0  0  0  0  0  0
    3.9751    2.1196   24.7359 C   0  0  0  0  0  0  0  0  0  0  0  0
    3.0433    2.3234   25.2558 H   0  0  0  0  0  0  0  0  0  0  0  0
    4.3792    2.9384   23.6776 C   0  0  0  0  0  0  0  0  0  0  0  0
    3.7679    3.7826   23.3692 H   0  0  0  0  0  0  0  0  0  0  0  0
    5.5770    2.6734   23.0065 C   0  0  0  0  0  0  0  0  0  0  0  0
    5.8714    3.2928   22.1594 H   0  0  0  0  0  0  0  0  0  0  0  0
    9.3992   -1.1332   23.9176 C   0  0  0  0  0  0  0  0  0  0  0  0
    8.8522   -0.8172   24.8085 H   0  0  0  0  0  0  0  0  0  0  0  0
   10.2475   -0.4493   23.8019 H   0  0  0  0  0  0  0  0  0  0  0  0
    9.8813   -2.6008   24.0373 C   0  0  0  0  0  0  0  0  0  0  0  0
   10.9597   -2.6763   23.9089 H   0  0  0  0  0  0  0  0  0  0  0  0
    9.6196   -3.0298   25.0044 H   0  0  0  0  0  0  0  0  0  0  0  0
    9.0835   -3.6028   22.7229 S   0  0  0  0  0  0  0  0  0  0  0  0
    5.4316    0.6850   20.1324 C   0  0  0  0  0  0  0  0  0  0  0  0
    4.9962    0.6854   21.1302 H   0  0  0  0  0  0  0  0  0  0  0  0
    4.7911    1.3265   19.0723 C   0  0  0  0  0  0  0  0  0  0  0  0
    3.8596    1.8664   19.2108 H   0  0  0  0  0  0  0  0  0  0  0  0
  1  2  1  0
  2  3  2  0
  3  4  1  0
  4  5  1  0
  4  6  2  0
  6  7  1  0
  7  8  1  0
  8  9  2  0
  9 10  1  0
 10 11  1  0
 11 12  1  0
 12 13  1  0
 12 14  1  0
 12 15  1  0
 15 16  2  0
 16 17  1  0
 16 18  1  0
 18 19  1  0
 18 20  2  0
 20 21  1  0
 20 22  1  0
 22 23  1  0
 22 24  2  0
 24 25  1  0
 10 26  1  0
 26 27  1  0
 26 28  1  0
 26 29  1  0
 29 30  1  0
 29 31  1  0
 29 32  1  0
  6 33  1  0
 33 34  1  0
 33 35  2  0
 35 36  1  0
 35  2  1  0
 11  7  2  0
 24 15  1  0
 32  9  1  0
M  END
>  <cnnaffinity>  (1) 
-5.2412

>  <filename>  (1) 
c1ccc(Cc2c(-c3cccnc3)nc3n2CCS3)cc1

$$$$
