
     RDKit          3D

 36 39  0  0  0  0  0  0  0  0999 V2000
    4.9567    1.8287   16.9551 H   0  0  0  0  0  0  0  0  0  0  0  0
    5.3966    1.3014   17.8034 C   0  0  0  0  0  0  0  0  0  0  0  0
    6.5487    0.6575   17.5567 N   0  0  0  0  0  0  0  0  0  0  0  0
    7.1477    0.0267   18.5724 C   0  0  0  0  0  0  0  0  0  0  0  0
    8.0925   -0.4596   18.3407 H   0  0  0  0  0  0  0  0  0  0  0  0
    6.6451    0.0023   19.8835 C   0  0  0  0  0  0  0  0  0  0  0  0
    7.3924   -0.6628   20.9569 C   0  0  0  0  0  0  0  0  0  0  0  0
    8.0964   -1.8382   20.7640 N   0  0  0  0  0  0  0  0  0  0  0  0
    8.5117   -2.1444   21.9608 C   0  0  0  0  0  0  0  0  0  0  0  0
    9.4188   -3.4555   22.6505 S   0  0  0  0  0  0  0  0  0  0  0  0
    9.4614   -2.6460   24.1988 C   0  0  0  0  0  0  0  0  0  0  0  0
   10.0545   -3.1044   24.9809 H   0  0  0  0  0  0  0  0  0  0  0  0
    8.7515   -1.5076   24.2042 C   0  0  0  0  0  0  0  0  0  0  0  0
    8.5589   -0.8310   25.0339 H   0  0  0  0  0  0  0  0  0  0  0  0
    8.1919   -1.2290   22.9454 N   0  0  0  0  0  0  0  0  0  0  0  0
    7.4679   -0.2459   22.2932 C   0  0  0  0  0  0  0  0  0  0  0  0
    7.0625    0.8933   22.9258 N   0  0  0  0  0  0  0  0  0  0  0  0
    6.8103    1.6771   22.3388 H   0  0  0  0  0  0  0  0  0  0  0  0
    6.7507    0.9841   24.3438 C   0  0  0  0  0  0  0  0  0  0  0  0
    6.3734    0.0082   24.6921 H   0  0  0  0  0  0  0  0  0  0  0  0
    7.6636    1.2012   24.9179 H   0  0  0  0  0  0  0  0  0  0  0  0
    5.7104    2.0633   24.5663 C   0  0  0  0  0  0  0  0  0  0  0  0
    6.0586    3.3733   24.9324 C   0  0  0  0  0  0  0  0  0  0  0  0
    7.1019    3.6218   25.1210 H   0  0  0  0  0  0  0  0  0  0  0  0
    5.0746    4.3573   25.0882 C   0  0  0  0  0  0  0  0  0  0  0  0
    5.3595    5.3607   25.4001 H   0  0  0  0  0  0  0  0  0  0  0  0
    3.7275    4.0492   24.8633 C   0  0  0  0  0  0  0  0  0  0  0  0
    2.9635    4.8149   24.9907 H   0  0  0  0  0  0  0  0  0  0  0  0
    3.3682    2.7474   24.4921 C   0  0  0  0  0  0  0  0  0  0  0  0
    2.3222    2.5043   24.3167 H   0  0  0  0  0  0  0  0  0  0  0  0
    4.3544    1.7623   24.3689 C   0  0  0  0  0  0  0  0  0  0  0  0
    4.1027    0.7270   24.1539 H   0  0  0  0  0  0  0  0  0  0  0  0
    5.4220    0.6622   20.1156 C   0  0  0  0  0  0  0  0  0  0  0  0
    4.9889    0.6588   21.1143 H   0  0  0  0  0  0  0  0  0  0  0  0
    4.7866    1.3172   19.0615 C   0  0  0  0  0  0  0  0  0  0  0  0
    3.8540    1.8560   19.1983 H   0  0  0  0  0  0  0  0  0  0  0  0
  1  2  1  0
  2  3  2  0
  3  4  1  0
  4  5  1  0
  4  6  2  0
  6  7  1  0
  7  8  1  0
  8  9  2  0
  9 10  1  0
 10 11  1  0
 11 12  1  0
 11 13  2  0
 13 14  1  0
 13 15  1  0
 15 16  1  0
 16 17  1  0
 17 18  1  0
 17 19  1  0
 19 20  1  0
 19 21  1  0
 19 22  1  0
 22 23  2  0
 23 24  1  0
 23 25  1  0
 25 26  1  0
 25 27  2  0
 27 28  1  0
 27 29  1  0
 29 30  1  0
 29 31  2  0
 31 32  1  0
  6 33  1  0
 33 34  1  0
 33 35  2  0
 35 36  1  0
 35  2  1  0
 16  7  2  0
 31 22  1  0
 15  9  1  0
M  END
>  <cnnaffinity>  (1) 
-5.1944

>  <filename>  (1) 
c1ccc(CNc2c(-c3cccnc3)nc3sccn23)cc1

$$$$
