
     RDKit          3D

 35 37  0  0  0  0  0  0  0  0999 V2000
    4.9235    1.7912   16.9871 H   0  0  0  0  0  0  0  0  0  0  0  0
    5.3996    1.2935   17.8300 C   0  0  0  0  0  0  0  0  0  0  0  0
    6.5566    0.6692   17.5670 N   0  0  0  0  0  0  0  0  0  0  0  0
    7.1628    0.0648   18.5995 C   0  0  0  0  0  0  0  0  0  0  0  0
    8.1065   -0.4214   18.3684 H   0  0  0  0  0  0  0  0  0  0  0  0
    6.6580    0.0098   19.9123 C   0  0  0  0  0  0  0  0  0  0  0  0
    7.3783   -0.7066   20.9836 C   0  0  0  0  0  0  0  0  0  0  0  0
    6.5935   -1.9388   21.9086 S   0  0  0  0  0  0  0  0  0  0  0  0
    7.9916   -2.1915   22.8694 C   0  0  0  0  0  0  0  0  0  0  0  0
    7.9624   -2.9240   23.6599 H   0  0  0  0  0  0  0  0  0  0  0  0
    9.0141   -1.3722   22.5103 C   0  0  0  0  0  0  0  0  0  0  0  0
    9.9813   -1.3428   23.0091 H   0  0  0  0  0  0  0  0  0  0  0  0
    8.6641   -0.5067   21.4230 C   0  0  0  0  0  0  0  0  0  0  0  0
    9.5565    0.6144   20.9690 C   0  0  0  0  0  0  0  0  0  0  0  0
   10.5980    0.2997   21.0817 H   0  0  0  0  0  0  0  0  0  0  0  0
    9.4202    0.8192   19.9077 H   0  0  0  0  0  0  0  0  0  0  0  0
    9.3593    1.9085   21.7564 C   0  0  0  0  0  0  0  0  0  0  0  0
   10.1340    2.6421   21.4869 H   0  0  0  0  0  0  0  0  0  0  0  0
    9.4617    1.6941   22.8272 H   0  0  0  0  0  0  0  0  0  0  0  0
    8.0596    2.4219   21.4803 O   0  0  0  0  0  0  0  0  0  0  0  0
    7.6192    3.5661   22.0830 C   0  0  0  0  0  0  0  0  0  0  0  0
    6.3336    3.9953   21.7073 C   0  0  0  0  0  0  0  0  0  0  0  0
    5.7890    3.4189   20.9677 H   0  0  0  0  0  0  0  0  0  0  0  0
    5.7891    5.1559   22.2643 C   0  0  0  0  0  0  0  0  0  0  0  0
    4.8004    5.4855   21.9566 H   0  0  0  0  0  0  0  0  0  0  0  0
    6.5075    5.9046   23.2034 C   0  0  0  0  0  0  0  0  0  0  0  0
    6.0773    6.8100   23.6319 H   0  0  0  0  0  0  0  0  0  0  0  0
    7.7814    5.4758   23.5745 C   0  0  0  0  0  0  0  0  0  0  0  0
    8.3531    6.0486   24.3010 H   0  0  0  0  0  0  0  0  0  0  0  0
    8.3459    4.3148   23.0244 C   0  0  0  0  0  0  0  0  0  0  0  0
    9.3418    3.9962   23.3162 H   0  0  0  0  0  0  0  0  0  0  0  0
    5.4299    0.6467   20.1546 C   0  0  0  0  0  0  0  0  0  0  0  0
    5.0130    0.6474   21.1636 H   0  0  0  0  0  0  0  0  0  0  0  0
    4.8018    1.3055   19.0961 C   0  0  0  0  0  0  0  0  0  0  0  0
    3.8739    1.8440   19.2455 H   0  0  0  0  0  0  0  0  0  0  0  0
  1  2  1  0
  2  3  2  0
  3  4  1  0
  4  5  1  0
  4  6  2  0
  6  7  1  0
  7  8  1  0
  8  9  1  0
  9 10  1  0
  9 11  2  0
 11 12  1  0
 11 13  1  0
 13 14  1  0
 14 15  1  0
 14 16  1  0
 14 17  1  0
 17 18  1  0
 17 19  1  0
 17 20  1  0
 20 21  1  0
 21 22  2  0
 22 23  1  0
 22 24  1  0
 24 25  1  0
 24 26  2  0
 26 27  1  0
 26 28  1  0
 28 29  1  0
 28 30  2  0
 30 31  1  0
  6 32  1  0
 32 33  1  0
 32 34  2  0
 34 35  1  0
 34  2  1  0
 13  7  2  0
 30 21  1  0
M  END
>  <cnnaffinity>  (1) 
-5.45469

>  <filename>  (1) 
c1ccc(OCCc2ccsc2-c2cccnc2)cc1

$$$$
