
     RDKit          3D

 28 30  0  0  0  0  0  0  0  0999 V2000
    9.0819   -3.2960   21.7803 H   0  0  0  0  0  0  0  0  0  0  0  0
    8.5546   -2.3478   21.7629 C   0  0  0  0  0  0  0  0  0  0  0  0
    8.0121   -1.8557   20.7032 N   0  0  0  0  0  0  0  0  0  0  0  0
    7.3980   -0.6521   20.9858 C   0  0  0  0  0  0  0  0  0  0  0  0
    6.6559    0.0265   19.9172 C   0  0  0  0  0  0  0  0  0  0  0  0
    7.1644    0.0426   18.6042 C   0  0  0  0  0  0  0  0  0  0  0  0
    8.1083   -0.4448   18.3702 H   0  0  0  0  0  0  0  0  0  0  0  0
    6.5621    0.6616   17.5850 N   0  0  0  0  0  0  0  0  0  0  0  0
    5.4023    1.2916   17.8344 C   0  0  0  0  0  0  0  0  0  0  0  0
    4.9458    1.7992   16.9872 H   0  0  0  0  0  0  0  0  0  0  0  0
    4.7940    1.3104   19.0924 C   0  0  0  0  0  0  0  0  0  0  0  0
    3.8624    1.8453   19.2321 H   0  0  0  0  0  0  0  0  0  0  0  0
    5.4254    0.6637   20.1530 C   0  0  0  0  0  0  0  0  0  0  0  0
    4.9868    0.6450   21.1503 H   0  0  0  0  0  0  0  0  0  0  0  0
    7.5284   -0.2200   22.2903 C   0  0  0  0  0  0  0  0  0  0  0  0
    7.1030    0.9601   22.8742 N   0  0  0  0  0  0  0  0  0  0  0  0
    7.1461    1.8598   22.4169 H   0  0  0  0  0  0  0  0  0  0  0  0
    6.8343    1.1970   24.1993 C   0  0  0  0  0  0  0  0  0  0  0  0
    7.0550    2.4706   24.5245 N   0  0  0  0  0  0  0  0  0  0  0  0
    6.8281    2.7975   25.8031 C   0  0  0  0  0  0  0  0  0  0  0  0
    7.0632    3.8288   26.0806 H   0  0  0  0  0  0  0  0  0  0  0  0
    6.3292    1.9022   26.7516 C   0  0  0  0  0  0  0  0  0  0  0  0
    6.1731    2.2421   27.7663 H   0  0  0  0  0  0  0  0  0  0  0  0
    6.0373    0.5868   26.3581 C   0  0  0  0  0  0  0  0  0  0  0  0
    5.6299   -0.1479   27.0558 H   0  0  0  0  0  0  0  0  0  0  0  0
    6.2890    0.2268   25.0399 C   0  0  0  0  0  0  0  0  0  0  0  0
    6.0724   -0.7348   24.5922 H   0  0  0  0  0  0  0  0  0  0  0  0
    8.4265   -1.4018   23.2021 S   0  0  0  0  0  0  0  0  0  0  0  0
  1  2  1  0
  2  3  2  0
  3  4  1  0
  4  5  1  0
  5  6  2  0
  6  7  1  0
  6  8  1  0
  8  9  2  0
  9 10  1  0
  9 11  1  0
 11 12  1  0
 11 13  2  0
 13 14  1  0
  4 15  2  0
 15 16  1  0
 16 17  1  0
 16 18  1  0
 18 19  2  0
 19 20  1  0
 20 21  1  0
 20 22  2  0
 22 23  1  0
 22 24  1  0
 24 25  1  0
 24 26  2  0
 26 27  1  0
 15 28  1  0
 28  2  1  0
 13  5  1  0
 26 18  1  0
M  END
>  <cnnaffinity>  (1) 
-5.05675

>  <filename>  (1) 
c1ccc(Nc2scnc2-c2cccnc2)nc1

$$$$
