
     RDKit          3D

 42 45  0  0  0  0  0  0  0  0999 V2000
    8.3627   -1.9637   19.8639 H   0  0  0  0  0  0  0  0  0  0  0  0
    8.1960   -1.6768   20.8817 C   0  0  0  0  0  0  0  0  0  0  0  0
    8.8122   -2.3849   21.8467 N   0  0  0  0  0  0  0  0  0  0  0  0
    8.6371   -1.9118   23.0898 C   0  0  0  0  0  0  0  0  0  0  0  0
    9.1335   -2.4489   23.8929 H   0  0  0  0  0  0  0  0  0  0  0  0
    7.8395   -0.7393   23.3645 C   0  0  0  0  0  0  0  0  0  0  0  0
    7.7163   -0.2188   24.6264 N   0  0  0  0  0  0  0  0  0  0  0  0
    6.6544    0.7442   24.9494 C   0  0  0  0  0  0  0  0  0  0  0  0
    5.8209    0.6138   24.2574 H   0  0  0  0  0  0  0  0  0  0  0  0
    7.0251    1.7722   24.8327 H   0  0  0  0  0  0  0  0  0  0  0  0
    6.1351    0.5387   26.3798 C   0  0  0  0  0  0  0  0  0  0  0  0
    5.5931   -0.4170   26.4163 H   0  0  0  0  0  0  0  0  0  0  0  0
    5.4123    1.3400   26.5885 H   0  0  0  0  0  0  0  0  0  0  0  0
    7.2094    0.5450   27.3784 N   0  0  0  0  0  0  0  0  0  0  0  0
    6.9355    0.7343   28.7062 C   0  0  0  0  0  0  0  0  0  0  0  0
    7.9557    1.1454   29.4684 N   0  0  0  0  0  0  0  0  0  0  0  0
    7.7137    1.3516   30.7599 C   0  0  0  0  0  0  0  0  0  0  0  0
    8.5667    1.6975   31.3426 H   0  0  0  0  0  0  0  0  0  0  0  0
    6.4792    1.1462   31.3667 C   0  0  0  0  0  0  0  0  0  0  0  0
    6.3744    1.3297   32.4265 H   0  0  0  0  0  0  0  0  0  0  0  0
    5.4172    0.6934   30.5738 C   0  0  0  0  0  0  0  0  0  0  0  0
    4.4343    0.5012   31.0069 H   0  0  0  0  0  0  0  0  0  0  0  0
    5.6384    0.4912   29.2191 C   0  0  0  0  0  0  0  0  0  0  0  0
    4.8705    0.1368   28.5411 H   0  0  0  0  0  0  0  0  0  0  0  0
    8.5869    0.4233   26.8841 C   0  0  0  0  0  0  0  0  0  0  0  0
    9.2411    0.0685   27.6829 H   0  0  0  0  0  0  0  0  0  0  0  0
    8.9591    1.4076   26.5689 H   0  0  0  0  0  0  0  0  0  0  0  0
    8.6757   -0.5512   25.6979 C   0  0  0  0  0  0  0  0  0  0  0  0
    9.7035   -0.5081   25.3131 H   0  0  0  0  0  0  0  0  0  0  0  0
    8.5009   -1.5744   26.0584 H   0  0  0  0  0  0  0  0  0  0  0  0
    7.1678   -0.1061   22.3818 N   0  0  0  0  0  0  0  0  0  0  0  0
    7.3605   -0.5693   21.1333 C   0  0  0  0  0  0  0  0  0  0  0  0
    6.6345    0.0981   20.0207 C   0  0  0  0  0  0  0  0  0  0  0  0
    7.1731    0.0847   18.7197 C   0  0  0  0  0  0  0  0  0  0  0  0
    8.1273   -0.3992   18.5039 H   0  0  0  0  0  0  0  0  0  0  0  0
    6.5907    0.6524   17.6609 N   0  0  0  0  0  0  0  0  0  0  0  0
    5.4190    1.2723   17.8645 C   0  0  0  0  0  0  0  0  0  0  0  0
    4.9859    1.7570   16.9949 H   0  0  0  0  0  0  0  0  0  0  0  0
    4.7772    1.3205   19.1065 C   0  0  0  0  0  0  0  0  0  0  0  0
    3.8309    1.8401   19.2027 H   0  0  0  0  0  0  0  0  0  0  0  0
    5.3916    0.7232   20.2052 C   0  0  0  0  0  0  0  0  0  0  0  0
    4.9269    0.7335   21.1944 H   0  0  0  0  0  0  0  0  0  0  0  0
  1  2  1  0
  2  3  2  0
  3  4  1  0
  4  5  1  0
  4  6  2  0
  6  7  1  0
  7  8  1  0
  8  9  1  0
  8 10  1  0
  8 11  1  0
 11 12  1  0
 11 13  1  0
 11 14  1  0
 14 15  1  0
 15 16  2  0
 16 17  1  0
 17 18  1  0
 17 19  2  0
 19 20  1  0
 19 21  1  0
 21 22  1  0
 21 23  2  0
 23 24  1  0
 14 25  1  0
 25 26  1  0
 25 27  1  0
 25 28  1  0
 28 29  1  0
 28 30  1  0
  6 31  1  0
 31 32  2  0
 32 33  1  0
 33 34  2  0
 34 35  1  0
 34 36  1  0
 36 37  2  0
 37 38  1  0
 37 39  1  0
 39 40  1  0
 39 41  2  0
 41 42  1  0
 32  2  1  0
 41 33  1  0
 28  7  1  0
 23 15  1  0
M  END
>  <cnnaffinity>  (1) 
-5.30593

>  <filename>  (1) 
c1ccc(N2CCN(c3cncc(-c4cccnc4)n3)CC2)nc1

$$$$
