
     RDKit          3D

 34 36  0  0  0  0  0  0  0  0999 V2000
    4.9436    1.7979   16.9957 H   0  0  0  0  0  0  0  0  0  0  0  0
    5.4112    1.2886   17.8339 C   0  0  0  0  0  0  0  0  0  0  0  0
    6.5720    0.6687   17.5727 N   0  0  0  0  0  0  0  0  0  0  0  0
    7.1736    0.0369   18.5849 C   0  0  0  0  0  0  0  0  0  0  0  0
    8.1202   -0.4479   18.3549 H   0  0  0  0  0  0  0  0  0  0  0  0
    6.6526   -0.0109   19.8891 C   0  0  0  0  0  0  0  0  0  0  0  0
    7.3930   -0.7150   20.9635 C   0  0  0  0  0  0  0  0  0  0  0  0
    8.1217   -1.7880   20.6173 N   0  0  0  0  0  0  0  0  0  0  0  0
    8.7880   -2.4805   21.5463 N   0  0  0  0  0  0  0  0  0  0  0  0
    8.7691   -2.0945   22.8267 C   0  0  0  0  0  0  0  0  0  0  0  0
    9.3423   -2.7281   23.4976 H   0  0  0  0  0  0  0  0  0  0  0  0
    8.0505   -0.9644   23.2781 C   0  0  0  0  0  0  0  0  0  0  0  0
    8.1302   -0.5161   24.7326 C   0  0  0  0  0  0  0  0  0  0  0  0
    7.7169   -1.2823   25.3966 H   0  0  0  0  0  0  0  0  0  0  0  0
    7.5019    0.3779   24.8621 H   0  0  0  0  0  0  0  0  0  0  0  0
    9.4717   -0.2454   25.1807 N   0  0  0  0  0  0  0  0  0  0  0  0
    9.9534   -0.9098   25.7583 H   0  0  0  0  0  0  0  0  0  0  0  0
   10.2760    0.7572   24.6847 C   0  0  0  0  0  0  0  0  0  0  0  0
   11.6437    0.7201   25.0023 C   0  0  0  0  0  0  0  0  0  0  0  0
   12.0117   -0.0921   25.6218 H   0  0  0  0  0  0  0  0  0  0  0  0
   12.4990    1.7076   24.5256 C   0  0  0  0  0  0  0  0  0  0  0  0
   13.5629    1.6217   24.7175 H   0  0  0  0  0  0  0  0  0  0  0  0
   11.9964    2.7825   23.7812 C   0  0  0  0  0  0  0  0  0  0  0  0
   12.6666    3.5711   23.4543 H   0  0  0  0  0  0  0  0  0  0  0  0
   10.6353    2.8243   23.4579 C   0  0  0  0  0  0  0  0  0  0  0  0
   10.2387    3.6372   22.8477 H   0  0  0  0  0  0  0  0  0  0  0  0
    9.7789    1.8097   23.8972 C   0  0  0  0  0  0  0  0  0  0  0  0
    8.7286    1.8083   23.6291 H   0  0  0  0  0  0  0  0  0  0  0  0
    7.3532   -0.2684   22.2984 C   0  0  0  0  0  0  0  0  0  0  0  0
    6.7990    0.6437   22.5128 H   0  0  0  0  0  0  0  0  0  0  0  0
    5.4378    0.6426   20.1458 C   0  0  0  0  0  0  0  0  0  0  0  0
    4.9900    0.6358   21.1419 H   0  0  0  0  0  0  0  0  0  0  0  0
    4.8046    1.3002   19.0941 C   0  0  0  0  0  0  0  0  0  0  0  0
    3.8739    1.8386   19.2443 H   0  0  0  0  0  0  0  0  0  0  0  0
  1  2  1  0
  2  3  2  0
  3  4  1  0
  4  5  1  0
  4  6  2  0
  6  7  1  0
  7  8  2  0
  8  9  1  0
  9 10  2  0
 10 11  1  0
 10 12  1  0
 12 13  1  0
 13 14  1  0
 13 15  1  0
 13 16  1  0
 16 17  1  0
 16 18  1  0
 18 19  2  0
 19 20  1  0
 19 21  1  0
 21 22  1  0
 21 23  2  0
 23 24  1  0
 23 25  1  0
 25 26  1  0
 25 27  2  0
 27 28  1  0
 12 29  2  0
 29 30  1  0
  6 31  1  0
 31 32  1  0
 31 33  2  0
 33 34  1  0
 33  2  1  0
 29  7  1  0
 27 18  1  0
M  END
>  <cnnaffinity>  (1) 
-5.15386

>  <filename>  (1) 
c1ccc(NCc2cnnc(-c3cccnc3)c2)cc1

$$$$
