
     RDKit          3D

 39 41  0  0  0  0  0  0  0  0999 V2000
    4.9597    1.8680   16.8738 H   0  0  0  0  0  0  0  0  0  0  0  0
    5.4389    1.3495   17.7017 C   0  0  0  0  0  0  0  0  0  0  0  0
    6.5756    0.6976   17.4123 N   0  0  0  0  0  0  0  0  0  0  0  0
    7.1970    0.0672   18.4175 C   0  0  0  0  0  0  0  0  0  0  0  0
    8.1055   -0.4731   18.1495 H   0  0  0  0  0  0  0  0  0  0  0  0
    6.7366    0.0459   19.7498 C   0  0  0  0  0  0  0  0  0  0  0  0
    7.4661   -0.6529   20.8497 C   0  0  0  0  0  0  0  0  0  0  0  0
    8.8523   -0.5180   21.0694 C   0  0  0  0  0  0  0  0  0  0  0  0
    9.4525    0.1145   20.4136 H   0  0  0  0  0  0  0  0  0  0  0  0
    9.5064   -1.1054   22.0778 N   0  0  0  0  0  0  0  0  0  0  0  0
    8.7960   -1.8755   22.9162 C   0  0  0  0  0  0  0  0  0  0  0  0
    9.3596   -2.3225   23.7342 H   0  0  0  0  0  0  0  0  0  0  0  0
    7.4156   -2.1091   22.7988 C   0  0  0  0  0  0  0  0  0  0  0  0
    6.6727   -3.0298   23.7407 C   0  0  0  0  0  0  0  0  0  0  0  0
    5.7016   -2.5794   23.9912 H   0  0  0  0  0  0  0  0  0  0  0  0
    7.2304   -3.1188   24.6835 H   0  0  0  0  0  0  0  0  0  0  0  0
    6.4377   -4.4424   23.1769 C   0  0  0  0  0  0  0  0  0  0  0  0
    7.4036   -4.8715   22.8814 H   0  0  0  0  0  0  0  0  0  0  0  0
    5.8530   -4.3827   22.2509 H   0  0  0  0  0  0  0  0  0  0  0  0
    5.7457   -5.3991   24.1735 C   0  0  0  0  0  0  0  0  0  0  0  0
    5.6839   -6.3973   23.7095 H   0  0  0  0  0  0  0  0  0  0  0  0
    4.7106   -5.0717   24.3463 H   0  0  0  0  0  0  0  0  0  0  0  0
    6.4806   -5.5009   25.4992 C   0  0  0  0  0  0  0  0  0  0  0  0
    5.9052   -5.1350   26.7342 C   0  0  0  0  0  0  0  0  0  0  0  0
    4.8947   -4.7234   26.7643 H   0  0  0  0  0  0  0  0  0  0  0  0
    6.6192   -5.3249   27.9280 C   0  0  0  0  0  0  0  0  0  0  0  0
    6.1421   -5.1021   28.8775 H   0  0  0  0  0  0  0  0  0  0  0  0
    7.9424   -5.7842   27.9065 C   0  0  0  0  0  0  0  0  0  0  0  0
    8.5027   -5.9360   28.8274 H   0  0  0  0  0  0  0  0  0  0  0  0
    8.5463   -6.0674   26.6776 C   0  0  0  0  0  0  0  0  0  0  0  0
    9.5948   -6.3579   26.6408 H   0  0  0  0  0  0  0  0  0  0  0  0
    7.8201   -5.9332   25.4939 C   0  0  0  0  0  0  0  0  0  0  0  0
    8.2938   -6.1553   24.5384 H   0  0  0  0  0  0  0  0  0  0  0  0
    6.7566   -1.4600   21.7502 C   0  0  0  0  0  0  0  0  0  0  0  0
    5.6806   -1.5770   21.6148 H   0  0  0  0  0  0  0  0  0  0  0  0
    5.5252    0.7045   20.0145 C   0  0  0  0  0  0  0  0  0  0  0  0
    5.1246    0.7043   21.0292 H   0  0  0  0  0  0  0  0  0  0  0  0
    4.8697    1.3718   18.9794 C   0  0  0  0  0  0  0  0  0  0  0  0
    3.9369    1.8985   19.1475 H   0  0  0  0  0  0  0  0  0  0  0  0
  1  2  1  0
  2  3  2  0
  3  4  1  0
  4  5  1  0
  4  6  2  0
  6  7  1  0
  7  8  2  0
  8  9  1  0
  8 10  1  0
 10 11  2  0
 11 12  1  0
 11 13  1  0
 13 14  1  0
 14 15  1  0
 14 16  1  0
 14 17  1  0
 17 18  1  0
 17 19  1  0
 17 20  1  0
 20 21  1  0
 20 22  1  0
 20 23  1  0
 23 24  2  0
 24 25  1  0
 24 26  1  0
 26 27  1  0
 26 28  2  0
 28 29  1  0
 28 30  1  0
 30 31  1  0
 30 32  2  0
 32 33  1  0
 13 34  2  0
 34 35  1  0
  6 36  1  0
 36 37  1  0
 36 38  2  0
 38 39  1  0
 38  2  1  0
 34  7  1  0
 32 23  1  0
M  END
>  <cnnaffinity>  (1) 
-5.20959

>  <filename>  (1) 
c1ccc(CCCc2cncc(-c3cccnc3)c2)cc1

$$$$
