
     RDKit          3D

 29 31  0  0  0  0  0  0  0  0999 V2000
    9.0883   -3.3136   21.7648 H   0  0  0  0  0  0  0  0  0  0  0  0
    8.5457   -2.3778   21.7438 C   0  0  0  0  0  0  0  0  0  0  0  0
    7.9986   -1.9018   20.6801 N   0  0  0  0  0  0  0  0  0  0  0  0
    7.3802   -0.7060   20.9629 C   0  0  0  0  0  0  0  0  0  0  0  0
    6.6505   -0.0019   19.9015 C   0  0  0  0  0  0  0  0  0  0  0  0
    7.1705    0.0469   18.5947 C   0  0  0  0  0  0  0  0  0  0  0  0
    8.1219   -0.4322   18.3739 H   0  0  0  0  0  0  0  0  0  0  0  0
    6.5714    0.6794   17.5801 N   0  0  0  0  0  0  0  0  0  0  0  0
    5.4057    1.2911   17.8421 C   0  0  0  0  0  0  0  0  0  0  0  0
    4.9184    1.7781   17.0000 H   0  0  0  0  0  0  0  0  0  0  0  0
    4.8033    1.3091   19.1060 C   0  0  0  0  0  0  0  0  0  0  0  0
    3.8726    1.8433   19.2598 H   0  0  0  0  0  0  0  0  0  0  0  0
    5.4381    0.6544   20.1587 C   0  0  0  0  0  0  0  0  0  0  0  0
    5.0035    0.6298   21.1631 H   0  0  0  0  0  0  0  0  0  0  0  0
    7.5319   -0.2503   22.2634 C   0  0  0  0  0  0  0  0  0  0  0  0
    7.1200    0.9552   22.8044 N   0  0  0  0  0  0  0  0  0  0  0  0
    7.0760    1.7435   22.1753 H   0  0  0  0  0  0  0  0  0  0  0  0
    6.8548    1.2606   24.1552 C   0  0  0  0  0  0  0  0  0  0  0  0
    6.2943    0.3004   25.0050 C   0  0  0  0  0  0  0  0  0  0  0  0
    6.0526   -0.6781   24.6050 H   0  0  0  0  0  0  0  0  0  0  0  0
    6.0527    0.6042   26.3473 C   0  0  0  0  0  0  0  0  0  0  0  0
    5.6336   -0.1585   26.9957 H   0  0  0  0  0  0  0  0  0  0  0  0
    6.3445    1.8738   26.8535 C   0  0  0  0  0  0  0  0  0  0  0  0
    6.1495    2.1006   27.8996 H   0  0  0  0  0  0  0  0  0  0  0  0
    6.8801    2.8448   25.9990 C   0  0  0  0  0  0  0  0  0  0  0  0
    7.0960    3.8371   26.3867 H   0  0  0  0  0  0  0  0  0  0  0  0
    7.1277    2.5462   24.6513 C   0  0  0  0  0  0  0  0  0  0  0  0
    7.5415    3.3098   23.9979 H   0  0  0  0  0  0  0  0  0  0  0  0
    8.4155   -1.4307   23.1794 S   0  0  0  0  0  0  0  0  0  0  0  0
  1  2  1  0
  2  3  2  0
  3  4  1  0
  4  5  1  0
  5  6  2  0
  6  7  1  0
  6  8  1  0
  8  9  2  0
  9 10  1  0
  9 11  1  0
 11 12  1  0
 11 13  2  0
 13 14  1  0
  4 15  2  0
 15 16  1  0
 16 17  1  0
 16 18  1  0
 18 19  2  0
 19 20  1  0
 19 21  1  0
 21 22  1  0
 21 23  2  0
 23 24  1  0
 23 25  1  0
 25 26  1  0
 25 27  2  0
 27 28  1  0
 15 29  1  0
 29  2  1  0
 13  5  1  0
 27 18  1  0
M  END
>  <cnnaffinity>  (1) 
-5.01804

>  <filename>  (1) 
c1ccc(Nc2scnc2-c2cccnc2)cc1

$$$$
