
     RDKit          3D

 52 56  0  0  0  0  0  0  0  0999 V2000
    4.9950    1.7631   17.0195 H   0  0  0  0  0  0  0  0  0  0  0  0
    5.4507    1.3108   17.8975 C   0  0  0  0  0  0  0  0  0  0  0  0
    6.6376    0.7196   17.7093 N   0  0  0  0  0  0  0  0  0  0  0  0
    7.2205    0.1619   18.7791 C   0  0  0  0  0  0  0  0  0  0  0  0
    8.2178   -0.2317   18.5896 H   0  0  0  0  0  0  0  0  0  0  0  0
    6.6607    0.1014   20.0683 C   0  0  0  0  0  0  0  0  0  0  0  0
    7.4695   -0.5278   21.2243 C   0  0  2  0  0  0  0  0  0  0  0  0
    8.2967    0.5077   21.8981 N   0  0  0  0  0  0  0  0  0  0  0  0
    7.6441    1.5725   22.6838 C   0  0  0  0  0  0  0  0  0  0  0  0
    7.0616    2.2597   22.0456 H   0  0  0  0  0  0  0  0  0  0  0  0
    6.9507    1.1402   23.4144 H   0  0  0  0  0  0  0  0  0  0  0  0
    8.7072    2.3823   23.4643 C   0  0  0  0  0  0  0  0  0  0  0  0
    9.1596    1.7109   24.2161 H   0  0  0  0  0  0  0  0  0  0  0  0
    8.2192    3.2002   24.0097 H   0  0  0  0  0  0  0  0  0  0  0  0
    9.7467    2.9166   22.5683 N   0  0  0  0  0  0  0  0  0  0  0  0
   10.5098    4.0368   22.9462 C   0  0  0  0  0  0  0  0  0  0  0  0
    9.8657    5.2730   23.1121 C   0  0  0  0  0  0  0  0  0  0  0  0
    8.7994    5.3227   22.9001 H   0  0  0  0  0  0  0  0  0  0  0  0
   10.5929    6.4028   23.4895 C   0  0  0  0  0  0  0  0  0  0  0  0
   10.0702    7.3434   23.6253 H   0  0  0  0  0  0  0  0  0  0  0  0
   11.9737    6.3107   23.7090 C   0  0  0  0  0  0  0  0  0  0  0  0
   12.5433    7.1854   24.0102 H   0  0  0  0  0  0  0  0  0  0  0  0
   12.6261    5.0938   23.5067 C   0  0  0  0  0  0  0  0  0  0  0  0
   13.7011    5.0140   23.6474 H   0  0  0  0  0  0  0  0  0  0  0  0
   11.9058    3.9634   23.1128 C   0  0  0  0  0  0  0  0  0  0  0  0
   12.3963    3.0156   22.9215 H   0  0  0  0  0  0  0  0  0  0  0  0
   10.3617    1.8354   21.8030 C   0  0  0  0  0  0  0  0  0  0  0  0
   10.8447    1.0902   22.4625 H   0  0  0  0  0  0  0  0  0  0  0  0
   11.1191    2.2357   21.1192 H   0  0  0  0  0  0  0  0  0  0  0  0
    9.2752    1.1416   20.9923 C   0  0  0  0  0  0  0  0  0  0  0  0
    9.7333    0.4093   20.3187 H   0  0  0  0  0  0  0  0  0  0  0  0
    8.7718    1.9017   20.3753 H   0  0  0  0  0  0  0  0  0  0  0  0
    8.4803   -1.6743   20.8173 C   0  0  0  0  0  0  0  0  0  0  0  0
    9.4696   -1.4372   21.2151 H   0  0  0  0  0  0  0  0  0  0  0  0
    8.6060   -1.7522   19.7441 H   0  0  0  0  0  0  0  0  0  0  0  0
    8.0405   -2.9531   21.5561 C   0  0  2  0  0  0  0  0  0  0  0  0
    8.8361   -3.7047   21.5988 H   0  0  0  0  0  0  0  0  0  0  0  0
    6.6951   -3.5006   21.0533 C   0  0  0  0  0  0  0  0  0  0  0  0
    6.4650   -4.4331   21.5849 H   0  0  0  0  0  0  0  0  0  0  0  0
    6.6552   -3.7275   19.9826 H   0  0  0  0  0  0  0  0  0  0  0  0
    5.7108   -2.3680   21.4517 C   0  0  0  0  0  0  0  0  0  0  0  0
    5.3031   -1.8926   20.5593 H   0  0  0  0  0  0  0  0  0  0  0  0
    4.8874   -2.7502   22.0618 H   0  0  0  0  0  0  0  0  0  0  0  0
    6.6050   -1.3607   22.2355 C   0  0  1  0  0  0  0  0  0  0  0  0
    6.0777   -0.7021   22.9223 H   0  0  0  0  0  0  0  0  0  0  0  0
    7.6187   -2.3185   22.8951 C   0  0  0  0  0  0  0  0  0  0  0  0
    8.4379   -1.7920   23.3981 H   0  0  0  0  0  0  0  0  0  0  0  0
    7.1555   -3.0228   23.6005 H   0  0  0  0  0  0  0  0  0  0  0  0
    5.4368    0.7748   20.2490 C   0  0  0  0  0  0  0  0  0  0  0  0
    4.9829    0.8574   21.2404 H   0  0  0  0  0  0  0  0  0  0  0  0
    4.8223    1.3769   19.1444 C   0  0  0  0  0  0  0  0  0  0  0  0
    3.8796    1.8996   19.2411 H   0  0  0  0  0  0  0  0  0  0  0  0
  1  2  1  0
  2  3  2  0
  3  4  1  0
  4  5  1  0
  4  6  2  0
  6  7  1  0
  7  8  1  1
  8  9  1  0
  9 10  1  0
  9 11  1  0
  9 12  1  0
 12 13  1  0
 12 14  1  0
 12 15  1  0
 15 16  1  0
 16 17  2  0
 17 18  1  0
 17 19  1  0
 19 20  1  0
 19 21  2  0
 21 22  1  0
 21 23  1  0
 23 24  1  0
 23 25  2  0
 25 26  1  0
 15 27  1  0
 27 28  1  0
 27 29  1  0
 27 30  1  0
 30 31  1  0
 30 32  1  0
  7 33  1  0
 33 34  1  0
 33 35  1  0
 33 36  1  0
 36 37  1  1
 36 38  1  0
 38 39  1  0
 38 40  1  0
 38 41  1  0
 41 42  1  0
 41 43  1  0
 41 44  1  0
 44 45  1  1
 44 46  1  0
 46 47  1  0
 46 48  1  0
  6 49  1  0
 49 50  1  0
 49 51  2  0
 51 52  1  0
 51  2  1  0
 44  7  1  0
 30  8  1  0
 46 36  1  0
 25 16  1  0
M  END
>  <cnnaffinity>  (1) 
-5.29055

>  <filename>  (1) 
c1ccc(N2CCN([C@@]3(c4cccnc4)C[C@@H]4CC[C@H]3C4)CC2)cc1

$$$$
