
     RDKit          3D

 38 40  0  0  0  0  0  0  0  0999 V2000
    4.9349    1.7832   17.0022 H   0  0  0  0  0  0  0  0  0  0  0  0
    5.4099    1.2834   17.8448 C   0  0  0  0  0  0  0  0  0  0  0  0
    6.5699    0.6589   17.5866 N   0  0  0  0  0  0  0  0  0  0  0  0
    7.1921    0.0480   18.6040 C   0  0  0  0  0  0  0  0  0  0  0  0
    8.1327   -0.4413   18.3626 H   0  0  0  0  0  0  0  0  0  0  0  0
    6.6876    0.0174   19.9161 C   0  0  0  0  0  0  0  0  0  0  0  0
    7.2735   -0.6657   20.9520 O   0  0  0  0  0  0  0  0  0  0  0  0
    8.6354   -0.7328   21.0849 C   0  0  0  0  0  0  0  0  0  0  0  0
    9.6572    0.1208   20.6222 C   0  0  0  0  0  0  0  0  0  0  0  0
    9.6004    0.9670   19.9536 H   0  0  0  0  0  0  0  0  0  0  0  0
   10.8408   -0.2479   21.1017 N   0  0  0  0  0  0  0  0  0  0  0  0
   10.5763   -1.3223   21.8510 N   0  0  0  0  0  0  0  0  0  0  0  0
   11.3414   -1.7654   22.3407 H   0  0  0  0  0  0  0  0  0  0  0  0
    9.2603   -1.6725   21.8887 C   0  0  0  0  0  0  0  0  0  0  0  0
    8.7170   -2.7400   22.7832 C   0  0  0  0  0  0  0  0  0  0  0  0
    9.3692   -3.6216   22.7696 H   0  0  0  0  0  0  0  0  0  0  0  0
    7.7514   -3.0535   22.3690 H   0  0  0  0  0  0  0  0  0  0  0  0
    8.5165   -2.2575   24.2325 C   0  0  0  0  0  0  0  0  0  0  0  0
    8.2203   -3.1052   24.8622 H   0  0  0  0  0  0  0  0  0  0  0  0
    9.4690   -1.9018   24.6472 H   0  0  0  0  0  0  0  0  0  0  0  0
    7.4715   -1.1372   24.3622 C   0  0  0  0  0  0  0  0  0  0  0  0
    6.5239   -1.4634   23.9102 H   0  0  0  0  0  0  0  0  0  0  0  0
    7.7853   -0.2579   23.7817 H   0  0  0  0  0  0  0  0  0  0  0  0
    7.2519   -0.7515   25.8073 C   0  0  0  0  0  0  0  0  0  0  0  0
    8.0487    0.2339   26.4125 C   0  0  0  0  0  0  0  0  0  0  0  0
    8.8164    0.7373   25.8252 H   0  0  0  0  0  0  0  0  0  0  0  0
    7.8613    0.5705   27.7542 C   0  0  0  0  0  0  0  0  0  0  0  0
    8.4749    1.3294   28.2239 H   0  0  0  0  0  0  0  0  0  0  0  0
    6.8832   -0.0757   28.5124 C   0  0  0  0  0  0  0  0  0  0  0  0
    6.7828    0.1596   29.5695 H   0  0  0  0  0  0  0  0  0  0  0  0
    6.1176   -1.0965   27.9386 C   0  0  0  0  0  0  0  0  0  0  0  0
    5.4027   -1.6475   28.5453 H   0  0  0  0  0  0  0  0  0  0  0  0
    6.3020   -1.4247   26.5933 C   0  0  0  0  0  0  0  0  0  0  0  0
    5.7042   -2.2145   26.1406 H   0  0  0  0  0  0  0  0  0  0  0  0
    5.4646    0.6445   20.1761 C   0  0  0  0  0  0  0  0  0  0  0  0
    5.0466    0.6058   21.1822 H   0  0  0  0  0  0  0  0  0  0  0  0
    4.8293    1.2970   19.1176 C   0  0  0  0  0  0  0  0  0  0  0  0
    3.8960    1.8209   19.2659 H   0  0  0  0  0  0  0  0  0  0  0  0
  1  2  1  0
  2  3  2  0
  3  4  1  0
  4  5  1  0
  4  6  2  0
  6  7  1  0
  7  8  1  0
  8  9  1  0
  9 10  1  0
  9 11  2  0
 11 12  1  0
 12 13  1  0
 12 14  1  0
 14 15  1  0
 15 16  1  0
 15 17  1  0
 15 18  1  0
 18 19  1  0
 18 20  1  0
 18 21  1  0
 21 22  1  0
 21 23  1  0
 21 24  1  0
 24 25  2  0
 25 26  1  0
 25 27  1  0
 27 28  1  0
 27 29  2  0
 29 30  1  0
 29 31  1  0
 31 32  1  0
 31 33  2  0
 33 34  1  0
  6 35  1  0
 35 36  1  0
 35 37  2  0
 37 38  1  0
 37  2  1  0
 14  8  2  0
 33 24  1  0
M  END
>  <cnnaffinity>  (1) 
-5.14545

>  <filename>  (1) 
c1ccc(CCCc2[nH]ncc2Oc2cccnc2)cc1

$$$$
