
     RDKit          3D

 31 34  0  0  0  0  0  0  0  0999 V2000
    4.9549    1.8024   16.9510 H   0  0  0  0  0  0  0  0  0  0  0  0
    5.4104    1.2957   17.8005 C   0  0  0  0  0  0  0  0  0  0  0  0
    6.5594    0.6504   17.5509 N   0  0  0  0  0  0  0  0  0  0  0  0
    7.1485    0.0291   18.5716 C   0  0  0  0  0  0  0  0  0  0  0  0
    8.0717   -0.5057   18.3583 H   0  0  0  0  0  0  0  0  0  0  0  0
    6.6441    0.0329   19.8797 C   0  0  0  0  0  0  0  0  0  0  0  0
    7.4340   -0.6680   20.8903 C   0  0  0  0  0  0  0  0  0  0  0  0
    8.2877   -1.6423   20.6699 N   0  0  0  0  0  0  0  0  0  0  0  0
    8.8049   -2.0663   21.8747 N   0  0  0  0  0  0  0  0  0  0  0  0
    8.2530   -1.3094   22.7840 C   0  0  0  0  0  0  0  0  0  0  0  0
    8.3686   -1.0476   24.5074 S   0  0  0  0  0  0  0  0  0  0  0  0
    7.2550    0.2954   24.2735 C   0  0  0  0  0  0  0  0  0  0  0  0
    6.8383    1.1475   25.2384 N   0  0  0  0  0  0  0  0  0  0  0  0
    6.2675    1.8593   24.8085 H   0  0  0  0  0  0  0  0  0  0  0  0
    6.7599    0.9284   26.6274 C   0  0  0  0  0  0  0  0  0  0  0  0
    6.2546   -0.2613   27.1613 C   0  0  0  0  0  0  0  0  0  0  0  0
    5.8941   -1.0449   26.5069 H   0  0  0  0  0  0  0  0  0  0  0  0
    6.2021   -0.4286   28.5470 C   0  0  0  0  0  0  0  0  0  0  0  0
    5.8141   -1.3578   28.9500 H   0  0  0  0  0  0  0  0  0  0  0  0
    6.6643    0.5723   29.4063 C   0  0  0  0  0  0  0  0  0  0  0  0
    6.6233    0.4251   30.4825 H   0  0  0  0  0  0  0  0  0  0  0  0
    7.1735    1.7571   28.8640 C   0  0  0  0  0  0  0  0  0  0  0  0
    7.5644    2.5284   29.5184 H   0  0  0  0  0  0  0  0  0  0  0  0
    7.1973    1.9460   27.4780 C   0  0  0  0  0  0  0  0  0  0  0  0
    7.5313    2.8783   27.0344 H   0  0  0  0  0  0  0  0  0  0  0  0
    6.8462    0.5427   23.0622 N   0  0  0  0  0  0  0  0  0  0  0  0
    7.3882   -0.4132   22.2411 N   0  0  0  0  0  0  0  0  0  0  0  0
    5.4326    0.6959   20.1334 C   0  0  0  0  0  0  0  0  0  0  0  0
    4.9983    0.7214   21.1338 H   0  0  0  0  0  0  0  0  0  0  0  0
    4.8050    1.3288   19.0614 C   0  0  0  0  0  0  0  0  0  0  0  0
    3.8659    1.8571   19.1817 H   0  0  0  0  0  0  0  0  0  0  0  0
  1  2  1  0
  2  3  2  0
  3  4  1  0
  4  5  1  0
  4  6  2  0
  6  7  1  0
  7  8  2  0
  8  9  1  0
  9 10  2  0
 10 11  1  0
 11 12  1  0
 12 13  1  0
 13 14  1  0
 13 15  1  0
 15 16  2  0
 16 17  1  0
 16 18  1  0
 18 19  1  0
 18 20  2  0
 20 21  1  0
 20 22  1  0
 22 23  1  0
 22 24  2  0
 24 25  1  0
 12 26  2  0
 26 27  1  0
  6 28  1  0
 28 29  1  0
 28 30  2  0
 30 31  1  0
 30  2  1  0
 27  7  1  0
 27 10  1  0
 24 15  1  0
M  END
>  <cnnaffinity>  (1) 
-5.14049

>  <filename>  (1) 
c1ccc(Nc2nn3c(-c4cccnc4)nnc3s2)cc1

$$$$
