
     RDKit          3D

 40 43  0  0  0  0  0  0  0  0999 V2000
    5.0593    1.7419   16.5786 H   0  0  0  0  0  0  0  0  0  0  0  0
    5.4071    1.2822   17.5023 C   0  0  0  0  0  0  0  0  0  0  0  0
    6.4369    0.4276   17.3843 N   0  0  0  0  0  0  0  0  0  0  0  0
    6.8929   -0.1370   18.5112 C   0  0  0  0  0  0  0  0  0  0  0  0
    7.7269   -0.8315   18.4016 H   0  0  0  0  0  0  0  0  0  0  0  0
    6.3798    0.1273   19.7942 C   0  0  0  0  0  0  0  0  0  0  0  0
    6.9808   -0.4392   21.0542 C   0  0  0  0  0  0  0  0  0  0  0  0
    7.7329    0.5532   21.9044 C   0  0  0  0  0  0  0  0  0  0  0  0
    7.2130    1.3072   22.8271 N   0  0  0  0  0  0  0  0  0  0  0  0
    8.1539    2.0072   23.5358 N   0  0  0  0  0  0  0  0  0  0  0  0
    9.3671    1.7829   23.1207 C   0  0  0  0  0  0  0  0  0  0  0  0
   10.6023    2.2718   23.8188 C   0  0  0  0  0  0  0  0  0  0  0  0
   11.3665    2.5290   23.0748 H   0  0  0  0  0  0  0  0  0  0  0  0
   10.3524    3.1815   24.3707 H   0  0  0  0  0  0  0  0  0  0  0  0
   11.1763    1.2250   24.7931 C   0  0  0  0  0  0  0  0  0  0  0  0
   12.1256    1.5762   25.2143 H   0  0  0  0  0  0  0  0  0  0  0  0
   10.4956    1.0403   25.6309 H   0  0  0  0  0  0  0  0  0  0  0  0
   11.3469   -0.0462   24.1836 O   0  0  0  0  0  0  0  0  0  0  0  0
   12.3015   -0.2158   23.2245 C   0  0  0  0  0  0  0  0  0  0  0  0
   13.4813    0.5340   23.1305 C   0  0  0  0  0  0  0  0  0  0  0  0
   13.6395    1.3984   23.7720 H   0  0  0  0  0  0  0  0  0  0  0  0
   14.4332    0.1859   22.1681 C   0  0  0  0  0  0  0  0  0  0  0  0
   15.3357    0.7851   22.0918 H   0  0  0  0  0  0  0  0  0  0  0  0
   14.2112   -0.8793   21.2897 C   0  0  0  0  0  0  0  0  0  0  0  0
   14.9105   -1.1140   20.4875 H   0  0  0  0  0  0  0  0  0  0  0  0
   12.9987   -1.5668   21.3387 C   0  0  0  0  0  0  0  0  0  0  0  0
   12.7849   -2.3142   20.5828 H   0  0  0  0  0  0  0  0  0  0  0  0
   12.0533   -1.2587   22.3139 C   0  0  0  0  0  0  0  0  0  0  0  0
   11.1097   -1.7928   22.3937 H   0  0  0  0  0  0  0  0  0  0  0  0
    9.4417    0.7574   21.7304 S   0  0  0  0  0  0  0  0  0  0  0  0
    6.2427   -1.5568   21.7839 C   0  0  0  0  0  0  0  0  0  0  0  0
    6.2732   -1.5370   22.8716 H   0  0  0  0  0  0  0  0  0  0  0  0
    5.3076   -1.9183   21.3607 H   0  0  0  0  0  0  0  0  0  0  0  0
    7.4997   -1.8567   21.0389 C   0  0  0  0  0  0  0  0  0  0  0  0
    7.3780   -2.4062   20.1167 H   0  0  0  0  0  0  0  0  0  0  0  0
    8.4104   -2.0655   21.5944 H   0  0  0  0  0  0  0  0  0  0  0  0
    5.3016    1.0149   19.8905 C   0  0  0  0  0  0  0  0  0  0  0  0
    4.8834    1.2380   20.8742 H   0  0  0  0  0  0  0  0  0  0  0  0
    4.8018    1.5968   18.7237 C   0  0  0  0  0  0  0  0  0  0  0  0
    3.9808    2.3061   18.7499 H   0  0  0  0  0  0  0  0  0  0  0  0
  1  2  1  0
  2  3  2  0
  3  4  1  0
  4  5  1  0
  4  6  2  0
  6  7  1  0
  7  8  1  0
  8  9  2  0
  9 10  1  0
 10 11  2  0
 11 12  1  0
 12 13  1  0
 12 14  1  0
 12 15  1  0
 15 16  1  0
 15 17  1  0
 15 18  1  0
 18 19  1  0
 19 20  2  0
 20 21  1  0
 20 22  1  0
 22 23  1  0
 22 24  2  0
 24 25  1  0
 24 26  1  0
 26 27  1  0
 26 28  2  0
 28 29  1  0
 11 30  1  0
  7 31  1  0
 31 32  1  0
 31 33  1  0
 31 34  1  0
 34 35  1  0
 34 36  1  0
  6 37  1  0
 37 38  1  0
 37 39  2  0
 39 40  1  0
 39  2  1  0
 34  7  1  0
 30  8  1  0
 28 19  1  0
M  END
>  <cnnaffinity>  (1) 
-5.96941

>  <filename>  (1) 
c1ccc(OCCc2nnc(C3(c4cccnc4)CC3)s2)cc1

$$$$
