
     RDKit          3D

 42 45  0  0  0  0  0  0  0  0999 V2000
    5.0399    1.7663   16.9116 H   0  0  0  0  0  0  0  0  0  0  0  0
    5.4599    1.2982   17.8014 C   0  0  0  0  0  0  0  0  0  0  0  0
    6.5967    0.6100   17.6282 N   0  0  0  0  0  0  0  0  0  0  0  0
    7.1352    0.0304   18.7120 C   0  0  0  0  0  0  0  0  0  0  0  0
    8.0649   -0.5143   18.5454 H   0  0  0  0  0  0  0  0  0  0  0  0
    6.5830    0.0917   20.0085 C   0  0  0  0  0  0  0  0  0  0  0  0
    7.2273   -0.5983   21.1933 C   0  0  0  0  0  0  0  0  0  0  0  0
    8.1139    0.2422   22.0629 C   0  0  0  0  0  0  0  0  0  0  0  0
    7.7524    1.2167   22.8307 N   0  0  0  0  0  0  0  0  0  0  0  0
    8.9006    1.6786   23.4603 N   0  0  0  0  0  0  0  0  0  0  0  0
    9.8720    0.9462   23.0290 C   0  0  0  0  0  0  0  0  0  0  0  0
   11.3278    1.0479   23.3370 C   0  0  0  0  0  0  0  0  0  0  0  0
   11.4395    1.7798   24.1424 H   0  0  0  0  0  0  0  0  0  0  0  0
   11.6709    0.0840   23.7331 H   0  0  0  0  0  0  0  0  0  0  0  0
   12.1766    1.4503   22.1165 C   0  0  0  0  0  0  0  0  0  0  0  0
   12.0767    0.6801   21.3467 H   0  0  0  0  0  0  0  0  0  0  0  0
   13.2315    1.4473   22.4143 H   0  0  0  0  0  0  0  0  0  0  0  0
   11.8063    2.8034   21.4806 C   0  0  0  0  0  0  0  0  0  0  0  0
   10.7667    2.7444   21.1329 H   0  0  0  0  0  0  0  0  0  0  0  0
   12.3971    2.9254   20.5646 H   0  0  0  0  0  0  0  0  0  0  0  0
   11.9779    4.0350   22.3469 C   0  0  0  0  0  0  0  0  0  0  0  0
   13.1527    4.7990   22.2630 C   0  0  0  0  0  0  0  0  0  0  0  0
   13.9500    4.4720   21.5963 H   0  0  0  0  0  0  0  0  0  0  0  0
   13.2979    5.9790   22.9951 C   0  0  0  0  0  0  0  0  0  0  0  0
   14.1802    6.5918   22.8479 H   0  0  0  0  0  0  0  0  0  0  0  0
   12.2785    6.4068   23.8500 C   0  0  0  0  0  0  0  0  0  0  0  0
   12.3863    7.3334   24.4081 H   0  0  0  0  0  0  0  0  0  0  0  0
   11.1085    5.6487   23.9562 C   0  0  0  0  0  0  0  0  0  0  0  0
   10.3035    5.9792   24.6053 H   0  0  0  0  0  0  0  0  0  0  0  0
   10.9493    4.4843   23.1973 C   0  0  0  0  0  0  0  0  0  0  0  0
   10.0077    3.9341   23.2349 H   0  0  0  0  0  0  0  0  0  0  0  0
    9.4546    0.0083   22.1470 O   0  0  0  0  0  0  0  0  0  0  0  0
    6.3983   -1.6363   21.9425 C   0  0  0  0  0  0  0  0  0  0  0  0
    5.3778   -1.7853   21.5953 H   0  0  0  0  0  0  0  0  0  0  0  0
    6.5359   -1.7119   23.0207 H   0  0  0  0  0  0  0  0  0  0  0  0
    7.5009   -2.0772   21.0368 C   0  0  0  0  0  0  0  0  0  0  0  0
    8.4145   -2.5011   21.4471 H   0  0  0  0  0  0  0  0  0  0  0  0
    7.1615   -2.5031   20.0969 H   0  0  0  0  0  0  0  0  0  0  0  0
    5.3976    0.8208   20.1595 C   0  0  0  0  0  0  0  0  0  0  0  0
    4.9311    0.8984   21.1427 H   0  0  0  0  0  0  0  0  0  0  0  0
    4.8257    1.4336   19.0400 C   0  0  0  0  0  0  0  0  0  0  0  0
    3.9201    2.0226   19.1158 H   0  0  0  0  0  0  0  0  0  0  0  0
  1  2  1  0
  2  3  2  0
  3  4  1  0
  4  5  1  0
  4  6  2  0
  6  7  1  0
  7  8  1  0
  8  9  2  0
  9 10  1  0
 10 11  2  0
 11 12  1  0
 12 13  1  0
 12 14  1  0
 12 15  1  0
 15 16  1  0
 15 17  1  0
 15 18  1  0
 18 19  1  0
 18 20  1  0
 18 21  1  0
 21 22  2  0
 22 23  1  0
 22 24  1  0
 24 25  1  0
 24 26  2  0
 26 27  1  0
 26 28  1  0
 28 29  1  0
 28 30  2  0
 30 31  1  0
 11 32  1  0
  7 33  1  0
 33 34  1  0
 33 35  1  0
 33 36  1  0
 36 37  1  0
 36 38  1  0
  6 39  1  0
 39 40  1  0
 39 41  2  0
 41 42  1  0
 41  2  1  0
 36  7  1  0
 32  8  1  0
 30 21  1  0
M  END
>  <cnnaffinity>  (1) 
-5.15154

>  <filename>  (1) 
c1ccc(CCCc2nnc(C3(c4cccnc4)CC3)o2)cc1

$$$$
