
     RDKit          3D

 45 47  0  0  0  0  0  0  0  0999 V2000
    4.9312    1.8115   16.9677 H   0  0  0  0  0  0  0  0  0  0  0  0
    5.3883    1.3007   17.8107 C   0  0  0  0  0  0  0  0  0  0  0  0
    6.5467    0.6760   17.5589 N   0  0  0  0  0  0  0  0  0  0  0  0
    7.1513    0.0629   18.5867 C   0  0  0  0  0  0  0  0  0  0  0  0
    8.1011   -0.4115   18.3357 H   0  0  0  0  0  0  0  0  0  0  0  0
    6.6484    0.0198   19.9063 C   0  0  0  0  0  0  0  0  0  0  0  0
    7.3527   -0.8061   20.9926 C   0  0  2  0  0  0  0  0  0  0  0  0
    6.8360   -2.2637   20.8192 C   0  0  0  0  0  0  0  0  0  0  0  0
    6.9349   -2.4804   19.7500 H   0  0  0  0  0  0  0  0  0  0  0  0
    5.7484   -2.2513   20.9906 H   0  0  0  0  0  0  0  0  0  0  0  0
    7.4709   -3.3632   21.6859 C   0  0  0  0  0  0  0  0  0  0  0  0
    7.5090   -4.2968   21.1055 H   0  0  0  0  0  0  0  0  0  0  0  0
    8.5174   -3.1322   21.9391 H   0  0  0  0  0  0  0  0  0  0  0  0
    6.6921   -3.6294   22.9797 C   0  0  0  0  0  0  0  0  0  0  0  0
    6.6749   -2.7211   23.5973 H   0  0  0  0  0  0  0  0  0  0  0  0
    5.6404   -3.8534   22.7342 H   0  0  0  0  0  0  0  0  0  0  0  0
    7.2640   -4.7961   23.8009 C   0  0  0  0  0  0  0  0  0  0  0  0
    7.2780   -5.7067   23.1840 H   0  0  0  0  0  0  0  0  0  0  0  0
    8.3125   -4.5834   24.0595 H   0  0  0  0  0  0  0  0  0  0  0  0
    6.4703   -5.0536   25.0665 C   0  0  0  0  0  0  0  0  0  0  0  0
    5.3708   -5.9271   25.0683 C   0  0  0  0  0  0  0  0  0  0  0  0
    5.1165   -6.4601   24.1540 H   0  0  0  0  0  0  0  0  0  0  0  0
    4.5987   -6.1107   26.2211 C   0  0  0  0  0  0  0  0  0  0  0  0
    3.7523   -6.7938   26.2051 H   0  0  0  0  0  0  0  0  0  0  0  0
    4.9158   -5.4119   27.3912 C   0  0  0  0  0  0  0  0  0  0  0  0
    4.3250   -5.5529   28.2935 H   0  0  0  0  0  0  0  0  0  0  0  0
    6.0000   -4.5284   27.3994 C   0  0  0  0  0  0  0  0  0  0  0  0
    6.2434   -3.9783   28.3032 H   0  0  0  0  0  0  0  0  0  0  0  0
    6.7664   -4.3497   26.2437 C   0  0  0  0  0  0  0  0  0  0  0  0
    7.6011   -3.6501   26.2410 H   0  0  0  0  0  0  0  0  0  0  0  0
    7.1067   -0.2477   22.4148 C   0  0  0  0  0  0  0  0  0  0  0  0
    6.1815   -0.6500   22.8476 H   0  0  0  0  0  0  0  0  0  0  0  0
    6.9870    0.8497   22.3403 H   0  0  0  0  0  0  0  0  0  0  0  0
    8.2622   -0.6526   23.2054 N   0  0  0  0  0  0  0  0  0  0  0  0
    8.3687   -0.0837   24.0391 H   0  0  0  0  0  0  0  0  0  0  0  0
    9.4496   -0.6132   22.3521 C   0  0  0  0  0  0  0  0  0  0  0  0
   10.1354   -1.4363   22.6084 H   0  0  0  0  0  0  0  0  0  0  0  0
   10.0330    0.3133   22.4821 H   0  0  0  0  0  0  0  0  0  0  0  0
    8.9054   -0.7028   20.9067 C   0  0  0  0  0  0  0  0  0  0  0  0
    9.1755    0.2137   20.3679 H   0  0  0  0  0  0  0  0  0  0  0  0
    9.3443   -1.5440   20.3559 H   0  0  0  0  0  0  0  0  0  0  0  0
    5.4214    0.6653   20.1331 C   0  0  0  0  0  0  0  0  0  0  0  0
    4.9701    0.6740   21.1255 H   0  0  0  0  0  0  0  0  0  0  0  0
    4.7865    1.3181   19.0726 C   0  0  0  0  0  0  0  0  0  0  0  0
    3.8561    1.8570   19.2232 H   0  0  0  0  0  0  0  0  0  0  0  0
  1  2  1  0
  2  3  2  0
  3  4  1  0
  4  5  1  0
  4  6  2  0
  6  7  1  0
  7  8  1  1
  8  9  1  0
  8 10  1  0
  8 11  1  0
 11 12  1  0
 11 13  1  0
 11 14  1  0
 14 15  1  0
 14 16  1  0
 14 17  1  0
 17 18  1  0
 17 19  1  0
 17 20  1  0
 20 21  2  0
 21 22  1  0
 21 23  1  0
 23 24  1  0
 23 25  2  0
 25 26  1  0
 25 27  1  0
 27 28  1  0
 27 29  2  0
 29 30  1  0
  7 31  1  0
 31 32  1  0
 31 33  1  0
 31 34  1  0
 34 35  1  0
 34 36  1  0
 36 37  1  0
 36 38  1  0
 36 39  1  0
 39 40  1  0
 39 41  1  0
  6 42  1  0
 42 43  1  0
 42 44  2  0
 44 45  1  0
 44  2  1  0
 39  7  1  0
 29 20  1  0
M  END
>  <cnnaffinity>  (1) 
-5.00138

>  <filename>  (1) 
c1ccc(CCCC[C@]2(c3cccnc3)CCNC2)cc1

$$$$
