
     RDKit          3D

 38 40  0  0  0  0  0  0  0  0999 V2000
    5.1012    1.7580   16.8654 H   0  0  0  0  0  0  0  0  0  0  0  0
    5.5241    1.2602   17.7365 C   0  0  0  0  0  0  0  0  0  0  0  0
    6.6413    0.5479   17.5267 N   0  0  0  0  0  0  0  0  0  0  0  0
    7.1776   -0.0713   18.5873 C   0  0  0  0  0  0  0  0  0  0  0  0
    8.0881   -0.6418   18.3907 H   0  0  0  0  0  0  0  0  0  0  0  0
    6.6426   -0.0248   19.8827 C   0  0  0  0  0  0  0  0  0  0  0  0
    7.2936   -0.7359   21.0526 C   0  0  0  0  0  0  0  0  0  0  0  0
    8.1476   -1.3355   20.7217 H   0  0  0  0  0  0  0  0  0  0  0  0
    6.5889   -1.4121   21.5458 H   0  0  0  0  0  0  0  0  0  0  0  0
    7.7477    0.1906   22.0874 N   0  0  0  0  0  0  0  0  0  0  0  0
    6.9301    0.5387   23.0980 N   0  0  0  0  0  0  0  0  0  0  0  0
    7.4893    1.5143   23.7123 N   0  0  0  0  0  0  0  0  0  0  0  0
    8.6605    1.8423   23.1322 N   0  0  0  0  0  0  0  0  0  0  0  0
    8.8130    1.0184   22.1179 C   0  0  0  0  0  0  0  0  0  0  0  0
    9.9680    0.9035   21.1808 C   0  0  0  0  0  0  0  0  0  0  0  0
   10.5571    1.8257   21.2291 H   0  0  0  0  0  0  0  0  0  0  0  0
    9.5810    0.8291   20.1591 H   0  0  0  0  0  0  0  0  0  0  0  0
   10.8829   -0.3151   21.4591 C   0  0  0  0  0  0  0  0  0  0  0  0
   11.6517   -0.3730   20.6812 H   0  0  0  0  0  0  0  0  0  0  0  0
   10.2876   -1.2345   21.3224 H   0  0  0  0  0  0  0  0  0  0  0  0
   11.5390   -0.3709   22.8545 C   0  0  0  0  0  0  0  0  0  0  0  0
   12.0746   -1.3185   22.8992 H   0  0  0  0  0  0  0  0  0  0  0  0
   10.7656   -0.4189   23.6364 H   0  0  0  0  0  0  0  0  0  0  0  0
   12.4526    0.8185   23.1940 C   0  0  0  0  0  0  0  0  0  0  0  0
   14.1766    0.6384   22.9499 C   0  0  0  0  0  0  0  0  0  0  0  0
   14.9566   -0.1431   22.4094 H   0  0  0  0  0  0  0  0  0  0  0  0
   14.1607    0.7215   22.6053 C   0  0  0  0  0  0  0  0  0  0  0  0
   14.6352    1.7391   22.8639 H   0  0  0  0  0  0  0  0  0  0  0  0
   14.0587    3.2812   22.7302 C   0  0  0  0  0  0  0  0  0  0  0  0
   14.6334    4.1784   22.4815 H   0  0  0  0  0  0  0  0  0  0  0  0
   12.7831    3.3182   23.1261 C   0  0  0  0  0  0  0  0  0  0  0  0
   12.2647    4.2698   23.2268 H   0  0  0  0  0  0  0  0  0  0  0  0
   11.9821    2.0705   23.4373 C   0  0  0  0  0  0  0  0  0  0  0  0
   10.9662    2.2004   23.7965 H   0  0  0  0  0  0  0  0  0  0  0  0
    5.4770    0.7270   20.0820 C   0  0  0  0  0  0  0  0  0  0  0  0
    5.0523    0.8124   21.0851 H   0  0  0  0  0  0  0  0  0  0  0  0
    4.9078    1.3767   18.9861 C   0  0  0  0  0  0  0  0  0  0  0  0
    4.0124    1.9800   19.0900 H   0  0  0  0  0  0  0  0  0  0  0  0
  1  2  1  0
  2  3  2  0
  3  4  1  0
  4  5  1  0
  4  6  2  0
  6  7  1  0
  7  8  1  0
  7  9  1  0
  7 10  1  0
 10 11  1  0
 11 12  2  0
 12 13  1  0
 13 14  2  0
 14 15  1  0
 15 16  1  0
 15 17  1  0
 15 18  1  0
 18 19  1  0
 18 20  1  0
 18 21  1  0
 21 22  1  0
 21 23  1  0
 21 24  1  0
 24 25  2  0
 25 26  1  0
 25 27  1  0
 27 28  1  0
 27 29  2  0
 29 30  1  0
 29 31  1  0
 31 32  1  0
 31 33  2  0
 33 34  1  0
  6 35  1  0
 35 36  1  0
 35 37  2  0
 37 38  1  0
 37  2  1  0
 14 10  1  0
 33 24  1  0
M  END
>  <cnnaffinity>  (1) 
-5.54729

>  <filename>  (1) 
c1ccc(CCCc2nnnn2Cc2cccnc2)cc1

$$$$
