
     RDKit          3D

 38 41  0  0  0  0  0  0  0  0999 V2000
    5.1125    1.8296   16.8878 H   0  0  0  0  0  0  0  0  0  0  0  0
    5.4927    1.3181   17.7729 C   0  0  0  0  0  0  0  0  0  0  0  0
    6.6464    0.6481   17.6239 N   0  0  0  0  0  0  0  0  0  0  0  0
    7.1265    0.0011   18.6929 C   0  0  0  0  0  0  0  0  0  0  0  0
    8.0705   -0.5239   18.5655 H   0  0  0  0  0  0  0  0  0  0  0  0
    6.4772   -0.0531   19.9404 C   0  0  0  0  0  0  0  0  0  0  0  0
    6.9783   -0.9126   21.0285 C   0  0  0  0  0  0  0  0  0  0  0  0
    6.2495   -1.7874   21.7481 C   0  0  0  0  0  0  0  0  0  0  0  0
    5.1931   -1.9672   21.6210 H   0  0  0  0  0  0  0  0  0  0  0  0
    7.1726   -2.6311   22.9626 S   0  0  0  0  0  0  0  0  0  0  0  0
    8.5896   -1.7554   22.4734 C   0  0  0  0  0  0  0  0  0  0  0  0
    9.8624   -1.6906   22.8048 N   0  0  0  0  0  0  0  0  0  0  0  0
   10.3448   -0.7944   21.8882 C   0  0  0  0  0  0  0  0  0  0  0  0
   11.8448   -0.4894   21.7622 C   0  0  0  0  0  0  0  0  0  0  0  0
   12.0934   -0.8135   20.7398 H   0  0  0  0  0  0  0  0  0  0  0  0
   12.3357   -1.2087   22.4241 H   0  0  0  0  0  0  0  0  0  0  0  0
   12.4597    0.8261   22.0170 N   0  0  0  0  0  0  0  0  0  0  0  0
   12.6966    0.9894   22.9917 H   0  0  0  0  0  0  0  0  0  0  0  0
   11.8519    2.0172   21.4222 C   0  0  0  0  0  0  0  0  0  0  0  0
   10.7544    1.9342   21.4201 H   0  0  0  0  0  0  0  0  0  0  0  0
   12.1284    2.0869   20.3626 H   0  0  0  0  0  0  0  0  0  0  0  0
   12.2731    3.2723   22.1678 C   0  0  0  0  0  0  0  0  0  0  0  0
   13.1791    4.2013   21.6261 C   0  0  0  0  0  0  0  0  0  0  0  0
   13.5674    4.0616   20.6194 H   0  0  0  0  0  0  0  0  0  0  0  0
   13.5922    5.3201   22.3579 C   0  0  0  0  0  0  0  0  0  0  0  0
   14.2869    6.0250   21.9024 H   0  0  0  0  0  0  0  0  0  0  0  0
   13.0902    5.5388   23.6444 C   0  0  0  0  0  0  0  0  0  0  0  0
   13.4305    6.3953   24.2251 H   0  0  0  0  0  0  0  0  0  0  0  0
   12.1542    4.6477   24.1823 C   0  0  0  0  0  0  0  0  0  0  0  0
   11.7172    4.8353   25.1610 H   0  0  0  0  0  0  0  0  0  0  0  0
   11.7578    3.5206   23.4530 C   0  0  0  0  0  0  0  0  0  0  0  0
   11.0261    2.8254   23.8706 H   0  0  0  0  0  0  0  0  0  0  0  0
    9.4474   -0.3299   21.0224 N   0  0  0  0  0  0  0  0  0  0  0  0
    8.3119   -0.9462   21.4354 N   0  0  0  0  0  0  0  0  0  0  0  0
    5.2881    0.6822   20.0847 C   0  0  0  0  0  0  0  0  0  0  0  0
    4.7760    0.7184   21.0481 H   0  0  0  0  0  0  0  0  0  0  0  0
    4.7923    1.3791   18.9824 C   0  0  0  0  0  0  0  0  0  0  0  0
    3.8828    1.9664   19.0480 H   0  0  0  0  0  0  0  0  0  0  0  0
  1  2  1  0
  2  3  2  0
  3  4  1  0
  4  5  1  0
  4  6  2  0
  6  7  1  0
  7  8  2  0
  8  9  1  0
  8 10  1  0
 10 11  1  0
 11 12  2  0
 12 13  1  0
 13 14  1  0
 14 15  1  0
 14 16  1  0
 14 17  1  0
 17 18  1  0
 17 19  1  0
 19 20  1  0
 19 21  1  0
 19 22  1  0
 22 23  2  0
 23 24  1  0
 23 25  1  0
 25 26  1  0
 25 27  2  0
 27 28  1  0
 27 29  1  0
 29 30  1  0
 29 31  2  0
 31 32  1  0
 13 33  2  0
 33 34  1  0
  6 35  1  0
 35 36  1  0
 35 37  2  0
 37 38  1  0
 37  2  1  0
 34  7  1  0
 34 11  1  0
 31 22  1  0
M  END
>  <cnnaffinity>  (1) 
-4.77582

>  <filename>  (1) 
c1ccc(CNCc2nc3scc(-c4cccnc4)n3n2)cc1

$$$$
