
     RDKit          3D

 37 40  0  0  0  0  0  0  0  0999 V2000
    4.9620    1.8453   17.0562 H   0  0  0  0  0  0  0  0  0  0  0  0
    5.4509    1.2893   17.8563 C   0  0  0  0  0  0  0  0  0  0  0  0
    6.6069    0.6855   17.5406 N   0  0  0  0  0  0  0  0  0  0  0  0
    7.2126   -0.0147   18.5073 C   0  0  0  0  0  0  0  0  0  0  0  0
    8.1644   -0.4745   18.2457 H   0  0  0  0  0  0  0  0  0  0  0  0
    6.7041   -0.1844   19.8057 C   0  0  0  0  0  0  0  0  0  0  0  0
    7.5121   -0.9334   20.7918 C   0  0  0  0  0  0  0  0  0  0  0  0
    8.8287   -0.7611   21.0270 C   0  0  0  0  0  0  0  0  0  0  0  0
    9.5423   -0.1968   20.4374 H   0  0  0  0  0  0  0  0  0  0  0  0
    9.3450   -1.4645   22.5375 S   0  0  0  0  0  0  0  0  0  0  0  0
    7.7388   -2.0493   22.8187 C   0  0  0  0  0  0  0  0  0  0  0  0
    7.0881   -2.7246   23.7455 N   0  0  0  0  0  0  0  0  0  0  0  0
    5.8579   -2.8305   23.1740 C   0  0  0  0  0  0  0  0  0  0  0  0
    4.7292   -3.4671   23.8958 C   0  0  0  0  0  0  0  0  0  0  0  0
    3.8769   -2.7908   23.9778 H   0  0  0  0  0  0  0  0  0  0  0  0
    5.0420   -3.6454   24.9265 H   0  0  0  0  0  0  0  0  0  0  0  0
    4.2052   -4.7588   23.2723 C   0  0  0  0  0  0  0  0  0  0  0  0
    3.9226   -4.5946   22.2263 H   0  0  0  0  0  0  0  0  0  0  0  0
    4.9347   -5.5849   23.2991 H   0  0  0  0  0  0  0  0  0  0  0  0
    3.0102   -5.1257   23.9514 O   0  0  0  0  0  0  0  0  0  0  0  0
    3.0821   -5.7607   25.1591 C   0  0  0  0  0  0  0  0  0  0  0  0
    1.8598   -6.2390   25.6554 C   0  0  0  0  0  0  0  0  0  0  0  0
    0.9719   -6.0726   25.0534 H   0  0  0  0  0  0  0  0  0  0  0  0
    1.8122   -6.9064   26.8777 C   0  0  0  0  0  0  0  0  0  0  0  0
    0.8600   -7.2671   27.2555 H   0  0  0  0  0  0  0  0  0  0  0  0
    2.9822   -7.1097   27.6209 C   0  0  0  0  0  0  0  0  0  0  0  0
    2.9434   -7.6292   28.5733 H   0  0  0  0  0  0  0  0  0  0  0  0
    4.1977   -6.6423   27.1250 C   0  0  0  0  0  0  0  0  0  0  0  0
    5.1134   -6.7930   27.6927 H   0  0  0  0  0  0  0  0  0  0  0  0
    4.2584   -5.9696   25.8987 C   0  0  0  0  0  0  0  0  0  0  0  0
    5.2144   -5.6136   25.5338 H   0  0  0  0  0  0  0  0  0  0  0  0
    5.7205   -2.3100   21.9589 N   0  0  0  0  0  0  0  0  0  0  0  0
    6.9432   -1.7501   21.7755 N   0  0  0  0  0  0  0  0  0  0  0  0
    5.5090    0.4831   20.1271 C   0  0  0  0  0  0  0  0  0  0  0  0
    5.1165    0.4480   21.1440 H   0  0  0  0  0  0  0  0  0  0  0  0
    4.8754    1.2261   19.1292 C   0  0  0  0  0  0  0  0  0  0  0  0
    3.9642    1.7758   19.3305 H   0  0  0  0  0  0  0  0  0  0  0  0
  1  2  1  0
  2  3  2  0
  3  4  1  0
  4  5  1  0
  4  6  2  0
  6  7  1  0
  7  8  2  0
  8  9  1  0
  8 10  1  0
 10 11  1  0
 11 12  2  0
 12 13  1  0
 13 14  1  0
 14 15  1  0
 14 16  1  0
 14 17  1  0
 17 18  1  0
 17 19  1  0
 17 20  1  0
 20 21  1  0
 21 22  2  0
 22 23  1  0
 22 24  1  0
 24 25  1  0
 24 26  2  0
 26 27  1  0
 26 28  1  0
 28 29  1  0
 28 30  2  0
 30 31  1  0
 13 32  2  0
 32 33  1  0
  6 34  1  0
 34 35  1  0
 34 36  2  0
 36 37  1  0
 36  2  1  0
 33  7  1  0
 33 11  1  0
 30 21  1  0
M  END
>  <cnnaffinity>  (1) 
-5.49461

>  <filename>  (1) 
c1ccc(OCCc2nc3scc(-c4cccnc4)n3n2)cc1

$$$$
