
     RDKit          3D

 33 36  0  0  0  0  0  0  0  0999 V2000
    7.5935    1.6914   27.4095 H   0  0  0  0  0  0  0  0  0  0  0  0
    6.9937    1.3994   26.5492 C   0  0  0  0  0  0  0  0  0  0  0  0
    7.5715    1.5611   25.3510 N   0  0  0  0  0  0  0  0  0  0  0  0
    6.8658    1.2324   24.2563 C   0  0  0  0  0  0  0  0  0  0  0  0
    7.6070    1.3047   22.9191 C   0  0  0  0  0  0  0  0  0  0  0  0
    8.5914    1.7481   23.1190 H   0  0  0  0  0  0  0  0  0  0  0  0
    7.0956    1.9789   22.2238 H   0  0  0  0  0  0  0  0  0  0  0  0
    7.7745   -0.0284   22.2418 C   0  0  0  0  0  0  0  0  0  0  0  0
    7.3915   -0.5744   21.0175 C   0  0  0  0  0  0  0  0  0  0  0  0
    6.6393    0.0573   19.9358 C   0  0  0  0  0  0  0  0  0  0  0  0
    7.1449   -0.0061   18.6278 C   0  0  0  0  0  0  0  0  0  0  0  0
    8.0467   -0.5786   18.4189 H   0  0  0  0  0  0  0  0  0  0  0  0
    6.5819    0.6094   17.5836 N   0  0  0  0  0  0  0  0  0  0  0  0
    5.4411    1.2837   17.7971 C   0  0  0  0  0  0  0  0  0  0  0  0
    5.0088    1.7823   16.9304 H   0  0  0  0  0  0  0  0  0  0  0  0
    4.8083    1.3404   19.0431 C   0  0  0  0  0  0  0  0  0  0  0  0
    3.8625    1.8595   19.1414 H   0  0  0  0  0  0  0  0  0  0  0  0
    5.4185    0.7215   20.1315 C   0  0  0  0  0  0  0  0  0  0  0  0
    4.9413    0.7265   21.1133 H   0  0  0  0  0  0  0  0  0  0  0  0
    7.8107   -1.8759   20.8815 N   0  0  0  0  0  0  0  0  0  0  0  0
    8.3677   -2.1413   22.0284 C   0  0  0  0  0  0  0  0  0  0  0  0
    9.1085   -3.5383   22.7518 S   0  0  0  0  0  0  0  0  0  0  0  0
    9.4968   -2.5907   24.1777 C   0  0  0  0  0  0  0  0  0  0  0  0
   10.0431   -3.0499   24.9886 H   0  0  0  0  0  0  0  0  0  0  0  0
    9.0574   -1.3233   24.0908 C   0  0  0  0  0  0  0  0  0  0  0  0
    9.1291   -0.5269   24.8190 H   0  0  0  0  0  0  0  0  0  0  0  0
    8.4060   -1.0743   22.8864 N   0  0  0  0  0  0  0  0  0  0  0  0
    5.5287    0.8123   24.3356 C   0  0  0  0  0  0  0  0  0  0  0  0
    4.9827    0.6648   23.4091 H   0  0  0  0  0  0  0  0  0  0  0  0
    4.9420    0.6124   25.5870 C   0  0  0  0  0  0  0  0  0  0  0  0
    3.9238    0.2288   25.6617 H   0  0  0  0  0  0  0  0  0  0  0  0
    5.6986    0.9000   26.7296 C   0  0  0  0  0  0  0  0  0  0  0  0
    5.2996    0.7683   27.7314 H   0  0  0  0  0  0  0  0  0  0  0  0
  1  2  1  0
  2  3  2  0
  3  4  1  0
  4  5  1  0
  5  6  1  0
  5  7  1  0
  5  8  1  0
  8  9  2  0
  9 10  1  0
 10 11  2  0
 11 12  1  0
 11 13  1  0
 13 14  2  0
 14 15  1  0
 14 16  1  0
 16 17  1  0
 16 18  2  0
 18 19  1  0
  9 20  1  0
 20 21  2  0
 21 22  1  0
 22 23  1  0
 23 24  1  0
 23 25  2  0
 25 26  1  0
 25 27  1  0
  4 28  2  0
 28 29  1  0
 28 30  1  0
 30 31  1  0
 30 32  2  0
 32 33  1  0
 32  2  1  0
 27  8  1  0
 18 10  1  0
 27 21  1  0
M  END
>  <cnnaffinity>  (1) 
-5.30505

>  <filename>  (1) 
c1ccc(Cc2c(-c3cccnc3)nc3sccn23)nc1

$$$$
