
     RDKit          3D

 48 51  0  0  0  0  0  0  0  0999 V2000
    8.7454   -7.2770   27.2242 H   0  0  0  0  0  0  0  0  0  0  0  0
    8.3986   -6.2608   27.3549 C   0  0  0  0  0  0  0  0  0  0  0  0
    8.9415   -5.3928   26.5136 N   0  0  0  0  0  0  0  0  0  0  0  0
    8.5345   -4.1186   26.5812 C   0  0  0  0  0  0  0  0  0  0  0  0
    9.1776   -3.2601   25.7040 N   0  0  0  0  0  0  0  0  0  0  0  0
    9.3703   -3.7765   24.3277 C   0  0  0  0  0  0  0  0  0  0  0  0
    9.8199   -4.7702   24.3921 H   0  0  0  0  0  0  0  0  0  0  0  0
    8.4119   -3.8672   23.7894 H   0  0  0  0  0  0  0  0  0  0  0  0
   10.3310   -2.8839   23.5489 C   0  0  0  0  0  0  0  0  0  0  0  0
   11.2674   -2.9333   24.0947 H   0  0  0  0  0  0  0  0  0  0  0  0
   10.5424   -3.2721   22.5496 H   0  0  0  0  0  0  0  0  0  0  0  0
    9.9190   -1.4594   23.4958 N   0  0  0  0  0  0  0  0  0  0  0  0
    8.5951   -1.3063   22.8935 N   0  0  0  0  0  0  0  0  0  0  0  0
    8.3350    0.1355   22.6952 C   0  0  0  0  0  0  0  0  0  0  0  0
    8.3363    0.6476   23.6603 H   0  0  0  0  0  0  0  0  0  0  0  0
    9.1221    0.5859   22.0720 H   0  0  0  0  0  0  0  0  0  0  0  0
    6.9595    0.3686   22.0669 C   0  0  0  0  0  0  0  0  0  0  0  0
    6.1850    0.0321   22.7787 H   0  0  0  0  0  0  0  0  0  0  0  0
    6.8128    1.4421   21.8958 H   0  0  0  0  0  0  0  0  0  0  0  0
    6.8607   -0.3340   20.7961 N   0  0  0  0  0  0  0  0  0  0  0  0
    6.2638    0.2556   19.6676 C   0  0  0  0  0  0  0  0  0  0  0  0
    6.8421    0.1911   18.3743 C   0  0  0  0  0  0  0  0  0  0  0  0
    7.7605   -0.3754   18.2262 H   0  0  0  0  0  0  0  0  0  0  0  0
    6.3567    0.8177   17.2916 N   0  0  0  0  0  0  0  0  0  0  0  0
    5.2429    1.5533   17.4415 C   0  0  0  0  0  0  0  0  0  0  0  0
    4.8864    2.0681   16.5520 H   0  0  0  0  0  0  0  0  0  0  0  0
    4.5705    1.6707   18.6616 C   0  0  0  0  0  0  0  0  0  0  0  0
    3.6802    2.2867   18.7283 H   0  0  0  0  0  0  0  0  0  0  0  0
    5.0835    1.0150   19.7845 C   0  0  0  0  0  0  0  0  0  0  0  0
    4.6070    1.0814   20.7602 H   0  0  0  0  0  0  0  0  0  0  0  0
    7.1280   -1.7592   20.9429 C   0  0  0  0  0  0  0  0  0  0  0  0
    6.3745   -2.2383   21.5943 H   0  0  0  0  0  0  0  0  0  0  0  0
    7.0605   -2.2429   19.9630 H   0  0  0  0  0  0  0  0  0  0  0  0
    8.5056   -1.9929   21.5744 C   0  0  0  0  0  0  0  0  0  0  0  0
    9.3167   -1.6615   20.9051 H   0  0  0  0  0  0  0  0  0  0  0  0
    8.6130   -3.0723   21.7130 H   0  0  0  0  0  0  0  0  0  0  0  0
    9.9071   -1.0017   24.9095 C   0  0  0  0  0  0  0  0  0  0  0  0
   10.9434   -1.0974   25.2470 H   0  0  0  0  0  0  0  0  0  0  0  0
    9.6807    0.0675   24.9830 H   0  0  0  0  0  0  0  0  0  0  0  0
    8.9399   -1.8082   25.7996 C   0  0  0  0  0  0  0  0  0  0  0  0
    7.9117   -1.5671   25.4831 H   0  0  0  0  0  0  0  0  0  0  0  0
    9.0841   -1.4824   26.8388 H   0  0  0  0  0  0  0  0  0  0  0  0
    7.4986   -3.7075   27.4503 C   0  0  0  0  0  0  0  0  0  0  0  0
    7.1695   -2.6781   27.4061 H   0  0  0  0  0  0  0  0  0  0  0  0
    6.9456   -4.6366   28.3265 C   0  0  0  0  0  0  0  0  0  0  0  0
    6.1421   -4.3504   29.0132 H   0  0  0  0  0  0  0  0  0  0  0  0
    7.4246   -5.9460   28.2998 C   0  0  0  0  0  0  0  0  0  0  0  0
    7.0534   -6.6984   28.9822 H   0  0  0  0  0  0  0  0  0  0  0  0
  1  2  1  0
  2  3  2  0
  3  4  1  0
  4  5  1  0
  5  6  1  0
  6  7  1  0
  6  8  1  0
  6  9  1  0
  9 10  1  0
  9 11  1  0
  9 12  1  0
 12 13  1  0
 13 14  1  0
 14 15  1  0
 14 16  1  0
 14 17  1  0
 17 18  1  0
 17 19  1  0
 17 20  1  0
 20 21  1  0
 21 22  2  0
 22 23  1  0
 22 24  1  0
 24 25  2  0
 25 26  1  0
 25 27  1  0
 27 28  1  0
 27 29  2  0
 29 30  1  0
 20 31  1  0
 31 32  1  0
 31 33  1  0
 31 34  1  0
 34 35  1  0
 34 36  1  0
 12 37  1  0
 37 38  1  0
 37 39  1  0
 37 40  1  0
 40 41  1  0
 40 42  1  0
  4 43  2  0
 43 44  1  0
 43 45  1  0
 45 46  1  0
 45 47  2  0
 47 48  1  0
 47  2  1  0
 40  5  1  0
 34 13  1  0
 29 21  1  0
M  END
>  <cnnaffinity>  (1) 
-5.14702

>  <filename>  (1) 
c1ccc(N2CCN(N3CCN(c4cccnc4)CC3)CC2)nc1

$$$$
