
     RDKit          3D

 30 33  0  0  0  0  0  0  0  0999 V2000
    3.5729   -1.9941   27.0209 H   0  0  0  0  0  0  0  0  0  0  0  0
    4.5196   -1.7750   26.5352 C   0  0  0  0  0  0  0  0  0  0  0  0
    5.2005   -2.7894   25.9049 N   0  0  0  0  0  0  0  0  0  0  0  0
    6.3016   -2.3182   25.4071 C   0  0  0  0  0  0  0  0  0  0  0  0
    7.0883   -3.2279   24.7257 N   0  0  0  0  0  0  0  0  0  0  0  0
    6.4533   -4.0080   24.5653 H   0  0  0  0  0  0  0  0  0  0  0  0
    7.8870   -2.8552   23.6761 N   0  0  0  0  0  0  0  0  0  0  0  0
    9.1346   -3.4185   23.4538 C   0  0  0  0  0  0  0  0  0  0  0  0
    9.4860   -4.2211   24.0867 H   0  0  0  0  0  0  0  0  0  0  0  0
    9.6773   -2.8347   22.3617 C   0  0  0  0  0  0  0  0  0  0  0  0
   10.6425   -2.9136   21.8966 H   0  0  0  0  0  0  0  0  0  0  0  0
    8.7358   -1.9403   21.8875 N   0  0  0  0  0  0  0  0  0  0  0  0
    8.6164   -1.2142   20.7560 N   0  0  0  0  0  0  0  0  0  0  0  0
    7.4003   -0.6615   20.9020 C   0  0  0  0  0  0  0  0  0  0  0  0
    6.7212    0.1011   19.8349 C   0  0  0  0  0  0  0  0  0  0  0  0
    7.2242    0.1279   18.5210 C   0  0  0  0  0  0  0  0  0  0  0  0
    8.1638   -0.3687   18.2930 H   0  0  0  0  0  0  0  0  0  0  0  0
    6.6036    0.7262   17.4980 N   0  0  0  0  0  0  0  0  0  0  0  0
    5.4327    1.3313   17.7471 C   0  0  0  0  0  0  0  0  0  0  0  0
    4.9407    1.7978   16.8942 H   0  0  0  0  0  0  0  0  0  0  0  0
    4.8378    1.3611   19.0139 C   0  0  0  0  0  0  0  0  0  0  0  0
    3.8826    1.8562   19.1518 H   0  0  0  0  0  0  0  0  0  0  0  0
    5.4920    0.7412   20.0744 C   0  0  0  0  0  0  0  0  0  0  0  0
    5.0411    0.7546   21.0695 H   0  0  0  0  0  0  0  0  0  0  0  0
    6.7805   -0.9935   22.1284 C   0  0  0  0  0  0  0  0  0  0  0  0
    5.9426   -0.4991   22.5776 H   0  0  0  0  0  0  0  0  0  0  0  0
    7.6542   -1.9102   22.6933 C   0  0  0  0  0  0  0  0  0  0  0  0
    6.6121   -0.6285   25.6500 S   0  0  0  0  0  0  0  0  0  0  0  0
    5.0982   -0.5500   26.5085 C   0  0  0  0  0  0  0  0  0  0  0  0
    4.7447    0.3655   26.9571 H   0  0  0  0  0  0  0  0  0  0  0  0
  1  2  1  0
  2  3  1  0
  3  4  2  0
  4  5  1  0
  5  6  1  0
  5  7  1  0
  7  8  1  0
  8  9  1  0
  8 10  2  0
 10 11  1  0
 10 12  1  0
 12 13  1  0
 13 14  2  0
 14 15  1  0
 15 16  2  0
 16 17  1  0
 16 18  1  0
 18 19  2  0
 19 20  1  0
 19 21  1  0
 21 22  1  0
 21 23  2  0
 23 24  1  0
 14 25  1  0
 25 26  1  0
 25 27  2  0
  4 28  1  0
 28 29  1  0
 29 30  1  0
 29  2  2  0
 27  7  1  0
 27 12  1  0
 23 15  1  0
M  END
>  <cnnaffinity>  (1) 
-5.31851

>  <filename>  (1) 
c1cncc(-c2cc3n(Nc4nccs4)ccn3n2)c1

$$$$
