
     RDKit          3D

 33 37  0  0  0  0  0  0  0  0999 V2000
    4.9328    1.7734   17.0011 H   0  0  0  0  0  0  0  0  0  0  0  0
    5.4099    1.2849   17.8459 C   0  0  0  0  0  0  0  0  0  0  0  0
    6.5741    0.6650   17.5961 N   0  0  0  0  0  0  0  0  0  0  0  0
    7.1780    0.0518   18.6186 C   0  0  0  0  0  0  0  0  0  0  0  0
    8.1252   -0.4324   18.3869 H   0  0  0  0  0  0  0  0  0  0  0  0
    6.6435    0.0156   19.9146 C   0  0  0  0  0  0  0  0  0  0  0  0
    7.3642   -0.6903   20.9702 C   0  0  0  0  0  0  0  0  0  0  0  0
    8.5444   -1.3339   20.7601 N   0  0  0  0  0  0  0  0  0  0  0  0
    8.8079   -1.8042   21.9580 C   0  0  0  0  0  0  0  0  0  0  0  0
   10.0453   -2.7368   22.7534 S   0  0  0  0  0  0  0  0  0  0  0  0
    9.1720   -2.6244   24.2457 C   0  0  0  0  0  0  0  0  0  0  0  0
    9.5805   -3.0983   25.1276 H   0  0  0  0  0  0  0  0  0  0  0  0
    8.0179   -1.9210   24.1538 C   0  0  0  0  0  0  0  0  0  0  0  0
    7.0537   -1.6301   25.2143 C   0  0  0  0  0  0  0  0  0  0  0  0
    7.3690   -2.2340   26.8335 S   0  0  0  0  0  0  0  0  0  0  0  0
    5.8940   -1.5285   27.4421 C   0  0  0  0  0  0  0  0  0  0  0  0
    5.3605   -1.5560   28.7430 C   0  0  0  0  0  0  0  0  0  0  0  0
    5.8225   -2.0635   29.5743 H   0  0  0  0  0  0  0  0  0  0  0  0
    4.1591   -0.9138   29.0021 C   0  0  0  0  0  0  0  0  0  0  0  0
    3.7649   -0.9445   30.0167 H   0  0  0  0  0  0  0  0  0  0  0  0
    3.4583   -0.2384   27.9808 C   0  0  0  0  0  0  0  0  0  0  0  0
    2.5169    0.2531   28.2141 H   0  0  0  0  0  0  0  0  0  0  0  0
    3.9709   -0.2067   26.6934 C   0  0  0  0  0  0  0  0  0  0  0  0
    3.4464    0.3077   25.8899 H   0  0  0  0  0  0  0  0  0  0  0  0
    5.1979   -0.8523   26.4119 C   0  0  0  0  0  0  0  0  0  0  0  0
    5.8915   -0.9231   25.1620 C   0  0  0  0  0  0  0  0  0  0  0  0
    5.5521   -0.4356   24.2590 H   0  0  0  0  0  0  0  0  0  0  0  0
    7.8421   -1.4702   22.8397 N   0  0  0  0  0  0  0  0  0  0  0  0
    6.8905   -0.7420   22.2128 N   0  0  0  0  0  0  0  0  0  0  0  0
    5.4230    0.6595   20.1681 C   0  0  0  0  0  0  0  0  0  0  0  0
    4.9940    0.6393   21.1741 H   0  0  0  0  0  0  0  0  0  0  0  0
    4.8043    1.3098   19.1072 C   0  0  0  0  0  0  0  0  0  0  0  0
    3.8739    1.8433   19.2543 H   0  0  0  0  0  0  0  0  0  0  0  0
  1  2  1  0
  2  3  2  0
  3  4  1  0
  4  5  1  0
  4  6  2  0
  6  7  1  0
  7  8  1  0
  8  9  2  0
  9 10  1  0
 10 11  1  0
 11 12  1  0
 11 13  2  0
 13 14  1  0
 14 15  1  0
 15 16  1  0
 16 17  2  0
 17 18  1  0
 17 19  1  0
 19 20  1  0
 19 21  2  0
 21 22  1  0
 21 23  1  0
 23 24  1  0
 23 25  2  0
 25 26  1  0
 26 27  1  0
 13 28  1  0
 28 29  1  0
  6 30  1  0
 30 31  1  0
 30 32  2  0
 32 33  1  0
 32  2  1  0
 29  7  2  0
 28  9  1  0
 26 14  2  0
 25 16  1  0
M  END
>  <cnnaffinity>  (1) 
-5.72332

>  <filename>  (1) 
c1cncc(-c2nc3scc(-c4cc5ccccc5s4)n3n2)c1

$$$$
