
     RDKit          3D

 28 30  0  0  0  0  0  0  0  0999 V2000
    6.2027   -4.7180   22.6469 H   0  0  0  0  0  0  0  0  0  0  0  0
    7.2330   -4.4305   22.8556 C   0  0  0  0  0  0  0  0  0  0  0  0
    7.6194   -3.2859   22.2959 N   0  0  0  0  0  0  0  0  0  0  0  0
    8.8977   -2.9355   22.4838 C   0  0  0  0  0  0  0  0  0  0  0  0
    9.3953   -1.7538   21.8146 C   0  0  0  0  0  0  0  0  0  0  0  0
    8.6965   -0.7811   21.1237 C   0  0  0  0  0  0  0  0  0  0  0  0
    7.3150   -0.7342   20.9599 N   0  0  0  0  0  0  0  0  0  0  0  0
    6.7966   -1.2842   21.6442 H   0  0  0  0  0  0  0  0  0  0  0  0
    6.6603   -0.0508   19.9156 C   0  0  0  0  0  0  0  0  0  0  0  0
    7.1710    0.0345   18.5880 C   0  0  0  0  0  0  0  0  0  0  0  0
    8.1202   -0.4383   18.3386 H   0  0  0  0  0  0  0  0  0  0  0  0
    6.5623    0.6708   17.5758 N   0  0  0  0  0  0  0  0  0  0  0  0
    5.4013    1.2914   17.8409 C   0  0  0  0  0  0  0  0  0  0  0  0
    4.9365    1.8143   17.0075 H   0  0  0  0  0  0  0  0  0  0  0  0
    4.8134    1.2903   19.1106 C   0  0  0  0  0  0  0  0  0  0  0  0
    3.8827    1.8269   19.2703 H   0  0  0  0  0  0  0  0  0  0  0  0
    5.4492    0.6113   20.1600 C   0  0  0  0  0  0  0  0  0  0  0  0
    5.0442    0.6036   21.1698 H   0  0  0  0  0  0  0  0  0  0  0  0
    9.6992    0.1354   20.7243 C   0  0  0  0  0  0  0  0  0  0  0  0
    9.5675    1.0433   20.1516 H   0  0  0  0  0  0  0  0  0  0  0  0
   10.9074   -0.2537   21.1199 N   0  0  0  0  0  0  0  0  0  0  0  0
   10.7155   -1.4009   21.7687 N   0  0  0  0  0  0  0  0  0  0  0  0
   11.5110   -1.8901   22.1835 H   0  0  0  0  0  0  0  0  0  0  0  0
    9.7932   -3.5928   23.2324 N   0  0  0  0  0  0  0  0  0  0  0  0
    9.3732   -4.7057   23.8182 C   0  0  0  0  0  0  0  0  0  0  0  0
   10.1288   -5.2143   24.4186 H   0  0  0  0  0  0  0  0  0  0  0  0
    8.0835   -5.1980   23.6455 C   0  0  0  0  0  0  0  0  0  0  0  0
    7.7599   -6.1153   24.1116 H   0  0  0  0  0  0  0  0  0  0  0  0
  1  2  1  0
  2  3  2  0
  3  4  1  0
  4  5  1  0
  5  6  2  0
  6  7  1  0
  7  8  1  0
  7  9  1  0
  9 10  2  0
 10 11  1  0
 10 12  1  0
 12 13  2  0
 13 14  1  0
 13 15  1  0
 15 16  1  0
 15 17  2  0
 17 18  1  0
  6 19  1  0
 19 20  1  0
 19 21  2  0
 21 22  1  0
 22 23  1  0
  4 24  2  0
 24 25  1  0
 25 26  1  0
 25 27  2  0
 27 28  1  0
 27  2  1  0
 22  5  1  0
 17  9  1  0
M  END
>  <cnnaffinity>  (1) 
-5.59356

>  <filename>  (1) 
c1cnc(-c2[nH]ncc2Nc2cccnc2)nc1

$$$$
