
     RDKit          3D

 35 38  0  0  0  0  0  0  0  0999 V2000
    5.1102    1.8007   16.8737 H   0  0  0  0  0  0  0  0  0  0  0  0
    5.5000    1.2939   17.7534 C   0  0  0  0  0  0  0  0  0  0  0  0
    6.6512    0.6204   17.5907 N   0  0  0  0  0  0  0  0  0  0  0  0
    7.1499   -0.0265   18.6525 C   0  0  0  0  0  0  0  0  0  0  0  0
    8.0684   -0.5871   18.4766 H   0  0  0  0  0  0  0  0  0  0  0  0
    6.5503   -0.0058   19.9251 C   0  0  0  0  0  0  0  0  0  0  0  0
    7.1512   -0.7078   21.0668 C   0  0  0  0  0  0  0  0  0  0  0  0
    7.6562   -1.9339   20.9244 N   0  0  0  0  0  0  0  0  0  0  0  0
    8.0144   -2.2675   22.1653 N   0  0  0  0  0  0  0  0  0  0  0  0
    7.8243   -1.3082   23.0789 C   0  0  0  0  0  0  0  0  0  0  0  0
    7.2842   -0.2247   22.4084 C   0  0  0  0  0  0  0  0  0  0  0  0
    7.0301    1.1673   22.9438 C   0  0  0  0  0  0  0  0  0  0  0  0
    6.0314    1.2199   23.4010 H   0  0  0  0  0  0  0  0  0  0  0  0
    7.0061    1.8715   22.1025 H   0  0  0  0  0  0  0  0  0  0  0  0
    8.0502    1.6497   23.9620 C   0  0  0  0  0  0  0  0  0  0  0  0
    9.0606    1.6877   23.5555 H   0  0  0  0  0  0  0  0  0  0  0  0
    7.7153    2.7269   24.9606 C   0  0  0  0  0  0  0  0  0  0  0  0
    8.4627    3.4786   25.2216 H   0  0  0  0  0  0  0  0  0  0  0  0
    6.6968    3.1184   24.9880 H   0  0  0  0  0  0  0  0  0  0  0  0
    7.9325    1.3082   25.4216 C   0  0  0  0  0  0  0  0  0  0  0  0
    8.8372    1.0716   25.9849 H   0  0  0  0  0  0  0  0  0  0  0  0
    7.0565    0.7444   25.7487 H   0  0  0  0  0  0  0  0  0  0  0  0
    8.3814   -1.7677   24.3969 C   0  0  0  0  0  0  0  0  0  0  0  0
    7.6602   -1.6898   25.2166 H   0  0  0  0  0  0  0  0  0  0  0  0
    9.2369   -1.1354   24.6457 H   0  0  0  0  0  0  0  0  0  0  0  0
    8.8026   -3.2411   24.1255 C   0  0  0  0  0  0  0  0  0  0  0  0
    8.0759   -3.9213   24.5739 H   0  0  0  0  0  0  0  0  0  0  0  0
    9.7858   -3.4831   24.5355 H   0  0  0  0  0  0  0  0  0  0  0  0
    8.7815   -3.4165   22.5884 C   0  0  0  0  0  0  0  0  0  0  0  0
    8.2973   -4.3412   22.2676 H   0  0  0  0  0  0  0  0  0  0  0  0
    9.7827   -3.3612   22.1506 H   0  0  0  0  0  0  0  0  0  0  0  0
    5.3466    0.7012   20.0702 C   0  0  0  0  0  0  0  0  0  0  0  0
    4.8438    0.7292   21.0369 H   0  0  0  0  0  0  0  0  0  0  0  0
    4.8073    1.3516   18.9649 C   0  0  0  0  0  0  0  0  0  0  0  0
    3.8772    1.9010   19.0386 H   0  0  0  0  0  0  0  0  0  0  0  0
  1  2  1  0
  2  3  2  0
  3  4  1  0
  4  5  1  0
  4  6  2  0
  6  7  1  0
  7  8  2  0
  8  9  1  0
  9 10  1  0
 10 11  2  0
 11 12  1  0
 12 13  1  0
 12 14  1  0
 12 15  1  0
 15 16  1  0
 15 17  1  0
 17 18  1  0
 17 19  1  0
 17 20  1  0
 20 21  1  0
 20 22  1  0
 10 23  1  0
 23 24  1  0
 23 25  1  0
 23 26  1  0
 26 27  1  0
 26 28  1  0
 26 29  1  0
 29 30  1  0
 29 31  1  0
  6 32  1  0
 32 33  1  0
 32 34  2  0
 34 35  1  0
 34  2  1  0
 11  7  1  0
 20 15  1  0
 29  9  1  0
M  END
>  <cnnaffinity>  (1) 
-5.21752

>  <filename>  (1) 
c1cncc(-c2nn3c(c2CC2CC2)CCC3)c1

$$$$
