
     RDKit          3D

 31 33  0  0  0  0  0  0  0  0999 V2000
    5.0353    1.8179   16.9577 H   0  0  0  0  0  0  0  0  0  0  0  0
    5.4696    1.2833   17.7985 C   0  0  0  0  0  0  0  0  0  0  0  0
    6.6266    0.6420   17.5589 N   0  0  0  0  0  0  0  0  0  0  0  0
    7.2021   -0.0061   18.5740 C   0  0  0  0  0  0  0  0  0  0  0  0
    8.1210   -0.5495   18.3599 H   0  0  0  0  0  0  0  0  0  0  0  0
    6.6630   -0.0220   19.8735 C   0  0  0  0  0  0  0  0  0  0  0  0
    7.3558   -0.7129   20.9174 N   0  0  0  0  0  0  0  0  0  0  0  0
    7.9420   -1.9091   20.6864 N   0  0  0  0  0  0  0  0  0  0  0  0
    8.4170   -2.3160   21.8013 N   0  0  0  0  0  0  0  0  0  0  0  0
    8.1785   -1.4297   22.7894 N   0  0  0  0  0  0  0  0  0  0  0  0
    7.5414   -0.4201   22.2325 C   0  0  0  0  0  0  0  0  0  0  0  0
    7.0794    1.0951   23.0470 S   0  0  0  0  0  0  0  0  0  0  0  0
    8.2913    2.2269   22.6613 N   0  0  0  0  0  0  0  0  0  0  0  0
    8.3046    2.5340   21.6897 H   0  0  0  0  0  0  0  0  0  0  0  0
    9.6252    2.0146   23.2575 C   0  0  0  0  0  0  0  0  0  0  0  0
    9.5234    2.1541   24.3429 H   0  0  0  0  0  0  0  0  0  0  0  0
    9.9720    0.9828   23.1100 H   0  0  0  0  0  0  0  0  0  0  0  0
   10.6593    2.9837   22.7146 C   0  0  0  0  0  0  0  0  0  0  0  0
   10.8440    4.2384   23.3101 C   0  0  0  0  0  0  0  0  0  0  0  0
   10.3088    4.4994   24.2169 H   0  0  0  0  0  0  0  0  0  0  0  0
   11.7099    5.1607   22.7234 C   0  0  0  0  0  0  0  0  0  0  0  0
   11.8173    6.1596   23.1442 H   0  0  0  0  0  0  0  0  0  0  0  0
   12.4464    4.9017   21.6361 N   0  0  0  0  0  0  0  0  0  0  0  0
   12.3119    3.6838   21.0917 C   0  0  0  0  0  0  0  0  0  0  0  0
   12.9063    3.5003   20.2006 H   0  0  0  0  0  0  0  0  0  0  0  0
   11.4648    2.6924   21.6013 C   0  0  0  0  0  0  0  0  0  0  0  0
   11.4660    1.7112   21.1461 H   0  0  0  0  0  0  0  0  0  0  0  0
    5.4383    0.6071   20.1134 C   0  0  0  0  0  0  0  0  0  0  0  0
    4.9563    0.5610   21.0889 H   0  0  0  0  0  0  0  0  0  0  0  0
    4.8351    1.2788   19.0438 C   0  0  0  0  0  0  0  0  0  0  0  0
    3.8958    1.8074   19.1704 H   0  0  0  0  0  0  0  0  0  0  0  0
  1  2  1  0
  2  3  2  0
  3  4  1  0
  4  5  1  0
  4  6  2  0
  6  7  1  0
  7  8  1  0
  8  9  2  0
  9 10  1  0
 10 11  2  0
 11 12  1  0
 12 13  1  0
 13 14  1  0
 13 15  1  0
 15 16  1  0
 15 17  1  0
 15 18  1  0
 18 19  2  0
 19 20  1  0
 19 21  1  0
 21 22  1  0
 21 23  2  0
 23 24  1  0
 24 25  1  0
 24 26  2  0
 26 27  1  0
  6 28  1  0
 28 29  1  0
 28 30  2  0
 30 31  1  0
 30  2  1  0
 11  7  1  0
 26 18  1  0
M  END
>  <cnnaffinity>  (1) 
-5.24702

>  <filename>  (1) 
c1cncc(-n2nnnc2SNCc2ccncc2)c1

$$$$
