
     RDKit          3D

 30 33  0  0  0  0  0  0  0  0999 V2000
    7.0326    0.6014   28.5654 H   0  0  0  0  0  0  0  0  0  0  0  0
    7.4059    0.1299   27.6587 C   0  0  0  0  0  0  0  0  0  0  0  0
    6.5003   -0.3719   26.8185 N   0  0  0  0  0  0  0  0  0  0  0  0
    6.9690   -0.9017   25.6896 C   0  0  0  0  0  0  0  0  0  0  0  0
    6.2534   -1.2846   24.9619 H   0  0  0  0  0  0  0  0  0  0  0  0
    8.3306   -0.9549   25.3820 C   0  0  0  0  0  0  0  0  0  0  0  0
    8.7835   -1.4156   24.1358 N   0  0  0  0  0  0  0  0  0  0  0  0
    9.9843   -2.0637   23.8314 C   0  0  0  0  0  0  0  0  0  0  0  0
   10.6468   -2.3631   24.6273 H   0  0  0  0  0  0  0  0  0  0  0  0
   10.0709   -2.2351   22.4879 C   0  0  0  0  0  0  0  0  0  0  0  0
   10.8129   -2.6471   21.8258 H   0  0  0  0  0  0  0  0  0  0  0  0
    8.9196   -1.6666   21.9594 N   0  0  0  0  0  0  0  0  0  0  0  0
    8.4913   -1.3809   20.7123 N   0  0  0  0  0  0  0  0  0  0  0  0
    7.3684   -0.6798   20.9363 C   0  0  0  0  0  0  0  0  0  0  0  0
    6.6092   -0.0580   19.8333 C   0  0  0  0  0  0  0  0  0  0  0  0
    7.1440    0.0014   18.5327 C   0  0  0  0  0  0  0  0  0  0  0  0
    8.0977   -0.4712   18.3005 H   0  0  0  0  0  0  0  0  0  0  0  0
    6.5638    0.6611   17.5255 N   0  0  0  0  0  0  0  0  0  0  0  0
    5.4118    1.3020   17.7764 C   0  0  0  0  0  0  0  0  0  0  0  0
    4.9694    1.8387   16.9424 H   0  0  0  0  0  0  0  0  0  0  0  0
    4.7890    1.3035   19.0255 C   0  0  0  0  0  0  0  0  0  0  0  0
    3.8697    1.8601   19.1763 H   0  0  0  0  0  0  0  0  0  0  0  0
    5.3953    0.6162   20.0691 C   0  0  0  0  0  0  0  0  0  0  0  0
    4.9487    0.6466   21.0634 H   0  0  0  0  0  0  0  0  0  0  0  0
    7.0732   -0.5311   22.3141 C   0  0  0  0  0  0  0  0  0  0  0  0
    6.2429   -0.0078   22.7521 H   0  0  0  0  0  0  0  0  0  0  0  0
    8.1363   -1.1722   22.9339 C   0  0  0  0  0  0  0  0  0  0  0  0
    9.1773   -0.4112   26.3451 C   0  0  0  0  0  0  0  0  0  0  0  0
   10.2498   -0.3688   26.1542 H   0  0  0  0  0  0  0  0  0  0  0  0
    8.7240    0.1205   27.4785 N   0  0  0  0  0  0  0  0  0  0  0  0
  1  2  1  0
  2  3  2  0
  3  4  1  0
  4  5  1  0
  4  6  2  0
  6  7  1  0
  7  8  1  0
  8  9  1  0
  8 10  2  0
 10 11  1  0
 10 12  1  0
 12 13  1  0
 13 14  2  0
 14 15  1  0
 15 16  2  0
 16 17  1  0
 16 18  1  0
 18 19  2  0
 19 20  1  0
 19 21  1  0
 21 22  1  0
 21 23  2  0
 23 24  1  0
 14 25  1  0
 25 26  1  0
 25 27  2  0
  6 28  1  0
 28 29  1  0
 28 30  2  0
 30  2  1  0
 27  7  1  0
 27 12  1  0
 23 15  1  0
M  END
>  <cnnaffinity>  (1) 
-5.36161

>  <filename>  (1) 
c1cncc(-c2cc3n(-c4cncnc4)ccn3n2)c1

$$$$
