
     RDKit          3D

 33 35  0  0  0  0  0  0  0  0999 V2000
    6.7713   -2.7119   23.7088 H   0  0  0  0  0  0  0  0  0  0  0  0
    7.3030   -2.1103   22.9697 C   0  0  0  0  0  0  0  0  0  0  0  0
    8.6109   -1.9733   23.1410 N   0  0  0  0  0  0  0  0  0  0  0  0
    9.2504   -1.2581   22.2174 C   0  0  0  0  0  0  0  0  0  0  0  0
   10.5628   -1.1849   22.4175 O   0  0  0  0  0  0  0  0  0  0  0  0
   11.4135   -0.5841   21.4235 C   0  0  0  0  0  0  0  0  0  0  0  0
   10.9252   -0.6873   20.4491 H   0  0  0  0  0  0  0  0  0  0  0  0
   11.6481    0.8821   21.7874 C   0  0  0  0  0  0  0  0  0  0  0  0
   10.7318    1.3457   22.1664 H   0  0  0  0  0  0  0  0  0  0  0  0
   11.9383    1.4263   20.8807 H   0  0  0  0  0  0  0  0  0  0  0  0
   12.8075    0.8651   22.7955 C   0  0  0  0  0  0  0  0  0  0  0  0
   12.4225    0.6532   23.8008 H   0  0  0  0  0  0  0  0  0  0  0  0
   13.3322    1.8242   22.8502 H   0  0  0  0  0  0  0  0  0  0  0  0
   13.7221   -0.2833   22.3188 C   0  0  0  0  0  0  0  0  0  0  0  0
   14.5217    0.0833   21.6627 H   0  0  0  0  0  0  0  0  0  0  0  0
   14.2149   -0.7716   23.1645 H   0  0  0  0  0  0  0  0  0  0  0  0
   12.7979   -1.2606   21.5327 C   0  0  0  0  0  0  0  0  0  0  0  0
   13.2019   -1.4486   20.5316 H   0  0  0  0  0  0  0  0  0  0  0  0
   12.7011   -2.2254   22.0373 H   0  0  0  0  0  0  0  0  0  0  0  0
    8.7131   -0.6553   21.1597 N   0  0  0  0  0  0  0  0  0  0  0  0
    7.3907   -0.7480   21.0558 C   0  0  0  0  0  0  0  0  0  0  0  0
    6.7393   -0.0066   19.9705 C   0  0  0  0  0  0  0  0  0  0  0  0
    7.3285    0.0173   18.7037 C   0  0  0  0  0  0  0  0  0  0  0  0
    8.2989   -0.4544   18.5448 H   0  0  0  0  0  0  0  0  0  0  0  0
    6.7645    0.5941   17.6371 N   0  0  0  0  0  0  0  0  0  0  0  0
    5.5921    1.2209   17.8242 C   0  0  0  0  0  0  0  0  0  0  0  0
    5.1580    1.6919   16.9446 H   0  0  0  0  0  0  0  0  0  0  0  0
    4.9391    1.2965   19.0613 C   0  0  0  0  0  0  0  0  0  0  0  0
    4.0068    1.8444   19.1586 H   0  0  0  0  0  0  0  0  0  0  0  0
    5.5200    0.6666   20.1568 C   0  0  0  0  0  0  0  0  0  0  0  0
    5.0590    0.7232   21.1467 H   0  0  0  0  0  0  0  0  0  0  0  0
    6.6228   -1.5249   21.9139 C   0  0  0  0  0  0  0  0  0  0  0  0
    5.5644   -1.6565   21.7467 H   0  0  0  0  0  0  0  0  0  0  0  0
  1  2  1  0
  2  3  2  0
  3  4  1  0
  4  5  1  0
  5  6  1  0
  6  7  1  0
  6  8  1  0
  8  9  1  0
  8 10  1  0
  8 11  1  0
 11 12  1  0
 11 13  1  0
 11 14  1  0
 14 15  1  0
 14 16  1  0
 14 17  1  0
 17 18  1  0
 17 19  1  0
  4 20  2  0
 20 21  1  0
 21 22  1  0
 22 23  2  0
 23 24  1  0
 23 25  1  0
 25 26  2  0
 26 27  1  0
 26 28  1  0
 28 29  1  0
 28 30  2  0
 30 31  1  0
 21 32  2  0
 32 33  1  0
 32  2  1  0
 17  6  1  0
 30 22  1  0
M  END
>  <cnnaffinity>  (1) 
-5.28994

>  <filename>  (1) 
c1cncc(-c2ccnc(OC3CCCC3)n2)c1

$$$$
