
     RDKit          3D

 31 34  0  0  0  0  0  0  0  0999 V2000
    4.9034    1.8288   16.9520 H   0  0  0  0  0  0  0  0  0  0  0  0
    5.3649    1.3208   17.7977 C   0  0  0  0  0  0  0  0  0  0  0  0
    6.5239    0.6979   17.5342 N   0  0  0  0  0  0  0  0  0  0  0  0
    7.1303    0.0808   18.5533 C   0  0  0  0  0  0  0  0  0  0  0  0
    8.0745   -0.4051   18.3169 H   0  0  0  0  0  0  0  0  0  0  0  0
    6.6394    0.0223   19.8753 C   0  0  0  0  0  0  0  0  0  0  0  0
    7.4125   -0.6725   20.9154 C   0  0  0  0  0  0  0  0  0  0  0  0
    8.7471   -0.9940   21.0159 C   0  0  0  0  0  0  0  0  0  0  0  0
    9.5569   -0.7213   20.3499 H   0  0  0  0  0  0  0  0  0  0  0  0
    8.9959   -1.7121   22.1426 N   0  0  0  0  0  0  0  0  0  0  0  0
    7.8470   -1.8133   22.7743 C   0  0  0  0  0  0  0  0  0  0  0  0
    7.6325   -2.5390   24.0238 C   0  0  0  0  0  0  0  0  0  0  0  0
    8.3096   -3.6758   24.3432 C   0  0  0  0  0  0  0  0  0  0  0  0
    9.0888   -4.1398   23.7457 H   0  0  0  0  0  0  0  0  0  0  0  0
    7.8488   -4.3662   25.8531 S   0  0  0  0  0  0  0  0  0  0  0  0
    6.7066   -3.0787   26.1362 C   0  0  0  0  0  0  0  0  0  0  0  0
    5.8756   -2.9140   27.2599 C   0  0  0  0  0  0  0  0  0  0  0  0
    5.8789   -3.6431   28.0662 H   0  0  0  0  0  0  0  0  0  0  0  0
    5.0539   -1.7947   27.3164 C   0  0  0  0  0  0  0  0  0  0  0  0
    4.4128   -1.6528   28.1793 H   0  0  0  0  0  0  0  0  0  0  0  0
    5.0515   -0.8415   26.2771 C   0  0  0  0  0  0  0  0  0  0  0  0
    4.4046    0.0296   26.3431 H   0  0  0  0  0  0  0  0  0  0  0  0
    5.8702   -1.0088   25.1704 C   0  0  0  0  0  0  0  0  0  0  0  0
    5.8790   -0.2587   24.3868 H   0  0  0  0  0  0  0  0  0  0  0  0
    6.7001   -2.1506   25.0734 C   0  0  0  0  0  0  0  0  0  0  0  0
    6.8574   -1.1826   22.0765 N   0  0  0  0  0  0  0  0  0  0  0  0
    5.8811   -1.2947   22.2916 H   0  0  0  0  0  0  0  0  0  0  0  0
    5.4165    0.6722   20.1216 C   0  0  0  0  0  0  0  0  0  0  0  0
    4.9974    0.6790   21.1300 H   0  0  0  0  0  0  0  0  0  0  0  0
    4.7750    1.3311   19.0688 C   0  0  0  0  0  0  0  0  0  0  0  0
    3.8439    1.8657   19.2199 H   0  0  0  0  0  0  0  0  0  0  0  0
  1  2  1  0
  2  3  2  0
  3  4  1  0
  4  5  1  0
  4  6  2  0
  6  7  1  0
  7  8  2  0
  8  9  1  0
  8 10  1  0
 10 11  2  0
 11 12  1  0
 12 13  2  0
 13 14  1  0
 13 15  1  0
 15 16  1  0
 16 17  2  0
 17 18  1  0
 17 19  1  0
 19 20  1  0
 19 21  2  0
 21 22  1  0
 21 23  1  0
 23 24  1  0
 23 25  2  0
 11 26  1  0
 26 27  1  0
  6 28  1  0
 28 29  1  0
 28 30  2  0
 30 31  1  0
 30  2  1  0
 26  7  1  0
 25 12  1  0
 25 16  1  0
M  END
>  <cnnaffinity>  (1) 
-5.48866

>  <filename>  (1) 
c1cncc(-c2cnc(-c3csc4ccccc34)[nH]2)c1

$$$$
