
     RDKit          3D

 38 41  0  0  0  0  0  0  0  0999 V2000
    8.1546   -1.5773   19.5376 H   0  0  0  0  0  0  0  0  0  0  0  0
    7.9833   -1.2281   20.5497 C   0  0  0  0  0  0  0  0  0  0  0  0
    8.6087   -1.8808   21.5338 N   0  0  0  0  0  0  0  0  0  0  0  0
    8.4235   -1.3872   22.7806 C   0  0  0  0  0  0  0  0  0  0  0  0
    9.0982   -2.0208   23.7912 N   0  0  0  0  0  0  0  0  0  0  0  0
    9.6159   -3.3816   23.6340 C   0  0  0  0  0  0  0  0  0  0  0  0
    9.2507   -3.8461   22.7130 H   0  0  0  0  0  0  0  0  0  0  0  0
   10.7158   -3.3157   23.5546 H   0  0  0  0  0  0  0  0  0  0  0  0
    9.2483   -4.2194   24.8437 C   0  0  0  0  0  0  0  0  0  0  0  0
    8.8943   -5.5716   24.7301 C   0  0  0  0  0  0  0  0  0  0  0  0
    8.7121   -6.0102   23.7509 H   0  0  0  0  0  0  0  0  0  0  0  0
    8.7675   -6.3562   25.8760 C   0  0  0  0  0  0  0  0  0  0  0  0
    8.5026   -7.3970   25.8309 H   0  0  0  0  0  0  0  0  0  0  0  0
    9.0164   -5.8031   27.1302 C   0  0  0  0  0  0  0  0  0  0  0  0
    8.8943   -6.3816   28.0360 H   0  0  0  0  0  0  0  0  0  0  0  0
    9.3658   -4.4613   27.2381 C   0  0  0  0  0  0  0  0  0  0  0  0
    9.6969   -4.1285   28.2048 H   0  0  0  0  0  0  0  0  0  0  0  0
    9.3272   -3.6200   26.1195 C   0  0  0  0  0  0  0  0  0  0  0  0
    9.2144   -2.1044   26.2506 C   0  0  0  0  0  0  0  0  0  0  0  0
    9.8010   -1.7474   27.1024 H   0  0  0  0  0  0  0  0  0  0  0  0
    8.1689   -1.8544   26.4803 H   0  0  0  0  0  0  0  0  0  0  0  0
    9.6374   -1.3602   24.9768 C   0  0  0  0  0  0  0  0  0  0  0  0
    9.3481   -0.3024   25.0116 H   0  0  0  0  0  0  0  0  0  0  0  0
   10.7341   -1.3624   24.8984 H   0  0  0  0  0  0  0  0  0  0  0  0
    7.5323   -0.2788   23.0024 C   0  0  0  0  0  0  0  0  0  0  0  0
    7.3440    0.0691   24.0146 H   0  0  0  0  0  0  0  0  0  0  0  0
    6.8706    0.3236   22.0096 N   0  0  0  0  0  0  0  0  0  0  0  0
    7.1064   -0.1364   20.7538 C   0  0  0  0  0  0  0  0  0  0  0  0
    6.4062    0.5239   19.6347 C   0  0  0  0  0  0  0  0  0  0  0  0
    7.0260    0.5526   18.3741 C   0  0  0  0  0  0  0  0  0  0  0  0
    8.0178    0.1203   18.2443 H   0  0  0  0  0  0  0  0  0  0  0  0
    6.4850    1.0907   17.2819 N   0  0  0  0  0  0  0  0  0  0  0  0
    5.2758    1.6530   17.4135 C   0  0  0  0  0  0  0  0  0  0  0  0
    4.8703    2.0990   16.5093 H   0  0  0  0  0  0  0  0  0  0  0  0
    4.5697    1.6913   18.6211 C   0  0  0  0  0  0  0  0  0  0  0  0
    3.6010    2.1752   18.6514 H   0  0  0  0  0  0  0  0  0  0  0  0
    5.1445    1.1290   19.7616 C   0  0  0  0  0  0  0  0  0  0  0  0
    4.6381    1.1622   20.7284 H   0  0  0  0  0  0  0  0  0  0  0  0
  1  2  1  0
  2  3  2  0
  3  4  1  0
  4  5  1  0
  5  6  1  0
  6  7  1  0
  6  8  1  0
  6  9  1  0
  9 10  2  0
 10 11  1  0
 10 12  1  0
 12 13  1  0
 12 14  2  0
 14 15  1  0
 14 16  1  0
 16 17  1  0
 16 18  2  0
 18 19  1  0
 19 20  1  0
 19 21  1  0
 19 22  1  0
 22 23  1  0
 22 24  1  0
  4 25  2  0
 25 26  1  0
 25 27  1  0
 27 28  2  0
 28 29  1  0
 29 30  2  0
 30 31  1  0
 30 32  1  0
 32 33  2  0
 33 34  1  0
 33 35  1  0
 35 36  1  0
 35 37  2  0
 37 38  1  0
 28  2  1  0
 37 29  1  0
 22  5  1  0
 18  9  1  0
M  END
>  <cnnaffinity>  (1) 
-4.93708

>  <filename>  (1) 
c1cncc(-c2cnc(N3CCc4ccccc4C3)cn2)c1

$$$$
