
     RDKit          3D

 36 39  0  0  0  0  0  0  0  0999 V2000
    5.0459    1.7461   16.6830 H   0  0  0  0  0  0  0  0  0  0  0  0
    5.4702    1.2284   17.5414 C   0  0  0  0  0  0  0  0  0  0  0  0
    6.6137    0.5591   17.3335 N   0  0  0  0  0  0  0  0  0  0  0  0
    7.1894   -0.0367   18.3821 C   0  0  0  0  0  0  0  0  0  0  0  0
    8.1037   -0.5866   18.1698 H   0  0  0  0  0  0  0  0  0  0  0  0
    6.6734    0.0213   19.6885 C   0  0  0  0  0  0  0  0  0  0  0  0
    7.4539   -0.4982   20.8226 C   0  0  0  0  0  0  0  0  0  0  0  0
    8.6491   -1.0749   20.6255 N   0  0  0  0  0  0  0  0  0  0  0  0
    9.0314   -1.3940   21.8767 N   0  0  0  0  0  0  0  0  0  0  0  0
   10.1055   -2.0868   22.4073 C   0  0  0  0  0  0  0  0  0  0  0  0
   10.8948   -2.4436   21.7690 H   0  0  0  0  0  0  0  0  0  0  0  0
    9.8582   -2.1688   23.7363 C   0  0  0  0  0  0  0  0  0  0  0  0
   10.3599   -2.6873   24.5366 H   0  0  0  0  0  0  0  0  0  0  0  0
    8.6858   -1.5049   24.0312 N   0  0  0  0  0  0  0  0  0  0  0  0
    8.0989   -1.5534   25.2990 N   0  0  0  0  0  0  0  0  0  0  0  0
    7.1410   -1.2314   25.1936 H   0  0  0  0  0  0  0  0  0  0  0  0
    8.7855   -0.6867   26.2929 C   0  0  0  0  0  0  0  0  0  0  0  0
    9.4554   -1.3185   26.8878 H   0  0  0  0  0  0  0  0  0  0  0  0
    9.4178    0.0486   25.7779 H   0  0  0  0  0  0  0  0  0  0  0  0
    7.8482    0.0661   27.2295 C   0  0  0  0  0  0  0  0  0  0  0  0
    8.0469    1.4370   27.4557 C   0  0  0  0  0  0  0  0  0  0  0  0
    8.8601    1.9697   26.9694 H   0  0  0  0  0  0  0  0  0  0  0  0
    7.2161    2.1209   28.3446 C   0  0  0  0  0  0  0  0  0  0  0  0
    7.3689    3.1848   28.5305 H   0  0  0  0  0  0  0  0  0  0  0  0
    6.1984    1.5453   28.9977 N   0  0  0  0  0  0  0  0  0  0  0  0
    5.9939    0.2394   28.7749 C   0  0  0  0  0  0  0  0  0  0  0  0
    5.1445   -0.1996   29.3022 H   0  0  0  0  0  0  0  0  0  0  0  0
    6.7841   -0.5419   27.9222 C   0  0  0  0  0  0  0  0  0  0  0  0
    6.6020   -1.6108   27.8423 H   0  0  0  0  0  0  0  0  0  0  0  0
    8.1459   -1.0431   22.8412 C   0  0  0  0  0  0  0  0  0  0  0  0
    7.0852   -0.4279   22.1856 C   0  0  0  0  0  0  0  0  0  0  0  0
    6.1830   -0.0054   22.5863 H   0  0  0  0  0  0  0  0  0  0  0  0
    5.4315    0.6479   19.8689 C   0  0  0  0  0  0  0  0  0  0  0  0
    4.9401    0.6336   20.8414 H   0  0  0  0  0  0  0  0  0  0  0  0
    4.8309    1.2770   18.7835 C   0  0  0  0  0  0  0  0  0  0  0  0
    3.8942    1.8100   18.8906 H   0  0  0  0  0  0  0  0  0  0  0  0
  1  2  1  0
  2  3  2  0
  3  4  1  0
  4  5  1  0
  4  6  2  0
  6  7  1  0
  7  8  2  0
  8  9  1  0
  9 10  1  0
 10 11  1  0
 10 12  2  0
 12 13  1  0
 12 14  1  0
 14 15  1  0
 15 16  1  0
 15 17  1  0
 17 18  1  0
 17 19  1  0
 17 20  1  0
 20 21  2  0
 21 22  1  0
 21 23  1  0
 23 24  1  0
 23 25  2  0
 25 26  1  0
 26 27  1  0
 26 28  2  0
 28 29  1  0
 14 30  1  0
 30 31  2  0
 31 32  1  0
  6 33  1  0
 33 34  1  0
 33 35  2  0
 35 36  1  0
 35  2  1  0
 31  7  1  0
 30  9  1  0
 28 20  1  0
M  END
>  <cnnaffinity>  (1) 
-4.95868

>  <filename>  (1) 
c1cncc(-c2cc3n(NCc4ccncc4)ccn3n2)c1

$$$$
