
     RDKit          3D

 35 37  0  0  0  0  0  0  0  0999 V2000
    4.9338    1.8346   16.9890 H   0  0  0  0  0  0  0  0  0  0  0  0
    5.3982    1.3090   17.8181 C   0  0  0  0  0  0  0  0  0  0  0  0
    6.5588    0.6852   17.5550 N   0  0  0  0  0  0  0  0  0  0  0  0
    7.1693    0.0404   18.5623 C   0  0  0  0  0  0  0  0  0  0  0  0
    8.1158   -0.4469   18.3267 H   0  0  0  0  0  0  0  0  0  0  0  0
    6.6556   -0.0322   19.8823 C   0  0  0  0  0  0  0  0  0  0  0  0
    7.2735   -0.7423   20.9282 N   0  0  0  0  0  0  0  0  0  0  0  0
    6.6758   -0.9054   21.7336 H   0  0  0  0  0  0  0  0  0  0  0  0
    8.6795   -0.8094   21.1526 C   0  0  0  0  0  0  0  0  0  0  0  0
    9.6881    0.1093   20.7506 C   0  0  0  0  0  0  0  0  0  0  0  0
    9.5612    1.0154   20.1725 H   0  0  0  0  0  0  0  0  0  0  0  0
   10.9039   -0.2461   21.1530 N   0  0  0  0  0  0  0  0  0  0  0  0
   10.6864   -1.4004   21.8154 N   0  0  0  0  0  0  0  0  0  0  0  0
   11.4417   -1.9575   22.1744 H   0  0  0  0  0  0  0  0  0  0  0  0
    9.3859   -1.8042   21.8282 C   0  0  0  0  0  0  0  0  0  0  0  0
    9.0245   -3.0177   22.3783 N   0  0  0  0  0  0  0  0  0  0  0  0
    7.8037   -3.6701   21.8974 C   0  0  0  0  0  0  0  0  0  0  0  0
    7.6729   -3.4049   20.8428 H   0  0  0  0  0  0  0  0  0  0  0  0
    6.9224   -3.3048   22.4471 H   0  0  0  0  0  0  0  0  0  0  0  0
    7.8850   -5.1903   22.0696 C   0  0  0  0  0  0  0  0  0  0  0  0
    6.9281   -5.6220   21.7469 H   0  0  0  0  0  0  0  0  0  0  0  0
    8.6371   -5.5842   21.3812 H   0  0  0  0  0  0  0  0  0  0  0  0
    8.2231   -5.6045   23.5289 C   0  0  0  0  0  0  0  0  0  0  0  0
    8.9515   -6.4241   23.5163 H   0  0  0  0  0  0  0  0  0  0  0  0
    7.3321   -6.0079   24.0225 H   0  0  0  0  0  0  0  0  0  0  0  0
    8.7559   -4.4331   24.3846 C   0  0  0  0  0  0  0  0  0  0  0  0
    9.3006   -4.8014   25.2604 H   0  0  0  0  0  0  0  0  0  0  0  0
    7.9121   -3.8480   24.7683 H   0  0  0  0  0  0  0  0  0  0  0  0
    9.6603   -3.4720   23.6166 C   0  0  0  0  0  0  0  0  0  0  0  0
    9.8712   -2.5878   24.2334 H   0  0  0  0  0  0  0  0  0  0  0  0
   10.6336   -3.9369   23.4066 H   0  0  0  0  0  0  0  0  0  0  0  0
    5.4372    0.6240   20.1255 C   0  0  0  0  0  0  0  0  0  0  0  0
    5.0257    0.6088   21.1333 H   0  0  0  0  0  0  0  0  0  0  0  0
    4.7983    1.3059   19.0848 C   0  0  0  0  0  0  0  0  0  0  0  0
    3.8632    1.8421   19.2429 H   0  0  0  0  0  0  0  0  0  0  0  0
  1  2  1  0
  2  3  2  0
  3  4  1  0
  4  5  1  0
  4  6  2  0
  6  7  1  0
  7  8  1  0
  7  9  1  0
  9 10  1  0
 10 11  1  0
 10 12  2  0
 12 13  1  0
 13 14  1  0
 13 15  1  0
 15 16  1  0
 16 17  1  0
 17 18  1  0
 17 19  1  0
 17 20  1  0
 20 21  1  0
 20 22  1  0
 20 23  1  0
 23 24  1  0
 23 25  1  0
 23 26  1  0
 26 27  1  0
 26 28  1  0
 26 29  1  0
 29 30  1  0
 29 31  1  0
  6 32  1  0
 32 33  1  0
 32 34  2  0
 34 35  1  0
 34  2  1  0
 15  9  2  0
 29 16  1  0
M  END
>  <cnnaffinity>  (1) 
-5.49801

>  <filename>  (1) 
c1cncc(Nc2cn[nH]c2N2CCCCC2)c1

$$$$
