
     RDKit          3D

 32 35  0  0  0  0  0  0  0  0999 V2000
    8.5629   -1.8851   19.8167 H   0  0  0  0  0  0  0  0  0  0  0  0
    8.2867   -1.6416   20.8299 C   0  0  0  0  0  0  0  0  0  0  0  0
    8.8751   -2.3487   21.8041 N   0  0  0  0  0  0  0  0  0  0  0  0
    8.6104   -1.9216   23.0547 C   0  0  0  0  0  0  0  0  0  0  0  0
    9.1000   -2.4663   23.8509 H   0  0  0  0  0  0  0  0  0  0  0  0
    7.7950   -0.7920   23.3301 C   0  0  0  0  0  0  0  0  0  0  0  0
    7.6474   -0.2701   24.7110 C   0  0  0  0  0  0  0  0  0  0  0  0
    7.6258   -1.0364   25.8302 C   0  0  0  0  0  0  0  0  0  0  0  0
    7.6894   -2.1149   25.9016 H   0  0  0  0  0  0  0  0  0  0  0  0
    7.3867   -0.1432   27.2888 S   0  0  0  0  0  0  0  0  0  0  0  0
    7.3417    1.3579   26.4092 C   0  0  0  0  0  0  0  0  0  0  0  0
    7.1453    2.6470   26.9361 C   0  0  0  0  0  0  0  0  0  0  0  0
    6.9707    2.7895   27.9975 H   0  0  0  0  0  0  0  0  0  0  0  0
    7.1636    3.7331   26.0654 C   0  0  0  0  0  0  0  0  0  0  0  0
    7.0090    4.7365   26.4513 H   0  0  0  0  0  0  0  0  0  0  0  0
    7.3710    3.5393   24.6817 C   0  0  0  0  0  0  0  0  0  0  0  0
    7.3933    4.3984   24.0172 H   0  0  0  0  0  0  0  0  0  0  0  0
    7.5386    2.2671   24.1578 C   0  0  0  0  0  0  0  0  0  0  0  0
    7.6650    2.1162   23.0892 H   0  0  0  0  0  0  0  0  0  0  0  0
    7.5121    1.1451   25.0243 C   0  0  0  0  0  0  0  0  0  0  0  0
    7.1519   -0.1541   22.3266 N   0  0  0  0  0  0  0  0  0  0  0  0
    7.3829   -0.5796   21.0770 C   0  0  0  0  0  0  0  0  0  0  0  0
    6.6380    0.1047   19.9881 C   0  0  0  0  0  0  0  0  0  0  0  0
    7.1670    0.0990   18.6894 C   0  0  0  0  0  0  0  0  0  0  0  0
    8.1249   -0.3846   18.4955 H   0  0  0  0  0  0  0  0  0  0  0  0
    6.5801    0.6685   17.6379 N   0  0  0  0  0  0  0  0  0  0  0  0
    5.4083    1.2852   17.8511 C   0  0  0  0  0  0  0  0  0  0  0  0
    4.9637    1.7704   16.9864 H   0  0  0  0  0  0  0  0  0  0  0  0
    4.7770    1.3361   19.0996 C   0  0  0  0  0  0  0  0  0  0  0  0
    3.8220    1.8421   19.1948 H   0  0  0  0  0  0  0  0  0  0  0  0
    5.4064    0.7482   20.1973 C   0  0  0  0  0  0  0  0  0  0  0  0
    4.9771    0.7861   21.2008 H   0  0  0  0  0  0  0  0  0  0  0  0
  1  2  1  0
  2  3  2  0
  3  4  1  0
  4  5  1  0
  4  6  2  0
  6  7  1  0
  7  8  2  0
  8  9  1  0
  8 10  1  0
 10 11  1  0
 11 12  2  0
 12 13  1  0
 12 14  1  0
 14 15  1  0
 14 16  2  0
 16 17  1  0
 16 18  1  0
 18 19  1  0
 18 20  2  0
  6 21  1  0
 21 22  2  0
 22 23  1  0
 23 24  2  0
 24 25  1  0
 24 26  1  0
 26 27  2  0
 27 28  1  0
 27 29  1  0
 29 30  1  0
 29 31  2  0
 31 32  1  0
 22  2  1  0
 31 23  1  0
 20  7  1  0
 20 11  1  0
M  END
>  <cnnaffinity>  (1) 
-5.58005

>  <filename>  (1) 
c1cncc(-c2cncc(-c3csc4ccccc34)n2)c1

$$$$
