
     RDKit          3D

 28 30  0  0  0  0  0  0  0  0999 V2000
    9.3391   -0.2936   20.3520 H   0  0  0  0  0  0  0  0  0  0  0  0
    8.7381   -0.8060   21.0990 C   0  0  0  0  0  0  0  0  0  0  0  0
    9.4079   -1.4455   22.0818 N   0  0  0  0  0  0  0  0  0  0  0  0
    8.6642   -2.0445   23.0226 C   0  0  0  0  0  0  0  0  0  0  0  0
    9.1621   -2.5731   23.8344 H   0  0  0  0  0  0  0  0  0  0  0  0
    7.2319   -1.9941   22.9851 C   0  0  0  0  0  0  0  0  0  0  0  0
    6.4172   -2.5773   23.9089 N   0  0  0  0  0  0  0  0  0  0  0  0
    5.4673   -2.2773   23.7257 H   0  0  0  0  0  0  0  0  0  0  0  0
    6.8806   -3.2928   25.0532 C   0  0  0  0  0  0  0  0  0  0  0  0
    7.3999   -2.6929   25.8130 H   0  0  0  0  0  0  0  0  0  0  0  0
    6.0719   -4.4643   25.5130 C   0  0  0  0  0  0  0  0  0  0  0  0
    6.0298   -4.6501   26.5820 H   0  0  0  0  0  0  0  0  0  0  0  0
    5.1339   -4.6555   24.9985 H   0  0  0  0  0  0  0  0  0  0  0  0
    7.3720   -4.6997   24.7958 C   0  0  0  0  0  0  0  0  0  0  0  0
    8.2217   -5.0827   25.3578 H   0  0  0  0  0  0  0  0  0  0  0  0
    7.3346   -5.0337   23.7608 H   0  0  0  0  0  0  0  0  0  0  0  0
    6.5659   -1.3439   22.0097 N   0  0  0  0  0  0  0  0  0  0  0  0
    7.3193   -0.7613   21.0519 C   0  0  0  0  0  0  0  0  0  0  0  0
    6.6131   -0.0360   19.9539 C   0  0  0  0  0  0  0  0  0  0  0  0
    7.1545    0.0195   18.6551 C   0  0  0  0  0  0  0  0  0  0  0  0
    8.1041   -0.4585   18.4102 H   0  0  0  0  0  0  0  0  0  0  0  0
    6.5763    0.6450   17.6241 N   0  0  0  0  0  0  0  0  0  0  0  0
    5.4192    1.2799   17.8607 C   0  0  0  0  0  0  0  0  0  0  0  0
    4.9700    1.7782   17.0050 H   0  0  0  0  0  0  0  0  0  0  0  0
    4.8000    1.3098   19.1145 C   0  0  0  0  0  0  0  0  0  0  0  0
    3.8704    1.8554   19.2409 H   0  0  0  0  0  0  0  0  0  0  0  0
    5.4023    0.6393   20.1785 C   0  0  0  0  0  0  0  0  0  0  0  0
    4.9541    0.6376   21.1741 H   0  0  0  0  0  0  0  0  0  0  0  0
  1  2  1  0
  2  3  2  0
  3  4  1  0
  4  5  1  0
  4  6  2  0
  6  7  1  0
  7  8  1  0
  7  9  1  0
  9 10  1  0
  9 11  1  0
 11 12  1  0
 11 13  1  0
 11 14  1  0
 14 15  1  0
 14 16  1  0
  6 17  1  0
 17 18  2  0
 18 19  1  0
 19 20  2  0
 20 21  1  0
 20 22  1  0
 22 23  2  0
 23 24  1  0
 23 25  1  0
 25 26  1  0
 25 27  2  0
 27 28  1  0
 18  2  1  0
 27 19  1  0
 14  9  1  0
M  END
>  <cnnaffinity>  (1) 
-4.95514

>  <filename>  (1) 
c1cncc(-c2cncc(NC3CC3)n2)c1

$$$$
