
     RDKit          3D

 35 39  0  0  0  0  0  0  0  0999 V2000
    4.9469    1.8025   16.9802 H   0  0  0  0  0  0  0  0  0  0  0  0
    5.4010    1.2889   17.8264 C   0  0  0  0  0  0  0  0  0  0  0  0
    6.5605    0.6611   17.5779 N   0  0  0  0  0  0  0  0  0  0  0  0
    7.1566    0.0260   18.5902 C   0  0  0  0  0  0  0  0  0  0  0  0
    8.1062   -0.4540   18.3593 H   0  0  0  0  0  0  0  0  0  0  0  0
    6.6431   -0.0112   19.8952 C   0  0  0  0  0  0  0  0  0  0  0  0
    7.3924   -0.6896   20.9492 C   0  0  0  0  0  0  0  0  0  0  0  0
    8.0536   -1.8732   20.7300 N   0  0  0  0  0  0  0  0  0  0  0  0
    8.4669   -2.2172   21.9175 C   0  0  0  0  0  0  0  0  0  0  0  0
    9.3504   -3.5462   22.5994 S   0  0  0  0  0  0  0  0  0  0  0  0
    9.4283   -2.7455   24.1472 C   0  0  0  0  0  0  0  0  0  0  0  0
    9.9992   -3.2122   24.9404 H   0  0  0  0  0  0  0  0  0  0  0  0
    8.7445   -1.5886   24.1451 C   0  0  0  0  0  0  0  0  0  0  0  0
    8.5940   -0.8697   24.9414 H   0  0  0  0  0  0  0  0  0  0  0  0
    8.1741   -1.3178   22.9036 N   0  0  0  0  0  0  0  0  0  0  0  0
    7.4958   -0.2872   22.2808 C   0  0  0  0  0  0  0  0  0  0  0  0
    7.0967    0.9367   22.9622 C   0  0  0  0  0  0  0  0  0  0  0  0
    7.3160    2.1930   22.3301 C   0  0  0  0  0  0  0  0  0  0  0  0
    7.7733    2.1920   21.3424 H   0  0  0  0  0  0  0  0  0  0  0  0
    6.9274    3.3790   22.9321 C   0  0  0  0  0  0  0  0  0  0  0  0
    7.1015    4.3224   22.4221 H   0  0  0  0  0  0  0  0  0  0  0  0
    6.3023    3.2970   24.1943 C   0  0  0  0  0  0  0  0  0  0  0  0
    6.0605    2.0578   24.8467 C   0  0  0  0  0  0  0  0  0  0  0  0
    6.4620    0.8754   24.2056 C   0  0  0  0  0  0  0  0  0  0  0  0
    6.2688   -0.1006   24.6391 H   0  0  0  0  0  0  0  0  0  0  0  0
    5.4215    2.3632   26.1005 C   0  0  0  0  0  0  0  0  0  0  0  0
    5.1076    1.6438   26.8508 H   0  0  0  0  0  0  0  0  0  0  0  0
    5.2988    3.7179   26.1622 C   0  0  0  0  0  0  0  0  0  0  0  0
    4.8757    4.3495   26.9320 H   0  0  0  0  0  0  0  0  0  0  0  0
    5.8252    4.2864   25.0178 N   0  0  0  0  0  0  0  0  0  0  0  0
    5.8595    5.2648   24.7918 H   0  0  0  0  0  0  0  0  0  0  0  0
    5.4213    0.6439   20.1397 C   0  0  0  0  0  0  0  0  0  0  0  0
    4.9988    0.6668   21.1467 H   0  0  0  0  0  0  0  0  0  0  0  0
    4.7943    1.3030   19.0864 C   0  0  0  0  0  0  0  0  0  0  0  0
    3.8663    1.8451   19.2269 H   0  0  0  0  0  0  0  0  0  0  0  0
  1  2  1  0
  2  3  2  0
  3  4  1  0
  4  5  1  0
  4  6  2  0
  6  7  1  0
  7  8  1  0
  8  9  2  0
  9 10  1  0
 10 11  1  0
 11 12  1  0
 11 13  2  0
 13 14  1  0
 13 15  1  0
 15 16  1  0
 16 17  1  0
 17 18  2  0
 18 19  1  0
 18 20  1  0
 20 21  1  0
 20 22  2  0
 22 23  1  0
 23 24  2  0
 24 25  1  0
 23 26  1  0
 26 27  1  0
 26 28  2  0
 28 29  1  0
 28 30  1  0
 30 31  1  0
  6 32  1  0
 32 33  1  0
 32 34  2  0
 34 35  1  0
 34  2  1  0
 16  7  2  0
 24 17  1  0
 15  9  1  0
 30 22  1  0
M  END
>  <cnnaffinity>  (1) 
-5.81644

>  <filename>  (1) 
c1cncc(-c2nc3sccn3c2-c2ccc3[nH]ccc3c2)c1

$$$$
