
     RDKit          3D

 38 42  0  0  0  0  0  0  0  0999 V2000
    5.0004    1.8463   16.9106 H   0  0  0  0  0  0  0  0  0  0  0  0
    5.3848    1.3115   17.7804 C   0  0  0  0  0  0  0  0  0  0  0  0
    6.5337    0.6430   17.6004 N   0  0  0  0  0  0  0  0  0  0  0  0
    7.0467    0.0154   18.6677 C   0  0  0  0  0  0  0  0  0  0  0  0
    7.9850   -0.5088   18.4978 H   0  0  0  0  0  0  0  0  0  0  0  0
    6.4533   -0.0197   19.9489 C   0  0  0  0  0  0  0  0  0  0  0  0
    7.1947   -0.6506   21.0590 C   0  0  0  0  0  0  0  0  0  0  0  0
    8.5513   -0.6019   21.2961 C   0  0  0  0  0  0  0  0  0  0  0  0
    8.7505   -1.2009   22.5322 C   0  0  0  0  0  0  0  0  0  0  0  0
    7.6323   -1.6540   23.0662 N   0  0  0  0  0  0  0  0  0  0  0  0
    6.6892   -1.3033   22.1543 N   0  0  0  0  0  0  0  0  0  0  0  0
    5.7295   -1.5463   22.3581 H   0  0  0  0  0  0  0  0  0  0  0  0
   10.1708   -1.1317   23.0002 C   0  0  0  0  0  0  0  0  0  0  0  0
   10.2695   -0.5800   23.9408 H   0  0  0  0  0  0  0  0  0  0  0  0
   10.5863   -2.1333   23.1575 H   0  0  0  0  0  0  0  0  0  0  0  0
   10.8872   -0.3884   21.8155 C   0  0  2  0  0  0  0  0  0  0  0  0
   11.6073   -1.0891   21.3934 H   0  0  0  0  0  0  0  0  0  0  0  0
   11.6747    0.8179   22.2242 C   0  0  0  0  0  0  0  0  0  0  0  0
   10.9691    1.8665   22.7619 O   0  0  0  0  0  0  0  0  0  0  0  0
   11.8635    2.8652   23.0115 C   0  0  0  0  0  0  0  0  0  0  0  0
   11.6020    4.0785   23.6540 C   0  0  0  0  0  0  0  0  0  0  0  0
   10.6002    4.3260   23.9920 H   0  0  0  0  0  0  0  0  0  0  0  0
   12.6926    4.9356   23.8226 C   0  0  0  0  0  0  0  0  0  0  0  0
   12.5594    5.8738   24.3529 H   0  0  0  0  0  0  0  0  0  0  0  0
   13.9694    4.6091   23.3182 C   0  0  0  0  0  0  0  0  0  0  0  0
   14.8031    5.2903   23.4185 H   0  0  0  0  0  0  0  0  0  0  0  0
   14.1965    3.3982   22.6818 C   0  0  0  0  0  0  0  0  0  0  0  0
   15.1844    3.1567   22.3012 H   0  0  0  0  0  0  0  0  0  0  0  0
   13.1396    2.4769   22.5865 C   0  0  0  0  0  0  0  0  0  0  0  0
   12.9935    1.1143   22.1352 C   0  0  0  0  0  0  0  0  0  0  0  0
   13.7877    0.4452   21.8287 H   0  0  0  0  0  0  0  0  0  0  0  0
    9.8165   -0.0841   20.7078 C   0  0  0  0  0  0  0  0  0  0  0  0
    9.7445    0.9792   20.4506 H   0  0  0  0  0  0  0  0  0  0  0  0
   10.0665   -0.6247   19.7908 H   0  0  0  0  0  0  0  0  0  0  0  0
    5.2374    0.6689   20.1074 C   0  0  0  0  0  0  0  0  0  0  0  0
    4.7366    0.7132   21.0781 H   0  0  0  0  0  0  0  0  0  0  0  0
    4.7057    1.3436   19.0056 C   0  0  0  0  0  0  0  0  0  0  0  0
    3.7935    1.9230   19.0800 H   0  0  0  0  0  0  0  0  0  0  0  0
  1  2  1  0
  2  3  2  0
  3  4  1  0
  4  5  1  0
  4  6  2  0
  6  7  1  0
  7  8  2  0
  8  9  1  0
  9 10  2  0
 10 11  1  0
 11 12  1  0
  9 13  1  0
 13 14  1  0
 13 15  1  0
 13 16  1  0
 16 17  1  6
 16 18  1  0
 18 19  1  0
 19 20  1  0
 20 21  2  0
 21 22  1  0
 21 23  1  0
 23 24  1  0
 23 25  2  0
 25 26  1  0
 25 27  1  0
 27 28  1  0
 27 29  2  0
 29 30  1  0
 30 31  1  0
 16 32  1  0
 32 33  1  0
 32 34  1  0
  6 35  1  0
 35 36  1  0
 35 37  2  0
 37 38  1  0
 37  2  1  0
 11  7  1  0
 30 18  2  0
 32  8  1  0
 29 20  1  0
M  END
>  <cnnaffinity>  (1) 
-5.96617

>  <filename>  (1) 
c1cncc(-c2[nH]nc3c2C[C@@H](c2cc4ccccc4o2)C3)c1

$$$$
