
     RDKit          3D

 41 45  0  0  0  0  0  0  0  0999 V2000
    4.9087    1.8369   16.9202 H   0  0  0  0  0  0  0  0  0  0  0  0
    5.4031    1.3359   17.7490 C   0  0  0  0  0  0  0  0  0  0  0  0
    6.5606    0.7213   17.4598 N   0  0  0  0  0  0  0  0  0  0  0  0
    7.2011    0.1110   18.4639 C   0  0  0  0  0  0  0  0  0  0  0  0
    8.1330   -0.3936   18.2029 H   0  0  0  0  0  0  0  0  0  0  0  0
    6.7439    0.0737   19.7920 C   0  0  0  0  0  0  0  0  0  0  0  0
    7.5198   -0.6188   20.8903 C   0  0  1  0  0  0  0  0  0  0  0  0
    8.4567   -0.9965   20.4673 H   0  0  0  0  0  0  0  0  0  0  0  0
    7.8938    0.3464   22.0722 C   0  0  0  0  0  0  0  0  0  0  0  0
    7.4438    1.3397   21.9740 H   0  0  0  0  0  0  0  0  0  0  0  0
    8.9704    0.5294   22.1151 H   0  0  0  0  0  0  0  0  0  0  0  0
    7.3949   -0.3810   23.2810 C   0  0  0  0  0  0  0  0  0  0  0  0
    7.3591   -0.1173   24.5739 N   0  0  0  0  0  0  0  0  0  0  0  0
    6.7760   -1.2273   25.1007 N   0  0  0  0  0  0  0  0  0  0  0  0
    6.4388   -1.1598   26.0524 H   0  0  0  0  0  0  0  0  0  0  0  0
    6.4154   -2.1623   24.1632 C   0  0  0  0  0  0  0  0  0  0  0  0
    5.7750   -3.4783   24.4143 C   0  0  0  0  0  0  0  0  0  0  0  0
    4.8077   -3.9251   23.4573 C   0  0  0  0  0  0  0  0  0  0  0  0
    4.5719   -3.2724   22.6218 H   0  0  0  0  0  0  0  0  0  0  0  0
    4.1413   -5.1125   23.6174 C   0  0  0  0  0  0  0  0  0  0  0  0
    3.4213   -5.4517   22.8790 H   0  0  0  0  0  0  0  0  0  0  0  0
    4.3739   -5.9270   24.7664 C   0  0  0  0  0  0  0  0  0  0  0  0
    3.5943   -7.0838   25.0575 C   0  0  0  0  0  0  0  0  0  0  0  0
    2.7881   -7.3641   24.3847 H   0  0  0  0  0  0  0  0  0  0  0  0
    3.8093   -7.8090   26.2062 C   0  0  0  0  0  0  0  0  0  0  0  0
    3.1819   -8.6641   26.4184 H   0  0  0  0  0  0  0  0  0  0  0  0
    4.8613   -7.4477   27.1017 C   0  0  0  0  0  0  0  0  0  0  0  0
    5.0354   -8.0364   28.0000 H   0  0  0  0  0  0  0  0  0  0  0  0
    5.6557   -6.3632   26.8226 C   0  0  0  0  0  0  0  0  0  0  0  0
    6.4913   -6.1121   27.4697 H   0  0  0  0  0  0  0  0  0  0  0  0
    5.3960   -5.5318   25.6909 C   0  0  0  0  0  0  0  0  0  0  0  0
    6.0723   -4.2920   25.4948 C   0  0  0  0  0  0  0  0  0  0  0  0
    6.8106   -3.9956   26.2380 H   0  0  0  0  0  0  0  0  0  0  0  0
    6.8167   -1.6064   22.9657 C   0  0  0  0  0  0  0  0  0  0  0  0
    6.7454   -1.8413   21.4917 C   0  0  0  0  0  0  0  0  0  0  0  0
    5.7022   -1.8634   21.1412 H   0  0  0  0  0  0  0  0  0  0  0  0
    7.1801   -2.7963   21.1676 H   0  0  0  0  0  0  0  0  0  0  0  0
    5.5163    0.6986   20.0589 C   0  0  0  0  0  0  0  0  0  0  0  0
    5.1061    0.6772   21.0697 H   0  0  0  0  0  0  0  0  0  0  0  0
    4.8341    1.3428   19.0271 C   0  0  0  0  0  0  0  0  0  0  0  0
    3.8901    1.8513   19.1984 H   0  0  0  0  0  0  0  0  0  0  0  0
  1  2  1  0
  2  3  2  0
  3  4  1  0
  4  5  1  0
  4  6  2  0
  6  7  1  0
  7  8  1  6
  7  9  1  0
  9 10  1  0
  9 11  1  0
  9 12  1  0
 12 13  2  0
 13 14  1  0
 14 15  1  0
 14 16  1  0
 16 17  1  0
 17 18  2  0
 18 19  1  0
 18 20  1  0
 20 21  1  0
 20 22  2  0
 22 23  1  0
 23 24  1  0
 23 25  2  0
 25 26  1  0
 25 27  1  0
 27 28  1  0
 27 29  2  0
 29 30  1  0
 29 31  1  0
 31 32  2  0
 32 33  1  0
 16 34  2  0
 34 35  1  0
 35 36  1  0
 35 37  1  0
  6 38  1  0
 38 39  1  0
 38 40  2  0
 40 41  1  0
 40  2  1  0
 35  7  1  0
 34 12  1  0
 32 17  1  0
 31 22  1  0
M  END
>  <cnnaffinity>  (1) 
-5.50924

>  <filename>  (1) 
c1cncc([C@H]2Cc3n[nH]c(-c4ccc5ccccc5c4)c3C2)c1

$$$$
