
     RDKit          3D

 38 42  0  0  0  0  0  0  0  0999 V2000
    5.0281    1.7755   16.9282 H   0  0  0  0  0  0  0  0  0  0  0  0
    5.4574    1.2904   17.8032 C   0  0  0  0  0  0  0  0  0  0  0  0
    6.5970    0.6102   17.5994 N   0  0  0  0  0  0  0  0  0  0  0  0
    7.1503    0.0082   18.6534 C   0  0  0  0  0  0  0  0  0  0  0  0
    8.0501   -0.5730   18.4534 H   0  0  0  0  0  0  0  0  0  0  0  0
    6.6344    0.0857   19.9608 C   0  0  0  0  0  0  0  0  0  0  0  0
    7.3765   -0.5366   21.0631 C   0  0  0  0  0  0  0  0  0  0  0  0
    8.1462   -1.5987   20.8255 N   0  0  0  0  0  0  0  0  0  0  0  0
    8.6102   -1.9313   22.0246 N   0  0  0  0  0  0  0  0  0  0  0  0
    8.2287   -1.1357   23.0206 C   0  0  0  0  0  0  0  0  0  0  0  0
    7.3903   -0.1826   22.4595 C   0  0  0  0  0  0  0  0  0  0  0  0
    6.7341    0.8728   23.2183 C   0  0  0  0  0  0  0  0  0  0  0  0
    5.9539    0.6272   24.3025 C   0  0  0  0  0  0  0  0  0  0  0  0
    5.6401   -0.3539   24.6400 H   0  0  0  0  0  0  0  0  0  0  0  0
    5.3792    2.0474   25.1002 S   0  0  0  0  0  0  0  0  0  0  0  0
    6.2100    3.0679   23.9625 C   0  0  0  0  0  0  0  0  0  0  0  0
    6.2762    4.4752   23.9711 C   0  0  0  0  0  0  0  0  0  0  0  0
    5.7579    5.0601   24.7268 H   0  0  0  0  0  0  0  0  0  0  0  0
    7.0344    5.1048   22.9935 C   0  0  0  0  0  0  0  0  0  0  0  0
    7.0860    6.1868   22.9396 H   0  0  0  0  0  0  0  0  0  0  0  0
    7.7464    4.3562   22.0378 C   0  0  0  0  0  0  0  0  0  0  0  0
    8.3517    4.8858   21.3115 H   0  0  0  0  0  0  0  0  0  0  0  0
    7.6960    2.9712   22.0340 C   0  0  0  0  0  0  0  0  0  0  0  0
    8.2449    2.3972   21.2924 H   0  0  0  0  0  0  0  0  0  0  0  0
    6.9107    2.3040   23.0039 C   0  0  0  0  0  0  0  0  0  0  0  0
    8.9567   -1.4943   24.2881 C   0  0  0  0  0  0  0  0  0  0  0  0
    8.2472   -1.7535   25.0770 H   0  0  0  0  0  0  0  0  0  0  0  0
    9.5492   -0.6469   24.6471 H   0  0  0  0  0  0  0  0  0  0  0  0
    9.8518   -2.6910   23.8562 C   0  0  0  0  0  0  0  0  0  0  0  0
    9.6895   -3.5695   24.4806 H   0  0  0  0  0  0  0  0  0  0  0  0
   10.9024   -2.4250   23.9280 H   0  0  0  0  0  0  0  0  0  0  0  0
    9.5149   -2.9991   22.3724 C   0  0  0  0  0  0  0  0  0  0  0  0
    9.0293   -3.9712   22.2458 H   0  0  0  0  0  0  0  0  0  0  0  0
   10.3899   -2.9424   21.7254 H   0  0  0  0  0  0  0  0  0  0  0  0
    5.4122    0.7520   20.1475 C   0  0  0  0  0  0  0  0  0  0  0  0
    4.9340    0.7748   21.1294 H   0  0  0  0  0  0  0  0  0  0  0  0
    4.8185    1.3642   19.0450 C   0  0  0  0  0  0  0  0  0  0  0  0
    3.8758    1.8959   19.1280 H   0  0  0  0  0  0  0  0  0  0  0  0
  1  2  1  0
  2  3  2  0
  3  4  1  0
  4  5  1  0
  4  6  2  0
  6  7  1  0
  7  8  2  0
  8  9  1  0
  9 10  1  0
 10 11  2  0
 11 12  1  0
 12 13  2  0
 13 14  1  0
 13 15  1  0
 15 16  1  0
 16 17  2  0
 17 18  1  0
 17 19  1  0
 19 20  1  0
 19 21  2  0
 21 22  1  0
 21 23  1  0
 23 24  1  0
 23 25  2  0
 10 26  1  0
 26 27  1  0
 26 28  1  0
 26 29  1  0
 29 30  1  0
 29 31  1  0
 29 32  1  0
 32 33  1  0
 32 34  1  0
  6 35  1  0
 35 36  1  0
 35 37  2  0
 37 38  1  0
 37  2  1  0
 11  7  1  0
 25 12  1  0
 32  9  1  0
 25 16  1  0
M  END
>  <cnnaffinity>  (1) 
-5.73787

>  <filename>  (1) 
c1cncc(-c2nn3c(c2-c2csc4ccccc24)CCC3)c1

$$$$
