
     RDKit          3D

 37 40  0  0  0  0  0  0  0  0999 V2000
    4.7964    1.3149   19.0832 C   0  0  0  0  0  0  0  0  0  0  0  0
    5.3891    1.3036   17.8172 C   0  0  0  0  0  0  0  0  0  0  0  0
    6.5491    0.6838   17.5574 N   0  0  0  0  0  0  0  0  0  0  0  0
    7.1554    0.0520   18.5722 C   0  0  0  0  0  0  0  0  0  0  0  0
    6.6452   -0.0214   19.8808 C   0  0  0  0  0  0  0  0  0  0  0  0
    7.3649   -0.7221   21.0160 C   0  0  0  0  0  0  0  0  0  0  0  0
    8.0296    0.2629   22.0112 C   0  0  0  0  0  0  0  0  0  0  0  0
    9.2800    0.9385   21.4191 C   0  0  0  0  0  0  0  0  0  0  0  0
   10.4778    0.1208   21.9288 C   0  0  0  0  0  0  0  0  0  0  0  0
   10.0112   -0.5033   23.2568 C   0  0  0  0  0  0  0  0  0  0  0  0
    8.5510   -0.4184   23.1921 N   0  0  0  0  0  0  0  0  0  0  0  0
    7.7371   -0.8578   24.1884 C   0  0  0  0  0  0  0  0  0  0  0  0
    8.3524   -1.5217   25.2072 N   0  0  0  0  0  0  0  0  0  0  0  0
    7.6077   -1.9743   26.1944 C   0  0  0  0  0  0  0  0  0  0  0  0
    6.2160   -1.7769   26.2062 C   0  0  0  0  0  0  0  0  0  0  0  0
    5.1775   -2.0949   27.0409 N   0  0  0  0  0  0  0  0  0  0  0  0
    4.0088   -1.6317   26.5598 N   0  0  0  0  0  0  0  0  0  0  0  0
    4.2675   -1.0156   25.4242 C   0  0  0  0  0  0  0  0  0  0  0  0
    5.6724   -1.0651   25.1131 C   0  0  0  0  0  0  0  0  0  0  0  0
    6.4373   -0.6052   24.0906 N   0  0  0  0  0  0  0  0  0  0  0  0
    3.4262   -0.5809   24.8907 H   0  0  0  0  0  0  0  0  0  0  0  0
    5.1473   -2.5787   27.9295 H   0  0  0  0  0  0  0  0  0  0  0  0
    8.1129   -2.5015   27.0031 H   0  0  0  0  0  0  0  0  0  0  0  0
   10.3392   -1.5462   23.3755 H   0  0  0  0  0  0  0  0  0  0  0  0
   10.3933    0.0532   24.1255 H   0  0  0  0  0  0  0  0  0  0  0  0
   11.3630    0.7498   22.0695 H   0  0  0  0  0  0  0  0  0  0  0  0
   10.7475   -0.6615   21.2082 H   0  0  0  0  0  0  0  0  0  0  0  0
    9.2348    0.9435   20.3243 H   0  0  0  0  0  0  0  0  0  0  0  0
    9.3320    1.9809   21.7487 H   0  0  0  0  0  0  0  0  0  0  0  0
    7.2729    1.0065   22.3100 H   0  0  0  0  0  0  0  0  0  0  0  0
    8.1400   -1.4026   20.6386 H   0  0  0  0  0  0  0  0  0  0  0  0
    6.6519   -1.3280   21.5853 H   0  0  0  0  0  0  0  0  0  0  0  0
    5.4365    0.6486   20.1281 C   0  0  0  0  0  0  0  0  0  0  0  0
    5.0216    0.6418   21.1376 H   0  0  0  0  0  0  0  0  0  0  0  0
    8.1092   -0.4214   18.3269 H   0  0  0  0  0  0  0  0  0  0  0  0
    4.9162    1.8102   16.9765 H   0  0  0  0  0  0  0  0  0  0  0  0
    3.8678    1.8515   19.2369 H   0  0  0  0  0  0  0  0  0  0  0  0
  1  2  2  0
  2  3  1  0
  3  4  2  0
  4  5  1  0
  5  6  1  0
  6  7  1  0
  7  8  1  0
  8  9  1  0
  9 10  1  0
 10 11  1  0
 11 12  1  0
 12 13  2  0
 13 14  1  0
 14 15  2  0
 15 16  1  0
 16 17  1  0
 17 18  2  0
 18 19  1  0
 19 20  2  0
 18 21  1  0
 16 22  1  0
 14 23  1  0
 10 24  1  0
 10 25  1  0
  9 26  1  0
  9 27  1  0
  8 28  1  0
  8 29  1  0
  7 30  1  0
  6 31  1  0
  6 32  1  0
  5 33  2  0
 33 34  1  0
  4 35  1  0
  2 36  1  0
  1 37  1  0
 33  1  1  0
 11  7  1  0
 20 12  1  0
 19 15  1  0
M  END
>  <cnnaffinity>  (1) 
-5.24872

>  <filename>  (1) 
c1cncc(CC2CCCN2c2ncc3[nH]ncc3n2)c1

$$$$
