
     RDKit          3D

 33 36  0  0  0  0  0  0  0  0999 V2000
    4.9219    1.7813   16.9953 H   0  0  0  0  0  0  0  0  0  0  0  0
    5.4053    1.2947   17.8365 C   0  0  0  0  0  0  0  0  0  0  0  0
    6.5701    0.6788   17.5745 N   0  0  0  0  0  0  0  0  0  0  0  0
    7.1678    0.0589   18.5943 C   0  0  0  0  0  0  0  0  0  0  0  0
    8.1130   -0.4357   18.3786 H   0  0  0  0  0  0  0  0  0  0  0  0
    6.6480    0.0255   19.8968 C   0  0  0  0  0  0  0  0  0  0  0  0
    7.3767   -0.7166   20.9279 C   0  0  0  0  0  0  0  0  0  0  0  0
    7.9494   -1.8784   20.7432 N   0  0  0  0  0  0  0  0  0  0  0  0
    8.4477   -2.3015   21.9492 N   0  0  0  0  0  0  0  0  0  0  0  0
    8.1808   -1.3710   22.8210 C   0  0  0  0  0  0  0  0  0  0  0  0
    8.4692   -1.3804   23.8637 H   0  0  0  0  0  0  0  0  0  0  0  0
    7.5015   -0.3289   22.2446 N   0  0  0  0  0  0  0  0  0  0  0  0
    7.1655    0.9249   22.8525 C   0  0  0  0  0  0  0  0  0  0  0  0
    6.5708    0.9118   24.1517 C   0  0  0  0  0  0  0  0  0  0  0  0
    6.3917   -0.0424   24.6414 H   0  0  0  0  0  0  0  0  0  0  0  0
    6.2286    2.0939   24.7673 C   0  0  0  0  0  0  0  0  0  0  0  0
    5.7891    2.0982   25.7628 H   0  0  0  0  0  0  0  0  0  0  0  0
    6.4525    3.3516   24.1242 C   0  0  0  0  0  0  0  0  0  0  0  0
    6.1076    4.5980   24.7368 C   0  0  0  0  0  0  0  0  0  0  0  0
    5.6590    4.5781   25.7295 H   0  0  0  0  0  0  0  0  0  0  0  0
    6.3360    5.7906   24.0863 C   0  0  0  0  0  0  0  0  0  0  0  0
    6.0706    6.7364   24.5529 H   0  0  0  0  0  0  0  0  0  0  0  0
    6.9248    5.7993   22.7873 C   0  0  0  0  0  0  0  0  0  0  0  0
    7.1018    6.7441   22.2751 H   0  0  0  0  0  0  0  0  0  0  0  0
    7.2713    4.6152   22.1805 C   0  0  0  0  0  0  0  0  0  0  0  0
    7.7459    4.6369   21.2077 H   0  0  0  0  0  0  0  0  0  0  0  0
    7.0501    3.3589   22.8210 C   0  0  0  0  0  0  0  0  0  0  0  0
    7.4160    2.1191   22.2090 C   0  0  0  0  0  0  0  0  0  0  0  0
    7.8478    2.1256   21.2119 H   0  0  0  0  0  0  0  0  0  0  0  0
    5.4200    0.6526   20.1519 C   0  0  0  0  0  0  0  0  0  0  0  0
    5.0008    0.6407   21.1649 H   0  0  0  0  0  0  0  0  0  0  0  0
    4.7949    1.3097   19.0986 C   0  0  0  0  0  0  0  0  0  0  0  0
    3.8657    1.8468   19.2546 H   0  0  0  0  0  0  0  0  0  0  0  0
  1  2  1  0
  2  3  2  0
  3  4  1  0
  4  5  1  0
  4  6  2  0
  6  7  1  0
  7  8  2  0
  8  9  1  0
  9 10  2  0
 10 11  1  0
 10 12  1  0
 12 13  1  0
 13 14  2  0
 14 15  1  0
 14 16  1  0
 16 17  1  0
 16 18  2  0
 18 19  1  0
 19 20  1  0
 19 21  2  0
 21 22  1  0
 21 23  1  0
 23 24  1  0
 23 25  2  0
 25 26  1  0
 25 27  1  0
 27 28  2  0
 28 29  1  0
  6 30  1  0
 30 31  1  0
 30 32  2  0
 32 33  1  0
 32  2  1  0
 12  7  1  0
 28 13  1  0
 27 18  1  0
M  END
>  <cnnaffinity>  (1) 
-5.0946

>  <filename>  (1) 
c1cncc(-c2nncn2-c2ccc3ccccc3c2)c1

$$$$
