
     RDKit          3D

 48 50  0  0  0  0  0  0  0  0999 V2000
    4.9694    1.8698   16.8458 H   0  0  0  0  0  0  0  0  0  0  0  0
    5.2778    1.3061   17.7226 C   0  0  0  0  0  0  0  0  0  0  0  0
    6.3744    0.5464   17.5773 N   0  0  0  0  0  0  0  0  0  0  0  0
    6.8073   -0.1242   18.6529 C   0  0  0  0  0  0  0  0  0  0  0  0
    7.7211   -0.7063   18.5077 H   0  0  0  0  0  0  0  0  0  0  0  0
    6.1859   -0.0835   19.9194 C   0  0  0  0  0  0  0  0  0  0  0  0
    6.8695   -0.6796   21.1439 C   0  0  1  0  0  0  0  0  0  0  0  0
    6.3008   -0.3876   22.0382 H   0  0  0  0  0  0  0  0  0  0  0  0
    6.8969   -2.2229   21.0834 C   0  0  0  0  0  0  0  0  0  0  0  0
    7.1612   -2.5117   20.0640 H   0  0  0  0  0  0  0  0  0  0  0  0
    5.8777   -2.6021   21.2349 H   0  0  0  0  0  0  0  0  0  0  0  0
    7.8378   -2.8934   22.1011 C   0  0  0  0  0  0  0  0  0  0  0  0
    7.3845   -2.8512   23.1012 H   0  0  0  0  0  0  0  0  0  0  0  0
    7.9452   -3.9574   21.8518 H   0  0  0  0  0  0  0  0  0  0  0  0
    9.2123   -2.2158   22.1927 C   0  0  0  0  0  0  0  0  0  0  0  0
    9.7757   -2.3810   21.2633 H   0  0  0  0  0  0  0  0  0  0  0  0
    9.8024   -2.6725   22.9986 H   0  0  0  0  0  0  0  0  0  0  0  0
    9.0550   -0.7091   22.4480 C   0  0  0  0  0  0  0  0  0  0  0  0
   10.0351   -0.2279   22.5316 H   0  0  0  0  0  0  0  0  0  0  0  0
    8.5306   -0.5245   23.3994 H   0  0  0  0  0  0  0  0  0  0  0  0
    8.2684   -0.0289   21.3318 C   0  0  2  0  0  0  0  0  0  0  0  0
    8.8448   -0.1712   20.3933 H   0  0  0  0  0  0  0  0  0  0  0  0
    8.0787    1.3957   21.6313 N   0  0  0  0  0  0  0  0  0  0  0  0
    7.3227    1.7454   21.0515 H   0  0  0  0  0  0  0  0  0  0  0  0
    9.2541    2.2645   21.5503 C   0  0  0  0  0  0  0  0  0  0  0  0
    9.0295    3.1018   20.8826 H   0  0  0  0  0  0  0  0  0  0  0  0
   10.1304    1.7570   21.1078 H   0  0  0  0  0  0  0  0  0  0  0  0
    9.6654    2.8365   22.9396 C   0  0  0  0  0  0  0  0  0  0  0  0
    9.3126    2.1424   23.7125 H   0  0  0  0  0  0  0  0  0  0  0  0
    9.1185    3.7743   23.1088 H   0  0  0  0  0  0  0  0  0  0  0  0
   11.0890    3.0958   23.1626 N   0  0  0  0  0  0  0  0  0  0  0  0
   11.9083    1.8918   23.2628 C   0  0  0  0  0  0  0  0  0  0  0  0
   11.5446    1.2945   24.1133 H   0  0  0  0  0  0  0  0  0  0  0  0
   11.8238    1.2442   22.3693 H   0  0  0  0  0  0  0  0  0  0  0  0
   13.4164    2.2061   23.4487 C   0  0  0  0  0  0  0  0  0  0  0  0
   13.9818    1.7789   22.6071 H   0  0  0  0  0  0  0  0  0  0  0  0
   13.7546    1.7062   24.3558 H   0  0  0  0  0  0  0  0  0  0  0  0
   13.7403    3.5708   23.6246 O   0  0  0  0  0  0  0  0  0  0  0  0
   13.1024    4.4915   22.7586 C   0  0  0  0  0  0  0  0  0  0  0  0
   13.0188    5.4043   23.3524 H   0  0  0  0  0  0  0  0  0  0  0  0
   13.7499    4.7080   21.8918 H   0  0  0  0  0  0  0  0  0  0  0  0
   11.6950    4.0758   22.2684 C   0  0  0  0  0  0  0  0  0  0  0  0
   11.7801    3.7087   21.2274 H   0  0  0  0  0  0  0  0  0  0  0  0
   11.0669    4.9767   22.2425 H   0  0  0  0  0  0  0  0  0  0  0  0
    5.0107    0.6724   20.0291 C   0  0  0  0  0  0  0  0  0  0  0  0
    4.4907    0.7094   20.9879 H   0  0  0  0  0  0  0  0  0  0  0  0
    4.5607    1.3963   18.9205 C   0  0  0  0  0  0  0  0  0  0  0  0
    3.7016    2.0581   18.9879 H   0  0  0  0  0  0  0  0  0  0  0  0
  1  2  1  0
  2  3  2  0
  3  4  1  0
  4  5  1  0
  4  6  2  0
  6  7  1  0
  7  8  1  1
  7  9  1  0
  9 10  1  0
  9 11  1  0
  9 12  1  0
 12 13  1  0
 12 14  1  0
 12 15  1  0
 15 16  1  0
 15 17  1  0
 15 18  1  0
 18 19  1  0
 18 20  1  0
 18 21  1  0
 21 22  1  6
 21 23  1  0
 23 24  1  0
 23 25  1  0
 25 26  1  0
 25 27  1  0
 25 28  1  0
 28 29  1  0
 28 30  1  0
 28 31  1  0
 31 32  1  0
 32 33  1  0
 32 34  1  0
 32 35  1  0
 35 36  1  0
 35 37  1  0
 35 38  1  0
 38 39  1  0
 39 40  1  0
 39 41  1  0
 39 42  1  0
 42 43  1  0
 42 44  1  0
  6 45  1  0
 45 46  1  0
 45 47  2  0
 47 48  1  0
 47  2  1  0
 21  7  1  0
 42 31  1  0
M  END
>  <cnnaffinity>  (1) 
-4.84229

>  <filename>  (1) 
c1cncc([C@H]2CCCC[C@@H]2NCCN2CCOCC2)c1

$$$$
