
     RDKit          3D

 34 37  0  0  0  0  0  0  0  0999 V2000
    4.9511    1.8475   16.9332 H   0  0  0  0  0  0  0  0  0  0  0  0
    5.3997    1.3290   17.7765 C   0  0  0  0  0  0  0  0  0  0  0  0
    6.5592    0.6972   17.5282 N   0  0  0  0  0  0  0  0  0  0  0  0
    7.1290    0.0592   18.5573 C   0  0  0  0  0  0  0  0  0  0  0  0
    8.0712   -0.4447   18.3428 H   0  0  0  0  0  0  0  0  0  0  0  0
    6.5888   -0.0140   19.8587 C   0  0  0  0  0  0  0  0  0  0  0  0
    7.3041   -0.7465   20.9417 C   0  0  0  0  0  0  0  0  0  0  0  0
    6.6604   -1.5906   21.8692 C   0  0  0  0  0  0  0  0  0  0  0  0
    5.5843   -1.7621   21.8050 H   0  0  0  0  0  0  0  0  0  0  0  0
    7.3064   -2.2573   22.8372 N   0  0  0  0  0  0  0  0  0  0  0  0
    8.6360   -2.1011   22.9341 C   0  0  0  0  0  0  0  0  0  0  0  0
    9.1098   -2.6385   23.7573 H   0  0  0  0  0  0  0  0  0  0  0  0
    9.3914   -1.2890   22.0611 C   0  0  0  0  0  0  0  0  0  0  0  0
   10.8506   -1.1385   22.1422 C   0  0  0  0  0  0  0  0  0  0  0  0
   11.7645   -2.1437   22.2540 C   0  0  0  0  0  0  0  0  0  0  0  0
   11.5735   -3.2060   22.2684 H   0  0  0  0  0  0  0  0  0  0  0  0
   13.0348   -1.6245   22.3270 N   0  0  0  0  0  0  0  0  0  0  0  0
   13.8822   -2.1514   22.4687 H   0  0  0  0  0  0  0  0  0  0  0  0
   12.9568   -0.2575   22.3592 C   0  0  0  0  0  0  0  0  0  0  0  0
   13.9394    0.7032   22.6480 C   0  0  0  0  0  0  0  0  0  0  0  0
   14.9538    0.4014   22.8607 H   0  0  0  0  0  0  0  0  0  0  0  0
   13.5582    2.0385   22.6594 C   0  0  0  0  0  0  0  0  0  0  0  0
   14.2841    2.8085   22.9030 H   0  0  0  0  0  0  0  0  0  0  0  0
   12.2413    2.4176   22.3178 C   0  0  0  0  0  0  0  0  0  0  0  0
   11.9844    3.4690   22.3108 H   0  0  0  0  0  0  0  0  0  0  0  0
   11.2692    1.4618   22.0545 C   0  0  0  0  0  0  0  0  0  0  0  0
   10.2609    1.7637   21.7966 H   0  0  0  0  0  0  0  0  0  0  0  0
   11.6055    0.0968   22.1551 C   0  0  0  0  0  0  0  0  0  0  0  0
    8.6875   -0.6082   21.0647 C   0  0  0  0  0  0  0  0  0  0  0  0
    9.2297    0.0517   20.3901 H   0  0  0  0  0  0  0  0  0  0  0  0
    5.3786    0.6583   20.0892 C   0  0  0  0  0  0  0  0  0  0  0  0
    4.9419    0.6741   21.0891 H   0  0  0  0  0  0  0  0  0  0  0  0
    4.7753    1.3373   19.0279 C   0  0  0  0  0  0  0  0  0  0  0  0
    3.8448    1.8788   19.1616 H   0  0  0  0  0  0  0  0  0  0  0  0
  1  2  1  0
  2  3  2  0
  3  4  1  0
  4  5  1  0
  4  6  2  0
  6  7  1  0
  7  8  2  0
  8  9  1  0
  8 10  1  0
 10 11  2  0
 11 12  1  0
 11 13  1  0
 13 14  1  0
 14 15  2  0
 15 16  1  0
 15 17  1  0
 17 18  1  0
 17 19  1  0
 19 20  2  0
 20 21  1  0
 20 22  1  0
 22 23  1  0
 22 24  2  0
 24 25  1  0
 24 26  1  0
 26 27  1  0
 26 28  2  0
 13 29  2  0
 29 30  1  0
  6 31  1  0
 31 32  1  0
 31 33  2  0
 33 34  1  0
 33  2  1  0
 29  7  1  0
 28 14  1  0
 28 19  1  0
M  END
>  <cnnaffinity>  (1) 
-6.13007

>  <filename>  (1) 
c1cncc(-c2cncc(-c3c[nH]c4ccccc34)c2)c1

$$$$
