
     RDKit          3D

 28 29  0  0  0  0  0  0  0  0999 V2000
    4.8247    2.0594   16.6279 H   0  0  0  0  0  0  0  0  0  0  0  0
    5.1895    1.5350   17.5066 C   0  0  0  0  0  0  0  0  0  0  0  0
    6.3357    0.8552   17.3429 N   0  0  0  0  0  0  0  0  0  0  0  0
    6.8361    0.2236   18.4083 C   0  0  0  0  0  0  0  0  0  0  0  0
    7.7701   -0.3079   18.2681 H   0  0  0  0  0  0  0  0  0  0  0  0
    6.2249    0.2190   19.6790 C   0  0  0  0  0  0  0  0  0  0  0  0
    6.7563   -0.4025   20.8496 N   0  0  0  0  0  0  0  0  0  0  0  0
    7.9566   -0.7362   20.7629 N   0  0  0  0  0  0  0  0  0  0  0  0
    8.4810   -1.3339   22.0007 C   0  0  0  0  0  0  0  0  0  0  0  0
    7.7317   -2.0379   22.4017 H   0  0  0  0  0  0  0  0  0  0  0  0
    8.7675   -0.2549   23.0566 C   0  0  0  0  0  0  0  0  0  0  0  0
    9.4664    0.4810   22.6310 H   0  0  0  0  0  0  0  0  0  0  0  0
    7.8315    0.2692   23.2870 H   0  0  0  0  0  0  0  0  0  0  0  0
    9.3926   -0.9052   24.2964 C   0  0  0  0  0  0  0  0  0  0  0  0
    9.7191   -0.1416   25.0147 H   0  0  0  0  0  0  0  0  0  0  0  0
    8.6499   -1.5286   24.8164 H   0  0  0  0  0  0  0  0  0  0  0  0
   10.5596   -1.7327   23.9771 N   0  0  0  0  0  0  0  0  0  0  0  0
   11.2714   -1.1001   23.6175 H   0  0  0  0  0  0  0  0  0  0  0  0
   10.3504   -2.7471   22.9365 C   0  0  0  0  0  0  0  0  0  0  0  0
   11.3249   -3.2191   22.7380 H   0  0  0  0  0  0  0  0  0  0  0  0
    9.7039   -3.5403   23.3392 H   0  0  0  0  0  0  0  0  0  0  0  0
    9.7417   -2.1457   21.6596 C   0  0  0  0  0  0  0  0  0  0  0  0
   10.4839   -1.4843   21.1971 H   0  0  0  0  0  0  0  0  0  0  0  0
    9.4872   -2.9018   20.9091 H   0  0  0  0  0  0  0  0  0  0  0  0
    5.0139    0.9053   19.8258 C   0  0  0  0  0  0  0  0  0  0  0  0
    4.5321    0.9204   20.8037 H   0  0  0  0  0  0  0  0  0  0  0  0
    4.4901    1.5804   18.7208 C   0  0  0  0  0  0  0  0  0  0  0  0
    3.5724    2.1581   18.7815 H   0  0  0  0  0  0  0  0  0  0  0  0
  1  2  1  0
  2  3  2  0
  3  4  1  0
  4  5  1  0
  4  6  2  0
  6  7  1  0
  7  8  2  3
  8  9  1  0
  9 10  1  0
  9 11  1  0
 11 12  1  0
 11 13  1  0
 11 14  1  0
 14 15  1  0
 14 16  1  0
 14 17  1  0
 17 18  1  0
 17 19  1  0
 19 20  1  0
 19 21  1  0
 19 22  1  0
 22 23  1  0
 22 24  1  0
  6 25  1  0
 25 26  1  0
 25 27  2  0
 27 28  1  0
 27  2  1  0
 22  9  1  0
M  END
>  <cnnaffinity>  (1) 
-4.23443

>  <filename>  (1) 
c1cncc(N=NC2CCNCC2)c1

$$$$
