
     RDKit          3D

 37 39  0  0  0  0  0  0  0  0999 V2000
    4.9200    1.7875   16.9936 H   0  0  0  0  0  0  0  0  0  0  0  0
    5.4004    1.2963   17.8364 C   0  0  0  0  0  0  0  0  0  0  0  0
    6.5583    0.6716   17.5724 N   0  0  0  0  0  0  0  0  0  0  0  0
    7.1694    0.0517   18.5900 C   0  0  0  0  0  0  0  0  0  0  0  0
    8.1119   -0.4402   18.3641 H   0  0  0  0  0  0  0  0  0  0  0  0
    6.6626    0.0167   19.9027 C   0  0  0  0  0  0  0  0  0  0  0  0
    7.3668   -0.6311   20.9660 N   0  0  0  0  0  0  0  0  0  0  0  0
    6.7572   -1.5410   21.7600 N   0  0  0  0  0  0  0  0  0  0  0  0
    7.6270   -1.9370   22.6121 N   0  0  0  0  0  0  0  0  0  0  0  0
    8.8122   -1.3103   22.4328 N   0  0  0  0  0  0  0  0  0  0  0  0
    8.6354   -0.4847   21.4338 C   0  0  0  0  0  0  0  0  0  0  0  0
    9.5986    0.5073   20.9048 C   0  0  0  0  0  0  0  0  0  0  0  0
   10.5545    0.3375   21.4056 H   0  0  0  0  0  0  0  0  0  0  0  0
    9.7146    0.3056   19.8400 H   0  0  0  0  0  0  0  0  0  0  0  0
    9.1175    1.9501   21.0824 C   0  0  0  0  0  0  0  0  0  0  0  0
    8.3548    2.1498   20.3213 H   0  0  0  0  0  0  0  0  0  0  0  0
    9.9543    2.6465   20.8671 H   0  0  0  0  0  0  0  0  0  0  0  0
    8.5483    2.1667   22.4035 N   0  0  0  0  0  0  0  0  0  0  0  0
    9.5874    2.3452   23.4226 C   0  0  0  0  0  0  0  0  0  0  0  0
   10.1901    3.2541   23.2150 H   0  0  0  0  0  0  0  0  0  0  0  0
   10.2809    1.4980   23.3818 H   0  0  0  0  0  0  0  0  0  0  0  0
    8.9833    2.4576   24.8214 C   0  0  0  0  0  0  0  0  0  0  0  0
    9.7812    2.6140   25.5538 H   0  0  0  0  0  0  0  0  0  0  0  0
    8.5099    1.5018   25.0745 H   0  0  0  0  0  0  0  0  0  0  0  0
    7.9524    3.5904   24.8936 C   0  0  0  0  0  0  0  0  0  0  0  0
    8.4633    4.5588   24.7866 H   0  0  0  0  0  0  0  0  0  0  0  0
    7.4604    3.6066   25.8730 H   0  0  0  0  0  0  0  0  0  0  0  0
    6.9241    3.4297   23.7675 C   0  0  0  0  0  0  0  0  0  0  0  0
    6.3136    2.5355   23.9414 H   0  0  0  0  0  0  0  0  0  0  0  0
    6.2407    4.2850   23.7417 H   0  0  0  0  0  0  0  0  0  0  0  0
    7.6046    3.2862   22.4084 C   0  0  0  0  0  0  0  0  0  0  0  0
    6.8476    3.1032   21.6357 H   0  0  0  0  0  0  0  0  0  0  0  0
    8.1080    4.2397   22.1462 H   0  0  0  0  0  0  0  0  0  0  0  0
    5.4434    0.6501   20.1681 C   0  0  0  0  0  0  0  0  0  0  0  0
    5.0274    0.6128   21.1801 H   0  0  0  0  0  0  0  0  0  0  0  0
    4.8132    1.3104   19.1089 C   0  0  0  0  0  0  0  0  0  0  0  0
    3.8806    1.8396   19.2584 H   0  0  0  0  0  0  0  0  0  0  0  0
  1  2  1  0
  2  3  2  0
  3  4  1  0
  4  5  1  0
  4  6  2  0
  6  7  1  0
  7  8  1  0
  8  9  2  0
  9 10  1  0
 10 11  2  0
 11 12  1  0
 12 13  1  0
 12 14  1  0
 12 15  1  0
 15 16  1  0
 15 17  1  0
 15 18  1  0
 18 19  1  0
 19 20  1  0
 19 21  1  0
 19 22  1  0
 22 23  1  0
 22 24  1  0
 22 25  1  0
 25 26  1  0
 25 27  1  0
 25 28  1  0
 28 29  1  0
 28 30  1  0
 28 31  1  0
 31 32  1  0
 31 33  1  0
  6 34  1  0
 34 35  1  0
 34 36  2  0
 36 37  1  0
 36  2  1  0
 11  7  1  0
 31 18  1  0
M  END
>  <cnnaffinity>  (1) 
-4.85731

>  <filename>  (1) 
c1cncc(-n2nnnc2CCN2CCCCC2)c1

$$$$
