
     RDKit          3D

 37 40  0  0  0  0  0  0  0  0999 V2000
    4.9814    1.8007   16.9936 H   0  0  0  0  0  0  0  0  0  0  0  0
    5.4197    1.2785   17.8405 C   0  0  0  0  0  0  0  0  0  0  0  0
    6.5745    0.6381   17.6044 N   0  0  0  0  0  0  0  0  0  0  0  0
    7.1494    0.0185   18.6442 C   0  0  0  0  0  0  0  0  0  0  0  0
    8.0962   -0.4790   18.4275 H   0  0  0  0  0  0  0  0  0  0  0  0
    6.6145   -0.0172   19.9500 C   0  0  0  0  0  0  0  0  0  0  0  0
    7.3303   -0.7284   21.0786 C   0  0  0  0  0  0  0  0  0  0  0  0
    7.0471   -2.1834   21.2933 C   0  0  0  0  0  0  0  0  0  0  0  0
    7.8387   -3.1789   21.0711 N   0  0  0  0  0  0  0  0  0  0  0  0
    7.1595   -4.3359   21.4270 N   0  0  0  0  0  0  0  0  0  0  0  0
    6.0193   -3.9344   21.8952 C   0  0  0  0  0  0  0  0  0  0  0  0
    5.0013   -4.6950   22.4072 N   0  0  0  0  0  0  0  0  0  0  0  0
    4.2682   -4.2170   23.6023 C   0  0  0  0  0  0  0  0  0  0  0  0
    4.0511   -3.1521   23.5230 H   0  0  0  0  0  0  0  0  0  0  0  0
    4.8767   -4.3644   24.5104 H   0  0  0  0  0  0  0  0  0  0  0  0
    2.9614   -5.0032   23.7483 C   0  0  0  0  0  0  0  0  0  0  0  0
    2.3407   -4.8034   22.8572 H   0  0  0  0  0  0  0  0  0  0  0  0
    2.4161   -4.6292   24.6203 H   0  0  0  0  0  0  0  0  0  0  0  0
    3.2554   -6.4257   23.9546 N   0  0  0  0  0  0  0  0  0  0  0  0
    2.3945   -6.9536   24.0825 H   0  0  0  0  0  0  0  0  0  0  0  0
    4.0362   -6.9810   22.8453 C   0  0  0  0  0  0  0  0  0  0  0  0
    4.3889   -7.9655   23.1626 H   0  0  0  0  0  0  0  0  0  0  0  0
    3.4625   -7.1170   21.9120 H   0  0  0  0  0  0  0  0  0  0  0  0
    5.2871   -6.1433   22.5211 C   0  0  0  0  0  0  0  0  0  0  0  0
    6.0578   -6.3036   23.2906 H   0  0  0  0  0  0  0  0  0  0  0  0
    5.7118   -6.5007   21.5801 H   0  0  0  0  0  0  0  0  0  0  0  0
    5.8558   -2.5930   21.8305 O   0  0  0  0  0  0  0  0  0  0  0  0
    8.7672   -0.3385   21.3114 C   0  0  0  0  0  0  0  0  0  0  0  0
    9.4288   -1.1573   21.5874 H   0  0  0  0  0  0  0  0  0  0  0  0
    9.1835    0.4152   20.6463 H   0  0  0  0  0  0  0  0  0  0  0  0
    7.7349    0.0880   22.3055 C   0  0  0  0  0  0  0  0  0  0  0  0
    7.4552    1.1407   22.3281 H   0  0  0  0  0  0  0  0  0  0  0  0
    7.7182   -0.3916   23.2819 H   0  0  0  0  0  0  0  0  0  0  0  0
    5.3962    0.6416   20.1601 C   0  0  0  0  0  0  0  0  0  0  0  0
    4.9500    0.6603   21.1572 H   0  0  0  0  0  0  0  0  0  0  0  0
    4.7891    1.2970   19.0877 C   0  0  0  0  0  0  0  0  0  0  0  0
    3.8606    1.8414   19.2098 H   0  0  0  0  0  0  0  0  0  0  0  0
  1  2  1  0
  2  3  2  0
  3  4  1  0
  4  5  1  0
  4  6  2  0
  6  7  1  0
  7  8  1  0
  8  9  2  0
  9 10  1  0
 10 11  2  0
 11 12  1  0
 12 13  1  0
 13 14  1  0
 13 15  1  0
 13 16  1  0
 16 17  1  0
 16 18  1  0
 16 19  1  0
 19 20  1  0
 19 21  1  0
 21 22  1  0
 21 23  1  0
 21 24  1  0
 24 25  1  0
 24 26  1  0
 11 27  1  0
  7 28  1  0
 28 29  1  0
 28 30  1  0
 28 31  1  0
 31 32  1  0
 31 33  1  0
  6 34  1  0
 34 35  1  0
 34 36  2  0
 36 37  1  0
 36  2  1  0
 31  7  1  0
 27  8  1  0
 24 12  1  0
M  END
>  <cnnaffinity>  (1) 
-4.60248

>  <filename>  (1) 
c1cncc(C2(c3nnc(N4CCNCC4)o3)CC2)c1

$$$$
