
     RDKit          3D

 30 33  0  0  0  0  0  0  0  0999 V2000
    4.8063    1.2970   19.1036 C   0  0  0  0  0  0  0  0  0  0  0  0
    5.4104    1.2883   17.8439 C   0  0  0  0  0  0  0  0  0  0  0  0
    6.5787    0.6674   17.6043 N   0  0  0  0  0  0  0  0  0  0  0  0
    7.1756    0.0361   18.6200 C   0  0  0  0  0  0  0  0  0  0  0  0
    6.6472   -0.0017   19.9230 C   0  0  0  0  0  0  0  0  0  0  0  0
    7.3522   -0.6816   20.9555 N   0  0  0  0  0  0  0  0  0  0  0  0
    7.8263   -1.9184   20.7261 N   0  0  0  0  0  0  0  0  0  0  0  0
    8.3075   -2.3370   21.8881 C   0  0  0  0  0  0  0  0  0  0  0  0
    8.1679   -1.3700   22.8936 C   0  0  0  0  0  0  0  0  0  0  0  0
    7.5554   -0.3085   22.2630 C   0  0  0  0  0  0  0  0  0  0  0  0
    7.2921    1.0445   22.7858 C   0  0  0  0  0  0  0  0  0  0  0  0
    7.5050    2.1844   22.0171 C   0  0  0  0  0  0  0  0  0  0  0  0
    7.2396    3.4063   22.6450 C   0  0  0  0  0  0  0  0  0  0  0  0
    6.8024    3.4541   23.9820 C   0  0  0  0  0  0  0  0  0  0  0  0
    6.6578    4.8402   24.2610 C   0  0  0  0  0  0  0  0  0  0  0  0
    6.9662    5.5726   23.2131 N   0  0  0  0  0  0  0  0  0  0  0  0
    7.3135    4.6927   22.2373 N   0  0  0  0  0  0  0  0  0  0  0  0
    7.5882    4.9979   21.3189 H   0  0  0  0  0  0  0  0  0  0  0  0
    6.3480    5.3139   25.1812 H   0  0  0  0  0  0  0  0  0  0  0  0
    6.6483    2.2314   24.6668 C   0  0  0  0  0  0  0  0  0  0  0  0
    6.8998    1.0716   24.0896 N   0  0  0  0  0  0  0  0  0  0  0  0
    6.3327    2.2046   25.7049 H   0  0  0  0  0  0  0  0  0  0  0  0
    7.8394    2.1050   20.9955 H   0  0  0  0  0  0  0  0  0  0  0  0
    8.4782   -1.3951   23.9308 H   0  0  0  0  0  0  0  0  0  0  0  0
    8.7271   -3.3313   21.9672 H   0  0  0  0  0  0  0  0  0  0  0  0
    5.4198    0.6311   20.1646 C   0  0  0  0  0  0  0  0  0  0  0  0
    4.9948    0.6357   21.1696 H   0  0  0  0  0  0  0  0  0  0  0  0
    8.1219   -0.4449   18.3865 H   0  0  0  0  0  0  0  0  0  0  0  0
    4.9369    1.7822   16.9970 H   0  0  0  0  0  0  0  0  0  0  0  0
    3.8804    1.8352   19.2527 H   0  0  0  0  0  0  0  0  0  0  0  0
  1  2  2  0
  2  3  1  0
  3  4  2  0
  4  5  1  0
  5  6  1  0
  6  7  1  0
  7  8  2  0
  8  9  1  0
  9 10  2  0
 10 11  1  0
 11 12  2  0
 12 13  1  0
 13 14  2  0
 14 15  1  0
 15 16  2  0
 16 17  1  0
 17 18  1  0
 15 19  1  0
 14 20  1  0
 20 21  2  0
 20 22  1  0
 12 23  1  0
  9 24  1  0
  8 25  1  0
  5 26  2  0
 26 27  1  0
  4 28  1  0
  2 29  1  0
  1 30  1  0
 26  1  1  0
 10  6  1  0
 21 11  1  0
 17 13  1  0
M  END
>  <cnnaffinity>  (1) 
-5.18599

>  <filename>  (1) 
c1cncc(-n2nccc2-c2cc3[nH]ncc3cn2)c1

$$$$
