
     RDKit          3D

 31 34  0  0  0  0  0  0  0  0999 V2000
    9.0682   -2.4165   23.8870 H   0  0  0  0  0  0  0  0  0  0  0  0
    8.5988   -1.8915   23.0655 C   0  0  0  0  0  0  0  0  0  0  0  0
    8.8314   -2.3408   21.8189 N   0  0  0  0  0  0  0  0  0  0  0  0
    8.2477   -1.6407   20.8351 C   0  0  0  0  0  0  0  0  0  0  0  0
    8.4991   -1.9106   19.8268 H   0  0  0  0  0  0  0  0  0  0  0  0
    7.3562   -0.5536   21.0699 C   0  0  0  0  0  0  0  0  0  0  0  0
    6.6158    0.1252   19.9797 C   0  0  0  0  0  0  0  0  0  0  0  0
    7.1599    0.1142   18.6871 C   0  0  0  0  0  0  0  0  0  0  0  0
    8.1196   -0.3727   18.5083 H   0  0  0  0  0  0  0  0  0  0  0  0
    6.5787    0.6770   17.6281 N   0  0  0  0  0  0  0  0  0  0  0  0
    5.4047    1.2926   17.8329 C   0  0  0  0  0  0  0  0  0  0  0  0
    4.9745    1.7775   16.9635 H   0  0  0  0  0  0  0  0  0  0  0  0
    4.7584    1.3454   19.0734 C   0  0  0  0  0  0  0  0  0  0  0  0
    3.8032    1.8530   19.1612 H   0  0  0  0  0  0  0  0  0  0  0  0
    5.3777    0.7599   20.1769 C   0  0  0  0  0  0  0  0  0  0  0  0
    4.9237    0.7908   21.1709 H   0  0  0  0  0  0  0  0  0  0  0  0
    7.1469   -0.1114   22.3158 N   0  0  0  0  0  0  0  0  0  0  0  0
    7.8042   -0.7558   23.3043 C   0  0  0  0  0  0  0  0  0  0  0  0
    7.7286   -0.2493   24.6840 C   0  0  0  0  0  0  0  0  0  0  0  0
    8.3505   -0.7411   25.7084 N   0  0  0  0  0  0  0  0  0  0  0  0
    7.9796    0.1010   26.7514 C   0  0  0  0  0  0  0  0  0  0  0  0
    8.3158    0.1069   28.1106 C   0  0  0  0  0  0  0  0  0  0  0  0
    9.0554   -0.6037   28.4766 H   0  0  0  0  0  0  0  0  0  0  0  0
    7.6991    1.0610   28.9288 C   0  0  0  0  0  0  0  0  0  0  0  0
    7.8986    1.0426   30.0006 H   0  0  0  0  0  0  0  0  0  0  0  0
    6.8257    2.0345   28.3866 C   0  0  0  0  0  0  0  0  0  0  0  0
    6.3782    2.7781   29.0442 H   0  0  0  0  0  0  0  0  0  0  0  0
    6.5290    2.0738   27.0173 C   0  0  0  0  0  0  0  0  0  0  0  0
    5.8967    2.8225   26.5465 H   0  0  0  0  0  0  0  0  0  0  0  0
    7.1149    1.0778   26.2460 C   0  0  0  0  0  0  0  0  0  0  0  0
    6.9679    0.8554   24.9160 O   0  0  0  0  0  0  0  0  0  0  0  0
  1  2  1  0
  2  3  2  0
  3  4  1  0
  4  5  1  0
  4  6  2  0
  6  7  1  0
  7  8  2  0
  8  9  1  0
  8 10  1  0
 10 11  2  0
 11 12  1  0
 11 13  1  0
 13 14  1  0
 13 15  2  0
 15 16  1  0
  6 17  1  0
 17 18  2  0
 18 19  1  0
 19 20  2  0
 20 21  1  0
 21 22  2  0
 22 23  1  0
 22 24  1  0
 24 25  1  0
 24 26  2  0
 26 27  1  0
 26 28  1  0
 28 29  1  0
 28 30  2  0
 30 31  1  0
 18  2  1  0
 31 19  1  0
 15  7  1  0
 30 21  1  0
M  END
>  <cnnaffinity>  (1) 
-5.02722

>  <filename>  (1) 
c1cncc(-c2cncc(-c3nc4ccccc4o3)n2)c1

$$$$
