
     RDKit          3D

 33 36  0  0  0  0  0  0  0  0999 V2000
    5.0032    1.8962   16.6372 H   0  0  0  0  0  0  0  0  0  0  0  0
    5.3822    1.4113   17.5340 C   0  0  0  0  0  0  0  0  0  0  0  0
    6.5410    0.7499   17.3991 N   0  0  0  0  0  0  0  0  0  0  0  0
    7.0384    0.1547   18.4867 C   0  0  0  0  0  0  0  0  0  0  0  0
    7.9515   -0.4171   18.3433 H   0  0  0  0  0  0  0  0  0  0  0  0
    6.4377    0.2217   19.7569 C   0  0  0  0  0  0  0  0  0  0  0  0
    7.0794   -0.4333   20.9161 C   0  0  0  0  0  0  0  0  0  0  0  0
    7.7047   -1.5989   20.6589 N   0  0  0  0  0  0  0  0  0  0  0  0
    8.2505   -2.2991   21.6324 N   0  0  0  0  0  0  0  0  0  0  0  0
    8.1740   -1.9074   22.9299 C   0  0  0  0  0  0  0  0  0  0  0  0
    8.9261   -2.7734   23.8682 C   0  0  0  0  0  0  0  0  0  0  0  0
   10.2117   -3.1782   23.4920 C   0  0  0  0  0  0  0  0  0  0  0  0
   10.5873   -2.8962   22.5121 H   0  0  0  0  0  0  0  0  0  0  0  0
   11.0233   -3.9452   24.3408 C   0  0  0  0  0  0  0  0  0  0  0  0
   12.0194   -4.2038   24.0132 H   0  0  0  0  0  0  0  0  0  0  0  0
   10.5744   -4.3575   25.5872 C   0  0  0  0  0  0  0  0  0  0  0  0
   11.2048   -4.9282   26.2620 H   0  0  0  0  0  0  0  0  0  0  0  0
    9.2760   -3.9807   25.9547 C   0  0  0  0  0  0  0  0  0  0  0  0
    8.4212   -3.2083   25.1194 C   0  0  0  0  0  0  0  0  0  0  0  0
    7.1809   -3.0933   25.8346 C   0  0  0  0  0  0  0  0  0  0  0  0
    6.2727   -2.6325   25.4750 H   0  0  0  0  0  0  0  0  0  0  0  0
    7.3311   -3.7428   27.0274 C   0  0  0  0  0  0  0  0  0  0  0  0
    6.6340   -3.8920   27.8371 H   0  0  0  0  0  0  0  0  0  0  0  0
    8.5996   -4.2637   27.1090 N   0  0  0  0  0  0  0  0  0  0  0  0
    8.9903   -4.7799   27.8807 H   0  0  0  0  0  0  0  0  0  0  0  0
    7.5531   -0.6878   23.2660 C   0  0  0  0  0  0  0  0  0  0  0  0
    7.4984   -0.3737   24.3056 H   0  0  0  0  0  0  0  0  0  0  0  0
    7.0424    0.0831   22.2280 C   0  0  0  0  0  0  0  0  0  0  0  0
    6.6369    1.0746   22.3842 H   0  0  0  0  0  0  0  0  0  0  0  0
    5.2115    0.8874   19.8738 C   0  0  0  0  0  0  0  0  0  0  0  0
    4.6749    0.9152   20.8241 H   0  0  0  0  0  0  0  0  0  0  0  0
    4.6738    1.4848   18.7364 C   0  0  0  0  0  0  0  0  0  0  0  0
    3.7293    2.0112   18.7698 H   0  0  0  0  0  0  0  0  0  0  0  0
  1  2  1  0
  2  3  2  0
  3  4  1  0
  4  5  1  0
  4  6  2  0
  6  7  1  0
  7  8  2  0
  8  9  1  0
  9 10  2  0
 10 11  1  0
 11 12  2  0
 12 13  1  0
 12 14  1  0
 14 15  1  0
 14 16  2  0
 16 17  1  0
 16 18  1  0
 18 19  2  0
 19 20  1  0
 20 21  1  0
 20 22  2  0
 22 23  1  0
 22 24  1  0
 24 25  1  0
 10 26  1  0
 26 27  1  0
 26 28  2  0
 28 29  1  0
  6 30  1  0
 30 31  1  0
 30 32  2  0
 32 33  1  0
 32  2  1  0
 28  7  1  0
 19 11  1  0
 24 18  1  0
M  END
>  <cnnaffinity>  (1) 
-5.36419

>  <filename>  (1) 
c1cncc(-c2ccc(-c3cccc4[nH]ccc34)nn2)c1

$$$$
