
     RDKit          3D

 40 42  0  0  0  0  0  0  0  0999 V2000
   10.1102   -2.4723   21.3901 H   0  0  0  0  0  0  0  0  0  0  0  0
    9.1768   -1.9736   21.6584 C   0  0  0  0  0  0  0  0  0  0  0  0
    8.5440   -1.3300   20.6796 N   0  0  0  0  0  0  0  0  0  0  0  0
    7.3962   -0.7250   21.0078 C   0  0  0  0  0  0  0  0  0  0  0  0
    6.6627   -0.0080   19.9480 C   0  0  0  0  0  0  0  0  0  0  0  0
    7.1900    0.0323   18.6485 C   0  0  0  0  0  0  0  0  0  0  0  0
    8.1348   -0.4466   18.4103 H   0  0  0  0  0  0  0  0  0  0  0  0
    6.5887    0.6466   17.6249 N   0  0  0  0  0  0  0  0  0  0  0  0
    5.4270    1.2688   17.8660 C   0  0  0  0  0  0  0  0  0  0  0  0
    4.9596    1.7641   17.0166 H   0  0  0  0  0  0  0  0  0  0  0  0
    4.8189    1.2948   19.1249 C   0  0  0  0  0  0  0  0  0  0  0  0
    3.8863    1.8312   19.2589 H   0  0  0  0  0  0  0  0  0  0  0  0
    5.4398    0.6450   20.1869 C   0  0  0  0  0  0  0  0  0  0  0  0
    4.9960    0.6403   21.1854 H   0  0  0  0  0  0  0  0  0  0  0  0
    6.8521   -0.7281   22.2322 N   0  0  0  0  0  0  0  0  0  0  0  0
    7.4986   -1.3609   23.2055 C   0  0  0  0  0  0  0  0  0  0  0  0
    6.8806   -1.3851   24.5706 C   0  0  0  0  0  0  0  0  0  0  0  0
    6.2901   -0.4734   24.7067 H   0  0  0  0  0  0  0  0  0  0  0  0
    7.6601   -1.4003   25.3414 H   0  0  0  0  0  0  0  0  0  0  0  0
    5.9879   -2.6188   24.7796 C   0  0  0  0  0  0  0  0  0  0  0  0
    6.5670   -3.5390   24.6138 H   0  0  0  0  0  0  0  0  0  0  0  0
    5.1977   -2.6324   24.0188 H   0  0  0  0  0  0  0  0  0  0  0  0
    5.3477   -2.7005   26.0802 N   0  0  0  0  0  0  0  0  0  0  0  0
    4.3703   -1.6404   26.3435 C   0  0  0  0  0  0  0  0  0  0  0  0
    4.8619   -0.6609   26.5185 H   0  0  0  0  0  0  0  0  0  0  0  0
    3.7393   -1.5239   25.4529 H   0  0  0  0  0  0  0  0  0  0  0  0
    3.4858   -1.9699   27.5555 C   0  0  0  0  0  0  0  0  0  0  0  0
    2.8717   -2.8490   27.3191 H   0  0  0  0  0  0  0  0  0  0  0  0
    2.8000   -1.1368   27.7459 H   0  0  0  0  0  0  0  0  0  0  0  0
    4.3368   -2.2902   28.7841 C   0  0  0  0  0  0  0  0  0  0  0  0
    4.9211   -1.4112   29.0813 H   0  0  0  0  0  0  0  0  0  0  0  0
    3.6998   -2.5349   29.6429 H   0  0  0  0  0  0  0  0  0  0  0  0
    5.3053   -3.4100   28.3988 C   0  0  0  0  0  0  0  0  0  0  0  0
    5.8639   -3.7761   29.2648 H   0  0  0  0  0  0  0  0  0  0  0  0
    4.7317   -4.2671   28.0346 H   0  0  0  0  0  0  0  0  0  0  0  0
    6.2107   -2.9600   27.2397 C   0  0  0  0  0  0  0  0  0  0  0  0
    6.9366   -3.7473   26.9892 H   0  0  0  0  0  0  0  0  0  0  0  0
    6.8061   -2.0685   27.5408 H   0  0  0  0  0  0  0  0  0  0  0  0
    8.6957   -2.0279   22.9565 C   0  0  0  0  0  0  0  0  0  0  0  0
    9.2185   -2.5539   23.7400 H   0  0  0  0  0  0  0  0  0  0  0  0
  1  2  1  0
  2  3  2  0
  3  4  1  0
  4  5  1  0
  5  6  2  0
  6  7  1  0
  6  8  1  0
  8  9  2  0
  9 10  1  0
  9 11  1  0
 11 12  1  0
 11 13  2  0
 13 14  1  0
  4 15  2  0
 15 16  1  0
 16 17  1  0
 17 18  1  0
 17 19  1  0
 17 20  1  0
 20 21  1  0
 20 22  1  0
 20 23  1  0
 23 24  1  0
 24 25  1  0
 24 26  1  0
 24 27  1  0
 27 28  1  0
 27 29  1  0
 27 30  1  0
 30 31  1  0
 30 32  1  0
 30 33  1  0
 33 34  1  0
 33 35  1  0
 33 36  1  0
 36 37  1  0
 36 38  1  0
 16 39  2  0
 39 40  1  0
 39  2  1  0
 13  5  1  0
 36 23  1  0
M  END
>  <cnnaffinity>  (1) 
-4.55315

>  <filename>  (1) 
c1cncc(-c2nccc(CCN3CCCCC3)n2)c1

$$$$
