
     RDKit          3D

 40 43  0  0  0  0  0  0  0  0999 V2000
    4.9144    1.8004   16.9762 H   0  0  0  0  0  0  0  0  0  0  0  0
    5.3919    1.3032   17.8189 C   0  0  0  0  0  0  0  0  0  0  0  0
    6.5557    0.6874   17.5604 N   0  0  0  0  0  0  0  0  0  0  0  0
    7.1792    0.0800   18.5834 C   0  0  0  0  0  0  0  0  0  0  0  0
    8.1196   -0.4154   18.3453 H   0  0  0  0  0  0  0  0  0  0  0  0
    6.6743    0.0181   19.9097 C   0  0  0  0  0  0  0  0  0  0  0  0
    7.3302   -0.6528   20.9702 N   0  0  0  0  0  0  0  0  0  0  0  0
    6.6714   -1.7675   21.6571 C   0  0  0  0  0  0  0  0  0  0  0  0
    6.5307   -1.5841   22.7369 H   0  0  0  0  0  0  0  0  0  0  0  0
    5.6837   -1.8769   21.2011 H   0  0  0  0  0  0  0  0  0  0  0  0
    7.4210   -3.1026   21.4658 C   0  0  0  0  0  0  0  0  0  0  0  0
    6.7434   -3.9594   21.5542 H   0  0  0  0  0  0  0  0  0  0  0  0
    7.8041   -3.0678   20.4627 H   0  0  0  0  0  0  0  0  0  0  0  0
    8.5693   -3.2999   22.3454 N   0  0  0  0  0  0  0  0  0  0  0  0
    8.3152   -3.9058   23.5330 C   0  0  0  0  0  0  0  0  0  0  0  0
    7.2245   -4.5550   23.8182 N   0  0  0  0  0  0  0  0  0  0  0  0
    7.4657   -5.0249   25.1058 C   0  0  0  0  0  0  0  0  0  0  0  0
    6.6768   -5.7992   25.9573 C   0  0  0  0  0  0  0  0  0  0  0  0
    5.6958   -6.1311   25.6343 H   0  0  0  0  0  0  0  0  0  0  0  0
    7.1977   -6.1193   27.2131 C   0  0  0  0  0  0  0  0  0  0  0  0
    6.6087   -6.7259   27.8928 H   0  0  0  0  0  0  0  0  0  0  0  0
    8.4748   -5.6772   27.6019 C   0  0  0  0  0  0  0  0  0  0  0  0
    8.8523   -5.9526   28.5801 H   0  0  0  0  0  0  0  0  0  0  0  0
    9.2758   -4.9043   26.7550 C   0  0  0  0  0  0  0  0  0  0  0  0
   10.2647   -4.5674   27.0426 H   0  0  0  0  0  0  0  0  0  0  0  0
    8.7310   -4.6017   25.5189 C   0  0  0  0  0  0  0  0  0  0  0  0
    9.2810   -3.8688   24.4878 O   0  0  0  0  0  0  0  0  0  0  0  0
    9.6999   -2.3873   22.1609 C   0  0  0  0  0  0  0  0  0  0  0  0
   10.5440   -2.7305   22.7702 H   0  0  0  0  0  0  0  0  0  0  0  0
   10.0202   -2.4715   21.1113 H   0  0  0  0  0  0  0  0  0  0  0  0
    9.3470   -0.9282   22.4773 C   0  0  0  0  0  0  0  0  0  0  0  0
   10.2711   -0.3815   22.6954 H   0  0  0  0  0  0  0  0  0  0  0  0
    8.7354   -0.8906   23.3874 H   0  0  0  0  0  0  0  0  0  0  0  0
    8.6490   -0.1663   21.3447 C   0  0  0  0  0  0  0  0  0  0  0  0
    9.3005   -0.1703   20.4511 H   0  0  0  0  0  0  0  0  0  0  0  0
    8.5652    0.9000   21.6179 H   0  0  0  0  0  0  0  0  0  0  0  0
    5.4440    0.6558   20.1417 C   0  0  0  0  0  0  0  0  0  0  0  0
    5.0360    0.6156   21.1515 H   0  0  0  0  0  0  0  0  0  0  0  0
    4.8025    1.3189   19.0894 C   0  0  0  0  0  0  0  0  0  0  0  0
    3.8669    1.8420   19.2453 H   0  0  0  0  0  0  0  0  0  0  0  0
  1  2  1  0
  2  3  2  0
  3  4  1  0
  4  5  1  0
  4  6  2  0
  6  7  1  0
  7  8  1  0
  8  9  1  0
  8 10  1  0
  8 11  1  0
 11 12  1  0
 11 13  1  0
 11 14  1  0
 14 15  1  0
 15 16  2  0
 16 17  1  0
 17 18  2  0
 18 19  1  0
 18 20  1  0
 20 21  1  0
 20 22  2  0
 22 23  1  0
 22 24  1  0
 24 25  1  0
 24 26  2  0
 26 27  1  0
 14 28  1  0
 28 29  1  0
 28 30  1  0
 28 31  1  0
 31 32  1  0
 31 33  1  0
 31 34  1  0
 34 35  1  0
 34 36  1  0
  6 37  1  0
 37 38  1  0
 37 39  2  0
 39 40  1  0
 39  2  1  0
 34  7  1  0
 27 15  1  0
 26 17  1  0
M  END
>  <cnnaffinity>  (1) 
-5.29257

>  <filename>  (1) 
c1cncc(N2CCCN(c3nc4ccccc4o3)CC2)c1

$$$$
