
     RDKit          3D

 30 33  0  0  0  0  0  0  0  0999 V2000
    4.9166    1.7867   16.9937 H   0  0  0  0  0  0  0  0  0  0  0  0
    5.3994    1.2969   17.8359 C   0  0  0  0  0  0  0  0  0  0  0  0
    6.5643    0.6828   17.5691 N   0  0  0  0  0  0  0  0  0  0  0  0
    7.1697    0.0611   18.5835 C   0  0  0  0  0  0  0  0  0  0  0  0
    8.1192   -0.4164   18.3590 H   0  0  0  0  0  0  0  0  0  0  0  0
    6.6627   -0.0005   19.9012 C   0  0  0  0  0  0  0  0  0  0  0  0
    7.3665   -0.7210   20.9811 C   0  0  0  0  0  0  0  0  0  0  0  0
    8.0672   -2.2549   20.8081 S   0  0  0  0  0  0  0  0  0  0  0  0
    8.4950   -2.3846   22.4227 N   0  0  0  0  0  0  0  0  0  0  0  0
    8.1492   -1.3468   23.0732 N   0  0  0  0  0  0  0  0  0  0  0  0
    7.5356   -0.3807   22.3204 C   0  0  0  0  0  0  0  0  0  0  0  0
    7.1723    0.9062   22.9348 C   0  0  0  0  0  0  0  0  0  0  0  0
    6.5892    0.9075   24.2380 C   0  0  0  0  0  0  0  0  0  0  0  0
    6.4484   -0.0422   24.7541 H   0  0  0  0  0  0  0  0  0  0  0  0
    6.2193    2.0976   24.8367 C   0  0  0  0  0  0  0  0  0  0  0  0
    5.7940    2.1173   25.8362 H   0  0  0  0  0  0  0  0  0  0  0  0
    6.4222    3.3109   24.1479 C   0  0  0  0  0  0  0  0  0  0  0  0
    6.1733    4.6887   24.4659 C   0  0  0  0  0  0  0  0  0  0  0  0
    5.7418    5.0381   25.3913 H   0  0  0  0  0  0  0  0  0  0  0  0
    6.5808    5.4388   23.3991 C   0  0  0  0  0  0  0  0  0  0  0  0
    6.5588    6.5156   23.2479 H   0  0  0  0  0  0  0  0  0  0  0  0
    7.0780    4.5902   22.4244 N   0  0  0  0  0  0  0  0  0  0  0  0
    7.4422    4.8560   21.5277 H   0  0  0  0  0  0  0  0  0  0  0  0
    6.9996    3.2902   22.8547 C   0  0  0  0  0  0  0  0  0  0  0  0
    7.3909    2.0989   22.2357 C   0  0  0  0  0  0  0  0  0  0  0  0
    7.8143    2.1068   21.2304 H   0  0  0  0  0  0  0  0  0  0  0  0
    5.4337    0.6378   20.1501 C   0  0  0  0  0  0  0  0  0  0  0  0
    5.0178    0.6286   21.1609 H   0  0  0  0  0  0  0  0  0  0  0  0
    4.8014    1.3053   19.1006 C   0  0  0  0  0  0  0  0  0  0  0  0
    3.8723    1.8421   19.2550 H   0  0  0  0  0  0  0  0  0  0  0  0
  1  2  1  0
  2  3  2  0
  3  4  1  0
  4  5  1  0
  4  6  2  0
  6  7  1  0
  7  8  1  0
  8  9  1  0
  9 10  2  0
 10 11  1  0
 11 12  1  0
 12 13  2  0
 13 14  1  0
 13 15  1  0
 15 16  1  0
 15 17  2  0
 17 18  1  0
 18 19  1  0
 18 20  2  0
 20 21  1  0
 20 22  1  0
 22 23  1  0
 22 24  1  0
 24 25  2  0
 25 26  1  0
  6 27  1  0
 27 28  1  0
 27 29  2  0
 29 30  1  0
 29  2  1  0
 11  7  2  0
 25 12  1  0
 24 17  1  0
M  END
>  <cnnaffinity>  (1) 
-5.1034

>  <filename>  (1) 
c1cncc(-c2snnc2-c2ccc3cc[nH]c3c2)c1

$$$$
