
     RDKit          3D

 33 36  0  0  0  0  0  0  0  0999 V2000
    4.9701    1.8217   16.9622 H   0  0  0  0  0  0  0  0  0  0  0  0
    5.4083    1.2879   17.8033 C   0  0  0  0  0  0  0  0  0  0  0  0
    6.5462    0.6220   17.5577 N   0  0  0  0  0  0  0  0  0  0  0  0
    7.1246   -0.0062   18.5840 C   0  0  0  0  0  0  0  0  0  0  0  0
    8.0378   -0.5522   18.3624 H   0  0  0  0  0  0  0  0  0  0  0  0
    6.6353    0.0319   19.9023 C   0  0  0  0  0  0  0  0  0  0  0  0
    7.4228   -0.5910   20.9593 C   0  0  0  0  0  0  0  0  0  0  0  0
    8.0283   -1.8183   20.7841 N   0  0  0  0  0  0  0  0  0  0  0  0
    8.5569   -2.0675   21.9498 C   0  0  0  0  0  0  0  0  0  0  0  0
    8.4510   -1.0408   22.8274 N   0  0  0  0  0  0  0  0  0  0  0  0
    7.6774   -0.0800   22.2252 C   0  0  0  0  0  0  0  0  0  0  0  0
    7.3185    1.2005   22.9112 C   0  0  0  0  0  0  0  0  0  0  0  0
    8.1574    1.5263   23.5461 H   0  0  0  0  0  0  0  0  0  0  0  0
    7.2107    1.9756   22.1477 H   0  0  0  0  0  0  0  0  0  0  0  0
    6.0527    1.1813   23.7470 C   0  0  0  0  0  0  0  0  0  0  0  0
    5.7694   -0.0006   24.9817 S   0  0  0  0  0  0  0  0  0  0  0  0
    4.2317    0.6731   25.3598 C   0  0  0  0  0  0  0  0  0  0  0  0
    3.5937    0.1964   26.0889 H   0  0  0  0  0  0  0  0  0  0  0  0
    3.9663    1.7772   24.6129 C   0  0  0  0  0  0  0  0  0  0  0  0
    3.0668    2.3741   24.7188 H   0  0  0  0  0  0  0  0  0  0  0  0
    5.0131    2.0640   23.6890 C   0  0  0  0  0  0  0  0  0  0  0  0
    4.9970    2.9044   23.0026 H   0  0  0  0  0  0  0  0  0  0  0  0
    9.1123   -1.1336   24.1144 C   0  0  0  0  0  0  0  0  0  0  0  0
    8.3790   -0.9555   24.9066 H   0  0  0  0  0  0  0  0  0  0  0  0
    9.9060   -0.3802   24.1969 H   0  0  0  0  0  0  0  0  0  0  0  0
    9.7161   -2.5576   24.1988 C   0  0  0  0  0  0  0  0  0  0  0  0
    9.3636   -3.0938   25.0811 H   0  0  0  0  0  0  0  0  0  0  0  0
   10.8047   -2.5147   24.2356 H   0  0  0  0  0  0  0  0  0  0  0  0
    9.2307   -3.4992   22.7052 S   0  0  0  0  0  0  0  0  0  0  0  0
    5.4137    0.6911   20.1350 C   0  0  0  0  0  0  0  0  0  0  0  0
    4.9590    0.6970   21.1265 H   0  0  0  0  0  0  0  0  0  0  0  0
    4.7916    1.3217   19.0587 C   0  0  0  0  0  0  0  0  0  0  0  0
    3.8573    1.8527   19.1812 H   0  0  0  0  0  0  0  0  0  0  0  0
  1  2  1  0
  2  3  2  0
  3  4  1  0
  4  5  1  0
  4  6  2  0
  6  7  1  0
  7  8  1  0
  8  9  2  0
  9 10  1  0
 10 11  1  0
 11 12  1  0
 12 13  1  0
 12 14  1  0
 12 15  1  0
 15 16  1  0
 16 17  1  0
 17 18  1  0
 17 19  2  0
 19 20  1  0
 19 21  1  0
 21 22  1  0
 10 23  1  0
 23 24  1  0
 23 25  1  0
 23 26  1  0
 26 27  1  0
 26 28  1  0
 26 29  1  0
  6 30  1  0
 30 31  1  0
 30 32  2  0
 32 33  1  0
 32  2  1  0
 11  7  2  0
 21 15  2  0
 29  9  1  0
M  END
>  <cnnaffinity>  (1) 
-5.40265

>  <filename>  (1) 
c1cncc(-c2nc3n(c2Cc2cccs2)CCS3)c1

$$$$
