
     RDKit          3D

 42 46  0  0  0  0  0  0  0  0999 V2000
    4.9646    1.7936   17.0135 H   0  0  0  0  0  0  0  0  0  0  0  0
    5.3945    1.3101   17.8839 C   0  0  0  0  0  0  0  0  0  0  0  0
    6.5683    0.6980   17.6761 N   0  0  0  0  0  0  0  0  0  0  0  0
    7.1285    0.1081   18.7335 C   0  0  0  0  0  0  0  0  0  0  0  0
    8.0632   -0.4101   18.5128 H   0  0  0  0  0  0  0  0  0  0  0  0
    6.5870    0.0763   20.0416 C   0  0  0  0  0  0  0  0  0  0  0  0
    7.4505   -0.5435   21.1719 C   0  0  2  0  0  0  0  0  0  0  0  0
    8.3821    0.5422   21.6946 C   0  0  0  0  0  0  0  0  0  0  0  0
    8.1447    1.8820   21.8950 C   0  0  0  0  0  0  0  0  0  0  0  0
    7.2226    2.4055   21.6812 H   0  0  0  0  0  0  0  0  0  0  0  0
    9.3374    2.4927   22.3879 C   0  0  0  0  0  0  0  0  0  0  0  0
    9.6711    3.8008   22.8057 C   0  0  0  0  0  0  0  0  0  0  0  0
    8.9140    4.5779   22.7701 H   0  0  0  0  0  0  0  0  0  0  0  0
   10.9620    4.0622   23.2473 C   0  0  0  0  0  0  0  0  0  0  0  0
   11.2249    5.0618   23.5857 H   0  0  0  0  0  0  0  0  0  0  0  0
   11.9450    3.0384   23.2575 C   0  0  0  0  0  0  0  0  0  0  0  0
   12.9546    3.2688   23.5890 H   0  0  0  0  0  0  0  0  0  0  0  0
   11.6420    1.7429   22.8439 C   0  0  0  0  0  0  0  0  0  0  0  0
   12.3961    0.9617   22.8321 H   0  0  0  0  0  0  0  0  0  0  0  0
   10.3226    1.4819   22.4363 C   0  0  0  0  0  0  0  0  0  0  0  0
    9.7202    0.3155   22.0281 N   0  0  0  0  0  0  0  0  0  0  0  0
   10.2156   -0.5420   21.8833 H   0  0  0  0  0  0  0  0  0  0  0  0
    8.2374   -1.7932   20.6201 C   0  0  0  0  0  0  0  0  0  0  0  0
    7.6722   -2.0376   19.7286 H   0  0  0  0  0  0  0  0  0  0  0  0
    9.2692   -1.5760   20.3328 H   0  0  0  0  0  0  0  0  0  0  0  0
    8.0736   -2.9400   21.6337 C   0  0  2  0  0  0  0  0  0  0  0  0
    8.9124   -3.6401   21.6572 H   0  0  0  0  0  0  0  0  0  0  0  0
    6.7050   -3.5978   21.3671 C   0  0  0  0  0  0  0  0  0  0  0  0
    6.5706   -3.9613   20.3385 H   0  0  0  0  0  0  0  0  0  0  0  0
    6.5558   -4.4617   22.0275 H   0  0  0  0  0  0  0  0  0  0  0  0
    5.7433   -2.4219   21.7133 C   0  0  0  0  0  0  0  0  0  0  0  0
    4.9716   -2.7538   22.4118 H   0  0  0  0  0  0  0  0  0  0  0  0
    5.2621   -2.0588   20.8054 H   0  0  0  0  0  0  0  0  0  0  0  0
    6.6696   -1.3155   22.3160 C   0  0  1  0  0  0  0  0  0  0  0  0
    6.1826   -0.6317   23.0194 H   0  0  0  0  0  0  0  0  0  0  0  0
    7.7716   -2.1938   22.9372 C   0  0  0  0  0  0  0  0  0  0  0  0
    8.6190   -1.6291   23.3372 H   0  0  0  0  0  0  0  0  0  0  0  0
    7.3994   -2.8538   23.7308 H   0  0  0  0  0  0  0  0  0  0  0  0
    5.3451    0.7039   20.2215 C   0  0  0  0  0  0  0  0  0  0  0  0
    4.8384    0.6935   21.1910 H   0  0  0  0  0  0  0  0  0  0  0  0
    4.7419    1.3322   19.1199 C   0  0  0  0  0  0  0  0  0  0  0  0
    3.7927    1.8499   19.2053 H   0  0  0  0  0  0  0  0  0  0  0  0
  1  2  1  0
  2  3  2  0
  3  4  1  0
  4  5  1  0
  4  6  2  0
  7  6  1  6
  7  8  1  0
  8  9  2  0
  9 10  1  0
  9 11  1  0
 11 12  2  0
 12 13  1  0
 12 14  1  0
 14 15  1  0
 14 16  2  0
 16 17  1  0
 16 18  1  0
 18 19  1  0
 18 20  2  0
 20 21  1  0
 21 22  1  0
  7 23  1  0
 23 24  1  0
 23 25  1  0
 23 26  1  0
 26 27  1  1
 26 28  1  0
 28 29  1  0
 28 30  1  0
 28 31  1  0
 31 32  1  0
 31 33  1  0
 31 34  1  0
 34 35  1  1
 34 36  1  0
 36 37  1  0
 36 38  1  0
  6 39  1  0
 39 40  1  0
 39 41  2  0
 41 42  1  0
 41  2  1  0
 34  7  1  0
 21  8  1  0
 36 26  1  0
 20 11  1  0
M  END
>  <cnnaffinity>  (1) 
-5.49745

>  <filename>  (1) 
c1cncc([C@]2(c3cc4ccccc4[nH]3)C[C@@H]3CC[C@H]2C3)c1

$$$$
