
     RDKit          3D

 40 43  0  0  0  0  0  0  0  0999 V2000
    4.7924    1.3153   19.0788 C   0  0  0  0  0  0  0  0  0  0  0  0
    5.3901    1.3073   17.8134 C   0  0  0  0  0  0  0  0  0  0  0  0
    6.5482    0.6860   17.5570 N   0  0  0  0  0  0  0  0  0  0  0  0
    7.1499    0.0527   18.5747 C   0  0  0  0  0  0  0  0  0  0  0  0
    6.6367   -0.0278   19.8870 C   0  0  0  0  0  0  0  0  0  0  0  0
    7.3698   -0.7171   21.0275 C   0  0  0  0  0  0  0  0  0  0  0  0
    8.0955    0.2827   21.9656 C   0  0  0  0  0  0  0  0  0  0  0  0
    9.2639    0.9865   21.2470 C   0  0  0  0  0  0  0  0  0  0  0  0
   10.4392    1.0010   22.2348 C   0  0  0  0  0  0  0  0  0  0  0  0
   10.1676   -0.1523   23.2119 C   0  0  0  0  0  0  0  0  0  0  0  0
    8.7220   -0.3561   23.1304 N   0  0  0  0  0  0  0  0  0  0  0  0
    8.0494   -1.0743   24.0933 C   0  0  0  0  0  0  0  0  0  0  0  0
    6.5936   -0.9194   24.3024 C   0  0  0  0  0  0  0  0  0  0  0  0
    5.9112   -1.5624   25.2248 N   0  0  0  0  0  0  0  0  0  0  0  0
    6.6354   -2.4446   26.0026 C   0  0  0  0  0  0  0  0  0  0  0  0
    5.9601   -3.1850   27.0062 C   0  0  0  0  0  0  0  0  0  0  0  0
    6.6615   -4.0838   27.7812 C   0  0  0  0  0  0  0  0  0  0  0  0
    8.0575   -4.2481   27.5974 C   0  0  0  0  0  0  0  0  0  0  0  0
    8.7411   -3.5286   26.6341 C   0  0  0  0  0  0  0  0  0  0  0  0
    8.0517   -2.6075   25.8080 C   0  0  0  0  0  0  0  0  0  0  0  0
    8.7577   -1.8916   24.8605 N   0  0  0  0  0  0  0  0  0  0  0  0
    9.8089   -3.6302   26.4729 H   0  0  0  0  0  0  0  0  0  0  0  0
    8.5980   -4.9354   28.2386 H   0  0  0  0  0  0  0  0  0  0  0  0
    6.1625   -4.6320   28.5787 H   0  0  0  0  0  0  0  0  0  0  0  0
    4.9008   -2.9868   27.1271 H   0  0  0  0  0  0  0  0  0  0  0  0
    6.0401   -0.2263   23.6778 H   0  0  0  0  0  0  0  0  0  0  0  0
   10.6981   -1.0771   22.9429 H   0  0  0  0  0  0  0  0  0  0  0  0
   10.4730    0.0840   24.2407 H   0  0  0  0  0  0  0  0  0  0  0  0
   11.4022    0.8823   21.7289 H   0  0  0  0  0  0  0  0  0  0  0  0
   10.4799    1.9562   22.7716 H   0  0  0  0  0  0  0  0  0  0  0  0
    8.9753    1.9891   20.9179 H   0  0  0  0  0  0  0  0  0  0  0  0
    9.5184    0.4348   20.3316 H   0  0  0  0  0  0  0  0  0  0  0  0
    7.3611    1.0288   22.3104 H   0  0  0  0  0  0  0  0  0  0  0  0
    8.1226   -1.4197   20.6488 H   0  0  0  0  0  0  0  0  0  0  0  0
    6.6698   -1.3102   21.6260 H   0  0  0  0  0  0  0  0  0  0  0  0
    5.4290    0.6434   20.1264 C   0  0  0  0  0  0  0  0  0  0  0  0
    5.0067    0.6452   21.1345 H   0  0  0  0  0  0  0  0  0  0  0  0
    8.1026   -0.4159   18.3282 H   0  0  0  0  0  0  0  0  0  0  0  0
    4.9217    1.8174   16.9710 H   0  0  0  0  0  0  0  0  0  0  0  0
    3.8637    1.8546   19.2296 H   0  0  0  0  0  0  0  0  0  0  0  0
  1  2  2  0
  2  3  1  0
  3  4  2  0
  4  5  1  0
  5  6  1  0
  6  7  1  0
  7  8  1  0
  8  9  1  0
  9 10  1  0
 10 11  1  0
 11 12  1  0
 12 13  2  0
 13 14  1  0
 14 15  2  0
 15 16  1  0
 16 17  2  0
 17 18  1  0
 18 19  2  0
 19 20  1  0
 20 21  2  0
 19 22  1  0
 18 23  1  0
 17 24  1  0
 16 25  1  0
 13 26  1  0
 10 27  1  0
 10 28  1  0
  9 29  1  0
  9 30  1  0
  8 31  1  0
  8 32  1  0
  7 33  1  0
  6 34  1  0
  6 35  1  0
  5 36  2  0
 36 37  1  0
  4 38  1  0
  2 39  1  0
  1 40  1  0
 36  1  1  0
 11  7  1  0
 21 12  1  0
 20 15  1  0
M  END
>  <cnnaffinity>  (1) 
-5.55786

>  <filename>  (1) 
c1cncc(CC2CCCN2c2cnc3ccccc3n2)c1

$$$$
