
     RDKit          3D

 30 32  0  0  0  0  0  0  0  0999 V2000
    8.1860   -3.8236   21.5876 H   0  0  0  0  0  0  0  0  0  0  0  0
    8.0849   -2.7556   21.7335 C   0  0  0  0  0  0  0  0  0  0  0  0
    8.5487   -2.2647   22.8798 N   0  0  0  0  0  0  0  0  0  0  0  0
    8.4255   -0.9448   23.0302 C   0  0  0  0  0  0  0  0  0  0  0  0
    8.8151   -0.5476   23.9682 H   0  0  0  0  0  0  0  0  0  0  0  0
    7.8616   -0.0973   22.0789 C   0  0  0  0  0  0  0  0  0  0  0  0
    7.8190    1.4053   22.3092 C   0  0  2  0  0  0  0  0  0  0  0  0
    7.4161    1.9135   21.4239 H   0  0  0  0  0  0  0  0  0  0  0  0
    9.1870    2.0566   22.5977 C   0  0  0  0  0  0  0  0  0  0  0  0
    9.6574    2.4261   21.6756 H   0  0  0  0  0  0  0  0  0  0  0  0
    9.8886    1.3512   23.0662 H   0  0  0  0  0  0  0  0  0  0  0  0
    8.9541    3.1388   23.4780 O   0  0  0  0  0  0  0  0  0  0  0  0
    7.6145    3.1497   23.9487 C   0  0  0  0  0  0  0  0  0  0  0  0
    7.0893    4.0146   23.5172 H   0  0  0  0  0  0  0  0  0  0  0  0
    7.6308    3.2652   25.0401 H   0  0  0  0  0  0  0  0  0  0  0  0
    6.9751    1.8325   23.5166 C   0  0  0  0  0  0  0  0  0  0  0  0
    5.9167    1.9550   23.2622 H   0  0  0  0  0  0  0  0  0  0  0  0
    7.0351    1.0873   24.3157 H   0  0  0  0  0  0  0  0  0  0  0  0
    7.3680   -0.7619   20.9426 C   0  0  0  0  0  0  0  0  0  0  0  0
    6.6428   -0.0153   19.9032 C   0  0  0  0  0  0  0  0  0  0  0  0
    7.1703    0.0373   18.6138 C   0  0  0  0  0  0  0  0  0  0  0  0
    8.1208   -0.4398   18.3772 H   0  0  0  0  0  0  0  0  0  0  0  0
    6.5763    0.6729   17.5979 N   0  0  0  0  0  0  0  0  0  0  0  0
    5.4090    1.2871   17.8485 C   0  0  0  0  0  0  0  0  0  0  0  0
    4.9238    1.7751   17.0038 H   0  0  0  0  0  0  0  0  0  0  0  0
    4.8060    1.3059   19.1107 C   0  0  0  0  0  0  0  0  0  0  0  0
    3.8761    1.8425   19.2608 H   0  0  0  0  0  0  0  0  0  0  0  0
    5.4381    0.6456   20.1635 C   0  0  0  0  0  0  0  0  0  0  0  0
    4.9989    0.6368   21.1660 H   0  0  0  0  0  0  0  0  0  0  0  0
    7.5170   -2.0733   20.7451 N   0  0  0  0  0  0  0  0  0  0  0  0
  1  2  1  0
  2  3  2  0
  3  4  1  0
  4  5  1  0
  4  6  2  0
  6  7  1  0
  7  8  1  6
  7  9  1  0
  9 10  1  0
  9 11  1  0
  9 12  1  0
 12 13  1  0
 13 14  1  0
 13 15  1  0
 13 16  1  0
 16 17  1  0
 16 18  1  0
  6 19  1  0
 19 20  1  0
 20 21  2  0
 21 22  1  0
 21 23  1  0
 23 24  2  0
 24 25  1  0
 24 26  1  0
 26 27  1  0
 26 28  2  0
 28 29  1  0
 19 30  2  0
 30  2  1  0
 16  7  1  0
 28 20  1  0
M  END
>  <cnnaffinity>  (1) 
-4.74877

>  <filename>  (1) 
c1cncc(-c2ncncc2[C@H]2CCOC2)c1

$$$$
