
     RDKit          3D

 36 38  0  0  0  0  0  0  0  0999 V2000
    4.9123    1.7823   16.9953 H   0  0  0  0  0  0  0  0  0  0  0  0
    5.4021    1.2994   17.8364 C   0  0  0  0  0  0  0  0  0  0  0  0
    6.5675    0.6879   17.5724 N   0  0  0  0  0  0  0  0  0  0  0  0
    7.1671    0.0633   18.5945 C   0  0  0  0  0  0  0  0  0  0  0  0
    8.1137   -0.4279   18.3668 H   0  0  0  0  0  0  0  0  0  0  0  0
    6.6631    0.0044   19.9046 C   0  0  0  0  0  0  0  0  0  0  0  0
    7.3929   -0.7339   20.9956 C   0  0  0  0  0  0  0  0  0  0  0  0
    6.6508   -1.1867   21.6672 H   0  0  0  0  0  0  0  0  0  0  0  0
    7.9458   -1.5753   20.5524 H   0  0  0  0  0  0  0  0  0  0  0  0
    8.3860    0.1056   21.8569 C   0  0  1  0  0  0  0  0  0  0  0  0
    9.1374   -0.8433   22.8279 C   0  0  0  0  0  0  0  0  0  0  0  0
    9.7281   -1.5615   22.2495 H   0  0  0  0  0  0  0  0  0  0  0  0
    9.8490   -0.2417   23.4074 H   0  0  0  0  0  0  0  0  0  0  0  0
    8.2492   -1.5674   23.7839 C   0  0  0  0  0  0  0  0  0  0  0  0
    7.7432   -2.8216   23.5340 N   0  0  0  0  0  0  0  0  0  0  0  0
    6.9797   -3.1095   24.5569 C   0  0  0  0  0  0  0  0  0  0  0  0
    6.4345   -4.0371   24.6945 H   0  0  0  0  0  0  0  0  0  0  0  0
    6.9604   -2.0957   25.4620 N   0  0  0  0  0  0  0  0  0  0  0  0
    6.4511   -2.0945   26.3251 H   0  0  0  0  0  0  0  0  0  0  0  0
    7.7688   -1.0949   24.9736 C   0  0  0  0  0  0  0  0  0  0  0  0
    7.9477   -0.1507   25.4706 H   0  0  0  0  0  0  0  0  0  0  0  0
    9.3924    0.8899   20.9819 C   0  0  0  0  0  0  0  0  0  0  0  0
   10.3550    0.9966   21.5079 H   0  0  0  0  0  0  0  0  0  0  0  0
    9.6123    0.3740   20.0403 H   0  0  0  0  0  0  0  0  0  0  0  0
    8.8274    2.2107   20.7307 N   0  0  0  0  0  0  0  0  0  0  0  0
    8.4168    2.2754   19.8058 H   0  0  0  0  0  0  0  0  0  0  0  0
    7.8203    2.5197   21.7382 C   0  0  0  0  0  0  0  0  0  0  0  0
    8.1317    3.3829   22.3467 H   0  0  0  0  0  0  0  0  0  0  0  0
    6.8712    2.7917   21.2552 H   0  0  0  0  0  0  0  0  0  0  0  0
    7.6758    1.2576   22.6099 C   0  0  0  0  0  0  0  0  0  0  0  0
    8.1615    1.4325   23.5749 H   0  0  0  0  0  0  0  0  0  0  0  0
    6.6277    1.0386   22.8297 H   0  0  0  0  0  0  0  0  0  0  0  0
    5.4444    0.6524   20.1527 C   0  0  0  0  0  0  0  0  0  0  0  0
    5.0038    0.6322   21.1557 H   0  0  0  0  0  0  0  0  0  0  0  0
    4.8064    1.3167   19.1028 C   0  0  0  0  0  0  0  0  0  0  0  0
    3.8707    1.8452   19.2582 H   0  0  0  0  0  0  0  0  0  0  0  0
  1  2  1  0
  2  3  2  0
  3  4  1  0
  4  5  1  0
  4  6  2  0
  6  7  1  0
  7  8  1  0
  7  9  1  0
 10  7  1  6
 10 11  1  0
 11 12  1  0
 11 13  1  0
 11 14  1  0
 14 15  1  0
 15 16  2  0
 16 17  1  0
 16 18  1  0
 18 19  1  0
 18 20  1  0
 20 21  1  0
 10 22  1  0
 22 23  1  0
 22 24  1  0
 22 25  1  0
 25 26  1  0
 25 27  1  0
 27 28  1  0
 27 29  1  0
 27 30  1  0
 30 31  1  0
 30 32  1  0
  6 33  1  0
 33 34  1  0
 33 35  2  0
 35 36  1  0
 35  2  1  0
 30 10  1  0
 20 14  2  0
M  END
>  <cnnaffinity>  (1) 
-5.25078

>  <filename>  (1) 
c1cncc(C[C@]2(Cc3c[nH]cn3)CCNC2)c1

$$$$
