
     RDKit          3D

 33 37  0  0  0  0  0  0  0  0999 V2000
    4.9209    1.7717   17.0045 H   0  0  0  0  0  0  0  0  0  0  0  0
    5.4089    1.2860   17.8474 C   0  0  0  0  0  0  0  0  0  0  0  0
    6.5744    0.6696   17.5952 N   0  0  0  0  0  0  0  0  0  0  0  0
    7.1821    0.0539   18.6141 C   0  0  0  0  0  0  0  0  0  0  0  0
    8.1274   -0.4335   18.3840 H   0  0  0  0  0  0  0  0  0  0  0  0
    6.6486    0.0148   19.9099 C   0  0  0  0  0  0  0  0  0  0  0  0
    7.3627   -0.6896   20.9674 C   0  0  0  0  0  0  0  0  0  0  0  0
    8.5475   -1.3275   20.7581 N   0  0  0  0  0  0  0  0  0  0  0  0
    8.7964   -1.8156   21.9572 C   0  0  0  0  0  0  0  0  0  0  0  0
    9.9870   -2.8208   22.7258 S   0  0  0  0  0  0  0  0  0  0  0  0
    9.0714   -2.7652   24.2039 C   0  0  0  0  0  0  0  0  0  0  0  0
    9.4564   -3.2915   25.0690 H   0  0  0  0  0  0  0  0  0  0  0  0
    7.9487   -2.0170   24.1282 C   0  0  0  0  0  0  0  0  0  0  0  0
    6.9594   -1.7663   25.2082 C   0  0  0  0  0  0  0  0  0  0  0  0
    6.2297   -0.5643   25.2892 C   0  0  0  0  0  0  0  0  0  0  0  0
    6.3798    0.2038   24.5334 H   0  0  0  0  0  0  0  0  0  0  0  0
    5.3008   -0.3452   26.3252 C   0  0  0  0  0  0  0  0  0  0  0  0
    4.7343    0.5755   26.3833 H   0  0  0  0  0  0  0  0  0  0  0  0
    5.1328   -1.3448   27.2655 C   0  0  0  0  0  0  0  0  0  0  0  0
    5.8552   -2.5369   27.2011 C   0  0  0  0  0  0  0  0  0  0  0  0
    6.7684   -2.7720   26.1980 C   0  0  0  0  0  0  0  0  0  0  0  0
    7.3097   -3.7117   26.1629 H   0  0  0  0  0  0  0  0  0  0  0  0
    5.5013   -3.3496   28.2416 O   0  0  0  0  0  0  0  0  0  0  0  0
    4.5261   -2.6259   28.9903 C   0  0  0  0  0  0  0  0  0  0  0  0
    4.8825   -2.4640   30.0130 H   0  0  0  0  0  0  0  0  0  0  0  0
    3.5921   -3.1948   29.0178 H   0  0  0  0  0  0  0  0  0  0  0  0
    4.3046   -1.3690   28.3513 O   0  0  0  0  0  0  0  0  0  0  0  0
    7.8303   -1.4802   22.8364 N   0  0  0  0  0  0  0  0  0  0  0  0
    6.8800   -0.7506   22.2044 N   0  0  0  0  0  0  0  0  0  0  0  0
    5.4290    0.6576   20.1666 C   0  0  0  0  0  0  0  0  0  0  0  0
    5.0014    0.6324   21.1730 H   0  0  0  0  0  0  0  0  0  0  0  0
    4.8045    1.3103   19.1104 C   0  0  0  0  0  0  0  0  0  0  0  0
    3.8737    1.8436   19.2616 H   0  0  0  0  0  0  0  0  0  0  0  0
  1  2  1  0
  2  3  2  0
  3  4  1  0
  4  5  1  0
  4  6  2  0
  6  7  1  0
  7  8  1  0
  8  9  2  0
  9 10  1  0
 10 11  1  0
 11 12  1  0
 11 13  2  0
 13 14  1  0
 14 15  2  0
 15 16  1  0
 15 17  1  0
 17 18  1  0
 17 19  2  0
 19 20  1  0
 20 21  2  0
 21 22  1  0
 20 23  1  0
 23 24  1  0
 24 25  1  0
 24 26  1  0
 24 27  1  0
 13 28  1  0
 28 29  1  0
  6 30  1  0
 30 31  1  0
 30 32  2  0
 32 33  1  0
 32  2  1  0
 29  7  2  0
 28  9  1  0
 21 14  1  0
 27 19  1  0
M  END
>  <cnnaffinity>  (1) 
-5.62388

>  <filename>  (1) 
c1cncc(-c2nc3scc(-c4ccc5c(c4)OCO5)n3n2)c1

$$$$
