
     RDKit          3D

 34 36  0  0  0  0  0  0  0  0999 V2000
    4.9420    1.8085   16.9661 H   0  0  0  0  0  0  0  0  0  0  0  0
    5.4006    1.2931   17.8065 C   0  0  0  0  0  0  0  0  0  0  0  0
    6.5617    0.6686   17.5574 N   0  0  0  0  0  0  0  0  0  0  0  0
    7.1746    0.0570   18.5838 C   0  0  0  0  0  0  0  0  0  0  0  0
    8.1253   -0.4259   18.3567 H   0  0  0  0  0  0  0  0  0  0  0  0
    6.6609    0.0050   19.9088 C   0  0  0  0  0  0  0  0  0  0  0  0
    7.3169   -0.5918   21.0178 N   0  0  0  0  0  0  0  0  0  0  0  0
    8.7770   -0.5214   21.1192 C   0  0  0  0  0  0  0  0  0  0  0  0
    9.1028    0.4679   20.7752 H   0  0  0  0  0  0  0  0  0  0  0  0
    9.2867   -1.2775   20.4938 H   0  0  0  0  0  0  0  0  0  0  0  0
    9.1964   -0.6864   22.5867 C   0  0  0  0  0  0  0  0  0  0  0  0
   10.2821   -0.7715   22.6822 H   0  0  0  0  0  0  0  0  0  0  0  0
    8.8718    0.1987   23.1563 H   0  0  0  0  0  0  0  0  0  0  0  0
    8.6497   -1.8600   23.1686 O   0  0  0  0  0  0  0  0  0  0  0  0
    7.2296   -1.8388   23.1254 C   0  0  0  0  0  0  0  0  0  0  0  0
    6.8301   -1.0002   23.7162 H   0  0  0  0  0  0  0  0  0  0  0  0
    6.8929   -2.7709   23.5873 H   0  0  0  0  0  0  0  0  0  0  0  0
    6.7096   -1.7606   21.6814 C   0  0  2  0  0  0  0  0  0  0  0  0
    5.6268   -1.6078   21.7178 H   0  0  0  0  0  0  0  0  0  0  0  0
    6.9768   -3.0838   20.9369 C   0  0  0  0  0  0  0  0  0  0  0  0
    8.0548   -3.2651   20.8870 H   0  0  0  0  0  0  0  0  0  0  0  0
    6.5763   -2.9793   19.9234 H   0  0  0  0  0  0  0  0  0  0  0  0
    6.2643   -4.2343   21.5636 C   0  0  0  0  0  0  0  0  0  0  0  0
    4.8947   -4.2516   21.5003 N   0  0  0  0  0  0  0  0  0  0  0  0
    4.5178   -5.3864   22.0247 C   0  0  0  0  0  0  0  0  0  0  0  0
    3.4984   -5.7557   22.0700 H   0  0  0  0  0  0  0  0  0  0  0  0
    5.5872   -6.1026   22.4564 N   0  0  0  0  0  0  0  0  0  0  0  0
    5.5397   -7.0164   22.8778 H   0  0  0  0  0  0  0  0  0  0  0  0
    6.7222   -5.3681   22.1799 C   0  0  0  0  0  0  0  0  0  0  0  0
    7.7173   -5.6900   22.4686 H   0  0  0  0  0  0  0  0  0  0  0  0
    5.4238    0.6419   20.1235 C   0  0  0  0  0  0  0  0  0  0  0  0
    5.0124    0.6282   21.1334 H   0  0  0  0  0  0  0  0  0  0  0  0
    4.7937    1.3049   19.0676 C   0  0  0  0  0  0  0  0  0  0  0  0
    3.8556    1.8330   19.2128 H   0  0  0  0  0  0  0  0  0  0  0  0
  1  2  1  0
  2  3  2  0
  3  4  1  0
  4  5  1  0
  4  6  2  0
  6  7  1  0
  7  8  1  0
  8  9  1  0
  8 10  1  0
  8 11  1  0
 11 12  1  0
 11 13  1  0
 11 14  1  0
 14 15  1  0
 15 16  1  0
 15 17  1  0
 15 18  1  0
 18 19  1  1
 18 20  1  0
 20 21  1  0
 20 22  1  0
 20 23  1  0
 23 24  1  0
 24 25  2  0
 25 26  1  0
 25 27  1  0
 27 28  1  0
 27 29  1  0
 29 30  1  0
  6 31  1  0
 31 32  1  0
 31 33  2  0
 33 34  1  0
 33  2  1  0
 18  7  1  0
 29 23  2  0
M  END
>  <cnnaffinity>  (1) 
-4.90604

>  <filename>  (1) 
c1cncc(N2CCOC[C@@H]2Cc2c[nH]cn2)c1

$$$$
