
     RDKit          3D

 33 35  0  0  0  0  0  0  0  0999 V2000
    4.9284    1.7861   16.9911 H   0  0  0  0  0  0  0  0  0  0  0  0
    5.4026    1.2904   17.8345 C   0  0  0  0  0  0  0  0  0  0  0  0
    6.5684    0.6716   17.5836 N   0  0  0  0  0  0  0  0  0  0  0  0
    7.1779    0.0494   18.5966 C   0  0  0  0  0  0  0  0  0  0  0  0
    8.1249   -0.4359   18.3708 H   0  0  0  0  0  0  0  0  0  0  0  0
    6.6495    0.0183   19.9047 C   0  0  0  0  0  0  0  0  0  0  0  0
    7.3524   -0.6338   20.9701 N   0  0  0  0  0  0  0  0  0  0  0  0
    8.1271   -1.7284   20.7453 N   0  0  0  0  0  0  0  0  0  0  0  0
    8.6125   -2.0895   21.8696 N   0  0  0  0  0  0  0  0  0  0  0  0
    8.2029   -1.2727   22.8775 N   0  0  0  0  0  0  0  0  0  0  0  0
    7.4264   -0.3845   22.3103 C   0  0  0  0  0  0  0  0  0  0  0  0
    6.7710    0.6377   22.8471 O   0  0  0  0  0  0  0  0  0  0  0  0
    6.9378    0.9138   24.2631 C   0  0  0  0  0  0  0  0  0  0  0  0
    6.8569   -0.0299   24.8139 H   0  0  0  0  0  0  0  0  0  0  0  0
    5.7967    1.8459   24.6749 C   0  0  0  0  0  0  0  0  0  0  0  0
    5.8199    2.7403   24.0373 H   0  0  0  0  0  0  0  0  0  0  0  0
    4.8324    1.3588   24.4907 H   0  0  0  0  0  0  0  0  0  0  0  0
    5.9216    2.2661   26.1516 C   0  0  0  0  0  0  0  0  0  0  0  0
    5.1164    2.9573   26.4262 H   0  0  0  0  0  0  0  0  0  0  0  0
    5.7862    1.3841   26.7932 H   0  0  0  0  0  0  0  0  0  0  0  0
    7.2931    2.8955   26.4473 C   0  0  0  0  0  0  0  0  0  0  0  0
    7.3852    3.1437   27.5134 H   0  0  0  0  0  0  0  0  0  0  0  0
    7.3715    3.8493   25.9086 H   0  0  0  0  0  0  0  0  0  0  0  0
    8.4409    1.9715   26.0049 C   0  0  0  0  0  0  0  0  0  0  0  0
    8.4417    1.0738   26.6396 H   0  0  0  0  0  0  0  0  0  0  0  0
    9.4085    2.4568   26.1749 H   0  0  0  0  0  0  0  0  0  0  0  0
    8.3032    1.5512   24.5297 C   0  0  0  0  0  0  0  0  0  0  0  0
    9.0946    0.8493   24.2398 H   0  0  0  0  0  0  0  0  0  0  0  0
    8.4033    2.4344   23.8854 H   0  0  0  0  0  0  0  0  0  0  0  0
    5.4293    0.6475   20.1611 C   0  0  0  0  0  0  0  0  0  0  0  0
    5.0142    0.6369   21.1686 H   0  0  0  0  0  0  0  0  0  0  0  0
    4.8038    1.3013   19.0980 C   0  0  0  0  0  0  0  0  0  0  0  0
    3.8781    1.8373   19.2530 H   0  0  0  0  0  0  0  0  0  0  0  0
  1  2  1  0
  2  3  2  0
  3  4  1  0
  4  5  1  0
  4  6  2  0
  6  7  1  0
  7  8  1  0
  8  9  2  0
  9 10  1  0
 10 11  2  0
 11 12  1  0
 12 13  1  0
 13 14  1  0
 13 15  1  0
 15 16  1  0
 15 17  1  0
 15 18  1  0
 18 19  1  0
 18 20  1  0
 18 21  1  0
 21 22  1  0
 21 23  1  0
 21 24  1  0
 24 25  1  0
 24 26  1  0
 24 27  1  0
 27 28  1  0
 27 29  1  0
  6 30  1  0
 30 31  1  0
 30 32  2  0
 32 33  1  0
 32  2  1  0
 11  7  1  0
 27 13  1  0
M  END
>  <cnnaffinity>  (1) 
-4.8955

>  <filename>  (1) 
c1cncc(-n2nnnc2OC2CCCCC2)c1

$$$$
