
     RDKit          3D

 46 49  0  0  0  0  0  0  0  0999 V2000
    4.9631    1.7932   16.9565 H   0  0  0  0  0  0  0  0  0  0  0  0
    5.4246    1.3170   17.8203 C   0  0  0  0  0  0  0  0  0  0  0  0
    6.6079    0.7226   17.6088 N   0  0  0  0  0  0  0  0  0  0  0  0
    7.1945    0.1469   18.6650 C   0  0  0  0  0  0  0  0  0  0  0  0
    8.1316   -0.3667   18.4492 H   0  0  0  0  0  0  0  0  0  0  0  0
    6.6705    0.1237   19.9643 C   0  0  0  0  0  0  0  0  0  0  0  0
    7.5080   -0.5666   21.0331 C   0  0  0  0  0  0  0  0  0  0  0  0
    8.6936    0.1699   21.3714 N   0  0  0  0  0  0  0  0  0  0  0  0
    9.5634   -0.1020   20.9438 H   0  0  0  0  0  0  0  0  0  0  0  0
    8.6665    1.4390   21.9120 C   0  0  0  0  0  0  0  0  0  0  0  0
    9.8374    2.2143   21.9083 C   0  0  0  0  0  0  0  0  0  0  0  0
   10.7411    1.8277   21.4380 H   0  0  0  0  0  0  0  0  0  0  0  0
    9.8330    3.4889   22.4754 C   0  0  0  0  0  0  0  0  0  0  0  0
   10.7480    4.0720   22.5055 H   0  0  0  0  0  0  0  0  0  0  0  0
    8.6503    4.0572   22.9841 C   0  0  0  0  0  0  0  0  0  0  0  0
    8.5815    5.3596   23.5270 N   0  0  0  0  0  0  0  0  0  0  0  0
    7.6836    6.3306   22.8729 C   0  0  0  0  0  0  0  0  0  0  0  0
    6.7464    5.8576   22.5575 H   0  0  0  0  0  0  0  0  0  0  0  0
    8.1508    6.7454   21.9620 H   0  0  0  0  0  0  0  0  0  0  0  0
    7.3824    7.4634   23.8608 C   0  0  0  0  0  0  0  0  0  0  0  0
    6.7937    8.2507   23.3791 H   0  0  0  0  0  0  0  0  0  0  0  0
    6.8005    7.0531   24.7018 H   0  0  0  0  0  0  0  0  0  0  0  0
    8.5733    8.0886   24.3383 O   0  0  0  0  0  0  0  0  0  0  0  0
    9.4776    7.1444   24.9042 C   0  0  0  0  0  0  0  0  0  0  0  0
   10.3779    7.6949   25.1912 H   0  0  0  0  0  0  0  0  0  0  0  0
    9.0436    6.6805   25.8044 H   0  0  0  0  0  0  0  0  0  0  0  0
    9.8240    6.0307   23.9151 C   0  0  0  0  0  0  0  0  0  0  0  0
   10.3336    6.4683   23.0367 H   0  0  0  0  0  0  0  0  0  0  0  0
   10.5133    5.3203   24.3856 H   0  0  0  0  0  0  0  0  0  0  0  0
    7.4829    3.2756   22.9720 C   0  0  0  0  0  0  0  0  0  0  0  0
    6.5726    3.7202   23.3620 H   0  0  0  0  0  0  0  0  0  0  0  0
    7.4947    1.9771   22.4743 C   0  0  0  0  0  0  0  0  0  0  0  0
    6.5863    1.3851   22.5012 H   0  0  0  0  0  0  0  0  0  0  0  0
    7.8336   -2.0287   20.6799 C   0  0  0  0  0  0  0  0  0  0  0  0
    7.1675   -2.3343   19.8717 H   0  0  0  0  0  0  0  0  0  0  0  0
    8.8854   -2.2314   20.4529 H   0  0  0  0  0  0  0  0  0  0  0  0
    7.2570   -2.5314   22.0185 C   0  0  0  0  0  0  0  0  0  0  0  0
    7.9872   -2.9252   22.7328 H   0  0  0  0  0  0  0  0  0  0  0  0
    6.4510   -3.2597   21.8934 H   0  0  0  0  0  0  0  0  0  0  0  0
    6.7421   -1.0981   22.2727 C   0  0  0  0  0  0  0  0  0  0  0  0
    7.0008   -0.6433   23.2325 H   0  0  0  0  0  0  0  0  0  0  0  0
    5.6868   -1.0310   22.0397 H   0  0  0  0  0  0  0  0  0  0  0  0
    5.4230    0.7381   20.1586 C   0  0  0  0  0  0  0  0  0  0  0  0
    4.9531    0.7666   21.1460 H   0  0  0  0  0  0  0  0  0  0  0  0
    4.7888    1.3339   19.0666 C   0  0  0  0  0  0  0  0  0  0  0  0
    3.8257    1.8216   19.1685 H   0  0  0  0  0  0  0  0  0  0  0  0
  1  2  1  0
  2  3  2  0
  3  4  1  0
  4  5  1  0
  4  6  2  0
  6  7  1  0
  7  8  1  0
  8  9  1  0
  8 10  1  0
 10 11  2  0
 11 12  1  0
 11 13  1  0
 13 14  1  0
 13 15  2  0
 15 16  1  0
 16 17  1  0
 17 18  1  0
 17 19  1  0
 17 20  1  0
 20 21  1  0
 20 22  1  0
 20 23  1  0
 23 24  1  0
 24 25  1  0
 24 26  1  0
 24 27  1  0
 27 28  1  0
 27 29  1  0
 15 30  1  0
 30 31  1  0
 30 32  2  0
 32 33  1  0
  7 34  1  0
 34 35  1  0
 34 36  1  0
 34 37  1  0
 37 38  1  0
 37 39  1  0
 37 40  1  0
 40 41  1  0
 40 42  1  0
  6 43  1  0
 43 44  1  0
 43 45  2  0
 45 46  1  0
 45  2  1  0
 40  7  1  0
 32 10  1  0
 27 16  1  0
M  END
>  <cnnaffinity>  (1) 
-4.55979

>  <filename>  (1) 
c1cncc(C2(Nc3ccc(N4CCOCC4)cc3)CCC2)c1

$$$$
