
     RDKit          3D

 38 41  0  0  0  0  0  0  0  0999 V2000
    4.9162    1.7796   16.9992 H   0  0  0  0  0  0  0  0  0  0  0  0
    5.4040    1.2905   17.8413 C   0  0  0  0  0  0  0  0  0  0  0  0
    6.5656    0.6710   17.5837 N   0  0  0  0  0  0  0  0  0  0  0  0
    7.1879    0.0550   18.6004 C   0  0  0  0  0  0  0  0  0  0  0  0
    8.1292   -0.4378   18.3682 H   0  0  0  0  0  0  0  0  0  0  0  0
    6.6836    0.0181   19.9127 C   0  0  0  0  0  0  0  0  0  0  0  0
    7.2712   -0.6731   20.9480 O   0  0  0  0  0  0  0  0  0  0  0  0
    8.6424   -0.7745   21.0949 C   0  0  0  0  0  0  0  0  0  0  0  0
    9.6684    0.0636   20.6307 C   0  0  0  0  0  0  0  0  0  0  0  0
    9.5666    0.9308   19.9975 H   0  0  0  0  0  0  0  0  0  0  0  0
   10.8600   -0.3198   21.0688 N   0  0  0  0  0  0  0  0  0  0  0  0
   10.5961   -1.4049   21.8197 N   0  0  0  0  0  0  0  0  0  0  0  0
   11.3555   -1.8950   22.2546 H   0  0  0  0  0  0  0  0  0  0  0  0
    9.2709   -1.7318   21.8818 C   0  0  0  0  0  0  0  0  0  0  0  0
    8.7846   -2.8157   22.5767 N   0  0  0  0  0  0  0  0  0  0  0  0
    9.5249   -3.3564   23.7196 C   0  0  0  0  0  0  0  0  0  0  0  0
    9.9939   -2.5399   24.2834 H   0  0  0  0  0  0  0  0  0  0  0  0
   10.3498   -3.9774   23.3481 H   0  0  0  0  0  0  0  0  0  0  0  0
    8.6816   -4.1823   24.6749 C   0  0  0  0  0  0  0  0  0  0  0  0
    9.0510   -4.3303   26.0186 C   0  0  0  0  0  0  0  0  0  0  0  0
    9.9388   -3.8264   26.3976 H   0  0  0  0  0  0  0  0  0  0  0  0
    8.2927   -5.1320   26.8782 C   0  0  0  0  0  0  0  0  0  0  0  0
    8.5861   -5.2413   27.9191 H   0  0  0  0  0  0  0  0  0  0  0  0
    7.1617   -5.8001   26.3967 C   0  0  0  0  0  0  0  0  0  0  0  0
    6.5710   -6.4303   27.0572 H   0  0  0  0  0  0  0  0  0  0  0  0
    6.7965   -5.6638   25.0548 C   0  0  0  0  0  0  0  0  0  0  0  0
    5.9246   -6.1849   24.6642 H   0  0  0  0  0  0  0  0  0  0  0  0
    7.5514   -4.8646   24.1914 C   0  0  0  0  0  0  0  0  0  0  0  0
    7.2125   -4.7180   22.7294 C   0  0  0  0  0  0  0  0  0  0  0  0
    6.1735   -5.0027   22.5429 H   0  0  0  0  0  0  0  0  0  0  0  0
    7.8396   -5.3995   22.1413 H   0  0  0  0  0  0  0  0  0  0  0  0
    7.4325   -3.2874   22.2476 C   0  0  0  0  0  0  0  0  0  0  0  0
    6.6729   -2.6171   22.6766 H   0  0  0  0  0  0  0  0  0  0  0  0
    7.3181   -3.2456   21.1602 H   0  0  0  0  0  0  0  0  0  0  0  0
    5.4569    0.6459   20.1697 C   0  0  0  0  0  0  0  0  0  0  0  0
    5.0277    0.6154   21.1714 H   0  0  0  0  0  0  0  0  0  0  0  0
    4.8184    1.3035   19.1129 C   0  0  0  0  0  0  0  0  0  0  0  0
    3.8839    1.8341   19.2657 H   0  0  0  0  0  0  0  0  0  0  0  0
  1  2  1  0
  2  3  2  0
  3  4  1  0
  4  5  1  0
  4  6  2  0
  6  7  1  0
  7  8  1  0
  8  9  1  0
  9 10  1  0
  9 11  2  0
 11 12  1  0
 12 13  1  0
 12 14  1  0
 14 15  1  0
 15 16  1  0
 16 17  1  0
 16 18  1  0
 16 19  1  0
 19 20  2  0
 20 21  1  0
 20 22  1  0
 22 23  1  0
 22 24  2  0
 24 25  1  0
 24 26  1  0
 26 27  1  0
 26 28  2  0
 28 29  1  0
 29 30  1  0
 29 31  1  0
 29 32  1  0
 32 33  1  0
 32 34  1  0
  6 35  1  0
 35 36  1  0
 35 37  2  0
 37 38  1  0
 37  2  1  0
 14  8  2  0
 32 15  1  0
 28 19  1  0
M  END
>  <cnnaffinity>  (1) 
-5.6214

>  <filename>  (1) 
c1cncc(Oc2cn[nH]c2N2CCc3ccccc3C2)c1

$$$$
