
     RDKit          3D

 33 37  0  0  0  0  0  0  0  0999 V2000
    4.9936    1.7872   16.9538 H   0  0  0  0  0  0  0  0  0  0  0  0
    5.4400    1.2765   17.8035 C   0  0  0  0  0  0  0  0  0  0  0  0
    6.5854    0.6202   17.5571 N   0  0  0  0  0  0  0  0  0  0  0  0
    7.1677   -0.0029   18.5826 C   0  0  0  0  0  0  0  0  0  0  0  0
    8.0892   -0.5445   18.3668 H   0  0  0  0  0  0  0  0  0  0  0  0
    6.6541    0.0190   19.8905 C   0  0  0  0  0  0  0  0  0  0  0  0
    7.4183   -0.6627   20.9349 C   0  0  0  0  0  0  0  0  0  0  0  0
    8.3369   -1.5739   20.7281 N   0  0  0  0  0  0  0  0  0  0  0  0
    8.8341   -2.0039   21.9363 N   0  0  0  0  0  0  0  0  0  0  0  0
    8.2026   -1.3140   22.8456 C   0  0  0  0  0  0  0  0  0  0  0  0
    8.1761   -1.1359   24.5646 S   0  0  0  0  0  0  0  0  0  0  0  0
    6.9299    0.1099   24.3566 C   0  0  0  0  0  0  0  0  0  0  0  0
    6.2591    0.7720   25.4924 C   0  0  0  0  0  0  0  0  0  0  0  0
    4.9845    1.3254   25.2915 C   0  0  0  0  0  0  0  0  0  0  0  0
    4.5183    1.2322   24.3139 H   0  0  0  0  0  0  0  0  0  0  0  0
    4.3200    2.0330   26.3120 C   0  0  0  0  0  0  0  0  0  0  0  0
    3.3443    2.4717   26.1081 H   0  0  0  0  0  0  0  0  0  0  0  0
    4.9016    2.2081   27.5662 C   0  0  0  0  0  0  0  0  0  0  0  0
    4.4201    2.7979   28.3450 H   0  0  0  0  0  0  0  0  0  0  0  0
    6.1562    1.6187   27.7921 C   0  0  0  0  0  0  0  0  0  0  0  0
    6.8542    0.8945   26.7861 C   0  0  0  0  0  0  0  0  0  0  0  0
    8.0899    0.4699   27.3850 C   0  0  0  0  0  0  0  0  0  0  0  0
    8.8782   -0.0813   26.8936 H   0  0  0  0  0  0  0  0  0  0  0  0
    8.0993    0.9159   28.6750 C   0  0  0  0  0  0  0  0  0  0  0  0
    8.8702    0.8322   29.4340 H   0  0  0  0  0  0  0  0  0  0  0  0
    6.9398    1.6181   28.9238 N   0  0  0  0  0  0  0  0  0  0  0  0
    6.6936    2.0559   29.7944 H   0  0  0  0  0  0  0  0  0  0  0  0
    6.5862    0.3504   23.1225 N   0  0  0  0  0  0  0  0  0  0  0  0
    7.3012   -0.4558   22.2935 N   0  0  0  0  0  0  0  0  0  0  0  0
    5.4470    0.6884   20.1346 C   0  0  0  0  0  0  0  0  0  0  0  0
    5.0266    0.7184   21.1389 H   0  0  0  0  0  0  0  0  0  0  0  0
    4.8278    1.3210   19.0601 C   0  0  0  0  0  0  0  0  0  0  0  0
    3.8943    1.8588   19.1850 H   0  0  0  0  0  0  0  0  0  0  0  0
  1  2  1  0
  2  3  2  0
  3  4  1  0
  4  5  1  0
  4  6  2  0
  6  7  1  0
  7  8  2  0
  8  9  1  0
  9 10  2  0
 10 11  1  0
 11 12  1  0
 12 13  1  0
 13 14  2  0
 14 15  1  0
 14 16  1  0
 16 17  1  0
 16 18  2  0
 18 19  1  0
 18 20  1  0
 20 21  2  0
 21 22  1  0
 22 23  1  0
 22 24  2  0
 24 25  1  0
 24 26  1  0
 26 27  1  0
 12 28  2  0
 28 29  1  0
  6 30  1  0
 30 31  1  0
 30 32  2  0
 32 33  1  0
 32  2  1  0
 29  7  1  0
 29 10  1  0
 21 13  1  0
 26 20  1  0
M  END
>  <cnnaffinity>  (1) 
-5.46735

>  <filename>  (1) 
c1cncc(-c2nnc3sc(-c4cccc5[nH]ccc45)nn23)c1

$$$$
