
     RDKit          3D

 28 31  0  0  0  0  0  0  0  0999 V2000
    4.1732   -0.0569   25.6717 H   0  0  0  0  0  0  0  0  0  0  0  0
    5.0587   -0.6352   25.9120 C   0  0  0  0  0  0  0  0  0  0  0  0
    5.1656   -1.0275   27.1781 N   0  0  0  0  0  0  0  0  0  0  0  0
    6.2588   -1.7325   27.4528 C   0  0  0  0  0  0  0  0  0  0  0  0
    6.3114   -2.0201   28.4867 H   0  0  0  0  0  0  0  0  0  0  0  0
    7.2294   -2.0626   26.5184 C   0  0  0  0  0  0  0  0  0  0  0  0
    8.0964   -2.6424   26.8007 H   0  0  0  0  0  0  0  0  0  0  0  0
    7.0094   -1.5938   25.2120 C   0  0  0  0  0  0  0  0  0  0  0  0
    8.0043   -1.9033   24.1467 C   0  0  0  0  0  0  0  0  0  0  0  0
    9.1574   -2.6064   24.2494 C   0  0  0  0  0  0  0  0  0  0  0  0
    9.5939   -3.0902   25.1151 H   0  0  0  0  0  0  0  0  0  0  0  0
   10.0398   -2.7267   22.7597 S   0  0  0  0  0  0  0  0  0  0  0  0
    8.8164   -1.8006   21.9470 C   0  0  0  0  0  0  0  0  0  0  0  0
    8.5547   -1.3328   20.7482 N   0  0  0  0  0  0  0  0  0  0  0  0
    7.3724   -0.6910   20.9626 C   0  0  0  0  0  0  0  0  0  0  0  0
    6.6462    0.0156   19.9101 C   0  0  0  0  0  0  0  0  0  0  0  0
    7.1794    0.0528   18.6155 C   0  0  0  0  0  0  0  0  0  0  0  0
    8.1264   -0.4331   18.3859 H   0  0  0  0  0  0  0  0  0  0  0  0
    6.5733    0.6676   17.5951 N   0  0  0  0  0  0  0  0  0  0  0  0
    5.4085    1.2854   17.8471 C   0  0  0  0  0  0  0  0  0  0  0  0
    4.9284    1.7726   17.0030 H   0  0  0  0  0  0  0  0  0  0  0  0
    4.8043    1.3097   19.1095 C   0  0  0  0  0  0  0  0  0  0  0  0
    3.8738    1.8434   19.2569 H   0  0  0  0  0  0  0  0  0  0  0  0
    5.4247    0.6585   20.1690 C   0  0  0  0  0  0  0  0  0  0  0  0
    5.0001    0.6336   21.1789 H   0  0  0  0  0  0  0  0  0  0  0  0
    6.9014   -0.7421   22.1983 N   0  0  0  0  0  0  0  0  0  0  0  0
    7.8491   -1.4661   22.8282 N   0  0  0  0  0  0  0  0  0  0  0  0
    5.9167   -0.8724   24.9346 N   0  0  0  0  0  0  0  0  0  0  0  0
  1  2  1  0
  2  3  2  0
  3  4  1  0
  4  5  1  0
  4  6  2  0
  6  7  1  0
  6  8  1  0
  8  9  1  0
  9 10  2  0
 10 11  1  0
 10 12  1  0
 12 13  1  0
 13 14  2  0
 14 15  1  0
 15 16  1  0
 16 17  2  0
 17 18  1  0
 17 19  1  0
 19 20  2  0
 20 21  1  0
 20 22  1  0
 22 23  1  0
 22 24  2  0
 24 25  1  0
 15 26  2  0
 26 27  1  0
  8 28  2  0
 28  2  1  0
 27  9  1  0
 27 13  1  0
 24 16  1  0
M  END
>  <cnnaffinity>  (1) 
-5.25784

>  <filename>  (1) 
c1cncc(-c2nc3scc(-c4ccncn4)n3n2)c1

$$$$
