
     RDKit          3D

 26 29  0  0  0  0  0  0  0  0999 V2000
    4.9173    1.7763   17.0012 H   0  0  0  0  0  0  0  0  0  0  0  0
    5.4046    1.2900   17.8421 C   0  0  0  0  0  0  0  0  0  0  0  0
    6.5697    0.6776   17.5765 N   0  0  0  0  0  0  0  0  0  0  0  0
    7.1739    0.0564   18.5900 C   0  0  0  0  0  0  0  0  0  0  0  0
    8.1239   -0.4342   18.3732 H   0  0  0  0  0  0  0  0  0  0  0  0
    6.6474    0.0107   19.8913 C   0  0  0  0  0  0  0  0  0  0  0  0
    7.4015   -0.6984   20.9202 C   0  0  0  0  0  0  0  0  0  0  0  0
    8.3260   -1.6014   20.7026 N   0  0  0  0  0  0  0  0  0  0  0  0
    8.8247   -2.0341   21.9112 N   0  0  0  0  0  0  0  0  0  0  0  0
    8.1911   -1.3475   22.8229 C   0  0  0  0  0  0  0  0  0  0  0  0
    8.2600   -1.0986   24.5418 S   0  0  0  0  0  0  0  0  0  0  0  0
    7.0313    0.1741   24.3337 C   0  0  0  0  0  0  0  0  0  0  0  0
    6.5603    0.9384   25.4852 C   0  0  0  0  0  0  0  0  0  0  0  0
    5.3724    2.1839   25.2967 S   0  0  0  0  0  0  0  0  0  0  0  0
    5.4107    2.5179   26.9842 C   0  0  0  0  0  0  0  0  0  0  0  0
    4.7851    3.2901   27.4109 H   0  0  0  0  0  0  0  0  0  0  0  0
    6.2874    1.7188   27.6569 C   0  0  0  0  0  0  0  0  0  0  0  0
    6.4639    1.7659   28.7296 H   0  0  0  0  0  0  0  0  0  0  0  0
    6.9535    0.8057   26.7956 C   0  0  0  0  0  0  0  0  0  0  0  0
    7.6932    0.0842   27.1409 H   0  0  0  0  0  0  0  0  0  0  0  0
    6.6116    0.3670   23.1215 N   0  0  0  0  0  0  0  0  0  0  0  0
    7.2651   -0.5079   22.2865 N   0  0  0  0  0  0  0  0  0  0  0  0
    5.4328    0.6518   20.1614 C   0  0  0  0  0  0  0  0  0  0  0  0
    5.0097    0.6369   21.1701 H   0  0  0  0  0  0  0  0  0  0  0  0
    4.8048    1.3081   19.1083 C   0  0  0  0  0  0  0  0  0  0  0  0
    3.8743    1.8435   19.2609 H   0  0  0  0  0  0  0  0  0  0  0  0
  1  2  1  0
  2  3  2  0
  3  4  1  0
  4  5  1  0
  4  6  2  0
  6  7  1  0
  7  8  2  0
  8  9  1  0
  9 10  2  0
 10 11  1  0
 11 12  1  0
 12 13  1  0
 13 14  1  0
 14 15  1  0
 15 16  1  0
 15 17  2  0
 17 18  1  0
 17 19  1  0
 19 20  1  0
 12 21  2  0
 21 22  1  0
  6 23  1  0
 23 24  1  0
 23 25  2  0
 25 26  1  0
 25  2  1  0
 22  7  1  0
 22 10  1  0
 19 13  2  0
M  END
>  <cnnaffinity>  (1) 
-5.12414

>  <filename>  (1) 
c1cncc(-c2nnc3sc(-c4cccs4)nn23)c1

$$$$
