
     RDKit          3D

 27 30  0  0  0  0  0  0  0  0999 V2000
    4.9160    1.7753   17.0024 H   0  0  0  0  0  0  0  0  0  0  0  0
    5.4049    1.2899   17.8430 C   0  0  0  0  0  0  0  0  0  0  0  0
    6.5704    0.6779   17.5770 N   0  0  0  0  0  0  0  0  0  0  0  0
    7.1750    0.0568   18.5904 C   0  0  0  0  0  0  0  0  0  0  0  0
    8.1245   -0.4346   18.3744 H   0  0  0  0  0  0  0  0  0  0  0  0
    6.6475    0.0111   19.8911 C   0  0  0  0  0  0  0  0  0  0  0  0
    7.4031   -0.7012   20.9169 C   0  0  0  0  0  0  0  0  0  0  0  0
    8.3295   -1.6011   20.6983 N   0  0  0  0  0  0  0  0  0  0  0  0
    8.8290   -2.0346   21.9052 N   0  0  0  0  0  0  0  0  0  0  0  0
    8.1940   -1.3524   22.8179 C   0  0  0  0  0  0  0  0  0  0  0  0
    8.2630   -1.0979   24.5315 S   0  0  0  0  0  0  0  0  0  0  0  0
    7.0382    0.1652   24.3121 C   0  0  0  0  0  0  0  0  0  0  0  0
    6.5590    0.9396   25.4723 C   0  0  0  0  0  0  0  0  0  0  0  0
    5.5907    1.9486   25.2954 C   0  0  0  0  0  0  0  0  0  0  0  0
    5.1837    2.1704   24.3153 H   0  0  0  0  0  0  0  0  0  0  0  0
    5.1221    2.6812   26.3122 N   0  0  0  0  0  0  0  0  0  0  0  0
    5.5669    2.4790   27.5575 N   0  0  0  0  0  0  0  0  0  0  0  0
    6.4887    1.5341   27.7885 C   0  0  0  0  0  0  0  0  0  0  0  0
    6.8132    1.4116   28.8149 H   0  0  0  0  0  0  0  0  0  0  0  0
    7.0203    0.7312   26.7723 C   0  0  0  0  0  0  0  0  0  0  0  0
    7.7681   -0.0213   27.0151 H   0  0  0  0  0  0  0  0  0  0  0  0
    6.6164    0.3597   23.1033 N   0  0  0  0  0  0  0  0  0  0  0  0
    7.2666   -0.5176   22.2772 N   0  0  0  0  0  0  0  0  0  0  0  0
    5.4330    0.6525   20.1624 C   0  0  0  0  0  0  0  0  0  0  0  0
    5.0088    0.6355   21.1695 H   0  0  0  0  0  0  0  0  0  0  0  0
    4.8047    1.3084   19.1091 C   0  0  0  0  0  0  0  0  0  0  0  0
    3.8738    1.8437   19.2622 H   0  0  0  0  0  0  0  0  0  0  0  0
  1  2  1  0
  2  3  2  0
  3  4  1  0
  4  5  1  0
  4  6  2  0
  6  7  1  0
  7  8  2  0
  8  9  1  0
  9 10  2  0
 10 11  1  0
 11 12  1  0
 12 13  1  0
 13 14  2  0
 14 15  1  0
 14 16  1  0
 16 17  2  0
 17 18  1  0
 18 19  1  0
 18 20  2  0
 20 21  1  0
 12 22  2  0
 22 23  1  0
  6 24  1  0
 24 25  1  0
 24 26  2  0
 26 27  1  0
 26  2  1  0
 23  7  1  0
 23 10  1  0
 20 13  1  0
M  END
>  <cnnaffinity>  (1) 
-5.12924

>  <filename>  (1) 
c1cncc(-c2nnc3sc(-c4ccnnc4)nn23)c1

$$$$
