
     RDKit          3D

 38 41  0  0  0  0  0  0  0  0999 V2000
    4.9577    1.7919   16.9859 H   0  0  0  0  0  0  0  0  0  0  0  0
    5.4027    1.2883   17.8427 C   0  0  0  0  0  0  0  0  0  0  0  0
    6.5614    0.6615   17.5996 N   0  0  0  0  0  0  0  0  0  0  0  0
    7.1601    0.0499   18.6222 C   0  0  0  0  0  0  0  0  0  0  0  0
    8.1105   -0.4247   18.3812 H   0  0  0  0  0  0  0  0  0  0  0  0
    6.6385    0.0067   19.9254 C   0  0  0  0  0  0  0  0  0  0  0  0
    7.3676   -0.6981   20.9928 C   0  0  0  0  0  0  0  0  0  0  0  0
    6.9063   -0.7574   22.2017 N   0  0  0  0  0  0  0  0  0  0  0  0
    7.7893   -1.4352   22.9851 N   0  0  0  0  0  0  0  0  0  0  0  0
    7.8590   -1.7857   24.3109 C   0  0  0  0  0  0  0  0  0  0  0  0
    6.8625   -1.3660   25.3409 C   0  0  0  0  0  0  0  0  0  0  0  0
    5.8529   -1.6203   24.9922 H   0  0  0  0  0  0  0  0  0  0  0  0
    7.0675   -1.9569   26.2399 H   0  0  0  0  0  0  0  0  0  0  0  0
    6.9336    0.1436   25.6664 C   0  0  0  0  0  0  0  0  0  0  0  0
    6.7924    0.6984   24.7231 H   0  0  0  0  0  0  0  0  0  0  0  0
    8.3084    0.5424   26.2342 C   0  0  0  0  0  0  0  0  0  0  0  0
    9.1114    0.2646   25.5382 H   0  0  0  0  0  0  0  0  0  0  0  0
    8.5001   -0.0447   27.1506 H   0  0  0  0  0  0  0  0  0  0  0  0
    8.3463    2.0491   26.5297 C   0  0  0  0  0  0  0  0  0  0  0  0
    9.3541    2.3405   26.8197 H   0  0  0  0  0  0  0  0  0  0  0  0
    8.1595    2.5987   25.5927 H   0  0  0  0  0  0  0  0  0  0  0  0
    7.2615    2.4427   27.5548 C   0  0  0  0  0  0  0  0  0  0  0  0
    7.4259    1.9212   28.5118 H   0  0  0  0  0  0  0  0  0  0  0  0
    7.3112    3.5136   27.7917 H   0  0  0  0  0  0  0  0  0  0  0  0
    5.8710    2.0609   27.0026 C   0  0  0  0  0  0  0  0  0  0  0  0
    5.0644    2.3235   27.7025 H   0  0  0  0  0  0  0  0  0  0  0  0
    5.6860    2.6587   26.0957 H   0  0  0  0  0  0  0  0  0  0  0  0
    5.8077    0.5617   26.6348 C   0  0  0  0  0  0  0  0  0  0  0  0
    5.8890   -0.0492   27.5510 H   0  0  0  0  0  0  0  0  0  0  0  0
    4.8359    0.3180   26.1808 H   0  0  0  0  0  0  0  0  0  0  0  0
    8.9750   -2.4421   24.5139 N   0  0  0  0  0  0  0  0  0  0  0  0
    9.6689   -2.5301   23.3197 N   0  0  0  0  0  0  0  0  0  0  0  0
    8.9330   -1.9182   22.4319 C   0  0  0  0  0  0  0  0  0  0  0  0
    8.9455   -1.5112   20.7364 S   0  0  0  0  0  0  0  0  0  0  0  0
    5.4125    0.6634   20.1687 C   0  0  0  0  0  0  0  0  0  0  0  0
    4.9702    0.6636   21.1684 H   0  0  0  0  0  0  0  0  0  0  0  0
    4.7925    1.3138   19.1019 C   0  0  0  0  0  0  0  0  0  0  0  0
    3.8590    1.8540   19.2238 H   0  0  0  0  0  0  0  0  0  0  0  0
  1  2  1  0
  2  3  2  0
  3  4  1  0
  4  5  1  0
  4  6  2  0
  6  7  1  0
  7  8  2  0
  8  9  1  0
  9 10  1  0
 10 11  1  0
 11 12  1  0
 11 13  1  0
 11 14  1  0
 14 15  1  0
 14 16  1  0
 16 17  1  0
 16 18  1  0
 16 19  1  0
 19 20  1  0
 19 21  1  0
 19 22  1  0
 22 23  1  0
 22 24  1  0
 22 25  1  0
 25 26  1  0
 25 27  1  0
 25 28  1  0
 28 29  1  0
 28 30  1  0
 10 31  2  0
 31 32  1  0
 32 33  2  0
 33 34  1  0
  6 35  1  0
 35 36  1  0
 35 37  2  0
 37 38  1  0
 37  2  1  0
 34  7  1  0
 33  9  1  0
 28 14  1  0
M  END
>  <cnnaffinity>  (1) 
-5.37908

>  <filename>  (1) 
c1cncc(-c2nn3c(CC4CCCCC4)nnc3s2)c1

$$$$
