
     RDKit          3D

 30 33  0  0  0  0  0  0  0  0999 V2000
    4.9559    1.7927   16.9978 H   0  0  0  0  0  0  0  0  0  0  0  0
    5.4101    1.2812   17.8435 C   0  0  0  0  0  0  0  0  0  0  0  0
    6.5703    0.6603   17.5907 N   0  0  0  0  0  0  0  0  0  0  0  0
    7.1849    0.0400   18.6000 C   0  0  0  0  0  0  0  0  0  0  0  0
    8.1363   -0.4354   18.3581 H   0  0  0  0  0  0  0  0  0  0  0  0
    6.6648    0.0010   19.8976 C   0  0  0  0  0  0  0  0  0  0  0  0
    7.3987   -0.7012   20.9426 C   0  0  0  0  0  0  0  0  0  0  0  0
    8.5317   -1.3255   20.7588 N   0  0  0  0  0  0  0  0  0  0  0  0
    8.8238   -1.8267   22.0157 O   0  0  0  0  0  0  0  0  0  0  0  0
    7.8297   -1.4434   22.8281 C   0  0  0  0  0  0  0  0  0  0  0  0
    7.8663   -1.8249   24.2290 C   0  0  0  0  0  0  0  0  0  0  0  0
    6.8153   -1.4373   25.0772 C   0  0  0  0  0  0  0  0  0  0  0  0
    5.9842   -0.8638   24.6651 H   0  0  0  0  0  0  0  0  0  0  0  0
    6.8216   -1.8006   26.4324 C   0  0  0  0  0  0  0  0  0  0  0  0
    5.9977   -1.4867   27.0698 H   0  0  0  0  0  0  0  0  0  0  0  0
    7.8590   -2.5768   26.9406 C   0  0  0  0  0  0  0  0  0  0  0  0
    7.9246   -2.9023   27.9587 H   0  0  0  0  0  0  0  0  0  0  0  0
    8.8688   -2.9960   26.0827 C   0  0  0  0  0  0  0  0  0  0  0  0
    8.9364   -2.6207   24.7262 C   0  0  0  0  0  0  0  0  0  0  0  0
   10.1400   -3.2363   24.2040 C   0  0  0  0  0  0  0  0  0  0  0  0
   10.5452   -3.1327   23.2059 H   0  0  0  0  0  0  0  0  0  0  0  0
   10.6952   -3.9461   25.2301 C   0  0  0  0  0  0  0  0  0  0  0  0
   11.5905   -4.5441   25.2828 H   0  0  0  0  0  0  0  0  0  0  0  0
    9.9228   -3.8254   26.3612 N   0  0  0  0  0  0  0  0  0  0  0  0
   10.2038   -4.0612   27.3017 H   0  0  0  0  0  0  0  0  0  0  0  0
    6.9177   -0.7492   22.2186 N   0  0  0  0  0  0  0  0  0  0  0  0
    5.4464    0.6487   20.1568 C   0  0  0  0  0  0  0  0  0  0  0  0
    5.0149    0.6434   21.1589 H   0  0  0  0  0  0  0  0  0  0  0  0
    4.8101    1.3016   19.1062 C   0  0  0  0  0  0  0  0  0  0  0  0
    3.8772    1.8352   19.2396 H   0  0  0  0  0  0  0  0  0  0  0  0
  1  2  1  0
  2  3  2  0
  3  4  1  0
  4  5  1  0
  4  6  2  0
  6  7  1  0
  7  8  2  0
  8  9  1  0
  9 10  1  0
 10 11  1  0
 11 12  2  0
 12 13  1  0
 12 14  1  0
 14 15  1  0
 14 16  2  0
 16 17  1  0
 16 18  1  0
 18 19  2  0
 19 20  1  0
 20 21  1  0
 20 22  2  0
 22 23  1  0
 22 24  1  0
 24 25  1  0
 10 26  2  0
  6 27  1  0
 27 28  1  0
 27 29  2  0
 29 30  1  0
 29  2  1  0
 26  7  1  0
 19 11  1  0
 24 18  1  0
M  END
>  <cnnaffinity>  (1) 
-5.00741

>  <filename>  (1) 
c1cncc(-c2noc(-c3cccc4[nH]ccc34)n2)c1

$$$$
