
     RDKit          3D

 42 46  0  0  0  0  0  0  0  0999 V2000
    4.9665    1.8480   16.9563 H   0  0  0  0  0  0  0  0  0  0  0  0
    5.4030    1.2971   17.7873 C   0  0  0  0  0  0  0  0  0  0  0  0
    6.5443    0.6369   17.5373 N   0  0  0  0  0  0  0  0  0  0  0  0
    7.1283   -0.0135   18.5485 C   0  0  0  0  0  0  0  0  0  0  0  0
    8.0614   -0.5236   18.3180 H   0  0  0  0  0  0  0  0  0  0  0  0
    6.6237   -0.0198   19.8616 C   0  0  0  0  0  0  0  0  0  0  0  0
    7.3773   -0.6616   20.9425 C   0  0  0  0  0  0  0  0  0  0  0  0
    8.2107   -1.7418   20.7574 N   0  0  0  0  0  0  0  0  0  0  0  0
    8.6851   -1.9687   21.9462 C   0  0  0  0  0  0  0  0  0  0  0  0
    8.2522   -1.1195   22.9115 N   0  0  0  0  0  0  0  0  0  0  0  0
    7.4070   -0.2466   22.2777 C   0  0  0  0  0  0  0  0  0  0  0  0
    6.9837    0.9139   22.8768 N   0  0  0  0  0  0  0  0  0  0  0  0
    6.3263    0.8660   24.1741 C   0  0  0  0  0  0  0  0  0  0  0  0
    7.0376    0.7284   25.0089 H   0  0  0  0  0  0  0  0  0  0  0  0
    5.6792   -0.0182   24.1919 H   0  0  0  0  0  0  0  0  0  0  0  0
    5.5004    2.1210   24.4207 C   0  0  0  0  0  0  0  0  0  0  0  0
    4.5913    2.1601   25.4895 C   0  0  0  0  0  0  0  0  0  0  0  0
    4.4405    1.2813   26.1133 H   0  0  0  0  0  0  0  0  0  0  0  0
    3.8675    3.3210   25.7682 C   0  0  0  0  0  0  0  0  0  0  0  0
    3.1715    3.3432   26.6019 H   0  0  0  0  0  0  0  0  0  0  0  0
    4.0463    4.4588   24.9785 C   0  0  0  0  0  0  0  0  0  0  0  0
    3.4935    5.3683   25.1943 H   0  0  0  0  0  0  0  0  0  0  0  0
    4.9398    4.4249   23.9077 C   0  0  0  0  0  0  0  0  0  0  0  0
    5.0742    5.3062   23.2845 H   0  0  0  0  0  0  0  0  0  0  0  0
    5.6701    3.2667   23.6144 C   0  0  0  0  0  0  0  0  0  0  0  0
    6.5938    3.2510   22.4103 C   0  0  0  0  0  0  0  0  0  0  0  0
    7.0617    4.2284   22.2604 H   0  0  0  0  0  0  0  0  0  0  0  0
    6.0008    3.0486   21.5096 H   0  0  0  0  0  0  0  0  0  0  0  0
    7.6506    2.1650   22.5074 C   0  0  0  0  0  0  0  0  0  0  0  0
    8.4409    2.4301   23.2296 H   0  0  0  0  0  0  0  0  0  0  0  0
    8.1394    2.0164   21.5383 H   0  0  0  0  0  0  0  0  0  0  0  0
    8.9089   -1.1427   24.2113 C   0  0  0  0  0  0  0  0  0  0  0  0
    8.2504   -1.6183   24.9425 H   0  0  0  0  0  0  0  0  0  0  0  0
    9.1593   -0.1369   24.5658 H   0  0  0  0  0  0  0  0  0  0  0  0
   10.1931   -1.9548   23.9693 C   0  0  0  0  0  0  0  0  0  0  0  0
   11.0025   -1.2947   23.6454 H   0  0  0  0  0  0  0  0  0  0  0  0
   10.5161   -2.5423   24.8279 H   0  0  0  0  0  0  0  0  0  0  0  0
    9.8296   -3.1113   22.6091 S   0  0  0  0  0  0  0  0  0  0  0  0
    5.4168    0.6603   20.0985 C   0  0  0  0  0  0  0  0  0  0  0  0
    5.0049    0.7005   21.1071 H   0  0  0  0  0  0  0  0  0  0  0  0
    4.7874    1.3133   19.0435 C   0  0  0  0  0  0  0  0  0  0  0  0
    3.8605    1.8596   19.1824 H   0  0  0  0  0  0  0  0  0  0  0  0
  1  2  1  0
  2  3  2  0
  3  4  1  0
  4  5  1  0
  4  6  2  0
  6  7  1  0
  7  8  1  0
  8  9  2  0
  9 10  1  0
 10 11  1  0
 11 12  1  0
 12 13  1  0
 13 14  1  0
 13 15  1  0
 13 16  1  0
 16 17  2  0
 17 18  1  0
 17 19  1  0
 19 20  1  0
 19 21  2  0
 21 22  1  0
 21 23  1  0
 23 24  1  0
 23 25  2  0
 25 26  1  0
 26 27  1  0
 26 28  1  0
 26 29  1  0
 29 30  1  0
 29 31  1  0
 10 32  1  0
 32 33  1  0
 32 34  1  0
 32 35  1  0
 35 36  1  0
 35 37  1  0
 35 38  1  0
  6 39  1  0
 39 40  1  0
 39 41  2  0
 41 42  1  0
 41  2  1  0
 11  7  2  0
 29 12  1  0
 38  9  1  0
 25 16  1  0
M  END
>  <cnnaffinity>  (1) 
-5.68928

>  <filename>  (1) 
c1cncc(-c2nc3n(c2N2CCc4ccccc4C2)CCS3)c1

$$$$
