
     RDKit          3D

 39 42  0  0  0  0  0  0  0  0999 V2000
    4.9567    1.7795   16.9656 H   0  0  0  0  0  0  0  0  0  0  0  0
    5.4056    1.2929   17.8312 C   0  0  0  0  0  0  0  0  0  0  0  0
    6.5713    0.6624   17.6152 N   0  0  0  0  0  0  0  0  0  0  0  0
    7.1564    0.0874   18.6695 C   0  0  0  0  0  0  0  0  0  0  0  0
    8.1025   -0.4050   18.4473 H   0  0  0  0  0  0  0  0  0  0  0  0
    6.6447    0.1049   19.9858 C   0  0  0  0  0  0  0  0  0  0  0  0
    7.4109   -0.5693   21.0589 C   0  0  0  0  0  0  0  0  0  0  0  0
    8.2643   -1.5966   20.8748 C   0  0  0  0  0  0  0  0  0  0  0  0
    8.6247   -1.9700   19.9359 H   0  0  0  0  0  0  0  0  0  0  0  0
    8.8966   -2.2660   22.3514 S   0  0  0  0  0  0  0  0  0  0  0  0
    8.1284   -0.9954   23.2411 C   0  0  0  0  0  0  0  0  0  0  0  0
    8.1720   -0.5084   24.4692 N   0  0  0  0  0  0  0  0  0  0  0  0
    7.3409    0.5689   24.3540 C   0  0  0  0  0  0  0  0  0  0  0  0
    7.0089    1.5097   25.4651 C   0  0  0  0  0  0  0  0  0  0  0  0
    7.1198    2.5366   25.1039 H   0  0  0  0  0  0  0  0  0  0  0  0
    7.7072    1.3614   26.2901 H   0  0  0  0  0  0  0  0  0  0  0  0
    5.5845    1.2713   25.9708 C   0  0  0  0  0  0  0  0  0  0  0  0
    5.3182    2.0326   26.7198 H   0  0  0  0  0  0  0  0  0  0  0  0
    4.8821    1.4231   25.1319 H   0  0  0  0  0  0  0  0  0  0  0  0
    5.5002   -0.0832   26.5331 N   0  0  0  0  0  0  0  0  0  0  0  0
    4.9708   -0.2205   27.8979 C   0  0  0  0  0  0  0  0  0  0  0  0
    5.2236   -1.2359   28.2280 H   0  0  0  0  0  0  0  0  0  0  0  0
    5.4782    0.4688   28.5853 H   0  0  0  0  0  0  0  0  0  0  0  0
    3.4382   -0.0426   27.9580 C   0  0  0  0  0  0  0  0  0  0  0  0
    3.2005    1.0102   27.7286 H   0  0  0  0  0  0  0  0  0  0  0  0
    3.0562   -0.2821   28.9576 H   0  0  0  0  0  0  0  0  0  0  0  0
    2.7486   -0.9102   27.0557 O   0  0  0  0  0  0  0  0  0  0  0  0
    3.2639   -0.8703   25.7274 C   0  0  0  0  0  0  0  0  0  0  0  0
    3.0117    0.0904   25.2526 H   0  0  0  0  0  0  0  0  0  0  0  0
    2.7529   -1.6608   25.1701 H   0  0  0  0  0  0  0  0  0  0  0  0
    4.7922   -1.0747   25.7035 C   0  0  0  0  0  0  0  0  0  0  0  0
    5.0162   -2.0646   26.1213 H   0  0  0  0  0  0  0  0  0  0  0  0
    5.1989   -1.0678   24.6941 H   0  0  0  0  0  0  0  0  0  0  0  0
    6.8286    0.7759   23.1456 N   0  0  0  0  0  0  0  0  0  0  0  0
    7.3436   -0.2573   22.4301 N   0  0  0  0  0  0  0  0  0  0  0  0
    5.4035    0.7396   20.1829 C   0  0  0  0  0  0  0  0  0  0  0  0
    4.9537    0.7687   21.1760 H   0  0  0  0  0  0  0  0  0  0  0  0
    4.7827    1.3354   19.0821 C   0  0  0  0  0  0  0  0  0  0  0  0
    3.8312    1.8454   19.1777 H   0  0  0  0  0  0  0  0  0  0  0  0
  1  2  1  0
  2  3  2  0
  3  4  1  0
  4  5  1  0
  4  6  2  0
  6  7  1  0
  7  8  2  0
  8  9  1  0
  8 10  1  0
 10 11  1  0
 11 12  2  0
 12 13  1  0
 13 14  1  0
 14 15  1  0
 14 16  1  0
 14 17  1  0
 17 18  1  0
 17 19  1  0
 17 20  1  0
 20 21  1  0
 21 22  1  0
 21 23  1  0
 21 24  1  0
 24 25  1  0
 24 26  1  0
 24 27  1  0
 27 28  1  0
 28 29  1  0
 28 30  1  0
 28 31  1  0
 31 32  1  0
 31 33  1  0
 13 34  2  0
 34 35  1  0
  6 36  1  0
 36 37  1  0
 36 38  2  0
 38 39  1  0
 38  2  1  0
 35  7  1  0
 35 11  1  0
 31 20  1  0
M  END
>  <cnnaffinity>  (1) 
-4.87569

>  <filename>  (1) 
c1cncc(-c2csc3nc(CCN4CCOCC4)nn23)c1

$$$$
