
     RDKit          3D

 29 31  0  0  0  0  0  0  0  0999 V2000
    4.9110    1.7932   16.9846 H   0  0  0  0  0  0  0  0  0  0  0  0
    5.3901    1.3028   17.8256 C   0  0  0  0  0  0  0  0  0  0  0  0
    6.5561    0.6894   17.5577 N   0  0  0  0  0  0  0  0  0  0  0  0
    7.1611    0.0642   18.5722 C   0  0  0  0  0  0  0  0  0  0  0  0
    8.1181   -0.4056   18.3420 H   0  0  0  0  0  0  0  0  0  0  0  0
    6.6514    0.0132   19.8850 C   0  0  0  0  0  0  0  0  0  0  0  0
    7.3651   -0.6601   20.9706 C   0  0  0  0  0  0  0  0  0  0  0  0
    7.5071   -0.3263   22.3107 C   0  0  0  0  0  0  0  0  0  0  0  0
    7.0310    0.8349   22.9336 N   0  0  0  0  0  0  0  0  0  0  0  0
    6.9841    1.6604   22.3603 H   0  0  0  0  0  0  0  0  0  0  0  0
    6.8189    1.0297   24.2806 C   0  0  0  0  0  0  0  0  0  0  0  0
    7.0221    2.2842   24.8568 C   0  0  0  0  0  0  0  0  0  0  0  0
    7.3748    3.1259   24.2786 H   0  0  0  0  0  0  0  0  0  0  0  0
    6.7919    2.4105   26.2202 C   0  0  0  0  0  0  0  0  0  0  0  0
    6.9450    3.3647   26.7180 H   0  0  0  0  0  0  0  0  0  0  0  0
    6.3671    1.4227   27.0115 N   0  0  0  0  0  0  0  0  0  0  0  0
    6.1646    0.2391   26.4300 C   0  0  0  0  0  0  0  0  0  0  0  0
    5.8168   -0.5587   27.0784 H   0  0  0  0  0  0  0  0  0  0  0  0
    6.3657   -0.0129   25.0862 C   0  0  0  0  0  0  0  0  0  0  0  0
    6.1793   -0.9795   24.6473 H   0  0  0  0  0  0  0  0  0  0  0  0
    8.2835   -1.3782   22.8583 C   0  0  0  0  0  0  0  0  0  0  0  0
    8.6176   -1.4536   23.8822 H   0  0  0  0  0  0  0  0  0  0  0  0
    8.6044   -2.2893   21.9470 N   0  0  0  0  0  0  0  0  0  0  0  0
    8.0483   -1.8250   20.8184 N   0  0  0  0  0  0  0  0  0  0  0  0
    8.1344   -2.3591   19.9693 H   0  0  0  0  0  0  0  0  0  0  0  0
    5.4334    0.6622   20.1442 C   0  0  0  0  0  0  0  0  0  0  0  0
    5.0152    0.6259   21.1526 H   0  0  0  0  0  0  0  0  0  0  0  0
    4.7959    1.3184   19.0926 C   0  0  0  0  0  0  0  0  0  0  0  0
    3.8657    1.8481   19.2498 H   0  0  0  0  0  0  0  0  0  0  0  0
  1  2  1  0
  2  3  2  0
  3  4  1  0
  4  5  1  0
  4  6  2  0
  6  7  1  0
  7  8  2  0
  8  9  1  0
  9 10  1  0
  9 11  1  0
 11 12  2  0
 12 13  1  0
 12 14  1  0
 14 15  1  0
 14 16  2  0
 16 17  1  0
 17 18  1  0
 17 19  2  0
 19 20  1  0
  8 21  1  0
 21 22  1  0
 21 23  2  0
 23 24  1  0
 24 25  1  0
  6 26  1  0
 26 27  1  0
 26 28  2  0
 28 29  1  0
 28  2  1  0
 24  7  1  0
 19 11  1  0
M  END
>  <cnnaffinity>  (1) 
-5.26646

>  <filename>  (1) 
c1cncc(-c2[nH]ncc2Nc2ccncc2)c1

$$$$
