
     RDKit          3D

 34 37  0  0  0  0  0  0  0  0999 V2000
    4.9438    1.8642   17.0002 H   0  0  0  0  0  0  0  0  0  0  0  0
    5.4133    1.3204   17.8177 C   0  0  0  0  0  0  0  0  0  0  0  0
    6.5632    0.6908   17.5289 N   0  0  0  0  0  0  0  0  0  0  0  0
    7.1683    0.0174   18.5212 C   0  0  0  0  0  0  0  0  0  0  0  0
    8.0870   -0.5058   18.2600 H   0  0  0  0  0  0  0  0  0  0  0  0
    6.6721   -0.0699   19.8470 C   0  0  0  0  0  0  0  0  0  0  0  0
    7.3065   -0.8061   20.8626 N   0  0  0  0  0  0  0  0  0  0  0  0
    6.7262   -1.0160   21.6670 H   0  0  0  0  0  0  0  0  0  0  0  0
    8.6896   -0.8239   21.1346 C   0  0  0  0  0  0  0  0  0  0  0  0
    9.6963    0.1071   20.7927 C   0  0  0  0  0  0  0  0  0  0  0  0
    9.5543    1.0278   20.2425 H   0  0  0  0  0  0  0  0  0  0  0  0
   10.8911   -0.2652   21.2460 N   0  0  0  0  0  0  0  0  0  0  0  0
   10.6592   -1.4189   21.8961 N   0  0  0  0  0  0  0  0  0  0  0  0
   11.4505   -1.9625   22.2224 H   0  0  0  0  0  0  0  0  0  0  0  0
    9.3513   -1.8011   21.8688 C   0  0  0  0  0  0  0  0  0  0  0  0
    8.7931   -2.9908   22.4987 C   0  0  0  0  0  0  0  0  0  0  0  0
    7.8801   -3.7578   21.7658 C   0  0  0  0  0  0  0  0  0  0  0  0
    7.5899   -3.4110   20.7797 H   0  0  0  0  0  0  0  0  0  0  0  0
    7.3462   -4.9463   22.2916 C   0  0  0  0  0  0  0  0  0  0  0  0
    6.6542   -5.5324   21.6954 H   0  0  0  0  0  0  0  0  0  0  0  0
    7.6863   -5.3736   23.5714 C   0  0  0  0  0  0  0  0  0  0  0  0
    7.2904   -6.2959   23.9731 H   0  0  0  0  0  0  0  0  0  0  0  0
    8.5331   -4.5614   24.3432 C   0  0  0  0  0  0  0  0  0  0  0  0
    9.0818   -3.3550   23.8441 C   0  0  0  0  0  0  0  0  0  0  0  0
    9.7428   -2.7228   24.9528 C   0  0  0  0  0  0  0  0  0  0  0  0
   10.2461   -1.7624   24.8891 H   0  0  0  0  0  0  0  0  0  0  0  0
    9.5976   -3.5459   26.0395 C   0  0  0  0  0  0  0  0  0  0  0  0
    9.8682   -3.3819   27.0752 H   0  0  0  0  0  0  0  0  0  0  0  0
    8.8880   -4.6714   25.6684 N   0  0  0  0  0  0  0  0  0  0  0  0
    8.7294   -5.4980   26.2309 H   0  0  0  0  0  0  0  0  0  0  0  0
    5.4548    0.5750   20.1153 C   0  0  0  0  0  0  0  0  0  0  0  0
    5.0266    0.5325   21.1173 H   0  0  0  0  0  0  0  0  0  0  0  0
    4.8242    1.2842   19.0874 C   0  0  0  0  0  0  0  0  0  0  0  0
    3.8921    1.8129   19.2569 H   0  0  0  0  0  0  0  0  0  0  0  0
  1  2  1  0
  2  3  2  0
  3  4  1  0
  4  5  1  0
  4  6  2  0
  6  7  1  0
  7  8  1  0
  7  9  1  0
  9 10  1  0
 10 11  1  0
 10 12  2  0
 12 13  1  0
 13 14  1  0
 13 15  1  0
 15 16  1  0
 16 17  2  0
 17 18  1  0
 17 19  1  0
 19 20  1  0
 19 21  2  0
 21 22  1  0
 21 23  1  0
 23 24  2  0
 24 25  1  0
 25 26  1  0
 25 27  2  0
 27 28  1  0
 27 29  1  0
 29 30  1  0
  6 31  1  0
 31 32  1  0
 31 33  2  0
 33 34  1  0
 33  2  1  0
 15  9  2  0
 24 16  1  0
 29 23  1  0
M  END
>  <cnnaffinity>  (1) 
-5.84441

>  <filename>  (1) 
c1cncc(Nc2cn[nH]c2-c2cccc3[nH]ccc23)c1

$$$$
