
     RDKit          3D

 36 38  0  0  0  0  0  0  0  0999 V2000
    5.1012    1.7134   17.0128 H   0  0  0  0  0  0  0  0  0  0  0  0
    5.5199    1.2488   17.9036 C   0  0  0  0  0  0  0  0  0  0  0  0
    6.6609    0.5648   17.7276 N   0  0  0  0  0  0  0  0  0  0  0  0
    7.1918   -0.0224   18.8013 C   0  0  0  0  0  0  0  0  0  0  0  0
    8.0994   -0.5974   18.6386 H   0  0  0  0  0  0  0  0  0  0  0  0
    6.6521    0.0489   20.1010 C   0  0  0  0  0  0  0  0  0  0  0  0
    7.3696   -0.6733   21.1600 C   0  0  0  0  0  0  0  0  0  0  0  0
    7.9782   -1.8617   20.8333 N   0  0  0  0  0  0  0  0  0  0  0  0
    8.5753   -2.2819   21.9118 C   0  0  0  0  0  0  0  0  0  0  0  0
    9.1436   -3.1995   22.0110 H   0  0  0  0  0  0  0  0  0  0  0  0
    8.4038   -1.4110   22.9375 N   0  0  0  0  0  0  0  0  0  0  0  0
    8.9164   -1.4077   23.8026 H   0  0  0  0  0  0  0  0  0  0  0  0
    7.6573   -0.3474   22.4699 C   0  0  0  0  0  0  0  0  0  0  0  0
    7.5047    0.8691   23.3232 C   0  0  0  0  0  0  0  0  0  0  0  0
    7.1234    0.5556   24.3074 H   0  0  0  0  0  0  0  0  0  0  0  0
    6.7295    1.5167   22.8795 H   0  0  0  0  0  0  0  0  0  0  0  0
    8.7904    1.5603   23.5494 N   0  0  0  0  0  0  0  0  0  0  0  0
    8.6426    2.7562   24.3903 C   0  0  0  0  0  0  0  0  0  0  0  0
    8.1831    2.4468   25.3427 H   0  0  0  0  0  0  0  0  0  0  0  0
    9.6569    3.1132   24.6278 H   0  0  0  0  0  0  0  0  0  0  0  0
    7.8389    3.8907   23.7082 C   0  0  0  0  0  0  0  0  0  0  0  0
    6.7774    3.6076   23.6905 H   0  0  0  0  0  0  0  0  0  0  0  0
    7.9083    4.7975   24.3172 H   0  0  0  0  0  0  0  0  0  0  0  0
    8.3297    4.1820   22.2681 C   0  0  0  0  0  0  0  0  0  0  0  0
    7.6121    4.8150   21.7288 H   0  0  0  0  0  0  0  0  0  0  0  0
    9.2670    4.7601   22.3315 H   0  0  0  0  0  0  0  0  0  0  0  0
    8.5972    2.8915   21.4643 C   0  0  0  0  0  0  0  0  0  0  0  0
    7.6603    2.3958   21.1625 H   0  0  0  0  0  0  0  0  0  0  0  0
    9.1052    3.0909   20.5283 H   0  0  0  0  0  0  0  0  0  0  0  0
    9.4580    1.9309   22.2898 C   0  0  0  0  0  0  0  0  0  0  0  0
   10.4069    2.4243   22.5547 H   0  0  0  0  0  0  0  0  0  0  0  0
    9.7409    1.0277   21.7288 H   0  0  0  0  0  0  0  0  0  0  0  0
    5.4537    0.7628   20.2645 C   0  0  0  0  0  0  0  0  0  0  0  0
    4.9655    0.8315   21.2393 H   0  0  0  0  0  0  0  0  0  0  0  0
    4.8796    1.3656   19.1432 C   0  0  0  0  0  0  0  0  0  0  0  0
    3.9540    1.9257   19.2097 H   0  0  0  0  0  0  0  0  0  0  0  0
  1  2  1  0
  2  3  2  0
  3  4  1  0
  4  5  1  0
  4  6  2  0
  6  7  1  0
  7  8  1  0
  8  9  2  0
  9 10  1  0
  9 11  1  0
 11 12  1  0
 11 13  1  0
 13 14  1  0
 14 15  1  0
 14 16  1  0
 14 17  1  0
 17 18  1  0
 18 19  1  0
 18 20  1  0
 18 21  1  0
 21 22  1  0
 21 23  1  0
 21 24  1  0
 24 25  1  0
 24 26  1  0
 24 27  1  0
 27 28  1  0
 27 29  1  0
 27 30  1  0
 30 31  1  0
 30 32  1  0
  6 33  1  0
 33 34  1  0
 33 35  2  0
 35 36  1  0
 35  2  1  0
 13  7  2  0
 30 17  1  0
M  END
>  <cnnaffinity>  (1) 
-4.92278

>  <filename>  (1) 
c1cncc(-c2nc[nH]c2CN2CCCCC2)c1

$$$$
