
     RDKit          3D

 40 43  0  0  0  0  0  0  0  0999 V2000
    4.9101    1.8274   16.9537 H   0  0  0  0  0  0  0  0  0  0  0  0
    5.3820    1.3221   17.7974 C   0  0  0  0  0  0  0  0  0  0  0  0
    6.5421    0.6984   17.5371 N   0  0  0  0  0  0  0  0  0  0  0  0
    7.1536    0.0799   18.5573 C   0  0  0  0  0  0  0  0  0  0  0  0
    8.0923   -0.4149   18.3120 H   0  0  0  0  0  0  0  0  0  0  0  0
    6.6533    0.0236   19.8742 C   0  0  0  0  0  0  0  0  0  0  0  0
    7.3129   -0.7163   20.9681 C   0  0  0  0  0  0  0  0  0  0  0  0
    6.8265   -1.6811   21.8127 C   0  0  0  0  0  0  0  0  0  0  0  0
    5.8285   -2.1049   21.8040 H   0  0  0  0  0  0  0  0  0  0  0  0
    7.7901   -2.0944   22.6979 N   0  0  0  0  0  0  0  0  0  0  0  0
    8.8440   -1.3680   22.4162 C   0  0  0  0  0  0  0  0  0  0  0  0
    9.7969   -1.3927   22.9293 H   0  0  0  0  0  0  0  0  0  0  0  0
    8.6308   -0.5299   21.3628 N   0  0  0  0  0  0  0  0  0  0  0  0
    9.5808    0.4725   20.9450 C   0  0  0  0  0  0  0  0  0  0  0  0
    9.2283    0.8992   19.9952 H   0  0  0  0  0  0  0  0  0  0  0  0
   10.5293   -0.0477   20.7686 H   0  0  0  0  0  0  0  0  0  0  0  0
    9.7786    1.5047   21.9472 N   0  0  0  0  0  0  0  0  0  0  0  0
   10.9926    2.2938   21.6962 C   0  0  0  0  0  0  0  0  0  0  0  0
   11.8619    1.6202   21.7293 H   0  0  0  0  0  0  0  0  0  0  0  0
   10.9882    2.7386   20.6765 H   0  0  0  0  0  0  0  0  0  0  0  0
   11.1975    3.4177   22.7074 C   0  0  0  0  0  0  0  0  0  0  0  0
   12.4605    4.0150   22.8583 C   0  0  0  0  0  0  0  0  0  0  0  0
   13.2997    3.6451   22.2705 H   0  0  0  0  0  0  0  0  0  0  0  0
   12.6529    5.0757   23.7485 C   0  0  0  0  0  0  0  0  0  0  0  0
   13.6389    5.5252   23.8523 H   0  0  0  0  0  0  0  0  0  0  0  0
   11.5725    5.5551   24.4995 C   0  0  0  0  0  0  0  0  0  0  0  0
   11.7113    6.3826   25.1930 H   0  0  0  0  0  0  0  0  0  0  0  0
   10.3122    4.9682   24.3472 C   0  0  0  0  0  0  0  0  0  0  0  0
    9.4648    5.3387   24.9209 H   0  0  0  0  0  0  0  0  0  0  0  0
   10.1085    3.8998   23.4597 C   0  0  0  0  0  0  0  0  0  0  0  0
    8.7398    3.2381   23.3367 C   0  0  0  0  0  0  0  0  0  0  0  0
    8.5674    2.6057   24.2185 H   0  0  0  0  0  0  0  0  0  0  0  0
    7.9529    4.0032   23.3298 H   0  0  0  0  0  0  0  0  0  0  0  0
    8.6054    2.3793   22.0792 C   0  0  0  0  0  0  0  0  0  0  0  0
    8.4945    3.0309   21.1891 H   0  0  0  0  0  0  0  0  0  0  0  0
    7.6979    1.7626   22.1285 H   0  0  0  0  0  0  0  0  0  0  0  0
    5.4287    0.6686   20.1120 C   0  0  0  0  0  0  0  0  0  0  0  0
    4.9992    0.6496   21.1130 H   0  0  0  0  0  0  0  0  0  0  0  0
    4.7902    1.3344   19.0630 C   0  0  0  0  0  0  0  0  0  0  0  0
    3.8539    1.8613   19.2130 H   0  0  0  0  0  0  0  0  0  0  0  0
  1  2  1  0
  2  3  2  0
  3  4  1  0
  4  5  1  0
  4  6  2  0
  6  7  1  0
  7  8  2  0
  8  9  1  0
  8 10  1  0
 10 11  2  0
 11 12  1  0
 11 13  1  0
 13 14  1  0
 14 15  1  0
 14 16  1  0
 14 17  1  0
 17 18  1  0
 18 19  1  0
 18 20  1  0
 18 21  1  0
 21 22  2  0
 22 23  1  0
 22 24  1  0
 24 25  1  0
 24 26  2  0
 26 27  1  0
 26 28  1  0
 28 29  1  0
 28 30  2  0
 30 31  1  0
 31 32  1  0
 31 33  1  0
 31 34  1  0
 34 35  1  0
 34 36  1  0
  6 37  1  0
 37 38  1  0
 37 39  2  0
 39 40  1  0
 39  2  1  0
 13  7  1  0
 34 17  1  0
 30 21  1  0
M  END
>  <cnnaffinity>  (1) 
-5.39135

>  <filename>  (1) 
c1cncc(-c2cncn2CN2CCc3ccccc3C2)c1

$$$$
