
     RDKit          3D

 34 36  0  0  0  0  0  0  0  0999 V2000
    8.5222   -1.7246   19.6212 H   0  0  0  0  0  0  0  0  0  0  0  0
    8.3395   -1.4574   20.6490 C   0  0  0  0  0  0  0  0  0  0  0  0
    9.0122   -2.1458   21.5859 N   0  0  0  0  0  0  0  0  0  0  0  0
    8.8051   -1.7482   22.8506 C   0  0  0  0  0  0  0  0  0  0  0  0
    9.3474   -2.2719   23.6254 H   0  0  0  0  0  0  0  0  0  0  0  0
    7.9191   -0.6768   23.1810 C   0  0  0  0  0  0  0  0  0  0  0  0
    7.6380   -0.1515   24.4018 N   0  0  0  0  0  0  0  0  0  0  0  0
    6.9550    0.5736   24.2213 H   0  0  0  0  0  0  0  0  0  0  0  0
    7.9519   -0.5988   25.7346 C   0  0  0  0  0  0  0  0  0  0  0  0
    7.4565    0.1319   26.3915 H   0  0  0  0  0  0  0  0  0  0  0  0
    7.5994   -2.0470   26.2141 C   0  0  0  0  0  0  0  0  0  0  0  0
    7.1626   -2.6513   25.3728 H   0  0  0  0  0  0  0  0  0  0  0  0
    6.7111   -1.9582   26.8982 H   0  0  0  0  0  0  0  0  0  0  0  0
    9.0326   -2.4857   26.8767 C   0  0  0  0  0  0  0  0  0  0  0  0
    8.5325   -1.4861   28.2549 H   0  0  0  0  0  0  0  0  0  0  0  0
    8.4935   -3.4148   27.5747 H   0  0  0  0  0  0  0  0  0  0  0  0
    8.9581   -2.4062   26.9643 C   0  0  0  0  0  0  0  0  0  0  0  0
    9.7043   -3.3363   25.5905 H   0  0  0  0  0  0  0  0  0  0  0  0
   10.1034   -2.2857   27.5405 H   0  0  0  0  0  0  0  0  0  0  0  0
    9.4442   -0.8095   26.1887 C   0  0  0  0  0  0  0  0  0  0  0  0
    9.7384    0.0021   26.9162 H   0  0  0  0  0  0  0  0  0  0  0  0
   10.1929   -0.6911   25.3558 H   0  0  0  0  0  0  0  0  0  0  0  0
    7.2243   -0.0192   22.2260 N   0  0  0  0  0  0  0  0  0  0  0  0
    7.4290   -0.4116   20.9563 C   0  0  0  0  0  0  0  0  0  0  0  0
    6.6563    0.2582   19.8752 C   0  0  0  0  0  0  0  0  0  0  0  0
    7.1759    0.3041   18.5691 C   0  0  0  0  0  0  0  0  0  0  0  0
    8.1602   -0.1025   18.3428 H   0  0  0  0  0  0  0  0  0  0  0  0
    6.5462    0.8393   17.5231 N   0  0  0  0  0  0  0  0  0  0  0  0
    5.3437    1.3881   17.7459 C   0  0  0  0  0  0  0  0  0  0  0  0
    4.8552    1.8282   16.8801 H   0  0  0  0  0  0  0  0  0  0  0  0
    4.7337    1.4114   19.0035 C   0  0  0  0  0  0  0  0  0  0  0  0
    3.7692    1.8922   19.1201 H   0  0  0  0  0  0  0  0  0  0  0  0
    5.3963    0.8411   20.0900 C   0  0  0  0  0  0  0  0  0  0  0  0
    4.9596    0.8479   21.0898 H   0  0  0  0  0  0  0  0  0  0  0  0
  1  2  1  0
  2  3  2  0
  3  4  1  0
  4  5  1  0
  4  6  2  0
  6  7  1  0
  7  8  1  0
  7  9  1  0
  9 10  1  0
  9 11  1  0
 11 12  1  0
 11 13  1  0
 11 14  1  0
 14 15  1  0
 14 16  1  0
 14 17  1  0
 17 18  1  0
 17 19  1  0
 17 20  1  0
 20 21  1  0
 20 22  1  0
  6 23  1  0
 23 24  2  0
 24 25  1  0
 25 26  2  0
 26 27  1  0
 26 28  1  0
 28 29  2  0
 29 30  1  0
 29 31  1  0
 31 32  1  0
 31 33  2  0
 33 34  1  0
 24  2  1  0
 33 25  1  0
 20  9  1  0
M  END
>  <cnnaffinity>  (1) 
-4.69555

>  <filename>  (1) 
c1cncc(-c2cncc(NC3CCCC3)n2)c1

$$$$
