
     RDKit          3D

 30 33  0  0  0  0  0  0  0  0999 V2000
    4.9055    1.8087   16.9886 H   0  0  0  0  0  0  0  0  0  0  0  0
    5.3978    1.3044   17.8179 C   0  0  0  0  0  0  0  0  0  0  0  0
    6.5543    0.6863   17.5327 N   0  0  0  0  0  0  0  0  0  0  0  0
    7.2013    0.0635   18.5252 C   0  0  0  0  0  0  0  0  0  0  0  0
    8.1579   -0.4079   18.3012 H   0  0  0  0  0  0  0  0  0  0  0  0
    6.7028    0.0211   19.8399 C   0  0  0  0  0  0  0  0  0  0  0  0
    7.3055   -0.6698   20.8924 O   0  0  0  0  0  0  0  0  0  0  0  0
    8.6327   -0.7241   21.0473 C   0  0  0  0  0  0  0  0  0  0  0  0
    9.5671   -0.0549   20.4248 N   0  0  0  0  0  0  0  0  0  0  0  0
   10.7308   -0.5091   20.9516 N   0  0  0  0  0  0  0  0  0  0  0  0
   10.5322   -1.4084   21.8331 N   0  0  0  0  0  0  0  0  0  0  0  0
    9.1806   -1.5740   21.9368 N   0  0  0  0  0  0  0  0  0  0  0  0
    8.6027   -2.5025   22.8558 C   0  0  0  0  0  0  0  0  0  0  0  0
    7.2970   -2.3473   23.3477 C   0  0  0  0  0  0  0  0  0  0  0  0
    6.6883   -1.5030   23.0477 H   0  0  0  0  0  0  0  0  0  0  0  0
    6.7785   -3.2598   24.2899 C   0  0  0  0  0  0  0  0  0  0  0  0
    5.7746   -3.1522   24.6878 H   0  0  0  0  0  0  0  0  0  0  0  0
    7.5953   -4.2898   24.7156 C   0  0  0  0  0  0  0  0  0  0  0  0
    8.8840   -4.4468   24.2010 C   0  0  0  0  0  0  0  0  0  0  0  0
    9.4186   -3.5671   23.2879 C   0  0  0  0  0  0  0  0  0  0  0  0
   10.4377   -3.6430   22.9330 H   0  0  0  0  0  0  0  0  0  0  0  0
    9.4394   -5.5831   24.7203 O   0  0  0  0  0  0  0  0  0  0  0  0
    8.5598   -6.0156   25.7553 C   0  0  0  0  0  0  0  0  0  0  0  0
    8.3558   -7.0831   25.6513 H   0  0  0  0  0  0  0  0  0  0  0  0
    9.0103   -5.8251   26.7453 H   0  0  0  0  0  0  0  0  0  0  0  0
    7.3374   -5.2962   25.6047 O   0  0  0  0  0  0  0  0  0  0  0  0
    5.4898    0.6373   20.1344 C   0  0  0  0  0  0  0  0  0  0  0  0
    5.1061    0.6108   21.1558 H   0  0  0  0  0  0  0  0  0  0  0  0
    4.8300    1.2988   19.0981 C   0  0  0  0  0  0  0  0  0  0  0  0
    3.8976    1.8208   19.2735 H   0  0  0  0  0  0  0  0  0  0  0  0
  1  2  1  0
  2  3  2  0
  3  4  1  0
  4  5  1  0
  4  6  2  0
  6  7  1  0
  7  8  1  0
  8  9  2  0
  9 10  1  0
 10 11  2  0
 11 12  1  0
 12 13  1  0
 13 14  2  0
 14 15  1  0
 14 16  1  0
 16 17  1  0
 16 18  2  0
 18 19  1  0
 19 20  2  0
 20 21  1  0
 19 22  1  0
 22 23  1  0
 23 24  1  0
 23 25  1  0
 23 26  1  0
  6 27  1  0
 27 28  1  0
 27 29  2  0
 29 30  1  0
 29  2  1  0
 12  8  1  0
 20 13  1  0
 26 18  1  0
M  END
>  <cnnaffinity>  (1) 
-5.19299

>  <filename>  (1) 
c1cncc(Oc2nnnn2-c2ccc3c(c2)OCO3)c1

$$$$
