
     RDKit          3D

 33 36  0  0  0  0  0  0  0  0999 V2000
    5.1418    1.9497   16.1854 H   0  0  0  0  0  0  0  0  0  0  0  0
    5.3416    1.5804   17.1886 C   0  0  0  0  0  0  0  0  0  0  0  0
    6.4722    0.8734   17.3447 N   0  0  0  0  0  0  0  0  0  0  0  0
    6.7412    0.4097   18.5676 C   0  0  0  0  0  0  0  0  0  0  0  0
    7.6711   -0.1511   18.6716 H   0  0  0  0  0  0  0  0  0  0  0  0
    5.9102    0.6180   19.6882 C   0  0  0  0  0  0  0  0  0  0  0  0
    6.2926    0.0492   20.9727 C   0  0  0  0  0  0  0  0  0  0  0  0
    7.2923   -0.8660   20.9229 O   0  0  0  0  0  0  0  0  0  0  0  0
    7.5413   -1.2983   22.1793 C   0  0  0  0  0  0  0  0  0  0  0  0
    8.7628   -2.0641   22.3563 C   0  0  0  0  0  0  0  0  0  0  0  0
    9.8994   -1.6205   21.7051 C   0  0  0  0  0  0  0  0  0  0  0  0
    9.8354   -0.8578   20.9294 H   0  0  0  0  0  0  0  0  0  0  0  0
   11.1466   -2.0573   21.9930 N   0  0  0  0  0  0  0  0  0  0  0  0
   11.2773   -2.9642   22.9392 C   0  0  0  0  0  0  0  0  0  0  0  0
   12.2983   -3.2863   23.1314 H   0  0  0  0  0  0  0  0  0  0  0  0
   10.1967   -3.5461   23.6582 C   0  0  0  0  0  0  0  0  0  0  0  0
   10.3842   -4.5125   24.6972 C   0  0  0  0  0  0  0  0  0  0  0  0
   11.3817   -4.7616   25.0488 H   0  0  0  0  0  0  0  0  0  0  0  0
    9.2970   -5.1305   25.2622 C   0  0  0  0  0  0  0  0  0  0  0  0
    9.4484   -5.8521   26.0605 H   0  0  0  0  0  0  0  0  0  0  0  0
    7.9805   -4.8149   24.8306 C   0  0  0  0  0  0  0  0  0  0  0  0
    7.1368   -5.3171   25.2932 H   0  0  0  0  0  0  0  0  0  0  0  0
    7.7711   -3.8503   23.8589 C   0  0  0  0  0  0  0  0  0  0  0  0
    6.7751   -3.6073   23.5041 H   0  0  0  0  0  0  0  0  0  0  0  0
    8.8758   -3.1472   23.2881 C   0  0  0  0  0  0  0  0  0  0  0  0
    6.7092   -0.6581   23.0507 C   0  0  0  0  0  0  0  0  0  0  0  0
    6.6894   -0.8033   24.1225 H   0  0  0  0  0  0  0  0  0  0  0  0
    5.9166    0.2359   22.2661 C   0  0  0  0  0  0  0  0  0  0  0  0
    5.1587    0.9121   22.6298 H   0  0  0  0  0  0  0  0  0  0  0  0
    4.7401    1.3729   19.5096 C   0  0  0  0  0  0  0  0  0  0  0  0
    4.0633    1.6014   20.3344 H   0  0  0  0  0  0  0  0  0  0  0  0
    4.4507    1.8427   18.2308 C   0  0  0  0  0  0  0  0  0  0  0  0
    3.5527    2.4087   18.0201 H   0  0  0  0  0  0  0  0  0  0  0  0
  1  2  1  0
  2  3  2  0
  3  4  1  0
  4  5  1  0
  4  6  2  0
  6  7  1  0
  7  8  1  0
  8  9  1  0
  9 10  1  0
 10 11  2  0
 11 12  1  0
 11 13  1  0
 13 14  2  0
 14 15  1  0
 14 16  1  0
 16 17  2  0
 17 18  1  0
 17 19  1  0
 19 20  1  0
 19 21  2  0
 21 22  1  0
 21 23  1  0
 23 24  1  0
 23 25  2  0
  9 26  2  0
 26 27  1  0
 26 28  1  0
 28 29  1  0
  6 30  1  0
 30 31  1  0
 30 32  2  0
 32 33  1  0
 32  2  1  0
 28  7  2  0
 25 10  1  0
 25 16  1  0
M  END
>  <cnnaffinity>  (1) 
-5.55378

>  <filename>  (1) 
c1cncc(-c2ccc(-c3cncc4ccccc34)o2)c1

$$$$
