
     RDKit          3D

 45 47  0  0  0  0  0  0  0  0999 V2000
    4.9758    1.8695   16.8318 H   0  0  0  0  0  0  0  0  0  0  0  0
    5.3996    1.3879   17.7081 C   0  0  0  0  0  0  0  0  0  0  0  0
    6.5499    0.7206   17.5108 N   0  0  0  0  0  0  0  0  0  0  0  0
    7.1063    0.1152   18.5696 C   0  0  0  0  0  0  0  0  0  0  0  0
    8.0479   -0.4072   18.3924 H   0  0  0  0  0  0  0  0  0  0  0  0
    6.5587    0.1301   19.8766 C   0  0  0  0  0  0  0  0  0  0  0  0
    7.1059   -0.5736   20.9761 N   0  0  0  0  0  0  0  0  0  0  0  0
    7.7365   -1.8658   20.7449 C   0  0  0  0  0  0  0  0  0  0  0  0
    7.1651   -2.3485   19.9455 H   0  0  0  0  0  0  0  0  0  0  0  0
    8.7840   -1.7631   20.3921 H   0  0  0  0  0  0  0  0  0  0  0  0
    7.6692   -2.7409   22.0050 C   0  0  0  0  0  0  0  0  0  0  0  0
    8.2266   -3.6684   21.8316 H   0  0  0  0  0  0  0  0  0  0  0  0
    6.6175   -3.0329   22.1455 H   0  0  0  0  0  0  0  0  0  0  0  0
    8.1827   -2.0303   23.2763 C   0  0  0  0  0  0  0  0  0  0  0  0
    9.2791   -1.9087   23.1979 H   0  0  0  0  0  0  0  0  0  0  0  0
    7.8550   -2.8087   24.5716 C   0  0  0  0  0  0  0  0  0  0  0  0
    6.7610   -2.9236   24.6194 H   0  0  0  0  0  0  0  0  0  0  0  0
    8.1213   -2.1765   25.4361 H   0  0  0  0  0  0  0  0  0  0  0  0
    8.4896   -4.1950   24.7948 C   0  0  0  0  0  0  0  0  0  0  0  0
    8.1454   -4.8753   23.9953 H   0  0  0  0  0  0  0  0  0  0  0  0
    8.0371   -4.7839   26.1545 C   0  0  0  0  0  0  0  0  0  0  0  0
    6.9388   -4.7777   26.2382 H   0  0  0  0  0  0  0  0  0  0  0  0
    8.4131   -4.1228   26.9553 H   0  0  0  0  0  0  0  0  0  0  0  0
    8.5541   -6.2288   26.3846 C   0  0  0  0  0  0  0  0  0  0  0  0
    8.6588   -6.3868   27.4680 H   0  0  0  0  0  0  0  0  0  0  0  0
    7.7865   -6.9394   26.0616 H   0  0  0  0  0  0  0  0  0  0  0  0
    9.8882   -6.5321   25.6500 C   0  0  0  0  0  0  0  0  0  0  0  0
   10.4315   -7.3441   26.1458 H   0  0  0  0  0  0  0  0  0  0  0  0
    9.6882   -6.9218   24.6412 H   0  0  0  0  0  0  0  0  0  0  0  0
   10.7695   -5.2788   25.5057 C   0  0  0  0  0  0  0  0  0  0  0  0
   11.0700   -4.9266   26.5065 H   0  0  0  0  0  0  0  0  0  0  0  0
   11.7019   -5.5423   24.9928 H   0  0  0  0  0  0  0  0  0  0  0  0
   10.0417   -4.1389   24.7340 C   0  0  0  0  0  0  0  0  0  0  0  0
   10.3480   -4.1375   23.6774 H   0  0  0  0  0  0  0  0  0  0  0  0
   10.3734   -3.1782   25.1484 H   0  0  0  0  0  0  0  0  0  0  0  0
    7.5394   -0.6261   23.3628 C   0  0  0  0  0  0  0  0  0  0  0  0
    7.9468   -0.0707   24.2165 H   0  0  0  0  0  0  0  0  0  0  0  0
    6.4628   -0.7562   23.5512 H   0  0  0  0  0  0  0  0  0  0  0  0
    7.6979    0.1839   22.0751 C   0  0  0  0  0  0  0  0  0  0  0  0
    7.1826    1.1477   22.1558 H   0  0  0  0  0  0  0  0  0  0  0  0
    8.7659    0.4238   21.8892 H   0  0  0  0  0  0  0  0  0  0  0  0
    5.3727    0.8660   20.0604 C   0  0  0  0  0  0  0  0  0  0  0  0
    4.9492    0.9070   21.0649 H   0  0  0  0  0  0  0  0  0  0  0  0
    4.7739    1.4841   18.9587 C   0  0  0  0  0  0  0  0  0  0  0  0
    3.8521    2.0493   19.0604 H   0  0  0  0  0  0  0  0  0  0  0  0
  1  2  1  0
  2  3  2  0
  3  4  1  0
  4  5  1  0
  4  6  2  0
  6  7  1  0
  7  8  1  0
  8  9  1  0
  8 10  1  0
  8 11  1  0
 11 12  1  0
 11 13  1  0
 11 14  1  0
 14 15  1  0
 14 16  1  0
 16 17  1  0
 16 18  1  0
 16 19  1  0
 19 20  1  0
 19 21  1  0
 21 22  1  0
 21 23  1  0
 21 24  1  0
 24 25  1  0
 24 26  1  0
 24 27  1  0
 27 28  1  0
 27 29  1  0
 27 30  1  0
 30 31  1  0
 30 32  1  0
 30 33  1  0
 33 34  1  0
 33 35  1  0
 14 36  1  0
 36 37  1  0
 36 38  1  0
 36 39  1  0
 39 40  1  0
 39 41  1  0
  6 42  1  0
 42 43  1  0
 42 44  2  0
 44 45  1  0
 44  2  1  0
 39  7  1  0
 33 19  1  0
M  END
>  <cnnaffinity>  (1) 
-5.23391

>  <filename>  (1) 
c1cncc(N2CCC(CC3CCCCC3)CC2)c1

$$$$
