
     RDKit          3D

 39 42  0  0  0  0  0  0  0  0999 V2000
    4.9483    1.8041   16.9811 H   0  0  0  0  0  0  0  0  0  0  0  0
    5.4008    1.2908   17.8277 C   0  0  0  0  0  0  0  0  0  0  0  0
    6.5519    0.6535   17.5808 N   0  0  0  0  0  0  0  0  0  0  0  0
    7.1593    0.0387   18.6006 C   0  0  0  0  0  0  0  0  0  0  0  0
    8.0926   -0.4639   18.3645 H   0  0  0  0  0  0  0  0  0  0  0  0
    6.6640    0.0339   19.9132 C   0  0  0  0  0  0  0  0  0  0  0  0
    7.4453   -0.6187   20.9688 C   0  0  0  0  0  0  0  0  0  0  0  0
    8.0891   -1.8218   20.7528 N   0  0  0  0  0  0  0  0  0  0  0  0
    8.5741   -2.1289   21.9251 C   0  0  0  0  0  0  0  0  0  0  0  0
    9.4769   -3.4375   22.6255 S   0  0  0  0  0  0  0  0  0  0  0  0
    9.7046   -2.5311   24.1031 C   0  0  0  0  0  0  0  0  0  0  0  0
   10.3406   -2.9541   24.8717 H   0  0  0  0  0  0  0  0  0  0  0  0
    9.0337   -1.3670   24.0846 C   0  0  0  0  0  0  0  0  0  0  0  0
    8.9361   -0.6058   24.8513 H   0  0  0  0  0  0  0  0  0  0  0  0
    8.3605   -1.1753   22.8804 N   0  0  0  0  0  0  0  0  0  0  0  0
    7.6234   -0.1914   22.2718 C   0  0  0  0  0  0  0  0  0  0  0  0
    7.2560    1.1022   22.8946 C   0  0  0  0  0  0  0  0  0  0  0  0
    7.7324    1.1737   23.8937 H   0  0  0  0  0  0  0  0  0  0  0  0
    6.1716    1.1231   23.0731 H   0  0  0  0  0  0  0  0  0  0  0  0
    7.6042    2.2045   22.0104 N   0  0  0  0  0  0  0  0  0  0  0  0
    9.0493    2.4310   21.9009 C   0  0  0  0  0  0  0  0  0  0  0  0
    9.5230    1.4567   21.7284 H   0  0  0  0  0  0  0  0  0  0  0  0
    9.2013    3.0229   20.9881 H   0  0  0  0  0  0  0  0  0  0  0  0
    9.6593    3.1407   23.1302 C   0  0  0  0  0  0  0  0  0  0  0  0
    9.6285    2.4445   23.9820 H   0  0  0  0  0  0  0  0  0  0  0  0
   10.7204    3.3466   22.9449 H   0  0  0  0  0  0  0  0  0  0  0  0
    8.8896    4.4326   23.4821 C   0  0  0  0  0  0  0  0  0  0  0  0
    9.0768    5.1907   22.7059 H   0  0  0  0  0  0  0  0  0  0  0  0
    9.2624    4.8658   24.4199 H   0  0  0  0  0  0  0  0  0  0  0  0
    7.3736    4.1548   23.5705 C   0  0  0  0  0  0  0  0  0  0  0  0
    7.1613    3.5079   24.4345 H   0  0  0  0  0  0  0  0  0  0  0  0
    6.8015    5.0765   23.7264 H   0  0  0  0  0  0  0  0  0  0  0  0
    6.8807    3.4443   22.2957 C   0  0  0  0  0  0  0  0  0  0  0  0
    5.8104    3.2034   22.3456 H   0  0  0  0  0  0  0  0  0  0  0  0
    7.0067    4.1061   21.4281 H   0  0  0  0  0  0  0  0  0  0  0  0
    5.4337    0.6739   20.1484 C   0  0  0  0  0  0  0  0  0  0  0  0
    4.9628    0.6729   21.1362 H   0  0  0  0  0  0  0  0  0  0  0  0
    4.7930    1.3145   19.0868 C   0  0  0  0  0  0  0  0  0  0  0  0
    3.8559    1.8418   19.2231 H   0  0  0  0  0  0  0  0  0  0  0  0
  1  2  1  0
  2  3  2  0
  3  4  1  0
  4  5  1  0
  4  6  2  0
  6  7  1  0
  7  8  1  0
  8  9  2  0
  9 10  1  0
 10 11  1  0
 11 12  1  0
 11 13  2  0
 13 14  1  0
 13 15  1  0
 15 16  1  0
 16 17  1  0
 17 18  1  0
 17 19  1  0
 17 20  1  0
 20 21  1  0
 21 22  1  0
 21 23  1  0
 21 24  1  0
 24 25  1  0
 24 26  1  0
 24 27  1  0
 27 28  1  0
 27 29  1  0
 27 30  1  0
 30 31  1  0
 30 32  1  0
 30 33  1  0
 33 34  1  0
 33 35  1  0
  6 36  1  0
 36 37  1  0
 36 38  2  0
 38 39  1  0
 38  2  1  0
 16  7  2  0
 33 20  1  0
 15  9  1  0
M  END
>  <cnnaffinity>  (1) 
-5.69831

>  <filename>  (1) 
c1cncc(-c2nc3sccn3c2CN2CCCCC2)c1

$$$$
