
     RDKit          3D

 36 38  0  0  0  0  0  0  0  0999 V2000
    4.9995    1.8101   16.9698 H   0  0  0  0  0  0  0  0  0  0  0  0
    5.4495    1.2961   17.8167 C   0  0  0  0  0  0  0  0  0  0  0  0
    6.6017    0.6541   17.5734 N   0  0  0  0  0  0  0  0  0  0  0  0
    7.1759    0.0145   18.5943 C   0  0  0  0  0  0  0  0  0  0  0  0
    8.0967   -0.5188   18.3692 H   0  0  0  0  0  0  0  0  0  0  0  0
    6.6580   -0.0038   19.8982 C   0  0  0  0  0  0  0  0  0  0  0  0
    7.4110   -0.7107   20.9444 C   0  0  0  0  0  0  0  0  0  0  0  0
    8.0175   -1.8425   20.6838 N   0  0  0  0  0  0  0  0  0  0  0  0
    8.6021   -2.2505   21.8551 O   0  0  0  0  0  0  0  0  0  0  0  0
    8.3552   -1.3354   22.7970 C   0  0  0  0  0  0  0  0  0  0  0  0
    8.8150   -1.5277   23.7581 H   0  0  0  0  0  0  0  0  0  0  0  0
    7.6037   -0.3182   22.3091 C   0  0  0  0  0  0  0  0  0  0  0  0
    7.2944    1.0068   22.9427 C   0  0  0  0  0  0  0  0  0  0  0  0
    6.2402    1.2681   22.8032 H   0  0  0  0  0  0  0  0  0  0  0  0
    7.4259    0.9351   24.0285 H   0  0  0  0  0  0  0  0  0  0  0  0
    8.1960    2.1384   22.4023 C   0  0  0  0  0  0  0  0  0  0  0  0
    8.0885    2.1541   21.3053 H   0  0  0  0  0  0  0  0  0  0  0  0
    7.7384    3.5202   22.9276 C   0  0  0  0  0  0  0  0  0  0  0  0
    7.6468    3.4856   24.0268 H   0  0  0  0  0  0  0  0  0  0  0  0
    6.7355    3.7334   22.5241 H   0  0  0  0  0  0  0  0  0  0  0  0
    8.6990    4.6587   22.5400 C   0  0  0  0  0  0  0  0  0  0  0  0
    8.4207    5.5870   23.0586 H   0  0  0  0  0  0  0  0  0  0  0  0
    8.5661    4.8790   21.4731 H   0  0  0  0  0  0  0  0  0  0  0  0
   10.1524    4.3016   22.9050 C   0  0  0  0  0  0  0  0  0  0  0  0
   10.1774    4.2173   23.9992 H   0  0  0  0  0  0  0  0  0  0  0  0
   10.8432    5.1070   22.6327 H   0  0  0  0  0  0  0  0  0  0  0  0
   10.6385    2.9614   22.3351 C   0  0  0  0  0  0  0  0  0  0  0  0
   11.6394    2.7348   22.7284 H   0  0  0  0  0  0  0  0  0  0  0  0
   10.7507    3.0086   21.2442 H   0  0  0  0  0  0  0  0  0  0  0  0
    9.6811    1.8317   22.7162 C   0  0  0  0  0  0  0  0  0  0  0  0
    9.9787    0.9110   22.1936 H   0  0  0  0  0  0  0  0  0  0  0  0
    9.7866    1.6351   23.7959 H   0  0  0  0  0  0  0  0  0  0  0  0
    5.4385    0.6518   20.1323 C   0  0  0  0  0  0  0  0  0  0  0  0
    4.9746    0.6332   21.1191 H   0  0  0  0  0  0  0  0  0  0  0  0
    4.8237    1.3088   19.0672 C   0  0  0  0  0  0  0  0  0  0  0  0
    3.8811    1.8286   19.1949 H   0  0  0  0  0  0  0  0  0  0  0  0
  1  2  1  0
  2  3  2  0
  3  4  1  0
  4  5  1  0
  4  6  2  0
  6  7  1  0
  7  8  2  0
  8  9  1  0
  9 10  1  0
 10 11  1  0
 10 12  2  0
 12 13  1  0
 13 14  1  0
 13 15  1  0
 13 16  1  0
 16 17  1  0
 16 18  1  0
 18 19  1  0
 18 20  1  0
 18 21  1  0
 21 22  1  0
 21 23  1  0
 21 24  1  0
 24 25  1  0
 24 26  1  0
 24 27  1  0
 27 28  1  0
 27 29  1  0
 27 30  1  0
 30 31  1  0
 30 32  1  0
  6 33  1  0
 33 34  1  0
 33 35  2  0
 35 36  1  0
 35  2  1  0
 12  7  1  0
 30 16  1  0
M  END
>  <cnnaffinity>  (1) 
-5.11765

>  <filename>  (1) 
c1cncc(-c2nocc2CC2CCCCC2)c1

$$$$
