
     RDKit          3D

 39 41  0  0  0  0  0  0  0  0999 V2000
    4.7664    1.3581   18.9072 C   0  0  0  0  0  0  0  0  0  0  0  0
    5.4255    1.3280   17.6703 C   0  0  0  0  0  0  0  0  0  0  0  0
    6.5610    0.6474   17.4583 N   0  0  0  0  0  0  0  0  0  0  0  0
    7.0965    0.0125   18.5025 C   0  0  0  0  0  0  0  0  0  0  0  0
    6.5452    0.0115   19.7908 C   0  0  0  0  0  0  0  0  0  0  0  0
    7.3240   -0.6061   20.8749 C   0  0  0  0  0  0  0  0  0  0  0  0
    6.8801   -0.5808   22.1218 N   0  0  0  0  0  0  0  0  0  0  0  0
    7.8874   -1.1318   22.8388 N   0  0  0  0  0  0  0  0  0  0  0  0
    8.9152   -1.5487   22.0645 C   0  0  0  0  0  0  0  0  0  0  0  0
   10.0411   -2.1265   22.5898 N   0  0  0  0  0  0  0  0  0  0  0  0
   10.0692   -2.6932   23.9212 C   0  0  0  0  0  0  0  0  0  0  0  0
    9.4013   -4.0636   24.1016 C   0  0  0  0  0  0  0  0  0  0  0  0
    9.9424   -4.7180   25.3854 C   0  0  0  0  0  0  0  0  0  0  0  0
    9.2669   -6.0626   25.6687 C   0  0  0  0  0  0  0  0  0  0  0  0
    7.7387   -5.9304   25.7235 C   0  0  0  0  0  0  0  0  0  0  0  0
    7.1960   -5.3543   24.4096 C   0  0  0  0  0  0  0  0  0  0  0  0
    7.8599   -4.0074   24.0919 C   0  0  0  0  0  0  0  0  0  0  0  0
    7.5146   -3.6281   23.1229 H   0  0  0  0  0  0  0  0  0  0  0  0
    7.5128   -3.2965   24.8614 H   0  0  0  0  0  0  0  0  0  0  0  0
    6.1089   -5.2258   24.4492 H   0  0  0  0  0  0  0  0  0  0  0  0
    7.3720   -6.0764   23.6006 H   0  0  0  0  0  0  0  0  0  0  0  0
    7.2657   -6.8887   25.9533 H   0  0  0  0  0  0  0  0  0  0  0  0
    7.4675   -5.2718   26.5599 H   0  0  0  0  0  0  0  0  0  0  0  0
    9.5450   -6.7690   24.8728 H   0  0  0  0  0  0  0  0  0  0  0  0
    9.6474   -6.4831   26.5998 H   0  0  0  0  0  0  0  0  0  0  0  0
    9.7926   -4.0257   26.2330 H   0  0  0  0  0  0  0  0  0  0  0  0
   11.0291   -4.8621   25.2846 H   0  0  0  0  0  0  0  0  0  0  0  0
    9.7024   -4.6826   23.2476 H   0  0  0  0  0  0  0  0  0  0  0  0
   11.1183   -2.7907   24.1884 H   0  0  0  0  0  0  0  0  0  0  0  0
    9.6432   -1.9663   24.6245 H   0  0  0  0  0  0  0  0  0  0  0  0
   10.5648   -2.6249   21.8883 H   0  0  0  0  0  0  0  0  0  0  0  0
    8.6005   -1.2124   20.7795 C   0  0  0  0  0  0  0  0  0  0  0  0
    9.2266   -1.3674   19.9206 H   0  0  0  0  0  0  0  0  0  0  0  0
    7.7650   -1.4042   23.7969 H   0  0  0  0  0  0  0  0  0  0  0  0
    5.3229    0.6757   19.9851 C   0  0  0  0  0  0  0  0  0  0  0  0
    4.8443    0.6677   20.9678 H   0  0  0  0  0  0  0  0  0  0  0  0
    8.0231   -0.5200   18.3042 H   0  0  0  0  0  0  0  0  0  0  0  0
    5.0230    1.8720   16.8195 H   0  0  0  0  0  0  0  0  0  0  0  0
    3.8573    1.9372   19.0186 H   0  0  0  0  0  0  0  0  0  0  0  0
  1  2  2  0
  2  3  1  0
  3  4  2  0
  4  5  1  0
  5  6  1  0
  6  7  2  0
  7  8  1  0
  8  9  1  0
  9 10  1  0
 10 11  1  0
 11 12  1  0
 12 13  1  0
 13 14  1  0
 14 15  1  0
 15 16  1  0
 16 17  1  0
 17 18  1  0
 17 19  1  0
 16 20  1  0
 16 21  1  0
 15 22  1  0
 15 23  1  0
 14 24  1  0
 14 25  1  0
 13 26  1  0
 13 27  1  0
 12 28  1  0
 11 29  1  0
 11 30  1  0
 10 31  1  0
  9 32  2  0
 32 33  1  0
  8 34  1  0
  5 35  2  0
 35 36  1  0
  4 37  1  0
  2 38  1  0
  1 39  1  0
 35  1  1  0
 32  6  1  0
 17 12  1  0
M  END
>  <cnnaffinity>  (1) 
-5.03571

>  <filename>  (1) 
c1cncc(-c2cc(NCC3CCCCC3)[nH]n2)c1

$$$$
