
     RDKit          3D

 34 36  0  0  0  0  0  0  0  0999 V2000
    5.1604    1.6852   17.2167 H   0  0  0  0  0  0  0  0  0  0  0  0
    5.5174    1.1314   18.0813 C   0  0  0  0  0  0  0  0  0  0  0  0
    6.6222    0.4000   17.8813 N   0  0  0  0  0  0  0  0  0  0  0  0
    7.1089   -0.2559   18.9308 C   0  0  0  0  0  0  0  0  0  0  0  0
    7.9953   -0.8540   18.7257 H   0  0  0  0  0  0  0  0  0  0  0  0
    6.5638   -0.2194   20.2278 C   0  0  0  0  0  0  0  0  0  0  0  0
    7.3626   -0.8607   21.3022 C   0  0  0  0  0  0  0  0  0  0  0  0
    6.7190   -1.4021   22.3441 N   0  0  0  0  0  0  0  0  0  0  0  0
    7.4551   -2.0690   23.2442 C   0  0  0  0  0  0  0  0  0  0  0  0
    6.8170   -2.6619   24.3433 N   0  0  0  0  0  0  0  0  0  0  0  0
    6.9115   -4.1225   24.5207 C   0  0  0  0  0  0  0  0  0  0  0  0
    7.9299   -4.4618   24.2917 H   0  0  0  0  0  0  0  0  0  0  0  0
    6.2150   -4.6309   23.8254 H   0  0  0  0  0  0  0  0  0  0  0  0
    6.4957   -4.5854   25.9442 C   0  0  0  0  0  0  0  0  0  0  0  0
    7.2513   -4.2816   26.6800 H   0  0  0  0  0  0  0  0  0  0  0  0
    6.4587   -5.6793   25.9310 H   0  0  0  0  0  0  0  0  0  0  0  0
    5.1912   -4.0855   26.4163 N   0  0  0  0  0  0  0  0  0  0  0  0
    4.4347   -4.5596   25.9233 H   0  0  0  0  0  0  0  0  0  0  0  0
    5.1157   -2.6363   26.1811 C   0  0  0  0  0  0  0  0  0  0  0  0
    5.7963   -2.1559   26.8951 H   0  0  0  0  0  0  0  0  0  0  0  0
    4.0998   -2.2889   26.4083 H   0  0  0  0  0  0  0  0  0  0  0  0
    5.4894   -2.1921   24.7490 C   0  0  0  0  0  0  0  0  0  0  0  0
    5.4704   -1.1013   24.7031 H   0  0  0  0  0  0  0  0  0  0  0  0
    4.7180   -2.5930   24.0688 H   0  0  0  0  0  0  0  0  0  0  0  0
    8.8579   -2.1904   23.1652 C   0  0  0  0  0  0  0  0  0  0  0  0
    9.3717   -2.7402   23.9428 H   0  0  0  0  0  0  0  0  0  0  0  0
    9.5268   -1.5580   22.1256 C   0  0  0  0  0  0  0  0  0  0  0  0
   10.6104   -1.6140   22.0159 H   0  0  0  0  0  0  0  0  0  0  0  0
    8.7623   -0.8723   21.1839 C   0  0  0  0  0  0  0  0  0  0  0  0
    9.2301   -0.3237   20.3790 H   0  0  0  0  0  0  0  0  0  0  0  0
    5.3526    0.4708   20.4002 C   0  0  0  0  0  0  0  0  0  0  0  0
    4.8318    0.4697   21.3609 H   0  0  0  0  0  0  0  0  0  0  0  0
    4.8395    1.1764   19.3061 C   0  0  0  0  0  0  0  0  0  0  0  0
    3.9386    1.7745   19.3809 H   0  0  0  0  0  0  0  0  0  0  0  0
  1  2  1  0
  2  3  2  0
  3  4  1  0
  4  5  1  0
  4  6  2  0
  6  7  1  0
  7  8  2  0
  8  9  1  0
  9 10  1  0
 10 11  1  0
 11 12  1  0
 11 13  1  0
 11 14  1  0
 14 15  1  0
 14 16  1  0
 14 17  1  0
 17 18  1  0
 17 19  1  0
 19 20  1  0
 19 21  1  0
 19 22  1  0
 22 23  1  0
 22 24  1  0
  9 25  2  0
 25 26  1  0
 25 27  1  0
 27 28  1  0
 27 29  2  0
 29 30  1  0
  6 31  1  0
 31 32  1  0
 31 33  2  0
 33 34  1  0
 33  2  1  0
 29  7  1  0
 22 10  1  0
M  END
>  <cnnaffinity>  (1) 
-4.66961

>  <filename>  (1) 
c1cncc(-c2cccc(N3CCNCC3)n2)c1

$$$$
