
     RDKit          3D

 32 35  0  0  0  0  0  0  0  0999 V2000
    4.9284    1.7789   16.9977 H   0  0  0  0  0  0  0  0  0  0  0  0
    5.4076    1.2869   17.8432 C   0  0  0  0  0  0  0  0  0  0  0  0
    6.5706    0.6623   17.5928 N   0  0  0  0  0  0  0  0  0  0  0  0
    7.1884    0.0531   18.6086 C   0  0  0  0  0  0  0  0  0  0  0  0
    8.1309   -0.4286   18.3744 H   0  0  0  0  0  0  0  0  0  0  0  0
    6.6727    0.0073   19.9143 C   0  0  0  0  0  0  0  0  0  0  0  0
    7.3765   -0.6831   20.9317 N   0  0  0  0  0  0  0  0  0  0  0  0
    8.6978   -0.9368   20.8447 N   0  0  0  0  0  0  0  0  0  0  0  0
    8.9942   -1.5825   21.9550 C   0  0  0  0  0  0  0  0  0  0  0  0
   10.0138   -1.8989   22.1254 H   0  0  0  0  0  0  0  0  0  0  0  0
    7.8638   -1.7850   22.7899 C   0  0  0  0  0  0  0  0  0  0  0  0
    7.7863   -2.4641   24.0896 C   0  0  0  0  0  0  0  0  0  0  0  0
    6.5221   -2.6024   24.7423 C   0  0  0  0  0  0  0  0  0  0  0  0
    5.6255   -2.2003   24.2742 H   0  0  0  0  0  0  0  0  0  0  0  0
    6.4124   -3.2389   25.9671 C   0  0  0  0  0  0  0  0  0  0  0  0
    5.4530   -3.3466   26.4680 H   0  0  0  0  0  0  0  0  0  0  0  0
    7.5732   -3.7578   26.5743 C   0  0  0  0  0  0  0  0  0  0  0  0
    7.8330   -4.4686   27.7948 C   0  0  0  0  0  0  0  0  0  0  0  0
    7.0835   -4.7303   28.5287 H   0  0  0  0  0  0  0  0  0  0  0  0
    9.1719   -4.7305   27.8361 C   0  0  0  0  0  0  0  0  0  0  0  0
    9.7752   -5.2497   28.5741 H   0  0  0  0  0  0  0  0  0  0  0  0
    9.7650   -4.2053   26.7065 N   0  0  0  0  0  0  0  0  0  0  0  0
   10.7391   -4.2411   26.4753 H   0  0  0  0  0  0  0  0  0  0  0  0
    8.8183   -3.6116   25.9140 C   0  0  0  0  0  0  0  0  0  0  0  0
    8.9463   -2.9710   24.6779 C   0  0  0  0  0  0  0  0  0  0  0  0
    9.9179   -2.8726   24.1946 H   0  0  0  0  0  0  0  0  0  0  0  0
    6.8534   -1.1890   22.0716 C   0  0  0  0  0  0  0  0  0  0  0  0
    5.8040   -1.0948   22.2682 H   0  0  0  0  0  0  0  0  0  0  0  0
    5.4471    0.6458   20.1710 C   0  0  0  0  0  0  0  0  0  0  0  0
    5.0041    0.6507   21.1693 H   0  0  0  0  0  0  0  0  0  0  0  0
    4.8170    1.3029   19.1113 C   0  0  0  0  0  0  0  0  0  0  0  0
    3.8839    1.8344   19.2630 H   0  0  0  0  0  0  0  0  0  0  0  0
  1  2  1  0
  2  3  2  0
  3  4  1  0
  4  5  1  0
  4  6  2  0
  6  7  1  0
  7  8  1  0
  8  9  2  0
  9 10  1  0
  9 11  1  0
 11 12  1  0
 12 13  2  0
 13 14  1  0
 13 15  1  0
 15 16  1  0
 15 17  2  0
 17 18  1  0
 18 19  1  0
 18 20  2  0
 20 21  1  0
 20 22  1  0
 22 23  1  0
 22 24  1  0
 24 25  2  0
 25 26  1  0
 11 27  2  0
 27 28  1  0
  6 29  1  0
 29 30  1  0
 29 31  2  0
 31 32  1  0
 31  2  1  0
 27  7  1  0
 25 12  1  0
 24 17  1  0
M  END
>  <cnnaffinity>  (1) 
-5.18474

>  <filename>  (1) 
c1cncc(-n2cc(-c3ccc4cc[nH]c4c3)cn2)c1

$$$$
