
     RDKit          3D

 39 42  0  0  0  0  0  0  0  0999 V2000
    4.9140    1.9370   16.8354 H   0  0  0  0  0  0  0  0  0  0  0  0
    5.3877    1.4031   17.6540 C   0  0  0  0  0  0  0  0  0  0  0  0
    6.5684    0.8235   17.3790 N   0  0  0  0  0  0  0  0  0  0  0  0
    7.1875    0.1793   18.3779 C   0  0  0  0  0  0  0  0  0  0  0  0
    8.1417   -0.2886   18.1362 H   0  0  0  0  0  0  0  0  0  0  0  0
    6.6715    0.0497   19.6949 C   0  0  0  0  0  0  0  0  0  0  0  0
    7.3560   -0.6212   20.7013 N   0  0  0  0  0  0  0  0  0  0  0  0
    6.6190   -1.2916   21.7765 C   0  0  0  0  0  0  0  0  0  0  0  0
    6.2869   -0.5754   22.5471 H   0  0  0  0  0  0  0  0  0  0  0  0
    5.7227   -1.7756   21.3699 H   0  0  0  0  0  0  0  0  0  0  0  0
    7.5285   -2.3418   22.4257 C   0  0  0  0  0  0  0  0  0  0  0  0
    6.9796   -2.9293   23.1674 H   0  0  0  0  0  0  0  0  0  0  0  0
    7.8529   -3.0224   21.6213 H   0  0  0  0  0  0  0  0  0  0  0  0
    8.6965   -1.6965   23.0475 N   0  0  0  0  0  0  0  0  0  0  0  0
    8.9744   -1.9363   24.3900 C   0  0  0  0  0  0  0  0  0  0  0  0
    9.1570   -1.0900   25.4520 C   0  0  0  0  0  0  0  0  0  0  0  0
    9.1484   -0.0049   25.4641 H   0  0  0  0  0  0  0  0  0  0  0  0
    9.2927   -1.8358   26.6145 N   0  0  0  0  0  0  0  0  0  0  0  0
    9.4966   -1.4582   27.5290 H   0  0  0  0  0  0  0  0  0  0  0  0
    9.2417   -3.1800   26.3095 C   0  0  0  0  0  0  0  0  0  0  0  0
    9.2747   -4.3399   27.1131 C   0  0  0  0  0  0  0  0  0  0  0  0
    9.3794   -4.3022   28.1902 H   0  0  0  0  0  0  0  0  0  0  0  0
    9.1297   -5.5738   26.4881 C   0  0  0  0  0  0  0  0  0  0  0  0
    9.1053   -6.4842   27.0762 H   0  0  0  0  0  0  0  0  0  0  0  0
    8.9758   -5.6839   25.0887 C   0  0  0  0  0  0  0  0  0  0  0  0
    8.8390   -6.6607   24.6449 H   0  0  0  0  0  0  0  0  0  0  0  0
    8.9249   -4.5459   24.2968 C   0  0  0  0  0  0  0  0  0  0  0  0
    8.8000   -4.6148   23.2180 H   0  0  0  0  0  0  0  0  0  0  0  0
    9.0536   -3.2828   24.9137 C   0  0  0  0  0  0  0  0  0  0  0  0
    9.2076   -0.5136   22.3534 C   0  0  0  0  0  0  0  0  0  0  0  0
   10.2987   -0.4912   22.4413 H   0  0  0  0  0  0  0  0  0  0  0  0
    8.8117    0.4252   22.7809 H   0  0  0  0  0  0  0  0  0  0  0  0
    8.8199   -0.5573   20.8546 C   0  0  0  0  0  0  0  0  0  0  0  0
    9.1973    0.3345   20.3433 H   0  0  0  0  0  0  0  0  0  0  0  0
    9.3036   -1.4268   20.3778 H   0  0  0  0  0  0  0  0  0  0  0  0
    5.4080    0.6286   19.9378 C   0  0  0  0  0  0  0  0  0  0  0  0
    4.9637    0.5318   20.9289 H   0  0  0  0  0  0  0  0  0  0  0  0
    4.7734    1.3277   18.9097 C   0  0  0  0  0  0  0  0  0  0  0  0
    3.8172    1.8137   19.0777 H   0  0  0  0  0  0  0  0  0  0  0  0
  1  2  1  0
  2  3  2  0
  3  4  1  0
  4  5  1  0
  4  6  2  0
  6  7  1  0
  7  8  1  0
  8  9  1  0
  8 10  1  0
  8 11  1  0
 11 12  1  0
 11 13  1  0
 11 14  1  0
 14 15  1  0
 15 16  2  0
 16 17  1  0
 16 18  1  0
 18 19  1  0
 18 20  1  0
 20 21  2  0
 21 22  1  0
 21 23  1  0
 23 24  1  0
 23 25  2  0
 25 26  1  0
 25 27  1  0
 27 28  1  0
 27 29  2  0
 14 30  1  0
 30 31  1  0
 30 32  1  0
 30 33  1  0
 33 34  1  0
 33 35  1  0
  6 36  1  0
 36 37  1  0
 36 38  2  0
 38 39  1  0
 38  2  1  0
 33  7  1  0
 29 15  1  0
 29 20  1  0
M  END
>  <cnnaffinity>  (1) 
-5.27948

>  <filename>  (1) 
c1cncc(N2CCN(c3c[nH]c4ccccc34)CC2)c1

$$$$
