
     RDKit          3D

 30 33  0  0  0  0  0  0  0  0999 V2000
    4.9296    1.7898   16.9915 H   0  0  0  0  0  0  0  0  0  0  0  0
    5.4042    1.2934   17.8337 C   0  0  0  0  0  0  0  0  0  0  0  0
    6.5690    0.6801   17.5746 N   0  0  0  0  0  0  0  0  0  0  0  0
    7.1668    0.0438   18.5855 C   0  0  0  0  0  0  0  0  0  0  0  0
    8.1170   -0.4344   18.3580 H   0  0  0  0  0  0  0  0  0  0  0  0
    6.6429   -0.0184   19.8841 C   0  0  0  0  0  0  0  0  0  0  0  0
    7.3787   -0.7382   20.9354 C   0  0  0  0  0  0  0  0  0  0  0  0
    7.9556   -1.8898   20.7038 N   0  0  0  0  0  0  0  0  0  0  0  0
    8.4507   -2.3299   21.9105 O   0  0  0  0  0  0  0  0  0  0  0  0
    8.1755   -1.4241   22.8495 C   0  0  0  0  0  0  0  0  0  0  0  0
    8.5380   -1.6378   23.8450 H   0  0  0  0  0  0  0  0  0  0  0  0
    7.5174   -0.3597   22.3193 C   0  0  0  0  0  0  0  0  0  0  0  0
    7.1297    0.8841   23.0025 C   0  0  0  0  0  0  0  0  0  0  0  0
    6.6371    0.8152   24.3435 C   0  0  0  0  0  0  0  0  0  0  0  0
    6.5518   -0.1729   24.7993 H   0  0  0  0  0  0  0  0  0  0  0  0
    6.2676    1.9516   25.0416 C   0  0  0  0  0  0  0  0  0  0  0  0
    5.9048    1.8977   26.0669 H   0  0  0  0  0  0  0  0  0  0  0  0
    6.4034    3.1868   24.3622 C   0  0  0  0  0  0  0  0  0  0  0  0
    6.8878    3.2824   23.0355 C   0  0  0  0  0  0  0  0  0  0  0  0
    6.8600    4.6782   22.7448 C   0  0  0  0  0  0  0  0  0  0  0  0
    7.1540    5.1694   21.8255 H   0  0  0  0  0  0  0  0  0  0  0  0
    6.4208    5.3718   23.7739 N   0  0  0  0  0  0  0  0  0  0  0  0
    6.1479    4.4656   24.7400 N   0  0  0  0  0  0  0  0  0  0  0  0
    5.7939    4.7652   25.6321 H   0  0  0  0  0  0  0  0  0  0  0  0
    7.2663    2.1083   22.3582 C   0  0  0  0  0  0  0  0  0  0  0  0
    7.6329    2.1340   21.3385 H   0  0  0  0  0  0  0  0  0  0  0  0
    5.4224    0.6301   20.1422 C   0  0  0  0  0  0  0  0  0  0  0  0
    5.0031    0.6444   21.1527 H   0  0  0  0  0  0  0  0  0  0  0  0
    4.8005    1.3010   19.0949 C   0  0  0  0  0  0  0  0  0  0  0  0
    3.8762    1.8402   19.2484 H   0  0  0  0  0  0  0  0  0  0  0  0
  1  2  1  0
  2  3  2  0
  3  4  1  0
  4  5  1  0
  4  6  2  0
  6  7  1  0
  7  8  2  0
  8  9  1  0
  9 10  1  0
 10 11  1  0
 10 12  2  0
 12 13  1  0
 13 14  2  0
 14 15  1  0
 14 16  1  0
 16 17  1  0
 16 18  2  0
 18 19  1  0
 19 20  1  0
 20 21  1  0
 20 22  2  0
 22 23  1  0
 23 24  1  0
 19 25  2  0
 25 26  1  0
  6 27  1  0
 27 28  1  0
 27 29  2  0
 29 30  1  0
 29  2  1  0
 12  7  1  0
 25 13  1  0
 23 18  1  0
M  END
>  <cnnaffinity>  (1) 
-5.04564

>  <filename>  (1) 
c1cncc(-c2nocc2-c2ccc3[nH]ncc3c2)c1

$$$$
