
     RDKit          3D

 32 35  0  0  0  0  0  0  0  0999 V2000
   10.4124   -1.3087   21.6479 H   0  0  0  0  0  0  0  0  0  0  0  0
    9.3270   -1.3168   21.5997 C   0  0  0  0  0  0  0  0  0  0  0  0
    8.7591   -0.6334   20.6061 N   0  0  0  0  0  0  0  0  0  0  0  0
    7.4248   -0.6312   20.5876 C   0  0  0  0  0  0  0  0  0  0  0  0
    6.7416    0.1738   19.5575 C   0  0  0  0  0  0  0  0  0  0  0  0
    7.2402    0.2198   18.2495 C   0  0  0  0  0  0  0  0  0  0  0  0
    8.1895   -0.2466   17.9920 H   0  0  0  0  0  0  0  0  0  0  0  0
    6.5985    0.8131   17.2374 N   0  0  0  0  0  0  0  0  0  0  0  0
    5.4419    1.4362   17.5100 C   0  0  0  0  0  0  0  0  0  0  0  0
    4.9387    1.9071   16.6686 H   0  0  0  0  0  0  0  0  0  0  0  0
    4.8873    1.5009   18.7922 C   0  0  0  0  0  0  0  0  0  0  0  0
    3.9551    2.0288   18.9594 H   0  0  0  0  0  0  0  0  0  0  0  0
    5.5508    0.8655   19.8367 C   0  0  0  0  0  0  0  0  0  0  0  0
    5.1603    0.9108   20.8569 H   0  0  0  0  0  0  0  0  0  0  0  0
    6.6709   -1.3647   21.4992 C   0  0  0  0  0  0  0  0  0  0  0  0
    5.5965   -1.4153   21.3967 H   0  0  0  0  0  0  0  0  0  0  0  0
    7.3529   -2.0133   22.5223 C   0  0  0  0  0  0  0  0  0  0  0  0
    6.6277   -2.7748   23.5745 C   0  0  0  0  0  0  0  0  0  0  0  0
    5.4182   -3.3846   23.4095 C   0  0  0  0  0  0  0  0  0  0  0  0
    4.7443   -3.3192   22.5595 H   0  0  0  0  0  0  0  0  0  0  0  0
    4.9712   -4.4390   24.7063 S   0  0  0  0  0  0  0  0  0  0  0  0
    6.4325   -4.0659   25.5689 C   0  0  0  0  0  0  0  0  0  0  0  0
    6.8825   -4.6483   26.7705 C   0  0  0  0  0  0  0  0  0  0  0  0
    6.3278   -5.4387   27.2728 H   0  0  0  0  0  0  0  0  0  0  0  0
    8.0653   -4.1751   27.3203 C   0  0  0  0  0  0  0  0  0  0  0  0
    8.4736   -4.6492   28.2044 H   0  0  0  0  0  0  0  0  0  0  0  0
    8.7800   -3.1175   26.7209 C   0  0  0  0  0  0  0  0  0  0  0  0
    9.6764   -2.7284   27.1888 H   0  0  0  0  0  0  0  0  0  0  0  0
    8.3431   -2.5697   25.5270 C   0  0  0  0  0  0  0  0  0  0  0  0
    8.8957   -1.7688   25.0500 H   0  0  0  0  0  0  0  0  0  0  0  0
    7.1925   -3.0892   24.8891 C   0  0  0  0  0  0  0  0  0  0  0  0
    8.6976   -1.9932   22.5560 N   0  0  0  0  0  0  0  0  0  0  0  0
  1  2  1  0
  2  3  2  0
  3  4  1  0
  4  5  1  0
  5  6  2  0
  6  7  1  0
  6  8  1  0
  8  9  2  0
  9 10  1  0
  9 11  1  0
 11 12  1  0
 11 13  2  0
 13 14  1  0
  4 15  2  0
 15 16  1  0
 15 17  1  0
 17 18  1  0
 18 19  2  0
 19 20  1  0
 19 21  1  0
 21 22  1  0
 22 23  2  0
 23 24  1  0
 23 25  1  0
 25 26  1  0
 25 27  2  0
 27 28  1  0
 27 29  1  0
 29 30  1  0
 29 31  2  0
 17 32  2  0
 32  2  1  0
 13  5  1  0
 31 18  1  0
 31 22  1  0
M  END
>  <cnnaffinity>  (1) 
-5.10261

>  <filename>  (1) 
c1cncc(-c2cc(-c3csc4ccccc34)ncn2)c1

$$$$
