
     RDKit          3D

 28 30  0  0  0  0  0  0  0  0999 V2000
    4.9213    1.7761   17.0037 H   0  0  0  0  0  0  0  0  0  0  0  0
    5.4079    1.2864   17.8478 C   0  0  0  0  0  0  0  0  0  0  0  0
    6.5727    0.6748   17.5951 N   0  0  0  0  0  0  0  0  0  0  0  0
    7.1770    0.0483   18.6092 C   0  0  0  0  0  0  0  0  0  0  0  0
    8.1239   -0.4350   18.3741 H   0  0  0  0  0  0  0  0  0  0  0  0
    6.6641   -0.0026   19.9165 C   0  0  0  0  0  0  0  0  0  0  0  0
    7.4063   -0.7135   21.0023 C   0  0  0  0  0  0  0  0  0  0  0  0
    8.1105   -1.8053   20.6437 N   0  0  0  0  0  0  0  0  0  0  0  0
    8.7677   -2.5141   21.5644 N   0  0  0  0  0  0  0  0  0  0  0  0
    8.7626   -2.1208   22.8364 C   0  0  0  0  0  0  0  0  0  0  0  0
    9.3282   -2.7325   23.5230 H   0  0  0  0  0  0  0  0  0  0  0  0
    8.0749   -0.9637   23.2950 C   0  0  0  0  0  0  0  0  0  0  0  0
    8.0853   -0.5499   24.5994 N   0  0  0  0  0  0  0  0  0  0  0  0
    7.5995    0.3112   24.8090 H   0  0  0  0  0  0  0  0  0  0  0  0
    8.7273   -1.2321   25.6740 C   0  0  0  0  0  0  0  0  0  0  0  0
    9.8143   -1.2162   25.6494 H   0  0  0  0  0  0  0  0  0  0  0  0
    8.0554   -1.2045   27.0071 C   0  0  0  0  0  0  0  0  0  0  0  0
    8.6710   -1.1766   27.8991 H   0  0  0  0  0  0  0  0  0  0  0  0
    7.1278   -0.6536   27.0921 H   0  0  0  0  0  0  0  0  0  0  0  0
    8.0568   -2.4689   26.1983 C   0  0  0  0  0  0  0  0  0  0  0  0
    8.6701   -3.2940   26.5452 H   0  0  0  0  0  0  0  0  0  0  0  0
    7.1310   -2.7394   25.7085 H   0  0  0  0  0  0  0  0  0  0  0  0
    7.3724   -0.2566   22.3253 C   0  0  0  0  0  0  0  0  0  0  0  0
    6.8249    0.6482   22.5729 H   0  0  0  0  0  0  0  0  0  0  0  0
    5.4462    0.6478   20.1647 C   0  0  0  0  0  0  0  0  0  0  0  0
    4.9937    0.6328   21.1583 H   0  0  0  0  0  0  0  0  0  0  0  0
    4.8104    1.3022   19.1118 C   0  0  0  0  0  0  0  0  0  0  0  0
    3.8787    1.8392   19.2619 H   0  0  0  0  0  0  0  0  0  0  0  0
  1  2  1  0
  2  3  2  0
  3  4  1  0
  4  5  1  0
  4  6  2  0
  6  7  1  0
  7  8  2  0
  8  9  1  0
  9 10  2  0
 10 11  1  0
 10 12  1  0
 12 13  1  0
 13 14  1  0
 13 15  1  0
 15 16  1  0
 15 17  1  0
 17 18  1  0
 17 19  1  0
 17 20  1  0
 20 21  1  0
 20 22  1  0
 12 23  2  0
 23 24  1  0
  6 25  1  0
 25 26  1  0
 25 27  2  0
 27 28  1  0
 27  2  1  0
 23  7  1  0
 20 15  1  0
M  END
>  <cnnaffinity>  (1) 
-4.8615

>  <filename>  (1) 
c1cncc(-c2cc(NC3CC3)cnn2)c1

$$$$
