
     RDKit          3D

 37 39  0  0  0  0  0  0  0  0999 V2000
    5.0987    1.8040   16.8723 H   0  0  0  0  0  0  0  0  0  0  0  0
    5.4669    1.3111   17.7682 C   0  0  0  0  0  0  0  0  0  0  0  0
    6.6208    0.6412   17.6470 N   0  0  0  0  0  0  0  0  0  0  0  0
    7.0995    0.0368   18.7428 C   0  0  0  0  0  0  0  0  0  0  0  0
    8.0331   -0.5106   18.6081 H   0  0  0  0  0  0  0  0  0  0  0  0
    6.4790    0.0554   20.0112 C   0  0  0  0  0  0  0  0  0  0  0  0
    7.0895   -0.6591   21.1970 C   0  0  0  0  0  0  0  0  0  0  0  0
    7.6674   -1.5211   20.8387 H   0  0  0  0  0  0  0  0  0  0  0  0
    6.2795   -1.0836   21.8023 H   0  0  0  0  0  0  0  0  0  0  0  0
    8.0152    0.1633   22.1628 C   0  0  1  0  0  0  0  0  0  0  0  0
    9.2860    0.6337   21.4104 C   0  0  2  0  0  0  0  0  0  0  0  0
    8.9627    1.2017   20.5243 H   0  0  0  0  0  0  0  0  0  0  0  0
   10.2001   -0.5269   20.9280 C   0  0  0  0  0  0  0  0  0  0  0  0
   10.1773   -0.5702   19.8261 H   0  0  0  0  0  0  0  0  0  0  0  0
    9.9312   -1.5270   21.2930 H   0  0  0  0  0  0  0  0  0  0  0  0
   11.4998   -0.2762   21.4244 O   0  0  0  0  0  0  0  0  0  0  0  0
   11.6249    1.1129   21.6440 C   0  0  0  0  0  0  0  0  0  0  0  0
   12.4622    1.2682   22.3325 H   0  0  0  0  0  0  0  0  0  0  0  0
   11.8579    1.6388   20.7028 H   0  0  0  0  0  0  0  0  0  0  0  0
   10.2643    1.5485   22.1860 C   0  0  0  0  0  0  0  0  0  0  0  0
   10.0733    2.6067   21.9868 H   0  0  0  0  0  0  0  0  0  0  0  0
   10.2232    1.4038   23.2755 H   0  0  0  0  0  0  0  0  0  0  0  0
    7.2194    1.3178   22.8360 C   0  0  0  0  0  0  0  0  0  0  0  0
    6.5402    1.8221   22.1438 H   0  0  0  0  0  0  0  0  0  0  0  0
    7.8882    2.0912   23.2405 H   0  0  0  0  0  0  0  0  0  0  0  0
    6.4852    0.7316   23.9595 N   0  0  0  0  0  0  0  0  0  0  0  0
    5.6675    0.2474   23.5965 H   0  0  0  0  0  0  0  0  0  0  0  0
    7.4044   -0.2572   24.5349 C   0  0  0  0  0  0  0  0  0  0  0  0
    6.8479   -1.0834   24.9978 H   0  0  0  0  0  0  0  0  0  0  0  0
    7.9889    0.2245   25.3281 H   0  0  0  0  0  0  0  0  0  0  0  0
    8.3523   -0.7250   23.4027 C   0  0  0  0  0  0  0  0  0  0  0  0
    8.2261   -1.7901   23.1786 H   0  0  0  0  0  0  0  0  0  0  0  0
    9.4016   -0.6137   23.7078 H   0  0  0  0  0  0  0  0  0  0  0  0
    5.2524    0.7354   20.0958 C   0  0  0  0  0  0  0  0  0  0  0  0
    4.6917    0.7600   21.0350 H   0  0  0  0  0  0  0  0  0  0  0  0
    4.7441    1.3791   18.9652 C   0  0  0  0  0  0  0  0  0  0  0  0
    3.8215    1.9448   18.9981 H   0  0  0  0  0  0  0  0  0  0  0  0
  1  2  1  0
  2  3  2  0
  3  4  1  0
  4  5  1  0
  4  6  2  0
  6  7  1  0
  7  8  1  0
  7  9  1  0
 10  7  1  6
 10 11  1  0
 11 12  1  6
 11 13  1  0
 13 14  1  0
 13 15  1  0
 13 16  1  0
 16 17  1  0
 17 18  1  0
 17 19  1  0
 17 20  1  0
 20 21  1  0
 20 22  1  0
 10 23  1  0
 23 24  1  0
 23 25  1  0
 23 26  1  0
 26 27  1  0
 26 28  1  0
 28 29  1  0
 28 30  1  0
 28 31  1  0
 31 32  1  0
 31 33  1  0
  6 34  1  0
 34 35  1  0
 34 36  2  0
 36 37  1  0
 36  2  1  0
 31 10  1  0
 20 11  1  0
M  END
>  <cnnaffinity>  (1) 
-4.77076

>  <filename>  (1) 
c1cncc(C[C@]2([C@H]3CCOC3)CCNC2)c1

$$$$
