
     RDKit          3D

 37 40  0  0  0  0  0  0  0  0999 V2000
    5.1072    1.9982   16.8354 H   0  0  0  0  0  0  0  0  0  0  0  0
    5.4560    1.3883   17.6660 C   0  0  0  0  0  0  0  0  0  0  0  0
    6.6136    0.7343   17.4767 N   0  0  0  0  0  0  0  0  0  0  0  0
    7.0783    0.0057   18.5020 C   0  0  0  0  0  0  0  0  0  0  0  0
    8.0376   -0.4842   18.3420 H   0  0  0  0  0  0  0  0  0  0  0  0
    6.4202   -0.1456   19.7466 C   0  0  0  0  0  0  0  0  0  0  0  0
    7.0337   -0.8899   20.8786 C   0  0  0  0  0  0  0  0  0  0  0  0
    7.3261   -2.2148   21.1104 C   0  0  0  0  0  0  0  0  0  0  0  0
    6.9830   -3.0666   20.5410 H   0  0  0  0  0  0  0  0  0  0  0  0
    8.0819   -2.3685   22.2451 N   0  0  0  0  0  0  0  0  0  0  0  0
    8.2200   -1.1579   22.7232 C   0  0  0  0  0  0  0  0  0  0  0  0
    8.7588   -0.8873   23.6252 H   0  0  0  0  0  0  0  0  0  0  0  0
    7.5983   -0.2133   21.9552 N   0  0  0  0  0  0  0  0  0  0  0  0
    7.4189    1.1958   22.3342 C   0  0  0  0  0  0  0  0  0  0  0  0
    8.3981    1.6946   22.2953 H   0  0  0  0  0  0  0  0  0  0  0  0
    6.7845    1.6678   21.5812 H   0  0  0  0  0  0  0  0  0  0  0  0
    6.8037    1.3422   23.7200 C   0  0  0  0  0  0  0  0  0  0  0  0
    5.4066    1.1325   23.9335 C   0  0  0  0  0  0  0  0  0  0  0  0
    4.7592    0.9883   23.0726 H   0  0  0  0  0  0  0  0  0  0  0  0
    4.8731    1.0878   25.2025 C   0  0  0  0  0  0  0  0  0  0  0  0
    3.8160    0.8932   25.3538 H   0  0  0  0  0  0  0  0  0  0  0  0
    5.7119    1.2379   26.3484 C   0  0  0  0  0  0  0  0  0  0  0  0
    5.2268    1.1745   27.6905 C   0  0  0  0  0  0  0  0  0  0  0  0
    4.1636    1.0436   27.8580 H   0  0  0  0  0  0  0  0  0  0  0  0
    6.0910    1.2592   28.7591 C   0  0  0  0  0  0  0  0  0  0  0  0
    5.7211    1.2089   29.7806 H   0  0  0  0  0  0  0  0  0  0  0  0
    7.4915    1.4027   28.5454 C   0  0  0  0  0  0  0  0  0  0  0  0
    8.1712    1.4370   29.3935 H   0  0  0  0  0  0  0  0  0  0  0  0
    7.9804    1.4962   27.2638 C   0  0  0  0  0  0  0  0  0  0  0  0
    9.0405    1.5782   27.0509 H   0  0  0  0  0  0  0  0  0  0  0  0
    7.1090    1.4483   26.1419 C   0  0  0  0  0  0  0  0  0  0  0  0
    7.6127    1.5575   24.8145 C   0  0  0  0  0  0  0  0  0  0  0  0
    8.6674    1.7986   24.6903 H   0  0  0  0  0  0  0  0  0  0  0  0
    5.1973    0.5275   19.8956 C   0  0  0  0  0  0  0  0  0  0  0  0
    4.6560    0.4489   20.8396 H   0  0  0  0  0  0  0  0  0  0  0  0
    4.7148    1.3186   18.8478 C   0  0  0  0  0  0  0  0  0  0  0  0
    3.8071    1.9008   18.9521 H   0  0  0  0  0  0  0  0  0  0  0  0
  1  2  1  0
  2  3  2  0
  3  4  1  0
  4  5  1  0
  4  6  2  0
  6  7  1  0
  7  8  2  0
  8  9  1  0
  8 10  1  0
 10 11  2  0
 11 12  1  0
 11 13  1  0
 13 14  1  0
 14 15  1  0
 14 16  1  0
 14 17  1  0
 17 18  2  0
 18 19  1  0
 18 20  1  0
 20 21  1  0
 20 22  2  0
 22 23  1  0
 23 24  1  0
 23 25  2  0
 25 26  1  0
 25 27  1  0
 27 28  1  0
 27 29  2  0
 29 30  1  0
 29 31  1  0
 31 32  2  0
 32 33  1  0
  6 34  1  0
 34 35  1  0
 34 36  2  0
 36 37  1  0
 36  2  1  0
 13  7  1  0
 32 17  1  0
 31 22  1  0
M  END
>  <cnnaffinity>  (1) 
-4.65688

>  <filename>  (1) 
c1cncc(-c2cncn2Cc2ccc3ccccc3c2)c1

$$$$
