
     RDKit          3D

 31 34  0  0  0  0  0  0  0  0999 V2000
    4.9190    1.7802   16.9969 H   0  0  0  0  0  0  0  0  0  0  0  0
    5.4026    1.2908   17.8399 C   0  0  0  0  0  0  0  0  0  0  0  0
    6.5704    0.6742   17.5858 N   0  0  0  0  0  0  0  0  0  0  0  0
    7.1809    0.0528   18.5978 C   0  0  0  0  0  0  0  0  0  0  0  0
    8.1271   -0.4363   18.3759 H   0  0  0  0  0  0  0  0  0  0  0  0
    6.6532    0.0193   19.9052 C   0  0  0  0  0  0  0  0  0  0  0  0
    7.3542   -0.6344   20.9682 N   0  0  0  0  0  0  0  0  0  0  0  0
    8.1273   -1.7275   20.7303 N   0  0  0  0  0  0  0  0  0  0  0  0
    8.6079   -2.1017   21.8523 N   0  0  0  0  0  0  0  0  0  0  0  0
    8.1903   -1.3053   22.8663 N   0  0  0  0  0  0  0  0  0  0  0  0
    7.4251   -0.4028   22.3047 C   0  0  0  0  0  0  0  0  0  0  0  0
    6.8120    0.6571   22.8463 O   0  0  0  0  0  0  0  0  0  0  0  0
    6.6601    0.7855   24.2357 C   0  0  0  0  0  0  0  0  0  0  0  0
    6.5809    2.1203   24.7275 C   0  0  0  0  0  0  0  0  0  0  0  0
    6.6609    2.9631   24.0462 H   0  0  0  0  0  0  0  0  0  0  0  0
    6.3930    2.3469   26.0872 C   0  0  0  0  0  0  0  0  0  0  0  0
    6.3360    3.3496   26.5054 H   0  0  0  0  0  0  0  0  0  0  0  0
    6.2680    1.2521   26.9631 C   0  0  0  0  0  0  0  0  0  0  0  0
    6.0731    1.1133   28.3801 C   0  0  0  0  0  0  0  0  0  0  0  0
    5.9843    1.9300   29.0804 H   0  0  0  0  0  0  0  0  0  0  0  0
    6.0198   -0.2244   28.6554 C   0  0  0  0  0  0  0  0  0  0  0  0
    5.8823   -0.7365   29.6048 H   0  0  0  0  0  0  0  0  0  0  0  0
    6.1754   -0.9280   27.4732 N   0  0  0  0  0  0  0  0  0  0  0  0
    6.1769   -1.9252   27.3622 H   0  0  0  0  0  0  0  0  0  0  0  0
    6.3222   -0.0551   26.4270 C   0  0  0  0  0  0  0  0  0  0  0  0
    6.5036   -0.3222   25.0602 C   0  0  0  0  0  0  0  0  0  0  0  0
    6.5365   -1.3367   24.6736 H   0  0  0  0  0  0  0  0  0  0  0  0
    5.4337    0.6492   20.1658 C   0  0  0  0  0  0  0  0  0  0  0  0
    5.0092    0.6371   21.1689 H   0  0  0  0  0  0  0  0  0  0  0  0
    4.8057    1.3037   19.1041 C   0  0  0  0  0  0  0  0  0  0  0  0
    3.8771    1.8393   19.2607 H   0  0  0  0  0  0  0  0  0  0  0  0
  1  2  1  0
  2  3  2  0
  3  4  1  0
  4  5  1  0
  4  6  2  0
  6  7  1  0
  7  8  1  0
  8  9  2  0
  9 10  1  0
 10 11  2  0
 11 12  1  0
 12 13  1  0
 13 14  2  0
 14 15  1  0
 14 16  1  0
 16 17  1  0
 16 18  2  0
 18 19  1  0
 19 20  1  0
 19 21  2  0
 21 22  1  0
 21 23  1  0
 23 24  1  0
 23 25  1  0
 25 26  2  0
 26 27  1  0
  6 28  1  0
 28 29  1  0
 28 30  2  0
 30 31  1  0
 30  2  1  0
 11  7  1  0
 26 13  1  0
 25 18  1  0
M  END
>  <cnnaffinity>  (1) 
-5.24441

>  <filename>  (1) 
c1cncc(-n2nnnc2Oc2ccc3cc[nH]c3c2)c1

$$$$
