
     RDKit          3D

 33 36  0  0  0  0  0  0  0  0999 V2000
    4.9773    1.7825   16.9448 H   0  0  0  0  0  0  0  0  0  0  0  0
    5.4215    1.3166   17.8279 C   0  0  0  0  0  0  0  0  0  0  0  0
    6.5986    0.6939   17.6540 N   0  0  0  0  0  0  0  0  0  0  0  0
    7.1392    0.0891   18.7204 C   0  0  0  0  0  0  0  0  0  0  0  0
    8.0961   -0.4016   18.5459 H   0  0  0  0  0  0  0  0  0  0  0  0
    6.5672    0.0705   20.0075 C   0  0  0  0  0  0  0  0  0  0  0  0
    7.2300   -0.6898   21.0940 C   0  0  0  0  0  0  0  0  0  0  0  0
    7.6320   -1.9937   21.0312 C   0  0  0  0  0  0  0  0  0  0  0  0
    7.3702   -2.6751   20.2469 H   0  0  0  0  0  0  0  0  0  0  0  0
    8.2985   -2.2391   22.2475 C   0  0  0  0  0  0  0  0  0  0  0  0
    8.7638   -3.1485   22.5997 H   0  0  0  0  0  0  0  0  0  0  0  0
    8.2859   -1.1853   23.0314 N   0  0  0  0  0  0  0  0  0  0  0  0
    7.5974   -0.2305   22.3486 N   0  0  0  0  0  0  0  0  0  0  0  0
    7.2949    1.0421   22.9347 C   0  0  0  0  0  0  0  0  0  0  0  0
    6.8251    1.0689   24.1580 N   0  0  0  0  0  0  0  0  0  0  0  0
    6.5096    2.2781   24.6994 C   0  0  0  0  0  0  0  0  0  0  0  0
    5.9782    2.2734   26.0212 C   0  0  0  0  0  0  0  0  0  0  0  0
    5.8441    1.2950   26.4740 H   0  0  0  0  0  0  0  0  0  0  0  0
    5.6738    3.4571   26.6483 C   0  0  0  0  0  0  0  0  0  0  0  0
    5.2904    3.4517   27.6653 H   0  0  0  0  0  0  0  0  0  0  0  0
    5.8680    4.6972   25.9775 C   0  0  0  0  0  0  0  0  0  0  0  0
    5.6295    5.6203   26.5011 H   0  0  0  0  0  0  0  0  0  0  0  0
    6.3591    4.7279   24.6906 C   0  0  0  0  0  0  0  0  0  0  0  0
    6.5000    5.6776   24.1828 H   0  0  0  0  0  0  0  0  0  0  0  0
    6.6964    3.5183   24.0108 C   0  0  0  0  0  0  0  0  0  0  0  0
    7.2225    3.4408   22.6805 C   0  0  0  0  0  0  0  0  0  0  0  0
    7.3828    4.3507   22.1032 H   0  0  0  0  0  0  0  0  0  0  0  0
    7.5199    2.2136   22.1399 C   0  0  0  0  0  0  0  0  0  0  0  0
    7.8974    2.0895   21.1301 H   0  0  0  0  0  0  0  0  0  0  0  0
    5.3375    0.7283   20.1658 C   0  0  0  0  0  0  0  0  0  0  0  0
    4.8678    0.7559   21.1491 H   0  0  0  0  0  0  0  0  0  0  0  0
    4.7603    1.3549   19.0597 C   0  0  0  0  0  0  0  0  0  0  0  0
    3.8052    1.8591   19.1372 H   0  0  0  0  0  0  0  0  0  0  0  0
  1  2  1  0
  2  3  2  0
  3  4  1  0
  4  5  1  0
  4  6  2  0
  6  7  1  0
  7  8  2  0
  8  9  1  0
  8 10  1  0
 10 11  1  0
 10 12  2  0
 12 13  1  0
 13 14  1  0
 14 15  2  0
 15 16  1  0
 16 17  2  0
 17 18  1  0
 17 19  1  0
 19 20  1  0
 19 21  2  0
 21 22  1  0
 21 23  1  0
 23 24  1  0
 23 25  2  0
 25 26  1  0
 26 27  1  0
 26 28  2  0
 28 29  1  0
  6 30  1  0
 30 31  1  0
 30 32  2  0
 32 33  1  0
 32  2  1  0
 13  7  1  0
 28 14  1  0
 25 16  1  0
M  END
>  <cnnaffinity>  (1) 
-5.00966

>  <filename>  (1) 
c1cncc(-c2ccnn2-c2ccc3ccccc3n2)c1

$$$$
