
     RDKit          3D

 26 28  0  0  0  0  0  0  0  0999 V2000
    6.5504   -4.9573   23.1156 H   0  0  0  0  0  0  0  0  0  0  0  0
    7.5222   -4.4830   23.0954 C   0  0  0  0  0  0  0  0  0  0  0  0
    7.6798   -3.3170   22.3934 N   0  0  0  0  0  0  0  0  0  0  0  0
    8.9101   -2.8958   22.4821 C   0  0  0  0  0  0  0  0  0  0  0  0
    9.4134   -1.7271   21.8121 C   0  0  0  0  0  0  0  0  0  0  0  0
    8.7023   -0.7620   21.1119 C   0  0  0  0  0  0  0  0  0  0  0  0
    7.3297   -0.7028   20.9450 N   0  0  0  0  0  0  0  0  0  0  0  0
    6.7969   -1.1482   21.6847 H   0  0  0  0  0  0  0  0  0  0  0  0
    6.6681   -0.0138   19.9173 C   0  0  0  0  0  0  0  0  0  0  0  0
    7.1718    0.0594   18.5903 C   0  0  0  0  0  0  0  0  0  0  0  0
    8.1185   -0.4284   18.3682 H   0  0  0  0  0  0  0  0  0  0  0  0
    6.5600    0.6810   17.5720 N   0  0  0  0  0  0  0  0  0  0  0  0
    5.3964    1.2970   17.8384 C   0  0  0  0  0  0  0  0  0  0  0  0
    4.9134    1.7870   16.9953 H   0  0  0  0  0  0  0  0  0  0  0  0
    4.8147    1.3029   19.1112 C   0  0  0  0  0  0  0  0  0  0  0  0
    3.8843    1.8351   19.2655 H   0  0  0  0  0  0  0  0  0  0  0  0
    5.4465    0.6298   20.1664 C   0  0  0  0  0  0  0  0  0  0  0  0
    5.0220    0.6206   21.1715 H   0  0  0  0  0  0  0  0  0  0  0  0
    9.6864    0.1512   20.6792 C   0  0  0  0  0  0  0  0  0  0  0  0
    9.5225    1.0402   20.0938 H   0  0  0  0  0  0  0  0  0  0  0  0
   10.8971   -0.1991   21.0822 N   0  0  0  0  0  0  0  0  0  0  0  0
   10.7198   -1.3312   21.7563 N   0  0  0  0  0  0  0  0  0  0  0  0
   11.5431   -1.7584   22.1554 H   0  0  0  0  0  0  0  0  0  0  0  0
    9.9235   -3.8531   23.5188 S   0  0  0  0  0  0  0  0  0  0  0  0
    8.6230   -4.9458   23.7447 C   0  0  0  0  0  0  0  0  0  0  0  0
    8.7027   -5.8356   24.3484 H   0  0  0  0  0  0  0  0  0  0  0  0
  1  2  1  0
  2  3  1  0
  3  4  2  0
  4  5  1  0
  5  6  2  0
  6  7  1  0
  7  8  1  0
  7  9  1  0
  9 10  2  0
 10 11  1  0
 10 12  1  0
 12 13  2  0
 13 14  1  0
 13 15  1  0
 15 16  1  0
 15 17  2  0
 17 18  1  0
  6 19  1  0
 19 20  1  0
 19 21  2  0
 21 22  1  0
 22 23  1  0
  4 24  1  0
 24 25  1  0
 25 26  1  0
 25  2  2  0
 22  5  1  0
 17  9  1  0
M  END
>  <cnnaffinity>  (1) 
-5.62175

>  <filename>  (1) 
c1cncc(Nc2cn[nH]c2-c2nccs2)c1

$$$$
