
     RDKit          3D

 33 36  0  0  0  0  0  0  0  0999 V2000
    5.0099    1.7975   16.8946 H   0  0  0  0  0  0  0  0  0  0  0  0
    5.4560    1.2989   17.7511 C   0  0  0  0  0  0  0  0  0  0  0  0
    6.6281    0.6760   17.5321 N   0  0  0  0  0  0  0  0  0  0  0  0
    7.2096    0.0733   18.5777 C   0  0  0  0  0  0  0  0  0  0  0  0
    8.1543   -0.4359   18.3897 H   0  0  0  0  0  0  0  0  0  0  0  0
    6.6757    0.0618   19.8863 C   0  0  0  0  0  0  0  0  0  0  0  0
    7.3515   -0.5725   20.9360 N   0  0  0  0  0  0  0  0  0  0  0  0
    7.6390   -1.5421   20.8306 H   0  0  0  0  0  0  0  0  0  0  0  0
    7.3599   -0.1334   22.2538 C   0  0  0  0  0  0  0  0  0  0  0  0
    7.3383    1.1739   22.7999 C   0  0  0  0  0  0  0  0  0  0  0  0
    7.2300    2.1087   22.2715 H   0  0  0  0  0  0  0  0  0  0  0  0
    7.4592    1.1633   24.1218 N   0  0  0  0  0  0  0  0  0  0  0  0
    7.5619   -0.1316   24.4385 N   0  0  0  0  0  0  0  0  0  0  0  0
    7.6700   -0.3858   25.4118 H   0  0  0  0  0  0  0  0  0  0  0  0
    7.5059   -0.9682   23.3594 C   0  0  0  0  0  0  0  0  0  0  0  0
    7.6177   -2.4034   23.4304 C   0  0  0  0  0  0  0  0  0  0  0  0
    7.0193   -3.3924   22.1211 S   0  0  0  0  0  0  0  0  0  0  0  0
    7.7427   -4.8039   22.7888 C   0  0  0  0  0  0  0  0  0  0  0  0
    7.9731   -6.1419   22.2303 C   0  0  0  0  0  0  0  0  0  0  0  0
    7.5500   -6.4226   21.2673 H   0  0  0  0  0  0  0  0  0  0  0  0
    8.7162   -6.9223   22.9991 C   0  0  0  0  0  0  0  0  0  0  0  0
    9.2066   -7.8716   22.7590 H   0  0  0  0  0  0  0  0  0  0  0  0
    9.2542   -5.8874   24.8640 C   0  0  0  0  0  0  0  0  0  0  0  0
    9.3773   -7.0076   25.2673 H   0  0  0  0  0  0  0  0  0  0  0  0
    8.9607   -5.8731   24.9596 C   0  0  0  0  0  0  0  0  0  0  0  0
    9.5987   -5.1166   25.7013 H   0  0  0  0  0  0  0  0  0  0  0  0
    8.2948   -4.5221   24.0095 C   0  0  0  0  0  0  0  0  0  0  0  0
    8.2585   -3.1714   24.3790 C   0  0  0  0  0  0  0  0  0  0  0  0
    8.7115   -2.6977   25.2418 H   0  0  0  0  0  0  0  0  0  0  0  0
    5.4363    0.6879   20.0850 C   0  0  0  0  0  0  0  0  0  0  0  0
    4.9898    0.6599   21.0801 H   0  0  0  0  0  0  0  0  0  0  0  0
    4.8236    1.3193   18.9985 C   0  0  0  0  0  0  0  0  0  0  0  0
    3.8783    1.8360   19.1174 H   0  0  0  0  0  0  0  0  0  0  0  0
  1  2  1  0
  2  3  2  0
  3  4  1  0
  4  5  1  0
  4  6  2  0
  6  7  1  0
  7  8  1  0
  7  9  1  0
  9 10  1  0
 10 11  1  0
 10 12  2  0
 12 13  1  0
 13 14  1  0
 13 15  1  0
 15 16  1  0
 16 17  1  0
 17 18  1  0
 18 19  2  0
 19 20  1  0
 19 21  1  0
 21 22  1  0
 21 23  2  0
 23 24  1  0
 23 25  1  0
 25 26  1  0
 25 27  2  0
 27 28  1  0
 28 29  1  0
  6 30  1  0
 30 31  1  0
 30 32  2  0
 32 33  1  0
 32  2  1  0
 15  9  2  0
 28 16  2  0
 27 18  1  0
M  END
>  <cnnaffinity>  (1) 
-5.92282

>  <filename>  (1) 
c1cncc(Nc2cn[nH]c2-c2cc3ccccc3s2)c1

$$$$
