
     RDKit          3D

 40 44  0  0  0  0  0  0  0  0999 V2000
    5.0135    1.8049   16.9170 H   0  0  0  0  0  0  0  0  0  0  0  0
    5.4578    1.2742   17.7576 C   0  0  0  0  0  0  0  0  0  0  0  0
    6.5912    0.6041   17.5050 N   0  0  0  0  0  0  0  0  0  0  0  0
    7.1723   -0.0507   18.5161 C   0  0  0  0  0  0  0  0  0  0  0  0
    8.0871   -0.5901   18.2806 H   0  0  0  0  0  0  0  0  0  0  0  0
    6.6733   -0.0447   19.8287 C   0  0  0  0  0  0  0  0  0  0  0  0
    7.4224   -0.6840   20.9115 C   0  0  0  0  0  0  0  0  0  0  0  0
    8.2656   -1.7618   20.7465 N   0  0  0  0  0  0  0  0  0  0  0  0
    8.6637   -2.0284   21.9610 C   0  0  0  0  0  0  0  0  0  0  0  0
    9.7446   -3.1803   22.7084 S   0  0  0  0  0  0  0  0  0  0  0  0
    9.5091   -2.4237   24.2707 C   0  0  0  0  0  0  0  0  0  0  0  0
   10.0330   -2.8037   25.1351 H   0  0  0  0  0  0  0  0  0  0  0  0
    8.6646   -1.3845   24.2100 C   0  0  0  0  0  0  0  0  0  0  0  0
    8.3592   -0.7071   25.0002 H   0  0  0  0  0  0  0  0  0  0  0  0
    8.1708   -1.1886   22.9228 N   0  0  0  0  0  0  0  0  0  0  0  0
    7.3672   -0.2880   22.2526 C   0  0  0  0  0  0  0  0  0  0  0  0
    6.7554    0.7895   22.8538 N   0  0  0  0  0  0  0  0  0  0  0  0
    6.1139    0.6610   24.1542 C   0  0  0  0  0  0  0  0  0  0  0  0
    5.1044    1.1067   24.0897 H   0  0  0  0  0  0  0  0  0  0  0  0
    5.9770   -0.3973   24.4024 H   0  0  0  0  0  0  0  0  0  0  0  0
    6.8549    1.3856   25.2768 C   0  0  0  0  0  0  0  0  0  0  0  0
    6.4787    1.1559   26.6110 C   0  0  0  0  0  0  0  0  0  0  0  0
    5.8497    0.3019   26.8620 H   0  0  0  0  0  0  0  0  0  0  0  0
    6.8780    2.0364   27.6180 C   0  0  0  0  0  0  0  0  0  0  0  0
    6.4956    1.9260   28.6322 H   0  0  0  0  0  0  0  0  0  0  0  0
    7.7324    3.0955   27.3017 C   0  0  0  0  0  0  0  0  0  0  0  0
    7.9938    3.8101   28.0692 H   0  0  0  0  0  0  0  0  0  0  0  0
    8.2132    3.2565   25.9988 C   0  0  0  0  0  0  0  0  0  0  0  0
    8.9015    4.0708   25.7764 H   0  0  0  0  0  0  0  0  0  0  0  0
    7.7902    2.4036   24.9719 C   0  0  0  0  0  0  0  0  0  0  0  0
    8.3008    2.5726   23.5475 C   0  0  0  0  0  0  0  0  0  0  0  0
    8.6063    3.6096   23.3615 H   0  0  0  0  0  0  0  0  0  0  0  0
    9.1946    1.9512   23.4089 H   0  0  0  0  0  0  0  0  0  0  0  0
    7.2341    2.1416   22.5361 C   0  0  0  0  0  0  0  0  0  0  0  0
    7.6207    2.1426   21.5111 H   0  0  0  0  0  0  0  0  0  0  0  0
    6.3809    2.8350   22.5750 H   0  0  0  0  0  0  0  0  0  0  0  0
    5.4685    0.6440   20.0712 C   0  0  0  0  0  0  0  0  0  0  0  0
    5.0359    0.6699   21.0706 H   0  0  0  0  0  0  0  0  0  0  0  0
    4.8487    1.3039   19.0150 C   0  0  0  0  0  0  0  0  0  0  0  0
    3.9206    1.8457   19.1508 H   0  0  0  0  0  0  0  0  0  0  0  0
  1  2  1  0
  2  3  2  0
  3  4  1  0
  4  5  1  0
  4  6  2  0
  6  7  1  0
  7  8  1  0
  8  9  2  0
  9 10  1  0
 10 11  1  0
 11 12  1  0
 11 13  2  0
 13 14  1  0
 13 15  1  0
 15 16  1  0
 16 17  1  0
 17 18  1  0
 18 19  1  0
 18 20  1  0
 18 21  1  0
 21 22  2  0
 22 23  1  0
 22 24  1  0
 24 25  1  0
 24 26  2  0
 26 27  1  0
 26 28  1  0
 28 29  1  0
 28 30  2  0
 30 31  1  0
 31 32  1  0
 31 33  1  0
 31 34  1  0
 34 35  1  0
 34 36  1  0
  6 37  1  0
 37 38  1  0
 37 39  2  0
 39 40  1  0
 39  2  1  0
 16  7  2  0
 34 17  1  0
 15  9  1  0
 30 21  1  0
M  END
>  <cnnaffinity>  (1) 
-5.51993

>  <filename>  (1) 
c1cncc(-c2nc3sccn3c2N2CCc3ccccc3C2)c1

$$$$
