
     RDKit          3D

 41 44  0  0  0  0  0  0  0  0999 V2000
    5.1727    1.3763   17.7142 H   0  0  0  0  0  0  0  0  0  0  0  0
    5.6889    0.8969   18.5472 C   0  0  0  0  0  0  0  0  0  0  0  0
    6.9403    0.4833   18.3098 N   0  0  0  0  0  0  0  0  0  0  0  0
    7.6095   -0.0840   19.3261 C   0  0  0  0  0  0  0  0  0  0  0  0
    8.6487   -0.3338   19.1120 H   0  0  0  0  0  0  0  0  0  0  0  0
    7.0846   -0.3232   20.6105 C   0  0  0  0  0  0  0  0  0  0  0  0
    8.0188   -0.9271   21.6880 C   0  0  0  0  0  0  0  0  0  0  0  0
    9.1541    0.1195   21.9739 C   0  0  0  0  0  0  0  0  0  0  0  0
   10.5451   -0.2269   21.9294 C   0  0  0  0  0  0  0  0  0  0  0  0
   10.8471   -1.1993   21.5495 H   0  0  0  0  0  0  0  0  0  0  0  0
   11.5338    0.6560   22.3063 C   0  0  0  0  0  0  0  0  0  0  0  0
   12.5741    0.3424   22.2959 H   0  0  0  0  0  0  0  0  0  0  0  0
   11.2182    1.9854   22.7213 C   0  0  0  0  0  0  0  0  0  0  0  0
   12.2091    2.9230   23.1597 C   0  0  0  0  0  0  0  0  0  0  0  0
   13.2493    2.6019   23.2330 H   0  0  0  0  0  0  0  0  0  0  0  0
   11.8536    4.2104   23.4927 C   0  0  0  0  0  0  0  0  0  0  0  0
   12.6000    4.9268   23.8238 H   0  0  0  0  0  0  0  0  0  0  0  0
   10.4882    4.6147   23.4230 C   0  0  0  0  0  0  0  0  0  0  0  0
   10.2266    5.6368   23.6825 H   0  0  0  0  0  0  0  0  0  0  0  0
    9.5131    3.7326   23.0302 C   0  0  0  0  0  0  0  0  0  0  0  0
    8.4708    4.0534   23.0010 H   0  0  0  0  0  0  0  0  0  0  0  0
    9.8411    2.3867   22.6789 C   0  0  0  0  0  0  0  0  0  0  0  0
    8.8413    1.4331   22.2960 C   0  0  0  0  0  0  0  0  0  0  0  0
    7.8162    1.8024   22.2239 H   0  0  0  0  0  0  0  0  0  0  0  0
    7.2824   -1.2916   23.0240 C   0  0  0  0  0  0  0  0  0  0  0  0
    6.7878   -0.4139   23.4547 H   0  0  0  0  0  0  0  0  0  0  0  0
    8.0437   -1.6118   23.7471 H   0  0  0  0  0  0  0  0  0  0  0  0
    6.2956   -2.4593   22.8572 C   0  0  0  0  0  0  0  0  0  0  0  0
    5.5075   -2.2056   22.1304 H   0  0  0  0  0  0  0  0  0  0  0  0
    5.8162   -2.7191   23.8075 H   0  0  0  0  0  0  0  0  0  0  0  0
    6.9517   -3.6293   22.4057 O   0  0  0  0  0  0  0  0  0  0  0  0
    7.5541   -3.4212   21.1428 C   0  0  0  0  0  0  0  0  0  0  0  0
    8.0144   -4.3766   20.8786 H   0  0  0  0  0  0  0  0  0  0  0  0
    6.7808   -3.2132   20.3847 H   0  0  0  0  0  0  0  0  0  0  0  0
    8.5963   -2.3007   21.2085 C   0  0  0  0  0  0  0  0  0  0  0  0
    9.1401   -2.1853   20.2673 H   0  0  0  0  0  0  0  0  0  0  0  0
    9.3218   -2.6291   21.9610 H   0  0  0  0  0  0  0  0  0  0  0  0
    5.7746    0.1360   20.8302 C   0  0  0  0  0  0  0  0  0  0  0  0
    5.2982    0.0304   21.8009 H   0  0  0  0  0  0  0  0  0  0  0  0
    5.0688    0.7462   19.7881 C   0  0  0  0  0  0  0  0  0  0  0  0
    4.0542    1.0957   19.9304 H   0  0  0  0  0  0  0  0  0  0  0  0
  1  2  1  0
  2  3  2  0
  3  4  1  0
  4  5  1  0
  4  6  2  0
  6  7  1  0
  7  8  1  0
  8  9  2  0
  9 10  1  0
  9 11  1  0
 11 12  1  0
 11 13  2  0
 13 14  1  0
 14 15  1  0
 14 16  2  0
 16 17  1  0
 16 18  1  0
 18 19  1  0
 18 20  2  0
 20 21  1  0
 20 22  1  0
 22 23  2  0
 23 24  1  0
  7 25  1  0
 25 26  1  0
 25 27  1  0
 25 28  1  0
 28 29  1  0
 28 30  1  0
 28 31  1  0
 31 32  1  0
 32 33  1  0
 32 34  1  0
 32 35  1  0
 35 36  1  0
 35 37  1  0
  6 38  1  0
 38 39  1  0
 38 40  2  0
 40 41  1  0
 40  2  1  0
 35  7  1  0
 23  8  1  0
 22 13  1  0
M  END
>  <cnnaffinity>  (1) 
-5.39822

>  <filename>  (1) 
c1cncc(C2(c3ccc4ccccc4c3)CCOCC2)c1

$$$$
