
     RDKit          3D

 32 35  0  0  0  0  0  0  0  0999 V2000
    5.0150    1.8477   16.9361 H   0  0  0  0  0  0  0  0  0  0  0  0
    5.4291    1.2929   17.7790 C   0  0  0  0  0  0  0  0  0  0  0  0
    6.5677    0.6230   17.5479 N   0  0  0  0  0  0  0  0  0  0  0  0
    7.1257   -0.0193   18.5793 C   0  0  0  0  0  0  0  0  0  0  0  0
    8.0353   -0.5696   18.3454 H   0  0  0  0  0  0  0  0  0  0  0  0
    6.6018   -0.0104   19.8882 C   0  0  0  0  0  0  0  0  0  0  0  0
    7.3251   -0.6590   20.9897 C   0  0  0  0  0  0  0  0  0  0  0  0
    7.9451   -1.8197   20.7970 N   0  0  0  0  0  0  0  0  0  0  0  0
    8.4651   -2.1049   21.9903 N   0  0  0  0  0  0  0  0  0  0  0  0
    8.2707   -1.1923   22.9404 C   0  0  0  0  0  0  0  0  0  0  0  0
    7.5156   -0.1882   22.3396 C   0  0  0  0  0  0  0  0  0  0  0  0
    7.2226    1.0942   22.9446 C   0  0  0  0  0  0  0  0  0  0  0  0
    7.0583    1.3261   24.2745 C   0  0  0  0  0  0  0  0  0  0  0  0
    7.0071    0.6393   25.1090 H   0  0  0  0  0  0  0  0  0  0  0  0
    6.8952    2.6460   24.5236 O   0  0  0  0  0  0  0  0  0  0  0  0
    6.9663    3.2801   23.3221 C   0  0  0  0  0  0  0  0  0  0  0  0
    6.9062    4.3591   23.3302 H   0  0  0  0  0  0  0  0  0  0  0  0
    7.1516    2.3914   22.3250 C   0  0  0  0  0  0  0  0  0  0  0  0
    7.2441    2.6084   21.2703 H   0  0  0  0  0  0  0  0  0  0  0  0
    9.0968   -1.5412   24.1635 C   0  0  0  0  0  0  0  0  0  0  0  0
    9.7973   -0.7399   24.4137 H   0  0  0  0  0  0  0  0  0  0  0  0
    8.4813   -1.7225   25.0471 H   0  0  0  0  0  0  0  0  0  0  0  0
    9.8463   -2.8393   23.7447 C   0  0  0  0  0  0  0  0  0  0  0  0
    9.5666   -3.6844   24.3774 H   0  0  0  0  0  0  0  0  0  0  0  0
   10.9271   -2.7132   23.8158 H   0  0  0  0  0  0  0  0  0  0  0  0
    9.4488   -3.1164   22.2739 C   0  0  0  0  0  0  0  0  0  0  0  0
   10.2872   -2.9491   21.5941 H   0  0  0  0  0  0  0  0  0  0  0  0
    9.0076   -4.1041   22.1227 H   0  0  0  0  0  0  0  0  0  0  0  0
    5.3714    0.6286   20.0950 C   0  0  0  0  0  0  0  0  0  0  0  0
    4.8764    0.5981   21.0698 H   0  0  0  0  0  0  0  0  0  0  0  0
    4.7883    1.2995   19.0210 C   0  0  0  0  0  0  0  0  0  0  0  0
    3.8560    1.8350   19.1311 H   0  0  0  0  0  0  0  0  0  0  0  0
  1  2  1  0
  2  3  2  0
  3  4  1  0
  4  5  1  0
  4  6  2  0
  6  7  1  0
  7  8  2  0
  8  9  1  0
  9 10  1  0
 10 11  2  0
 11 12  1  0
 12 13  2  0
 13 14  1  0
 13 15  1  0
 15 16  1  0
 16 17  1  0
 16 18  2  0
 18 19  1  0
 10 20  1  0
 20 21  1  0
 20 22  1  0
 20 23  1  0
 23 24  1  0
 23 25  1  0
 23 26  1  0
 26 27  1  0
 26 28  1  0
  6 29  1  0
 29 30  1  0
 29 31  2  0
 31 32  1  0
 31  2  1  0
 11  7  1  0
 18 12  1  0
 26  9  1  0
M  END
>  <cnnaffinity>  (1) 
-5.20737

>  <filename>  (1) 
c1cncc(-c2nn3c(c2-c2ccoc2)CCC3)c1

$$$$
