
     RDKit          3D

 39 43  0  0  0  0  0  0  0  0999 V2000
    4.9885    1.7945   16.9751 H   0  0  0  0  0  0  0  0  0  0  0  0
    5.4318    1.2831   17.8255 C   0  0  0  0  0  0  0  0  0  0  0  0
    6.5906    0.6451   17.6030 N   0  0  0  0  0  0  0  0  0  0  0  0
    7.1634    0.0212   18.6368 C   0  0  0  0  0  0  0  0  0  0  0  0
    8.1170   -0.4670   18.4391 H   0  0  0  0  0  0  0  0  0  0  0  0
    6.6060   -0.0095   19.9244 C   0  0  0  0  0  0  0  0  0  0  0  0
    7.3340   -0.7030   20.9873 C   0  0  0  0  0  0  0  0  0  0  0  0
    8.5418   -1.3165   20.7872 N   0  0  0  0  0  0  0  0  0  0  0  0
    8.8277   -1.7553   21.9960 C   0  0  0  0  0  0  0  0  0  0  0  0
   10.1254   -2.6237   22.7908 S   0  0  0  0  0  0  0  0  0  0  0  0
    9.3003   -2.4244   24.3220 C   0  0  0  0  0  0  0  0  0  0  0  0
    9.6853   -2.8317   25.2445 H   0  0  0  0  0  0  0  0  0  0  0  0
    8.1209   -1.7748   24.2057 C   0  0  0  0  0  0  0  0  0  0  0  0
    7.2413   -1.4807   25.2164 N   0  0  0  0  0  0  0  0  0  0  0  0
    7.7151   -1.1721   26.5584 C   0  0  0  0  0  0  0  0  0  0  0  0
    8.7273   -0.7495   26.5090 H   0  0  0  0  0  0  0  0  0  0  0  0
    7.7930   -2.0871   27.1758 H   0  0  0  0  0  0  0  0  0  0  0  0
    6.8135   -0.1892   27.2964 C   0  0  0  0  0  0  0  0  0  0  0  0
    7.2743    0.3654   28.4990 C   0  0  0  0  0  0  0  0  0  0  0  0
    8.3071    0.2075   28.8079 H   0  0  0  0  0  0  0  0  0  0  0  0
    6.4168    1.0920   29.3253 C   0  0  0  0  0  0  0  0  0  0  0  0
    6.7515    1.4212   30.3067 H   0  0  0  0  0  0  0  0  0  0  0  0
    5.1098    1.3465   28.9042 C   0  0  0  0  0  0  0  0  0  0  0  0
    4.4331    1.9026   29.5477 H   0  0  0  0  0  0  0  0  0  0  0  0
    4.6701    0.8787   27.6611 C   0  0  0  0  0  0  0  0  0  0  0  0
    3.6674    1.1328   27.3246 H   0  0  0  0  0  0  0  0  0  0  0  0
    5.5082    0.0976   26.8477 C   0  0  0  0  0  0  0  0  0  0  0  0
    5.0696   -0.4182   25.4843 C   0  0  0  0  0  0  0  0  0  0  0  0
    3.9861   -0.5789   25.4377 H   0  0  0  0  0  0  0  0  0  0  0  0
    5.3173    0.3260   24.7180 H   0  0  0  0  0  0  0  0  0  0  0  0
    5.8030   -1.7051   25.1039 C   0  0  0  0  0  0  0  0  0  0  0  0
    5.5618   -2.0146   24.0873 H   0  0  0  0  0  0  0  0  0  0  0  0
    5.4970   -2.5318   25.7657 H   0  0  0  0  0  0  0  0  0  0  0  0
    7.8584   -1.4368   22.8695 N   0  0  0  0  0  0  0  0  0  0  0  0
    6.8655   -0.7503   22.2253 N   0  0  0  0  0  0  0  0  0  0  0  0
    5.3905    0.6629   20.1482 C   0  0  0  0  0  0  0  0  0  0  0  0
    4.9486    0.6866   21.1466 H   0  0  0  0  0  0  0  0  0  0  0  0
    4.7943    1.3143   19.0726 C   0  0  0  0  0  0  0  0  0  0  0  0
    3.8629    1.8569   19.1885 H   0  0  0  0  0  0  0  0  0  0  0  0
  1  2  1  0
  2  3  2  0
  3  4  1  0
  4  5  1  0
  4  6  2  0
  6  7  1  0
  7  8  1  0
  8  9  2  0
  9 10  1  0
 10 11  1  0
 11 12  1  0
 11 13  2  0
 13 14  1  0
 14 15  1  0
 15 16  1  0
 15 17  1  0
 15 18  1  0
 18 19  2  0
 19 20  1  0
 19 21  1  0
 21 22  1  0
 21 23  2  0
 23 24  1  0
 23 25  1  0
 25 26  1  0
 25 27  2  0
 27 28  1  0
 28 29  1  0
 28 30  1  0
 28 31  1  0
 31 32  1  0
 31 33  1  0
 13 34  1  0
 34 35  1  0
  6 36  1  0
 36 37  1  0
 36 38  2  0
 38 39  1  0
 38  2  1  0
 35  7  2  0
 34  9  1  0
 31 14  1  0
 27 18  1  0
M  END
>  <cnnaffinity>  (1) 
-5.32708

>  <filename>  (1) 
c1cncc(-c2nc3scc(N4CCc5ccccc5C4)n3n2)c1

$$$$
