
     RDKit          3D

 35 39  0  0  0  0  0  0  0  0999 V2000
    5.0302    1.8607   17.0125 H   0  0  0  0  0  0  0  0  0  0  0  0
    5.5217    1.3191   17.8195 C   0  0  0  0  0  0  0  0  0  0  0  0
    6.6677    0.6946   17.4984 N   0  0  0  0  0  0  0  0  0  0  0  0
    7.3038    0.0219   18.4625 C   0  0  0  0  0  0  0  0  0  0  0  0
    8.2471   -0.4407   18.1720 H   0  0  0  0  0  0  0  0  0  0  0  0
    6.8187   -0.1100   19.7752 C   0  0  0  0  0  0  0  0  0  0  0  0
    7.5194   -0.9008   20.7218 N   0  0  0  0  0  0  0  0  0  0  0  0
    8.8626   -0.7720   21.0667 C   0  0  0  0  0  0  0  0  0  0  0  0
    9.4463   -0.0105   20.5715 H   0  0  0  0  0  0  0  0  0  0  0  0
    9.1697   -1.6771   22.0322 C   0  0  0  0  0  0  0  0  0  0  0  0
   10.0537   -1.9113   22.5976 H   0  0  0  0  0  0  0  0  0  0  0  0
    7.9998   -2.3782   22.2797 N   0  0  0  0  0  0  0  0  0  0  0  0
    7.6513   -3.3830   23.1078 N   0  0  0  0  0  0  0  0  0  0  0  0
    6.3387   -3.5140   22.8574 C   0  0  0  0  0  0  0  0  0  0  0  0
    5.4522   -4.5002   23.5046 C   0  0  0  0  0  0  0  0  0  0  0  0
    3.8101   -4.5668   22.8858 S   0  0  0  0  0  0  0  0  0  0  0  0
    3.3661   -5.8092   23.9969 C   0  0  0  0  0  0  0  0  0  0  0  0
    2.0983   -6.3970   24.1384 C   0  0  0  0  0  0  0  0  0  0  0  0
    1.2547   -6.0585   23.5363 H   0  0  0  0  0  0  0  0  0  0  0  0
    1.9502   -7.4063   25.0792 C   0  0  0  0  0  0  0  0  0  0  0  0
    0.9724   -7.8528   25.2256 H   0  0  0  0  0  0  0  0  0  0  0  0
    3.0431   -7.8306   25.8708 C   0  0  0  0  0  0  0  0  0  0  0  0
    2.8849   -8.6280   26.5911 H   0  0  0  0  0  0  0  0  0  0  0  0
    4.2872   -7.2273   25.7415 C   0  0  0  0  0  0  0  0  0  0  0  0
    5.1291   -7.5448   26.3515 H   0  0  0  0  0  0  0  0  0  0  0  0
    4.4672   -6.1880   24.7992 C   0  0  0  0  0  0  0  0  0  0  0  0
    5.6427   -5.3977   24.5115 C   0  0  0  0  0  0  0  0  0  0  0  0
    6.5720   -5.5023   25.0661 H   0  0  0  0  0  0  0  0  0  0  0  0
    5.8659   -2.6056   21.8769 C   0  0  0  0  0  0  0  0  0  0  0  0
    4.8440   -2.4938   21.5874 H   0  0  0  0  0  0  0  0  0  0  0  0
    6.9949   -1.9087   21.5082 C   0  0  0  0  0  0  0  0  0  0  0  0
    5.6329    0.5652   20.1102 C   0  0  0  0  0  0  0  0  0  0  0  0
    5.2505    0.5296   21.1320 H   0  0  0  0  0  0  0  0  0  0  0  0
    4.9790    1.2890   19.1093 C   0  0  0  0  0  0  0  0  0  0  0  0
    4.0584    1.8265   19.3158 H   0  0  0  0  0  0  0  0  0  0  0  0
  1  2  1  0
  2  3  2  0
  3  4  1  0
  4  5  1  0
  4  6  2  0
  6  7  1  0
  7  8  1  0
  8  9  1  0
  8 10  2  0
 10 11  1  0
 10 12  1  0
 12 13  1  0
 13 14  2  0
 14 15  1  0
 15 16  1  0
 16 17  1  0
 17 18  2  0
 18 19  1  0
 18 20  1  0
 20 21  1  0
 20 22  2  0
 22 23  1  0
 22 24  1  0
 24 25  1  0
 24 26  2  0
 26 27  1  0
 27 28  1  0
 14 29  1  0
 29 30  1  0
 29 31  2  0
  6 32  1  0
 32 33  1  0
 32 34  2  0
 34 35  1  0
 34  2  1  0
 31  7  1  0
 31 12  1  0
 27 15  2  0
 26 17  1  0
M  END
>  <cnnaffinity>  (1) 
-5.77866

>  <filename>  (1) 
c1cncc(-n2ccn3nc(-c4cc5ccccc5s4)cc23)c1

$$$$
