
     RDKit          3D

 33 36  0  0  0  0  0  0  0  0999 V2000
    4.9117    1.7983   16.9794 H   0  0  0  0  0  0  0  0  0  0  0  0
    5.3884    1.3052   17.8203 C   0  0  0  0  0  0  0  0  0  0  0  0
    6.5533    0.6901   17.5519 N   0  0  0  0  0  0  0  0  0  0  0  0
    7.1578    0.0652   18.5679 C   0  0  0  0  0  0  0  0  0  0  0  0
    8.1151   -0.4001   18.3349 H   0  0  0  0  0  0  0  0  0  0  0  0
    6.6503    0.0148   19.8844 C   0  0  0  0  0  0  0  0  0  0  0  0
    7.3670   -0.6523   20.9796 C   0  0  0  0  0  0  0  0  0  0  0  0
    7.5112   -0.3235   22.3249 C   0  0  0  0  0  0  0  0  0  0  0  0
    7.0192    0.8259   22.9527 N   0  0  0  0  0  0  0  0  0  0  0  0
    6.9822    1.6412   22.3658 H   0  0  0  0  0  0  0  0  0  0  0  0
    6.8033    1.0217   24.3188 C   0  0  0  0  0  0  0  0  0  0  0  0
    7.0101    2.2874   24.8900 C   0  0  0  0  0  0  0  0  0  0  0  0
    7.3616    3.1025   24.2650 H   0  0  0  0  0  0  0  0  0  0  0  0
    6.7942    2.5084   26.2674 C   0  0  0  0  0  0  0  0  0  0  0  0
    6.9508    3.4758   26.7307 H   0  0  0  0  0  0  0  0  0  0  0  0
    6.3541    1.4395   27.0256 C   0  0  0  0  0  0  0  0  0  0  0  0
    6.1352    0.1872   26.4444 C   0  0  0  0  0  0  0  0  0  0  0  0
    6.3425   -0.0499   25.1073 C   0  0  0  0  0  0  0  0  0  0  0  0
    6.1758   -1.0088   24.6355 H   0  0  0  0  0  0  0  0  0  0  0  0
    5.7067   -0.6894   27.3916 O   0  0  0  0  0  0  0  0  0  0  0  0
    5.6469    0.0421   28.6129 C   0  0  0  0  0  0  0  0  0  0  0  0
    6.3166   -0.4155   29.3471 H   0  0  0  0  0  0  0  0  0  0  0  0
    4.6188    0.0394   28.9876 H   0  0  0  0  0  0  0  0  0  0  0  0
    6.0595    1.3839   28.3580 O   0  0  0  0  0  0  0  0  0  0  0  0
    8.2893   -1.3768   22.8635 C   0  0  0  0  0  0  0  0  0  0  0  0
    8.6324   -1.4695   23.8825 H   0  0  0  0  0  0  0  0  0  0  0  0
    8.6050   -2.2872   21.9509 N   0  0  0  0  0  0  0  0  0  0  0  0
    8.0477   -1.8201   20.8251 N   0  0  0  0  0  0  0  0  0  0  0  0
    8.1331   -2.3575   19.9803 H   0  0  0  0  0  0  0  0  0  0  0  0
    5.4318    0.6625   20.1415 C   0  0  0  0  0  0  0  0  0  0  0  0
    5.0167    0.6263   21.1515 H   0  0  0  0  0  0  0  0  0  0  0  0
    4.7943    1.3190   19.0889 C   0  0  0  0  0  0  0  0  0  0  0  0
    3.8639    1.8490   19.2455 H   0  0  0  0  0  0  0  0  0  0  0  0
  1  2  1  0
  2  3  2  0
  3  4  1  0
  4  5  1  0
  4  6  2  0
  6  7  1  0
  7  8  2  0
  8  9  1  0
  9 10  1  0
  9 11  1  0
 11 12  2  0
 12 13  1  0
 12 14  1  0
 14 15  1  0
 14 16  2  0
 16 17  1  0
 17 18  2  0
 18 19  1  0
 17 20  1  0
 20 21  1  0
 21 22  1  0
 21 23  1  0
 21 24  1  0
  8 25  1  0
 25 26  1  0
 25 27  2  0
 27 28  1  0
 28 29  1  0
  6 30  1  0
 30 31  1  0
 30 32  2  0
 32 33  1  0
 32  2  1  0
 28  7  1  0
 18 11  1  0
 24 16  1  0
M  END
>  <cnnaffinity>  (1) 
-5.40737

>  <filename>  (1) 
c1cncc(-c2[nH]ncc2Nc2ccc3c(c2)OCO3)c1

$$$$
