
     RDKit          3D

 31 34  0  0  0  0  0  0  0  0999 V2000
    4.9694    1.8171   16.9968 H   0  0  0  0  0  0  0  0  0  0  0  0
    5.4172    1.2927   17.8357 C   0  0  0  0  0  0  0  0  0  0  0  0
    6.5887    0.6804   17.5987 N   0  0  0  0  0  0  0  0  0  0  0  0
    7.1853    0.0566   18.6231 C   0  0  0  0  0  0  0  0  0  0  0  0
    8.1505   -0.4023   18.4001 H   0  0  0  0  0  0  0  0  0  0  0  0
    6.6374   -0.0055   19.9225 C   0  0  0  0  0  0  0  0  0  0  0  0
    7.2940   -0.7213   20.9795 N   0  0  0  0  0  0  0  0  0  0  0  0
    7.5499   -2.0648   20.9926 C   0  0  0  0  0  0  0  0  0  0  0  0
    7.2249   -2.6967   20.1877 H   0  0  0  0  0  0  0  0  0  0  0  0
    8.1107   -2.4760   22.0982 N   0  0  0  0  0  0  0  0  0  0  0  0
    8.1921   -1.3614   22.8842 C   0  0  0  0  0  0  0  0  0  0  0  0
    8.5751   -1.4317   23.8909 H   0  0  0  0  0  0  0  0  0  0  0  0
    7.6869   -0.2568   22.2389 C   0  0  0  0  0  0  0  0  0  0  0  0
    7.5265    1.1088   22.6754 C   0  0  0  0  0  0  0  0  0  0  0  0
    7.4293    1.3261   24.0258 O   0  0  0  0  0  0  0  0  0  0  0  0
    7.3045    2.6731   24.1845 C   0  0  0  0  0  0  0  0  0  0  0  0
    7.1725    3.3399   25.4029 C   0  0  0  0  0  0  0  0  0  0  0  0
    7.1441    2.7790   26.3276 H   0  0  0  0  0  0  0  0  0  0  0  0
    7.0831    4.7310   25.3579 C   0  0  0  0  0  0  0  0  0  0  0  0
    6.9829    5.2894   26.2866 H   0  0  0  0  0  0  0  0  0  0  0  0
    7.1204    5.4258   24.1275 C   0  0  0  0  0  0  0  0  0  0  0  0
    7.0444    6.5104   24.1351 H   0  0  0  0  0  0  0  0  0  0  0  0
    7.2470    4.7471   22.9178 C   0  0  0  0  0  0  0  0  0  0  0  0
    7.2689    5.2905   21.9738 H   0  0  0  0  0  0  0  0  0  0  0  0
    7.3430    3.3373   22.9460 C   0  0  0  0  0  0  0  0  0  0  0  0
    7.4924    2.2807   21.9852 C   0  0  0  0  0  0  0  0  0  0  0  0
    7.5408    2.3250   20.9097 H   0  0  0  0  0  0  0  0  0  0  0  0
    5.4033    0.6264   20.1481 C   0  0  0  0  0  0  0  0  0  0  0  0
    4.9741    0.6354   21.1512 H   0  0  0  0  0  0  0  0  0  0  0  0
    4.7864    1.2894   19.0836 C   0  0  0  0  0  0  0  0  0  0  0  0
    3.8521    1.8241   19.2234 H   0  0  0  0  0  0  0  0  0  0  0  0
  1  2  1  0
  2  3  2  0
  3  4  1  0
  4  5  1  0
  4  6  2  0
  6  7  1  0
  7  8  1  0
  8  9  1  0
  8 10  2  0
 10 11  1  0
 11 12  1  0
 11 13  2  0
 13 14  1  0
 14 15  1  0
 15 16  1  0
 16 17  2  0
 17 18  1  0
 17 19  1  0
 19 20  1  0
 19 21  2  0
 21 22  1  0
 21 23  1  0
 23 24  1  0
 23 25  2  0
 25 26  1  0
 26 27  1  0
  6 28  1  0
 28 29  1  0
 28 30  2  0
 30 31  1  0
 30  2  1  0
 13  7  1  0
 26 14  2  0
 25 16  1  0
M  END
>  <cnnaffinity>  (1) 
-5.08571

>  <filename>  (1) 
c1cncc(-n2cncc2-c2cc3ccccc3o2)c1

$$$$
