
     RDKit          3D

 33 36  0  0  0  0  0  0  0  0999 V2000
    4.9025    1.7675   16.9631 H   0  0  0  0  0  0  0  0  0  0  0  0
    5.3932    1.3139   17.8258 C   0  0  0  0  0  0  0  0  0  0  0  0
    6.5639    0.6979   17.5978 N   0  0  0  0  0  0  0  0  0  0  0  0
    7.1604    0.1040   18.6396 C   0  0  0  0  0  0  0  0  0  0  0  0
    8.1093   -0.3886   18.4286 H   0  0  0  0  0  0  0  0  0  0  0  0
    6.6525    0.0866   19.9582 C   0  0  0  0  0  0  0  0  0  0  0  0
    7.3448   -0.6299   21.0645 C   0  0  0  0  0  0  0  0  0  0  0  0
    7.7628   -2.0051   21.0400 C   0  0  0  0  0  0  0  0  0  0  0  0
    7.4795   -2.7087   20.2665 H   0  0  0  0  0  0  0  0  0  0  0  0
    8.4462   -2.4511   22.0572 N   0  0  0  0  0  0  0  0  0  0  0  0
    8.6234   -1.2184   23.1587 S   0  0  0  0  0  0  0  0  0  0  0  0
    7.6453   -0.0906   22.3014 C   0  0  0  0  0  0  0  0  0  0  0  0
    7.2775    1.2299   22.8315 C   0  0  0  0  0  0  0  0  0  0  0  0
    7.7516    2.3488   22.1605 C   0  0  0  0  0  0  0  0  0  0  0  0
    8.3376    2.2164   21.2561 H   0  0  0  0  0  0  0  0  0  0  0  0
    7.4786    3.6549   22.6235 C   0  0  0  0  0  0  0  0  0  0  0  0
    7.8623    4.5009   22.0589 H   0  0  0  0  0  0  0  0  0  0  0  0
    6.7281    3.8457   23.7604 C   0  0  0  0  0  0  0  0  0  0  0  0
    6.5029    4.8525   24.1039 H   0  0  0  0  0  0  0  0  0  0  0  0
    6.1937    2.7340   24.4790 C   0  0  0  0  0  0  0  0  0  0  0  0
    5.3860    2.9309   25.6446 C   0  0  0  0  0  0  0  0  0  0  0  0
    5.2058    3.9472   25.9932 H   0  0  0  0  0  0  0  0  0  0  0  0
    4.8301    1.8607   26.3026 C   0  0  0  0  0  0  0  0  0  0  0  0
    4.2179    2.0176   27.1878 H   0  0  0  0  0  0  0  0  0  0  0  0
    5.0372    0.5427   25.8240 C   0  0  0  0  0  0  0  0  0  0  0  0
    4.5668   -0.2893   26.3410 H   0  0  0  0  0  0  0  0  0  0  0  0
    5.8124    0.3186   24.7043 C   0  0  0  0  0  0  0  0  0  0  0  0
    5.9224   -0.6947   24.3320 H   0  0  0  0  0  0  0  0  0  0  0  0
    6.4451    1.3989   24.0067 C   0  0  0  0  0  0  0  0  0  0  0  0
    5.4476    0.7709   20.1722 C   0  0  0  0  0  0  0  0  0  0  0  0
    5.0465    0.8326   21.1856 H   0  0  0  0  0  0  0  0  0  0  0  0
    4.7959    1.3634   19.0877 C   0  0  0  0  0  0  0  0  0  0  0  0
    3.8359    1.8498   19.2021 H   0  0  0  0  0  0  0  0  0  0  0  0
  1  2  1  0
  2  3  2  0
  3  4  1  0
  4  5  1  0
  4  6  2  0
  6  7  1  0
  7  8  1  0
  8  9  1  0
  8 10  2  0
 10 11  1  0
 11 12  1  0
 12 13  1  0
 13 14  2  0
 14 15  1  0
 14 16  1  0
 16 17  1  0
 16 18  2  0
 18 19  1  0
 18 20  1  0
 20 21  2  0
 21 22  1  0
 21 23  1  0
 23 24  1  0
 23 25  2  0
 25 26  1  0
 25 27  1  0
 27 28  1  0
 27 29  2  0
  6 30  1  0
 30 31  1  0
 30 32  2  0
 32 33  1  0
 32  2  1  0
 12  7  2  0
 29 13  1  0
 29 20  1  0
M  END
>  <cnnaffinity>  (1) 
-4.99114

>  <filename>  (1) 
c1cncc(-c2cnsc2-c2cccc3ccccc23)c1

$$$$
