
     RDKit          3D

 36 39  0  0  0  0  0  0  0  0999 V2000
    4.9245    1.7742   17.0014 H   0  0  0  0  0  0  0  0  0  0  0  0
    5.4119    1.2883   17.8458 C   0  0  0  0  0  0  0  0  0  0  0  0
    6.5782    0.6679   17.6011 N   0  0  0  0  0  0  0  0  0  0  0  0
    7.1758    0.0529   18.6262 C   0  0  0  0  0  0  0  0  0  0  0  0
    8.1168   -0.4382   18.3886 H   0  0  0  0  0  0  0  0  0  0  0  0
    6.6531    0.0310   19.9239 C   0  0  0  0  0  0  0  0  0  0  0  0
    7.3847   -0.7109   20.9636 C   0  0  0  0  0  0  0  0  0  0  0  0
    8.0130   -1.7895   20.6978 N   0  0  0  0  0  0  0  0  0  0  0  0
    8.5169   -2.3293   21.9557 C   0  0  0  0  0  0  0  0  0  0  0  0
    8.1476   -3.3478   22.1127 H   0  0  0  0  0  0  0  0  0  0  0  0
    9.6079   -2.3939   21.9118 H   0  0  0  0  0  0  0  0  0  0  0  0
    8.0442   -1.3750   23.0686 C   0  0  0  0  0  0  0  0  0  0  0  0
    7.3586   -1.8626   23.7747 H   0  0  0  0  0  0  0  0  0  0  0  0
    8.8806   -0.9633   23.6453 H   0  0  0  0  0  0  0  0  0  0  0  0
    7.3785   -0.3249   22.3007 N   0  0  0  0  0  0  0  0  0  0  0  0
    7.1449    0.9616   22.8516 C   0  0  0  0  0  0  0  0  0  0  0  0
    7.5675    2.1341   22.1445 C   0  0  0  0  0  0  0  0  0  0  0  0
    8.0422    2.0104   21.1762 H   0  0  0  0  0  0  0  0  0  0  0  0
    7.3554    3.3882   22.6693 C   0  0  0  0  0  0  0  0  0  0  0  0
    7.6636    4.2772   22.1208 H   0  0  0  0  0  0  0  0  0  0  0  0
    6.7240    3.5593   23.9388 C   0  0  0  0  0  0  0  0  0  0  0  0
    6.4957    4.8529   24.5060 C   0  0  0  0  0  0  0  0  0  0  0  0
    6.8101    5.7298   23.9382 H   0  0  0  0  0  0  0  0  0  0  0  0
    5.8921    4.9798   25.7379 C   0  0  0  0  0  0  0  0  0  0  0  0
    5.7199    5.9666   26.1639 H   0  0  0  0  0  0  0  0  0  0  0  0
    5.4879    3.8181   26.4634 C   0  0  0  0  0  0  0  0  0  0  0  0
    5.0124    3.9398   27.4354 H   0  0  0  0  0  0  0  0  0  0  0  0
    5.6952    2.5591   25.9407 C   0  0  0  0  0  0  0  0  0  0  0  0
    5.3894    1.6697   26.4914 H   0  0  0  0  0  0  0  0  0  0  0  0
    6.3155    2.3895   24.6619 C   0  0  0  0  0  0  0  0  0  0  0  0
    6.5440    1.0980   24.0888 C   0  0  0  0  0  0  0  0  0  0  0  0
    6.2351    0.2189   24.6462 H   0  0  0  0  0  0  0  0  0  0  0  0
    5.4221    0.6542   20.1631 C   0  0  0  0  0  0  0  0  0  0  0  0
    4.9936    0.6458   21.1693 H   0  0  0  0  0  0  0  0  0  0  0  0
    4.7996    1.3074   19.1058 C   0  0  0  0  0  0  0  0  0  0  0  0
    3.8688    1.8453   19.2577 H   0  0  0  0  0  0  0  0  0  0  0  0
  1  2  1  0
  2  3  2  0
  3  4  1  0
  4  5  1  0
  4  6  2  0
  6  7  1  0
  7  8  2  0
  8  9  1  0
  9 10  1  0
  9 11  1  0
  9 12  1  0
 12 13  1  0
 12 14  1  0
 12 15  1  0
 15 16  1  0
 16 17  2  0
 17 18  1  0
 17 19  1  0
 19 20  1  0
 19 21  2  0
 21 22  1  0
 22 23  1  0
 22 24  2  0
 24 25  1  0
 24 26  1  0
 26 27  1  0
 26 28  2  0
 28 29  1  0
 28 30  1  0
 30 31  2  0
 31 32  1  0
  6 33  1  0
 33 34  1  0
 33 35  2  0
 35 36  1  0
 35  2  1  0
 15  7  1  0
 31 16  1  0
 30 21  1  0
M  END
>  <cnnaffinity>  (1) 
-5.0822

>  <filename>  (1) 
c1cncc(C2=NCCN2c2ccc3ccccc3c2)c1

$$$$
