
     RDKit          3D

 27 30  0  0  0  0  0  0  0  0999 V2000
    4.9259    1.7725   17.0028 H   0  0  0  0  0  0  0  0  0  0  0  0
    5.4108    1.2852   17.8463 C   0  0  0  0  0  0  0  0  0  0  0  0
    6.5750    0.6669   17.5951 N   0  0  0  0  0  0  0  0  0  0  0  0
    7.1801    0.0529   18.6174 C   0  0  0  0  0  0  0  0  0  0  0  0
    8.1261   -0.4326   18.3848 H   0  0  0  0  0  0  0  0  0  0  0  0
    6.6457    0.0146   19.9136 C   0  0  0  0  0  0  0  0  0  0  0  0
    7.3590   -0.6898   20.9736 C   0  0  0  0  0  0  0  0  0  0  0  0
    8.5436   -1.3292   20.7651 N   0  0  0  0  0  0  0  0  0  0  0  0
    8.8015   -1.8041   21.9689 C   0  0  0  0  0  0  0  0  0  0  0  0
   10.0404   -2.7389   22.7591 S   0  0  0  0  0  0  0  0  0  0  0  0
    9.1558   -2.6333   24.2480 C   0  0  0  0  0  0  0  0  0  0  0  0
    9.5679   -3.1139   25.1264 H   0  0  0  0  0  0  0  0  0  0  0  0
    7.9998   -1.9333   24.1611 C   0  0  0  0  0  0  0  0  0  0  0  0
    7.0310   -1.6557   25.2293 C   0  0  0  0  0  0  0  0  0  0  0  0
    7.3059   -2.2538   26.8369 S   0  0  0  0  0  0  0  0  0  0  0  0
    5.8447   -1.5554   27.4097 C   0  0  0  0  0  0  0  0  0  0  0  0
    5.5512   -1.6631   28.4440 H   0  0  0  0  0  0  0  0  0  0  0  0
    5.1741   -0.8936   26.4255 C   0  0  0  0  0  0  0  0  0  0  0  0
    4.2267   -0.3773   26.5661 H   0  0  0  0  0  0  0  0  0  0  0  0
    5.8578   -0.9451   25.1800 C   0  0  0  0  0  0  0  0  0  0  0  0
    5.5286   -0.4573   24.2729 H   0  0  0  0  0  0  0  0  0  0  0  0
    7.8313   -1.4757   22.8442 N   0  0  0  0  0  0  0  0  0  0  0  0
    6.8802   -0.7479   22.2146 N   0  0  0  0  0  0  0  0  0  0  0  0
    5.4265    0.6583   20.1663 C   0  0  0  0  0  0  0  0  0  0  0  0
    4.9969    0.6362   21.1724 H   0  0  0  0  0  0  0  0  0  0  0  0
    4.8043    1.3100   19.1084 C   0  0  0  0  0  0  0  0  0  0  0  0
    3.8737    1.8434   19.2589 H   0  0  0  0  0  0  0  0  0  0  0  0
  1  2  1  0
  2  3  2  0
  3  4  1  0
  4  5  1  0
  4  6  2  0
  6  7  1  0
  7  8  1  0
  8  9  2  0
  9 10  1  0
 10 11  1  0
 11 12  1  0
 11 13  2  0
 13 14  1  0
 14 15  1  0
 15 16  1  0
 16 17  1  0
 16 18  2  0
 18 19  1  0
 18 20  1  0
 20 21  1  0
 13 22  1  0
 22 23  1  0
  6 24  1  0
 24 25  1  0
 24 26  2  0
 26 27  1  0
 26  2  1  0
 23  7  2  0
 22  9  1  0
 20 14  2  0
M  END
>  <cnnaffinity>  (1) 
-5.38293

>  <filename>  (1) 
c1cncc(-c2nc3scc(-c4cccs4)n3n2)c1

$$$$
