
     RDKit          3D

 34 36  0  0  0  0  0  0  0  0999 V2000
    4.9257    1.8046   16.9797 H   0  0  0  0  0  0  0  0  0  0  0  0
    5.3914    1.3016   17.8229 C   0  0  0  0  0  0  0  0  0  0  0  0
    6.5520    0.6775   17.5638 N   0  0  0  0  0  0  0  0  0  0  0  0
    7.1595    0.0612   18.5840 C   0  0  0  0  0  0  0  0  0  0  0  0
    8.1037   -0.4278   18.3418 H   0  0  0  0  0  0  0  0  0  0  0  0
    6.6521    0.0072   19.8968 C   0  0  0  0  0  0  0  0  0  0  0  0
    7.3673   -0.7236   20.9874 C   0  0  0  0  0  0  0  0  0  0  0  0
    8.7580   -0.5939   21.1730 C   0  0  0  0  0  0  0  0  0  0  0  0
    9.3475    0.0504   20.5230 H   0  0  0  0  0  0  0  0  0  0  0  0
    9.4367   -1.2151   22.1457 N   0  0  0  0  0  0  0  0  0  0  0  0
    8.7588   -2.0254   22.9733 C   0  0  0  0  0  0  0  0  0  0  0  0
    9.3440   -2.5091   23.7606 H   0  0  0  0  0  0  0  0  0  0  0  0
    7.3610   -2.2660   22.8663 C   0  0  0  0  0  0  0  0  0  0  0  0
    6.6566   -3.1788   23.6516 N   0  0  0  0  0  0  0  0  0  0  0  0
    5.6539   -3.0805   23.5528 H   0  0  0  0  0  0  0  0  0  0  0  0
    7.1545   -3.6567   24.9404 C   0  0  0  0  0  0  0  0  0  0  0  0
    8.0809   -4.2195   24.7692 H   0  0  0  0  0  0  0  0  0  0  0  0
    6.4108   -4.3694   25.3132 H   0  0  0  0  0  0  0  0  0  0  0  0
    7.4481   -2.6000   26.0211 C   0  0  0  0  0  0  0  0  0  0  0  0
    8.7270   -2.4323   26.5917 C   0  0  0  0  0  0  0  0  0  0  0  0
    9.5575   -3.0865   26.3405 H   0  0  0  0  0  0  0  0  0  0  0  0
    8.9510   -1.3837   27.4943 C   0  0  0  0  0  0  0  0  0  0  0  0
    9.9273   -1.2494   27.9679 H   0  0  0  0  0  0  0  0  0  0  0  0
    8.0016   -0.5165   27.8631 N   0  0  0  0  0  0  0  0  0  0  0  0
    6.7703   -0.7140   27.3841 C   0  0  0  0  0  0  0  0  0  0  0  0
    5.9955   -0.0440   27.7648 H   0  0  0  0  0  0  0  0  0  0  0  0
    6.4482   -1.7224   26.4713 C   0  0  0  0  0  0  0  0  0  0  0  0
    5.4317   -1.7943   26.0986 H   0  0  0  0  0  0  0  0  0  0  0  0
    6.6738   -1.5681   21.8588 C   0  0  0  0  0  0  0  0  0  0  0  0
    5.5985   -1.7087   21.7444 H   0  0  0  0  0  0  0  0  0  0  0  0
    5.4329    0.6571   20.1397 C   0  0  0  0  0  0  0  0  0  0  0  0
    5.0109    0.6518   21.1448 H   0  0  0  0  0  0  0  0  0  0  0  0
    4.7979    1.3198   19.0896 C   0  0  0  0  0  0  0  0  0  0  0  0
    3.8653    1.8516   19.2366 H   0  0  0  0  0  0  0  0  0  0  0  0
  1  2  1  0
  2  3  2  0
  3  4  1  0
  4  5  1  0
  4  6  2  0
  6  7  1  0
  7  8  2  0
  8  9  1  0
  8 10  1  0
 10 11  2  0
 11 12  1  0
 11 13  1  0
 13 14  1  0
 14 15  1  0
 14 16  1  0
 16 17  1  0
 16 18  1  0
 16 19  1  0
 19 20  2  0
 20 21  1  0
 20 22  1  0
 22 23  1  0
 22 24  2  0
 24 25  1  0
 25 26  1  0
 25 27  2  0
 27 28  1  0
 13 29  2  0
 29 30  1  0
  6 31  1  0
 31 32  1  0
 31 33  2  0
 33 34  1  0
 33  2  1  0
 29  7  1  0
 27 19  1  0
M  END
>  <cnnaffinity>  (1) 
-5.32387

>  <filename>  (1) 
c1cncc(-c2cncc(NCc3ccncc3)c2)c1

$$$$
