
     RDKit          3D

 41 44  0  0  0  0  0  0  0  0999 V2000
    4.8745    2.7317   16.4723 H   0  0  0  0  0  0  0  0  0  0  0  0
    5.3662    2.2076   17.2907 C   0  0  0  0  0  0  0  0  0  0  0  0
    6.4377    1.4711   16.9545 N   0  0  0  0  0  0  0  0  0  0  0  0
    7.0818    0.8367   17.9426 C   0  0  0  0  0  0  0  0  0  0  0  0
    7.9500    0.2526   17.6425 H   0  0  0  0  0  0  0  0  0  0  0  0
    6.7319    0.8854   19.3213 C   0  0  0  0  0  0  0  0  0  0  0  0
    7.4996    0.2339   20.3019 N   0  0  0  0  0  0  0  0  0  0  0  0
    7.9807   -1.1240   20.0106 C   0  0  0  0  0  0  0  0  0  0  0  0
    8.6985   -1.0700   19.1809 H   0  0  0  0  0  0  0  0  0  0  0  0
    7.1562   -1.7602   19.6470 H   0  0  0  0  0  0  0  0  0  0  0  0
    8.6929   -1.8621   21.1651 C   0  0  0  0  0  0  0  0  0  0  0  0
    9.0378   -2.8290   20.7753 H   0  0  0  0  0  0  0  0  0  0  0  0
    9.6028   -1.2911   21.4090 H   0  0  0  0  0  0  0  0  0  0  0  0
    7.8812   -2.1127   22.3632 N   0  0  0  0  0  0  0  0  0  0  0  0
    8.4437   -2.8247   23.3923 C   0  0  0  0  0  0  0  0  0  0  0  0
    7.6609   -3.0305   24.4914 O   0  0  0  0  0  0  0  0  0  0  0  0
    8.4145   -3.7584   25.3745 C   0  0  0  0  0  0  0  0  0  0  0  0
    8.0233   -4.1152   26.6570 C   0  0  0  0  0  0  0  0  0  0  0  0
    7.0522   -3.8310   27.0509 H   0  0  0  0  0  0  0  0  0  0  0  0
    8.9573   -4.8339   27.4051 C   0  0  0  0  0  0  0  0  0  0  0  0
    8.7021   -5.1511   28.4097 H   0  0  0  0  0  0  0  0  0  0  0  0
   10.2245   -5.1693   26.8800 C   0  0  0  0  0  0  0  0  0  0  0  0
   10.9231   -5.7049   27.5129 H   0  0  0  0  0  0  0  0  0  0  0  0
   10.5807   -4.8195   25.5791 C   0  0  0  0  0  0  0  0  0  0  0  0
   11.5435   -5.1190   25.1706 H   0  0  0  0  0  0  0  0  0  0  0  0
    9.6723   -4.0475   24.8194 C   0  0  0  0  0  0  0  0  0  0  0  0
    9.6712   -3.3974   23.5310 C   0  0  0  0  0  0  0  0  0  0  0  0
   10.4857   -3.2783   22.8353 H   0  0  0  0  0  0  0  0  0  0  0  0
    6.5565   -1.5022   22.4758 C   0  0  0  0  0  0  0  0  0  0  0  0
    6.0069   -1.7223   21.5496 H   0  0  0  0  0  0  0  0  0  0  0  0
    6.0170   -1.9801   23.2967 H   0  0  0  0  0  0  0  0  0  0  0  0
    6.6029    0.0229   22.6592 C   0  0  0  0  0  0  0  0  0  0  0  0
    6.9094    0.2762   23.6819 H   0  0  0  0  0  0  0  0  0  0  0  0
    5.5868    0.4191   22.5274 H   0  0  0  0  0  0  0  0  0  0  0  0
    7.5595    0.7246   21.6801 C   0  0  0  0  0  0  0  0  0  0  0  0
    7.3677    1.8044   21.6757 H   0  0  0  0  0  0  0  0  0  0  0  0
    8.5931    0.5946   22.0322 H   0  0  0  0  0  0  0  0  0  0  0  0
    5.5937    1.6618   19.6372 C   0  0  0  0  0  0  0  0  0  0  0  0
    5.2546    1.7342   20.6705 H   0  0  0  0  0  0  0  0  0  0  0  0
    4.9085    2.3203   18.6084 C   0  0  0  0  0  0  0  0  0  0  0  0
    4.0280    2.9210   18.8192 H   0  0  0  0  0  0  0  0  0  0  0  0
  1  2  1  0
  2  3  2  0
  3  4  1  0
  4  5  1  0
  4  6  2  0
  6  7  1  0
  7  8  1  0
  8  9  1  0
  8 10  1  0
  8 11  1  0
 11 12  1  0
 11 13  1  0
 11 14  1  0
 14 15  1  0
 15 16  1  0
 16 17  1  0
 17 18  2  0
 18 19  1  0
 18 20  1  0
 20 21  1  0
 20 22  2  0
 22 23  1  0
 22 24  1  0
 24 25  1  0
 24 26  2  0
 26 27  1  0
 27 28  1  0
 14 29  1  0
 29 30  1  0
 29 31  1  0
 29 32  1  0
 32 33  1  0
 32 34  1  0
 32 35  1  0
 35 36  1  0
 35 37  1  0
  6 38  1  0
 38 39  1  0
 38 40  2  0
 40 41  1  0
 40  2  1  0
 35  7  1  0
 27 15  2  0
 26 17  1  0
M  END
>  <cnnaffinity>  (1) 
-5.42554

>  <filename>  (1) 
c1cncc(N2CCCN(c3cc4ccccc4o3)CC2)c1

$$$$
