
     RDKit          3D

 41 43  0  0  0  0  0  0  0  0999 V2000
    4.9800    1.6160   16.9407 H   0  0  0  0  0  0  0  0  0  0  0  0
    5.4789    1.1352   17.7788 C   0  0  0  0  0  0  0  0  0  0  0  0
    6.6052    0.4648   17.4893 N   0  0  0  0  0  0  0  0  0  0  0  0
    7.2601   -0.1015   18.5120 C   0  0  0  0  0  0  0  0  0  0  0  0
    8.1474   -0.6741   18.2443 H   0  0  0  0  0  0  0  0  0  0  0  0
    6.8639   -0.0198   19.8624 C   0  0  0  0  0  0  0  0  0  0  0  0
    7.7357   -0.5641   20.9392 C   0  0  0  0  0  0  0  0  0  0  0  0
    9.1295   -0.4334   20.8700 C   0  0  0  0  0  0  0  0  0  0  0  0
    9.5963    0.0952   20.0506 H   0  0  0  0  0  0  0  0  0  0  0  0
    9.9123   -0.9773   21.8887 C   0  0  0  0  0  0  0  0  0  0  0  0
   10.9963   -0.8787   21.8618 H   0  0  0  0  0  0  0  0  0  0  0  0
    9.4099   -1.6391   22.9380 N   0  0  0  0  0  0  0  0  0  0  0  0
    8.0782   -1.7539   23.0244 C   0  0  0  0  0  0  0  0  0  0  0  0
    7.5684   -2.5003   24.2281 C   0  0  0  0  0  0  0  0  0  0  0  0
    6.5314   -2.2131   24.4380 H   0  0  0  0  0  0  0  0  0  0  0  0
    8.1780   -2.1921   25.0844 H   0  0  0  0  0  0  0  0  0  0  0  0
    7.6681   -4.0241   24.0686 C   0  0  0  0  0  0  0  0  0  0  0  0
    7.3031   -4.4972   25.0065 H   0  0  0  0  0  0  0  0  0  0  0  0
    8.7273   -4.3001   23.9625 H   0  0  0  0  0  0  0  0  0  0  0  0
    6.9575   -4.5039   22.8901 N   0  0  0  0  0  0  0  0  0  0  0  0
    7.3867   -5.8178   22.3554 C   0  0  0  0  0  0  0  0  0  0  0  0
    7.6268   -5.7028   21.2875 H   0  0  0  0  0  0  0  0  0  0  0  0
    8.3138   -6.1472   22.8461 H   0  0  0  0  0  0  0  0  0  0  0  0
    6.2962   -6.8968   22.4916 C   0  0  0  0  0  0  0  0  0  0  0  0
    6.0060   -6.9360   23.5448 H   0  0  0  0  0  0  0  0  0  0  0  0
    6.6776   -7.8896   22.2299 H   0  0  0  0  0  0  0  0  0  0  0  0
    5.0452   -6.5104   21.6801 C   0  0  0  0  0  0  0  0  0  0  0  0
    5.1699   -6.7803   20.6207 H   0  0  0  0  0  0  0  0  0  0  0  0
    4.1627   -7.0514   22.0501 H   0  0  0  0  0  0  0  0  0  0  0  0
    4.7932   -4.9899   21.7927 C   0  0  0  0  0  0  0  0  0  0  0  0
    3.7215   -4.7886   21.8751 H   0  0  0  0  0  0  0  0  0  0  0  0
    5.1664   -4.5003   20.8884 H   0  0  0  0  0  0  0  0  0  0  0  0
    5.5002   -4.3394   22.9823 C   0  0  0  0  0  0  0  0  0  0  0  0
    5.0778   -4.7659   23.9142 H   0  0  0  0  0  0  0  0  0  0  0  0
    5.2476   -3.2745   23.0002 H   0  0  0  0  0  0  0  0  0  0  0  0
    7.2155   -1.2098   22.0657 C   0  0  0  0  0  0  0  0  0  0  0  0
    6.1465   -1.2985   22.2099 H   0  0  0  0  0  0  0  0  0  0  0  0
    5.6431    0.6224   20.1277 C   0  0  0  0  0  0  0  0  0  0  0  0
    5.2593    0.6796   21.1494 H   0  0  0  0  0  0  0  0  0  0  0  0
    4.9454    1.2122   19.0716 C   0  0  0  0  0  0  0  0  0  0  0  0
    4.0136    1.7430   19.2327 H   0  0  0  0  0  0  0  0  0  0  0  0
  1  2  1  0
  2  3  2  0
  3  4  1  0
  4  5  1  0
  4  6  2  0
  6  7  1  0
  7  8  2  0
  8  9  1  0
  8 10  1  0
 10 11  1  0
 10 12  2  0
 12 13  1  0
 13 14  1  0
 14 15  1  0
 14 16  1  0
 14 17  1  0
 17 18  1  0
 17 19  1  0
 17 20  1  0
 20 21  1  0
 21 22  1  0
 21 23  1  0
 21 24  1  0
 24 25  1  0
 24 26  1  0
 24 27  1  0
 27 28  1  0
 27 29  1  0
 27 30  1  0
 30 31  1  0
 30 32  1  0
 30 33  1  0
 33 34  1  0
 33 35  1  0
 13 36  2  0
 36 37  1  0
  6 38  1  0
 38 39  1  0
 38 40  2  0
 40 41  1  0
 40  2  1  0
 36  7  1  0
 33 20  1  0
M  END
>  <cnnaffinity>  (1) 
-5.16186

>  <filename>  (1) 
c1cncc(-c2ccnc(CCN3CCCCC3)c2)c1

$$$$
