
     RDKit          3D

 34 37  0  0  0  0  0  0  0  0999 V2000
    4.9132    1.8201   16.9632 H   0  0  0  0  0  0  0  0  0  0  0  0
    5.3816    1.3092   17.8068 C   0  0  0  0  0  0  0  0  0  0  0  0
    6.5416    0.6874   17.5474 N   0  0  0  0  0  0  0  0  0  0  0  0
    7.1543    0.0693   18.5646 C   0  0  0  0  0  0  0  0  0  0  0  0
    8.0970   -0.4150   18.3178 H   0  0  0  0  0  0  0  0  0  0  0  0
    6.6670    0.0111   19.8879 C   0  0  0  0  0  0  0  0  0  0  0  0
    7.4022   -0.6981   20.9600 C   0  0  0  0  0  0  0  0  0  0  0  0
    8.7747   -1.0829   21.0460 C   0  0  0  0  0  0  0  0  0  0  0  0
    9.5799   -0.9059   20.3448 H   0  0  0  0  0  0  0  0  0  0  0  0
    9.0516   -1.7087   22.1723 N   0  0  0  0  0  0  0  0  0  0  0  0
    7.8850   -1.7580   22.8508 N   0  0  0  0  0  0  0  0  0  0  0  0
    7.7660   -2.3590   24.1450 C   0  0  0  0  0  0  0  0  0  0  0  0
    8.9607   -2.6081   24.8874 C   0  0  0  0  0  0  0  0  0  0  0  0
    9.9109   -2.3335   24.4371 H   0  0  0  0  0  0  0  0  0  0  0  0
    8.8860   -3.2093   26.1173 C   0  0  0  0  0  0  0  0  0  0  0  0
    9.7932   -3.4006   26.6854 H   0  0  0  0  0  0  0  0  0  0  0  0
    7.6256   -3.6013   26.6679 C   0  0  0  0  0  0  0  0  0  0  0  0
    7.5375   -4.2676   27.9164 C   0  0  0  0  0  0  0  0  0  0  0  0
    8.4730   -4.4866   28.4147 H   0  0  0  0  0  0  0  0  0  0  0  0
    6.3161   -4.5704   28.4771 C   0  0  0  0  0  0  0  0  0  0  0  0
    6.2586   -4.9924   29.4757 H   0  0  0  0  0  0  0  0  0  0  0  0
    5.1159   -4.2628   27.7802 C   0  0  0  0  0  0  0  0  0  0  0  0
    4.1587   -4.4974   28.2381 H   0  0  0  0  0  0  0  0  0  0  0  0
    5.1675   -3.6588   26.5433 C   0  0  0  0  0  0  0  0  0  0  0  0
    4.2567   -3.4387   25.9920 H   0  0  0  0  0  0  0  0  0  0  0  0
    6.4237   -3.3141   25.9525 C   0  0  0  0  0  0  0  0  0  0  0  0
    6.5317   -2.6939   24.6737 C   0  0  0  0  0  0  0  0  0  0  0  0
    5.6196   -2.5114   24.1159 H   0  0  0  0  0  0  0  0  0  0  0  0
    6.8947   -1.1552   22.1529 C   0  0  0  0  0  0  0  0  0  0  0  0
    5.9159   -1.0890   22.5833 H   0  0  0  0  0  0  0  0  0  0  0  0
    5.4438    0.6623   20.1276 C   0  0  0  0  0  0  0  0  0  0  0  0
    5.0109    0.6660   21.1253 H   0  0  0  0  0  0  0  0  0  0  0  0
    4.7948    1.3195   19.0779 C   0  0  0  0  0  0  0  0  0  0  0  0
    3.8611    1.8512   19.2278 H   0  0  0  0  0  0  0  0  0  0  0  0
  1  2  1  0
  2  3  2  0
  3  4  1  0
  4  5  1  0
  4  6  2  0
  6  7  1  0
  7  8  1  0
  8  9  1  0
  8 10  2  0
 10 11  1  0
 11 12  1  0
 12 13  2  0
 13 14  1  0
 13 15  1  0
 15 16  1  0
 15 17  2  0
 17 18  1  0
 18 19  1  0
 18 20  2  0
 20 21  1  0
 20 22  1  0
 22 23  1  0
 22 24  2  0
 24 25  1  0
 24 26  1  0
 26 27  2  0
 27 28  1  0
 11 29  1  0
 29 30  1  0
  6 31  1  0
 31 32  1  0
 31 33  2  0
 33 34  1  0
 33  2  1  0
 29  7  2  0
 27 12  1  0
 26 17  1  0
M  END
>  <cnnaffinity>  (1) 
-5.28884

>  <filename>  (1) 
c1cncc(-c2cnn(-c3ccc4ccccc4c3)c2)c1

$$$$
