
     RDKit          3D

 35 38  0  0  0  0  0  0  0  0999 V2000
    4.9834    1.8229   16.9458 H   0  0  0  0  0  0  0  0  0  0  0  0
    5.4221    1.2989   17.7942 C   0  0  0  0  0  0  0  0  0  0  0  0
    6.5692    0.6415   17.5665 N   0  0  0  0  0  0  0  0  0  0  0  0
    7.1562    0.0294   18.6021 C   0  0  0  0  0  0  0  0  0  0  0  0
    8.0791   -0.5010   18.3765 H   0  0  0  0  0  0  0  0  0  0  0  0
    6.6461    0.0650   19.9167 C   0  0  0  0  0  0  0  0  0  0  0  0
    7.3683   -0.5809   21.0211 C   0  0  0  0  0  0  0  0  0  0  0  0
    8.2951   -1.5876   20.7999 N   0  0  0  0  0  0  0  0  0  0  0  0
    8.6501   -1.9680   21.9989 C   0  0  0  0  0  0  0  0  0  0  0  0
    9.6639   -3.2104   22.6953 S   0  0  0  0  0  0  0  0  0  0  0  0
    9.3178   -2.6308   24.3084 C   0  0  0  0  0  0  0  0  0  0  0  0
    9.7814   -3.1232   25.1530 H   0  0  0  0  0  0  0  0  0  0  0  0
    8.4752   -1.5857   24.2999 C   0  0  0  0  0  0  0  0  0  0  0  0
    8.1127   -1.0141   25.1445 H   0  0  0  0  0  0  0  0  0  0  0  0
    8.0682   -1.2458   23.0113 N   0  0  0  0  0  0  0  0  0  0  0  0
    7.2384   -0.3387   22.3890 C   0  0  0  0  0  0  0  0  0  0  0  0
    6.5426    0.5610   23.1017 O   0  0  0  0  0  0  0  0  0  0  0  0
    7.1618    1.8484   23.3510 C   0  0  0  0  0  0  0  0  0  0  0  0
    6.3955    2.3995   23.9115 H   0  0  0  0  0  0  0  0  0  0  0  0
    8.4716    1.8033   24.1356 C   0  0  0  0  0  0  0  0  0  0  0  0
    8.3363    1.5169   25.1848 H   0  0  0  0  0  0  0  0  0  0  0  0
    9.1294    1.0722   23.6559 H   0  0  0  0  0  0  0  0  0  0  0  0
    9.1079    3.1888   23.9136 C   0  0  0  0  0  0  0  0  0  0  0  0
   10.2027    3.1223   23.8829 H   0  0  0  0  0  0  0  0  0  0  0  0
    8.8480    3.8876   24.7152 H   0  0  0  0  0  0  0  0  0  0  0  0
    8.5614    3.6647   22.5413 C   0  0  0  0  0  0  0  0  0  0  0  0
    9.3860    3.7300   21.8352 H   0  0  0  0  0  0  0  0  0  0  0  0
    8.1025    4.6550   22.6042 H   0  0  0  0  0  0  0  0  0  0  0  0
    7.5541    2.5938   22.0805 C   0  0  0  0  0  0  0  0  0  0  0  0
    8.0710    1.8978   21.4102 H   0  0  0  0  0  0  0  0  0  0  0  0
    6.6766    2.9633   21.5430 H   0  0  0  0  0  0  0  0  0  0  0  0
    5.4301    0.7388   20.1291 C   0  0  0  0  0  0  0  0  0  0  0  0
    4.9957    0.7940   21.1277 H   0  0  0  0  0  0  0  0  0  0  0  0
    4.8010    1.3492   19.0454 C   0  0  0  0  0  0  0  0  0  0  0  0
    3.8572    1.8703   19.1578 H   0  0  0  0  0  0  0  0  0  0  0  0
  1  2  1  0
  2  3  2  0
  3  4  1  0
  4  5  1  0
  4  6  2  0
  6  7  1  0
  7  8  1  0
  8  9  2  0
  9 10  1  0
 10 11  1  0
 11 12  1  0
 11 13  2  0
 13 14  1  0
 13 15  1  0
 15 16  1  0
 16 17  1  0
 17 18  1  0
 18 19  1  0
 18 20  1  0
 20 21  1  0
 20 22  1  0
 20 23  1  0
 23 24  1  0
 23 25  1  0
 23 26  1  0
 26 27  1  0
 26 28  1  0
 26 29  1  0
 29 30  1  0
 29 31  1  0
  6 32  1  0
 32 33  1  0
 32 34  2  0
 34 35  1  0
 34  2  1  0
 16  7  2  0
 29 18  1  0
 15  9  1  0
M  END
>  <cnnaffinity>  (1) 
-5.476

>  <filename>  (1) 
c1cncc(-c2nc3sccn3c2OC2CCCC2)c1

$$$$
