
     RDKit          3D

 31 34  0  0  0  0  0  0  0  0999 V2000
    4.9167    1.7902   16.9834 H   0  0  0  0  0  0  0  0  0  0  0  0
    5.3944    1.2992   17.8250 C   0  0  0  0  0  0  0  0  0  0  0  0
    6.5556    0.6830   17.5567 N   0  0  0  0  0  0  0  0  0  0  0  0
    7.1677    0.0767   18.5806 C   0  0  0  0  0  0  0  0  0  0  0  0
    8.1064   -0.4231   18.3525 H   0  0  0  0  0  0  0  0  0  0  0  0
    6.6644    0.0249   19.8912 C   0  0  0  0  0  0  0  0  0  0  0  0
    7.3974   -0.6883   20.9502 C   0  0  0  0  0  0  0  0  0  0  0  0
    8.7520   -0.7746   21.0658 C   0  0  0  0  0  0  0  0  0  0  0  0
    9.4697   -0.3049   20.4138 H   0  0  0  0  0  0  0  0  0  0  0  0
    9.2443   -1.6633   22.4495 S   0  0  0  0  0  0  0  0  0  0  0  0
    7.5907   -1.9464   22.9207 C   0  0  0  0  0  0  0  0  0  0  0  0
    7.1943   -2.6574   24.1292 C   0  0  0  0  0  0  0  0  0  0  0  0
    6.0967   -2.3147   24.8590 C   0  0  0  0  0  0  0  0  0  0  0  0
    5.4062   -1.5125   24.6474 H   0  0  0  0  0  0  0  0  0  0  0  0
    5.8696   -3.2507   26.2845 S   0  0  0  0  0  0  0  0  0  0  0  0
    7.2813   -4.2000   25.9237 C   0  0  0  0  0  0  0  0  0  0  0  0
    7.8022   -5.2706   26.6696 C   0  0  0  0  0  0  0  0  0  0  0  0
    7.3369   -5.5899   27.5977 H   0  0  0  0  0  0  0  0  0  0  0  0
    8.9256   -5.9223   26.1777 C   0  0  0  0  0  0  0  0  0  0  0  0
    9.3364   -6.7632   26.7202 H   0  0  0  0  0  0  0  0  0  0  0  0
    9.5388   -5.5330   24.9714 C   0  0  0  0  0  0  0  0  0  0  0  0
   10.4234   -6.0680   24.6301 H   0  0  0  0  0  0  0  0  0  0  0  0
    9.0254   -4.4772   24.2332 C   0  0  0  0  0  0  0  0  0  0  0  0
    9.4881   -4.1836   23.2934 H   0  0  0  0  0  0  0  0  0  0  0  0
    7.8940   -3.7865   24.7192 C   0  0  0  0  0  0  0  0  0  0  0  0
    6.7490   -1.3793   22.0102 C   0  0  0  0  0  0  0  0  0  0  0  0
    5.6749   -1.4906   22.0217 H   0  0  0  0  0  0  0  0  0  0  0  0
    5.4345    0.6575   20.1440 C   0  0  0  0  0  0  0  0  0  0  0  0
    5.0215    0.6411   21.1560 H   0  0  0  0  0  0  0  0  0  0  0  0
    4.7999    1.3171   19.0935 C   0  0  0  0  0  0  0  0  0  0  0  0
    3.8688    1.8462   19.2495 H   0  0  0  0  0  0  0  0  0  0  0  0
  1  2  1  0
  2  3  2  0
  3  4  1  0
  4  5  1  0
  4  6  2  0
  6  7  1  0
  7  8  2  0
  8  9  1  0
  8 10  1  0
 10 11  1  0
 11 12  1  0
 12 13  2  0
 13 14  1  0
 13 15  1  0
 15 16  1  0
 16 17  2  0
 17 18  1  0
 17 19  1  0
 19 20  1  0
 19 21  2  0
 21 22  1  0
 21 23  1  0
 23 24  1  0
 23 25  2  0
 11 26  2  0
 26 27  1  0
  6 28  1  0
 28 29  1  0
 28 30  2  0
 30 31  1  0
 30  2  1  0
 26  7  1  0
 25 12  1  0
 25 16  1  0
M  END
>  <cnnaffinity>  (1) 
-5.49297

>  <filename>  (1) 
c1cncc(-c2csc(-c3csc4ccccc34)c2)c1

$$$$
