
     RDKit          3D

 33 36  0  0  0  0  0  0  0  0999 V2000
    4.9447    1.8134   16.9430 H   0  0  0  0  0  0  0  0  0  0  0  0
    5.4031    1.3294   17.8063 C   0  0  0  0  0  0  0  0  0  0  0  0
    6.5806    0.7236   17.5928 N   0  0  0  0  0  0  0  0  0  0  0  0
    7.1564    0.1181   18.6406 C   0  0  0  0  0  0  0  0  0  0  0  0
    8.1124   -0.3607   18.4342 H   0  0  0  0  0  0  0  0  0  0  0  0
    6.6160    0.0632   19.9449 C   0  0  0  0  0  0  0  0  0  0  0  0
    7.3074   -0.6900   21.0271 C   0  0  0  0  0  0  0  0  0  0  0  0
    7.7182   -1.9964   21.0891 C   0  0  0  0  0  0  0  0  0  0  0  0
    7.6256   -2.7598   20.3410 H   0  0  0  0  0  0  0  0  0  0  0  0
    8.2112   -2.3176   22.3272 N   0  0  0  0  0  0  0  0  0  0  0  0
    8.0879   -1.2378   23.0462 C   0  0  0  0  0  0  0  0  0  0  0  0
    8.3512   -1.1216   24.0955 H   0  0  0  0  0  0  0  0  0  0  0  0
    7.5573   -0.2057   22.3262 N   0  0  0  0  0  0  0  0  0  0  0  0
    7.2874    1.0344   22.9286 C   0  0  0  0  0  0  0  0  0  0  0  0
    6.9130    1.0044   24.1852 N   0  0  0  0  0  0  0  0  0  0  0  0
    6.5506    2.1932   24.7539 C   0  0  0  0  0  0  0  0  0  0  0  0
    6.0162    2.1545   26.0740 C   0  0  0  0  0  0  0  0  0  0  0  0
    5.8983    1.1630   26.5027 H   0  0  0  0  0  0  0  0  0  0  0  0
    5.6784    3.3215   26.7244 C   0  0  0  0  0  0  0  0  0  0  0  0
    5.2857    3.2849   27.7384 H   0  0  0  0  0  0  0  0  0  0  0  0
    5.8446    4.5797   26.0828 C   0  0  0  0  0  0  0  0  0  0  0  0
    5.5864    5.4905   26.6218 H   0  0  0  0  0  0  0  0  0  0  0  0
    6.3274    4.6450   24.7932 C   0  0  0  0  0  0  0  0  0  0  0  0
    6.4418    5.6004   24.2915 H   0  0  0  0  0  0  0  0  0  0  0  0
    6.6851    3.4548   24.0913 C   0  0  0  0  0  0  0  0  0  0  0  0
    7.1766    3.4304   22.7458 C   0  0  0  0  0  0  0  0  0  0  0  0
    7.2990    4.3573   22.1860 H   0  0  0  0  0  0  0  0  0  0  0  0
    7.4750    2.2241   22.1668 C   0  0  0  0  0  0  0  0  0  0  0  0
    7.8212    2.1133   21.1465 H   0  0  0  0  0  0  0  0  0  0  0  0
    5.3708    0.6989   20.1329 C   0  0  0  0  0  0  0  0  0  0  0  0
    4.9021    0.7008   21.1188 H   0  0  0  0  0  0  0  0  0  0  0  0
    4.7654    1.3394   19.0497 C   0  0  0  0  0  0  0  0  0  0  0  0
    3.8104    1.8405   19.1506 H   0  0  0  0  0  0  0  0  0  0  0  0
  1  2  1  0
  2  3  2  0
  3  4  1  0
  4  5  1  0
  4  6  2  0
  6  7  1  0
  7  8  2  0
  8  9  1  0
  8 10  1  0
 10 11  2  0
 11 12  1  0
 11 13  1  0
 13 14  1  0
 14 15  2  0
 15 16  1  0
 16 17  2  0
 17 18  1  0
 17 19  1  0
 19 20  1  0
 19 21  2  0
 21 22  1  0
 21 23  1  0
 23 24  1  0
 23 25  2  0
 25 26  1  0
 26 27  1  0
 26 28  2  0
 28 29  1  0
  6 30  1  0
 30 31  1  0
 30 32  2  0
 32 33  1  0
 32  2  1  0
 13  7  1  0
 28 14  1  0
 25 16  1  0
M  END
>  <cnnaffinity>  (1) 
-5.16794

>  <filename>  (1) 
c1cncc(-c2cncn2-c2ccc3ccccc3n2)c1

$$$$
