
     RDKit          3D

 37 39  0  0  0  0  0  0  0  0999 V2000
    4.9182    1.9468   16.8306 H   0  0  0  0  0  0  0  0  0  0  0  0
    5.3292    1.4903   17.7270 C   0  0  0  0  0  0  0  0  0  0  0  0
    6.5075    0.8726   17.5681 N   0  0  0  0  0  0  0  0  0  0  0  0
    7.0374    0.3059   18.6545 C   0  0  0  0  0  0  0  0  0  0  0  0
    7.9907   -0.1971   18.4950 H   0  0  0  0  0  0  0  0  0  0  0  0
    6.4564    0.3014   19.9429 C   0  0  0  0  0  0  0  0  0  0  0  0
    7.2180   -0.3486   21.0982 C   0  0  0  0  0  0  0  0  0  0  0  0
    8.1136    0.7193   21.7789 C   0  0  0  0  0  0  0  0  0  0  0  0
    8.6654    1.2225   20.9694 H   0  0  0  0  0  0  0  0  0  0  0  0
    7.4361    1.4857   22.1894 H   0  0  0  0  0  0  0  0  0  0  0  0
    9.0343    0.2242   22.8089 N   0  0  0  0  0  0  0  0  0  0  0  0
    8.8298    0.7699   24.1669 C   0  0  0  0  0  0  0  0  0  0  0  0
    7.7831    0.6548   24.4757 H   0  0  0  0  0  0  0  0  0  0  0  0
    9.0632    1.8505   24.2163 H   0  0  0  0  0  0  0  0  0  0  0  0
    9.7194    0.0161   25.1639 C   0  0  0  0  0  0  0  0  0  0  0  0
    9.6398    0.4510   26.1672 H   0  0  0  0  0  0  0  0  0  0  0  0
    9.3776   -1.0308   25.2139 H   0  0  0  0  0  0  0  0  0  0  0  0
   11.1001    0.0658   24.8049 O   0  0  0  0  0  0  0  0  0  0  0  0
   11.2997   -0.4037   23.4728 C   0  0  0  0  0  0  0  0  0  0  0  0
   11.0172   -1.4668   23.4096 H   0  0  0  0  0  0  0  0  0  0  0  0
   12.3690   -0.3129   23.2476 H   0  0  0  0  0  0  0  0  0  0  0  0
   10.4599    0.3810   22.4687 C   0  0  0  0  0  0  0  0  0  0  0  0
   10.6578    0.0020   21.4580 H   0  0  0  0  0  0  0  0  0  0  0  0
   10.7679    1.4437   22.4908 H   0  0  0  0  0  0  0  0  0  0  0  0
    7.9271   -1.6766   20.6887 C   0  0  0  0  0  0  0  0  0  0  0  0
    7.3634   -2.0678   19.8394 H   0  0  0  0  0  0  0  0  0  0  0  0
    9.0003   -1.6701   20.4502 H   0  0  0  0  0  0  0  0  0  0  0  0
    7.4358   -2.3572   21.9728 C   0  0  0  0  0  0  0  0  0  0  0  0
    8.1884   -2.3357   22.7673 H   0  0  0  0  0  0  0  0  0  0  0  0
    7.0385   -3.3749   21.8828 H   0  0  0  0  0  0  0  0  0  0  0  0
    6.4094   -1.2144   22.1076 C   0  0  0  0  0  0  0  0  0  0  0  0
    5.4499   -1.4931   21.6649 H   0  0  0  0  0  0  0  0  0  0  0  0
    6.2472   -0.7959   23.1086 H   0  0  0  0  0  0  0  0  0  0  0  0
    5.2274    0.9624   20.0816 C   0  0  0  0  0  0  0  0  0  0  0  0
    4.7126    1.0126   21.0462 H   0  0  0  0  0  0  0  0  0  0  0  0
    4.6573    1.5611   18.9530 C   0  0  0  0  0  0  0  0  0  0  0  0
    3.7065    2.0759   19.0001 H   0  0  0  0  0  0  0  0  0  0  0  0
  1  2  1  0
  2  3  2  0
  3  4  1  0
  4  5  1  0
  4  6  2  0
  6  7  1  0
  7  8  1  0
  8  9  1  0
  8 10  1  0
  8 11  1  0
 11 12  1  0
 12 13  1  0
 12 14  1  0
 12 15  1  0
 15 16  1  0
 15 17  1  0
 15 18  1  0
 18 19  1  0
 19 20  1  0
 19 21  1  0
 19 22  1  0
 22 23  1  0
 22 24  1  0
  7 25  1  0
 25 26  1  0
 25 27  1  0
 25 28  1  0
 28 29  1  0
 28 30  1  0
 28 31  1  0
 31 32  1  0
 31 33  1  0
  6 34  1  0
 34 35  1  0
 34 36  2  0
 36 37  1  0
 36  2  1  0
 31  7  1  0
 22 11  1  0
M  END
>  <cnnaffinity>  (1) 
-4.6219

>  <filename>  (1) 
c1cncc(C2(CN3CCOCC3)CCC2)c1

$$$$
