
     RDKit          3D

 31 34  0  0  0  0  0  0  0  0999 V2000
    5.0167    1.7558   17.0155 H   0  0  0  0  0  0  0  0  0  0  0  0
    5.4819    1.2828   17.8766 C   0  0  0  0  0  0  0  0  0  0  0  0
    6.6530    0.6667   17.6422 N   0  0  0  0  0  0  0  0  0  0  0  0
    7.2469    0.0763   18.6864 C   0  0  0  0  0  0  0  0  0  0  0  0
    8.1978   -0.4184   18.4787 H   0  0  0  0  0  0  0  0  0  0  0  0
    6.7285    0.0765   20.0046 C   0  0  0  0  0  0  0  0  0  0  0  0
    7.4192   -0.5835   21.1417 C   0  0  0  0  0  0  0  0  0  0  0  0
    7.3958   -0.2539   22.5591 C   0  0  0  0  0  0  0  0  0  0  0  0
    6.8683    0.9319   23.2784 C   0  0  0  0  0  0  0  0  0  0  0  0
    6.0710    0.7934   24.4192 C   0  0  0  0  0  0  0  0  0  0  0  0
    5.8790   -0.2037   24.8050 H   0  0  0  0  0  0  0  0  0  0  0  0
    5.5598    1.9239   25.0895 C   0  0  0  0  0  0  0  0  0  0  0  0
    4.9528    1.7742   25.9771 H   0  0  0  0  0  0  0  0  0  0  0  0
    5.8555    3.2178   24.6738 C   0  0  0  0  0  0  0  0  0  0  0  0
    5.4846    4.0864   25.2105 H   0  0  0  0  0  0  0  0  0  0  0  0
    6.6713    3.3595   23.5420 C   0  0  0  0  0  0  0  0  0  0  0  0
    7.1906    2.2454   22.8382 C   0  0  0  0  0  0  0  0  0  0  0  0
    8.0109    2.7815   21.7908 C   0  0  0  0  0  0  0  0  0  0  0  0
    8.5569    2.1689   21.0877 H   0  0  0  0  0  0  0  0  0  0  0  0
    7.9430    4.1416   21.8680 C   0  0  0  0  0  0  0  0  0  0  0  0
    8.3802    4.9180   21.2516 H   0  0  0  0  0  0  0  0  0  0  0  0
    7.1433    4.4923   22.9303 N   0  0  0  0  0  0  0  0  0  0  0  0
    6.8979    5.4320   23.1962 H   0  0  0  0  0  0  0  0  0  0  0  0
    8.0164   -1.1789   23.2576 N   0  0  0  0  0  0  0  0  0  0  0  0
    8.5213   -2.0799   22.3610 O   0  0  0  0  0  0  0  0  0  0  0  0
    8.1802   -1.7102   21.1254 C   0  0  0  0  0  0  0  0  0  0  0  0
    8.5701   -2.3323   20.3400 H   0  0  0  0  0  0  0  0  0  0  0  0
    5.5000    0.7232   20.2159 C   0  0  0  0  0  0  0  0  0  0  0  0
    5.0838    0.7535   21.2262 H   0  0  0  0  0  0  0  0  0  0  0  0
    4.8653    1.3330   19.1333 C   0  0  0  0  0  0  0  0  0  0  0  0
    3.9185    1.8539   19.2511 H   0  0  0  0  0  0  0  0  0  0  0  0
  1  2  1  0
  2  3  2  0
  3  4  1  0
  4  5  1  0
  4  6  2  0
  6  7  1  0
  7  8  1  0
  8  9  1  0
  9 10  2  0
 10 11  1  0
 10 12  1  0
 12 13  1  0
 12 14  2  0
 14 15  1  0
 14 16  1  0
 16 17  2  0
 17 18  1  0
 18 19  1  0
 18 20  2  0
 20 21  1  0
 20 22  1  0
 22 23  1  0
  8 24  2  0
 24 25  1  0
 25 26  1  0
 26 27  1  0
  6 28  1  0
 28 29  1  0
 28 30  2  0
 30 31  1  0
 30  2  1  0
 26  7  2  0
 17  9  1  0
 22 16  1  0
M  END
>  <cnnaffinity>  (1) 
-4.82083

>  <filename>  (1) 
c1cncc(-c2conc2-c2cccc3[nH]ccc23)c1

$$$$
