
     RDKit          3D

 33 36  0  0  0  0  0  0  0  0999 V2000
    4.9289    1.7743   17.0009 H   0  0  0  0  0  0  0  0  0  0  0  0
    5.4092    1.2873   17.8475 C   0  0  0  0  0  0  0  0  0  0  0  0
    6.5751    0.6682   17.6012 N   0  0  0  0  0  0  0  0  0  0  0  0
    7.1736    0.0526   18.6236 C   0  0  0  0  0  0  0  0  0  0  0  0
    8.1161   -0.4392   18.3916 H   0  0  0  0  0  0  0  0  0  0  0  0
    6.6547    0.0315   19.9224 C   0  0  0  0  0  0  0  0  0  0  0  0
    7.4045   -0.7045   20.9468 C   0  0  0  0  0  0  0  0  0  0  0  0
    8.0966   -1.7455   20.6820 N   0  0  0  0  0  0  0  0  0  0  0  0
    8.6196   -2.2624   21.9442 C   0  0  0  0  0  0  0  0  0  0  0  0
    8.2928   -3.2966   22.0979 H   0  0  0  0  0  0  0  0  0  0  0  0
    9.7134   -2.2732   21.9053 H   0  0  0  0  0  0  0  0  0  0  0  0
    8.1025   -1.3328   23.0610 C   0  0  0  0  0  0  0  0  0  0  0  0
    8.9149   -0.8522   23.6203 H   0  0  0  0  0  0  0  0  0  0  0  0
    7.4733   -1.8646   23.7887 H   0  0  0  0  0  0  0  0  0  0  0  0
    7.3501   -0.3377   22.2908 N   0  0  0  0  0  0  0  0  0  0  0  0
    7.1659    0.9740   22.7717 C   0  0  0  0  0  0  0  0  0  0  0  0
    7.7000    2.0794   22.2000 C   0  0  0  0  0  0  0  0  0  0  0  0
    8.2967    2.1021   21.3002 H   0  0  0  0  0  0  0  0  0  0  0  0
    7.3531    3.5485   23.0478 S   0  0  0  0  0  0  0  0  0  0  0  0
    6.4352    2.6798   24.2546 C   0  0  0  0  0  0  0  0  0  0  0  0
    5.7640    3.2065   25.3771 C   0  0  0  0  0  0  0  0  0  0  0  0
    5.7834    4.2742   25.5827 H   0  0  0  0  0  0  0  0  0  0  0  0
    5.0712    2.3325   26.2092 C   0  0  0  0  0  0  0  0  0  0  0  0
    4.5434    2.7191   27.0819 H   0  0  0  0  0  0  0  0  0  0  0  0
    5.0352    0.9460   25.9394 C   0  0  0  0  0  0  0  0  0  0  0  0
    4.4825    0.2756   26.5953 H   0  0  0  0  0  0  0  0  0  0  0  0
    5.6982    0.4281   24.8346 C   0  0  0  0  0  0  0  0  0  0  0  0
    5.6618   -0.6357   24.6021 H   0  0  0  0  0  0  0  0  0  0  0  0
    6.4150    1.2910   23.9791 C   0  0  0  0  0  0  0  0  0  0  0  0
    5.4257    0.6613   20.1679 C   0  0  0  0  0  0  0  0  0  0  0  0
    4.9909    0.6463   21.1716 H   0  0  0  0  0  0  0  0  0  0  0  0
    4.8001    1.3071   19.1069 C   0  0  0  0  0  0  0  0  0  0  0  0
    3.8707    1.8435   19.2535 H   0  0  0  0  0  0  0  0  0  0  0  0
  1  2  1  0
  2  3  2  0
  3  4  1  0
  4  5  1  0
  4  6  2  0
  6  7  1  0
  7  8  2  0
  8  9  1  0
  9 10  1  0
  9 11  1  0
  9 12  1  0
 12 13  1  0
 12 14  1  0
 12 15  1  0
 15 16  1  0
 16 17  2  0
 17 18  1  0
 17 19  1  0
 19 20  1  0
 20 21  2  0
 21 22  1  0
 21 23  1  0
 23 24  1  0
 23 25  2  0
 25 26  1  0
 25 27  1  0
 27 28  1  0
 27 29  2  0
  6 30  1  0
 30 31  1  0
 30 32  2  0
 32 33  1  0
 32  2  1  0
 15  7  1  0
 29 16  1  0
 29 20  1  0
M  END
>  <cnnaffinity>  (1) 
-5.25414

>  <filename>  (1) 
c1cncc(C2=NCCN2c2csc3ccccc23)c1

$$$$
