
     RDKit          3D

 29 32  0  0  0  0  0  0  0  0999 V2000
    4.9619    1.8334   16.9470 H   0  0  0  0  0  0  0  0  0  0  0  0
    5.4095    1.3009   17.7815 C   0  0  0  0  0  0  0  0  0  0  0  0
    6.5619    0.6638   17.5283 N   0  0  0  0  0  0  0  0  0  0  0  0
    7.1471    0.0091   18.5366 C   0  0  0  0  0  0  0  0  0  0  0  0
    8.0989   -0.4680   18.3067 H   0  0  0  0  0  0  0  0  0  0  0  0
    6.6146   -0.0472   19.8387 C   0  0  0  0  0  0  0  0  0  0  0  0
    7.3650   -0.6794   20.9394 C   0  0  0  0  0  0  0  0  0  0  0  0
    8.4783   -1.3949   20.7155 N   0  0  0  0  0  0  0  0  0  0  0  0
    8.8981   -1.6878   21.9642 N   0  0  0  0  0  0  0  0  0  0  0  0
   10.0705   -2.2192   22.4878 C   0  0  0  0  0  0  0  0  0  0  0  0
   10.8183   -2.6066   21.8228 H   0  0  0  0  0  0  0  0  0  0  0  0
   10.0110   -2.0279   23.8250 C   0  0  0  0  0  0  0  0  0  0  0  0
   10.7241   -2.2487   24.6071 H   0  0  0  0  0  0  0  0  0  0  0  0
    8.7961   -1.4084   24.1360 N   0  0  0  0  0  0  0  0  0  0  0  0
    8.4107   -0.9461   25.3840 C   0  0  0  0  0  0  0  0  0  0  0  0
    9.1950   -0.6735   26.3952 N   0  0  0  0  0  0  0  0  0  0  0  0
    8.3646   -0.1244   27.3410 C   0  0  0  0  0  0  0  0  0  0  0  0
    8.7448    0.2560   28.2788 H   0  0  0  0  0  0  0  0  0  0  0  0
    7.0705   -0.1026   26.9129 C   0  0  0  0  0  0  0  0  0  0  0  0
    6.1591    0.2605   27.3679 H   0  0  0  0  0  0  0  0  0  0  0  0
    7.1114   -0.6560   25.6505 N   0  0  0  0  0  0  0  0  0  0  0  0
    6.3696   -0.8463   25.0017 H   0  0  0  0  0  0  0  0  0  0  0  0
    8.1200   -1.1865   22.9359 C   0  0  0  0  0  0  0  0  0  0  0  0
    7.0715   -0.5271   22.3195 C   0  0  0  0  0  0  0  0  0  0  0  0
    6.2731    0.0483   22.7529 H   0  0  0  0  0  0  0  0  0  0  0  0
    5.3994    0.6192   20.0773 C   0  0  0  0  0  0  0  0  0  0  0  0
    4.9509    0.6399   21.0714 H   0  0  0  0  0  0  0  0  0  0  0  0
    4.7896    1.3037   19.0336 C   0  0  0  0  0  0  0  0  0  0  0  0
    3.8704    1.8571   19.1854 H   0  0  0  0  0  0  0  0  0  0  0  0
  1  2  1  0
  2  3  2  0
  3  4  1  0
  4  5  1  0
  4  6  2  0
  6  7  1  0
  7  8  2  0
  8  9  1  0
  9 10  1  0
 10 11  1  0
 10 12  2  0
 12 13  1  0
 12 14  1  0
 14 15  1  0
 15 16  2  0
 16 17  1  0
 17 18  1  0
 17 19  2  0
 19 20  1  0
 19 21  1  0
 21 22  1  0
 14 23  1  0
 23 24  2  0
 24 25  1  0
  6 26  1  0
 26 27  1  0
 26 28  2  0
 28 29  1  0
 28  2  1  0
 24  7  1  0
 23  9  1  0
 21 15  1  0
M  END
>  <cnnaffinity>  (1) 
-5.24769

>  <filename>  (1) 
c1cncc(-c2cc3n(-c4ncc[nH]4)ccn3n2)c1

$$$$
