
     RDKit          3D

 38 42  0  0  0  0  0  0  0  0999 V2000
    4.9100    1.8307   16.9621 H   0  0  0  0  0  0  0  0  0  0  0  0
    5.3945    1.3183   17.7904 C   0  0  0  0  0  0  0  0  0  0  0  0
    6.5513    0.7033   17.5113 N   0  0  0  0  0  0  0  0  0  0  0  0
    7.1736    0.0844   18.5223 C   0  0  0  0  0  0  0  0  0  0  0  0
    8.1129   -0.4064   18.2683 H   0  0  0  0  0  0  0  0  0  0  0  0
    6.6962    0.0321   19.8452 C   0  0  0  0  0  0  0  0  0  0  0  0
    7.4557   -0.6826   20.9417 C   0  0  1  0  0  0  0  0  0  0  0  0
    8.3906   -1.0727   20.5254 H   0  0  0  0  0  0  0  0  0  0  0  0
    7.8422    0.2527   22.1388 C   0  0  0  0  0  0  0  0  0  0  0  0
    8.9253    0.3700   22.2144 H   0  0  0  0  0  0  0  0  0  0  0  0
    7.4239    1.2582   22.0553 H   0  0  0  0  0  0  0  0  0  0  0  0
    7.2965   -0.4550   23.3381 C   0  0  0  0  0  0  0  0  0  0  0  0
    7.2886   -0.2101   24.6348 N   0  0  0  0  0  0  0  0  0  0  0  0
    6.6704   -1.3032   25.1490 N   0  0  0  0  0  0  0  0  0  0  0  0
    6.5561   -1.3553   26.1548 H   0  0  0  0  0  0  0  0  0  0  0  0
    6.2716   -2.2160   24.2083 C   0  0  0  0  0  0  0  0  0  0  0  0
    5.6430   -3.5349   24.4574 C   0  0  0  0  0  0  0  0  0  0  0  0
    6.0342   -4.3495   25.5715 C   0  0  0  0  0  0  0  0  0  0  0  0
    6.7471   -3.9603   26.2982 H   0  0  0  0  0  0  0  0  0  0  0  0
    5.5573   -5.6355   25.7332 C   0  0  0  0  0  0  0  0  0  0  0  0
    5.8783   -6.2680   26.5543 H   0  0  0  0  0  0  0  0  0  0  0  0
    4.6446   -6.1184   24.7670 C   0  0  0  0  0  0  0  0  0  0  0  0
    4.2208   -5.3468   23.6617 C   0  0  0  0  0  0  0  0  0  0  0  0
    3.3391   -6.2326   22.9587 C   0  0  0  0  0  0  0  0  0  0  0  0
    2.7889   -6.0483   22.0444 H   0  0  0  0  0  0  0  0  0  0  0  0
    3.2322   -7.3999   23.5659 N   0  0  0  0  0  0  0  0  0  0  0  0
    4.0317   -7.3228   24.6534 N   0  0  0  0  0  0  0  0  0  0  0  0
    4.0581   -8.0774   25.3212 H   0  0  0  0  0  0  0  0  0  0  0  0
    4.7327   -4.0295   23.5166 C   0  0  0  0  0  0  0  0  0  0  0  0
    4.4366   -3.3720   22.7052 H   0  0  0  0  0  0  0  0  0  0  0  0
    6.6880   -1.6596   23.0135 C   0  0  0  0  0  0  0  0  0  0  0  0
    6.6698   -1.8990   21.5384 C   0  0  0  0  0  0  0  0  0  0  0  0
    7.1331   -2.8512   21.2589 H   0  0  0  0  0  0  0  0  0  0  0  0
    5.6413   -1.9417   21.1583 H   0  0  0  0  0  0  0  0  0  0  0  0
    5.4721    0.6679   20.1058 C   0  0  0  0  0  0  0  0  0  0  0  0
    5.0428    0.6641   21.1095 H   0  0  0  0  0  0  0  0  0  0  0  0
    4.8156    1.3205   19.0624 C   0  0  0  0  0  0  0  0  0  0  0  0
    3.8785    1.8363   19.2206 H   0  0  0  0  0  0  0  0  0  0  0  0
  1  2  1  0
  2  3  2  0
  3  4  1  0
  4  5  1  0
  4  6  2  0
  6  7  1  0
  7  8  1  6
  7  9  1  0
  9 10  1  0
  9 11  1  0
  9 12  1  0
 12 13  2  0
 13 14  1  0
 14 15  1  0
 14 16  1  0
 16 17  1  0
 17 18  2  0
 18 19  1  0
 18 20  1  0
 20 21  1  0
 20 22  2  0
 22 23  1  0
 23 24  1  0
 24 25  1  0
 24 26  2  0
 26 27  1  0
 27 28  1  0
 23 29  2  0
 29 30  1  0
 16 31  2  0
 31 32  1  0
 32 33  1  0
 32 34  1  0
  6 35  1  0
 35 36  1  0
 35 37  2  0
 37 38  1  0
 37  2  1  0
 32  7  1  0
 31 12  1  0
 29 17  1  0
 27 22  1  0
M  END
>  <cnnaffinity>  (1) 
-5.53092

>  <filename>  (1) 
c1cncc([C@H]2Cc3n[nH]c(-c4ccc5[nH]ncc5c4)c3C2)c1

$$$$
