
     RDKit          3D

 34 37  0  0  0  0  0  0  0  0999 V2000
    4.9252    1.8422   16.9722 H   0  0  0  0  0  0  0  0  0  0  0  0
    5.4000    1.3152   17.7980 C   0  0  0  0  0  0  0  0  0  0  0  0
    6.5577    0.6914   17.5248 N   0  0  0  0  0  0  0  0  0  0  0  0
    7.1689    0.0462   18.5349 C   0  0  0  0  0  0  0  0  0  0  0  0
    8.0803   -0.4922   18.2746 H   0  0  0  0  0  0  0  0  0  0  0  0
    6.6748   -0.0112   19.8683 C   0  0  0  0  0  0  0  0  0  0  0  0
    7.3154   -0.6684   20.9432 N   0  0  0  0  0  0  0  0  0  0  0  0
    6.7186   -1.2186   21.5481 H   0  0  0  0  0  0  0  0  0  0  0  0
    8.6644   -0.5903   21.3118 C   0  0  0  0  0  0  0  0  0  0  0  0
    9.6663    0.2466   20.7641 C   0  0  0  0  0  0  0  0  0  0  0  0
    9.5131    1.0072   20.0193 H   0  0  0  0  0  0  0  0  0  0  0  0
   10.8696   -0.0027   21.2611 N   0  0  0  0  0  0  0  0  0  0  0  0
   10.6521   -0.9927   22.1360 N   0  0  0  0  0  0  0  0  0  0  0  0
   11.4517   -1.3803   22.6201 H   0  0  0  0  0  0  0  0  0  0  0  0
    9.3398   -1.3620   22.2577 C   0  0  0  0  0  0  0  0  0  0  0  0
    8.8826   -2.3996   23.2033 C   0  0  0  0  0  0  0  0  0  0  0  0
    9.7072   -3.5386   23.4368 C   0  0  0  0  0  0  0  0  0  0  0  0
   10.6824   -3.5906   22.9616 H   0  0  0  0  0  0  0  0  0  0  0  0
    9.2810   -4.5987   24.2145 C   0  0  0  0  0  0  0  0  0  0  0  0
    9.9356   -5.4456   24.3874 H   0  0  0  0  0  0  0  0  0  0  0  0
    8.0058   -4.5403   24.8228 C   0  0  0  0  0  0  0  0  0  0  0  0
    7.2546   -5.4125   25.6838 C   0  0  0  0  0  0  0  0  0  0  0  0
    7.5048   -6.4355   25.9303 H   0  0  0  0  0  0  0  0  0  0  0  0
    6.1558   -4.7183   26.0929 C   0  0  0  0  0  0  0  0  0  0  0  0
    5.3656   -5.0141   26.7701 H   0  0  0  0  0  0  0  0  0  0  0  0
    6.1385   -3.4738   25.4906 N   0  0  0  0  0  0  0  0  0  0  0  0
    5.5465   -2.6995   25.7471 H   0  0  0  0  0  0  0  0  0  0  0  0
    7.2536   -3.3467   24.7004 C   0  0  0  0  0  0  0  0  0  0  0  0
    7.6610   -2.2823   23.8801 C   0  0  0  0  0  0  0  0  0  0  0  0
    7.0600   -1.3824   23.7973 H   0  0  0  0  0  0  0  0  0  0  0  0
    5.4393    0.6069   20.1065 C   0  0  0  0  0  0  0  0  0  0  0  0
    5.0010    0.5616   21.1046 H   0  0  0  0  0  0  0  0  0  0  0  0
    4.8034    1.2878   19.0635 C   0  0  0  0  0  0  0  0  0  0  0  0
    3.8585    1.7977   19.2238 H   0  0  0  0  0  0  0  0  0  0  0  0
  1  2  1  0
  2  3  2  0
  3  4  1  0
  4  5  1  0
  4  6  2  0
  6  7  1  0
  7  8  1  0
  7  9  1  0
  9 10  1  0
 10 11  1  0
 10 12  2  0
 12 13  1  0
 13 14  1  0
 13 15  1  0
 15 16  1  0
 16 17  2  0
 17 18  1  0
 17 19  1  0
 19 20  1  0
 19 21  2  0
 21 22  1  0
 22 23  1  0
 22 24  2  0
 24 25  1  0
 24 26  1  0
 26 27  1  0
 26 28  1  0
 28 29  2  0
 29 30  1  0
  6 31  1  0
 31 32  1  0
 31 33  2  0
 33 34  1  0
 33  2  1  0
 15  9  2  0
 29 16  1  0
 28 21  1  0
M  END
>  <cnnaffinity>  (1) 
-5.70078

>  <filename>  (1) 
c1cncc(Nc2cn[nH]c2-c2ccc3cc[nH]c3c2)c1

$$$$
