
     RDKit          3D

 33 37  0  0  0  0  0  0  0  0999 V2000
    5.0467    1.7721   16.9811 H   0  0  0  0  0  0  0  0  0  0  0  0
    5.4794    1.2667   17.8448 C   0  0  0  0  0  0  0  0  0  0  0  0
    6.6383    0.6239   17.6354 N   0  0  0  0  0  0  0  0  0  0  0  0
    7.1986    0.0010   18.6771 C   0  0  0  0  0  0  0  0  0  0  0  0
    8.1328   -0.5130   18.4555 H   0  0  0  0  0  0  0  0  0  0  0  0
    6.6505   -0.0174   19.9771 C   0  0  0  0  0  0  0  0  0  0  0  0
    7.3387   -0.6922   21.0954 C   0  0  0  0  0  0  0  0  0  0  0  0
    6.8680   -0.7186   22.3083 N   0  0  0  0  0  0  0  0  0  0  0  0
    7.7269   -1.4084   23.0972 N   0  0  0  0  0  0  0  0  0  0  0  0
    7.7410   -1.7792   24.4412 C   0  0  0  0  0  0  0  0  0  0  0  0
    6.7065   -1.3516   25.3401 C   0  0  0  0  0  0  0  0  0  0  0  0
    6.6930   -1.8592   26.6174 O   0  0  0  0  0  0  0  0  0  0  0  0
    5.5927   -1.3210   27.2271 C   0  0  0  0  0  0  0  0  0  0  0  0
    5.1762   -1.5288   28.5433 C   0  0  0  0  0  0  0  0  0  0  0  0
    5.7138   -2.1765   29.2254 H   0  0  0  0  0  0  0  0  0  0  0  0
    4.0094   -0.8747   28.9441 C   0  0  0  0  0  0  0  0  0  0  0  0
    3.6937   -0.9797   29.9754 H   0  0  0  0  0  0  0  0  0  0  0  0
    3.2393   -0.0899   28.0554 C   0  0  0  0  0  0  0  0  0  0  0  0
    2.3000    0.3516   28.3916 H   0  0  0  0  0  0  0  0  0  0  0  0
    3.6674    0.1010   26.7475 C   0  0  0  0  0  0  0  0  0  0  0  0
    3.0671    0.6574   26.0328 H   0  0  0  0  0  0  0  0  0  0  0  0
    4.8885   -0.4836   26.3386 C   0  0  0  0  0  0  0  0  0  0  0  0
    5.6718   -0.4920   25.1420 C   0  0  0  0  0  0  0  0  0  0  0  0
    5.5461    0.0661   24.2303 H   0  0  0  0  0  0  0  0  0  0  0  0
    8.8898   -2.5362   24.5513 C   0  0  0  0  0  0  0  0  0  0  0  0
    9.2750   -3.0252   25.4394 H   0  0  0  0  0  0  0  0  0  0  0  0
    9.5670   -2.6400   23.3654 N   0  0  0  0  0  0  0  0  0  0  0  0
    8.8355   -1.9457   22.5299 C   0  0  0  0  0  0  0  0  0  0  0  0
    8.8853   -1.5204   20.8569 S   0  0  0  0  0  0  0  0  0  0  0  0
    5.4270    0.6500   20.1715 C   0  0  0  0  0  0  0  0  0  0  0  0
    4.9526    0.6618   21.1524 H   0  0  0  0  0  0  0  0  0  0  0  0
    4.8373    1.2970   19.0861 C   0  0  0  0  0  0  0  0  0  0  0  0
    3.9006    1.8339   19.1872 H   0  0  0  0  0  0  0  0  0  0  0  0
  1  2  1  0
  2  3  2  0
  3  4  1  0
  4  5  1  0
  4  6  2  0
  6  7  1  0
  7  8  2  0
  8  9  1  0
  9 10  1  0
 10 11  1  0
 11 12  1  0
 12 13  1  0
 13 14  2  0
 14 15  1  0
 14 16  1  0
 16 17  1  0
 16 18  2  0
 18 19  1  0
 18 20  1  0
 20 21  1  0
 20 22  2  0
 22 23  1  0
 23 24  1  0
 10 25  2  0
 25 26  1  0
 25 27  1  0
 27 28  2  0
 28 29  1  0
  6 30  1  0
 30 31  1  0
 30 32  2  0
 32 33  1  0
 32  2  1  0
 29  7  1  0
 28  9  1  0
 23 11  2  0
 22 13  1  0
M  END
>  <cnnaffinity>  (1) 
-5.2725

>  <filename>  (1) 
c1cncc(-c2nn3c(-c4cc5ccccc5o4)cnc3s2)c1

$$$$
