
     RDKit          3D

 35 38  0  0  0  0  0  0  0  0999 V2000
    4.9645    1.8378   16.9269 H   0  0  0  0  0  0  0  0  0  0  0  0
    5.4113    1.3221   17.7759 C   0  0  0  0  0  0  0  0  0  0  0  0
    6.5688    0.6851   17.5394 N   0  0  0  0  0  0  0  0  0  0  0  0
    7.1388    0.0543   18.5752 C   0  0  0  0  0  0  0  0  0  0  0  0
    8.0783   -0.4528   18.3618 H   0  0  0  0  0  0  0  0  0  0  0  0
    6.5995   -0.0058   19.8738 C   0  0  0  0  0  0  0  0  0  0  0  0
    7.3077   -0.7498   20.9497 C   0  0  0  0  0  0  0  0  0  0  0  0
    6.6251   -1.5948   21.8380 C   0  0  0  0  0  0  0  0  0  0  0  0
    5.5550   -1.7431   21.7254 H   0  0  0  0  0  0  0  0  0  0  0  0
    7.3171   -2.2714   22.8452 C   0  0  0  0  0  0  0  0  0  0  0  0
    6.7710   -2.8994   23.5424 H   0  0  0  0  0  0  0  0  0  0  0  0
    8.7010   -2.1262   22.9728 C   0  0  0  0  0  0  0  0  0  0  0  0
    9.2165   -2.6374   23.7837 H   0  0  0  0  0  0  0  0  0  0  0  0
    9.4075   -1.2849   22.0877 C   0  0  0  0  0  0  0  0  0  0  0  0
   10.8688   -1.0979   22.1629 C   0  0  0  0  0  0  0  0  0  0  0  0
   11.8099   -2.0788   22.2754 C   0  0  0  0  0  0  0  0  0  0  0  0
   11.6563   -3.1486   22.2997 H   0  0  0  0  0  0  0  0  0  0  0  0
   13.0740   -1.5351   22.3376 N   0  0  0  0  0  0  0  0  0  0  0  0
   13.9221   -2.0310   22.5612 H   0  0  0  0  0  0  0  0  0  0  0  0
   12.9601   -0.1657   22.3746 C   0  0  0  0  0  0  0  0  0  0  0  0
   13.9221    0.8141   22.6583 C   0  0  0  0  0  0  0  0  0  0  0  0
   14.9545    0.5423   22.8414 H   0  0  0  0  0  0  0  0  0  0  0  0
   13.5152    2.1425   22.6524 C   0  0  0  0  0  0  0  0  0  0  0  0
   14.2226    2.9292   22.8975 H   0  0  0  0  0  0  0  0  0  0  0  0
   12.1908    2.4936   22.2974 C   0  0  0  0  0  0  0  0  0  0  0  0
   11.9119    3.5403   22.2570 H   0  0  0  0  0  0  0  0  0  0  0  0
   11.2346    1.5153   22.0568 C   0  0  0  0  0  0  0  0  0  0  0  0
   10.2130    1.7919   21.8175 H   0  0  0  0  0  0  0  0  0  0  0  0
   11.5998    0.1554   22.1570 C   0  0  0  0  0  0  0  0  0  0  0  0
    8.6920   -0.6107   21.0901 C   0  0  0  0  0  0  0  0  0  0  0  0
    9.2347    0.0601   20.4276 H   0  0  0  0  0  0  0  0  0  0  0  0
    5.3913    0.6733   20.0951 C   0  0  0  0  0  0  0  0  0  0  0  0
    4.9481    0.6950   21.0924 H   0  0  0  0  0  0  0  0  0  0  0  0
    4.7878    1.3433   19.0283 C   0  0  0  0  0  0  0  0  0  0  0  0
    3.8577    1.8868   19.1553 H   0  0  0  0  0  0  0  0  0  0  0  0
  1  2  1  0
  2  3  2  0
  3  4  1  0
  4  5  1  0
  4  6  2  0
  6  7  1  0
  7  8  2  0
  8  9  1  0
  8 10  1  0
 10 11  1  0
 10 12  2  0
 12 13  1  0
 12 14  1  0
 14 15  1  0
 15 16  2  0
 16 17  1  0
 16 18  1  0
 18 19  1  0
 18 20  1  0
 20 21  2  0
 21 22  1  0
 21 23  1  0
 23 24  1  0
 23 25  2  0
 25 26  1  0
 25 27  1  0
 27 28  1  0
 27 29  2  0
 14 30  2  0
 30 31  1  0
  6 32  1  0
 32 33  1  0
 32 34  2  0
 34 35  1  0
 34  2  1  0
 30  7  1  0
 29 15  1  0
 29 20  1  0
M  END
>  <cnnaffinity>  (1) 
-5.75633

>  <filename>  (1) 
c1cncc(-c2cccc(-c3c[nH]c4ccccc34)c2)c1

$$$$
