
     RDKit          3D

 32 35  0  0  0  0  0  0  0  0999 V2000
    4.9422    1.8117   16.9841 H   0  0  0  0  0  0  0  0  0  0  0  0
    5.4028    1.2940   17.8235 C   0  0  0  0  0  0  0  0  0  0  0  0
    6.5630    0.6713   17.5693 N   0  0  0  0  0  0  0  0  0  0  0  0
    7.1557    0.0224   18.5761 C   0  0  0  0  0  0  0  0  0  0  0  0
    8.1078   -0.4511   18.3407 H   0  0  0  0  0  0  0  0  0  0  0  0
    6.6256   -0.0266   19.8772 C   0  0  0  0  0  0  0  0  0  0  0  0
    7.3464   -0.7062   20.9504 C   0  0  0  0  0  0  0  0  0  0  0  0
    7.9795   -1.8537   20.7467 N   0  0  0  0  0  0  0  0  0  0  0  0
    8.4478   -2.1701   21.9567 N   0  0  0  0  0  0  0  0  0  0  0  0
    8.2195   -1.2852   22.9190 C   0  0  0  0  0  0  0  0  0  0  0  0
    7.4975   -0.2679   22.3101 C   0  0  0  0  0  0  0  0  0  0  0  0
    7.2142    1.0129   22.9053 C   0  0  0  0  0  0  0  0  0  0  0  0
    6.9558    1.1549   24.5998 S   0  0  0  0  0  0  0  0  0  0  0  0
    6.8198    2.8619   24.4903 C   0  0  0  0  0  0  0  0  0  0  0  0
    6.6277    3.4200   25.3969 H   0  0  0  0  0  0  0  0  0  0  0  0
    6.9845    3.3065   23.2105 C   0  0  0  0  0  0  0  0  0  0  0  0
    6.9334    4.3485   22.9231 H   0  0  0  0  0  0  0  0  0  0  0  0
    7.2207    2.2372   22.3004 C   0  0  0  0  0  0  0  0  0  0  0  0
    7.4000    2.3166   21.2376 H   0  0  0  0  0  0  0  0  0  0  0  0
    9.0758   -1.5548   24.1287 C   0  0  0  0  0  0  0  0  0  0  0  0
    8.4690   -1.6803   25.0302 H   0  0  0  0  0  0  0  0  0  0  0  0
    9.7461   -0.7031   24.2962 H   0  0  0  0  0  0  0  0  0  0  0  0
    9.8514   -2.8429   23.7239 C   0  0  0  0  0  0  0  0  0  0  0  0
   10.9310   -2.7061   23.7808 H   0  0  0  0  0  0  0  0  0  0  0  0
    9.5999   -3.6935   24.3612 H   0  0  0  0  0  0  0  0  0  0  0  0
    9.4609   -3.1460   22.2523 C   0  0  0  0  0  0  0  0  0  0  0  0
    9.0394   -4.1447   22.1211 H   0  0  0  0  0  0  0  0  0  0  0  0
   10.2915   -2.9608   21.5640 H   0  0  0  0  0  0  0  0  0  0  0  0
    5.4133    0.6279   20.1293 C   0  0  0  0  0  0  0  0  0  0  0  0
    5.0030    0.6466   21.1389 H   0  0  0  0  0  0  0  0  0  0  0  0
    4.7911    1.3001   19.0806 C   0  0  0  0  0  0  0  0  0  0  0  0
    3.8686    1.8438   19.2331 H   0  0  0  0  0  0  0  0  0  0  0  0
  1  2  1  0
  2  3  2  0
  3  4  1  0
  4  5  1  0
  4  6  2  0
  6  7  1  0
  7  8  2  0
  8  9  1  0
  9 10  1  0
 10 11  2  0
 11 12  1  0
 12 13  1  0
 13 14  1  0
 14 15  1  0
 14 16  2  0
 16 17  1  0
 16 18  1  0
 18 19  1  0
 10 20  1  0
 20 21  1  0
 20 22  1  0
 20 23  1  0
 23 24  1  0
 23 25  1  0
 23 26  1  0
 26 27  1  0
 26 28  1  0
  6 29  1  0
 29 30  1  0
 29 31  2  0
 31 32  1  0
 31  2  1  0
 11  7  1  0
 18 12  2  0
 26  9  1  0
M  END
>  <cnnaffinity>  (1) 
-5.29558

>  <filename>  (1) 
c1cncc(-c2nn3c(c2-c2cccs2)CCC3)c1

$$$$
