
     RDKit          3D

 28 30  0  0  0  0  0  0  0  0999 V2000
    9.0744   -3.0580   22.1779 H   0  0  0  0  0  0  0  0  0  0  0  0
    8.4901   -2.1832   21.9135 C   0  0  0  0  0  0  0  0  0  0  0  0
    8.0527   -1.8792   20.7458 N   0  0  0  0  0  0  0  0  0  0  0  0
    7.3637   -0.6903   20.9457 C   0  0  0  0  0  0  0  0  0  0  0  0
    6.6501    0.0067   19.8908 C   0  0  0  0  0  0  0  0  0  0  0  0
    7.1734    0.0491   18.5876 C   0  0  0  0  0  0  0  0  0  0  0  0
    8.1246   -0.4345   18.3744 H   0  0  0  0  0  0  0  0  0  0  0  0
    6.5701    0.6802   17.5769 N   0  0  0  0  0  0  0  0  0  0  0  0
    5.4040    1.2921   17.8415 C   0  0  0  0  0  0  0  0  0  0  0  0
    4.9150    1.7768   17.0008 H   0  0  0  0  0  0  0  0  0  0  0  0
    4.8014    1.3132   19.1063 C   0  0  0  0  0  0  0  0  0  0  0  0
    3.8690    1.8460   19.2613 H   0  0  0  0  0  0  0  0  0  0  0  0
    5.4384    0.6612   20.1564 C   0  0  0  0  0  0  0  0  0  0  0  0
    5.0033    0.6253   21.1595 H   0  0  0  0  0  0  0  0  0  0  0  0
    7.4731   -0.3311   22.2657 C   0  0  0  0  0  0  0  0  0  0  0  0
    7.0684    0.7766   22.9667 N   0  0  0  0  0  0  0  0  0  0  0  0
    6.8796    1.5889   22.4072 H   0  0  0  0  0  0  0  0  0  0  0  0
    6.9329    0.9521   24.3311 C   0  0  0  0  0  0  0  0  0  0  0  0
    6.6679   -0.1228   25.1666 C   0  0  0  0  0  0  0  0  0  0  0  0
    6.5425   -1.1134   24.7619 H   0  0  0  0  0  0  0  0  0  0  0  0
    6.5738    0.1198   26.5274 C   0  0  0  0  0  0  0  0  0  0  0  0
    6.3856   -0.7087   27.1999 H   0  0  0  0  0  0  0  0  0  0  0  0
    6.6983    1.3268   27.0912 N   0  0  0  0  0  0  0  0  0  0  0  0
    6.9280    2.3488   26.2595 C   0  0  0  0  0  0  0  0  0  0  0  0
    7.0191    3.3220   26.7295 H   0  0  0  0  0  0  0  0  0  0  0  0
    7.0404    2.2280   24.8777 C   0  0  0  0  0  0  0  0  0  0  0  0
    7.2252    3.1032   24.2687 H   0  0  0  0  0  0  0  0  0  0  0  0
    8.1845   -1.2956   22.8966 O   0  0  0  0  0  0  0  0  0  0  0  0
  1  2  1  0
  2  3  2  0
  3  4  1  0
  4  5  1  0
  5  6  2  0
  6  7  1  0
  6  8  1  0
  8  9  2  0
  9 10  1  0
  9 11  1  0
 11 12  1  0
 11 13  2  0
 13 14  1  0
  4 15  2  0
 15 16  1  0
 16 17  1  0
 16 18  1  0
 18 19  2  0
 19 20  1  0
 19 21  1  0
 21 22  1  0
 21 23  2  0
 23 24  1  0
 24 25  1  0
 24 26  2  0
 26 27  1  0
 15 28  1  0
 28  2  1  0
 13  5  1  0
 26 18  1  0
M  END
>  <cnnaffinity>  (1) 
-5.0128

>  <filename>  (1) 
c1cncc(-c2ncoc2Nc2ccncc2)c1

$$$$
