
     RDKit          3D

 36 40  0  0  0  0  0  0  0  0999 V2000
    4.9834    1.8685   16.8740 H   0  0  0  0  0  0  0  0  0  0  0  0
    5.4162    1.3079   17.7017 C   0  0  0  0  0  0  0  0  0  0  0  0
    6.5582    0.6480   17.4533 N   0  0  0  0  0  0  0  0  0  0  0  0
    7.1347   -0.0052   18.4682 C   0  0  0  0  0  0  0  0  0  0  0  0
    8.0621   -0.5221   18.2308 H   0  0  0  0  0  0  0  0  0  0  0  0
    6.6110   -0.0373   19.7744 C   0  0  0  0  0  0  0  0  0  0  0  0
    7.3719   -0.6406   20.8854 C   0  0  0  0  0  0  0  0  0  0  0  0
    8.5075   -1.3217   20.6677 N   0  0  0  0  0  0  0  0  0  0  0  0
    8.9381   -1.5877   21.9165 N   0  0  0  0  0  0  0  0  0  0  0  0
   10.0526   -2.2165   22.4580 C   0  0  0  0  0  0  0  0  0  0  0  0
   10.7961   -2.6785   21.8325 H   0  0  0  0  0  0  0  0  0  0  0  0
    9.9162   -2.0979   23.8009 C   0  0  0  0  0  0  0  0  0  0  0  0
   10.5338   -2.4634   24.6037 H   0  0  0  0  0  0  0  0  0  0  0  0
    8.7454   -1.4021   24.1031 N   0  0  0  0  0  0  0  0  0  0  0  0
    8.2627   -1.0245   25.3855 C   0  0  0  0  0  0  0  0  0  0  0  0
    9.1785   -0.6771   26.4232 C   0  0  0  0  0  0  0  0  0  0  0  0
   10.2455   -0.7302   26.2360 H   0  0  0  0  0  0  0  0  0  0  0  0
    8.7326   -0.2248   27.6563 C   0  0  0  0  0  0  0  0  0  0  0  0
    9.4389   -0.0287   28.4609 H   0  0  0  0  0  0  0  0  0  0  0  0
    7.3482   -0.0518   27.8711 C   0  0  0  0  0  0  0  0  0  0  0  0
    6.5387    0.5020   28.9241 C   0  0  0  0  0  0  0  0  0  0  0  0
    6.8931    0.9818   29.8282 H   0  0  0  0  0  0  0  0  0  0  0  0
    5.2385    0.3866   28.5290 C   0  0  0  0  0  0  0  0  0  0  0  0
    4.3295    0.7065   29.0227 H   0  0  0  0  0  0  0  0  0  0  0  0
    5.1866   -0.1986   27.2794 N   0  0  0  0  0  0  0  0  0  0  0  0
    4.3685   -0.4831   26.7688 H   0  0  0  0  0  0  0  0  0  0  0  0
    6.4597   -0.4631   26.8491 C   0  0  0  0  0  0  0  0  0  0  0  0
    6.8875   -0.9612   25.6150 C   0  0  0  0  0  0  0  0  0  0  0  0
    6.1702   -1.2481   24.8514 H   0  0  0  0  0  0  0  0  0  0  0  0
    8.1430   -1.1026   22.8895 C   0  0  0  0  0  0  0  0  0  0  0  0
    7.0722   -0.4908   22.2599 C   0  0  0  0  0  0  0  0  0  0  0  0
    6.2002   -0.0243   22.6803 H   0  0  0  0  0  0  0  0  0  0  0  0
    5.3898    0.6183   20.0006 C   0  0  0  0  0  0  0  0  0  0  0  0
    4.9245    0.5999   20.9876 H   0  0  0  0  0  0  0  0  0  0  0  0
    4.7892    1.3063   18.9519 C   0  0  0  0  0  0  0  0  0  0  0  0
    3.8718    1.8638   19.1036 H   0  0  0  0  0  0  0  0  0  0  0  0
  1  2  1  0
  2  3  2  0
  3  4  1  0
  4  5  1  0
  4  6  2  0
  6  7  1  0
  7  8  2  0
  8  9  1  0
  9 10  1  0
 10 11  1  0
 10 12  2  0
 12 13  1  0
 12 14  1  0
 14 15  1  0
 15 16  2  0
 16 17  1  0
 16 18  1  0
 18 19  1  0
 18 20  2  0
 20 21  1  0
 21 22  1  0
 21 23  2  0
 23 24  1  0
 23 25  1  0
 25 26  1  0
 25 27  1  0
 27 28  2  0
 28 29  1  0
 14 30  1  0
 30 31  2  0
 31 32  1  0
  6 33  1  0
 33 34  1  0
 33 35  2  0
 35 36  1  0
 35  2  1  0
 31  7  1  0
 30  9  1  0
 28 15  1  0
 27 20  1  0
M  END
>  <cnnaffinity>  (1) 
-5.41531

>  <filename>  (1) 
c1cncc(-c2cc3n(-c4ccc5cc[nH]c5c4)ccn3n2)c1

$$$$
