
     RDKit          3D

 38 41  0  0  0  0  0  0  0  0999 V2000
    4.9528    1.8170   16.9712 H   0  0  0  0  0  0  0  0  0  0  0  0
    5.3994    1.2956   17.8179 C   0  0  0  0  0  0  0  0  0  0  0  0
    6.5538    0.6561   17.5712 N   0  0  0  0  0  0  0  0  0  0  0  0
    7.1354    0.0148   18.5898 C   0  0  0  0  0  0  0  0  0  0  0  0
    8.0815   -0.4752   18.3683 H   0  0  0  0  0  0  0  0  0  0  0  0
    6.6190   -0.0167   19.8926 C   0  0  0  0  0  0  0  0  0  0  0  0
    7.3758   -0.7027   20.9403 C   0  0  0  0  0  0  0  0  0  0  0  0
    7.8285   -1.9896   20.7879 N   0  0  0  0  0  0  0  0  0  0  0  0
    8.3906   -2.2511   21.9334 C   0  0  0  0  0  0  0  0  0  0  0  0
    8.4536   -1.1929   22.7786 N   0  0  0  0  0  0  0  0  0  0  0  0
    7.7479   -0.1779   22.1713 C   0  0  0  0  0  0  0  0  0  0  0  0
    7.6726    1.2182   22.6775 C   0  0  0  0  0  0  0  0  0  0  0  0
    6.9160    1.7364   22.0656 H   0  0  0  0  0  0  0  0  0  0  0  0
    7.2189    1.3294   24.1493 C   0  0  0  0  0  0  0  0  0  0  0  0
    6.2322    0.8688   24.2750 H   0  0  0  0  0  0  0  0  0  0  0  0
    7.9095    0.7729   24.7948 H   0  0  0  0  0  0  0  0  0  0  0  0
    7.2065    2.8010   24.5866 C   0  0  0  0  0  0  0  0  0  0  0  0
    6.9404    2.9051   25.6445 H   0  0  0  0  0  0  0  0  0  0  0  0
    6.4359    3.3472   24.0212 H   0  0  0  0  0  0  0  0  0  0  0  0
    8.4913    3.4727   24.3688 N   0  0  0  0  0  0  0  0  0  0  0  0
    9.1894    2.9849   24.9305 H   0  0  0  0  0  0  0  0  0  0  0  0
    8.9251    3.3972   22.9706 C   0  0  0  0  0  0  0  0  0  0  0  0
    8.2104    3.9656   22.3548 H   0  0  0  0  0  0  0  0  0  0  0  0
    9.8872    3.9130   22.8747 H   0  0  0  0  0  0  0  0  0  0  0  0
    9.0118    1.9609   22.4491 C   0  0  0  0  0  0  0  0  0  0  0  0
    9.2667    1.9524   21.3833 H   0  0  0  0  0  0  0  0  0  0  0  0
    9.8135    1.4193   22.9710 H   0  0  0  0  0  0  0  0  0  0  0  0
    9.1810   -1.3712   24.0276 C   0  0  0  0  0  0  0  0  0  0  0  0
    8.4825   -1.4724   24.8628 H   0  0  0  0  0  0  0  0  0  0  0  0
    9.8246   -0.5071   24.2205 H   0  0  0  0  0  0  0  0  0  0  0  0
    9.9931   -2.6664   23.8379 C   0  0  0  0  0  0  0  0  0  0  0  0
   10.1296   -3.2258   24.7652 H   0  0  0  0  0  0  0  0  0  0  0  0
   10.9761   -2.4612   23.4065 H   0  0  0  0  0  0  0  0  0  0  0  0
    9.0386   -3.7057   22.6620 S   0  0  0  0  0  0  0  0  0  0  0  0
    5.4056    0.6527   20.1321 C   0  0  0  0  0  0  0  0  0  0  0  0
    4.9673    0.6584   21.1307 H   0  0  0  0  0  0  0  0  0  0  0  0
    4.7802    1.3132   19.0727 C   0  0  0  0  0  0  0  0  0  0  0  0
    3.8513    1.8591   19.2143 H   0  0  0  0  0  0  0  0  0  0  0  0
  1  2  1  0
  2  3  2  0
  3  4  1  0
  4  5  1  0
  4  6  2  0
  6  7  1  0
  7  8  1  0
  8  9  2  0
  9 10  1  0
 10 11  1  0
 11 12  1  0
 12 13  1  0
 12 14  1  0
 14 15  1  0
 14 16  1  0
 14 17  1  0
 17 18  1  0
 17 19  1  0
 17 20  1  0
 20 21  1  0
 20 22  1  0
 22 23  1  0
 22 24  1  0
 22 25  1  0
 25 26  1  0
 25 27  1  0
 10 28  1  0
 28 29  1  0
 28 30  1  0
 28 31  1  0
 31 32  1  0
 31 33  1  0
 31 34  1  0
  6 35  1  0
 35 36  1  0
 35 37  2  0
 37 38  1  0
 37  2  1  0
 11  7  2  0
 25 12  1  0
 34  9  1  0
M  END
>  <cnnaffinity>  (1) 
-5.52205

>  <filename>  (1) 
c1cncc(-c2nc3n(c2C2CCNCC2)CCS3)c1

$$$$
