
     RDKit          3D

 36 38  0  0  0  0  0  0  0  0999 V2000
    4.9141    1.9349   16.8853 H   0  0  0  0  0  0  0  0  0  0  0  0
    5.3777    1.4018   17.7113 C   0  0  0  0  0  0  0  0  0  0  0  0
    6.5387    0.7836   17.4380 N   0  0  0  0  0  0  0  0  0  0  0  0
    7.1512    0.1288   18.4355 C   0  0  0  0  0  0  0  0  0  0  0  0
    8.0882   -0.3710   18.1800 H   0  0  0  0  0  0  0  0  0  0  0  0
    6.6445    0.0290   19.7601 C   0  0  0  0  0  0  0  0  0  0  0  0
    7.3267   -0.7253   20.7539 N   0  0  0  0  0  0  0  0  0  0  0  0
    8.6333   -0.2669   21.2441 C   0  0  0  0  0  0  0  0  0  0  0  0
    8.5113    0.4723   22.0642 H   0  0  0  0  0  0  0  0  0  0  0  0
    9.1594    0.2543   20.4391 H   0  0  0  0  0  0  0  0  0  0  0  0
    9.4597   -1.4722   21.7325 C   0  0  0  0  0  0  0  0  0  0  0  0
    9.6529   -2.1200   20.8629 H   0  0  0  0  0  0  0  0  0  0  0  0
   10.4411   -1.1277   22.0870 H   0  0  0  0  0  0  0  0  0  0  0  0
    8.7282   -2.2691   22.8420 C   0  0  0  0  0  0  0  0  0  0  0  0
    8.6822   -1.6227   23.7348 H   0  0  0  0  0  0  0  0  0  0  0  0
    9.4679   -3.5793   23.2192 C   0  0  0  0  0  0  0  0  0  0  0  0
   10.5512   -3.4002   23.2639 H   0  0  0  0  0  0  0  0  0  0  0  0
    9.2787   -4.2950   22.4192 H   0  0  0  0  0  0  0  0  0  0  0  0
    9.0408   -4.3101   24.4672 C   0  0  0  0  0  0  0  0  0  0  0  0
    8.3195   -5.4824   24.3926 N   0  0  0  0  0  0  0  0  0  0  0  0
    8.1769   -5.8997   25.6222 C   0  0  0  0  0  0  0  0  0  0  0  0
    7.6497   -6.7980   25.9347 H   0  0  0  0  0  0  0  0  0  0  0  0
    8.7614   -5.0529   26.5099 N   0  0  0  0  0  0  0  0  0  0  0  0
    8.7931   -5.1976   27.5085 H   0  0  0  0  0  0  0  0  0  0  0  0
    9.3181   -4.0224   25.7771 C   0  0  0  0  0  0  0  0  0  0  0  0
    9.8787   -3.2125   26.2239 H   0  0  0  0  0  0  0  0  0  0  0  0
    7.3028   -2.5817   22.3517 C   0  0  0  0  0  0  0  0  0  0  0  0
    7.3721   -3.2883   21.5096 H   0  0  0  0  0  0  0  0  0  0  0  0
    6.7240   -3.0874   23.1354 H   0  0  0  0  0  0  0  0  0  0  0  0
    6.5643   -1.3396   21.8407 C   0  0  0  0  0  0  0  0  0  0  0  0
    6.4051   -0.6265   22.6765 H   0  0  0  0  0  0  0  0  0  0  0  0
    5.5798   -1.6299   21.4658 H   0  0  0  0  0  0  0  0  0  0  0  0
    5.4150    0.6721   20.0082 C   0  0  0  0  0  0  0  0  0  0  0  0
    4.9888    0.6245   21.0080 H   0  0  0  0  0  0  0  0  0  0  0  0
    4.7829    1.3712   18.9747 C   0  0  0  0  0  0  0  0  0  0  0  0
    3.8398    1.8798   19.1354 H   0  0  0  0  0  0  0  0  0  0  0  0
  1  2  1  0
  2  3  2  0
  3  4  1  0
  4  5  1  0
  4  6  2  0
  6  7  1  0
  7  8  1  0
  8  9  1  0
  8 10  1  0
  8 11  1  0
 11 12  1  0
 11 13  1  0
 11 14  1  0
 14 15  1  0
 14 16  1  0
 16 17  1  0
 16 18  1  0
 16 19  1  0
 19 20  1  0
 20 21  2  0
 21 22  1  0
 21 23  1  0
 23 24  1  0
 23 25  1  0
 25 26  1  0
 14 27  1  0
 27 28  1  0
 27 29  1  0
 27 30  1  0
 30 31  1  0
 30 32  1  0
  6 33  1  0
 33 34  1  0
 33 35  2  0
 35 36  1  0
 35  2  1  0
 30  7  1  0
 25 19  2  0
M  END
>  <cnnaffinity>  (1) 
-4.60927

>  <filename>  (1) 
c1cncc(N2CCC(Cc3c[nH]cn3)CC2)c1

$$$$
