
     RDKit          3D

 33 35  0  0  0  0  0  0  0  0999 V2000
    4.9170    1.8402   17.0212 H   0  0  0  0  0  0  0  0  0  0  0  0
    5.4127    1.3031   17.8260 C   0  0  0  0  0  0  0  0  0  0  0  0
    6.5685    0.6908   17.5210 N   0  0  0  0  0  0  0  0  0  0  0  0
    7.2062    0.0376   18.5084 C   0  0  0  0  0  0  0  0  0  0  0  0
    8.1482   -0.4426   18.2372 H   0  0  0  0  0  0  0  0  0  0  0  0
    6.7365   -0.0598   19.8464 C   0  0  0  0  0  0  0  0  0  0  0  0
    7.3955   -0.7980   20.8697 N   0  0  0  0  0  0  0  0  0  0  0  0
    6.7082   -1.1833   21.5078 H   0  0  0  0  0  0  0  0  0  0  0  0
    8.4742   -0.1680   21.6490 C   0  0  0  0  0  0  0  0  0  0  0  0
    9.7139   -0.0726   20.7608 C   0  0  0  0  0  0  0  0  0  0  0  0
    9.4627    0.5903   19.9291 H   0  0  0  0  0  0  0  0  0  0  0  0
    9.8888   -1.0756   20.3667 H   0  0  0  0  0  0  0  0  0  0  0  0
   10.9700    0.3817   21.4283 C   0  0  0  0  0  0  0  0  0  0  0  0
   11.8187   -0.5282   22.0128 N   0  0  0  0  0  0  0  0  0  0  0  0
   12.8366    0.1579   22.4621 C   0  0  0  0  0  0  0  0  0  0  0  0
   13.7120   -0.2616   22.9446 H   0  0  0  0  0  0  0  0  0  0  0  0
   12.6854    1.4834   22.2164 N   0  0  0  0  0  0  0  0  0  0  0  0
   13.3534    2.1987   22.4560 H   0  0  0  0  0  0  0  0  0  0  0  0
   11.4835    1.6455   21.5509 C   0  0  0  0  0  0  0  0  0  0  0  0
   11.1019    2.6038   21.2216 H   0  0  0  0  0  0  0  0  0  0  0  0
    8.6933   -0.8796   22.9984 C   0  0  0  0  0  0  0  0  0  0  0  0
    7.9730   -1.6786   23.1898 H   0  0  0  0  0  0  0  0  0  0  0  0
    9.7018   -1.2814   23.1250 H   0  0  0  0  0  0  0  0  0  0  0  0
    8.4325    0.4488   23.7524 C   0  0  0  0  0  0  0  0  0  0  0  0
    7.5945    0.4301   24.4553 H   0  0  0  0  0  0  0  0  0  0  0  0
    9.3147    0.8354   24.2708 H   0  0  0  0  0  0  0  0  0  0  0  0
    8.1263    1.1428   22.4017 C   0  0  0  0  0  0  0  0  0  0  0  0
    7.0952    1.4739   22.2676 H   0  0  0  0  0  0  0  0  0  0  0  0
    8.7888    1.9787   22.1592 H   0  0  0  0  0  0  0  0  0  0  0  0
    5.5089    0.5742   20.1223 C   0  0  0  0  0  0  0  0  0  0  0  0
    5.1017    0.5489   21.1322 H   0  0  0  0  0  0  0  0  0  0  0  0
    4.8462    1.2671   19.1019 C   0  0  0  0  0  0  0  0  0  0  0  0
    3.9153    1.7859   19.2909 H   0  0  0  0  0  0  0  0  0  0  0  0
  1  2  1  0
  2  3  2  0
  3  4  1  0
  4  5  1  0
  4  6  2  0
  6  7  1  0
  7  8  1  0
  7  9  1  0
  9 10  1  0
 10 11  1  0
 10 12  1  0
 10 13  1  0
 13 14  1  0
 14 15  2  0
 15 16  1  0
 15 17  1  0
 17 18  1  0
 17 19  1  0
 19 20  1  0
  9 21  1  0
 21 22  1  0
 21 23  1  0
 21 24  1  0
 24 25  1  0
 24 26  1  0
 24 27  1  0
 27 28  1  0
 27 29  1  0
  6 30  1  0
 30 31  1  0
 30 32  2  0
 32 33  1  0
 32  2  1  0
 27  9  1  0
 19 13  2  0
M  END
>  <cnnaffinity>  (1) 
-5.2878

>  <filename>  (1) 
c1cncc(NC2(Cc3c[nH]cn3)CCC2)c1

$$$$
