
     RDKit          3D

 39 41  0  0  0  0  0  0  0  0999 V2000
    4.9513    1.8027   16.9561 H   0  0  0  0  0  0  0  0  0  0  0  0
    5.4213    1.3027   17.8013 C   0  0  0  0  0  0  0  0  0  0  0  0
    6.5857    0.6848   17.5512 N   0  0  0  0  0  0  0  0  0  0  0  0
    7.1866    0.0725   18.5800 C   0  0  0  0  0  0  0  0  0  0  0  0
    8.1347   -0.4193   18.3496 H   0  0  0  0  0  0  0  0  0  0  0  0
    6.6775    0.0368   19.8878 C   0  0  0  0  0  0  0  0  0  0  0  0
    7.3797   -0.7153   20.9959 C   0  0  0  0  0  0  0  0  0  0  0  0
    7.3960   -0.1030   21.9065 H   0  0  0  0  0  0  0  0  0  0  0  0
    8.4218   -0.9257   20.7186 H   0  0  0  0  0  0  0  0  0  0  0  0
    6.6978   -1.9731   21.3359 N   0  0  0  0  0  0  0  0  0  0  0  0
    6.2037   -2.8702   20.4264 C   0  0  0  0  0  0  0  0  0  0  0  0
    6.2920   -2.6938   19.3614 H   0  0  0  0  0  0  0  0  0  0  0  0
    5.6427   -3.9091   20.9912 N   0  0  0  0  0  0  0  0  0  0  0  0
    5.7919   -3.6913   22.3399 C   0  0  0  0  0  0  0  0  0  0  0  0
    5.4307   -4.4206   23.0568 H   0  0  0  0  0  0  0  0  0  0  0  0
    6.4405   -2.5153   22.5915 C   0  0  0  0  0  0  0  0  0  0  0  0
    6.8939   -1.9310   23.9003 C   0  0  0  0  0  0  0  0  0  0  0  0
    6.7295   -2.6957   24.6700 H   0  0  0  0  0  0  0  0  0  0  0  0
    7.9830   -1.7774   23.8677 H   0  0  0  0  0  0  0  0  0  0  0  0
    6.1995   -0.6836   24.2272 N   0  0  0  0  0  0  0  0  0  0  0  0
    5.3468   -0.6906   23.6847 H   0  0  0  0  0  0  0  0  0  0  0  0
    5.8198   -0.3945   25.6064 C   0  0  0  0  0  0  0  0  0  0  0  0
    6.6907    0.0487   26.1047 H   0  0  0  0  0  0  0  0  0  0  0  0
    4.6541    0.5967   25.6372 C   0  0  0  0  0  0  0  0  0  0  0  0
    4.8912    1.5712   25.1910 H   0  0  0  0  0  0  0  0  0  0  0  0
    3.8363    0.1493   25.0521 H   0  0  0  0  0  0  0  0  0  0  0  0
    4.2301    0.6502   27.1136 C   0  0  0  0  0  0  0  0  0  0  0  0
    3.1803    0.9435   27.2359 H   0  0  0  0  0  0  0  0  0  0  0  0
    4.8381    1.3870   27.6555 H   0  0  0  0  0  0  0  0  0  0  0  0
    4.5142   -0.7823   27.6502 C   0  0  0  0  0  0  0  0  0  0  0  0
    5.1250   -0.7328   28.5598 H   0  0  0  0  0  0  0  0  0  0  0  0
    3.5870   -1.3088   27.9105 H   0  0  0  0  0  0  0  0  0  0  0  0
    5.2768   -1.5218   26.5147 C   0  0  0  0  0  0  0  0  0  0  0  0
    6.0562   -2.1985   26.8915 H   0  0  0  0  0  0  0  0  0  0  0  0
    4.5732   -2.1312   25.9305 H   0  0  0  0  0  0  0  0  0  0  0  0
    5.4531    0.6771   20.1206 C   0  0  0  0  0  0  0  0  0  0  0  0
    5.0109    0.6669   21.1193 H   0  0  0  0  0  0  0  0  0  0  0  0
    4.8152    1.3219   19.0608 C   0  0  0  0  0  0  0  0  0  0  0  0
    3.8765    1.8455   19.2006 H   0  0  0  0  0  0  0  0  0  0  0  0
  1  2  1  0
  2  3  2  0
  3  4  1  0
  4  5  1  0
  4  6  2  0
  6  7  1  0
  7  8  1  0
  7  9  1  0
  7 10  1  0
 10 11  1  0
 11 12  1  0
 11 13  2  0
 13 14  1  0
 14 15  1  0
 14 16  2  0
 16 17  1  0
 17 18  1  0
 17 19  1  0
 17 20  1  0
 20 21  1  0
 20 22  1  0
 22 23  1  0
 22 24  1  0
 24 25  1  0
 24 26  1  0
 24 27  1  0
 27 28  1  0
 27 29  1  0
 27 30  1  0
 30 31  1  0
 30 32  1  0
 30 33  1  0
 33 34  1  0
 33 35  1  0
  6 36  1  0
 36 37  1  0
 36 38  2  0
 38 39  1  0
 38  2  1  0
 16 10  1  0
 33 22  1  0
M  END
>  <cnnaffinity>  (1) 
-5.21752

>  <filename>  (1) 
c1cncc(Cn2cncc2CNC2CCCC2)c1

$$$$
