
     RDKit          3D

 37 41  0  0  0  0  0  0  0  0999 V2000
    4.9424    1.7943   16.9573 H   0  0  0  0  0  0  0  0  0  0  0  0
    5.4234    1.3014   17.7965 C   0  0  0  0  0  0  0  0  0  0  0  0
    6.5874    0.6872   17.5412 N   0  0  0  0  0  0  0  0  0  0  0  0
    7.2164    0.0950   18.5610 C   0  0  0  0  0  0  0  0  0  0  0  0
    8.1532   -0.4045   18.3179 H   0  0  0  0  0  0  0  0  0  0  0  0
    6.7139    0.0763   19.8743 C   0  0  0  0  0  0  0  0  0  0  0  0
    7.4091   -0.6708   20.9377 C   0  0  0  0  0  0  0  0  0  0  0  0
    8.6395   -1.1814   20.7813 N   0  0  0  0  0  0  0  0  0  0  0  0
    8.8112   -1.8858   21.9235 N   0  0  0  0  0  0  0  0  0  0  0  0
    9.7478   -2.8079   22.3701 C   0  0  0  0  0  0  0  0  0  0  0  0
   10.6871   -2.9270   21.8614 H   0  0  0  0  0  0  0  0  0  0  0  0
    9.2029   -3.4209   23.4469 C   0  0  0  0  0  0  0  0  0  0  0  0
    9.5563   -4.2693   24.0150 H   0  0  0  0  0  0  0  0  0  0  0  0
    7.9589   -2.8303   23.7249 N   0  0  0  0  0  0  0  0  0  0  0  0
    7.0390   -3.1661   24.7445 C   0  0  0  0  0  0  0  0  0  0  0  0
    7.0309   -4.4051   25.1678 N   0  0  0  0  0  0  0  0  0  0  0  0
    6.0726   -4.7498   26.0866 C   0  0  0  0  0  0  0  0  0  0  0  0
    6.0247   -6.1133   26.4864 C   0  0  0  0  0  0  0  0  0  0  0  0
    6.7583   -6.7606   26.0199 H   0  0  0  0  0  0  0  0  0  0  0  0
    5.1011   -6.5447   27.4106 C   0  0  0  0  0  0  0  0  0  0  0  0
    5.0837   -7.5901   27.7202 H   0  0  0  0  0  0  0  0  0  0  0  0
    4.1754   -5.6200   27.9770 C   0  0  0  0  0  0  0  0  0  0  0  0
    3.4701   -5.9763   28.7236 H   0  0  0  0  0  0  0  0  0  0  0  0
    4.1819   -4.2917   27.6034 C   0  0  0  0  0  0  0  0  0  0  0  0
    3.4757   -3.5851   28.0429 H   0  0  0  0  0  0  0  0  0  0  0  0
    5.1308   -3.8232   26.6438 C   0  0  0  0  0  0  0  0  0  0  0  0
    5.2190   -2.4698   26.1897 C   0  0  0  0  0  0  0  0  0  0  0  0
    4.5275   -1.7189   26.5798 H   0  0  0  0  0  0  0  0  0  0  0  0
    6.1670   -2.1435   25.2523 C   0  0  0  0  0  0  0  0  0  0  0  0
    6.2800   -1.1378   24.8657 H   0  0  0  0  0  0  0  0  0  0  0  0
    7.7463   -1.8632   22.7448 C   0  0  0  0  0  0  0  0  0  0  0  0
    6.8191   -1.0141   22.1723 C   0  0  0  0  0  0  0  0  0  0  0  0
    5.9032   -0.6043   22.5385 H   0  0  0  0  0  0  0  0  0  0  0  0
    5.4792    0.7076   20.1138 C   0  0  0  0  0  0  0  0  0  0  0  0
    5.0234    0.7092   21.1048 H   0  0  0  0  0  0  0  0  0  0  0  0
    4.8259    1.3295   19.0588 C   0  0  0  0  0  0  0  0  0  0  0  0
    3.8779    1.8335   19.2062 H   0  0  0  0  0  0  0  0  0  0  0  0
  1  2  1  0
  2  3  2  0
  3  4  1  0
  4  5  1  0
  4  6  2  0
  6  7  1  0
  7  8  2  0
  8  9  1  0
  9 10  1  0
 10 11  1  0
 10 12  2  0
 12 13  1  0
 12 14  1  0
 14 15  1  0
 15 16  2  0
 16 17  1  0
 17 18  2  0
 18 19  1  0
 18 20  1  0
 20 21  1  0
 20 22  2  0
 22 23  1  0
 22 24  1  0
 24 25  1  0
 24 26  2  0
 26 27  1  0
 27 28  1  0
 27 29  2  0
 29 30  1  0
 14 31  1  0
 31 32  2  0
 32 33  1  0
  6 34  1  0
 34 35  1  0
 34 36  2  0
 36 37  1  0
 36  2  1  0
 32  7  1  0
 31  9  1  0
 29 15  1  0
 26 17  1  0
M  END
>  <cnnaffinity>  (1) 
-5.71274

>  <filename>  (1) 
c1cncc(-c2cc3n(-c4ccc5ccccc5n4)ccn3n2)c1

$$$$
