
     RDKit          3D

 31 33  0  0  0  0  0  0  0  0999 V2000
    4.9919    1.7771   16.9785 H   0  0  0  0  0  0  0  0  0  0  0  0
    5.4556    1.2736   17.8263 C   0  0  0  0  0  0  0  0  0  0  0  0
    6.6137    0.6496   17.5770 N   0  0  0  0  0  0  0  0  0  0  0  0
    7.2131    0.0400   18.6025 C   0  0  0  0  0  0  0  0  0  0  0  0
    8.1590   -0.4486   18.3972 H   0  0  0  0  0  0  0  0  0  0  0  0
    6.6879   -0.0065   19.8976 C   0  0  0  0  0  0  0  0  0  0  0  0
    7.4286   -0.7661   20.9300 C   0  0  0  0  0  0  0  0  0  0  0  0
    8.7739   -0.7666   20.8568 N   0  0  0  0  0  0  0  0  0  0  0  0
    9.4924   -1.3706   21.8044 N   0  0  0  0  0  0  0  0  0  0  0  0
    8.8928   -1.9681   22.8412 C   0  0  0  0  0  0  0  0  0  0  0  0
    9.5582   -2.4413   23.5598 H   0  0  0  0  0  0  0  0  0  0  0  0
    7.4723   -1.9971   22.9704 C   0  0  0  0  0  0  0  0  0  0  0  0
    6.7617   -2.4751   24.0530 N   0  0  0  0  0  0  0  0  0  0  0  0
    5.8004   -2.6791   23.8142 H   0  0  0  0  0  0  0  0  0  0  0  0
    7.3445   -3.4039   24.9965 C   0  0  0  0  0  0  0  0  0  0  0  0
    6.5766   -3.6614   25.7323 H   0  0  0  0  0  0  0  0  0  0  0  0
    8.1469   -2.9139   25.5591 H   0  0  0  0  0  0  0  0  0  0  0  0
    7.9014   -4.6545   24.3707 C   0  0  0  0  0  0  0  0  0  0  0  0
    7.1080   -5.4266   23.0440 S   0  0  0  0  0  0  0  0  0  0  0  0
    8.2248   -6.7283   23.0710 C   0  0  0  0  0  0  0  0  0  0  0  0
    8.0476   -7.6002   22.4544 H   0  0  0  0  0  0  0  0  0  0  0  0
    9.1830   -6.5465   24.0210 C   0  0  0  0  0  0  0  0  0  0  0  0
    9.9765   -7.2535   24.2455 H   0  0  0  0  0  0  0  0  0  0  0  0
    9.0176   -5.3372   24.7444 C   0  0  0  0  0  0  0  0  0  0  0  0
    9.7131   -5.0039   25.5063 H   0  0  0  0  0  0  0  0  0  0  0  0
    6.7423   -1.4536   21.9270 C   0  0  0  0  0  0  0  0  0  0  0  0
    5.6652   -1.5752   21.8810 H   0  0  0  0  0  0  0  0  0  0  0  0
    5.4766    0.6504   20.1524 C   0  0  0  0  0  0  0  0  0  0  0  0
    5.0406    0.6761   21.1547 H   0  0  0  0  0  0  0  0  0  0  0  0
    4.8534    1.3025   19.0881 C   0  0  0  0  0  0  0  0  0  0  0  0
    3.9200    1.8328   19.2187 H   0  0  0  0  0  0  0  0  0  0  0  0
  1  2  1  0
  2  3  2  0
  3  4  1  0
  4  5  1  0
  4  6  2  0
  6  7  1  0
  7  8  2  0
  8  9  1  0
  9 10  2  0
 10 11  1  0
 10 12  1  0
 12 13  1  0
 13 14  1  0
 13 15  1  0
 15 16  1  0
 15 17  1  0
 15 18  1  0
 18 19  1  0
 19 20  1  0
 20 21  1  0
 20 22  2  0
 22 23  1  0
 22 24  1  0
 24 25  1  0
 12 26  2  0
 26 27  1  0
  6 28  1  0
 28 29  1  0
 28 30  2  0
 30 31  1  0
 30  2  1  0
 26  7  1  0
 24 18  2  0
M  END
>  <cnnaffinity>  (1) 
-5.42165

>  <filename>  (1) 
c1cncc(-c2cc(NCc3cccs3)cnn2)c1

$$$$
