
     RDKit          3D

 36 38  0  0  0  0  0  0  0  0999 V2000
    4.9163    1.7853   16.9887 H   0  0  0  0  0  0  0  0  0  0  0  0
    5.3965    1.2975   17.8305 C   0  0  0  0  0  0  0  0  0  0  0  0
    6.5586    0.6800   17.5658 N   0  0  0  0  0  0  0  0  0  0  0  0
    7.1691    0.0742   18.5909 C   0  0  0  0  0  0  0  0  0  0  0  0
    8.1116   -0.4249   18.3660 H   0  0  0  0  0  0  0  0  0  0  0  0
    6.6535    0.0209   19.8951 C   0  0  0  0  0  0  0  0  0  0  0  0
    7.3782   -0.6944   20.9563 C   0  0  0  0  0  0  0  0  0  0  0  0
    8.7575   -0.5573   21.1168 C   0  0  0  0  0  0  0  0  0  0  0  0
    9.3265    0.0948   20.4668 H   0  0  0  0  0  0  0  0  0  0  0  0
    9.3755   -1.2444   22.1549 C   0  0  0  0  0  0  0  0  0  0  0  0
   10.4471   -1.1489   22.3023 H   0  0  0  0  0  0  0  0  0  0  0  0
    8.7276   -2.0493   23.0105 N   0  0  0  0  0  0  0  0  0  0  0  0
    7.4022   -2.1800   22.8574 C   0  0  0  0  0  0  0  0  0  0  0  0
    6.6719   -3.0806   23.8304 C   0  0  0  0  0  0  0  0  0  0  0  0
    5.6054   -3.0801   23.5704 H   0  0  0  0  0  0  0  0  0  0  0  0
    7.1513   -4.5312   23.7021 C   0  0  0  0  0  0  0  0  0  0  0  0
    8.2344   -4.5742   23.8821 H   0  0  0  0  0  0  0  0  0  0  0  0
    6.9964   -4.9174   22.6856 H   0  0  0  0  0  0  0  0  0  0  0  0
    6.4313   -5.4239   24.7068 C   0  0  0  0  0  0  0  0  0  0  0  0
    6.8953   -6.3796   24.6293 H   0  0  0  0  0  0  0  0  0  0  0  0
    5.3694   -5.5378   24.4408 H   0  0  0  0  0  0  0  0  0  0  0  0
    6.5759   -4.9480   26.1523 C   0  0  0  0  0  0  0  0  0  0  0  0
    6.0405   -5.6251   26.8316 H   0  0  0  0  0  0  0  0  0  0  0  0
    7.6370   -5.0095   26.4379 H   0  0  0  0  0  0  0  0  0  0  0  0
    6.0835   -3.5086   26.2881 C   0  0  0  0  0  0  0  0  0  0  0  0
    5.0007   -3.4934   26.0972 H   0  0  0  0  0  0  0  0  0  0  0  0
    6.2333   -3.1513   27.3124 H   0  0  0  0  0  0  0  0  0  0  0  0
    6.7904   -2.5827   25.2885 C   0  0  0  0  0  0  0  0  0  0  0  0
    6.3787   -1.5723   25.3656 H   0  0  0  0  0  0  0  0  0  0  0  0
    7.8572   -2.5132   25.5376 H   0  0  0  0  0  0  0  0  0  0  0  0
    6.6997   -1.5281   21.8431 C   0  0  0  0  0  0  0  0  0  0  0  0
    5.6353   -1.6725   21.7321 H   0  0  0  0  0  0  0  0  0  0  0  0
    5.4290    0.6558   20.1464 C   0  0  0  0  0  0  0  0  0  0  0  0
    5.0110    0.6364   21.1567 H   0  0  0  0  0  0  0  0  0  0  0  0
    4.7999    1.3195   19.0970 C   0  0  0  0  0  0  0  0  0  0  0  0
    3.8692    1.8475   19.2520 H   0  0  0  0  0  0  0  0  0  0  0  0
  1  2  1  0
  2  3  2  0
  3  4  1  0
  4  5  1  0
  4  6  2  0
  6  7  1  0
  7  8  2  0
  8  9  1  0
  8 10  1  0
 10 11  1  0
 10 12  2  0
 12 13  1  0
 13 14  1  0
 14 15  1  0
 14 16  1  0
 16 17  1  0
 16 18  1  0
 16 19  1  0
 19 20  1  0
 19 21  1  0
 19 22  1  0
 22 23  1  0
 22 24  1  0
 22 25  1  0
 25 26  1  0
 25 27  1  0
 25 28  1  0
 28 29  1  0
 28 30  1  0
 13 31  2  0
 31 32  1  0
  6 33  1  0
 33 34  1  0
 33 35  2  0
 35 36  1  0
 35  2  1  0
 31  7  1  0
 28 14  1  0
M  END
>  <cnnaffinity>  (1) 
-5.24336

>  <filename>  (1) 
c1cncc(-c2ccnc(C3CCCCC3)c2)c1

$$$$
