
     RDKit          3D

 40 42  0  0  0  0  0  0  0  0999 V2000
    4.9110    1.8291   16.9677 H   0  0  0  0  0  0  0  0  0  0  0  0
    5.3759    1.3106   17.8065 C   0  0  0  0  0  0  0  0  0  0  0  0
    6.5351    0.6884   17.5392 N   0  0  0  0  0  0  0  0  0  0  0  0
    7.1504    0.0617   18.5472 C   0  0  0  0  0  0  0  0  0  0  0  0
    8.1089   -0.3902   18.2936 H   0  0  0  0  0  0  0  0  0  0  0  0
    6.6579   -0.0030   19.8672 C   0  0  0  0  0  0  0  0  0  0  0  0
    7.4156   -0.6753   20.9429 C   0  0  0  0  0  0  0  0  0  0  0  0
    7.7455   -0.2430   22.2232 C   0  0  0  0  0  0  0  0  0  0  0  0
    7.3943    1.0774   22.8662 C   0  0  0  0  0  0  0  0  0  0  0  0
    8.2918    1.4905   23.3504 H   0  0  0  0  0  0  0  0  0  0  0  0
    7.1273    1.8011   22.0846 H   0  0  0  0  0  0  0  0  0  0  0  0
    6.2474    1.0118   23.8930 C   0  0  0  0  0  0  0  0  0  0  0  0
    6.0091    2.0357   24.2190 H   0  0  0  0  0  0  0  0  0  0  0  0
    5.3381    0.6420   23.3955 H   0  0  0  0  0  0  0  0  0  0  0  0
    6.5036    0.1539   25.1458 C   0  0  0  0  0  0  0  0  0  0  0  0
    6.7592   -0.8744   24.8280 H   0  0  0  0  0  0  0  0  0  0  0  0
    7.6835    0.6760   26.0004 C   0  0  0  0  0  0  0  0  0  0  0  0
    7.4990    1.7329   26.2601 H   0  0  0  0  0  0  0  0  0  0  0  0
    8.6057    0.6817   25.4051 H   0  0  0  0  0  0  0  0  0  0  0  0
    7.8838   -0.1462   27.2932 C   0  0  0  0  0  0  0  0  0  0  0  0
    8.2046   -1.1666   27.0275 H   0  0  0  0  0  0  0  0  0  0  0  0
    8.7039    0.2806   27.8865 H   0  0  0  0  0  0  0  0  0  0  0  0
    6.5635   -0.1813   28.0934 C   0  0  0  0  0  0  0  0  0  0  0  0
    6.5712   -0.7556   29.0221 H   0  0  0  0  0  0  0  0  0  0  0  0
    6.3270    0.8460   28.4007 H   0  0  0  0  0  0  0  0  0  0  0  0
    5.4169   -0.7540   27.2584 C   0  0  0  0  0  0  0  0  0  0  0  0
    4.4936   -0.7905   27.8504 H   0  0  0  0  0  0  0  0  0  0  0  0
    5.6631   -1.7947   26.9913 H   0  0  0  0  0  0  0  0  0  0  0  0
    5.2131    0.0642   25.9844 C   0  0  0  0  0  0  0  0  0  0  0  0
    4.8927    1.0849   26.2522 H   0  0  0  0  0  0  0  0  0  0  0  0
    4.4064   -0.3608   25.3724 H   0  0  0  0  0  0  0  0  0  0  0  0
    8.5024   -1.3137   22.7623 C   0  0  0  0  0  0  0  0  0  0  0  0
    8.9614   -1.4091   23.7437 H   0  0  0  0  0  0  0  0  0  0  0  0
    8.6423   -2.3189   21.9037 N   0  0  0  0  0  0  0  0  0  0  0  0
    7.9872   -1.9026   20.8127 N   0  0  0  0  0  0  0  0  0  0  0  0
    7.9161   -2.5092   20.0050 H   0  0  0  0  0  0  0  0  0  0  0  0
    5.4356    0.6462   20.1154 C   0  0  0  0  0  0  0  0  0  0  0  0
    5.0121    0.6343   21.1186 H   0  0  0  0  0  0  0  0  0  0  0  0
    4.7852    1.3108   19.0729 C   0  0  0  0  0  0  0  0  0  0  0  0
    3.8562    1.8503   19.2305 H   0  0  0  0  0  0  0  0  0  0  0  0
  1  2  1  0
  2  3  2  0
  3  4  1  0
  4  5  1  0
  4  6  2  0
  6  7  1  0
  7  8  2  0
  8  9  1  0
  9 10  1  0
  9 11  1  0
  9 12  1  0
 12 13  1  0
 12 14  1  0
 12 15  1  0
 15 16  1  0
 15 17  1  0
 17 18  1  0
 17 19  1  0
 17 20  1  0
 20 21  1  0
 20 22  1  0
 20 23  1  0
 23 24  1  0
 23 25  1  0
 23 26  1  0
 26 27  1  0
 26 28  1  0
 26 29  1  0
 29 30  1  0
 29 31  1  0
  8 32  1  0
 32 33  1  0
 32 34  2  0
 34 35  1  0
 35 36  1  0
  6 37  1  0
 37 38  1  0
 37 39  2  0
 39 40  1  0
 39  2  1  0
 35  7  1  0
 29 15  1  0
M  END
>  <cnnaffinity>  (1) 
-5.01698

>  <filename>  (1) 
c1cncc(-c2[nH]ncc2CCC2CCCCC2)c1

$$$$
