
     RDKit          3D

 38 40  0  0  0  0  0  0  0  0999 V2000
    4.9061    1.7813   16.9944 H   0  0  0  0  0  0  0  0  0  0  0  0
    5.3974    1.2973   17.8348 C   0  0  0  0  0  0  0  0  0  0  0  0
    6.5630    0.6840   17.5642 N   0  0  0  0  0  0  0  0  0  0  0  0
    7.1774    0.0757   18.5876 C   0  0  0  0  0  0  0  0  0  0  0  0
    8.1184   -0.4297   18.3730 H   0  0  0  0  0  0  0  0  0  0  0  0
    6.6738    0.0061   19.9098 C   0  0  0  0  0  0  0  0  0  0  0  0
    7.3784   -0.7227   20.8955 N   0  0  0  0  0  0  0  0  0  0  0  0
    6.6403   -1.5994   21.8042 C   0  0  0  0  0  0  0  0  0  0  0  0
    6.3052   -1.0861   22.7256 H   0  0  0  0  0  0  0  0  0  0  0  0
    5.7344   -1.9403   21.2901 H   0  0  0  0  0  0  0  0  0  0  0  0
    7.5081   -2.8027   22.1653 C   0  0  0  0  0  0  0  0  0  0  0  0
    7.6643   -3.4019   21.2604 H   0  0  0  0  0  0  0  0  0  0  0  0
    6.9782   -3.4322   22.8844 H   0  0  0  0  0  0  0  0  0  0  0  0
    8.8594   -2.3554   22.7220 C   0  0  0  0  0  0  0  0  0  0  0  0
    9.4904   -3.2255   22.9219 H   0  0  0  0  0  0  0  0  0  0  0  0
    8.7139   -1.8405   23.6832 H   0  0  0  0  0  0  0  0  0  0  0  0
    9.5646   -1.4186   21.7365 C   0  0  0  0  0  0  0  0  0  0  0  0
    9.8085   -1.9755   20.8239 H   0  0  0  0  0  0  0  0  0  0  0  0
   10.5166   -1.0658   22.1473 H   0  0  0  0  0  0  0  0  0  0  0  0
    8.6886   -0.2194   21.3390 C   0  0  2  0  0  0  0  0  0  0  0  0
    9.1621    0.2611   20.4717 H   0  0  0  0  0  0  0  0  0  0  0  0
    8.5616    0.8676   22.4298 C   0  0  0  0  0  0  0  0  0  0  0  0
    7.8429    1.6209   22.0893 H   0  0  0  0  0  0  0  0  0  0  0  0
    8.1453    0.4218   23.3370 H   0  0  0  0  0  0  0  0  0  0  0  0
    9.8701    1.5346   22.7394 C   0  0  0  0  0  0  0  0  0  0  0  0
   10.6252    1.1858   23.8583 C   0  0  0  0  0  0  0  0  0  0  0  0
   10.2692    0.4321   24.5524 H   0  0  0  0  0  0  0  0  0  0  0  0
   11.8502    1.8234   24.0729 C   0  0  0  0  0  0  0  0  0  0  0  0
   12.4376    1.5633   24.9478 H   0  0  0  0  0  0  0  0  0  0  0  0
   12.3588    2.7571   23.2604 N   0  0  0  0  0  0  0  0  0  0  0  0
   11.6338    3.0711   22.1774 C   0  0  0  0  0  0  0  0  0  0  0  0
   12.0475    3.8263   21.5143 H   0  0  0  0  0  0  0  0  0  0  0  0
   10.4026    2.4879   21.8703 C   0  0  0  0  0  0  0  0  0  0  0  0
    9.8584    2.7833   20.9806 H   0  0  0  0  0  0  0  0  0  0  0  0
    5.4457    0.6469   20.1609 C   0  0  0  0  0  0  0  0  0  0  0  0
    5.0187    0.6214   21.1669 H   0  0  0  0  0  0  0  0  0  0  0  0
    4.8069    1.3138   19.1057 C   0  0  0  0  0  0  0  0  0  0  0  0
    3.8710    1.8444   19.2627 H   0  0  0  0  0  0  0  0  0  0  0  0
  1  2  1  0
  2  3  2  0
  3  4  1  0
  4  5  1  0
  4  6  2  0
  6  7  1  0
  7  8  1  0
  8  9  1  0
  8 10  1  0
  8 11  1  0
 11 12  1  0
 11 13  1  0
 11 14  1  0
 14 15  1  0
 14 16  1  0
 14 17  1  0
 17 18  1  0
 17 19  1  0
 17 20  1  0
 20 21  1  6
 20 22  1  0
 22 23  1  0
 22 24  1  0
 22 25  1  0
 25 26  2  0
 26 27  1  0
 26 28  1  0
 28 29  1  0
 28 30  2  0
 30 31  1  0
 31 32  1  0
 31 33  2  0
 33 34  1  0
  6 35  1  0
 35 36  1  0
 35 37  2  0
 37 38  1  0
 37  2  1  0
 20  7  1  0
 33 25  1  0
M  END
>  <cnnaffinity>  (1) 
-5.43572

>  <filename>  (1) 
c1cncc(N2CCCC[C@@H]2Cc2ccncc2)c1

$$$$
