
     RDKit          3D

 41 44  0  0  0  0  0  0  0  0999 V2000
    4.9327    1.7734   17.0001 H   0  0  0  0  0  0  0  0  0  0  0  0
    5.4095    1.2852   17.8451 C   0  0  0  0  0  0  0  0  0  0  0  0
    6.5737    0.6655   17.5972 N   0  0  0  0  0  0  0  0  0  0  0  0
    7.1772    0.0521   18.6206 C   0  0  0  0  0  0  0  0  0  0  0  0
    8.1247   -0.4322   18.3871 H   0  0  0  0  0  0  0  0  0  0  0  0
    6.6410    0.0165   19.9173 C   0  0  0  0  0  0  0  0  0  0  0  0
    7.3588   -0.6937   20.9763 C   0  0  0  0  0  0  0  0  0  0  0  0
    8.5385   -1.3385   20.7519 N   0  0  0  0  0  0  0  0  0  0  0  0
    8.8044   -1.8274   21.9419 C   0  0  0  0  0  0  0  0  0  0  0  0
   10.0064   -2.8181   22.7290 S   0  0  0  0  0  0  0  0  0  0  0  0
    9.1082   -2.7186   24.2231 C   0  0  0  0  0  0  0  0  0  0  0  0
    9.4449   -3.2658   25.0909 H   0  0  0  0  0  0  0  0  0  0  0  0
    7.9999   -1.9609   24.1313 C   0  0  0  0  0  0  0  0  0  0  0  0
    6.9488   -1.7586   25.1774 C   0  0  0  0  0  0  0  0  0  0  0  0
    7.4013   -1.9216   26.1627 H   0  0  0  0  0  0  0  0  0  0  0  0
    6.5790   -0.7285   25.1509 H   0  0  0  0  0  0  0  0  0  0  0  0
    5.7675   -2.7260   25.0098 C   0  0  0  0  0  0  0  0  0  0  0  0
    5.0035   -2.5058   25.7789 H   0  0  0  0  0  0  0  0  0  0  0  0
    5.3013   -2.5134   24.0434 H   0  0  0  0  0  0  0  0  0  0  0  0
    6.1976   -4.1246   25.0401 N   0  0  0  0  0  0  0  0  0  0  0  0
    6.2485   -4.7105   26.3852 C   0  0  0  0  0  0  0  0  0  0  0  0
    6.8881   -5.6022   26.3461 H   0  0  0  0  0  0  0  0  0  0  0  0
    6.7524   -4.0093   27.0596 H   0  0  0  0  0  0  0  0  0  0  0  0
    4.8668   -5.0964   26.9434 C   0  0  0  0  0  0  0  0  0  0  0  0
    4.9841   -5.6072   27.9057 H   0  0  0  0  0  0  0  0  0  0  0  0
    4.3009   -4.1781   27.1468 H   0  0  0  0  0  0  0  0  0  0  0  0
    4.0886   -5.9739   25.9502 C   0  0  0  0  0  0  0  0  0  0  0  0
    3.0703   -6.1506   26.3114 H   0  0  0  0  0  0  0  0  0  0  0  0
    4.5761   -6.9565   25.8825 H   0  0  0  0  0  0  0  0  0  0  0  0
    4.0642   -5.3340   24.5539 C   0  0  0  0  0  0  0  0  0  0  0  0
    3.4839   -4.4021   24.5799 H   0  0  0  0  0  0  0  0  0  0  0  0
    3.5748   -5.9897   23.8253 H   0  0  0  0  0  0  0  0  0  0  0  0
    5.4898   -4.9964   24.0979 C   0  0  0  0  0  0  0  0  0  0  0  0
    6.0675   -5.9240   23.9842 H   0  0  0  0  0  0  0  0  0  0  0  0
    5.4902   -4.5229   23.1078 H   0  0  0  0  0  0  0  0  0  0  0  0
    7.8492   -1.4886   22.8300 N   0  0  0  0  0  0  0  0  0  0  0  0
    6.8922   -0.7567   22.2188 N   0  0  0  0  0  0  0  0  0  0  0  0
    5.4196    0.6624   20.1665 C   0  0  0  0  0  0  0  0  0  0  0  0
    4.9897    0.6426   21.1733 H   0  0  0  0  0  0  0  0  0  0  0  0
    4.8028    1.3116   19.1051 C   0  0  0  0  0  0  0  0  0  0  0  0
    3.8729    1.8444   19.2525 H   0  0  0  0  0  0  0  0  0  0  0  0
  1  2  1  0
  2  3  2  0
  3  4  1  0
  4  5  1  0
  4  6  2  0
  6  7  1  0
  7  8  1  0
  8  9  2  0
  9 10  1  0
 10 11  1  0
 11 12  1  0
 11 13  2  0
 13 14  1  0
 14 15  1  0
 14 16  1  0
 14 17  1  0
 17 18  1  0
 17 19  1  0
 17 20  1  0
 20 21  1  0
 21 22  1  0
 21 23  1  0
 21 24  1  0
 24 25  1  0
 24 26  1  0
 24 27  1  0
 27 28  1  0
 27 29  1  0
 27 30  1  0
 30 31  1  0
 30 32  1  0
 30 33  1  0
 33 34  1  0
 33 35  1  0
 13 36  1  0
 36 37  1  0
  6 38  1  0
 38 39  1  0
 38 40  2  0
 40 41  1  0
 40  2  1  0
 37  7  2  0
 36  9  1  0
 33 20  1  0
M  END
>  <cnnaffinity>  (1) 
-5.66492

>  <filename>  (1) 
c1cncc(-c2nc3scc(CCN4CCCCC4)n3n2)c1

$$$$
