
     RDKit          3D

 30 33  0  0  0  0  0  0  0  0999 V2000
    4.9246    1.7845   16.9921 H   0  0  0  0  0  0  0  0  0  0  0  0
    5.4034    1.2951   17.8351 C   0  0  0  0  0  0  0  0  0  0  0  0
    6.5684    0.6788   17.5767 N   0  0  0  0  0  0  0  0  0  0  0  0
    7.1664    0.0577   18.5958 C   0  0  0  0  0  0  0  0  0  0  0  0
    8.1109   -0.4365   18.3776 H   0  0  0  0  0  0  0  0  0  0  0  0
    6.6463    0.0224   19.8983 C   0  0  0  0  0  0  0  0  0  0  0  0
    7.3738   -0.7217   20.9289 C   0  0  0  0  0  0  0  0  0  0  0  0
    7.9444   -1.8815   20.7427 N   0  0  0  0  0  0  0  0  0  0  0  0
    8.4435   -2.3106   21.9474 N   0  0  0  0  0  0  0  0  0  0  0  0
    8.1779   -1.3833   22.8238 C   0  0  0  0  0  0  0  0  0  0  0  0
    8.4655   -1.3937   23.8652 H   0  0  0  0  0  0  0  0  0  0  0  0
    7.5004   -0.3327   22.2491 N   0  0  0  0  0  0  0  0  0  0  0  0
    7.1652    0.9218   22.8663 C   0  0  0  0  0  0  0  0  0  0  0  0
    6.5807    0.9056   24.1723 C   0  0  0  0  0  0  0  0  0  0  0  0
    6.4073   -0.0598   24.6514 H   0  0  0  0  0  0  0  0  0  0  0  0
    6.2362    2.0826   24.8216 C   0  0  0  0  0  0  0  0  0  0  0  0
    5.8064    2.0878   25.8236 H   0  0  0  0  0  0  0  0  0  0  0  0
    6.4840    3.2948   24.1339 C   0  0  0  0  0  0  0  0  0  0  0  0
    7.0555    3.3245   22.8458 C   0  0  0  0  0  0  0  0  0  0  0  0
    7.1234    4.7120   22.5255 C   0  0  0  0  0  0  0  0  0  0  0  0
    7.5060    5.1475   21.6147 H   0  0  0  0  0  0  0  0  0  0  0  0
    6.6616    5.4613   23.5050 N   0  0  0  0  0  0  0  0  0  0  0  0
    6.2767    4.5955   24.4687 N   0  0  0  0  0  0  0  0  0  0  0  0
    5.8824    4.9353   25.3280 H   0  0  0  0  0  0  0  0  0  0  0  0
    7.4149    2.1169   22.2034 C   0  0  0  0  0  0  0  0  0  0  0  0
    7.8372    2.1121   21.2036 H   0  0  0  0  0  0  0  0  0  0  0  0
    5.4175    0.6532   20.1509 C   0  0  0  0  0  0  0  0  0  0  0  0
    5.0024    0.6470   21.1638 H   0  0  0  0  0  0  0  0  0  0  0  0
    4.7942    1.3098   19.0955 C   0  0  0  0  0  0  0  0  0  0  0  0
    3.8660    1.8456   19.2502 H   0  0  0  0  0  0  0  0  0  0  0  0
  1  2  1  0
  2  3  2  0
  3  4  1  0
  4  5  1  0
  4  6  2  0
  6  7  1  0
  7  8  2  0
  8  9  1  0
  9 10  2  0
 10 11  1  0
 10 12  1  0
 12 13  1  0
 13 14  2  0
 14 15  1  0
 14 16  1  0
 16 17  1  0
 16 18  2  0
 18 19  1  0
 19 20  1  0
 20 21  1  0
 20 22  2  0
 22 23  1  0
 23 24  1  0
 19 25  2  0
 25 26  1  0
  6 27  1  0
 27 28  1  0
 27 29  2  0
 29 30  1  0
 29  2  1  0
 12  7  1  0
 25 13  1  0
 23 18  1  0
M  END
>  <cnnaffinity>  (1) 
-5.12339

>  <filename>  (1) 
c1cncc(-c2nncn2-c2ccc3[nH]ncc3c2)c1

$$$$
