
     RDKit          3D

 32 35  0  0  0  0  0  0  0  0999 V2000
    4.9258    1.8514   16.9272 H   0  0  0  0  0  0  0  0  0  0  0  0
    5.3914    1.3258   17.7579 C   0  0  0  0  0  0  0  0  0  0  0  0
    6.5504    0.7035   17.4866 N   0  0  0  0  0  0  0  0  0  0  0  0
    7.1617    0.0756   18.4979 C   0  0  0  0  0  0  0  0  0  0  0  0
    8.1016   -0.4175   18.2555 H   0  0  0  0  0  0  0  0  0  0  0  0
    6.6672    0.0275   19.8192 C   0  0  0  0  0  0  0  0  0  0  0  0
    7.4070   -0.6358   20.9128 C   0  0  0  0  0  0  0  0  0  0  0  0
    8.7300   -1.7235   20.6272 S   0  0  0  0  0  0  0  0  0  0  0  0
    8.8882   -2.0811   22.2970 C   0  0  0  0  0  0  0  0  0  0  0  0
    9.6514   -2.7621   22.6518 H   0  0  0  0  0  0  0  0  0  0  0  0
    8.0260   -1.3492   23.0644 C   0  0  0  0  0  0  0  0  0  0  0  0
    8.0502   -1.2941   24.5386 C   0  0  0  0  0  0  0  0  0  0  0  0
    8.0460   -0.0475   25.1752 C   0  0  0  0  0  0  0  0  0  0  0  0
    7.8891    0.8357   24.5596 H   0  0  0  0  0  0  0  0  0  0  0  0
    8.2949    0.0659   26.5531 C   0  0  0  0  0  0  0  0  0  0  0  0
    8.3099    1.0615   26.9929 H   0  0  0  0  0  0  0  0  0  0  0  0
    8.5131   -1.0718   27.3347 C   0  0  0  0  0  0  0  0  0  0  0  0
    8.8463   -0.9953   28.3629 H   0  0  0  0  0  0  0  0  0  0  0  0
    8.3543   -2.3312   26.7295 C   0  0  0  0  0  0  0  0  0  0  0  0
    8.1499   -2.4654   25.3342 C   0  0  0  0  0  0  0  0  0  0  0  0
    8.0506   -3.8768   25.0822 C   0  0  0  0  0  0  0  0  0  0  0  0
    7.9307   -4.3335   24.1122 H   0  0  0  0  0  0  0  0  0  0  0  0
    8.1645   -4.5280   26.2775 C   0  0  0  0  0  0  0  0  0  0  0  0
    8.1505   -5.5922   26.4855 H   0  0  0  0  0  0  0  0  0  0  0  0
    8.3621   -3.5972   27.2804 N   0  0  0  0  0  0  0  0  0  0  0  0
    8.3120   -3.7739   28.2746 H   0  0  0  0  0  0  0  0  0  0  0  0
    7.1969   -0.5097   22.2542 C   0  0  0  0  0  0  0  0  0  0  0  0
    6.4875    0.1902   22.6825 H   0  0  0  0  0  0  0  0  0  0  0  0
    5.4361    0.6575   20.0673 C   0  0  0  0  0  0  0  0  0  0  0  0
    4.9906    0.6239   21.0608 H   0  0  0  0  0  0  0  0  0  0  0  0
    4.7936    1.3201   19.0218 C   0  0  0  0  0  0  0  0  0  0  0  0
    3.8589    1.8449   19.1777 H   0  0  0  0  0  0  0  0  0  0  0  0
  1  2  1  0
  2  3  2  0
  3  4  1  0
  4  5  1  0
  4  6  2  0
  6  7  1  0
  7  8  1  0
  8  9  1  0
  9 10  1  0
  9 11  2  0
 11 12  1  0
 12 13  2  0
 13 14  1  0
 13 15  1  0
 15 16  1  0
 15 17  2  0
 17 18  1  0
 17 19  1  0
 19 20  2  0
 20 21  1  0
 21 22  1  0
 21 23  2  0
 23 24  1  0
 23 25  1  0
 25 26  1  0
 11 27  1  0
 27 28  1  0
  6 29  1  0
 29 30  1  0
 29 31  2  0
 31 32  1  0
 31  2  1  0
 27  7  2  0
 20 12  1  0
 25 19  1  0
M  END
>  <cnnaffinity>  (1) 
-5.24395

>  <filename>  (1) 
c1cncc(-c2cc(-c3cccc4[nH]ccc34)cs2)c1

$$$$
