
     RDKit          3D

 37 39  0  0  0  0  0  0  0  0999 V2000
    4.9271    1.7773   16.9969 H   0  0  0  0  0  0  0  0  0  0  0  0
    5.4072    1.2878   17.8448 C   0  0  0  0  0  0  0  0  0  0  0  0
    6.5673    0.6672   17.5995 N   0  0  0  0  0  0  0  0  0  0  0  0
    7.1762    0.0530   18.6151 C   0  0  0  0  0  0  0  0  0  0  0  0
    8.1123   -0.4330   18.3661 H   0  0  0  0  0  0  0  0  0  0  0  0
    6.6606    0.0015   19.9214 C   0  0  0  0  0  0  0  0  0  0  0  0
    7.3744   -0.6841   20.9371 N   0  0  0  0  0  0  0  0  0  0  0  0
    6.7407   -1.1059   22.0505 N   0  0  0  0  0  0  0  0  0  0  0  0
    7.6695   -1.6789   22.8007 C   0  0  0  0  0  0  0  0  0  0  0  0
    7.3708   -2.2160   24.1672 C   0  0  0  0  0  0  0  0  0  0  0  0
    8.1939   -2.8724   24.4671 H   0  0  0  0  0  0  0  0  0  0  0  0
    6.4739   -2.8442   24.1221 H   0  0  0  0  0  0  0  0  0  0  0  0
    7.1987   -1.1182   25.2332 C   0  0  0  0  0  0  0  0  0  0  0  0
    6.4251   -0.4299   24.8642 H   0  0  0  0  0  0  0  0  0  0  0  0
    8.4838   -0.2987   25.4470 C   0  0  0  0  0  0  0  0  0  0  0  0
    9.2964   -0.9788   25.7416 H   0  0  0  0  0  0  0  0  0  0  0  0
    8.8059    0.1682   24.5086 H   0  0  0  0  0  0  0  0  0  0  0  0
    8.3100    0.7757   26.5254 C   0  0  0  0  0  0  0  0  0  0  0  0
    7.5901    1.5230   26.1688 H   0  0  0  0  0  0  0  0  0  0  0  0
    9.2535    1.3116   26.6731 H   0  0  0  0  0  0  0  0  0  0  0  0
    7.8076    0.1798   27.8450 C   0  0  0  0  0  0  0  0  0  0  0  0
    8.5931   -0.4739   28.2457 H   0  0  0  0  0  0  0  0  0  0  0  0
    7.6493    0.9675   28.5912 H   0  0  0  0  0  0  0  0  0  0  0  0
    6.5226   -0.6352   27.6420 C   0  0  0  0  0  0  0  0  0  0  0  0
    5.7155    0.0434   27.3326 H   0  0  0  0  0  0  0  0  0  0  0  0
    6.1943   -1.0906   28.5837 H   0  0  0  0  0  0  0  0  0  0  0  0
    6.7026   -1.7098   26.5620 C   0  0  0  0  0  0  0  0  0  0  0  0
    5.7586   -2.2470   26.3986 H   0  0  0  0  0  0  0  0  0  0  0  0
    7.4263   -2.4610   26.9114 H   0  0  0  0  0  0  0  0  0  0  0  0
    8.9286   -1.6296   22.1667 C   0  0  0  0  0  0  0  0  0  0  0  0
    9.8628   -1.9905   22.5758 H   0  0  0  0  0  0  0  0  0  0  0  0
    8.7069   -0.9792   20.9819 C   0  0  0  0  0  0  0  0  0  0  0  0
    9.3774   -0.6844   20.1822 H   0  0  0  0  0  0  0  0  0  0  0  0
    5.4395    0.6467   20.1776 C   0  0  0  0  0  0  0  0  0  0  0  0
    5.0094    0.6230   21.1814 H   0  0  0  0  0  0  0  0  0  0  0  0
    4.8145    1.3055   19.1147 C   0  0  0  0  0  0  0  0  0  0  0  0
    3.8823    1.8376   19.2610 H   0  0  0  0  0  0  0  0  0  0  0  0
  1  2  1  0
  2  3  2  0
  3  4  1  0
  4  5  1  0
  4  6  2  0
  6  7  1  0
  7  8  1  0
  8  9  2  0
  9 10  1  0
 10 11  1  0
 10 12  1  0
 10 13  1  0
 13 14  1  0
 13 15  1  0
 15 16  1  0
 15 17  1  0
 15 18  1  0
 18 19  1  0
 18 20  1  0
 18 21  1  0
 21 22  1  0
 21 23  1  0
 21 24  1  0
 24 25  1  0
 24 26  1  0
 24 27  1  0
 27 28  1  0
 27 29  1  0
  9 30  1  0
 30 31  1  0
 30 32  2  0
 32 33  1  0
  6 34  1  0
 34 35  1  0
 34 36  2  0
 36 37  1  0
 36  2  1  0
 32  7  1  0
 27 13  1  0
M  END
>  <cnnaffinity>  (1) 
-5.093

>  <filename>  (1) 
c1cncc(-n2ccc(CC3CCCCC3)n2)c1

$$$$
