
     RDKit          3D

 40 42  0  0  0  0  0  0  0  0999 V2000
    4.9216    1.8204   16.9590 H   0  0  0  0  0  0  0  0  0  0  0  0
    5.3812    1.3068   17.8011 C   0  0  0  0  0  0  0  0  0  0  0  0
    6.5438    0.6862   17.5467 N   0  0  0  0  0  0  0  0  0  0  0  0
    7.1551    0.0744   18.5722 C   0  0  0  0  0  0  0  0  0  0  0  0
    8.1094   -0.3887   18.3144 H   0  0  0  0  0  0  0  0  0  0  0  0
    6.6561    0.0154   19.8903 C   0  0  0  0  0  0  0  0  0  0  0  0
    7.3612   -0.7864   20.9959 C   0  0  0  0  0  0  0  0  0  0  0  0
    6.7748   -2.2282   20.9375 C   0  0  0  0  0  0  0  0  0  0  0  0
    6.9143   -2.5805   19.9049 H   0  0  0  0  0  0  0  0  0  0  0  0
    5.6848   -2.1195   21.0697 H   0  0  0  0  0  0  0  0  0  0  0  0
    7.3295   -3.1627   21.9269 N   0  0  0  0  0  0  0  0  0  0  0  0
    6.3665   -3.7024   22.9000 C   0  0  0  0  0  0  0  0  0  0  0  0
    6.9435   -4.0670   23.7640 H   0  0  0  0  0  0  0  0  0  0  0  0
    5.7105   -2.8945   23.2479 H   0  0  0  0  0  0  0  0  0  0  0  0
    5.5144   -4.8476   22.3120 C   0  0  0  0  0  0  0  0  0  0  0  0
    4.8675   -4.4291   21.5207 H   0  0  0  0  0  0  0  0  0  0  0  0
    4.8800   -5.3085   23.0759 H   0  0  0  0  0  0  0  0  0  0  0  0
    6.3159   -5.8933   21.7693 O   0  0  0  0  0  0  0  0  0  0  0  0
    7.2387   -5.3985   20.8038 C   0  0  0  0  0  0  0  0  0  0  0  0
    7.8231   -6.2605   20.4816 H   0  0  0  0  0  0  0  0  0  0  0  0
    6.6918   -5.0137   19.9248 H   0  0  0  0  0  0  0  0  0  0  0  0
    8.1215   -4.2854   21.4043 C   0  0  0  0  0  0  0  0  0  0  0  0
    8.6878   -4.7089   22.2504 H   0  0  0  0  0  0  0  0  0  0  0  0
    8.8431   -3.8975   20.6785 H   0  0  0  0  0  0  0  0  0  0  0  0
    7.1723   -0.1668   22.4107 C   0  0  0  0  0  0  0  0  0  0  0  0
    7.1156    0.9249   22.3043 H   0  0  0  0  0  0  0  0  0  0  0  0
    6.2302   -0.4989   22.8709 H   0  0  0  0  0  0  0  0  0  0  0  0
    8.3940   -0.5657   23.2662 C   0  0  0  0  0  0  0  0  0  0  0  0
    8.1496   -1.4163   23.9115 H   0  0  0  0  0  0  0  0  0  0  0  0
    8.6793    0.2522   23.9398 H   0  0  0  0  0  0  0  0  0  0  0  0
    9.5152   -0.9473   22.2659 C   0  0  0  0  0  0  0  0  0  0  0  0
   10.4166   -0.3332   22.3870 H   0  0  0  0  0  0  0  0  0  0  0  0
    9.8345   -1.9836   22.4235 H   0  0  0  0  0  0  0  0  0  0  0  0
    8.9095   -0.7697   20.8536 C   0  0  0  0  0  0  0  0  0  0  0  0
    9.2637   -1.5375   20.1492 H   0  0  0  0  0  0  0  0  0  0  0  0
    9.1995    0.2057   20.4388 H   0  0  0  0  0  0  0  0  0  0  0  0
    5.4262    0.6620   20.1166 C   0  0  0  0  0  0  0  0  0  0  0  0
    4.9774    0.6693   21.1102 H   0  0  0  0  0  0  0  0  0  0  0  0
    4.7835    1.3188   19.0636 C   0  0  0  0  0  0  0  0  0  0  0  0
    3.8524    1.8565   19.2191 H   0  0  0  0  0  0  0  0  0  0  0  0
  1  2  1  0
  2  3  2  0
  3  4  1  0
  4  5  1  0
  4  6  2  0
  6  7  1  0
  7  8  1  0
  8  9  1  0
  8 10  1  0
  8 11  1  0
 11 12  1  0
 12 13  1  0
 12 14  1  0
 12 15  1  0
 15 16  1  0
 15 17  1  0
 15 18  1  0
 18 19  1  0
 19 20  1  0
 19 21  1  0
 19 22  1  0
 22 23  1  0
 22 24  1  0
  7 25  1  0
 25 26  1  0
 25 27  1  0
 25 28  1  0
 28 29  1  0
 28 30  1  0
 28 31  1  0
 31 32  1  0
 31 33  1  0
 31 34  1  0
 34 35  1  0
 34 36  1  0
  6 37  1  0
 37 38  1  0
 37 39  2  0
 39 40  1  0
 39  2  1  0
 34  7  1  0
 22 11  1  0
M  END
>  <cnnaffinity>  (1) 
-4.6731

>  <filename>  (1) 
c1cncc(C2(CN3CCOCC3)CCCC2)c1

$$$$
