
     RDKit          3D

 31 34  0  0  0  0  0  0  0  0999 V2000
    4.9150    1.8401   16.9339 H   0  0  0  0  0  0  0  0  0  0  0  0
    5.4011    1.3265   17.7627 C   0  0  0  0  0  0  0  0  0  0  0  0
    6.5563    0.7018   17.4836 N   0  0  0  0  0  0  0  0  0  0  0  0
    7.1726    0.0788   18.4971 C   0  0  0  0  0  0  0  0  0  0  0  0
    8.1003   -0.4294   18.2414 H   0  0  0  0  0  0  0  0  0  0  0  0
    6.6990    0.0300   19.8263 C   0  0  0  0  0  0  0  0  0  0  0  0
    7.4218   -0.6765   20.9079 C   0  0  0  0  0  0  0  0  0  0  0  0
    8.7797   -1.0944   21.0106 C   0  0  0  0  0  0  0  0  0  0  0  0
    9.5930   -0.9356   20.3141 H   0  0  0  0  0  0  0  0  0  0  0  0
    9.0302   -1.7107   22.1474 N   0  0  0  0  0  0  0  0  0  0  0  0
    7.8589   -1.7154   22.8272 N   0  0  0  0  0  0  0  0  0  0  0  0
    7.7531   -2.3558   24.1082 C   0  0  0  0  0  0  0  0  0  0  0  0
    6.4674   -2.6000   24.6953 C   0  0  0  0  0  0  0  0  0  0  0  0
    5.5628   -2.3316   24.1598 H   0  0  0  0  0  0  0  0  0  0  0  0
    6.3371   -3.2011   25.9360 C   0  0  0  0  0  0  0  0  0  0  0  0
    5.3654   -3.3394   26.3998 H   0  0  0  0  0  0  0  0  0  0  0  0
    7.5235   -3.6452   26.5598 C   0  0  0  0  0  0  0  0  0  0  0  0
    8.7917   -3.5026   25.9556 C   0  0  0  0  0  0  0  0  0  0  0  0
    9.6630   -4.2332   26.8274 C   0  0  0  0  0  0  0  0  0  0  0  0
   10.7189   -4.4245   26.6958 H   0  0  0  0  0  0  0  0  0  0  0  0
    9.0198   -4.7065   27.8743 N   0  0  0  0  0  0  0  0  0  0  0  0
    7.7317   -4.3357   27.7115 N   0  0  0  0  0  0  0  0  0  0  0  0
    7.0445   -4.5498   28.4132 H   0  0  0  0  0  0  0  0  0  0  0  0
    8.9199   -2.7516   24.7563 C   0  0  0  0  0  0  0  0  0  0  0  0
    9.8764   -2.4513   24.3311 H   0  0  0  0  0  0  0  0  0  0  0  0
    6.8933   -1.0923   22.1053 C   0  0  0  0  0  0  0  0  0  0  0  0
    5.8986   -0.9680   22.4864 H   0  0  0  0  0  0  0  0  0  0  0  0
    5.4790    0.6792   20.0814 C   0  0  0  0  0  0  0  0  0  0  0  0
    5.0532    0.6818   21.0854 H   0  0  0  0  0  0  0  0  0  0  0  0
    4.8244    1.3317   19.0365 C   0  0  0  0  0  0  0  0  0  0  0  0
    3.8850    1.8461   19.1988 H   0  0  0  0  0  0  0  0  0  0  0  0
  1  2  1  0
  2  3  2  0
  3  4  1  0
  4  5  1  0
  4  6  2  0
  6  7  1  0
  7  8  1  0
  8  9  1  0
  8 10  2  0
 10 11  1  0
 11 12  1  0
 12 13  2  0
 13 14  1  0
 13 15  1  0
 15 16  1  0
 15 17  2  0
 17 18  1  0
 18 19  1  0
 19 20  1  0
 19 21  2  0
 21 22  1  0
 22 23  1  0
 18 24  2  0
 24 25  1  0
 11 26  1  0
 26 27  1  0
  6 28  1  0
 28 29  1  0
 28 30  2  0
 30 31  1  0
 30  2  1  0
 26  7  2  0
 24 12  1  0
 22 17  1  0
M  END
>  <cnnaffinity>  (1) 
-5.33401

>  <filename>  (1) 
c1cncc(-c2cnn(-c3ccc4[nH]ncc4c3)c2)c1

$$$$
