
     RDKit          3D

 40 43  0  0  0  0  0  0  0  0999 V2000
    4.9264    1.7751   17.0000 H   0  0  0  0  0  0  0  0  0  0  0  0
    5.4059    1.2880   17.8450 C   0  0  0  0  0  0  0  0  0  0  0  0
    6.5699    0.6697   17.5933 N   0  0  0  0  0  0  0  0  0  0  0  0
    7.1742    0.0562   18.6130 C   0  0  0  0  0  0  0  0  0  0  0  0
    8.1216   -0.4264   18.3721 H   0  0  0  0  0  0  0  0  0  0  0  0
    6.6463    0.0123   19.9146 C   0  0  0  0  0  0  0  0  0  0  0  0
    7.3482   -0.6865   20.9959 C   0  0  0  0  0  0  0  0  0  0  0  0
    6.8771   -0.7496   22.2021 N   0  0  0  0  0  0  0  0  0  0  0  0
    7.7457   -1.4467   22.9806 N   0  0  0  0  0  0  0  0  0  0  0  0
    7.8626   -1.7405   24.3170 C   0  0  0  0  0  0  0  0  0  0  0  0
    6.9183   -1.2918   25.3634 C   0  0  0  0  0  0  0  0  0  0  0  0
    5.8938   -1.3691   24.9890 H   0  0  0  0  0  0  0  0  0  0  0  0
    7.0235   -1.9565   26.2256 H   0  0  0  0  0  0  0  0  0  0  0  0
    7.2099    0.1616   25.7869 C   0  0  0  0  0  0  0  0  0  0  0  0
    7.1662    0.8138   24.9057 H   0  0  0  0  0  0  0  0  0  0  0  0
    8.2399    0.2372   26.1630 H   0  0  0  0  0  0  0  0  0  0  0  0
    6.3142    0.6872   26.8006 N   0  0  0  0  0  0  0  0  0  0  0  0
    6.3870   -0.0033   28.0910 C   0  0  0  0  0  0  0  0  0  0  0  0
    5.9564   -1.0232   28.0382 H   0  0  0  0  0  0  0  0  0  0  0  0
    7.4406   -0.1207   28.3672 H   0  0  0  0  0  0  0  0  0  0  0  0
    5.6444    0.7795   29.1760 C   0  0  0  0  0  0  0  0  0  0  0  0
    5.6870    0.2262   30.1211 H   0  0  0  0  0  0  0  0  0  0  0  0
    6.1621    1.7309   29.3409 H   0  0  0  0  0  0  0  0  0  0  0  0
    4.1887    1.0377   28.7705 C   0  0  0  0  0  0  0  0  0  0  0  0
    3.6902    1.6769   29.5078 H   0  0  0  0  0  0  0  0  0  0  0  0
    3.6405    0.0839   28.7590 H   0  0  0  0  0  0  0  0  0  0  0  0
    4.1284    1.6730   27.3767 C   0  0  0  0  0  0  0  0  0  0  0  0
    4.5369    2.6892   27.4102 H   0  0  0  0  0  0  0  0  0  0  0  0
    3.0899    1.7581   27.0388 H   0  0  0  0  0  0  0  0  0  0  0  0
    4.9286    0.8535   26.3620 C   0  0  0  0  0  0  0  0  0  0  0  0
    4.9209    1.3550   25.3874 H   0  0  0  0  0  0  0  0  0  0  0  0
    4.4197   -0.1208   26.2211 H   0  0  0  0  0  0  0  0  0  0  0  0
    8.9983   -2.3520   24.5214 N   0  0  0  0  0  0  0  0  0  0  0  0
    9.6620   -2.4770   23.3145 N   0  0  0  0  0  0  0  0  0  0  0  0
    8.8984   -1.9145   22.4251 C   0  0  0  0  0  0  0  0  0  0  0  0
    8.9130   -1.4949   20.7355 S   0  0  0  0  0  0  0  0  0  0  0  0
    5.4232    0.6593   20.1648 C   0  0  0  0  0  0  0  0  0  0  0  0
    4.9958    0.6371   21.1693 H   0  0  0  0  0  0  0  0  0  0  0  0
    4.8017    1.3124   19.1061 C   0  0  0  0  0  0  0  0  0  0  0  0
    3.8712    1.8461   19.2551 H   0  0  0  0  0  0  0  0  0  0  0  0
  1  2  1  0
  2  3  2  0
  3  4  1  0
  4  5  1  0
  4  6  2  0
  6  7  1  0
  7  8  2  0
  8  9  1  0
  9 10  1  0
 10 11  1  0
 11 12  1  0
 11 13  1  0
 11 14  1  0
 14 15  1  0
 14 16  1  0
 14 17  1  0
 17 18  1  0
 18 19  1  0
 18 20  1  0
 18 21  1  0
 21 22  1  0
 21 23  1  0
 21 24  1  0
 24 25  1  0
 24 26  1  0
 24 27  1  0
 27 28  1  0
 27 29  1  0
 27 30  1  0
 30 31  1  0
 30 32  1  0
 10 33  2  0
 33 34  1  0
 34 35  2  0
 35 36  1  0
  6 37  1  0
 37 38  1  0
 37 39  2  0
 39 40  1  0
 39  2  1  0
 36  7  1  0
 35  9  1  0
 30 17  1  0
M  END
>  <cnnaffinity>  (1) 
-5.24254

>  <filename>  (1) 
c1cncc(-c2nn3c(CCN4CCCCC4)nnc3s2)c1

$$$$
