
     RDKit          3D

 33 36  0  0  0  0  0  0  0  0999 V2000
    5.1646    2.1011   16.6900 H   0  0  0  0  0  0  0  0  0  0  0  0
    5.5497    1.4242   17.4491 C   0  0  0  0  0  0  0  0  0  0  0  0
    6.5979    0.6596   17.1011 N   0  0  0  0  0  0  0  0  0  0  0  0
    7.1158   -0.1614   18.0245 C   0  0  0  0  0  0  0  0  0  0  0  0
    7.9839   -0.7481   17.7263 H   0  0  0  0  0  0  0  0  0  0  0  0
    6.5980   -0.2730   19.3245 C   0  0  0  0  0  0  0  0  0  0  0  0
    7.2414   -1.0982   20.2253 O   0  0  0  0  0  0  0  0  0  0  0  0
    6.5035   -1.9921   20.9590 C   0  0  0  0  0  0  0  0  0  0  0  0
    5.4881   -2.8864   20.5565 C   0  0  0  0  0  0  0  0  0  0  0  0
    5.0337   -3.0028   19.5803 H   0  0  0  0  0  0  0  0  0  0  0  0
    5.0595   -3.6075   21.5895 N   0  0  0  0  0  0  0  0  0  0  0  0
    5.8261   -3.2157   22.6177 N   0  0  0  0  0  0  0  0  0  0  0  0
    5.6478   -3.5928   23.5410 H   0  0  0  0  0  0  0  0  0  0  0  0
    6.7370   -2.2534   22.2966 C   0  0  0  0  0  0  0  0  0  0  0  0
    7.8203   -1.7827   23.1687 C   0  0  0  0  0  0  0  0  0  0  0  0
    8.0173   -0.4198   23.3997 C   0  0  0  0  0  0  0  0  0  0  0  0
    7.2529    0.2800   23.0719 H   0  0  0  0  0  0  0  0  0  0  0  0
    9.1745    0.0525   24.0626 C   0  0  0  0  0  0  0  0  0  0  0  0
    9.3011    1.1208   24.2091 H   0  0  0  0  0  0  0  0  0  0  0  0
   10.1549   -0.8235   24.5222 C   0  0  0  0  0  0  0  0  0  0  0  0
   11.0682   -0.4508   24.9917 H   0  0  0  0  0  0  0  0  0  0  0  0
    9.9127   -2.2013   24.3581 C   0  0  0  0  0  0  0  0  0  0  0  0
    8.7544   -2.7064   23.7097 C   0  0  0  0  0  0  0  0  0  0  0  0
    8.8549   -4.1429   23.7461 C   0  0  0  0  0  0  0  0  0  0  0  0
    8.1616   -4.8434   23.3011 H   0  0  0  0  0  0  0  0  0  0  0  0
   10.0097   -4.4504   24.4044 C   0  0  0  0  0  0  0  0  0  0  0  0
   10.4470   -5.4117   24.6335 H   0  0  0  0  0  0  0  0  0  0  0  0
   10.6438   -3.2891   24.7741 N   0  0  0  0  0  0  0  0  0  0  0  0
   11.5447   -3.2329   25.2247 H   0  0  0  0  0  0  0  0  0  0  0  0
    5.5066    0.5252   19.6853 C   0  0  0  0  0  0  0  0  0  0  0  0
    5.1040    0.4622   20.6967 H   0  0  0  0  0  0  0  0  0  0  0  0
    4.9776    1.3923   18.7245 C   0  0  0  0  0  0  0  0  0  0  0  0
    4.1369    2.0367   18.9616 H   0  0  0  0  0  0  0  0  0  0  0  0
  1  2  1  0
  2  3  2  0
  3  4  1  0
  4  5  1  0
  4  6  2  0
  6  7  1  0
  7  8  1  0
  8  9  1  0
  9 10  1  0
  9 11  2  0
 11 12  1  0
 12 13  1  0
 12 14  1  0
 14 15  1  0
 15 16  2  0
 16 17  1  0
 16 18  1  0
 18 19  1  0
 18 20  2  0
 20 21  1  0
 20 22  1  0
 22 23  2  0
 23 24  1  0
 24 25  1  0
 24 26  2  0
 26 27  1  0
 26 28  1  0
 28 29  1  0
  6 30  1  0
 30 31  1  0
 30 32  2  0
 32 33  1  0
 32  2  1  0
 14  8  2  0
 23 15  1  0
 28 22  1  0
M  END
>  <cnnaffinity>  (1) 
-5.63638

>  <filename>  (1) 
c1cncc(Oc2cn[nH]c2-c2cccc3[nH]ccc23)c1

$$$$
