
     RDKit          3D

 35 38  0  0  0  0  0  0  0  0999 V2000
    5.0287    1.7494   16.9490 H   0  0  0  0  0  0  0  0  0  0  0  0
    5.4743    1.2605   17.8122 C   0  0  0  0  0  0  0  0  0  0  0  0
    6.6279    0.6097   17.5998 N   0  0  0  0  0  0  0  0  0  0  0  0
    7.2173    0.0118   18.6467 C   0  0  0  0  0  0  0  0  0  0  0  0
    8.1486   -0.5149   18.4369 H   0  0  0  0  0  0  0  0  0  0  0  0
    6.6863    0.0521   19.9498 C   0  0  0  0  0  0  0  0  0  0  0  0
    7.2382   -0.5449   21.0570 O   0  0  0  0  0  0  0  0  0  0  0  0
    8.5818   -0.7310   21.2037 C   0  0  0  0  0  0  0  0  0  0  0  0
    9.6600    0.0422   20.7292 C   0  0  0  0  0  0  0  0  0  0  0  0
    9.6227    0.9179   20.0981 H   0  0  0  0  0  0  0  0  0  0  0  0
   10.8167   -0.4454   21.1618 N   0  0  0  0  0  0  0  0  0  0  0  0
   10.4787   -1.4923   21.9248 N   0  0  0  0  0  0  0  0  0  0  0  0
   11.2115   -2.1061   22.2555 H   0  0  0  0  0  0  0  0  0  0  0  0
    9.1341   -1.7327   21.9905 C   0  0  0  0  0  0  0  0  0  0  0  0
    8.5407   -2.7941   22.8229 C   0  0  0  0  0  0  0  0  0  0  0  0
    8.9814   -2.9831   24.1297 C   0  0  0  0  0  0  0  0  0  0  0  0
    9.7344   -2.3135   24.5393 H   0  0  0  0  0  0  0  0  0  0  0  0
    8.4684   -4.0222   24.9404 C   0  0  0  0  0  0  0  0  0  0  0  0
    8.8296   -4.1287   25.9602 H   0  0  0  0  0  0  0  0  0  0  0  0
    7.5528   -4.9114   24.4322 C   0  0  0  0  0  0  0  0  0  0  0  0
    7.1459   -5.7093   25.0523 H   0  0  0  0  0  0  0  0  0  0  0  0
    7.1094   -4.7914   23.0829 C   0  0  0  0  0  0  0  0  0  0  0  0
    6.2749   -5.7974   22.5041 C   0  0  0  0  0  0  0  0  0  0  0  0
    5.9975   -6.6573   23.1123 H   0  0  0  0  0  0  0  0  0  0  0  0
    5.8419   -5.6947   21.2061 C   0  0  0  0  0  0  0  0  0  0  0  0
    5.2405   -6.4819   20.7562 H   0  0  0  0  0  0  0  0  0  0  0  0
    6.1674   -4.5477   20.4369 C   0  0  0  0  0  0  0  0  0  0  0  0
    5.7869   -4.4404   19.4246 H   0  0  0  0  0  0  0  0  0  0  0  0
    6.9748   -3.5606   20.9609 C   0  0  0  0  0  0  0  0  0  0  0  0
    7.1993   -2.6827   20.3663 H   0  0  0  0  0  0  0  0  0  0  0  0
    7.5313   -3.6787   22.2809 C   0  0  0  0  0  0  0  0  0  0  0  0
    5.4619    0.6956   20.1544 C   0  0  0  0  0  0  0  0  0  0  0  0
    5.0315    0.6978   21.1548 H   0  0  0  0  0  0  0  0  0  0  0  0
    4.8513    1.3161   19.0652 C   0  0  0  0  0  0  0  0  0  0  0  0
    3.9126    1.8468   19.1803 H   0  0  0  0  0  0  0  0  0  0  0  0
  1  2  1  0
  2  3  2  0
  3  4  1  0
  4  5  1  0
  4  6  2  0
  6  7  1  0
  7  8  1  0
  8  9  1  0
  9 10  1  0
  9 11  2  0
 11 12  1  0
 12 13  1  0
 12 14  1  0
 14 15  1  0
 15 16  2  0
 16 17  1  0
 16 18  1  0
 18 19  1  0
 18 20  2  0
 20 21  1  0
 20 22  1  0
 22 23  2  0
 23 24  1  0
 23 25  1  0
 25 26  1  0
 25 27  2  0
 27 28  1  0
 27 29  1  0
 29 30  1  0
 29 31  2  0
  6 32  1  0
 32 33  1  0
 32 34  2  0
 34 35  1  0
 34  2  1  0
 14  8  2  0
 31 15  1  0
 31 22  1  0
M  END
>  <cnnaffinity>  (1) 
-5.32227

>  <filename>  (1) 
c1cncc(Oc2cn[nH]c2-c2cccc3ccccc23)c1

$$$$
