
     RDKit          3D

 37 40  0  0  0  0  0  0  0  0999 V2000
    4.9503    1.8101   16.9670 H   0  0  0  0  0  0  0  0  0  0  0  0
    5.3991    1.2961   17.8140 C   0  0  0  0  0  0  0  0  0  0  0  0
    6.5550    0.6615   17.5701 N   0  0  0  0  0  0  0  0  0  0  0  0
    7.1519    0.0339   18.5875 C   0  0  0  0  0  0  0  0  0  0  0  0
    8.0996   -0.4468   18.3587 H   0  0  0  0  0  0  0  0  0  0  0  0
    6.6336    0.0162   19.8923 C   0  0  0  0  0  0  0  0  0  0  0  0
    7.3630   -0.6388   20.9748 C   0  0  0  0  0  0  0  0  0  0  0  0
    8.0255   -1.8321   20.7570 N   0  0  0  0  0  0  0  0  0  0  0  0
    8.3963   -2.2023   21.9473 C   0  0  0  0  0  0  0  0  0  0  0  0
    9.1687   -3.5979   22.6271 S   0  0  0  0  0  0  0  0  0  0  0  0
    9.1474   -2.8706   24.2191 C   0  0  0  0  0  0  0  0  0  0  0  0
    9.6293   -3.4034   25.0282 H   0  0  0  0  0  0  0  0  0  0  0  0
    8.5170   -1.6840   24.2289 C   0  0  0  0  0  0  0  0  0  0  0  0
    8.2887   -1.0407   25.0774 H   0  0  0  0  0  0  0  0  0  0  0  0
    8.0869   -1.3153   22.9511 N   0  0  0  0  0  0  0  0  0  0  0  0
    7.4240   -0.2806   22.3205 C   0  0  0  0  0  0  0  0  0  0  0  0
    6.9820    0.7647   23.0289 O   0  0  0  0  0  0  0  0  0  0  0  0
    7.3590    2.0866   22.5513 C   0  0  0  0  0  0  0  0  0  0  0  0
    7.2312    2.1139   21.4632 H   0  0  0  0  0  0  0  0  0  0  0  0
    8.8249    2.3467   22.9025 C   0  0  0  0  0  0  0  0  0  0  0  0
    9.1196    3.2961   22.4332 H   0  0  0  0  0  0  0  0  0  0  0  0
    9.4511    1.5597   22.4655 H   0  0  0  0  0  0  0  0  0  0  0  0
    9.0041    2.4534   24.4273 C   0  0  0  0  0  0  0  0  0  0  0  0
   10.0310    2.7364   24.6888 H   0  0  0  0  0  0  0  0  0  0  0  0
    8.8129    1.4818   24.9020 H   0  0  0  0  0  0  0  0  0  0  0  0
    8.0976    3.4366   25.0256 N   0  0  0  0  0  0  0  0  0  0  0  0
    8.3135    4.3473   24.6205 H   0  0  0  0  0  0  0  0  0  0  0  0
    6.6909    3.1449   24.7367 C   0  0  0  0  0  0  0  0  0  0  0  0
    6.4288    2.1918   25.2175 H   0  0  0  0  0  0  0  0  0  0  0  0
    6.0783    3.9204   25.2133 H   0  0  0  0  0  0  0  0  0  0  0  0
    6.4143    3.0727   23.2284 C   0  0  0  0  0  0  0  0  0  0  0  0
    6.5713    4.0635   22.7809 H   0  0  0  0  0  0  0  0  0  0  0  0
    5.3800    2.7771   23.0246 H   0  0  0  0  0  0  0  0  0  0  0  0
    5.4092    0.6644   20.1297 C   0  0  0  0  0  0  0  0  0  0  0  0
    4.9781    0.6667   21.1354 H   0  0  0  0  0  0  0  0  0  0  0  0
    4.7834    1.3163   19.0709 C   0  0  0  0  0  0  0  0  0  0  0  0
    3.8555    1.8554   19.2128 H   0  0  0  0  0  0  0  0  0  0  0  0
  1  2  1  0
  2  3  2  0
  3  4  1  0
  4  5  1  0
  4  6  2  0
  6  7  1  0
  7  8  1  0
  8  9  2  0
  9 10  1  0
 10 11  1  0
 11 12  1  0
 11 13  2  0
 13 14  1  0
 13 15  1  0
 15 16  1  0
 16 17  1  0
 17 18  1  0
 18 19  1  0
 18 20  1  0
 20 21  1  0
 20 22  1  0
 20 23  1  0
 23 24  1  0
 23 25  1  0
 23 26  1  0
 26 27  1  0
 26 28  1  0
 28 29  1  0
 28 30  1  0
 28 31  1  0
 31 32  1  0
 31 33  1  0
  6 34  1  0
 34 35  1  0
 34 36  2  0
 36 37  1  0
 36  2  1  0
 16  7  2  0
 31 18  1  0
 15  9  1  0
M  END
>  <cnnaffinity>  (1) 
-5.36504

>  <filename>  (1) 
c1cncc(-c2nc3sccn3c2OC2CCNCC2)c1

$$$$
