
     RDKit          3D

 34 37  0  0  0  0  0  0  0  0999 V2000
    4.9890    1.8433   16.9257 H   0  0  0  0  0  0  0  0  0  0  0  0
    5.3875    1.3075   17.7848 C   0  0  0  0  0  0  0  0  0  0  0  0
    6.5423    0.6493   17.5930 N   0  0  0  0  0  0  0  0  0  0  0  0
    7.0733    0.0258   18.6545 C   0  0  0  0  0  0  0  0  0  0  0  0
    8.0148   -0.4898   18.4642 H   0  0  0  0  0  0  0  0  0  0  0  0
    6.4915   -0.0090   19.9422 C   0  0  0  0  0  0  0  0  0  0  0  0
    7.2418   -0.6267   21.0567 C   0  0  0  0  0  0  0  0  0  0  0  0
    8.5972   -0.5765   21.2895 C   0  0  0  0  0  0  0  0  0  0  0  0
    8.8113   -1.1753   22.5233 C   0  0  0  0  0  0  0  0  0  0  0  0
    7.6968   -1.6293   23.0654 N   0  0  0  0  0  0  0  0  0  0  0  0
    6.7439   -1.2750   22.1613 N   0  0  0  0  0  0  0  0  0  0  0  0
    5.7848   -1.5099   22.3758 H   0  0  0  0  0  0  0  0  0  0  0  0
   10.2415   -1.1160   22.9557 C   0  0  0  0  0  0  0  0  0  0  0  0
   10.3679   -0.6370   23.9333 H   0  0  0  0  0  0  0  0  0  0  0  0
   10.6546   -2.1237   23.0409 H   0  0  0  0  0  0  0  0  0  0  0  0
   10.9344   -0.2926   21.8135 C   0  0  2  0  0  0  0  0  0  0  0  0
   11.7435   -0.9003   21.4049 H   0  0  0  0  0  0  0  0  0  0  0  0
   11.5244    1.0080   22.3107 C   0  0  0  0  0  0  0  0  0  0  0  0
   12.8917    1.2953   22.2903 C   0  0  0  0  0  0  0  0  0  0  0  0
   13.6113    0.5804   21.9209 H   0  0  0  0  0  0  0  0  0  0  0  0
   13.3429    2.5329   22.7534 C   0  0  0  0  0  0  0  0  0  0  0  0
   14.4029    2.7713   22.7052 H   0  0  0  0  0  0  0  0  0  0  0  0
   12.5452    3.4792   23.2578 N   0  0  0  0  0  0  0  0  0  0  0  0
   11.2380    3.1966   23.2902 C   0  0  0  0  0  0  0  0  0  0  0  0
   10.5859    3.9597   23.7058 H   0  0  0  0  0  0  0  0  0  0  0  0
   10.6908    1.9987   22.8344 C   0  0  0  0  0  0  0  0  0  0  0  0
    9.6246    1.8449   22.8887 H   0  0  0  0  0  0  0  0  0  0  0  0
    9.8604   -0.0699   20.6945 C   0  0  0  0  0  0  0  0  0  0  0  0
   10.1256   -0.6423   19.8045 H   0  0  0  0  0  0  0  0  0  0  0  0
    9.7789    0.9775   20.3777 H   0  0  0  0  0  0  0  0  0  0  0  0
    5.2650    0.6649   20.1070 C   0  0  0  0  0  0  0  0  0  0  0  0
    4.7733    0.7080   21.0812 H   0  0  0  0  0  0  0  0  0  0  0  0
    4.7181    1.3366   19.0131 C   0  0  0  0  0  0  0  0  0  0  0  0
    3.8026    1.9107   19.1027 H   0  0  0  0  0  0  0  0  0  0  0  0
  1  2  1  0
  2  3  2  0
  3  4  1  0
  4  5  1  0
  4  6  2  0
  6  7  1  0
  7  8  2  0
  8  9  1  0
  9 10  2  0
 10 11  1  0
 11 12  1  0
  9 13  1  0
 13 14  1  0
 13 15  1  0
 13 16  1  0
 16 17  1  6
 16 18  1  0
 18 19  2  0
 19 20  1  0
 19 21  1  0
 21 22  1  0
 21 23  2  0
 23 24  1  0
 24 25  1  0
 24 26  2  0
 26 27  1  0
 16 28  1  0
 28 29  1  0
 28 30  1  0
  6 31  1  0
 31 32  1  0
 31 33  2  0
 33 34  1  0
 33  2  1  0
 11  7  1  0
 26 18  1  0
 28  8  1  0
M  END
>  <cnnaffinity>  (1) 
-5.4531

>  <filename>  (1) 
c1cncc(-c2[nH]nc3c2C[C@@H](c2ccncc2)C3)c1

$$$$
