
     RDKit          3D

 40 42  0  0  0  0  0  0  0  0999 V2000
    4.9252    1.8097   16.9748 H   0  0  0  0  0  0  0  0  0  0  0  0
    5.3837    1.3045   17.8245 C   0  0  0  0  0  0  0  0  0  0  0  0
    6.5449    0.6852   17.5699 N   0  0  0  0  0  0  0  0  0  0  0  0
    7.1474    0.0664   18.5910 C   0  0  0  0  0  0  0  0  0  0  0  0
    8.1005   -0.4059   18.3480 H   0  0  0  0  0  0  0  0  0  0  0  0
    6.6395    0.0021   19.9002 C   0  0  0  0  0  0  0  0  0  0  0  0
    7.4257   -0.6999   20.9948 C   0  0  0  0  0  0  0  0  0  0  0  0
    6.8358   -0.7618   21.9142 H   0  0  0  0  0  0  0  0  0  0  0  0
    7.6717   -1.7320   20.7167 H   0  0  0  0  0  0  0  0  0  0  0  0
    8.6887   -0.0417   21.3229 N   0  0  0  0  0  0  0  0  0  0  0  0
    9.9098   -0.3768   20.8226 C   0  0  0  0  0  0  0  0  0  0  0  0
   10.0108   -1.2292   20.1641 H   0  0  0  0  0  0  0  0  0  0  0  0
   10.8539    0.4468   21.1945 N   0  0  0  0  0  0  0  0  0  0  0  0
   10.2179    1.3788   21.9645 C   0  0  0  0  0  0  0  0  0  0  0  0
   10.7762    2.1731   22.4558 H   0  0  0  0  0  0  0  0  0  0  0  0
    8.8737    1.1146   22.0567 C   0  0  0  0  0  0  0  0  0  0  0  0
    7.8013    1.7812   22.8460 C   0  0  0  0  0  0  0  0  0  0  0  0
    6.8650    1.8410   22.2713 H   0  0  0  0  0  0  0  0  0  0  0  0
    8.1039    2.8202   23.0230 H   0  0  0  0  0  0  0  0  0  0  0  0
    7.5404    1.1042   24.2109 C   0  0  0  0  0  0  0  0  0  0  0  0
    7.3600    0.0287   24.0348 H   0  0  0  0  0  0  0  0  0  0  0  0
    8.7621    1.2038   25.1483 C   0  0  0  0  0  0  0  0  0  0  0  0
    9.0239    2.2673   25.2850 H   0  0  0  0  0  0  0  0  0  0  0  0
    9.6421    0.7406   24.6797 H   0  0  0  0  0  0  0  0  0  0  0  0
    8.4821    0.5537   26.5112 C   0  0  0  0  0  0  0  0  0  0  0  0
    8.3332   -0.5291   26.3779 H   0  0  0  0  0  0  0  0  0  0  0  0
    9.3671    0.6323   27.1447 H   0  0  0  0  0  0  0  0  0  0  0  0
    7.2387    1.1663   27.1857 C   0  0  0  0  0  0  0  0  0  0  0  0
    7.4280    2.2274   27.4133 H   0  0  0  0  0  0  0  0  0  0  0  0
    7.0437    0.6817   28.1519 H   0  0  0  0  0  0  0  0  0  0  0  0
    6.0093    1.0590   26.2603 C   0  0  0  0  0  0  0  0  0  0  0  0
    5.7651   -0.0055   26.1172 H   0  0  0  0  0  0  0  0  0  0  0  0
    5.1240    1.5164   26.7234 H   0  0  0  0  0  0  0  0  0  0  0  0
    6.2869    1.6937   24.8845 C   0  0  0  0  0  0  0  0  0  0  0  0
    6.4291    2.7821   24.9953 H   0  0  0  0  0  0  0  0  0  0  0  0
    5.4228    1.5589   24.2178 H   0  0  0  0  0  0  0  0  0  0  0  0
    5.4193    0.6466   20.1410 C   0  0  0  0  0  0  0  0  0  0  0  0
    4.9863    0.6482   21.1451 H   0  0  0  0  0  0  0  0  0  0  0  0
    4.7851    1.3123   19.0865 C   0  0  0  0  0  0  0  0  0  0  0  0
    3.8600    1.8543   19.2294 H   0  0  0  0  0  0  0  0  0  0  0  0
  1  2  1  0
  2  3  2  0
  3  4  1  0
  4  5  1  0
  4  6  2  0
  6  7  1  0
  7  8  1  0
  7  9  1  0
  7 10  1  0
 10 11  1  0
 11 12  1  0
 11 13  2  0
 13 14  1  0
 14 15  1  0
 14 16  2  0
 16 17  1  0
 17 18  1  0
 17 19  1  0
 17 20  1  0
 20 21  1  0
 20 22  1  0
 22 23  1  0
 22 24  1  0
 22 25  1  0
 25 26  1  0
 25 27  1  0
 25 28  1  0
 28 29  1  0
 28 30  1  0
 28 31  1  0
 31 32  1  0
 31 33  1  0
 31 34  1  0
 34 35  1  0
 34 36  1  0
  6 37  1  0
 37 38  1  0
 37 39  2  0
 39 40  1  0
 39  2  1  0
 16 10  1  0
 34 20  1  0
M  END
>  <cnnaffinity>  (1) 
-4.94864

>  <filename>  (1) 
c1cncc(Cn2cncc2CC2CCCCC2)c1

$$$$
