
     RDKit          3D

 32 36  0  0  0  0  0  0  0  0999 V2000
    4.9230    1.7814   16.9968 H   0  0  0  0  0  0  0  0  0  0  0  0
    5.4036    1.2905   17.8386 C   0  0  0  0  0  0  0  0  0  0  0  0
    6.5674    0.6754   17.5737 N   0  0  0  0  0  0  0  0  0  0  0  0
    7.1707    0.0538   18.5881 C   0  0  0  0  0  0  0  0  0  0  0  0
    8.1193   -0.4327   18.3683 H   0  0  0  0  0  0  0  0  0  0  0  0
    6.6453    0.0121   19.8931 C   0  0  0  0  0  0  0  0  0  0  0  0
    7.4055   -0.6956   20.9202 C   0  0  0  0  0  0  0  0  0  0  0  0
    8.3278   -1.6003   20.6997 N   0  0  0  0  0  0  0  0  0  0  0  0
    8.8323   -2.0395   21.9033 N   0  0  0  0  0  0  0  0  0  0  0  0
    8.2075   -1.3566   22.8227 C   0  0  0  0  0  0  0  0  0  0  0  0
    8.2609   -1.1043   24.5378 S   0  0  0  0  0  0  0  0  0  0  0  0
    7.0342    0.1685   24.3260 C   0  0  0  0  0  0  0  0  0  0  0  0
    6.5358    0.9628   25.4685 C   0  0  0  0  0  0  0  0  0  0  0  0
    5.5449    1.9810   25.2316 C   0  0  0  0  0  0  0  0  0  0  0  0
    5.1927    2.1389   24.2138 H   0  0  0  0  0  0  0  0  0  0  0  0
    5.0413    2.7549   26.2605 C   0  0  0  0  0  0  0  0  0  0  0  0
    4.2938    3.5269   26.0939 H   0  0  0  0  0  0  0  0  0  0  0  0
    5.5447    2.5020   27.5571 C   0  0  0  0  0  0  0  0  0  0  0  0
    6.5137    1.5126   27.8132 C   0  0  0  0  0  0  0  0  0  0  0  0
    6.7339    1.5906   29.2181 C   0  0  0  0  0  0  0  0  0  0  0  0
    7.4127    0.9870   29.8034 H   0  0  0  0  0  0  0  0  0  0  0  0
    5.9894    2.5231   29.7741 N   0  0  0  0  0  0  0  0  0  0  0  0
    5.2755    3.0643   28.7606 N   0  0  0  0  0  0  0  0  0  0  0  0
    4.6214    3.8056   28.9331 H   0  0  0  0  0  0  0  0  0  0  0  0
    7.0183    0.7317   26.7581 C   0  0  0  0  0  0  0  0  0  0  0  0
    7.7693   -0.0289   26.9699 H   0  0  0  0  0  0  0  0  0  0  0  0
    6.6263    0.3454   23.1062 N   0  0  0  0  0  0  0  0  0  0  0  0
    7.2807   -0.5143   22.2824 N   0  0  0  0  0  0  0  0  0  0  0  0
    5.4284    0.6526   20.1622 C   0  0  0  0  0  0  0  0  0  0  0  0
    5.0089    0.6393   21.1702 H   0  0  0  0  0  0  0  0  0  0  0  0
    4.8047    1.3068   19.1045 C   0  0  0  0  0  0  0  0  0  0  0  0
    3.8748    1.8425   19.2550 H   0  0  0  0  0  0  0  0  0  0  0  0
  1  2  1  0
  2  3  2  0
  3  4  1  0
  4  5  1  0
  4  6  2  0
  6  7  1  0
  7  8  2  0
  8  9  1  0
  9 10  2  0
 10 11  1  0
 11 12  1  0
 12 13  1  0
 13 14  2  0
 14 15  1  0
 14 16  1  0
 16 17  1  0
 16 18  2  0
 18 19  1  0
 19 20  1  0
 20 21  1  0
 20 22  2  0
 22 23  1  0
 23 24  1  0
 19 25  2  0
 25 26  1  0
 12 27  2  0
 27 28  1  0
  6 29  1  0
 29 30  1  0
 29 31  2  0
 31 32  1  0
 31  2  1  0
 28  7  1  0
 28 10  1  0
 25 13  1  0
 23 18  1  0
M  END
>  <cnnaffinity>  (1) 
-5.51329

>  <filename>  (1) 
c1cncc(-c2nnc3sc(-c4ccc5[nH]ncc5c4)nn23)c1

$$$$
