
     RDKit          3D

 24 26  0  0  0  0  0  0  0  0999 V2000
    4.9143    1.7836   17.0010 H   0  0  0  0  0  0  0  0  0  0  0  0
    5.3991    1.2904   17.8431 C   0  0  0  0  0  0  0  0  0  0  0  0
    6.5553    0.6677   17.5758 N   0  0  0  0  0  0  0  0  0  0  0  0
    7.1910    0.0587   18.5843 C   0  0  0  0  0  0  0  0  0  0  0  0
    8.1377   -0.4216   18.3546 H   0  0  0  0  0  0  0  0  0  0  0  0
    6.6972    0.0242   19.9046 C   0  0  0  0  0  0  0  0  0  0  0  0
    7.2993   -0.6795   20.9589 O   0  0  0  0  0  0  0  0  0  0  0  0
    8.6268   -0.7824   21.0869 C   0  0  0  0  0  0  0  0  0  0  0  0
    9.5495   -0.1006   20.4609 N   0  0  0  0  0  0  0  0  0  0  0  0
   10.7311   -0.5433   20.9585 N   0  0  0  0  0  0  0  0  0  0  0  0
   10.5701   -1.4552   21.8303 N   0  0  0  0  0  0  0  0  0  0  0  0
    9.2126   -1.6430   21.9456 N   0  0  0  0  0  0  0  0  0  0  0  0
    8.6155   -2.5618   22.8009 C   0  0  0  0  0  0  0  0  0  0  0  0
    7.3310   -2.7454   22.9010 N   0  0  0  0  0  0  0  0  0  0  0  0
    7.1940   -3.7173   23.8532 C   0  0  0  0  0  0  0  0  0  0  0  0
    6.2212   -4.0735   24.1511 H   0  0  0  0  0  0  0  0  0  0  0  0
    8.4039   -4.1319   24.3239 C   0  0  0  0  0  0  0  0  0  0  0  0
    8.6580   -4.8759   25.0710 H   0  0  0  0  0  0  0  0  0  0  0  0
    9.3233   -3.3753   23.6312 N   0  0  0  0  0  0  0  0  0  0  0  0
   10.3279   -3.3845   23.7001 H   0  0  0  0  0  0  0  0  0  0  0  0
    5.4701    0.6405   20.1740 C   0  0  0  0  0  0  0  0  0  0  0  0
    5.0409    0.6065   21.1767 H   0  0  0  0  0  0  0  0  0  0  0  0
    4.8241    1.2983   19.1182 C   0  0  0  0  0  0  0  0  0  0  0  0
    3.8910    1.8276   19.2698 H   0  0  0  0  0  0  0  0  0  0  0  0
  1  2  1  0
  2  3  2  0
  3  4  1  0
  4  5  1  0
  4  6  2  0
  6  7  1  0
  7  8  1  0
  8  9  2  0
  9 10  1  0
 10 11  2  0
 11 12  1  0
 12 13  1  0
 13 14  2  0
 14 15  1  0
 15 16  1  0
 15 17  2  0
 17 18  1  0
 17 19  1  0
 19 20  1  0
  6 21  1  0
 21 22  1  0
 21 23  2  0
 23 24  1  0
 23  2  1  0
 12  8  1  0
 19 13  1  0
M  END
>  <cnnaffinity>  (1) 
-4.8562

>  <filename>  (1) 
c1cncc(Oc2nnnn2-c2ncc[nH]2)c1

$$$$
