
     RDKit          3D

 33 36  0  0  0  0  0  0  0  0999 V2000
    4.9108    1.7862   16.9902 H   0  0  0  0  0  0  0  0  0  0  0  0
    5.3948    1.2995   17.8302 C   0  0  0  0  0  0  0  0  0  0  0  0
    6.5570    0.6827   17.5584 N   0  0  0  0  0  0  0  0  0  0  0  0
    7.1650    0.0739   18.5803 C   0  0  0  0  0  0  0  0  0  0  0  0
    8.1091   -0.4251   18.3651 H   0  0  0  0  0  0  0  0  0  0  0  0
    6.6535    0.0163   19.8890 C   0  0  0  0  0  0  0  0  0  0  0  0
    7.3648   -0.7034   20.9660 C   0  0  0  0  0  0  0  0  0  0  0  0
    8.7551   -0.5896   21.1570 C   0  0  0  0  0  0  0  0  0  0  0  0
    9.3486    0.0507   20.5122 H   0  0  0  0  0  0  0  0  0  0  0  0
    9.4078   -1.2189   22.1373 N   0  0  0  0  0  0  0  0  0  0  0  0
    8.7351   -1.9967   22.9955 N   0  0  0  0  0  0  0  0  0  0  0  0
    7.4019   -2.1774   22.8683 C   0  0  0  0  0  0  0  0  0  0  0  0
    6.7272   -3.0660   23.8630 C   0  0  0  0  0  0  0  0  0  0  0  0
    7.0264   -2.9830   25.2285 C   0  0  0  0  0  0  0  0  0  0  0  0
    7.7850   -2.2727   25.5551 H   0  0  0  0  0  0  0  0  0  0  0  0
    6.3611   -3.8005   26.1740 C   0  0  0  0  0  0  0  0  0  0  0  0
    6.6264   -3.7123   27.2268 H   0  0  0  0  0  0  0  0  0  0  0  0
    5.3942   -4.7251   25.7862 C   0  0  0  0  0  0  0  0  0  0  0  0
    4.8865   -5.3708   26.5059 H   0  0  0  0  0  0  0  0  0  0  0  0
    5.1044   -4.8108   24.4151 C   0  0  0  0  0  0  0  0  0  0  0  0
    5.7452   -4.0017   23.4412 C   0  0  0  0  0  0  0  0  0  0  0  0
    5.2119   -4.4171   22.1681 C   0  0  0  0  0  0  0  0  0  0  0  0
    5.5396   -4.0227   21.2195 H   0  0  0  0  0  0  0  0  0  0  0  0
    4.3057   -5.4160   22.3933 C   0  0  0  0  0  0  0  0  0  0  0  0
    3.7109   -5.9952   21.6932 H   0  0  0  0  0  0  0  0  0  0  0  0
    4.2364   -5.6446   23.7533 N   0  0  0  0  0  0  0  0  0  0  0  0
    3.6694   -6.3306   24.2198 H   0  0  0  0  0  0  0  0  0  0  0  0
    6.6826   -1.5218   21.8552 C   0  0  0  0  0  0  0  0  0  0  0  0
    5.6089   -1.6601   21.7675 H   0  0  0  0  0  0  0  0  0  0  0  0
    5.4317    0.6534   20.1463 C   0  0  0  0  0  0  0  0  0  0  0  0
    5.0183    0.6335   21.1599 H   0  0  0  0  0  0  0  0  0  0  0  0
    4.8004    1.3198   19.0984 C   0  0  0  0  0  0  0  0  0  0  0  0
    3.8684    1.8482   19.2557 H   0  0  0  0  0  0  0  0  0  0  0  0
  1  2  1  0
  2  3  2  0
  3  4  1  0
  4  5  1  0
  4  6  2  0
  6  7  1  0
  7  8  2  0
  8  9  1  0
  8 10  1  0
 10 11  2  0
 11 12  1  0
 12 13  1  0
 13 14  2  0
 14 15  1  0
 14 16  1  0
 16 17  1  0
 16 18  2  0
 18 19  1  0
 18 20  1  0
 20 21  2  0
 21 22  1  0
 22 23  1  0
 22 24  2  0
 24 25  1  0
 24 26  1  0
 26 27  1  0
 12 28  2  0
 28 29  1  0
  6 30  1  0
 30 31  1  0
 30 32  2  0
 32 33  1  0
 32  2  1  0
 28  7  1  0
 21 13  1  0
 26 20  1  0
M  END
>  <cnnaffinity>  (1) 
-5.27371

>  <filename>  (1) 
c1cncc(-c2cnnc(-c3cccc4[nH]ccc34)c2)c1

$$$$
