
     RDKit          3D

 41 44  0  0  0  0  0  0  0  0999 V2000
    5.0788    1.7337   17.0568 H   0  0  0  0  0  0  0  0  0  0  0  0
    5.5235    1.2077   17.9009 C   0  0  0  0  0  0  0  0  0  0  0  0
    6.6895    0.5967   17.6653 N   0  0  0  0  0  0  0  0  0  0  0  0
    7.2681   -0.0361   18.6967 C   0  0  0  0  0  0  0  0  0  0  0  0
    8.2114   -0.5115   18.4466 H   0  0  0  0  0  0  0  0  0  0  0  0
    6.7572   -0.1001   20.0089 C   0  0  0  0  0  0  0  0  0  0  0  0
    7.5151   -0.7823   21.1893 C   0  0  0  0  0  0  0  0  0  0  0  0
    6.6887   -2.0254   21.6481 C   0  0  0  0  0  0  0  0  0  0  0  0
    6.3498   -3.0249   20.6793 C   0  0  0  0  0  0  0  0  0  0  0  0
    6.6615   -2.8866   19.6510 H   0  0  0  0  0  0  0  0  0  0  0  0
    5.5260   -4.1065   20.9746 C   0  0  0  0  0  0  0  0  0  0  0  0
    5.3462   -4.8811   20.2310 H   0  0  0  0  0  0  0  0  0  0  0  0
    4.9105   -4.1693   22.2472 C   0  0  0  0  0  0  0  0  0  0  0  0
    3.8653   -4.9695   22.8444 C   0  0  0  0  0  0  0  0  0  0  0  0
    3.3008   -5.7680   22.3774 H   0  0  0  0  0  0  0  0  0  0  0  0
    3.6382   -4.4634   24.0899 C   0  0  0  0  0  0  0  0  0  0  0  0
    2.8889   -4.7381   24.8273 H   0  0  0  0  0  0  0  0  0  0  0  0
    4.4960   -3.4091   24.3231 N   0  0  0  0  0  0  0  0  0  0  0  0
    4.5227   -2.8516   25.1589 H   0  0  0  0  0  0  0  0  0  0  0  0
    5.2794   -3.2038   23.2136 C   0  0  0  0  0  0  0  0  0  0  0  0
    6.2166   -2.1849   22.9508 C   0  0  0  0  0  0  0  0  0  0  0  0
    6.4716   -1.4994   23.7509 H   0  0  0  0  0  0  0  0  0  0  0  0
    8.9551   -1.1835   20.7433 C   0  0  0  0  0  0  0  0  0  0  0  0
    8.9215   -1.8281   19.8654 H   0  0  0  0  0  0  0  0  0  0  0  0
    9.4664   -0.2597   20.4273 H   0  0  0  0  0  0  0  0  0  0  0  0
    9.7672   -1.8299   21.8621 C   0  0  0  0  0  0  0  0  0  0  0  0
    9.2261   -2.7143   22.2353 H   0  0  0  0  0  0  0  0  0  0  0  0
   10.7222   -2.1940   21.4641 H   0  0  0  0  0  0  0  0  0  0  0  0
   10.0232   -0.7969   22.9696 C   0  0  0  0  0  0  0  0  0  0  0  0
   10.7290   -0.0477   22.5793 H   0  0  0  0  0  0  0  0  0  0  0  0
   10.5267   -1.2704   23.8228 H   0  0  0  0  0  0  0  0  0  0  0  0
    8.7361   -0.0941   23.4503 C   0  0  0  0  0  0  0  0  0  0  0  0
    9.0067    0.8228   23.9890 H   0  0  0  0  0  0  0  0  0  0  0  0
    8.2532   -0.7269   24.2018 H   0  0  0  0  0  0  0  0  0  0  0  0
    7.7309    0.2791   22.3289 C   0  0  0  0  0  0  0  0  0  0  0  0
    6.7609    0.5376   22.7703 H   0  0  0  0  0  0  0  0  0  0  0  0
    8.0793    1.1974   21.8358 H   0  0  0  0  0  0  0  0  0  0  0  0
    5.4982    0.4960   20.2056 C   0  0  0  0  0  0  0  0  0  0  0  0
    4.9934    0.4378   21.1731 H   0  0  0  0  0  0  0  0  0  0  0  0
    4.8831    1.1732   19.1444 C   0  0  0  0  0  0  0  0  0  0  0  0
    3.9350    1.6877   19.2655 H   0  0  0  0  0  0  0  0  0  0  0  0
  1  2  1  0
  2  3  2  0
  3  4  1  0
  4  5  1  0
  4  6  2  0
  6  7  1  0
  7  8  1  0
  8  9  2  0
  9 10  1  0
  9 11  1  0
 11 12  1  0
 11 13  2  0
 13 14  1  0
 14 15  1  0
 14 16  2  0
 16 17  1  0
 16 18  1  0
 18 19  1  0
 18 20  1  0
 20 21  2  0
 21 22  1  0
  7 23  1  0
 23 24  1  0
 23 25  1  0
 23 26  1  0
 26 27  1  0
 26 28  1  0
 26 29  1  0
 29 30  1  0
 29 31  1  0
 29 32  1  0
 32 33  1  0
 32 34  1  0
 32 35  1  0
 35 36  1  0
 35 37  1  0
  6 38  1  0
 38 39  1  0
 38 40  2  0
 40 41  1  0
 40  2  1  0
 35  7  1  0
 21  8  1  0
 20 13  1  0
M  END
>  <cnnaffinity>  (1) 
-5.56455

>  <filename>  (1) 
c1cncc(C2(c3ccc4cc[nH]c4c3)CCCCC2)c1

$$$$
