
     RDKit          3D

 35 38  0  0  0  0  0  0  0  0999 V2000
    4.9263    1.8090   16.9758 H   0  0  0  0  0  0  0  0  0  0  0  0
    5.3995    1.3095   17.8193 C   0  0  0  0  0  0  0  0  0  0  0  0
    6.5643    0.6915   17.5660 N   0  0  0  0  0  0  0  0  0  0  0  0
    7.1720    0.0818   18.5951 C   0  0  0  0  0  0  0  0  0  0  0  0
    8.1179   -0.4047   18.3553 H   0  0  0  0  0  0  0  0  0  0  0  0
    6.6675    0.0254   19.9077 C   0  0  0  0  0  0  0  0  0  0  0  0
    7.3556   -0.8023   20.9907 C   0  0  0  0  0  0  0  0  0  0  0  0
    6.8985   -2.2731   21.0225 C   0  0  0  0  0  0  0  0  0  0  0  0
    5.9789   -2.8024   20.0686 C   0  0  0  0  0  0  0  0  0  0  0  0
    5.5177   -2.1248   19.3598 H   0  0  0  0  0  0  0  0  0  0  0  0
    5.6477   -4.1470   20.0282 C   0  0  0  0  0  0  0  0  0  0  0  0
    5.0420   -4.5367   19.2148 H   0  0  0  0  0  0  0  0  0  0  0  0
    6.1237   -4.9929   21.0445 C   0  0  0  0  0  0  0  0  0  0  0  0
    5.9017   -6.3694   21.3812 C   0  0  0  0  0  0  0  0  0  0  0  0
    5.1999   -7.0496   20.9177 H   0  0  0  0  0  0  0  0  0  0  0  0
    6.7095   -6.6474   22.4397 C   0  0  0  0  0  0  0  0  0  0  0  0
    6.8661   -7.6006   22.9121 H   0  0  0  0  0  0  0  0  0  0  0  0
    7.4035   -5.5160   22.8190 N   0  0  0  0  0  0  0  0  0  0  0  0
    8.0775   -5.4569   23.5661 H   0  0  0  0  0  0  0  0  0  0  0  0
    7.0455   -4.4796   21.9923 C   0  0  0  0  0  0  0  0  0  0  0  0
    7.4431   -3.1362   21.9791 C   0  0  0  0  0  0  0  0  0  0  0  0
    8.1903   -2.7848   22.6829 H   0  0  0  0  0  0  0  0  0  0  0  0
    8.9191   -0.6405   20.9886 C   0  0  0  0  0  0  0  0  0  0  0  0
    9.4769   -1.5759   20.8661 H   0  0  0  0  0  0  0  0  0  0  0  0
    9.2837    0.0539   20.2256 H   0  0  0  0  0  0  0  0  0  0  0  0
    8.8834   -0.0350   22.4136 C   0  0  0  0  0  0  0  0  0  0  0  0
    9.3709   -0.6382   23.1887 H   0  0  0  0  0  0  0  0  0  0  0  0
    9.2895    0.9773   22.4894 H   0  0  0  0  0  0  0  0  0  0  0  0
    7.3371   -0.1090   22.4000 C   0  0  0  0  0  0  0  0  0  0  0  0
    6.8628   -0.7002   23.1912 H   0  0  0  0  0  0  0  0  0  0  0  0
    6.8493    0.8712   22.3924 H   0  0  0  0  0  0  0  0  0  0  0  0
    5.4430    0.6764   20.1382 C   0  0  0  0  0  0  0  0  0  0  0  0
    5.0018    0.6627   21.1359 H   0  0  0  0  0  0  0  0  0  0  0  0
    4.7984    1.3272   19.0836 C   0  0  0  0  0  0  0  0  0  0  0  0
    3.8608    1.8573   19.2305 H   0  0  0  0  0  0  0  0  0  0  0  0
  1  2  1  0
  2  3  2  0
  3  4  1  0
  4  5  1  0
  4  6  2  0
  6  7  1  0
  7  8  1  0
  8  9  2  0
  9 10  1  0
  9 11  1  0
 11 12  1  0
 11 13  2  0
 13 14  1  0
 14 15  1  0
 14 16  2  0
 16 17  1  0
 16 18  1  0
 18 19  1  0
 18 20  1  0
 20 21  2  0
 21 22  1  0
  7 23  1  0
 23 24  1  0
 23 25  1  0
 23 26  1  0
 26 27  1  0
 26 28  1  0
 26 29  1  0
 29 30  1  0
 29 31  1  0
  6 32  1  0
 32 33  1  0
 32 34  2  0
 34 35  1  0
 34  2  1  0
 29  7  1  0
 21  8  1  0
 20 13  1  0
M  END
>  <cnnaffinity>  (1) 
-4.65527

>  <filename>  (1) 
c1cncc(C2(c3ccc4cc[nH]c4c3)CCC2)c1

$$$$
