
     RDKit          3D

 36 38  0  0  0  0  0  0  0  0999 V2000
    8.9567   -3.4232   21.7632 H   0  0  0  0  0  0  0  0  0  0  0  0
    8.4987   -2.4456   21.7257 C   0  0  0  0  0  0  0  0  0  0  0  0
    7.8636   -1.9884   20.6963 N   0  0  0  0  0  0  0  0  0  0  0  0
    7.4000   -0.7157   20.9473 C   0  0  0  0  0  0  0  0  0  0  0  0
    6.6547   -0.0041   19.9056 C   0  0  0  0  0  0  0  0  0  0  0  0
    7.1723    0.0468   18.6013 C   0  0  0  0  0  0  0  0  0  0  0  0
    8.1223   -0.4348   18.3795 H   0  0  0  0  0  0  0  0  0  0  0  0
    6.5719    0.6778   17.5884 N   0  0  0  0  0  0  0  0  0  0  0  0
    5.4041    1.2903   17.8469 C   0  0  0  0  0  0  0  0  0  0  0  0
    4.9146    1.7746   17.0041 H   0  0  0  0  0  0  0  0  0  0  0  0
    4.8026    1.3095   19.1097 C   0  0  0  0  0  0  0  0  0  0  0  0
    3.8721    1.8443   19.2648 H   0  0  0  0  0  0  0  0  0  0  0  0
    5.4407    0.6521   20.1577 C   0  0  0  0  0  0  0  0  0  0  0  0
    5.0025    0.6329   21.1585 H   0  0  0  0  0  0  0  0  0  0  0  0
    7.7392   -0.1816   22.1646 C   0  0  0  0  0  0  0  0  0  0  0  0
    7.4608    1.1920   22.7090 C   0  0  0  0  0  0  0  0  0  0  0  0
    7.2468    1.8610   21.8637 H   0  0  0  0  0  0  0  0  0  0  0  0
    8.3690    1.5974   23.1743 H   0  0  0  0  0  0  0  0  0  0  0  0
    6.2995    1.2622   23.7326 C   0  0  0  0  0  0  0  0  0  0  0  0
    5.5053    0.5744   23.4007 H   0  0  0  0  0  0  0  0  0  0  0  0
    6.7324    0.8052   25.1387 C   0  0  0  0  0  0  0  0  0  0  0  0
    7.1131   -0.2211   25.1105 H   0  0  0  0  0  0  0  0  0  0  0  0
    7.5731    1.4352   25.4680 H   0  0  0  0  0  0  0  0  0  0  0  0
    5.5975    0.9115   26.1592 C   0  0  0  0  0  0  0  0  0  0  0  0
    5.9603    0.6249   27.1528 H   0  0  0  0  0  0  0  0  0  0  0  0
    4.8137    0.1899   25.8893 H   0  0  0  0  0  0  0  0  0  0  0  0
    4.9959    2.3194   26.1955 C   0  0  0  0  0  0  0  0  0  0  0  0
    4.1559    2.3539   26.8971 H   0  0  0  0  0  0  0  0  0  0  0  0
    5.7544    3.0208   26.5714 H   0  0  0  0  0  0  0  0  0  0  0  0
    4.5451    2.7744   24.8034 C   0  0  0  0  0  0  0  0  0  0  0  0
    3.7133    2.1380   24.4694 H   0  0  0  0  0  0  0  0  0  0  0  0
    4.1639    3.8008   24.8428 H   0  0  0  0  0  0  0  0  0  0  0  0
    5.6847    2.6731   23.7838 C   0  0  0  0  0  0  0  0  0  0  0  0
    6.4726    3.3948   24.0460 H   0  0  0  0  0  0  0  0  0  0  0  0
    5.3185    2.9593   22.7881 H   0  0  0  0  0  0  0  0  0  0  0  0
    8.6255   -1.3641   23.0625 S   0  0  0  0  0  0  0  0  0  0  0  0
  1  2  1  0
  2  3  2  0
  3  4  1  0
  4  5  1  0
  5  6  2  0
  6  7  1  0
  6  8  1  0
  8  9  2  0
  9 10  1  0
  9 11  1  0
 11 12  1  0
 11 13  2  0
 13 14  1  0
  4 15  2  0
 15 16  1  0
 16 17  1  0
 16 18  1  0
 16 19  1  0
 19 20  1  0
 19 21  1  0
 21 22  1  0
 21 23  1  0
 21 24  1  0
 24 25  1  0
 24 26  1  0
 24 27  1  0
 27 28  1  0
 27 29  1  0
 27 30  1  0
 30 31  1  0
 30 32  1  0
 30 33  1  0
 33 34  1  0
 33 35  1  0
 15 36  1  0
 36  2  1  0
 13  5  1  0
 33 19  1  0
M  END
>  <cnnaffinity>  (1) 
-5.36987

>  <filename>  (1) 
c1cncc(-c2ncsc2CC2CCCCC2)c1

$$$$
