
     RDKit          3D

 36 40  0  0  0  0  0  0  0  0999 V2000
    5.0429    1.3717   17.4315 H   0  0  0  0  0  0  0  0  0  0  0  0
    5.5539    0.7666   18.1817 C   0  0  0  0  0  0  0  0  0  0  0  0
    6.6745    0.1438   17.7868 N   0  0  0  0  0  0  0  0  0  0  0  0
    7.3409   -0.5689   18.7056 C   0  0  0  0  0  0  0  0  0  0  0  0
    8.2240   -1.0909   18.3441 H   0  0  0  0  0  0  0  0  0  0  0  0
    6.9546   -0.6811   20.0604 C   0  0  0  0  0  0  0  0  0  0  0  0
    7.8463   -1.2808   21.0679 C   0  0  0  0  0  0  0  0  0  0  0  0
    9.2033   -1.1626   21.2604 C   0  0  0  0  0  0  0  0  0  0  0  0
    9.8759   -0.6081   20.6153 H   0  0  0  0  0  0  0  0  0  0  0  0
    9.6406   -1.7437   22.4235 N   0  0  0  0  0  0  0  0  0  0  0  0
    8.5370   -2.2078   22.9547 C   0  0  0  0  0  0  0  0  0  0  0  0
    8.0629   -2.9696   24.4448 S   0  0  0  0  0  0  0  0  0  0  0  0
    6.3769   -2.7166   23.9362 C   0  0  0  0  0  0  0  0  0  0  0  0
    5.2144   -2.9193   24.8393 C   0  0  0  0  0  0  0  0  0  0  0  0
    4.6081   -1.8008   25.3984 C   0  0  0  0  0  0  0  0  0  0  0  0
    4.9863   -0.8096   25.1522 H   0  0  0  0  0  0  0  0  0  0  0  0
    3.4719   -1.9279   26.2372 C   0  0  0  0  0  0  0  0  0  0  0  0
    3.0163   -1.0356   26.6598 H   0  0  0  0  0  0  0  0  0  0  0  0
    2.9233   -3.1651   26.4757 C   0  0  0  0  0  0  0  0  0  0  0  0
    2.0381   -3.2718   27.0989 H   0  0  0  0  0  0  0  0  0  0  0  0
    3.4803   -4.3372   25.8868 C   0  0  0  0  0  0  0  0  0  0  0  0
    2.8588   -5.6129   26.0431 C   0  0  0  0  0  0  0  0  0  0  0  0
    1.8879   -5.6585   26.5340 H   0  0  0  0  0  0  0  0  0  0  0  0
    3.4562   -6.7523   25.5596 C   0  0  0  0  0  0  0  0  0  0  0  0
    2.9821   -7.7233   25.7004 H   0  0  0  0  0  0  0  0  0  0  0  0
    4.7020   -6.6657   24.8838 C   0  0  0  0  0  0  0  0  0  0  0  0
    5.1675   -7.5848   24.5382 H   0  0  0  0  0  0  0  0  0  0  0  0
    5.3016   -5.4442   24.6544 C   0  0  0  0  0  0  0  0  0  0  0  0
    6.2401   -5.3808   24.1053 H   0  0  0  0  0  0  0  0  0  0  0  0
    4.6930   -4.2338   25.1207 C   0  0  0  0  0  0  0  0  0  0  0  0
    6.2173   -2.2101   22.7535 N   0  0  0  0  0  0  0  0  0  0  0  0
    7.4266   -1.9649   22.2022 N   0  0  0  0  0  0  0  0  0  0  0  0
    5.7316   -0.0934   20.4219 C   0  0  0  0  0  0  0  0  0  0  0  0
    5.3791   -0.2233   21.4414 H   0  0  0  0  0  0  0  0  0  0  0  0
    5.0261    0.6461   19.4715 C   0  0  0  0  0  0  0  0  0  0  0  0
    4.0956    1.1395   19.7255 H   0  0  0  0  0  0  0  0  0  0  0  0
  1  2  1  0
  2  3  2  0
  3  4  1  0
  4  5  1  0
  4  6  2  0
  6  7  1  0
  7  8  2  0
  8  9  1  0
  8 10  1  0
 10 11  2  0
 11 12  1  0
 12 13  1  0
 13 14  1  0
 14 15  2  0
 15 16  1  0
 15 17  1  0
 17 18  1  0
 17 19  2  0
 19 20  1  0
 19 21  1  0
 21 22  2  0
 22 23  1  0
 22 24  1  0
 24 25  1  0
 24 26  2  0
 26 27  1  0
 26 28  1  0
 28 29  1  0
 28 30  2  0
 13 31  2  0
 31 32  1  0
  6 33  1  0
 33 34  1  0
 33 35  2  0
 35 36  1  0
 35  2  1  0
 32  7  1  0
 32 11  1  0
 30 14  1  0
 30 21  1  0
M  END
>  <cnnaffinity>  (1) 
-5.52796

>  <filename>  (1) 
c1cncc(-c2cnc3sc(-c4cccc5ccccc45)nn23)c1

$$$$
