
     RDKit          3D

 29 31  0  0  0  0  0  0  0  0999 V2000
    4.9208    1.7878   16.9925 H   0  0  0  0  0  0  0  0  0  0  0  0
    5.4006    1.2966   17.8366 C   0  0  0  0  0  0  0  0  0  0  0  0
    6.5592    0.6740   17.5739 N   0  0  0  0  0  0  0  0  0  0  0  0
    7.1698    0.0547   18.5906 C   0  0  0  0  0  0  0  0  0  0  0  0
    8.1117   -0.4369   18.3632 H   0  0  0  0  0  0  0  0  0  0  0  0
    6.6622    0.0112   19.9020 C   0  0  0  0  0  0  0  0  0  0  0  0
    7.3661   -0.6515   20.9557 N   0  0  0  0  0  0  0  0  0  0  0  0
    6.7444   -1.5464   21.7544 N   0  0  0  0  0  0  0  0  0  0  0  0
    7.6105   -1.9526   22.6061 N   0  0  0  0  0  0  0  0  0  0  0  0
    8.8039   -1.3481   22.4190 N   0  0  0  0  0  0  0  0  0  0  0  0
    8.6434   -0.5263   21.4095 C   0  0  0  0  0  0  0  0  0  0  0  0
    9.6007    0.4947   20.8999 C   0  0  0  0  0  0  0  0  0  0  0  0
    9.6719    0.3784   19.8162 H   0  0  0  0  0  0  0  0  0  0  0  0
   10.5758    0.2716   21.3390 H   0  0  0  0  0  0  0  0  0  0  0  0
    9.1792    1.9511   21.2290 C   0  0  0  0  0  0  0  0  0  0  0  0
    9.9357    2.6424   20.8435 H   0  0  0  0  0  0  0  0  0  0  0  0
    8.2449    2.1751   20.6970 H   0  0  0  0  0  0  0  0  0  0  0  0
    8.9712    2.1746   22.7016 C   0  0  0  0  0  0  0  0  0  0  0  0
   10.2949    2.4518   23.7811 S   0  0  0  0  0  0  0  0  0  0  0  0
    9.2533    2.4307   25.1485 C   0  0  0  0  0  0  0  0  0  0  0  0
    9.6662    2.5877   26.1325 H   0  0  0  0  0  0  0  0  0  0  0  0
    7.9524    2.2127   24.8066 C   0  0  0  0  0  0  0  0  0  0  0  0
    7.1354    2.1655   25.5206 H   0  0  0  0  0  0  0  0  0  0  0  0
    7.7985    2.0628   23.3949 C   0  0  0  0  0  0  0  0  0  0  0  0
    6.8612    1.8359   22.8996 H   0  0  0  0  0  0  0  0  0  0  0  0
    5.4442    0.6450   20.1674 C   0  0  0  0  0  0  0  0  0  0  0  0
    5.0211    0.6045   21.1760 H   0  0  0  0  0  0  0  0  0  0  0  0
    4.8144    1.3093   19.1094 C   0  0  0  0  0  0  0  0  0  0  0  0
    3.8817    1.8382   19.2608 H   0  0  0  0  0  0  0  0  0  0  0  0
  1  2  1  0
  2  3  2  0
  3  4  1  0
  4  5  1  0
  4  6  2  0
  6  7  1  0
  7  8  1  0
  8  9  2  0
  9 10  1  0
 10 11  2  0
 11 12  1  0
 12 13  1  0
 12 14  1  0
 12 15  1  0
 15 16  1  0
 15 17  1  0
 15 18  1  0
 18 19  1  0
 19 20  1  0
 20 21  1  0
 20 22  2  0
 22 23  1  0
 22 24  1  0
 24 25  1  0
  6 26  1  0
 26 27  1  0
 26 28  2  0
 28 29  1  0
 28  2  1  0
 11  7  1  0
 24 18  2  0
M  END
>  <cnnaffinity>  (1) 
-4.98256

>  <filename>  (1) 
c1cncc(-n2nnnc2CCc2cccs2)c1

$$$$
