
     RDKit          3D

 32 35  0  0  0  0  0  0  0  0999 V2000
    4.9123    1.8291   16.9554 H   0  0  0  0  0  0  0  0  0  0  0  0
    5.3737    1.3170   17.7994 C   0  0  0  0  0  0  0  0  0  0  0  0
    6.5320    0.6896   17.5362 N   0  0  0  0  0  0  0  0  0  0  0  0
    7.1443    0.0760   18.5535 C   0  0  0  0  0  0  0  0  0  0  0  0
    8.0879   -0.4125   18.3143 H   0  0  0  0  0  0  0  0  0  0  0  0
    6.6549    0.0189   19.8734 C   0  0  0  0  0  0  0  0  0  0  0  0
    7.3851   -0.6975   20.9611 C   0  0  0  0  0  0  0  0  0  0  0  0
    8.7816   -0.5959   21.1623 C   0  0  0  0  0  0  0  0  0  0  0  0
    9.4110    0.0304   20.5373 H   0  0  0  0  0  0  0  0  0  0  0  0
    9.4212   -1.2138   22.1611 N   0  0  0  0  0  0  0  0  0  0  0  0
    8.7508   -1.9721   23.0327 N   0  0  0  0  0  0  0  0  0  0  0  0
    7.4259   -2.1648   22.8857 C   0  0  0  0  0  0  0  0  0  0  0  0
    6.7587   -3.0472   23.8733 C   0  0  0  0  0  0  0  0  0  0  0  0
    6.9853   -2.9808   25.2088 C   0  0  0  0  0  0  0  0  0  0  0  0
    7.6975   -2.3325   25.7118 H   0  0  0  0  0  0  0  0  0  0  0  0
    5.9861   -4.0489   26.1323 S   0  0  0  0  0  0  0  0  0  0  0  0
    5.2360   -4.6743   24.6907 C   0  0  0  0  0  0  0  0  0  0  0  0
    4.2522   -5.6822   24.6139 C   0  0  0  0  0  0  0  0  0  0  0  0
    3.8615   -6.1684   25.5056 H   0  0  0  0  0  0  0  0  0  0  0  0
    3.8016   -6.0588   23.3594 C   0  0  0  0  0  0  0  0  0  0  0  0
    3.0520   -6.8355   23.2528 H   0  0  0  0  0  0  0  0  0  0  0  0
    4.3240   -5.4537   22.2022 C   0  0  0  0  0  0  0  0  0  0  0  0
    3.9942   -5.8050   21.2449 H   0  0  0  0  0  0  0  0  0  0  0  0
    5.2772   -4.4570   22.2715 C   0  0  0  0  0  0  0  0  0  0  0  0
    5.6729   -4.0147   21.3624 H   0  0  0  0  0  0  0  0  0  0  0  0
    5.7508   -4.0414   23.5350 C   0  0  0  0  0  0  0  0  0  0  0  0
    6.7121   -1.5158   21.8592 C   0  0  0  0  0  0  0  0  0  0  0  0
    5.6461   -1.6825   21.7711 H   0  0  0  0  0  0  0  0  0  0  0  0
    5.4316    0.6648   20.1197 C   0  0  0  0  0  0  0  0  0  0  0  0
    5.0249    0.6537   21.1324 H   0  0  0  0  0  0  0  0  0  0  0  0
    4.7881    1.3286   19.0712 C   0  0  0  0  0  0  0  0  0  0  0  0
    3.8544    1.8609   19.2209 H   0  0  0  0  0  0  0  0  0  0  0  0
  1  2  1  0
  2  3  2  0
  3  4  1  0
  4  5  1  0
  4  6  2  0
  6  7  1  0
  7  8  2  0
  8  9  1  0
  8 10  1  0
 10 11  2  0
 11 12  1  0
 12 13  1  0
 13 14  2  0
 14 15  1  0
 14 16  1  0
 16 17  1  0
 17 18  2  0
 18 19  1  0
 18 20  1  0
 20 21  1  0
 20 22  2  0
 22 23  1  0
 22 24  1  0
 24 25  1  0
 24 26  2  0
 12 27  2  0
 27 28  1  0
  6 29  1  0
 29 30  1  0
 29 31  2  0
 31 32  1  0
 31  2  1  0
 27  7  1  0
 26 13  1  0
 26 17  1  0
M  END
>  <cnnaffinity>  (1) 
-5.4544

>  <filename>  (1) 
c1cncc(-c2cnnc(-c3csc4ccccc34)c2)c1

$$$$
