
     RDKit          3D

 44 47  0  0  0  0  0  0  0  0999 V2000
    4.9105    1.8625   16.9845 H   0  0  0  0  0  0  0  0  0  0  0  0
    5.4020    1.3363   17.8002 C   0  0  0  0  0  0  0  0  0  0  0  0
    6.5702    0.7384   17.5118 N   0  0  0  0  0  0  0  0  0  0  0  0
    7.1917    0.0802   18.5039 C   0  0  0  0  0  0  0  0  0  0  0  0
    8.1471   -0.3740   18.2408 H   0  0  0  0  0  0  0  0  0  0  0  0
    6.6874   -0.0634   19.8271 C   0  0  0  0  0  0  0  0  0  0  0  0
    7.3748   -0.8101   20.8098 N   0  0  0  0  0  0  0  0  0  0  0  0
    6.6892   -1.6158   21.8277 C   0  0  0  0  0  0  0  0  0  0  0  0
    5.6197   -1.6664   21.6072 H   0  0  0  0  0  0  0  0  0  0  0  0
    7.0658   -2.6472   21.7582 H   0  0  0  0  0  0  0  0  0  0  0  0
    6.9174   -1.1594   23.3095 C   0  0  0  0  0  0  0  0  0  0  0  0
    6.9277   -2.0622   23.9350 H   0  0  0  0  0  0  0  0  0  0  0  0
    6.0619   -0.5754   23.6640 H   0  0  0  0  0  0  0  0  0  0  0  0
    8.1670   -0.3993   23.5601 N   0  0  0  0  0  0  0  0  0  0  0  0
    7.9167    1.0521   23.6688 C   0  0  0  0  0  0  0  0  0  0  0  0
    8.8796    1.5788   23.6026 H   0  0  0  0  0  0  0  0  0  0  0  0
    7.2986    1.4150   22.8279 H   0  0  0  0  0  0  0  0  0  0  0  0
    7.2521    1.4081   24.9947 C   0  0  0  0  0  0  0  0  0  0  0  0
    5.9341    1.9703   25.0515 C   0  0  0  0  0  0  0  0  0  0  0  0
    5.3872    2.1533   24.1260 H   0  0  0  0  0  0  0  0  0  0  0  0
    5.3449    2.2902   26.2554 C   0  0  0  0  0  0  0  0  0  0  0  0
    4.3486    2.7260   26.2823 H   0  0  0  0  0  0  0  0  0  0  0  0
    6.0180    2.0486   27.4904 C   0  0  0  0  0  0  0  0  0  0  0  0
    5.4807    2.4332   28.7639 C   0  0  0  0  0  0  0  0  0  0  0  0
    4.5205    2.9430   28.8018 H   0  0  0  0  0  0  0  0  0  0  0  0
    6.1976    2.2134   29.9200 C   0  0  0  0  0  0  0  0  0  0  0  0
    5.8278    2.5719   30.8770 H   0  0  0  0  0  0  0  0  0  0  0  0
    7.4365    1.5105   29.8743 C   0  0  0  0  0  0  0  0  0  0  0  0
    7.9762    1.3068   30.7958 H   0  0  0  0  0  0  0  0  0  0  0  0
    7.9532    1.0972   28.6707 C   0  0  0  0  0  0  0  0  0  0  0  0
    8.8423    0.4733   28.6351 H   0  0  0  0  0  0  0  0  0  0  0  0
    7.3048    1.4182   27.4430 C   0  0  0  0  0  0  0  0  0  0  0  0
    7.9137    1.1505   26.1792 C   0  0  0  0  0  0  0  0  0  0  0  0
    8.9253    0.7392   26.1763 H   0  0  0  0  0  0  0  0  0  0  0  0
    9.1854   -0.7661   22.5642 C   0  0  0  0  0  0  0  0  0  0  0  0
    9.3829   -1.8407   22.6707 H   0  0  0  0  0  0  0  0  0  0  0  0
   10.1351   -0.2693   22.7978 H   0  0  0  0  0  0  0  0  0  0  0  0
    8.7799   -0.4669   21.0969 C   0  0  0  0  0  0  0  0  0  0  0  0
    9.4702   -0.9978   20.4228 H   0  0  0  0  0  0  0  0  0  0  0  0
    8.9253    0.6074   20.9088 H   0  0  0  0  0  0  0  0  0  0  0  0
    5.4679    0.5967   20.0965 C   0  0  0  0  0  0  0  0  0  0  0  0
    5.0668    0.5892   21.1084 H   0  0  0  0  0  0  0  0  0  0  0  0
    4.8215    1.2992   19.0721 C   0  0  0  0  0  0  0  0  0  0  0  0
    3.8828    1.8171   19.2485 H   0  0  0  0  0  0  0  0  0  0  0  0
  1  2  1  0
  2  3  2  0
  3  4  1  0
  4  5  1  0
  4  6  2  0
  6  7  1  0
  7  8  1  0
  8  9  1  0
  8 10  1  0
  8 11  1  0
 11 12  1  0
 11 13  1  0
 11 14  1  0
 14 15  1  0
 15 16  1  0
 15 17  1  0
 15 18  1  0
 18 19  2  0
 19 20  1  0
 19 21  1  0
 21 22  1  0
 21 23  2  0
 23 24  1  0
 24 25  1  0
 24 26  2  0
 26 27  1  0
 26 28  1  0
 28 29  1  0
 28 30  2  0
 30 31  1  0
 30 32  1  0
 32 33  2  0
 33 34  1  0
 14 35  1  0
 35 36  1  0
 35 37  1  0
 35 38  1  0
 38 39  1  0
 38 40  1  0
  6 41  1  0
 41 42  1  0
 41 43  2  0
 43 44  1  0
 43  2  1  0
 38  7  1  0
 33 18  1  0
 32 23  1  0
M  END
>  <cnnaffinity>  (1) 
-4.92013

>  <filename>  (1) 
c1cncc(N2CCN(Cc3ccc4ccccc4c3)CC2)c1

$$$$
