
     RDKit          3D

 32 35  0  0  0  0  0  0  0  0999 V2000
    4.8943    1.8823   16.5875 H   0  0  0  0  0  0  0  0  0  0  0  0
    5.2577    1.4804   17.5295 C   0  0  0  0  0  0  0  0  0  0  0  0
    6.4313    0.8329   17.4636 N   0  0  0  0  0  0  0  0  0  0  0  0
    6.9290    0.3546   18.6093 C   0  0  0  0  0  0  0  0  0  0  0  0
    7.8846   -0.1681   18.5190 H   0  0  0  0  0  0  0  0  0  0  0  0
    6.3077    0.4909   19.8656 C   0  0  0  0  0  0  0  0  0  0  0  0
    6.9797   -0.0408   21.1065 C   0  0  1  0  0  0  0  0  0  0  0  0
    6.3669    0.2248   21.9758 H   0  0  0  0  0  0  0  0  0  0  0  0
    7.1099   -1.5963   21.0945 C   0  0  0  0  0  0  0  0  0  0  0  0
    6.9147   -2.0330   20.1088 H   0  0  0  0  0  0  0  0  0  0  0  0
    6.4194   -2.0743   21.7942 H   0  0  0  0  0  0  0  0  0  0  0  0
    8.5244   -1.8124   21.4808 C   0  0  0  0  0  0  0  0  0  0  0  0
    9.2343   -2.9090   21.6517 N   0  0  0  0  0  0  0  0  0  0  0  0
   10.4637   -2.4330   21.9396 N   0  0  0  0  0  0  0  0  0  0  0  0
   11.2011   -3.1091   22.0692 H   0  0  0  0  0  0  0  0  0  0  0  0
   10.5554   -1.0662   21.9288 C   0  0  0  0  0  0  0  0  0  0  0  0
   11.7907   -0.3353   22.2232 C   0  0  0  0  0  0  0  0  0  0  0  0
   11.8435    1.0238   22.3690 C   0  0  0  0  0  0  0  0  0  0  0  0
   11.0214    1.7104   22.2434 H   0  0  0  0  0  0  0  0  0  0  0  0
   13.4081    1.5977   22.7473 S   0  0  0  0  0  0  0  0  0  0  0  0
   14.0504    0.0075   22.6677 C   0  0  0  0  0  0  0  0  0  0  0  0
   15.1000   -0.1627   22.8344 H   0  0  0  0  0  0  0  0  0  0  0  0
   13.0978   -0.9136   22.3913 C   0  0  0  0  0  0  0  0  0  0  0  0
   13.3126   -1.9705   22.2986 H   0  0  0  0  0  0  0  0  0  0  0  0
    9.2677   -0.6424   21.6301 C   0  0  0  0  0  0  0  0  0  0  0  0
    8.4172    0.5591   21.3316 C   0  0  0  0  0  0  0  0  0  0  0  0
    8.7651    1.0819   20.4301 H   0  0  0  0  0  0  0  0  0  0  0  0
    8.4033    1.3125   22.1309 H   0  0  0  0  0  0  0  0  0  0  0  0
    5.0619    1.1310   19.8981 C   0  0  0  0  0  0  0  0  0  0  0  0
    4.5324    1.2335   20.8470 H   0  0  0  0  0  0  0  0  0  0  0  0
    4.5287    1.6361   18.7107 C   0  0  0  0  0  0  0  0  0  0  0  0
    3.5834    2.1682   18.6922 H   0  0  0  0  0  0  0  0  0  0  0  0
  1  2  1  0
  2  3  2  0
  3  4  1  0
  4  5  1  0
  4  6  2  0
  6  7  1  0
  7  8  1  1
  7  9  1  0
  9 10  1  0
  9 11  1  0
  9 12  1  0
 12 13  2  0
 13 14  1  0
 14 15  1  0
 14 16  1  0
 16 17  1  0
 17 18  2  0
 18 19  1  0
 18 20  1  0
 20 21  1  0
 21 22  1  0
 21 23  2  0
 23 24  1  0
 16 25  2  0
 25 26  1  0
 26 27  1  0
 26 28  1  0
  6 29  1  0
 29 30  1  0
 29 31  2  0
 31 32  1  0
 31  2  1  0
 26  7  1  0
 25 12  1  0
 23 17  1  0
M  END
>  <cnnaffinity>  (1) 
-5.6716

>  <filename>  (1) 
c1cncc([C@H]2Cc3n[nH]c(-c4ccsc4)c3C2)c1

$$$$
