
     RDKit          3D

 29 32  0  0  0  0  0  0  0  0999 V2000
    4.9263    1.7877   16.9917 H   0  0  0  0  0  0  0  0  0  0  0  0
    5.4052    1.2928   17.8350 C   0  0  0  0  0  0  0  0  0  0  0  0
    6.5708    0.6736   17.5740 N   0  0  0  0  0  0  0  0  0  0  0  0
    7.1744    0.0464   18.5848 C   0  0  0  0  0  0  0  0  0  0  0  0
    8.1230   -0.4414   18.3748 H   0  0  0  0  0  0  0  0  0  0  0  0
    6.6477   -0.0001   19.8890 C   0  0  0  0  0  0  0  0  0  0  0  0
    7.3525   -0.6939   20.9153 N   0  0  0  0  0  0  0  0  0  0  0  0
    7.7737   -1.9639   20.7569 N   0  0  0  0  0  0  0  0  0  0  0  0
    8.2937   -2.3287   21.8705 N   0  0  0  0  0  0  0  0  0  0  0  0
    8.2412   -1.3410   22.7809 N   0  0  0  0  0  0  0  0  0  0  0  0
    7.6661   -0.3174   22.1859 C   0  0  0  0  0  0  0  0  0  0  0  0
    7.4727    0.9768   22.8080 C   0  0  0  0  0  0  0  0  0  0  0  0
    7.1271    2.0699   22.0458 O   0  0  0  0  0  0  0  0  0  0  0  0
    7.0598    3.1261   22.9055 C   0  0  0  0  0  0  0  0  0  0  0  0
    6.7271    4.4522   22.6024 C   0  0  0  0  0  0  0  0  0  0  0  0
    6.4815    4.7566   21.5830 H   0  0  0  0  0  0  0  0  0  0  0  0
    6.7290    5.3473   23.6807 C   0  0  0  0  0  0  0  0  0  0  0  0
    6.4811    6.3913   23.5027 H   0  0  0  0  0  0  0  0  0  0  0  0
    7.0451    4.9385   25.0006 C   0  0  0  0  0  0  0  0  0  0  0  0
    7.0384    5.6620   25.8156 H   0  0  0  0  0  0  0  0  0  0  0  0
    7.3661    3.6139   25.2750 C   0  0  0  0  0  0  0  0  0  0  0  0
    7.6157    3.2547   26.2732 H   0  0  0  0  0  0  0  0  0  0  0  0
    7.3679    2.6971   24.2102 C   0  0  0  0  0  0  0  0  0  0  0  0
    7.6360    1.2942   24.1136 C   0  0  0  0  0  0  0  0  0  0  0  0
    7.9243    0.6022   24.8992 H   0  0  0  0  0  0  0  0  0  0  0  0
    5.4254    0.6188   20.1571 C   0  0  0  0  0  0  0  0  0  0  0  0
    5.0001    0.6260   21.1649 H   0  0  0  0  0  0  0  0  0  0  0  0
    4.8034    1.2912   19.0982 C   0  0  0  0  0  0  0  0  0  0  0  0
    3.8789    1.8358   19.2593 H   0  0  0  0  0  0  0  0  0  0  0  0
  1  2  1  0
  2  3  2  0
  3  4  1  0
  4  5  1  0
  4  6  2  0
  6  7  1  0
  7  8  1  0
  8  9  2  0
  9 10  1  0
 10 11  2  0
 11 12  1  0
 12 13  1  0
 13 14  1  0
 14 15  2  0
 15 16  1  0
 15 17  1  0
 17 18  1  0
 17 19  2  0
 19 20  1  0
 19 21  1  0
 21 22  1  0
 21 23  2  0
 23 24  1  0
 24 25  1  0
  6 26  1  0
 26 27  1  0
 26 28  2  0
 28 29  1  0
 28  2  1  0
 11  7  1  0
 24 12  2  0
 23 14  1  0
M  END
>  <cnnaffinity>  (1) 
-4.95336

>  <filename>  (1) 
c1cncc(-n2nnnc2-c2cc3ccccc3o2)c1

$$$$
