
     RDKit          3D

 37 40  0  0  0  0  0  0  0  0999 V2000
    5.3560    1.6880   16.9285 H   0  0  0  0  0  0  0  0  0  0  0  0
    5.6379    1.0756   17.7781 C   0  0  0  0  0  0  0  0  0  0  0  0
    6.7943    0.4056   17.6598 N   0  0  0  0  0  0  0  0  0  0  0  0
    7.1914   -0.2971   18.7226 C   0  0  0  0  0  0  0  0  0  0  0  0
    8.1388   -0.8203   18.6191 H   0  0  0  0  0  0  0  0  0  0  0  0
    6.4919   -0.3727   19.9411 C   0  0  0  0  0  0  0  0  0  0  0  0
    7.1699   -1.0021   21.0904 C   0  0  0  0  0  0  0  0  0  0  0  0
    6.5108   -1.5906   22.0930 N   0  0  0  0  0  0  0  0  0  0  0  0
    7.4784   -1.9336   22.9467 N   0  0  0  0  0  0  0  0  0  0  0  0
    8.7210   -1.6228   22.5592 C   0  0  0  0  0  0  0  0  0  0  0  0
    8.5923   -0.9785   21.3449 C   0  0  0  0  0  0  0  0  0  0  0  0
    9.6094   -0.2746   20.6500 N   0  0  0  0  0  0  0  0  0  0  0  0
   10.5061   -0.7183   20.8373 H   0  0  0  0  0  0  0  0  0  0  0  0
    9.6445    1.1729   20.9282 C   0  0  0  0  0  0  0  0  0  0  0  0
   10.4615    1.6046   20.3454 H   0  0  0  0  0  0  0  0  0  0  0  0
    8.7059    1.5909   20.5409 H   0  0  0  0  0  0  0  0  0  0  0  0
    9.7932    1.5852   22.3692 C   0  0  0  0  0  0  0  0  0  0  0  0
   11.3113    1.3948   23.1708 S   0  0  0  0  0  0  0  0  0  0  0  0
   10.6234    1.8271   24.6898 C   0  0  0  0  0  0  0  0  0  0  0  0
   11.2190    1.7495   25.5868 H   0  0  0  0  0  0  0  0  0  0  0  0
    9.3057    2.1565   24.5782 C   0  0  0  0  0  0  0  0  0  0  0  0
    8.6860    2.4435   25.4251 H   0  0  0  0  0  0  0  0  0  0  0  0
    8.8282    2.0229   23.2377 C   0  0  0  0  0  0  0  0  0  0  0  0
    7.8216    2.2635   22.9112 H   0  0  0  0  0  0  0  0  0  0  0  0
    9.7136   -1.9684   23.6211 C   0  0  0  0  0  0  0  0  0  0  0  0
   10.2752   -1.0810   23.9161 H   0  0  0  0  0  0  0  0  0  0  0  0
   10.4417   -2.6970   23.2561 H   0  0  0  0  0  0  0  0  0  0  0  0
    8.8216   -2.5309   24.7666 C   0  0  0  0  0  0  0  0  0  0  0  0
    9.0740   -3.5689   24.9730 H   0  0  0  0  0  0  0  0  0  0  0  0
    8.9692   -1.9670   25.6879 H   0  0  0  0  0  0  0  0  0  0  0  0
    7.3392   -2.4375   24.2937 C   0  0  0  0  0  0  0  0  0  0  0  0
    6.7459   -1.7500   24.9077 H   0  0  0  0  0  0  0  0  0  0  0  0
    6.8167   -3.3974   24.2712 H   0  0  0  0  0  0  0  0  0  0  0  0
    5.2393    0.2674   20.0128 C   0  0  0  0  0  0  0  0  0  0  0  0
    4.6435    0.2056   20.9268 H   0  0  0  0  0  0  0  0  0  0  0  0
    4.8192    1.0101   18.9128 C   0  0  0  0  0  0  0  0  0  0  0  0
    3.8822    1.5597   18.9256 H   0  0  0  0  0  0  0  0  0  0  0  0
  1  2  1  0
  2  3  2  0
  3  4  1  0
  4  5  1  0
  4  6  2  0
  6  7  1  0
  7  8  2  0
  8  9  1  0
  9 10  1  0
 10 11  2  0
 11 12  1  0
 12 13  1  0
 12 14  1  0
 14 15  1  0
 14 16  1  0
 14 17  1  0
 17 18  1  0
 18 19  1  0
 19 20  1  0
 19 21  2  0
 21 22  1  0
 21 23  1  0
 23 24  1  0
 10 25  1  0
 25 26  1  0
 25 27  1  0
 25 28  1  0
 28 29  1  0
 28 30  1  0
 28 31  1  0
 31 32  1  0
 31 33  1  0
  6 34  1  0
 34 35  1  0
 34 36  2  0
 36 37  1  0
 36  2  1  0
 11  7  1  0
 23 17  2  0
 31  9  1  0
M  END
>  <cnnaffinity>  (1) 
-5.94341

>  <filename>  (1) 
c1cncc(-c2nn3c(c2NCc2cccs2)CCC3)c1

$$$$
