
     RDKit          3D

 25 27  0  0  0  0  0  0  0  0999 V2000
    7.3988    4.2788   21.8512 H   0  0  0  0  0  0  0  0  0  0  0  0
    7.4069    3.2820   22.2841 C   0  0  0  0  0  0  0  0  0  0  0  0
    7.2591    3.0715   23.6226 N   0  0  0  0  0  0  0  0  0  0  0  0
    7.3623    1.7753   23.7316 C   0  0  0  0  0  0  0  0  0  0  0  0
    7.2998    1.2043   24.6462 H   0  0  0  0  0  0  0  0  0  0  0  0
    7.5503    1.2097   22.5099 N   0  0  0  0  0  0  0  0  0  0  0  0
    7.7192   -0.1684   22.2379 C   0  0  0  0  0  0  0  0  0  0  0  0
    8.2297   -0.9019   23.2341 N   0  0  0  0  0  0  0  0  0  0  0  0
    8.4815   -2.1894   22.9172 C   0  0  0  0  0  0  0  0  0  0  0  0
    8.9285   -2.8058   23.6861 H   0  0  0  0  0  0  0  0  0  0  0  0
    8.2091   -2.7399   21.6607 C   0  0  0  0  0  0  0  0  0  0  0  0
    8.4191   -3.7817   21.4344 H   0  0  0  0  0  0  0  0  0  0  0  0
    7.6652   -2.0104   20.6662 N   0  0  0  0  0  0  0  0  0  0  0  0
    7.3672   -0.7402   20.9475 C   0  0  0  0  0  0  0  0  0  0  0  0
    6.6320   -0.0180   19.8897 C   0  0  0  0  0  0  0  0  0  0  0  0
    7.1600    0.0344   18.5922 C   0  0  0  0  0  0  0  0  0  0  0  0
    8.1140   -0.4380   18.3629 H   0  0  0  0  0  0  0  0  0  0  0  0
    6.5684    0.6772   17.5837 N   0  0  0  0  0  0  0  0  0  0  0  0
    5.4038    1.2929   17.8396 C   0  0  0  0  0  0  0  0  0  0  0  0
    4.9272    1.7863   16.9953 H   0  0  0  0  0  0  0  0  0  0  0  0
    4.8008    1.3013   19.1000 C   0  0  0  0  0  0  0  0  0  0  0  0
    3.8801    1.8448   19.2579 H   0  0  0  0  0  0  0  0  0  0  0  0
    5.4217    0.6310   20.1518 C   0  0  0  0  0  0  0  0  0  0  0  0
    5.0001    0.6472   21.1607 H   0  0  0  0  0  0  0  0  0  0  0  0
    7.5985    2.1999   21.5624 N   0  0  0  0  0  0  0  0  0  0  0  0
  1  2  1  0
  2  3  1  0
  3  4  2  0
  4  5  1  0
  4  6  1  0
  6  7  1  0
  7  8  2  0
  8  9  1  0
  9 10  1  0
  9 11  2  0
 11 12  1  0
 11 13  1  0
 13 14  2  0
 14 15  1  0
 15 16  2  0
 16 17  1  0
 16 18  1  0
 18 19  2  0
 19 20  1  0
 19 21  1  0
 21 22  1  0
 21 23  2  0
 23 24  1  0
  6 25  1  0
 25  2  2  0
 14  7  1  0
 23 15  1  0
M  END
>  <cnnaffinity>  (1) 
-4.68001

>  <filename>  (1) 
c1cncc(-c2nccnc2-n2cncn2)c1

$$$$
