
     RDKit          3D

 40 44  0  0  0  0  0  0  0  0999 V2000
    5.0017    1.8431   16.9137 H   0  0  0  0  0  0  0  0  0  0  0  0
    5.3889    1.3083   17.7830 C   0  0  0  0  0  0  0  0  0  0  0  0
    6.5392    0.6429   17.5991 N   0  0  0  0  0  0  0  0  0  0  0  0
    7.0582    0.0182   18.6654 C   0  0  0  0  0  0  0  0  0  0  0  0
    7.9938   -0.5084   18.4883 H   0  0  0  0  0  0  0  0  0  0  0  0
    6.4748   -0.0167   19.9496 C   0  0  0  0  0  0  0  0  0  0  0  0
    7.2345   -0.6369   21.0621 C   0  0  0  0  0  0  0  0  0  0  0  0
    8.5878   -0.5491   21.3025 C   0  0  0  0  0  0  0  0  0  0  0  0
    8.8032   -1.1443   22.5394 C   0  0  0  0  0  0  0  0  0  0  0  0
    7.7003   -1.6243   23.0729 N   0  0  0  0  0  0  0  0  0  0  0  0
    6.7435   -1.3006   22.1569 N   0  0  0  0  0  0  0  0  0  0  0  0
    5.7865   -1.5609   22.3601 H   0  0  0  0  0  0  0  0  0  0  0  0
   10.2218   -1.0210   23.0111 C   0  0  0  0  0  0  0  0  0  0  0  0
   10.2801   -0.4946   23.9692 H   0  0  0  0  0  0  0  0  0  0  0  0
   10.6829   -2.0021   23.1549 H   0  0  0  0  0  0  0  0  0  0  0  0
   10.9180   -0.2091   21.8562 C   0  0  2  0  0  0  0  0  0  0  0  0
   11.6964   -0.8605   21.4435 H   0  0  0  0  0  0  0  0  0  0  0  0
   11.5911    1.0644   22.3348 C   0  0  0  0  0  0  0  0  0  0  0  0
   12.9670    1.1415   22.3540 C   0  0  0  0  0  0  0  0  0  0  0  0
   13.5706    0.2944   22.0246 H   0  0  0  0  0  0  0  0  0  0  0  0
   13.6903    2.2200   22.7514 N   0  0  0  0  0  0  0  0  0  0  0  0
   13.0290    3.2806   23.1541 C   0  0  0  0  0  0  0  0  0  0  0  0
   13.6220    4.1468   23.4473 H   0  0  0  0  0  0  0  0  0  0  0  0
   11.6095    3.3431   23.2662 C   0  0  0  0  0  0  0  0  0  0  0  0
   10.9373    4.4841   23.8079 C   0  0  0  0  0  0  0  0  0  0  0  0
   11.5216    5.3621   24.0864 H   0  0  0  0  0  0  0  0  0  0  0  0
    9.5778    4.4611   23.9831 C   0  0  0  0  0  0  0  0  0  0  0  0
    9.0680    5.3158   24.4190 H   0  0  0  0  0  0  0  0  0  0  0  0
    8.8229    3.3201   23.5990 C   0  0  0  0  0  0  0  0  0  0  0  0
    7.7487    3.3172   23.7545 H   0  0  0  0  0  0  0  0  0  0  0  0
    9.4422    2.2230   23.0395 C   0  0  0  0  0  0  0  0  0  0  0  0
    8.8548    1.3644   22.7259 H   0  0  0  0  0  0  0  0  0  0  0  0
   10.8625    2.1919   22.8615 C   0  0  0  0  0  0  0  0  0  0  0  0
    9.8479   -0.0057   20.7255 C   0  0  0  0  0  0  0  0  0  0  0  0
    9.7490    1.0397   20.4114 H   0  0  0  0  0  0  0  0  0  0  0  0
   10.1253   -0.5923   19.8462 H   0  0  0  0  0  0  0  0  0  0  0  0
    5.2527    0.6622   20.1130 C   0  0  0  0  0  0  0  0  0  0  0  0
    4.7507    0.6981   21.0835 H   0  0  0  0  0  0  0  0  0  0  0  0
    4.7166    1.3356   19.0117 C   0  0  0  0  0  0  0  0  0  0  0  0
    3.8014    1.9094   19.0890 H   0  0  0  0  0  0  0  0  0  0  0  0
  1  2  1  0
  2  3  2  0
  3  4  1  0
  4  5  1  0
  4  6  2  0
  6  7  1  0
  7  8  2  0
  8  9  1  0
  9 10  2  0
 10 11  1  0
 11 12  1  0
  9 13  1  0
 13 14  1  0
 13 15  1  0
 13 16  1  0
 16 17  1  6
 16 18  1  0
 18 19  2  0
 19 20  1  0
 19 21  1  0
 21 22  2  0
 22 23  1  0
 22 24  1  0
 24 25  2  0
 25 26  1  0
 25 27  1  0
 27 28  1  0
 27 29  2  0
 29 30  1  0
 29 31  1  0
 31 32  1  0
 31 33  2  0
 16 34  1  0
 34 35  1  0
 34 36  1  0
  6 37  1  0
 37 38  1  0
 37 39  2  0
 39 40  1  0
 39  2  1  0
 11  7  1  0
 33 18  1  0
 34  8  1  0
 33 24  1  0
M  END
>  <cnnaffinity>  (1) 
-6.20146

>  <filename>  (1) 
c1cncc(-c2[nH]nc3c2C[C@@H](c2cncc4ccccc24)C3)c1

$$$$
