
     RDKit          3D

 41 43  0  0  0  0  0  0  0  0999 V2000
    4.9344    1.8494   16.9628 H   0  0  0  0  0  0  0  0  0  0  0  0
    5.3834    1.3184   17.7963 C   0  0  0  0  0  0  0  0  0  0  0  0
    6.5454    0.6905   17.5526 N   0  0  0  0  0  0  0  0  0  0  0  0
    7.1278    0.0575   18.5785 C   0  0  0  0  0  0  0  0  0  0  0  0
    8.0829   -0.4165   18.3445 H   0  0  0  0  0  0  0  0  0  0  0  0
    6.5907   -0.0057   19.8779 C   0  0  0  0  0  0  0  0  0  0  0  0
    7.3699   -0.6869   20.9957 C   0  0  0  0  0  0  0  0  0  0  0  0
    6.7814   -0.7301   21.9230 H   0  0  0  0  0  0  0  0  0  0  0  0
    7.5782   -1.7316   20.7371 H   0  0  0  0  0  0  0  0  0  0  0  0
    8.6665   -0.0782   21.2681 N   0  0  0  0  0  0  0  0  0  0  0  0
    9.8742   -0.6269   20.8978 C   0  0  0  0  0  0  0  0  0  0  0  0
    9.8997   -1.5772   20.3824 H   0  0  0  0  0  0  0  0  0  0  0  0
   10.8863    0.1970   21.3219 C   0  0  0  0  0  0  0  0  0  0  0  0
   11.9444   -0.0161   21.2318 H   0  0  0  0  0  0  0  0  0  0  0  0
   10.2707    1.3201   21.9288 C   0  0  0  0  0  0  0  0  0  0  0  0
   10.7554    2.1994   22.3482 H   0  0  0  0  0  0  0  0  0  0  0  0
    8.9053    1.1256   21.9034 C   0  0  0  0  0  0  0  0  0  0  0  0
    7.8814    1.9337   22.6390 C   0  0  0  0  0  0  0  0  0  0  0  0
    6.8624    1.6211   22.3895 H   0  0  0  0  0  0  0  0  0  0  0  0
    7.9707    2.9794   22.3093 H   0  0  0  0  0  0  0  0  0  0  0  0
    8.0763    1.8858   24.1689 C   0  0  0  0  0  0  0  0  0  0  0  0
    9.1081    2.2203   24.3659 H   0  0  0  0  0  0  0  0  0  0  0  0
    7.9523    0.4477   24.7429 C   0  0  0  0  0  0  0  0  0  0  0  0
    7.2102   -0.1416   24.1850 H   0  0  0  0  0  0  0  0  0  0  0  0
    8.9131   -0.0594   24.5856 H   0  0  0  0  0  0  0  0  0  0  0  0
    7.5877    0.4084   26.2461 C   0  0  0  0  0  0  0  0  0  0  0  0
    8.0180   -0.4847   26.7139 H   0  0  0  0  0  0  0  0  0  0  0  0
    6.5007    0.3125   26.3637 H   0  0  0  0  0  0  0  0  0  0  0  0
    8.0877    1.6699   26.9581 C   0  0  0  0  0  0  0  0  0  0  0  0
    9.1669    1.7282   26.7795 H   0  0  0  0  0  0  0  0  0  0  0  0
    7.9631    1.6025   28.0421 H   0  0  0  0  0  0  0  0  0  0  0  0
    7.4487    2.9638   26.4092 C   0  0  0  0  0  0  0  0  0  0  0  0
    6.5202    3.2075   26.9400 H   0  0  0  0  0  0  0  0  0  0  0  0
    8.1363    3.7938   26.6120 H   0  0  0  0  0  0  0  0  0  0  0  0
    7.1502    2.8736   24.8941 C   0  0  0  0  0  0  0  0  0  0  0  0
    6.1098    2.5551   24.7429 H   0  0  0  0  0  0  0  0  0  0  0  0
    7.2382    3.8649   24.4328 H   0  0  0  0  0  0  0  0  0  0  0  0
    5.3688    0.6430   20.0978 C   0  0  0  0  0  0  0  0  0  0  0  0
    4.9058    0.6464   21.0879 H   0  0  0  0  0  0  0  0  0  0  0  0
    4.7535    1.3212   19.0422 C   0  0  0  0  0  0  0  0  0  0  0  0
    3.8222    1.8619   19.1822 H   0  0  0  0  0  0  0  0  0  0  0  0
  1  2  1  0
  2  3  2  0
  3  4  1  0
  4  5  1  0
  4  6  2  0
  6  7  1  0
  7  8  1  0
  7  9  1  0
  7 10  1  0
 10 11  1  0
 11 12  1  0
 11 13  2  0
 13 14  1  0
 13 15  1  0
 15 16  1  0
 15 17  2  0
 17 18  1  0
 18 19  1  0
 18 20  1  0
 18 21  1  0
 21 22  1  0
 21 23  1  0
 23 24  1  0
 23 25  1  0
 23 26  1  0
 26 27  1  0
 26 28  1  0
 26 29  1  0
 29 30  1  0
 29 31  1  0
 29 32  1  0
 32 33  1  0
 32 34  1  0
 32 35  1  0
 35 36  1  0
 35 37  1  0
  6 38  1  0
 38 39  1  0
 38 40  2  0
 40 41  1  0
 40  2  1  0
 17 10  1  0
 35 21  1  0
M  END
>  <cnnaffinity>  (1) 
-4.85095

>  <filename>  (1) 
c1cncc(Cn2cccc2CC2CCCCC2)c1

$$$$
