
     RDKit          3D

 25 27  0  0  0  0  0  0  0  0999 V2000
    8.3003    5.0216   21.2241 H   0  0  0  0  0  0  0  0  0  0  0  0
    7.8592    4.1845   21.7586 C   0  0  0  0  0  0  0  0  0  0  0  0
    6.8508    4.3149   22.5560 N   0  0  0  0  0  0  0  0  0  0  0  0
    6.4668    3.0835   23.0299 C   0  0  0  0  0  0  0  0  0  0  0  0
    5.6300    2.9520   23.7048 H   0  0  0  0  0  0  0  0  0  0  0  0
    7.1924    2.0328   22.5821 C   0  0  0  0  0  0  0  0  0  0  0  0
    6.9639    0.7645   22.9943 O   0  0  0  0  0  0  0  0  0  0  0  0
    7.5042   -0.3023   22.3184 C   0  0  0  0  0  0  0  0  0  0  0  0
    8.1767   -1.3728   22.9268 C   0  0  0  0  0  0  0  0  0  0  0  0
    8.4254   -1.4994   23.9731 H   0  0  0  0  0  0  0  0  0  0  0  0
    8.4773   -2.3055   22.0265 N   0  0  0  0  0  0  0  0  0  0  0  0
    8.0009   -1.8271   20.8748 N   0  0  0  0  0  0  0  0  0  0  0  0
    8.0345   -2.4081   20.0528 H   0  0  0  0  0  0  0  0  0  0  0  0
    7.3721   -0.6205   20.9764 C   0  0  0  0  0  0  0  0  0  0  0  0
    6.6573    0.0446   19.8582 C   0  0  0  0  0  0  0  0  0  0  0  0
    7.1484    0.0802   18.5327 C   0  0  0  0  0  0  0  0  0  0  0  0
    8.1008   -0.3848   18.2746 H   0  0  0  0  0  0  0  0  0  0  0  0
    6.5255    0.6869   17.5151 N   0  0  0  0  0  0  0  0  0  0  0  0
    5.3691    1.3162   17.7786 C   0  0  0  0  0  0  0  0  0  0  0  0
    4.9099    1.8424   16.9437 H   0  0  0  0  0  0  0  0  0  0  0  0
    4.7767    1.3320   19.0456 C   0  0  0  0  0  0  0  0  0  0  0  0
    3.8426    1.8675   19.1953 H   0  0  0  0  0  0  0  0  0  0  0  0
    5.4321    0.6896   20.0979 C   0  0  0  0  0  0  0  0  0  0  0  0
    5.0072    0.6794   21.1000 H   0  0  0  0  0  0  0  0  0  0  0  0
    8.4276    2.5546   21.4949 S   0  0  0  0  0  0  0  0  0  0  0  0
  1  2  1  0
  2  3  2  0
  3  4  1  0
  4  5  1  0
  4  6  2  0
  6  7  1  0
  7  8  1  0
  8  9  1  0
  9 10  1  0
  9 11  2  0
 11 12  1  0
 12 13  1  0
 12 14  1  0
 14 15  1  0
 15 16  2  0
 16 17  1  0
 16 18  1  0
 18 19  2  0
 19 20  1  0
 19 21  1  0
 21 22  1  0
 21 23  2  0
 23 24  1  0
  6 25  1  0
 25  2  1  0
 14  8  2  0
 23 15  1  0
M  END
>  <cnnaffinity>  (1) 
-4.78965

>  <filename>  (1) 
c1cncc(-c2[nH]ncc2Oc2cncs2)c1

$$$$
