
     RDKit          3D

 32 35  0  0  0  0  0  0  0  0999 V2000
    5.0266    1.7266   16.9978 H   0  0  0  0  0  0  0  0  0  0  0  0
    5.4526    1.2900   17.8997 C   0  0  0  0  0  0  0  0  0  0  0  0
    6.6186    0.6437   17.7426 N   0  0  0  0  0  0  0  0  0  0  0  0
    7.1646    0.0859   18.8251 C   0  0  0  0  0  0  0  0  0  0  0  0
    8.1058   -0.4414   18.6686 H   0  0  0  0  0  0  0  0  0  0  0  0
    6.6022    0.1516   20.1207 C   0  0  0  0  0  0  0  0  0  0  0  0
    7.2408   -0.5515   21.1870 N   0  0  0  0  0  0  0  0  0  0  0  0
    7.5014   -0.2138   22.5125 C   0  0  0  0  0  0  0  0  0  0  0  0
    7.0192    1.0076   23.2027 C   0  0  0  0  0  0  0  0  0  0  0  0
    6.1925    0.8572   24.3263 C   0  0  0  0  0  0  0  0  0  0  0  0
    5.9561   -0.1499   24.6711 H   0  0  0  0  0  0  0  0  0  0  0  0
    5.6821    1.9737   25.0141 C   0  0  0  0  0  0  0  0  0  0  0  0
    5.0465    1.8129   25.8833 H   0  0  0  0  0  0  0  0  0  0  0  0
    5.9945    3.2717   24.6240 C   0  0  0  0  0  0  0  0  0  0  0  0
    5.6487    4.1386   25.1850 H   0  0  0  0  0  0  0  0  0  0  0  0
    6.8089    3.4290   23.4922 C   0  0  0  0  0  0  0  0  0  0  0  0
    7.3422    2.3269   22.7714 C   0  0  0  0  0  0  0  0  0  0  0  0
    8.1448    2.8921   21.7181 C   0  0  0  0  0  0  0  0  0  0  0  0
    8.7139    2.3189   20.9996 H   0  0  0  0  0  0  0  0  0  0  0  0
    8.0510    4.2551   21.8133 C   0  0  0  0  0  0  0  0  0  0  0  0
    8.4432    5.0558   21.1982 H   0  0  0  0  0  0  0  0  0  0  0  0
    7.2625    4.5773   22.8934 N   0  0  0  0  0  0  0  0  0  0  0  0
    7.0009    5.5170   23.1473 H   0  0  0  0  0  0  0  0  0  0  0  0
    8.1225   -1.1948   23.1290 N   0  0  0  0  0  0  0  0  0  0  0  0
    8.2691   -2.2013   22.2138 C   0  0  0  0  0  0  0  0  0  0  0  0
    8.7425   -3.1415   22.4712 H   0  0  0  0  0  0  0  0  0  0  0  0
    7.7115   -1.8381   21.0272 C   0  0  0  0  0  0  0  0  0  0  0  0
    7.4867   -2.3700   20.1214 H   0  0  0  0  0  0  0  0  0  0  0  0
    5.3942    0.8427   20.2795 C   0  0  0  0  0  0  0  0  0  0  0  0
    4.9334    0.9167   21.2683 H   0  0  0  0  0  0  0  0  0  0  0  0
    4.8077    1.4075   19.1368 C   0  0  0  0  0  0  0  0  0  0  0  0
    3.8664    1.9422   19.1906 H   0  0  0  0  0  0  0  0  0  0  0  0
  1  2  1  0
  2  3  2  0
  3  4  1  0
  4  5  1  0
  4  6  2  0
  6  7  1  0
  7  8  1  0
  8  9  1  0
  9 10  2  0
 10 11  1  0
 10 12  1  0
 12 13  1  0
 12 14  2  0
 14 15  1  0
 14 16  1  0
 16 17  2  0
 17 18  1  0
 18 19  1  0
 18 20  2  0
 20 21  1  0
 20 22  1  0
 22 23  1  0
  8 24  2  0
 24 25  1  0
 25 26  1  0
 25 27  2  0
 27 28  1  0
  6 29  1  0
 29 30  1  0
 29 31  2  0
 31 32  1  0
 31  2  1  0
 27  7  1  0
 17  9  1  0
 22 16  1  0
M  END
>  <cnnaffinity>  (1) 
-5.22087

>  <filename>  (1) 
c1cncc(-n2ccnc2-c2cccc3[nH]ccc23)c1

$$$$
