
     RDKit          3D

 36 40  0  0  0  0  0  0  0  0999 V2000
    4.9686    1.8338   16.9522 H   0  0  0  0  0  0  0  0  0  0  0  0
    5.4111    1.2986   17.7852 C   0  0  0  0  0  0  0  0  0  0  0  0
    6.5604    0.6598   17.5253 N   0  0  0  0  0  0  0  0  0  0  0  0
    7.1394   -0.0021   18.5315 C   0  0  0  0  0  0  0  0  0  0  0  0
    8.0933   -0.4783   18.3102 H   0  0  0  0  0  0  0  0  0  0  0  0
    6.6050   -0.0620   19.8335 C   0  0  0  0  0  0  0  0  0  0  0  0
    7.3670   -0.6904   20.9280 C   0  0  0  0  0  0  0  0  0  0  0  0
    8.4874   -1.3918   20.6952 N   0  0  0  0  0  0  0  0  0  0  0  0
    8.9399   -1.6505   21.9389 N   0  0  0  0  0  0  0  0  0  0  0  0
   10.1179   -2.1718   22.4464 C   0  0  0  0  0  0  0  0  0  0  0  0
   10.8427   -2.5896   21.7716 H   0  0  0  0  0  0  0  0  0  0  0  0
   10.0768   -1.9554   23.7870 C   0  0  0  0  0  0  0  0  0  0  0  0
   10.7824   -2.2339   24.5502 H   0  0  0  0  0  0  0  0  0  0  0  0
    8.8659   -1.3264   24.1129 N   0  0  0  0  0  0  0  0  0  0  0  0
    8.4576   -0.7937   25.3518 C   0  0  0  0  0  0  0  0  0  0  0  0
    9.2381   -0.1001   26.2297 C   0  0  0  0  0  0  0  0  0  0  0  0
   10.2914    0.1216   26.1355 H   0  0  0  0  0  0  0  0  0  0  0  0
    8.4687    0.3821   27.2633 N   0  0  0  0  0  0  0  0  0  0  0  0
    8.8145    0.9533   28.0194 H   0  0  0  0  0  0  0  0  0  0  0  0
    7.1584    0.0038   27.0648 C   0  0  0  0  0  0  0  0  0  0  0  0
    6.0128    0.2765   27.8335 C   0  0  0  0  0  0  0  0  0  0  0  0
    6.0838    0.8773   28.7383 H   0  0  0  0  0  0  0  0  0  0  0  0
    4.8036   -0.2445   27.3873 C   0  0  0  0  0  0  0  0  0  0  0  0
    3.9084   -0.0673   27.9774 H   0  0  0  0  0  0  0  0  0  0  0  0
    4.7146   -1.0003   26.1919 C   0  0  0  0  0  0  0  0  0  0  0  0
    3.7480   -1.3801   25.8683 H   0  0  0  0  0  0  0  0  0  0  0  0
    5.8508   -1.2483   25.4242 C   0  0  0  0  0  0  0  0  0  0  0  0
    5.7682   -1.7898   24.4824 H   0  0  0  0  0  0  0  0  0  0  0  0
    7.1001   -0.7536   25.8660 C   0  0  0  0  0  0  0  0  0  0  0  0
    8.1738   -1.1436   22.9235 C   0  0  0  0  0  0  0  0  0  0  0  0
    7.0911   -0.5340   22.3091 C   0  0  0  0  0  0  0  0  0  0  0  0
    6.2521   -0.0395   22.7619 H   0  0  0  0  0  0  0  0  0  0  0  0
    5.3942    0.6103   20.0815 C   0  0  0  0  0  0  0  0  0  0  0  0
    4.9542    0.6392   21.0817 H   0  0  0  0  0  0  0  0  0  0  0  0
    4.7893    1.2996   19.0374 C   0  0  0  0  0  0  0  0  0  0  0  0
    3.8734    1.8582   19.1864 H   0  0  0  0  0  0  0  0  0  0  0  0
  1  2  1  0
  2  3  2  0
  3  4  1  0
  4  5  1  0
  4  6  2  0
  6  7  1  0
  7  8  2  0
  8  9  1  0
  9 10  1  0
 10 11  1  0
 10 12  2  0
 12 13  1  0
 12 14  1  0
 14 15  1  0
 15 16  2  0
 16 17  1  0
 16 18  1  0
 18 19  1  0
 18 20  1  0
 20 21  2  0
 21 22  1  0
 21 23  1  0
 23 24  1  0
 23 25  2  0
 25 26  1  0
 25 27  1  0
 27 28  1  0
 27 29  2  0
 14 30  1  0
 30 31  2  0
 31 32  1  0
  6 33  1  0
 33 34  1  0
 33 35  2  0
 35 36  1  0
 35  2  1  0
 31  7  1  0
 30  9  1  0
 29 15  1  0
 29 20  1  0
M  END
>  <cnnaffinity>  (1) 
-5.76597

>  <filename>  (1) 
c1cncc(-c2cc3n(-c4c[nH]c5ccccc45)ccn3n2)c1

$$$$
