
     RDKit          3D

 36 39  0  0  0  0  0  0  0  0999 V2000
    4.9632    1.7725   16.9885 H   0  0  0  0  0  0  0  0  0  0  0  0
    5.4057    1.2776   17.8474 C   0  0  0  0  0  0  0  0  0  0  0  0
    6.5694    0.6475   17.6248 N   0  0  0  0  0  0  0  0  0  0  0  0
    7.1682    0.0784   18.6739 C   0  0  0  0  0  0  0  0  0  0  0  0
    8.1132   -0.4185   18.4454 H   0  0  0  0  0  0  0  0  0  0  0  0
    6.6591    0.1056   19.9896 C   0  0  0  0  0  0  0  0  0  0  0  0
    7.4160   -0.5700   21.0606 C   0  0  0  0  0  0  0  0  0  0  0  0
    8.2309   -1.6367   20.9087 C   0  0  0  0  0  0  0  0  0  0  0  0
    8.5381   -2.0628   19.9795 H   0  0  0  0  0  0  0  0  0  0  0  0
    8.8409   -2.2781   22.4055 S   0  0  0  0  0  0  0  0  0  0  0  0
    8.0800   -0.9667   23.2492 C   0  0  0  0  0  0  0  0  0  0  0  0
    8.0850   -0.4718   24.4672 N   0  0  0  0  0  0  0  0  0  0  0  0
    7.3144    0.6437   24.2895 C   0  0  0  0  0  0  0  0  0  0  0  0
    7.0543    1.5058   25.2542 O   0  0  0  0  0  0  0  0  0  0  0  0
    7.5645    1.2242   26.5759 C   0  0  0  0  0  0  0  0  0  0  0  0
    8.6020    0.8857   26.4908 H   0  0  0  0  0  0  0  0  0  0  0  0
    6.7115    0.1391   27.2273 C   0  0  0  0  0  0  0  0  0  0  0  0
    6.7363   -0.7615   26.6096 H   0  0  0  0  0  0  0  0  0  0  0  0
    7.1652   -0.1112   28.1961 H   0  0  0  0  0  0  0  0  0  0  0  0
    5.2774    0.6320   27.4401 C   0  0  0  0  0  0  0  0  0  0  0  0
    4.7696    0.7656   26.4770 H   0  0  0  0  0  0  0  0  0  0  0  0
    4.6921   -0.1164   27.9884 H   0  0  0  0  0  0  0  0  0  0  0  0
    5.2439    1.9018   28.1765 N   0  0  0  0  0  0  0  0  0  0  0  0
    5.6777    1.7272   29.0814 H   0  0  0  0  0  0  0  0  0  0  0  0
    6.0266    2.9583   27.5246 C   0  0  0  0  0  0  0  0  0  0  0  0
    5.9688    3.8669   28.1344 H   0  0  0  0  0  0  0  0  0  0  0  0
    5.5478    3.2004   26.5684 H   0  0  0  0  0  0  0  0  0  0  0  0
    7.4895    2.5534   27.3087 C   0  0  0  0  0  0  0  0  0  0  0  0
    8.0258    3.2982   26.7144 H   0  0  0  0  0  0  0  0  0  0  0  0
    7.9961    2.4615   28.2794 H   0  0  0  0  0  0  0  0  0  0  0  0
    6.8388    0.8677   23.0728 N   0  0  0  0  0  0  0  0  0  0  0  0
    7.3469   -0.2117   22.4054 N   0  0  0  0  0  0  0  0  0  0  0  0
    5.4135    0.7347   20.1897 C   0  0  0  0  0  0  0  0  0  0  0  0
    4.9592    0.7540   21.1811 H   0  0  0  0  0  0  0  0  0  0  0  0
    4.7838    1.3280   19.0975 C   0  0  0  0  0  0  0  0  0  0  0  0
    3.8344    1.8448   19.1980 H   0  0  0  0  0  0  0  0  0  0  0  0
  1  2  1  0
  2  3  2  0
  3  4  1  0
  4  5  1  0
  4  6  2  0
  6  7  1  0
  7  8  2  0
  8  9  1  0
  8 10  1  0
 10 11  1  0
 11 12  2  0
 12 13  1  0
 13 14  1  0
 14 15  1  0
 15 16  1  0
 15 17  1  0
 17 18  1  0
 17 19  1  0
 17 20  1  0
 20 21  1  0
 20 22  1  0
 20 23  1  0
 23 24  1  0
 23 25  1  0
 25 26  1  0
 25 27  1  0
 25 28  1  0
 28 29  1  0
 28 30  1  0
 13 31  2  0
 31 32  1  0
  6 33  1  0
 33 34  1  0
 33 35  2  0
 35 36  1  0
 35  2  1  0
 32  7  1  0
 32 11  1  0
 28 15  1  0
M  END
>  <cnnaffinity>  (1) 
-5.18308

>  <filename>  (1) 
c1cncc(-c2csc3nc(OC4CCNCC4)nn23)c1

$$$$
