
     RDKit          3D

 39 41  0  0  0  0  0  0  0  0999 V2000
    4.9879    1.8163   16.8491 H   0  0  0  0  0  0  0  0  0  0  0  0
    5.3823    1.3757   17.7614 C   0  0  0  0  0  0  0  0  0  0  0  0
    6.5583    0.7400   17.6363 N   0  0  0  0  0  0  0  0  0  0  0  0
    7.0578    0.1672   18.7369 C   0  0  0  0  0  0  0  0  0  0  0  0
    8.0289   -0.3185   18.6259 H   0  0  0  0  0  0  0  0  0  0  0  0
    6.4316    0.1803   19.9988 C   0  0  0  0  0  0  0  0  0  0  0  0
    7.0424   -0.5782   21.1201 C   0  0  0  0  0  0  0  0  0  0  0  0
    7.4556   -1.8989   20.9310 C   0  0  0  0  0  0  0  0  0  0  0  0
    7.2238   -2.3880   20.0004 H   0  0  0  0  0  0  0  0  0  0  0  0
    8.1207   -2.5642   21.9592 C   0  0  0  0  0  0  0  0  0  0  0  0
    8.5122   -3.5680   21.8148 H   0  0  0  0  0  0  0  0  0  0  0  0
    8.3678   -2.0148   23.1522 N   0  0  0  0  0  0  0  0  0  0  0  0
    7.9721   -0.7471   23.3548 C   0  0  0  0  0  0  0  0  0  0  0  0
    8.3724   -0.1351   24.6771 C   0  0  0  0  0  0  0  0  0  0  0  0
    8.4581   -0.9522   25.3988 H   0  0  0  0  0  0  0  0  0  0  0  0
    7.5750    0.5220   25.0501 H   0  0  0  0  0  0  0  0  0  0  0  0
    9.7146    0.6421   24.6368 C   0  0  0  0  0  0  0  0  0  0  0  0
    9.8801    1.0292   25.6565 H   0  0  0  0  0  0  0  0  0  0  0  0
   10.9129   -0.2542   24.2639 C   0  0  0  0  0  0  0  0  0  0  0  0
   10.9067   -1.1695   24.8709 H   0  0  0  0  0  0  0  0  0  0  0  0
   10.7719   -0.5808   23.2229 H   0  0  0  0  0  0  0  0  0  0  0  0
   12.2516    0.4985   24.3713 C   0  0  0  0  0  0  0  0  0  0  0  0
   13.0675   -0.1477   24.0225 H   0  0  0  0  0  0  0  0  0  0  0  0
   12.4618    0.7314   25.4261 H   0  0  0  0  0  0  0  0  0  0  0  0
   12.2420    1.7806   23.5125 C   0  0  0  0  0  0  0  0  0  0  0  0
   13.1454    2.3778   23.7025 H   0  0  0  0  0  0  0  0  0  0  0  0
   12.2915    1.4771   22.4567 H   0  0  0  0  0  0  0  0  0  0  0  0
   10.9821    2.6501   23.7005 C   0  0  0  0  0  0  0  0  0  0  0  0
   11.0345    3.1933   24.6508 H   0  0  0  0  0  0  0  0  0  0  0  0
   10.9446    3.4148   22.9151 H   0  0  0  0  0  0  0  0  0  0  0  0
    9.6826    1.8314   23.6611 C   0  0  0  0  0  0  0  0  0  0  0  0
    9.5503    1.4357   22.6422 H   0  0  0  0  0  0  0  0  0  0  0  0
    8.8108    2.4699   23.8640 H   0  0  0  0  0  0  0  0  0  0  0  0
    7.2880   -0.0137   22.3722 C   0  0  0  0  0  0  0  0  0  0  0  0
    7.0245    1.0149   22.5656 H   0  0  0  0  0  0  0  0  0  0  0  0
    5.2347    0.9047   20.1186 C   0  0  0  0  0  0  0  0  0  0  0  0
    4.7442    0.9983   21.0908 H   0  0  0  0  0  0  0  0  0  0  0  0
    4.6866    1.4869   18.9724 C   0  0  0  0  0  0  0  0  0  0  0  0
    3.7482    2.0331   19.0015 H   0  0  0  0  0  0  0  0  0  0  0  0
  1  2  1  0
  2  3  2  0
  3  4  1  0
  4  5  1  0
  4  6  2  0
  6  7  1  0
  7  8  2  0
  8  9  1  0
  8 10  1  0
 10 11  1  0
 10 12  2  0
 12 13  1  0
 13 14  1  0
 14 15  1  0
 14 16  1  0
 14 17  1  0
 17 18  1  0
 17 19  1  0
 19 20  1  0
 19 21  1  0
 19 22  1  0
 22 23  1  0
 22 24  1  0
 22 25  1  0
 25 26  1  0
 25 27  1  0
 25 28  1  0
 28 29  1  0
 28 30  1  0
 28 31  1  0
 31 32  1  0
 31 33  1  0
 13 34  2  0
 34 35  1  0
  6 36  1  0
 36 37  1  0
 36 38  2  0
 38 39  1  0
 38  2  1  0
 34  7  1  0
 31 17  1  0
M  END
>  <cnnaffinity>  (1) 
-5.55733

>  <filename>  (1) 
c1cncc(-c2ccnc(CC3CCCCC3)c2)c1

$$$$
