
     RDKit          3D

 41 45  0  0  0  0  0  0  0  0999 V2000
    4.9463    1.8192   16.9762 H   0  0  0  0  0  0  0  0  0  0  0  0
    5.4029    1.2938   17.8125 C   0  0  0  0  0  0  0  0  0  0  0  0
    6.5635    0.6665   17.5572 N   0  0  0  0  0  0  0  0  0  0  0  0
    7.1517    0.0207   18.5678 C   0  0  0  0  0  0  0  0  0  0  0  0
    8.1056   -0.4518   18.3355 H   0  0  0  0  0  0  0  0  0  0  0  0
    6.6221   -0.0279   19.8691 C   0  0  0  0  0  0  0  0  0  0  0  0
    7.3597   -0.6766   20.9539 C   0  0  0  0  0  0  0  0  0  0  0  0
    8.0711   -1.7799   20.7380 N   0  0  0  0  0  0  0  0  0  0  0  0
    8.5549   -2.0776   21.9416 N   0  0  0  0  0  0  0  0  0  0  0  0
    8.2397   -1.2351   22.9194 C   0  0  0  0  0  0  0  0  0  0  0  0
    7.4606   -0.2604   22.3216 C   0  0  0  0  0  0  0  0  0  0  0  0
    7.0888    0.9865   22.9645 C   0  0  0  0  0  0  0  0  0  0  0  0
    6.6117    0.9622   24.2834 C   0  0  0  0  0  0  0  0  0  0  0  0
    6.4722    0.0053   24.7787 H   0  0  0  0  0  0  0  0  0  0  0  0
    6.2906    2.1451   24.9436 C   0  0  0  0  0  0  0  0  0  0  0  0
    5.9065    2.1788   25.9586 H   0  0  0  0  0  0  0  0  0  0  0  0
    6.4737    3.3621   24.2922 C   0  0  0  0  0  0  0  0  0  0  0  0
    6.9625    3.3891   22.9649 C   0  0  0  0  0  0  0  0  0  0  0  0
    7.2791    2.2124   22.3139 C   0  0  0  0  0  0  0  0  0  0  0  0
    7.6629    2.2783   21.3001 H   0  0  0  0  0  0  0  0  0  0  0  0
    7.1720    4.5630   22.2996 O   0  0  0  0  0  0  0  0  0  0  0  0
    6.5053    5.6975   22.8487 C   0  0  0  0  0  0  0  0  0  0  0  0
    5.4450    5.6707   22.5583 H   0  0  0  0  0  0  0  0  0  0  0  0
    7.0054    6.5613   22.4052 H   0  0  0  0  0  0  0  0  0  0  0  0
    6.6364    5.7166   24.3716 C   0  0  0  0  0  0  0  0  0  0  0  0
    6.0342    6.5199   24.8032 H   0  0  0  0  0  0  0  0  0  0  0  0
    7.6944    5.8245   24.6497 H   0  0  0  0  0  0  0  0  0  0  0  0
    6.1276    4.5127   24.9491 O   0  0  0  0  0  0  0  0  0  0  0  0
    9.0752   -1.4918   24.1479 C   0  0  0  0  0  0  0  0  0  0  0  0
    8.4654   -1.6949   25.0344 H   0  0  0  0  0  0  0  0  0  0  0  0
    9.6763   -0.6006   24.3603 H   0  0  0  0  0  0  0  0  0  0  0  0
    9.9419   -2.7106   23.7239 C   0  0  0  0  0  0  0  0  0  0  0  0
    9.7613   -3.5823   24.3509 H   0  0  0  0  0  0  0  0  0  0  0  0
   11.0018   -2.4841   23.7804 H   0  0  0  0  0  0  0  0  0  0  0  0
    9.5675   -3.0417   22.2563 C   0  0  0  0  0  0  0  0  0  0  0  0
   10.4037   -2.8886   21.5711 H   0  0  0  0  0  0  0  0  0  0  0  0
    9.1527   -4.0452   22.1496 H   0  0  0  0  0  0  0  0  0  0  0  0
    5.4028    0.6206   20.1143 C   0  0  0  0  0  0  0  0  0  0  0  0
    4.9835    0.6361   21.1214 H   0  0  0  0  0  0  0  0  0  0  0  0
    4.7852    1.2950   19.0672 C   0  0  0  0  0  0  0  0  0  0  0  0
    3.8622    1.8451   19.2234 H   0  0  0  0  0  0  0  0  0  0  0  0
  1  2  1  0
  2  3  2  0
  3  4  1  0
  4  5  1  0
  4  6  2  0
  6  7  1  0
  7  8  2  0
  8  9  1  0
  9 10  1  0
 10 11  2  0
 11 12  1  0
 12 13  2  0
 13 14  1  0
 13 15  1  0
 15 16  1  0
 15 17  2  0
 17 18  1  0
 18 19  2  0
 19 20  1  0
 18 21  1  0
 21 22  1  0
 22 23  1  0
 22 24  1  0
 22 25  1  0
 25 26  1  0
 25 27  1  0
 25 28  1  0
 10 29  1  0
 29 30  1  0
 29 31  1  0
 29 32  1  0
 32 33  1  0
 32 34  1  0
 32 35  1  0
 35 36  1  0
 35 37  1  0
  6 38  1  0
 38 39  1  0
 38 40  2  0
 40 41  1  0
 40  2  1  0
 11  7  1  0
 19 12  1  0
 35  9  1  0
 28 17  1  0
M  END
>  <cnnaffinity>  (1) 
-5.58948

>  <filename>  (1) 
c1cncc(-c2nn3c(c2-c2ccc4c(c2)OCCO4)CCC3)c1

$$$$
