
     RDKit          3D

 34 36  0  0  0  0  0  0  0  0999 V2000
    4.9204    1.7805   16.9944 H   0  0  0  0  0  0  0  0  0  0  0  0
    5.4074    1.2761   17.8254 C   0  0  0  0  0  0  0  0  0  0  0  0
    6.5698    0.6598   17.5460 N   0  0  0  0  0  0  0  0  0  0  0  0
    7.1960    0.0546   18.5635 C   0  0  0  0  0  0  0  0  0  0  0  0
    8.1390   -0.4365   18.3231 H   0  0  0  0  0  0  0  0  0  0  0  0
    6.7240    0.0050   19.8966 C   0  0  0  0  0  0  0  0  0  0  0  0
    7.5006   -0.6037   20.9072 N   0  0  0  0  0  0  0  0  0  0  0  0
    8.4963   -0.6462   20.7212 H   0  0  0  0  0  0  0  0  0  0  0  0
    7.0455   -1.5770   21.8330 C   0  0  0  0  0  0  0  0  0  0  0  0
    5.8816   -2.3927   21.7951 C   0  0  0  0  0  0  0  0  0  0  0  0
    5.1585   -2.4862   20.9962 H   0  0  0  0  0  0  0  0  0  0  0  0
    5.7181   -3.1087   22.8985 N   0  0  0  0  0  0  0  0  0  0  0  0
    6.8182   -2.8067   23.6374 N   0  0  0  0  0  0  0  0  0  0  0  0
    6.8335   -2.9556   24.6335 H   0  0  0  0  0  0  0  0  0  0  0  0
    7.6536   -1.9236   23.0387 C   0  0  0  0  0  0  0  0  0  0  0  0
    8.9218   -1.6507   23.5580 N   0  0  0  0  0  0  0  0  0  0  0  0
    9.2488   -0.7452   23.2461 H   0  0  0  0  0  0  0  0  0  0  0  0
    9.2529   -1.9131   24.9610 C   0  0  0  0  0  0  0  0  0  0  0  0
   10.3204   -1.7086   25.0734 H   0  0  0  0  0  0  0  0  0  0  0  0
    9.1136   -2.9812   25.1762 H   0  0  0  0  0  0  0  0  0  0  0  0
    8.4863   -1.0836   25.9915 C   0  0  0  0  0  0  0  0  0  0  0  0
    7.6471   -1.6705   26.9558 C   0  0  0  0  0  0  0  0  0  0  0  0
    7.5761   -2.7484   27.0734 H   0  0  0  0  0  0  0  0  0  0  0  0
    6.8991   -0.8534   27.8096 C   0  0  0  0  0  0  0  0  0  0  0  0
    6.1977   -1.3099   28.5079 H   0  0  0  0  0  0  0  0  0  0  0  0
    6.9942    0.4806   27.8451 N   0  0  0  0  0  0  0  0  0  0  0  0
    7.8473    1.0411   26.9768 C   0  0  0  0  0  0  0  0  0  0  0  0
    7.9512    2.1256   27.0389 H   0  0  0  0  0  0  0  0  0  0  0  0
    8.5837    0.3195   26.0338 C   0  0  0  0  0  0  0  0  0  0  0  0
    9.2281    0.8664   25.3526 H   0  0  0  0  0  0  0  0  0  0  0  0
    5.4992    0.6400   20.1624 C   0  0  0  0  0  0  0  0  0  0  0  0
    5.0921    0.6490   21.1749 H   0  0  0  0  0  0  0  0  0  0  0  0
    4.8389    1.2834   19.1043 C   0  0  0  0  0  0  0  0  0  0  0  0
    3.8980    1.7988   19.2625 H   0  0  0  0  0  0  0  0  0  0  0  0
  1  2  1  0
  2  3  2  0
  3  4  1  0
  4  5  1  0
  4  6  2  0
  6  7  1  0
  7  8  1  0
  7  9  1  0
  9 10  1  0
 10 11  1  0
 10 12  2  0
 12 13  1  0
 13 14  1  0
 13 15  1  0
 15 16  1  0
 16 17  1  0
 16 18  1  0
 18 19  1  0
 18 20  1  0
 18 21  1  0
 21 22  2  0
 22 23  1  0
 22 24  1  0
 24 25  1  0
 24 26  2  0
 26 27  1  0
 27 28  1  0
 27 29  2  0
 29 30  1  0
  6 31  1  0
 31 32  1  0
 31 33  2  0
 33 34  1  0
 33  2  1  0
 15  9  2  0
 29 21  1  0
M  END
>  <cnnaffinity>  (1) 
-5.51078

>  <filename>  (1) 
c1cncc(Nc2cn[nH]c2NCc2ccncc2)c1

$$$$
