
     RDKit          3D

 33 36  0  0  0  0  0  0  0  0999 V2000
   12.9867    4.2565   23.5729 H   0  0  0  0  0  0  0  0  0  0  0  0
   12.5753    3.3090   23.2240 C   0  0  0  0  0  0  0  0  0  0  0  0
   13.4401    2.3964   22.7850 N   0  0  0  0  0  0  0  0  0  0  0  0
   12.9185    1.2532   22.3378 C   0  0  0  0  0  0  0  0  0  0  0  0
   13.6396    0.5142   21.9700 H   0  0  0  0  0  0  0  0  0  0  0  0
   11.5464    0.9809   22.3229 C   0  0  0  0  0  0  0  0  0  0  0  0
   10.9325   -0.3076   21.8179 C   0  0  1  0  0  0  0  0  0  0  0  0
   11.7357   -0.9219   21.3973 H   0  0  0  0  0  0  0  0  0  0  0  0
   10.2340   -1.1312   22.9602 C   0  0  0  0  0  0  0  0  0  0  0  0
   10.3677   -0.6782   23.9485 H   0  0  0  0  0  0  0  0  0  0  0  0
   10.6407   -2.1483   23.0186 H   0  0  0  0  0  0  0  0  0  0  0  0
    8.7974   -1.1355   22.5435 C   0  0  0  0  0  0  0  0  0  0  0  0
    7.6863   -1.6004   23.0826 N   0  0  0  0  0  0  0  0  0  0  0  0
    6.7350   -1.2525   22.1773 N   0  0  0  0  0  0  0  0  0  0  0  0
    5.7834   -1.5421   22.3524 H   0  0  0  0  0  0  0  0  0  0  0  0
    7.2247   -0.5983   21.0791 C   0  0  0  0  0  0  0  0  0  0  0  0
    6.4617   -0.0004   19.9648 C   0  0  0  0  0  0  0  0  0  0  0  0
    7.0518    0.0170   18.6840 C   0  0  0  0  0  0  0  0  0  0  0  0
    7.9816   -0.5206   18.5183 H   0  0  0  0  0  0  0  0  0  0  0  0
    6.5424    0.6350   17.6100 N   0  0  0  0  0  0  0  0  0  0  0  0
    5.3948    1.3068   17.7815 C   0  0  0  0  0  0  0  0  0  0  0  0
    5.0132    1.8359   16.9067 H   0  0  0  0  0  0  0  0  0  0  0  0
    4.7083    1.3404   19.0022 C   0  0  0  0  0  0  0  0  0  0  0  0
    3.7917    1.9119   19.0709 H   0  0  0  0  0  0  0  0  0  0  0  0
    5.2357    0.6728   20.1115 C   0  0  0  0  0  0  0  0  0  0  0  0
    4.7228    0.6993   21.0760 H   0  0  0  0  0  0  0  0  0  0  0  0
    8.5833   -0.5345   21.3102 C   0  0  0  0  0  0  0  0  0  0  0  0
    9.8537   -0.0619   20.7012 C   0  0  0  0  0  0  0  0  0  0  0  0
   10.0949   -0.6573   19.8178 H   0  0  0  0  0  0  0  0  0  0  0  0
    9.8023    0.9837   20.3675 H   0  0  0  0  0  0  0  0  0  0  0  0
   10.7582    2.0118   22.8432 C   0  0  0  0  0  0  0  0  0  0  0  0
    9.6721    1.8954   22.9060 H   0  0  0  0  0  0  0  0  0  0  0  0
   11.2545    3.1679   23.2928 N   0  0  0  0  0  0  0  0  0  0  0  0
  1  2  1  0
  2  3  2  0
  3  4  1  0
  4  5  1  0
  4  6  2  0
  6  7  1  0
  7  8  1  6
  7  9  1  0
  9 10  1  0
  9 11  1  0
  9 12  1  0
 12 13  2  0
 13 14  1  0
 14 15  1  0
 14 16  1  0
 16 17  1  0
 17 18  2  0
 18 19  1  0
 18 20  1  0
 20 21  2  0
 21 22  1  0
 21 23  1  0
 23 24  1  0
 23 25  2  0
 25 26  1  0
 16 27  2  0
 27 28  1  0
 28 29  1  0
 28 30  1  0
  6 31  1  0
 31 32  1  0
 31 33  2  0
 33  2  1  0
 28  7  1  0
 27 12  1  0
 25 17  1  0
M  END
>  <cnnaffinity>  (1) 
-5.70537

>  <filename>  (1) 
c1cncc(-c2[nH]nc3c2C[C@@H](c2cncnc2)C3)c1

$$$$
