
     RDKit          3D

 32 35  0  0  0  0  0  0  0  0999 V2000
    4.9507    1.8031   16.9647 H   0  0  0  0  0  0  0  0  0  0  0  0
    5.4045    1.3166   17.8217 C   0  0  0  0  0  0  0  0  0  0  0  0
    6.5765    0.7015   17.5992 N   0  0  0  0  0  0  0  0  0  0  0  0
    7.1554    0.0972   18.6436 C   0  0  0  0  0  0  0  0  0  0  0  0
    8.1100   -0.3868   18.4316 H   0  0  0  0  0  0  0  0  0  0  0  0
    6.6172    0.0640   19.9534 C   0  0  0  0  0  0  0  0  0  0  0  0
    7.2995   -0.6876   21.0416 C   0  0  0  0  0  0  0  0  0  0  0  0
    7.7663   -1.9789   21.0837 C   0  0  0  0  0  0  0  0  0  0  0  0
    7.7192   -2.7567   20.3499 H   0  0  0  0  0  0  0  0  0  0  0  0
    8.2875   -2.2421   22.3054 N   0  0  0  0  0  0  0  0  0  0  0  0
    8.1578   -1.2116   23.0567 N   0  0  0  0  0  0  0  0  0  0  0  0
    7.5414   -0.2451   22.3340 N   0  0  0  0  0  0  0  0  0  0  0  0
    7.2352    0.9882   22.9686 C   0  0  0  0  0  0  0  0  0  0  0  0
    6.8088    0.9459   24.2043 N   0  0  0  0  0  0  0  0  0  0  0  0
    6.4889    2.1299   24.7956 C   0  0  0  0  0  0  0  0  0  0  0  0
    5.9951    2.0679   26.1291 C   0  0  0  0  0  0  0  0  0  0  0  0
    5.9044    1.0633   26.5363 H   0  0  0  0  0  0  0  0  0  0  0  0
    5.6773    3.2197   26.8117 C   0  0  0  0  0  0  0  0  0  0  0  0
    5.3183    3.1709   27.8417 H   0  0  0  0  0  0  0  0  0  0  0  0
    5.8322    4.4897   26.1740 C   0  0  0  0  0  0  0  0  0  0  0  0
    5.5884    5.3925   26.7306 H   0  0  0  0  0  0  0  0  0  0  0  0
    6.2954    4.5802   24.8752 C   0  0  0  0  0  0  0  0  0  0  0  0
    6.4134    5.5456   24.3812 H   0  0  0  0  0  0  0  0  0  0  0  0
    6.6391    3.4014   24.1484 C   0  0  0  0  0  0  0  0  0  0  0  0
    7.1366    3.3933   22.8047 C   0  0  0  0  0  0  0  0  0  0  0  0
    7.2732    4.3277   22.2548 H   0  0  0  0  0  0  0  0  0  0  0  0
    7.4327    2.1872   22.2206 C   0  0  0  0  0  0  0  0  0  0  0  0
    7.7997    2.0840   21.2096 H   0  0  0  0  0  0  0  0  0  0  0  0
    5.3734    0.6985   20.1440 C   0  0  0  0  0  0  0  0  0  0  0  0
    4.9006    0.6964   21.1286 H   0  0  0  0  0  0  0  0  0  0  0  0
    4.7662    1.3395   19.0643 C   0  0  0  0  0  0  0  0  0  0  0  0
    3.8127    1.8471   19.1700 H   0  0  0  0  0  0  0  0  0  0  0  0
  1  2  1  0
  2  3  2  0
  3  4  1  0
  4  5  1  0
  4  6  2  0
  6  7  1  0
  7  8  2  0
  8  9  1  0
  8 10  1  0
 10 11  2  0
 11 12  1  0
 12 13  1  0
 13 14  2  0
 14 15  1  0
 15 16  2  0
 16 17  1  0
 16 18  1  0
 18 19  1  0
 18 20  2  0
 20 21  1  0
 20 22  1  0
 22 23  1  0
 22 24  2  0
 24 25  1  0
 25 26  1  0
 25 27  2  0
 27 28  1  0
  6 29  1  0
 29 30  1  0
 29 31  2  0
 31 32  1  0
 31  2  1  0
 12  7  1  0
 27 13  1  0
 24 15  1  0
M  END
>  <cnnaffinity>  (1) 
-5.04281

>  <filename>  (1) 
c1cncc(-c2cnnn2-c2ccc3ccccc3n2)c1

$$$$
