
     RDKit          3D

 35 38  0  0  0  0  0  0  0  0999 V2000
    4.9820    1.8561   16.9314 H   0  0  0  0  0  0  0  0  0  0  0  0
    5.3858    1.3177   17.7873 C   0  0  0  0  0  0  0  0  0  0  0  0
    6.5394    0.6632   17.5825 N   0  0  0  0  0  0  0  0  0  0  0  0
    7.0768    0.0344   18.6378 C   0  0  0  0  0  0  0  0  0  0  0  0
    8.0130   -0.4874   18.4430 H   0  0  0  0  0  0  0  0  0  0  0  0
    6.5032   -0.0123   19.9274 C   0  0  0  0  0  0  0  0  0  0  0  0
    7.2633   -0.6262   21.0379 C   0  0  0  0  0  0  0  0  0  0  0  0
    8.6133   -0.5349   21.2850 C   0  0  0  0  0  0  0  0  0  0  0  0
    8.8042   -1.0473   22.5698 C   0  0  0  0  0  0  0  0  0  0  0  0
    7.6997   -1.5274   23.1017 N   0  0  0  0  0  0  0  0  0  0  0  0
    6.7564   -1.2355   22.1599 N   0  0  0  0  0  0  0  0  0  0  0  0
    5.7958   -1.4913   22.3564 H   0  0  0  0  0  0  0  0  0  0  0  0
   10.2153   -0.8273   23.0343 C   0  0  0  0  0  0  0  0  0  0  0  0
   10.7934   -1.7485   22.8934 H   0  0  0  0  0  0  0  0  0  0  0  0
   10.2962   -0.5377   24.0832 H   0  0  0  0  0  0  0  0  0  0  0  0
   10.6940    0.2912   22.0624 C   0  0  2  0  0  0  0  0  0  0  0  0
   11.7687    0.1924   21.8862 H   0  0  0  0  0  0  0  0  0  0  0  0
   10.4606    1.7328   22.6084 C   0  0  0  0  0  0  0  0  0  0  0  0
   11.0345    1.8725   23.5297 H   0  0  0  0  0  0  0  0  0  0  0  0
   10.8760    2.4364   21.8735 H   0  0  0  0  0  0  0  0  0  0  0  0
    9.0260    2.1206   22.8533 C   0  0  0  0  0  0  0  0  0  0  0  0
    8.2309    1.8002   24.3514 S   0  0  0  0  0  0  0  0  0  0  0  0
    6.7393    2.4200   23.7617 C   0  0  0  0  0  0  0  0  0  0  0  0
    5.8679    2.4058   24.3973 H   0  0  0  0  0  0  0  0  0  0  0  0
    6.8525    2.8998   22.4922 C   0  0  0  0  0  0  0  0  0  0  0  0
    6.0402    3.3592   21.9366 H   0  0  0  0  0  0  0  0  0  0  0  0
    8.1752    2.7336   21.9817 C   0  0  0  0  0  0  0  0  0  0  0  0
    8.4902    3.0531   20.9982 H   0  0  0  0  0  0  0  0  0  0  0  0
    9.8928    0.0297   20.7612 C   0  0  0  0  0  0  0  0  0  0  0  0
   10.4394   -0.7085   20.1647 H   0  0  0  0  0  0  0  0  0  0  0  0
    9.7444    0.9324   20.1605 H   0  0  0  0  0  0  0  0  0  0  0  0
    5.2685    0.6428   20.1033 C   0  0  0  0  0  0  0  0  0  0  0  0
    4.7563    0.6343   21.0691 H   0  0  0  0  0  0  0  0  0  0  0  0
    4.7216    1.3317   19.0201 C   0  0  0  0  0  0  0  0  0  0  0  0
    3.8048    1.9022   19.1197 H   0  0  0  0  0  0  0  0  0  0  0  0
  1  2  1  0
  2  3  2  0
  3  4  1  0
  4  5  1  0
  4  6  2  0
  6  7  1  0
  7  8  2  0
  8  9  1  0
  9 10  2  0
 10 11  1  0
 11 12  1  0
  9 13  1  0
 13 14  1  0
 13 15  1  0
 13 16  1  0
 16 17  1  6
 16 18  1  0
 18 19  1  0
 18 20  1  0
 18 21  1  0
 21 22  1  0
 22 23  1  0
 23 24  1  0
 23 25  2  0
 25 26  1  0
 25 27  1  0
 27 28  1  0
 16 29  1  0
 29 30  1  0
 29 31  1  0
  6 32  1  0
 32 33  1  0
 32 34  2  0
 34 35  1  0
 34  2  1  0
 11  7  1  0
 27 21  2  0
 29  8  1  0
M  END
>  <cnnaffinity>  (1) 
-5.72475

>  <filename>  (1) 
c1cncc(-c2[nH]nc3c2C[C@@H](Cc2cccs2)C3)c1

$$$$
