
     RDKit          3D

 33 36  0  0  0  0  0  0  0  0999 V2000
    4.9115    1.7850   16.9949 H   0  0  0  0  0  0  0  0  0  0  0  0
    5.3959    1.2976   17.8374 C   0  0  0  0  0  0  0  0  0  0  0  0
    6.5603    0.6831   17.5716 N   0  0  0  0  0  0  0  0  0  0  0  0
    7.1727    0.0613   18.5890 C   0  0  0  0  0  0  0  0  0  0  0  0
    8.1198   -0.4291   18.3737 H   0  0  0  0  0  0  0  0  0  0  0  0
    6.6650   -0.0094   19.9108 C   0  0  0  0  0  0  0  0  0  0  0  0
    7.3228   -0.7147   20.9262 N   0  0  0  0  0  0  0  0  0  0  0  0
    6.7684   -1.0652   21.6974 H   0  0  0  0  0  0  0  0  0  0  0  0
    8.7088   -0.7718   21.1076 C   0  0  0  0  0  0  0  0  0  0  0  0
    9.6969    0.1395   20.6726 C   0  0  0  0  0  0  0  0  0  0  0  0
    9.5309    1.0198   20.0738 H   0  0  0  0  0  0  0  0  0  0  0  0
   10.9066   -0.1871   21.1067 N   0  0  0  0  0  0  0  0  0  0  0  0
   10.7043   -1.3058   21.8150 N   0  0  0  0  0  0  0  0  0  0  0  0
   11.5007   -1.7558   22.2376 H   0  0  0  0  0  0  0  0  0  0  0  0
    9.4068   -1.7222   21.8438 C   0  0  0  0  0  0  0  0  0  0  0  0
    8.9353   -2.9175   22.5419 C   0  0  0  0  0  0  0  0  0  0  0  0
    7.8760   -3.6640   21.9985 C   0  0  0  0  0  0  0  0  0  0  0  0
    7.4493   -3.3541   21.0473 H   0  0  0  0  0  0  0  0  0  0  0  0
    7.3760   -4.8060   22.6507 C   0  0  0  0  0  0  0  0  0  0  0  0
    6.5582   -5.3880   22.2392 H   0  0  0  0  0  0  0  0  0  0  0  0
    7.9713   -5.1492   23.8510 C   0  0  0  0  0  0  0  0  0  0  0  0
    9.0290   -4.4185   24.3972 C   0  0  0  0  0  0  0  0  0  0  0  0
    9.5308   -3.3054   23.7716 C   0  0  0  0  0  0  0  0  0  0  0  0
   10.3367   -2.7368   24.2196 H   0  0  0  0  0  0  0  0  0  0  0  0
    9.4264   -4.9853   25.5752 O   0  0  0  0  0  0  0  0  0  0  0  0
    8.5836   -6.1169   25.7702 C   0  0  0  0  0  0  0  0  0  0  0  0
    9.1885   -7.0307   25.8049 H   0  0  0  0  0  0  0  0  0  0  0  0
    8.0215   -6.0144   26.7029 H   0  0  0  0  0  0  0  0  0  0  0  0
    7.6670   -6.1729   24.6850 O   0  0  0  0  0  0  0  0  0  0  0  0
    5.4434    0.6348   20.1624 C   0  0  0  0  0  0  0  0  0  0  0  0
    5.0198    0.6214   21.1684 H   0  0  0  0  0  0  0  0  0  0  0  0
    4.8110    1.3069   19.1094 C   0  0  0  0  0  0  0  0  0  0  0  0
    3.8799    1.8392   19.2639 H   0  0  0  0  0  0  0  0  0  0  0  0
  1  2  1  0
  2  3  2  0
  3  4  1  0
  4  5  1  0
  4  6  2  0
  6  7  1  0
  7  8  1  0
  7  9  1  0
  9 10  1  0
 10 11  1  0
 10 12  2  0
 12 13  1  0
 13 14  1  0
 13 15  1  0
 15 16  1  0
 16 17  2  0
 17 18  1  0
 17 19  1  0
 19 20  1  0
 19 21  2  0
 21 22  1  0
 22 23  2  0
 23 24  1  0
 22 25  1  0
 25 26  1  0
 26 27  1  0
 26 28  1  0
 26 29  1  0
  6 30  1  0
 30 31  1  0
 30 32  2  0
 32 33  1  0
 32  2  1  0
 15  9  2  0
 23 16  1  0
 29 21  1  0
M  END
>  <cnnaffinity>  (1) 
-5.59173

>  <filename>  (1) 
c1cncc(Nc2cn[nH]c2-c2ccc3c(c2)OCO3)c1

$$$$
