
     RDKit          3D

 37 40  0  0  0  0  0  0  0  0999 V2000
    4.9525    1.8451   16.9522 H   0  0  0  0  0  0  0  0  0  0  0  0
    5.3842    1.3149   17.7962 C   0  0  0  0  0  0  0  0  0  0  0  0
    6.5384    0.6693   17.5719 N   0  0  0  0  0  0  0  0  0  0  0  0
    7.1007    0.0409   18.6163 C   0  0  0  0  0  0  0  0  0  0  0  0
    8.0424   -0.4619   18.3929 H   0  0  0  0  0  0  0  0  0  0  0  0
    6.5417   -0.0039   19.9128 C   0  0  0  0  0  0  0  0  0  0  0  0
    7.2887   -0.6311   21.0234 C   0  0  0  0  0  0  0  0  0  0  0  0
    8.6377   -0.5791   21.2565 C   0  0  0  0  0  0  0  0  0  0  0  0
    8.8350   -1.0879   22.5444 C   0  0  0  0  0  0  0  0  0  0  0  0
    7.7250   -1.5417   23.0872 N   0  0  0  0  0  0  0  0  0  0  0  0
    6.7806   -1.2251   22.1516 N   0  0  0  0  0  0  0  0  0  0  0  0
    5.8118   -1.3839   22.3923 H   0  0  0  0  0  0  0  0  0  0  0  0
   10.2501   -0.8592   22.9971 C   0  0  0  0  0  0  0  0  0  0  0  0
   10.3493   -0.5716   24.0461 H   0  0  0  0  0  0  0  0  0  0  0  0
   10.8254   -1.7781   22.8601 H   0  0  0  0  0  0  0  0  0  0  0  0
   10.7135    0.2612   22.0170 C   0  0  2  0  0  0  0  0  0  0  0  0
   11.7826    0.1634   21.8086 H   0  0  0  0  0  0  0  0  0  0  0  0
   10.4749    1.6880   22.5864 C   0  0  0  0  0  0  0  0  0  0  0  0
   10.9182    2.4080   21.8868 H   0  0  0  0  0  0  0  0  0  0  0  0
   11.0395    1.7870   23.5221 H   0  0  0  0  0  0  0  0  0  0  0  0
    9.0257    2.0599   22.8232 C   0  0  0  0  0  0  0  0  0  0  0  0
    8.3675    1.7336   24.0126 C   0  0  0  0  0  0  0  0  0  0  0  0
    8.8791    1.2106   24.8126 H   0  0  0  0  0  0  0  0  0  0  0  0
    7.0169    2.0625   24.1645 C   0  0  0  0  0  0  0  0  0  0  0  0
    6.5013    1.8174   25.0925 H   0  0  0  0  0  0  0  0  0  0  0  0
    6.2946    2.7008   23.2365 N   0  0  0  0  0  0  0  0  0  0  0  0
    6.9288    3.0280   22.1000 C   0  0  0  0  0  0  0  0  0  0  0  0
    6.3429    3.5664   21.3541 H   0  0  0  0  0  0  0  0  0  0  0  0
    8.2732    2.7344   21.8531 C   0  0  0  0  0  0  0  0  0  0  0  0
    8.7276    3.0542   20.9219 H   0  0  0  0  0  0  0  0  0  0  0  0
    9.8921    0.0176   20.7269 C   0  0  0  0  0  0  0  0  0  0  0  0
   10.4152   -0.7028   20.0978 H   0  0  0  0  0  0  0  0  0  0  0  0
    9.7493    0.9286   20.1347 H   0  0  0  0  0  0  0  0  0  0  0  0
    5.3220    0.6693   20.1101 C   0  0  0  0  0  0  0  0  0  0  0  0
    4.8711    0.7023   21.1017 H   0  0  0  0  0  0  0  0  0  0  0  0
    4.7362    1.3388   19.0361 C   0  0  0  0  0  0  0  0  0  0  0  0
    3.8174    1.9019   19.1627 H   0  0  0  0  0  0  0  0  0  0  0  0
  1  2  1  0
  2  3  2  0
  3  4  1  0
  4  5  1  0
  4  6  2  0
  6  7  1  0
  7  8  2  0
  8  9  1  0
  9 10  2  0
 10 11  1  0
 11 12  1  0
  9 13  1  0
 13 14  1  0
 13 15  1  0
 13 16  1  0
 16 17  1  6
 16 18  1  0
 18 19  1  0
 18 20  1  0
 18 21  1  0
 21 22  2  0
 22 23  1  0
 22 24  1  0
 24 25  1  0
 24 26  2  0
 26 27  1  0
 27 28  1  0
 27 29  2  0
 29 30  1  0
 16 31  1  0
 31 32  1  0
 31 33  1  0
  6 34  1  0
 34 35  1  0
 34 36  2  0
 36 37  1  0
 36  2  1  0
 11  7  1  0
 29 21  1  0
 31  8  1  0
M  END
>  <cnnaffinity>  (1) 
-5.77952

>  <filename>  (1) 
c1cncc(-c2[nH]nc3c2C[C@@H](Cc2ccncc2)C3)c1

$$$$
