
     RDKit          3D

 35 38  0  0  0  0  0  0  0  0999 V2000
    4.9278    1.8006   16.9758 H   0  0  0  0  0  0  0  0  0  0  0  0
    5.3980    1.3010   17.8192 C   0  0  0  0  0  0  0  0  0  0  0  0
    6.5599    0.6785   17.5636 N   0  0  0  0  0  0  0  0  0  0  0  0
    7.1656    0.0662   18.5899 C   0  0  0  0  0  0  0  0  0  0  0  0
    8.1104   -0.4286   18.3598 H   0  0  0  0  0  0  0  0  0  0  0  0
    6.6478    0.0090   19.8974 C   0  0  0  0  0  0  0  0  0  0  0  0
    7.3650   -0.7158   20.9774 C   0  0  0  0  0  0  0  0  0  0  0  0
    6.6763   -1.5668   21.8550 C   0  0  0  0  0  0  0  0  0  0  0  0
    5.6072   -1.6980   21.7145 H   0  0  0  0  0  0  0  0  0  0  0  0
    7.3529   -2.2431   22.8750 C   0  0  0  0  0  0  0  0  0  0  0  0
    6.7966   -2.8925   23.5476 H   0  0  0  0  0  0  0  0  0  0  0  0
    8.7346   -2.0756   23.0288 C   0  0  0  0  0  0  0  0  0  0  0  0
    9.2606   -2.6005   23.8255 H   0  0  0  0  0  0  0  0  0  0  0  0
    9.4444   -1.2201   22.1647 C   0  0  0  0  0  0  0  0  0  0  0  0
   10.9141   -1.0354   22.2744 C   0  0  0  0  0  0  0  0  0  0  0  0
   11.7749   -2.1339   22.2328 C   0  0  0  0  0  0  0  0  0  0  0  0
   11.3420   -3.1267   22.2355 H   0  0  0  0  0  0  0  0  0  0  0  0
   13.1722   -1.9785   22.2054 C   0  0  0  0  0  0  0  0  0  0  0  0
   13.8171   -2.8545   22.1048 H   0  0  0  0  0  0  0  0  0  0  0  0
   13.7487   -0.7329   22.4110 C   0  0  0  0  0  0  0  0  0  0  0  0
   14.8190   -0.6285   22.5348 H   0  0  0  0  0  0  0  0  0  0  0  0
   12.8927    0.3780   22.4886 C   0  0  0  0  0  0  0  0  0  0  0  0
   11.4870    0.2615   22.3677 C   0  0  0  0  0  0  0  0  0  0  0  0
   10.9658    1.6048   22.3711 C   0  0  0  0  0  0  0  0  0  0  0  0
    9.9179    1.8577   22.2443 H   0  0  0  0  0  0  0  0  0  0  0  0
   12.0283    2.4540   22.4962 C   0  0  0  0  0  0  0  0  0  0  0  0
   12.0591    3.5373   22.4509 H   0  0  0  0  0  0  0  0  0  0  0  0
   13.1887    1.7124   22.6080 N   0  0  0  0  0  0  0  0  0  0  0  0
   14.1263    2.0805   22.6303 H   0  0  0  0  0  0  0  0  0  0  0  0
    8.7450   -0.5604   21.1448 C   0  0  0  0  0  0  0  0  0  0  0  0
    9.3045    0.0903   20.4788 H   0  0  0  0  0  0  0  0  0  0  0  0
    5.4271    0.6607   20.1346 C   0  0  0  0  0  0  0  0  0  0  0  0
    5.0018    0.6568   21.1389 H   0  0  0  0  0  0  0  0  0  0  0  0
    4.7967    1.3231   19.0824 C   0  0  0  0  0  0  0  0  0  0  0  0
    3.8628    1.8536   19.2291 H   0  0  0  0  0  0  0  0  0  0  0  0
  1  2  1  0
  2  3  2  0
  3  4  1  0
  4  5  1  0
  4  6  2  0
  6  7  1  0
  7  8  2  0
  8  9  1  0
  8 10  1  0
 10 11  1  0
 10 12  2  0
 12 13  1  0
 12 14  1  0
 14 15  1  0
 15 16  2  0
 16 17  1  0
 16 18  1  0
 18 19  1  0
 18 20  2  0
 20 21  1  0
 20 22  1  0
 22 23  2  0
 23 24  1  0
 24 25  1  0
 24 26  2  0
 26 27  1  0
 26 28  1  0
 28 29  1  0
 14 30  2  0
 30 31  1  0
  6 32  1  0
 32 33  1  0
 32 34  2  0
 34 35  1  0
 34  2  1  0
 30  7  1  0
 23 15  1  0
 28 22  1  0
M  END
>  <cnnaffinity>  (1) 
-5.83761

>  <filename>  (1) 
c1cncc(-c2cccc(-c3cccc4[nH]ccc34)c2)c1

$$$$
