
     RDKit          3D

 41 44  0  0  0  0  0  0  0  0999 V2000
    4.7922    1.3156   19.0782 C   0  0  0  0  0  0  0  0  0  0  0  0
    5.3882    1.3082   17.8128 C   0  0  0  0  0  0  0  0  0  0  0  0
    6.5469    0.6857   17.5569 N   0  0  0  0  0  0  0  0  0  0  0  0
    7.1490    0.0511   18.5740 C   0  0  0  0  0  0  0  0  0  0  0  0
    6.6364   -0.0304   19.8866 C   0  0  0  0  0  0  0  0  0  0  0  0
    7.3670   -0.7217   21.0270 C   0  0  0  0  0  0  0  0  0  0  0  0
    8.0927    0.2753   21.9726 C   0  0  0  0  0  0  0  0  0  0  0  0
    9.2650    0.9738   21.2526 C   0  0  0  0  0  0  0  0  0  0  0  0
   10.4388    0.9881   22.2444 C   0  0  0  0  0  0  0  0  0  0  0  0
   10.1582   -0.1650   23.2251 C   0  0  0  0  0  0  0  0  0  0  0  0
    8.7152   -0.3621   23.1372 N   0  0  0  0  0  0  0  0  0  0  0  0
    8.0332   -1.0689   24.0953 C   0  0  0  0  0  0  0  0  0  0  0  0
    6.6174   -0.8641   24.2517 C   0  0  0  0  0  0  0  0  0  0  0  0
    5.9339   -1.5524   25.2175 C   0  0  0  0  0  0  0  0  0  0  0  0
    6.6348   -2.4820   26.0382 C   0  0  0  0  0  0  0  0  0  0  0  0
    6.0100   -3.2555   27.0574 C   0  0  0  0  0  0  0  0  0  0  0  0
    6.7474   -4.1450   27.8028 C   0  0  0  0  0  0  0  0  0  0  0  0
    8.1442   -4.2798   27.5775 C   0  0  0  0  0  0  0  0  0  0  0  0
    8.7737   -3.5349   26.6034 C   0  0  0  0  0  0  0  0  0  0  0  0
    8.0409   -2.6118   25.8018 C   0  0  0  0  0  0  0  0  0  0  0  0
    8.7249   -1.8928   24.8609 N   0  0  0  0  0  0  0  0  0  0  0  0
    9.8375   -3.6113   26.4080 H   0  0  0  0  0  0  0  0  0  0  0  0
    8.7159   -4.9630   28.1989 H   0  0  0  0  0  0  0  0  0  0  0  0
    6.2810   -4.7092   28.6051 H   0  0  0  0  0  0  0  0  0  0  0  0
    4.9502   -3.1158   27.2537 H   0  0  0  0  0  0  0  0  0  0  0  0
    4.8654   -1.4163   25.3746 H   0  0  0  0  0  0  0  0  0  0  0  0
    6.1364   -0.1546   23.5957 H   0  0  0  0  0  0  0  0  0  0  0  0
   10.4653    0.0702   24.2556 H   0  0  0  0  0  0  0  0  0  0  0  0
   10.6884   -1.0906   22.9530 H   0  0  0  0  0  0  0  0  0  0  0  0
   11.4018    0.8604   21.7407 H   0  0  0  0  0  0  0  0  0  0  0  0
   10.4794    1.9443   22.7795 H   0  0  0  0  0  0  0  0  0  0  0  0
    8.9760    1.9757   20.9212 H   0  0  0  0  0  0  0  0  0  0  0  0
    9.5154    0.4143   20.3405 H   0  0  0  0  0  0  0  0  0  0  0  0
    7.3599    1.0279   22.3121 H   0  0  0  0  0  0  0  0  0  0  0  0
    8.1236   -1.4224   20.6528 H   0  0  0  0  0  0  0  0  0  0  0  0
    6.6680   -1.3205   21.6203 H   0  0  0  0  0  0  0  0  0  0  0  0
    5.4292    0.6435   20.1250 C   0  0  0  0  0  0  0  0  0  0  0  0
    5.0102    0.6451   21.1341 H   0  0  0  0  0  0  0  0  0  0  0  0
    8.1022   -0.4160   18.3236 H   0  0  0  0  0  0  0  0  0  0  0  0
    4.9223    1.8203   16.9696 H   0  0  0  0  0  0  0  0  0  0  0  0
    3.8643    1.8547   19.2276 H   0  0  0  0  0  0  0  0  0  0  0  0
  1  2  2  0
  2  3  1  0
  3  4  2  0
  4  5  1  0
  5  6  1  0
  6  7  1  0
  7  8  1  0
  8  9  1  0
  9 10  1  0
 10 11  1  0
 11 12  1  0
 12 13  2  0
 13 14  1  0
 14 15  2  0
 15 16  1  0
 16 17  2  0
 17 18  1  0
 18 19  2  0
 19 20  1  0
 20 21  2  0
 19 22  1  0
 18 23  1  0
 17 24  1  0
 16 25  1  0
 14 26  1  0
 13 27  1  0
 10 28  1  0
 10 29  1  0
  9 30  1  0
  9 31  1  0
  8 32  1  0
  8 33  1  0
  7 34  1  0
  6 35  1  0
  6 36  1  0
  5 37  2  0
 37 38  1  0
  4 39  1  0
  2 40  1  0
  1 41  1  0
 37  1  1  0
 11  7  1  0
 21 12  1  0
 20 15  1  0
M  END
>  <cnnaffinity>  (1) 
-5.37982

>  <filename>  (1) 
c1cncc(CC2CCCN2c2ccc3ccccc3n2)c1

$$$$
