
     RDKit          3D

 31 34  0  0  0  0  0  0  0  0999 V2000
    4.9228    1.7783   17.0009 H   0  0  0  0  0  0  0  0  0  0  0  0
    5.4072    1.2927   17.8428 C   0  0  0  0  0  0  0  0  0  0  0  0
    6.5718    0.6753   17.5842 N   0  0  0  0  0  0  0  0  0  0  0  0
    7.1708    0.0483   18.6003 C   0  0  0  0  0  0  0  0  0  0  0  0
    8.1182   -0.4376   18.3763 H   0  0  0  0  0  0  0  0  0  0  0  0
    6.6527    0.0129   19.9017 C   0  0  0  0  0  0  0  0  0  0  0  0
    7.3585   -0.7044   20.9513 C   0  0  0  0  0  0  0  0  0  0  0  0
    7.8761   -1.9555   20.7318 N   0  0  0  0  0  0  0  0  0  0  0  0
    8.2895   -2.3290   21.9111 C   0  0  0  0  0  0  0  0  0  0  0  0
    8.9313   -3.7919   22.6202 S   0  0  0  0  0  0  0  0  0  0  0  0
    8.9725   -3.0212   24.1919 C   0  0  0  0  0  0  0  0  0  0  0  0
    9.3300   -3.5852   25.0409 H   0  0  0  0  0  0  0  0  0  0  0  0
    8.5121   -1.7591   24.1634 C   0  0  0  0  0  0  0  0  0  0  0  0
    8.3856   -1.0733   24.9951 H   0  0  0  0  0  0  0  0  0  0  0  0
    8.1370   -1.3730   22.8807 N   0  0  0  0  0  0  0  0  0  0  0  0
    7.5257   -0.2966   22.2686 C   0  0  0  0  0  0  0  0  0  0  0  0
    7.1936    0.9813   22.9405 C   0  0  0  0  0  0  0  0  0  0  0  0
    6.1783    0.9046   23.3548 H   0  0  0  0  0  0  0  0  0  0  0  0
    8.1995    1.5264   23.9882 C   0  0  0  0  0  0  0  0  0  0  0  0
    9.1218    0.9469   24.0483 H   0  0  0  0  0  0  0  0  0  0  0  0
    7.7865    1.6506   24.9933 H   0  0  0  0  0  0  0  0  0  0  0  0
    8.3505    2.8269   23.1715 C   0  0  0  0  0  0  0  0  0  0  0  0
    8.0004    3.7286   23.6806 H   0  0  0  0  0  0  0  0  0  0  0  0
    9.3648    3.0119   22.8070 H   0  0  0  0  0  0  0  0  0  0  0  0
    7.3860    2.2755   22.1031 C   0  0  0  0  0  0  0  0  0  0  0  0
    6.4745    2.8619   21.9569 H   0  0  0  0  0  0  0  0  0  0  0  0
    7.8432    2.0957   21.1265 H   0  0  0  0  0  0  0  0  0  0  0  0
    5.4324    0.6608   20.1560 C   0  0  0  0  0  0  0  0  0  0  0  0
    4.9905    0.6397   21.1561 H   0  0  0  0  0  0  0  0  0  0  0  0
    4.8030    1.3137   19.1041 C   0  0  0  0  0  0  0  0  0  0  0  0
    3.8715    1.8437   19.2585 H   0  0  0  0  0  0  0  0  0  0  0  0
  1  2  1  0
  2  3  2  0
  3  4  1  0
  4  5  1  0
  4  6  2  0
  6  7  1  0
  7  8  1  0
  8  9  2  0
  9 10  1  0
 10 11  1  0
 11 12  1  0
 11 13  2  0
 13 14  1  0
 13 15  1  0
 15 16  1  0
 16 17  1  0
 17 18  1  0
 17 19  1  0
 19 20  1  0
 19 21  1  0
 19 22  1  0
 22 23  1  0
 22 24  1  0
 22 25  1  0
 25 26  1  0
 25 27  1  0
  6 28  1  0
 28 29  1  0
 28 30  2  0
 30 31  1  0
 30  2  1  0
 16  7  2  0
 25 17  1  0
 15  9  1  0
M  END
>  <cnnaffinity>  (1) 
-5.41604

>  <filename>  (1) 
c1cncc(-c2nc3sccn3c2C2CCC2)c1

$$$$
