
     RDKit          3D

 33 36  0  0  0  0  0  0  0  0999 V2000
    4.9147    1.7849   16.9895 H   0  0  0  0  0  0  0  0  0  0  0  0
    5.3972    1.2966   17.8309 C   0  0  0  0  0  0  0  0  0  0  0  0
    6.5602    0.6807   17.5660 N   0  0  0  0  0  0  0  0  0  0  0  0
    7.1709    0.0729   18.5913 C   0  0  0  0  0  0  0  0  0  0  0  0
    8.1102   -0.4257   18.3587 H   0  0  0  0  0  0  0  0  0  0  0  0
    6.6649    0.0166   19.9023 C   0  0  0  0  0  0  0  0  0  0  0  0
    7.3899   -0.7031   20.9711 C   0  0  0  0  0  0  0  0  0  0  0  0
    8.7474   -0.7832   21.0856 C   0  0  0  0  0  0  0  0  0  0  0  0
    9.4596   -0.3121   20.4258 H   0  0  0  0  0  0  0  0  0  0  0  0
    9.2456   -1.6781   22.4641 S   0  0  0  0  0  0  0  0  0  0  0  0
    7.6014   -1.9940   22.9188 C   0  0  0  0  0  0  0  0  0  0  0  0
    7.2904   -2.7945   24.1280 C   0  0  0  0  0  0  0  0  0  0  0  0
    8.3021   -3.2860   24.8266 N   0  0  0  0  0  0  0  0  0  0  0  0
    8.0164   -4.0275   25.9393 C   0  0  0  0  0  0  0  0  0  0  0  0
    9.0988   -4.5618   26.7051 C   0  0  0  0  0  0  0  0  0  0  0  0
   10.1046   -4.3511   26.3590 H   0  0  0  0  0  0  0  0  0  0  0  0
    8.8493   -5.3135   27.8331 C   0  0  0  0  0  0  0  0  0  0  0  0
    9.6751   -5.7077   28.4194 H   0  0  0  0  0  0  0  0  0  0  0  0
    7.5165   -5.5803   28.2633 C   0  0  0  0  0  0  0  0  0  0  0  0
    7.3460   -6.1824   29.1556 H   0  0  0  0  0  0  0  0  0  0  0  0
    6.4510   -5.0810   27.5513 C   0  0  0  0  0  0  0  0  0  0  0  0
    5.4241   -5.2716   27.8628 H   0  0  0  0  0  0  0  0  0  0  0  0
    6.6777   -4.2978   26.3808 C   0  0  0  0  0  0  0  0  0  0  0  0
    5.6124   -3.7570   25.6064 C   0  0  0  0  0  0  0  0  0  0  0  0
    4.5792   -3.9426   25.9151 H   0  0  0  0  0  0  0  0  0  0  0  0
    5.9181   -3.0170   24.4934 C   0  0  0  0  0  0  0  0  0  0  0  0
    5.1207   -2.6058   23.8934 H   0  0  0  0  0  0  0  0  0  0  0  0
    6.7423   -1.4111   22.0232 C   0  0  0  0  0  0  0  0  0  0  0  0
    5.6636   -1.4861   22.0187 H   0  0  0  0  0  0  0  0  0  0  0  0
    5.4366    0.6543   20.1485 C   0  0  0  0  0  0  0  0  0  0  0  0
    5.0170    0.6388   21.1574 H   0  0  0  0  0  0  0  0  0  0  0  0
    4.8021    1.3156   19.0986 C   0  0  0  0  0  0  0  0  0  0  0  0
    3.8697    1.8458   19.2546 H   0  0  0  0  0  0  0  0  0  0  0  0
  1  2  1  0
  2  3  2  0
  3  4  1  0
  4  5  1  0
  4  6  2  0
  6  7  1  0
  7  8  2  0
  8  9  1  0
  8 10  1  0
 10 11  1  0
 11 12  1  0
 12 13  2  0
 13 14  1  0
 14 15  2  0
 15 16  1  0
 15 17  1  0
 17 18  1  0
 17 19  2  0
 19 20  1  0
 19 21  1  0
 21 22  1  0
 21 23  2  0
 23 24  1  0
 24 25  1  0
 24 26  2  0
 26 27  1  0
 11 28  2  0
 28 29  1  0
  6 30  1  0
 30 31  1  0
 30 32  2  0
 32 33  1  0
 32  2  1  0
 28  7  1  0
 26 12  1  0
 23 14  1  0
M  END
>  <cnnaffinity>  (1) 
-5.51931

>  <filename>  (1) 
c1cncc(-c2csc(-c3ccc4ccccc4n3)c2)c1

$$$$
