
     RDKit          3D

 37 39  0  0  0  0  0  0  0  0999 V2000
    4.9182    1.7744   17.0040 H   0  0  0  0  0  0  0  0  0  0  0  0
    5.4061    1.2866   17.8479 C   0  0  0  0  0  0  0  0  0  0  0  0
    6.5674    0.6680   17.5913 N   0  0  0  0  0  0  0  0  0  0  0  0
    7.1841    0.0609   18.6092 C   0  0  0  0  0  0  0  0  0  0  0  0
    8.1288   -0.4268   18.3767 H   0  0  0  0  0  0  0  0  0  0  0  0
    6.6718    0.0060   19.9161 C   0  0  0  0  0  0  0  0  0  0  0  0
    7.4084   -0.7265   20.9914 C   0  0  0  0  0  0  0  0  0  0  0  0
    8.7553   -0.7157   20.9327 N   0  0  0  0  0  0  0  0  0  0  0  0
    9.4639   -1.3301   21.8813 N   0  0  0  0  0  0  0  0  0  0  0  0
    8.8479   -1.9803   22.8716 C   0  0  0  0  0  0  0  0  0  0  0  0
    9.4939   -2.4598   23.5932 H   0  0  0  0  0  0  0  0  0  0  0  0
    7.4316   -2.0623   22.9981 C   0  0  0  0  0  0  0  0  0  0  0  0
    6.7793   -2.7109   24.0167 N   0  0  0  0  0  0  0  0  0  0  0  0
    5.7698   -2.6167   24.0274 H   0  0  0  0  0  0  0  0  0  0  0  0
    7.3904   -3.5874   25.0057 C   0  0  0  0  0  0  0  0  0  0  0  0
    8.2762   -3.0716   25.4086 H   0  0  0  0  0  0  0  0  0  0  0  0
    6.4416   -3.8445   26.1876 C   0  0  0  0  0  0  0  0  0  0  0  0
    5.5192   -4.3050   25.8064 H   0  0  0  0  0  0  0  0  0  0  0  0
    6.1585   -2.8946   26.6569 H   0  0  0  0  0  0  0  0  0  0  0  0
    7.0700   -4.7800   27.2376 C   0  0  0  0  0  0  0  0  0  0  0  0
    7.9310   -4.2792   27.7032 H   0  0  0  0  0  0  0  0  0  0  0  0
    6.3577   -4.9821   28.0465 H   0  0  0  0  0  0  0  0  0  0  0  0
    7.5422   -6.0977   26.6104 C   0  0  0  0  0  0  0  0  0  0  0  0
    6.6669   -6.6609   26.2568 H   0  0  0  0  0  0  0  0  0  0  0  0
    8.0351   -6.7243   27.3646 H   0  0  0  0  0  0  0  0  0  0  0  0
    8.4875   -5.8420   25.4305 C   0  0  0  0  0  0  0  0  0  0  0  0
    8.7749   -6.7813   24.9588 H   0  0  0  0  0  0  0  0  0  0  0  0
    9.4227   -5.4008   25.8002 H   0  0  0  0  0  0  0  0  0  0  0  0
    7.8578   -4.9171   24.3852 C   0  0  0  0  0  0  0  0  0  0  0  0
    8.5628   -4.7221   23.5694 H   0  0  0  0  0  0  0  0  0  0  0  0
    6.9874   -5.4124   23.9346 H   0  0  0  0  0  0  0  0  0  0  0  0
    6.7168   -1.3991   22.0028 C   0  0  0  0  0  0  0  0  0  0  0  0
    5.6399   -1.4346   21.9679 H   0  0  0  0  0  0  0  0  0  0  0  0
    5.4467    0.6461   20.1632 C   0  0  0  0  0  0  0  0  0  0  0  0
    5.0023    0.6433   21.1612 H   0  0  0  0  0  0  0  0  0  0  0  0
    4.8119    1.3082   19.1140 C   0  0  0  0  0  0  0  0  0  0  0  0
    3.8770    1.8410   19.2627 H   0  0  0  0  0  0  0  0  0  0  0  0
  1  2  1  0
  2  3  2  0
  3  4  1  0
  4  5  1  0
  4  6  2  0
  6  7  1  0
  7  8  2  0
  8  9  1  0
  9 10  2  0
 10 11  1  0
 10 12  1  0
 12 13  1  0
 13 14  1  0
 13 15  1  0
 15 16  1  0
 15 17  1  0
 17 18  1  0
 17 19  1  0
 17 20  1  0
 20 21  1  0
 20 22  1  0
 20 23  1  0
 23 24  1  0
 23 25  1  0
 23 26  1  0
 26 27  1  0
 26 28  1  0
 26 29  1  0
 29 30  1  0
 29 31  1  0
 12 32  2  0
 32 33  1  0
  6 34  1  0
 34 35  1  0
 34 36  2  0
 36 37  1  0
 36  2  1  0
 32  7  1  0
 29 15  1  0
M  END
>  <cnnaffinity>  (1) 
-5.29039

>  <filename>  (1) 
c1cncc(-c2cc(NC3CCCCC3)cnn2)c1

$$$$
