
     RDKit          3D

 33 36  0  0  0  0  0  0  0  0999 V2000
    5.2314    1.7781   17.2089 H   0  0  0  0  0  0  0  0  0  0  0  0
    5.5943    1.2436   18.0859 C   0  0  0  0  0  0  0  0  0  0  0  0
    6.6975    0.4954   17.9187 N   0  0  0  0  0  0  0  0  0  0  0  0
    7.1652   -0.1737   18.9737 C   0  0  0  0  0  0  0  0  0  0  0  0
    8.0856   -0.7359   18.8340 H   0  0  0  0  0  0  0  0  0  0  0  0
    6.5538   -0.1633   20.2422 C   0  0  0  0  0  0  0  0  0  0  0  0
    7.1473   -0.9455   21.2740 N   0  0  0  0  0  0  0  0  0  0  0  0
    7.9011   -2.0199   20.9403 N   0  0  0  0  0  0  0  0  0  0  0  0
    8.2023   -2.6089   22.0857 C   0  0  0  0  0  0  0  0  0  0  0  0
    8.8567   -3.4738   22.0955 H   0  0  0  0  0  0  0  0  0  0  0  0
    7.6331   -1.9384   23.1867 C   0  0  0  0  0  0  0  0  0  0  0  0
    7.7001   -2.1886   24.2329 H   0  0  0  0  0  0  0  0  0  0  0  0
    7.0197   -0.8348   22.6478 C   0  0  0  0  0  0  0  0  0  0  0  0
    6.6050    0.3884   23.3433 C   0  0  0  0  0  0  0  0  0  0  0  0
    5.6242    0.3782   24.3100 C   0  0  0  0  0  0  0  0  0  0  0  0
    5.2233   -0.5674   24.6702 H   0  0  0  0  0  0  0  0  0  0  0  0
    5.0389    1.4958   24.8179 N   0  0  0  0  0  0  0  0  0  0  0  0
    5.4776    2.6658   24.3821 C   0  0  0  0  0  0  0  0  0  0  0  0
    4.9833    3.5507   24.7872 H   0  0  0  0  0  0  0  0  0  0  0  0
    6.5807    2.8262   23.4785 C   0  0  0  0  0  0  0  0  0  0  0  0
    7.0779    4.0889   23.0232 C   0  0  0  0  0  0  0  0  0  0  0  0
    6.4972    4.9858   23.2283 H   0  0  0  0  0  0  0  0  0  0  0  0
    8.2440    4.1653   22.2879 C   0  0  0  0  0  0  0  0  0  0  0  0
    8.6038    5.1352   21.9542 H   0  0  0  0  0  0  0  0  0  0  0  0
    8.9607    2.9882   21.9421 C   0  0  0  0  0  0  0  0  0  0  0  0
    9.9001    3.0335   21.3913 H   0  0  0  0  0  0  0  0  0  0  0  0
    8.4635    1.7586   22.3020 C   0  0  0  0  0  0  0  0  0  0  0  0
    9.0063    0.8632   22.0223 H   0  0  0  0  0  0  0  0  0  0  0  0
    7.2376    1.6457   23.0316 C   0  0  0  0  0  0  0  0  0  0  0  0
    5.4068    0.6294   20.4132 C   0  0  0  0  0  0  0  0  0  0  0  0
    4.9092    0.7022   21.3795 H   0  0  0  0  0  0  0  0  0  0  0  0
    4.9310    1.3496   19.3116 C   0  0  0  0  0  0  0  0  0  0  0  0
    4.0761    2.0166   19.3974 H   0  0  0  0  0  0  0  0  0  0  0  0
  1  2  1  0
  2  3  2  0
  3  4  1  0
  4  5  1  0
  4  6  2  0
  6  7  1  0
  7  8  1  0
  8  9  2  0
  9 10  1  0
  9 11  1  0
 11 12  1  0
 11 13  2  0
 13 14  1  0
 14 15  2  0
 15 16  1  0
 15 17  1  0
 17 18  2  0
 18 19  1  0
 18 20  1  0
 20 21  2  0
 21 22  1  0
 21 23  1  0
 23 24  1  0
 23 25  2  0
 25 26  1  0
 25 27  1  0
 27 28  1  0
 27 29  2  0
  6 30  1  0
 30 31  1  0
 30 32  2  0
 32 33  1  0
 32  2  1  0
 13  7  1  0
 29 14  1  0
 29 20  1  0
M  END
>  <cnnaffinity>  (1) 
-5.15752

>  <filename>  (1) 
c1cncc(-n2nccc2-c2cncc3ccccc23)c1

$$$$
