
     RDKit          3D

 43 46  0  0  0  0  0  0  0  0999 V2000
    5.0001    1.8048   16.9946 H   0  0  0  0  0  0  0  0  0  0  0  0
    5.4303    1.2685   17.8429 C   0  0  0  0  0  0  0  0  0  0  0  0
    6.5811    0.6230   17.6108 N   0  0  0  0  0  0  0  0  0  0  0  0
    7.1459   -0.0107   18.6510 C   0  0  0  0  0  0  0  0  0  0  0  0
    8.0878   -0.5176   18.4399 H   0  0  0  0  0  0  0  0  0  0  0  0
    6.6050   -0.0581   19.9508 C   0  0  0  0  0  0  0  0  0  0  0  0
    7.3297   -0.7785   21.0675 C   0  0  0  0  0  0  0  0  0  0  0  0
    7.0259   -2.2397   21.2942 C   0  0  0  0  0  0  0  0  0  0  0  0
    7.8909   -3.2036   21.2358 N   0  0  0  0  0  0  0  0  0  0  0  0
    7.3544   -4.4429   21.4397 N   0  0  0  0  0  0  0  0  0  0  0  0
    6.0917   -4.3838   21.7066 C   0  0  0  0  0  0  0  0  0  0  0  0
    5.3431   -5.4722   21.9070 O   0  0  0  0  0  0  0  0  0  0  0  0
    4.2601   -5.4643   22.8731 C   0  0  0  0  0  0  0  0  0  0  0  0
    3.7635   -6.4272   22.7241 H   0  0  0  0  0  0  0  0  0  0  0  0
    3.5358   -4.6674   22.6535 H   0  0  0  0  0  0  0  0  0  0  0  0
    4.7963   -5.3718   24.3076 C   0  0  0  0  0  0  0  0  0  0  0  0
    5.4004   -4.4464   24.4036 H   0  0  0  0  0  0  0  0  0  0  0  0
    5.4876   -6.2172   24.4491 H   0  0  0  0  0  0  0  0  0  0  0  0
    3.7131   -5.4661   25.2881 N   0  0  0  0  0  0  0  0  0  0  0  0
    2.9222   -4.2284   25.4158 C   0  0  0  0  0  0  0  0  0  0  0  0
    3.5443   -3.3662   25.7244 H   0  0  0  0  0  0  0  0  0  0  0  0
    2.4727   -3.9758   24.4473 H   0  0  0  0  0  0  0  0  0  0  0  0
    1.7895   -4.4074   26.4347 C   0  0  0  0  0  0  0  0  0  0  0  0
    1.0521   -5.1237   26.0378 H   0  0  0  0  0  0  0  0  0  0  0  0
    1.2851   -3.4497   26.6037 H   0  0  0  0  0  0  0  0  0  0  0  0
    2.2671   -4.8365   27.7043 O   0  0  0  0  0  0  0  0  0  0  0  0
    3.0231   -6.0376   27.5955 C   0  0  0  0  0  0  0  0  0  0  0  0
    2.3775   -6.8735   27.2834 H   0  0  0  0  0  0  0  0  0  0  0  0
    3.4051   -6.2515   28.5993 H   0  0  0  0  0  0  0  0  0  0  0  0
    4.1875   -5.9016   26.6111 C   0  0  0  0  0  0  0  0  0  0  0  0
    4.9340   -5.2068   27.0401 H   0  0  0  0  0  0  0  0  0  0  0  0
    4.6722   -6.8822   26.5115 H   0  0  0  0  0  0  0  0  0  0  0  0
    5.4299   -2.7745   21.7021 S   0  0  0  0  0  0  0  0  0  0  0  0
    7.7218    0.0409   22.2947 C   0  0  0  0  0  0  0  0  0  0  0  0
    7.4339    1.0927   22.3131 H   0  0  0  0  0  0  0  0  0  0  0  0
    7.6931   -0.4428   23.2688 H   0  0  0  0  0  0  0  0  0  0  0  0
    8.7618   -0.3786   21.3039 C   0  0  0  0  0  0  0  0  0  0  0  0
    9.4230   -1.1931   21.5879 H   0  0  0  0  0  0  0  0  0  0  0  0
    9.1801    0.3847   20.6460 H   0  0  0  0  0  0  0  0  0  0  0  0
    5.4023    0.6235   20.1634 C   0  0  0  0  0  0  0  0  0  0  0  0
    4.9511    0.6444   21.1590 H   0  0  0  0  0  0  0  0  0  0  0  0
    4.8011    1.2896   19.0903 C   0  0  0  0  0  0  0  0  0  0  0  0
    3.8731    1.8343   19.2119 H   0  0  0  0  0  0  0  0  0  0  0  0
  1  2  1  0
  2  3  2  0
  3  4  1  0
  4  5  1  0
  4  6  2  0
  6  7  1  0
  7  8  1  0
  8  9  2  0
  9 10  1  0
 10 11  2  0
 11 12  1  0
 12 13  1  0
 13 14  1  0
 13 15  1  0
 13 16  1  0
 16 17  1  0
 16 18  1  0
 16 19  1  0
 19 20  1  0
 20 21  1  0
 20 22  1  0
 20 23  1  0
 23 24  1  0
 23 25  1  0
 23 26  1  0
 26 27  1  0
 27 28  1  0
 27 29  1  0
 27 30  1  0
 30 31  1  0
 30 32  1  0
 11 33  1  0
  7 34  1  0
 34 35  1  0
 34 36  1  0
 34 37  1  0
 37 38  1  0
 37 39  1  0
  6 40  1  0
 40 41  1  0
 40 42  2  0
 42 43  1  0
 42  2  1  0
 37  7  1  0
 33  8  1  0
 30 19  1  0
M  END
>  <cnnaffinity>  (1) 
-5.15475

>  <filename>  (1) 
c1cncc(C2(c3nnc(OCCN4CCOCC4)s3)CC2)c1

$$$$
