
     RDKit          3D

 40 44  0  0  0  0  0  0  0  0999 V2000
    4.9972    1.8377   16.9133 H   0  0  0  0  0  0  0  0  0  0  0  0
    5.3891    1.3072   17.7827 C   0  0  0  0  0  0  0  0  0  0  0  0
    6.5418    0.6452   17.5972 N   0  0  0  0  0  0  0  0  0  0  0  0
    7.0635    0.0250   18.6646 C   0  0  0  0  0  0  0  0  0  0  0  0
    8.0045   -0.4953   18.4890 H   0  0  0  0  0  0  0  0  0  0  0  0
    6.4808   -0.0098   19.9486 C   0  0  0  0  0  0  0  0  0  0  0  0
    7.2357   -0.6231   21.0674 C   0  0  0  0  0  0  0  0  0  0  0  0
    8.5895   -0.5471   21.3135 C   0  0  0  0  0  0  0  0  0  0  0  0
    8.7956   -1.1653   22.5433 C   0  0  0  0  0  0  0  0  0  0  0  0
    7.6806   -1.6358   23.0691 N   0  0  0  0  0  0  0  0  0  0  0  0
    6.7384   -1.2912   22.1525 N   0  0  0  0  0  0  0  0  0  0  0  0
    5.7761   -1.5271   22.3570 H   0  0  0  0  0  0  0  0  0  0  0  0
   10.2233   -1.1011   22.9930 C   0  0  0  0  0  0  0  0  0  0  0  0
   10.6606   -2.1010   23.1056 H   0  0  0  0  0  0  0  0  0  0  0  0
   10.3183   -0.5949   23.9597 H   0  0  0  0  0  0  0  0  0  0  0  0
   10.9217   -0.2937   21.8355 C   0  0  2  0  0  0  0  0  0  0  0  0
   11.6956   -0.9356   21.4155 H   0  0  0  0  0  0  0  0  0  0  0  0
   11.5990    0.9764   22.3258 C   0  0  0  0  0  0  0  0  0  0  0  0
   10.8230    1.9396   22.7730 N   0  0  0  0  0  0  0  0  0  0  0  0
   11.4183    3.0873   23.2278 C   0  0  0  0  0  0  0  0  0  0  0  0
   10.5657    4.0886   23.7726 C   0  0  0  0  0  0  0  0  0  0  0  0
    9.5037    3.8525   23.7962 H   0  0  0  0  0  0  0  0  0  0  0  0
   11.0940    5.2730   24.2327 C   0  0  0  0  0  0  0  0  0  0  0  0
   10.4435    6.0335   24.6580 H   0  0  0  0  0  0  0  0  0  0  0  0
   12.4948    5.5254   24.1466 C   0  0  0  0  0  0  0  0  0  0  0  0
   12.8881    6.4803   24.4918 H   0  0  0  0  0  0  0  0  0  0  0  0
   13.3461    4.5716   23.6320 C   0  0  0  0  0  0  0  0  0  0  0  0
   14.4143    4.7630   23.5583 H   0  0  0  0  0  0  0  0  0  0  0  0
   12.8344    3.3095   23.1959 C   0  0  0  0  0  0  0  0  0  0  0  0
   13.6421    2.2257   22.7412 C   0  0  0  0  0  0  0  0  0  0  0  0
   14.7258    2.3252   22.6807 H   0  0  0  0  0  0  0  0  0  0  0  0
   13.0290    1.0694   22.3268 C   0  0  0  0  0  0  0  0  0  0  0  0
   13.6073    0.2172   21.9824 H   0  0  0  0  0  0  0  0  0  0  0  0
    9.8538   -0.0424   20.7173 C   0  0  0  0  0  0  0  0  0  0  0  0
    9.7788    1.0095   20.4165 H   0  0  0  0  0  0  0  0  0  0  0  0
   10.1075   -0.6196   19.8212 H   0  0  0  0  0  0  0  0  0  0  0  0
    5.2576    0.6657   20.1115 C   0  0  0  0  0  0  0  0  0  0  0  0
    4.7615    0.7056   21.0844 H   0  0  0  0  0  0  0  0  0  0  0  0
    4.7177    1.3353   19.0107 C   0  0  0  0  0  0  0  0  0  0  0  0
    3.8014    1.9066   19.0924 H   0  0  0  0  0  0  0  0  0  0  0  0
  1  2  1  0
  2  3  2  0
  3  4  1  0
  4  5  1  0
  4  6  2  0
  6  7  1  0
  7  8  2  0
  8  9  1  0
  9 10  2  0
 10 11  1  0
 11 12  1  0
  9 13  1  0
 13 14  1  0
 13 15  1  0
 13 16  1  0
 16 17  1  6
 16 18  1  0
 18 19  2  0
 19 20  1  0
 20 21  2  0
 21 22  1  0
 21 23  1  0
 23 24  1  0
 23 25  2  0
 25 26  1  0
 25 27  1  0
 27 28  1  0
 27 29  2  0
 29 30  1  0
 30 31  1  0
 30 32  2  0
 32 33  1  0
 16 34  1  0
 34 35  1  0
 34 36  1  0
  6 37  1  0
 37 38  1  0
 37 39  2  0
 39 40  1  0
 39  2  1  0
 11  7  1  0
 32 18  1  0
 34  8  1  0
 29 20  1  0
M  END
>  <cnnaffinity>  (1) 
-5.90904

>  <filename>  (1) 
c1cncc(-c2[nH]nc3c2C[C@@H](c2ccc4ccccc4n2)C3)c1

$$$$
