
     RDKit          3D

 40 43  0  0  0  0  0  0  0  0999 V2000
    4.9259    1.7971   17.0084 H   0  0  0  0  0  0  0  0  0  0  0  0
    5.4000    1.2822   17.8387 C   0  0  0  0  0  0  0  0  0  0  0  0
    6.5541    0.6594   17.5608 N   0  0  0  0  0  0  0  0  0  0  0  0
    7.2014    0.0523   18.5630 C   0  0  0  0  0  0  0  0  0  0  0  0
    8.1555   -0.4088   18.3209 H   0  0  0  0  0  0  0  0  0  0  0  0
    6.7014    0.0224   19.8806 C   0  0  0  0  0  0  0  0  0  0  0  0
    7.2900   -0.6658   20.9507 O   0  0  0  0  0  0  0  0  0  0  0  0
    8.6173   -0.7709   21.0848 C   0  0  0  0  0  0  0  0  0  0  0  0
    9.5507   -0.0919   20.4661 N   0  0  0  0  0  0  0  0  0  0  0  0
   10.7175   -0.5614   20.9688 N   0  0  0  0  0  0  0  0  0  0  0  0
   10.5251   -1.4787   21.8357 N   0  0  0  0  0  0  0  0  0  0  0  0
    9.1784   -1.6385   21.9516 N   0  0  0  0  0  0  0  0  0  0  0  0
    8.6213   -2.5922   22.8574 C   0  0  0  0  0  0  0  0  0  0  0  0
    9.3852   -3.7091   23.2196 C   0  0  0  0  0  0  0  0  0  0  0  0
   10.4247   -3.7288   22.8928 H   0  0  0  0  0  0  0  0  0  0  0  0
    8.8248   -4.6849   24.0471 C   0  0  0  0  0  0  0  0  0  0  0  0
    9.3722   -5.5847   24.3154 H   0  0  0  0  0  0  0  0  0  0  0  0
    7.5311   -4.5089   24.5808 C   0  0  0  0  0  0  0  0  0  0  0  0
    6.9508   -5.4118   25.4844 N   0  0  0  0  0  0  0  0  0  0  0  0
    5.6483   -6.0097   25.1807 C   0  0  0  0  0  0  0  0  0  0  0  0
    5.7220   -6.8667   24.4910 H   0  0  0  0  0  0  0  0  0  0  0  0
    5.0206   -5.2631   24.6760 H   0  0  0  0  0  0  0  0  0  0  0  0
    4.9435   -6.4603   26.4693 C   0  0  0  0  0  0  0  0  0  0  0  0
    4.6057   -5.5719   27.0297 H   0  0  0  0  0  0  0  0  0  0  0  0
    4.0807   -7.0897   26.2280 H   0  0  0  0  0  0  0  0  0  0  0  0
    5.7807   -7.2573   27.2948 O   0  0  0  0  0  0  0  0  0  0  0  0
    6.9579   -6.5521   27.6670 C   0  0  0  0  0  0  0  0  0  0  0  0
    6.6921   -5.6462   28.2376 H   0  0  0  0  0  0  0  0  0  0  0  0
    7.5329   -7.2181   28.3205 H   0  0  0  0  0  0  0  0  0  0  0  0
    7.7841   -6.1468   26.4347 C   0  0  0  0  0  0  0  0  0  0  0  0
    8.2333   -7.0431   25.9763 H   0  0  0  0  0  0  0  0  0  0  0  0
    8.6062   -5.4966   26.7672 H   0  0  0  0  0  0  0  0  0  0  0  0
    6.8116   -3.3473   24.2503 C   0  0  0  0  0  0  0  0  0  0  0  0
    5.8360   -3.2212   24.7108 H   0  0  0  0  0  0  0  0  0  0  0  0
    7.3418   -2.3865   23.3934 C   0  0  0  0  0  0  0  0  0  0  0  0
    6.7883   -1.4845   23.1510 H   0  0  0  0  0  0  0  0  0  0  0  0
    5.4850    0.6450   20.1591 C   0  0  0  0  0  0  0  0  0  0  0  0
    5.0870    0.5989   21.1721 H   0  0  0  0  0  0  0  0  0  0  0  0
    4.8253    1.3005   19.1153 C   0  0  0  0  0  0  0  0  0  0  0  0
    3.8872    1.8206   19.2759 H   0  0  0  0  0  0  0  0  0  0  0  0
  1  2  1  0
  2  3  2  0
  3  4  1  0
  4  5  1  0
  4  6  2  0
  6  7  1  0
  7  8  1  0
  8  9  2  0
  9 10  1  0
 10 11  2  0
 11 12  1  0
 12 13  1  0
 13 14  2  0
 14 15  1  0
 14 16  1  0
 16 17  1  0
 16 18  2  0
 18 19  1  0
 19 20  1  0
 20 21  1  0
 20 22  1  0
 20 23  1  0
 23 24  1  0
 23 25  1  0
 23 26  1  0
 26 27  1  0
 27 28  1  0
 27 29  1  0
 27 30  1  0
 30 31  1  0
 30 32  1  0
 18 33  1  0
 33 34  1  0
 33 35  2  0
 35 36  1  0
  6 37  1  0
 37 38  1  0
 37 39  2  0
 39 40  1  0
 39  2  1  0
 12  8  1  0
 35 13  1  0
 30 19  1  0
M  END
>  <cnnaffinity>  (1) 
-5.4434

>  <filename>  (1) 
c1cncc(Oc2nnnn2-c2ccc(N3CCOCC3)cc2)c1

$$$$
