
     RDKit          3D

 32 35  0  0  0  0  0  0  0  0999 V2000
    4.9254    1.7784   16.9985 H   0  0  0  0  0  0  0  0  0  0  0  0
    5.4063    1.2877   17.8425 C   0  0  0  0  0  0  0  0  0  0  0  0
    6.5703    0.6653   17.5891 N   0  0  0  0  0  0  0  0  0  0  0  0
    7.1881    0.0549   18.6037 C   0  0  0  0  0  0  0  0  0  0  0  0
    8.1313   -0.4297   18.3757 H   0  0  0  0  0  0  0  0  0  0  0  0
    6.6713    0.0093   19.9071 C   0  0  0  0  0  0  0  0  0  0  0  0
    7.3781   -0.6800   20.9210 N   0  0  0  0  0  0  0  0  0  0  0  0
    8.6997   -0.9468   20.8328 N   0  0  0  0  0  0  0  0  0  0  0  0
    8.9903   -1.5760   21.9563 C   0  0  0  0  0  0  0  0  0  0  0  0
   10.0079   -1.8723   22.1637 H   0  0  0  0  0  0  0  0  0  0  0  0
    7.8584   -1.7477   22.7968 C   0  0  0  0  0  0  0  0  0  0  0  0
    7.7245   -2.3509   24.1029 C   0  0  0  0  0  0  0  0  0  0  0  0
    6.7656   -2.0573   25.0392 C   0  0  0  0  0  0  0  0  0  0  0  0
    5.9422   -1.3452   24.9708 H   0  0  0  0  0  0  0  0  0  0  0  0
    6.9879   -2.8080   26.1684 N   0  0  0  0  0  0  0  0  0  0  0  0
    6.4365   -2.8019   27.0047 H   0  0  0  0  0  0  0  0  0  0  0  0
    8.0817   -3.6165   25.9817 C   0  0  0  0  0  0  0  0  0  0  0  0
    8.6692   -4.5588   26.8416 C   0  0  0  0  0  0  0  0  0  0  0  0
    8.2577   -4.7295   27.8369 H   0  0  0  0  0  0  0  0  0  0  0  0
    9.7702   -5.2580   26.3581 C   0  0  0  0  0  0  0  0  0  0  0  0
   10.2553   -5.9934   26.9907 H   0  0  0  0  0  0  0  0  0  0  0  0
   10.2780   -5.0364   25.0502 C   0  0  0  0  0  0  0  0  0  0  0  0
   11.1371   -5.6067   24.7031 H   0  0  0  0  0  0  0  0  0  0  0  0
    9.6856   -4.1020   24.2120 C   0  0  0  0  0  0  0  0  0  0  0  0
   10.0554   -3.9414   23.2024 H   0  0  0  0  0  0  0  0  0  0  0  0
    8.5773   -3.3676   24.6824 C   0  0  0  0  0  0  0  0  0  0  0  0
    6.8583   -1.1569   22.0700 C   0  0  0  0  0  0  0  0  0  0  0  0
    5.8140   -1.0656   22.2956 H   0  0  0  0  0  0  0  0  0  0  0  0
    5.4454    0.6458   20.1684 C   0  0  0  0  0  0  0  0  0  0  0  0
    5.0039    0.6491   21.1667 H   0  0  0  0  0  0  0  0  0  0  0  0
    4.8157    1.3037   19.1105 C   0  0  0  0  0  0  0  0  0  0  0  0
    3.8830    1.8349   19.2641 H   0  0  0  0  0  0  0  0  0  0  0  0
  1  2  1  0
  2  3  2  0
  3  4  1  0
  4  5  1  0
  4  6  2  0
  6  7  1  0
  7  8  1  0
  8  9  2  0
  9 10  1  0
  9 11  1  0
 11 12  1  0
 12 13  2  0
 13 14  1  0
 13 15  1  0
 15 16  1  0
 15 17  1  0
 17 18  2  0
 18 19  1  0
 18 20  1  0
 20 21  1  0
 20 22  2  0
 22 23  1  0
 22 24  1  0
 24 25  1  0
 24 26  2  0
 11 27  2  0
 27 28  1  0
  6 29  1  0
 29 30  1  0
 29 31  2  0
 31 32  1  0
 31  2  1  0
 27  7  1  0
 26 12  1  0
 26 17  1  0
M  END
>  <cnnaffinity>  (1) 
-5.51714

>  <filename>  (1) 
c1cncc(-n2cc(-c3c[nH]c4ccccc34)cn2)c1

$$$$
