
     RDKit          3D

 30 32  0  0  0  0  0  0  0  0999 V2000
    4.9228    1.7755   17.0011 H   0  0  0  0  0  0  0  0  0  0  0  0
    5.4061    1.2883   17.8461 C   0  0  0  0  0  0  0  0  0  0  0  0
    6.5702    0.6707   17.5901 N   0  0  0  0  0  0  0  0  0  0  0  0
    7.1729    0.0586   18.6120 C   0  0  0  0  0  0  0  0  0  0  0  0
    8.1185   -0.4286   18.3866 H   0  0  0  0  0  0  0  0  0  0  0  0
    6.6507    0.0108   19.9167 C   0  0  0  0  0  0  0  0  0  0  0  0
    7.4081   -0.7100   20.9439 C   0  0  0  0  0  0  0  0  0  0  0  0
    8.5270   -1.3304   20.8017 N   0  0  0  0  0  0  0  0  0  0  0  0
    8.8567   -1.8642   22.0436 N   0  0  0  0  0  0  0  0  0  0  0  0
    7.8957   -1.5131   22.8449 C   0  0  0  0  0  0  0  0  0  0  0  0
    7.7922   -1.7731   24.1759 N   0  0  0  0  0  0  0  0  0  0  0  0
    8.7266   -2.7444   24.7776 C   0  0  0  0  0  0  0  0  0  0  0  0
    9.6822   -2.6949   24.2475 H   0  0  0  0  0  0  0  0  0  0  0  0
    8.3584   -3.7743   24.6658 H   0  0  0  0  0  0  0  0  0  0  0  0
    8.9635   -2.4660   26.2682 C   0  0  0  0  0  0  0  0  0  0  0  0
    9.5498   -1.5334   26.3564 H   0  0  0  0  0  0  0  0  0  0  0  0
    9.5746   -3.2712   26.6872 H   0  0  0  0  0  0  0  0  0  0  0  0
    7.6919   -2.4021   27.0012 N   0  0  0  0  0  0  0  0  0  0  0  0
    7.8837   -2.2151   27.9846 H   0  0  0  0  0  0  0  0  0  0  0  0
    6.8919   -1.2987   26.4460 C   0  0  0  0  0  0  0  0  0  0  0  0
    7.4004   -0.3221   26.5402 H   0  0  0  0  0  0  0  0  0  0  0  0
    5.9559   -1.2282   27.0073 H   0  0  0  0  0  0  0  0  0  0  0  0
    6.5668   -1.5320   24.9601 C   0  0  0  0  0  0  0  0  0  0  0  0
    5.8720   -2.3800   24.8861 H   0  0  0  0  0  0  0  0  0  0  0  0
    6.0509   -0.6514   24.5709 H   0  0  0  0  0  0  0  0  0  0  0  0
    6.9336   -0.7818   22.2255 O   0  0  0  0  0  0  0  0  0  0  0  0
    5.4288    0.6556   20.1716 C   0  0  0  0  0  0  0  0  0  0  0  0
    4.9916    0.6397   21.1726 H   0  0  0  0  0  0  0  0  0  0  0  0
    4.8037    1.3095   19.1112 C   0  0  0  0  0  0  0  0  0  0  0  0
    3.8707    1.8453   19.2584 H   0  0  0  0  0  0  0  0  0  0  0  0
  1  2  1  0
  2  3  2  0
  3  4  1  0
  4  5  1  0
  4  6  2  0
  6  7  1  0
  7  8  2  0
  8  9  1  0
  9 10  2  0
 10 11  1  0
 11 12  1  0
 12 13  1  0
 12 14  1  0
 12 15  1  0
 15 16  1  0
 15 17  1  0
 15 18  1  0
 18 19  1  0
 18 20  1  0
 20 21  1  0
 20 22  1  0
 20 23  1  0
 23 24  1  0
 23 25  1  0
 10 26  1  0
  6 27  1  0
 27 28  1  0
 27 29  2  0
 29 30  1  0
 29  2  1  0
 26  7  1  0
 23 11  1  0
M  END
>  <cnnaffinity>  (1) 
-4.38776

>  <filename>  (1) 
c1cncc(-c2nnc(N3CCNCC3)o2)c1

$$$$
