
     RDKit          3D

 33 35  0  0  0  0  0  0  0  0999 V2000
    4.9190    1.7749   17.0039 H   0  0  0  0  0  0  0  0  0  0  0  0
    5.4065    1.2864   17.8477 C   0  0  0  0  0  0  0  0  0  0  0  0
    6.5678    0.6674   17.5902 N   0  0  0  0  0  0  0  0  0  0  0  0
    7.1845    0.0607   18.6099 C   0  0  0  0  0  0  0  0  0  0  0  0
    8.1285   -0.4260   18.3765 H   0  0  0  0  0  0  0  0  0  0  0  0
    6.6717    0.0065   19.9163 C   0  0  0  0  0  0  0  0  0  0  0  0
    7.4074   -0.7258   20.9914 C   0  0  0  0  0  0  0  0  0  0  0  0
    8.7545   -0.7155   20.9315 N   0  0  0  0  0  0  0  0  0  0  0  0
    9.4642   -1.3298   21.8799 N   0  0  0  0  0  0  0  0  0  0  0  0
    8.8509   -1.9789   22.8699 C   0  0  0  0  0  0  0  0  0  0  0  0
    9.4989   -2.4601   23.5890 H   0  0  0  0  0  0  0  0  0  0  0  0
    7.4338   -2.0648   22.9965 C   0  0  0  0  0  0  0  0  0  0  0  0
    6.7918   -2.7484   23.9951 N   0  0  0  0  0  0  0  0  0  0  0  0
    5.7818   -2.7100   24.0037 H   0  0  0  0  0  0  0  0  0  0  0  0
    7.4559   -3.4532   25.0779 C   0  0  0  0  0  0  0  0  0  0  0  0
    8.1108   -4.2259   24.6526 H   0  0  0  0  0  0  0  0  0  0  0  0
    8.1132   -2.7597   25.6234 H   0  0  0  0  0  0  0  0  0  0  0  0
    6.4534   -4.0532   26.0265 C   0  0  0  0  0  0  0  0  0  0  0  0
    5.9494   -5.3441   25.8273 C   0  0  0  0  0  0  0  0  0  0  0  0
    6.2952   -5.9433   24.9896 H   0  0  0  0  0  0  0  0  0  0  0  0
    5.0457   -5.9318   26.6251 N   0  0  0  0  0  0  0  0  0  0  0  0
    4.6069   -5.2289   27.6774 C   0  0  0  0  0  0  0  0  0  0  0  0
    3.8727   -5.7148   28.3137 H   0  0  0  0  0  0  0  0  0  0  0  0
    5.0413   -3.9336   27.9710 C   0  0  0  0  0  0  0  0  0  0  0  0
    4.6477   -3.4034   28.8313 H   0  0  0  0  0  0  0  0  0  0  0  0
    5.9827   -3.3381   27.1330 C   0  0  0  0  0  0  0  0  0  0  0  0
    6.3412   -2.3285   27.3293 H   0  0  0  0  0  0  0  0  0  0  0  0
    6.7154   -1.4011   22.0007 C   0  0  0  0  0  0  0  0  0  0  0  0
    5.6379   -1.4342   21.9655 H   0  0  0  0  0  0  0  0  0  0  0  0
    5.4465    0.6459   20.1639 C   0  0  0  0  0  0  0  0  0  0  0  0
    5.0020    0.6435   21.1617 H   0  0  0  0  0  0  0  0  0  0  0  0
    4.8123    1.3080   19.1136 C   0  0  0  0  0  0  0  0  0  0  0  0
    3.8778    1.8402   19.2628 H   0  0  0  0  0  0  0  0  0  0  0  0
  1  2  1  0
  2  3  2  0
  3  4  1  0
  4  5  1  0
  4  6  2  0
  6  7  1  0
  7  8  2  0
  8  9  1  0
  9 10  2  0
 10 11  1  0
 10 12  1  0
 12 13  1  0
 13 14  1  0
 13 15  1  0
 15 16  1  0
 15 17  1  0
 15 18  1  0
 18 19  2  0
 19 20  1  0
 19 21  1  0
 21 22  2  0
 22 23  1  0
 22 24  1  0
 24 25  1  0
 24 26  2  0
 26 27  1  0
 12 28  2  0
 28 29  1  0
  6 30  1  0
 30 31  1  0
 30 32  2  0
 32 33  1  0
 32  2  1  0
 28  7  1  0
 26 18  1  0
M  END
>  <cnnaffinity>  (1) 
-5.40093

>  <filename>  (1) 
c1cncc(CNc2cnnc(-c3cccnc3)c2)c1

$$$$
