
     RDKit          3D

 41 44  0  0  0  0  0  0  0  0999 V2000
    4.9537    1.8701   16.9346 H   0  0  0  0  0  0  0  0  0  0  0  0
    5.3868    1.3350   17.7819 C   0  0  0  0  0  0  0  0  0  0  0  0
    6.5371    0.6839   17.5554 N   0  0  0  0  0  0  0  0  0  0  0  0
    7.1053    0.0563   18.5927 C   0  0  0  0  0  0  0  0  0  0  0  0
    8.0285   -0.4740   18.3701 H   0  0  0  0  0  0  0  0  0  0  0  0
    6.5888    0.0321   19.9008 C   0  0  0  0  0  0  0  0  0  0  0  0
    7.3842   -0.6559   21.0032 C   0  0  0  0  0  0  0  0  0  0  0  0
    6.7687   -0.7622   21.9046 H   0  0  0  0  0  0  0  0  0  0  0  0
    7.6105   -1.6786   20.6803 H   0  0  0  0  0  0  0  0  0  0  0  0
    8.7000   -0.0007   21.3379 C   0  0  0  0  0  0  0  0  0  0  0  0
    9.9804   -0.3352   20.9532 C   0  0  0  0  0  0  0  0  0  0  0  0
   10.2478   -1.2172   20.3906 H   0  0  0  0  0  0  0  0  0  0  0  0
   10.8688    0.6519   21.4569 C   0  0  0  0  0  0  0  0  0  0  0  0
   11.9393    0.7173   21.3020 H   0  0  0  0  0  0  0  0  0  0  0  0
   10.1033    1.5411   22.1596 C   0  0  0  0  0  0  0  0  0  0  0  0
   10.3840    2.4421   22.6943 H   0  0  0  0  0  0  0  0  0  0  0  0
    8.7883    1.1454   22.0976 N   0  0  0  0  0  0  0  0  0  0  0  0
    7.7098    1.7397   22.8821 C   0  0  0  0  0  0  0  0  0  0  0  0
    6.8477    1.8766   22.2228 H   0  0  0  0  0  0  0  0  0  0  0  0
    8.0496    2.7384   23.1741 H   0  0  0  0  0  0  0  0  0  0  0  0
    7.3398    0.9455   24.1342 C   0  0  0  0  0  0  0  0  0  0  0  0
    8.3693    0.7035   25.1022 C   0  0  0  0  0  0  0  0  0  0  0  0
    9.3603    1.1353   24.9565 H   0  0  0  0  0  0  0  0  0  0  0  0
    8.1365   -0.0995   26.1882 C   0  0  0  0  0  0  0  0  0  0  0  0
    8.9056   -0.2766   26.9412 H   0  0  0  0  0  0  0  0  0  0  0  0
    6.8628   -0.7189   26.3674 C   0  0  0  0  0  0  0  0  0  0  0  0
    6.6494   -1.6209   27.4453 C   0  0  0  0  0  0  0  0  0  0  0  0
    7.5411   -1.9102   27.9853 H   0  0  0  0  0  0  0  0  0  0  0  0
    5.4000   -2.1221   27.7237 C   0  0  0  0  0  0  0  0  0  0  0  0
    5.2434   -2.7569   28.5954 H   0  0  0  0  0  0  0  0  0  0  0  0
    4.3121   -1.8082   26.8597 C   0  0  0  0  0  0  0  0  0  0  0  0
    3.3307   -2.2278   27.0773 H   0  0  0  0  0  0  0  0  0  0  0  0
    4.5049   -0.9986   25.7559 C   0  0  0  0  0  0  0  0  0  0  0  0
    3.6730   -0.7836   25.0912 H   0  0  0  0  0  0  0  0  0  0  0  0
    5.7870   -0.4198   25.4735 C   0  0  0  0  0  0  0  0  0  0  0  0
    6.0738    0.4269   24.3475 C   0  0  0  0  0  0  0  0  0  0  0  0
    5.2703    0.6254   23.6371 H   0  0  0  0  0  0  0  0  0  0  0  0
    5.3592    0.6749   20.0991 C   0  0  0  0  0  0  0  0  0  0  0  0
    4.8683    0.6694   21.0745 H   0  0  0  0  0  0  0  0  0  0  0  0
    4.7540    1.3407   19.0271 C   0  0  0  0  0  0  0  0  0  0  0  0
    3.8197    1.8756   19.1440 H   0  0  0  0  0  0  0  0  0  0  0  0
  1  2  1  0
  2  3  2  0
  3  4  1  0
  4  5  1  0
  4  6  2  0
  6  7  1  0
  7  8  1  0
  7  9  1  0
  7 10  1  0
 10 11  2  0
 11 12  1  0
 11 13  1  0
 13 14  1  0
 13 15  2  0
 15 16  1  0
 15 17  1  0
 17 18  1  0
 18 19  1  0
 18 20  1  0
 18 21  1  0
 21 22  2  0
 22 23  1  0
 22 24  1  0
 24 25  1  0
 24 26  2  0
 26 27  1  0
 27 28  1  0
 27 29  2  0
 29 30  1  0
 29 31  1  0
 31 32  1  0
 31 33  2  0
 33 34  1  0
 33 35  1  0
 35 36  2  0
 36 37  1  0
  6 38  1  0
 38 39  1  0
 38 40  2  0
 40 41  1  0
 40  2  1  0
 17 10  1  0
 36 21  1  0
 35 26  1  0
M  END
>  <cnnaffinity>  (1) 
-4.87665

>  <filename>  (1) 
c1cncc(Cc2cccn2Cc2ccc3ccccc3c2)c1

$$$$
