
     RDKit          3D

 34 37  0  0  0  0  0  0  0  0999 V2000
    4.9284    1.7753   16.9995 H   0  0  0  0  0  0  0  0  0  0  0  0
    5.4092    1.2882   17.8450 C   0  0  0  0  0  0  0  0  0  0  0  0
    6.5755    0.6692   17.5997 N   0  0  0  0  0  0  0  0  0  0  0  0
    7.1756    0.0541   18.6220 C   0  0  0  0  0  0  0  0  0  0  0  0
    8.1153   -0.4412   18.3865 H   0  0  0  0  0  0  0  0  0  0  0  0
    6.6532    0.0321   19.9192 C   0  0  0  0  0  0  0  0  0  0  0  0
    7.3770   -0.7265   20.9436 C   0  0  0  0  0  0  0  0  0  0  0  0
    7.9648   -1.8322   20.6925 N   0  0  0  0  0  0  0  0  0  0  0  0
    8.4554   -2.3725   21.9582 C   0  0  0  0  0  0  0  0  0  0  0  0
    8.0477   -3.3724   22.1260 H   0  0  0  0  0  0  0  0  0  0  0  0
    9.5421   -2.4714   21.9114 H   0  0  0  0  0  0  0  0  0  0  0  0
    8.0240   -1.3948   23.0658 C   0  0  0  0  0  0  0  0  0  0  0  0
    8.8725   -1.0155   23.6485 H   0  0  0  0  0  0  0  0  0  0  0  0
    7.3088   -1.8413   23.7722 H   0  0  0  0  0  0  0  0  0  0  0  0
    7.4207   -0.3170   22.2801 N   0  0  0  0  0  0  0  0  0  0  0  0
    7.2070    0.9249   22.8468 C   0  0  0  0  0  0  0  0  0  0  0  0
    6.8737    1.2220   24.1402 C   0  0  0  0  0  0  0  0  0  0  0  0
    6.6958    0.5194   24.9368 H   0  0  0  0  0  0  0  0  0  0  0  0
    6.8333    2.6420   24.2614 C   0  0  0  0  0  0  0  0  0  0  0  0
    6.5699    3.5257   25.3272 C   0  0  0  0  0  0  0  0  0  0  0  0
    6.3309    3.1202   26.3088 H   0  0  0  0  0  0  0  0  0  0  0  0
    6.6267    4.8961   25.0966 C   0  0  0  0  0  0  0  0  0  0  0  0
    6.4226    5.5929   25.9100 H   0  0  0  0  0  0  0  0  0  0  0  0
    6.9481    5.4000   23.8038 C   0  0  0  0  0  0  0  0  0  0  0  0
    6.9847    6.4785   23.6463 H   0  0  0  0  0  0  0  0  0  0  0  0
    7.2176    4.5475   22.7348 C   0  0  0  0  0  0  0  0  0  0  0  0
    7.4646    4.9235   21.7403 H   0  0  0  0  0  0  0  0  0  0  0  0
    7.1600    3.1699   22.9828 C   0  0  0  0  0  0  0  0  0  0  0  0
    7.3928    2.0998   22.1487 N   0  0  0  0  0  0  0  0  0  0  0  0
    7.6368    2.1568   21.1796 H   0  0  0  0  0  0  0  0  0  0  0  0
    5.4215    0.6563   20.1633 C   0  0  0  0  0  0  0  0  0  0  0  0
    4.9885    0.6466   21.1687 H   0  0  0  0  0  0  0  0  0  0  0  0
    4.7980    1.3078   19.1039 C   0  0  0  0  0  0  0  0  0  0  0  0
    3.8684    1.8438   19.2538 H   0  0  0  0  0  0  0  0  0  0  0  0
  1  2  1  0
  2  3  2  0
  3  4  1  0
  4  5  1  0
  4  6  2  0
  6  7  1  0
  7  8  2  0
  8  9  1  0
  9 10  1  0
  9 11  1  0
  9 12  1  0
 12 13  1  0
 12 14  1  0
 12 15  1  0
 15 16  1  0
 16 17  2  0
 17 18  1  0
 17 19  1  0
 19 20  2  0
 20 21  1  0
 20 22  1  0
 22 23  1  0
 22 24  2  0
 24 25  1  0
 24 26  1  0
 26 27  1  0
 26 28  2  0
 28 29  1  0
 29 30  1  0
  6 31  1  0
 31 32  1  0
 31 33  2  0
 33 34  1  0
 33  2  1  0
 15  7  1  0
 29 16  1  0
 28 19  1  0
M  END
>  <cnnaffinity>  (1) 
-5.01853

>  <filename>  (1) 
c1cncc(C2=NCCN2c2cc3ccccc3[nH]2)c1

$$$$
