
     RDKit          3D

 30 33  0  0  0  0  0  0  0  0999 V2000
    5.0060    1.8193   16.8996 H   0  0  0  0  0  0  0  0  0  0  0  0
    5.4266    1.2863   17.7453 C   0  0  0  0  0  0  0  0  0  0  0  0
    6.5851    0.6460   17.5140 N   0  0  0  0  0  0  0  0  0  0  0  0
    7.1544   -0.0034   18.5298 C   0  0  0  0  0  0  0  0  0  0  0  0
    8.0976   -0.5169   18.3445 H   0  0  0  0  0  0  0  0  0  0  0  0
    6.5896   -0.0346   19.8170 C   0  0  0  0  0  0  0  0  0  0  0  0
    7.2821   -0.6722   20.8879 N   0  0  0  0  0  0  0  0  0  0  0  0
    8.1305   -1.7278   20.7175 N   0  0  0  0  0  0  0  0  0  0  0  0
    8.6552   -1.9716   21.8554 N   0  0  0  0  0  0  0  0  0  0  0  0
    8.2137   -1.1067   22.8038 N   0  0  0  0  0  0  0  0  0  0  0  0
    7.3775   -0.3151   22.1836 C   0  0  0  0  0  0  0  0  0  0  0  0
    6.7199    0.7591   22.6436 O   0  0  0  0  0  0  0  0  0  0  0  0
    6.8636    1.1753   23.9267 C   0  0  0  0  0  0  0  0  0  0  0  0
    6.0424    2.0051   24.4761 N   0  0  0  0  0  0  0  0  0  0  0  0
    6.5395    2.1303   25.7710 C   0  0  0  0  0  0  0  0  0  0  0  0
    6.0446    2.8418   26.8701 C   0  0  0  0  0  0  0  0  0  0  0  0
    5.1544    3.4494   26.7472 H   0  0  0  0  0  0  0  0  0  0  0  0
    6.6895    2.6873   28.1006 C   0  0  0  0  0  0  0  0  0  0  0  0
    6.2986    3.1821   28.9819 H   0  0  0  0  0  0  0  0  0  0  0  0
    7.8233    1.8581   28.2346 C   0  0  0  0  0  0  0  0  0  0  0  0
    8.3326    1.8117   29.1914 H   0  0  0  0  0  0  0  0  0  0  0  0
    8.3257    1.1361   27.1522 C   0  0  0  0  0  0  0  0  0  0  0  0
    9.1653    0.4447   27.2322 H   0  0  0  0  0  0  0  0  0  0  0  0
    7.6847    1.3218   25.9373 C   0  0  0  0  0  0  0  0  0  0  0  0
    7.8973    0.7585   24.6981 N   0  0  0  0  0  0  0  0  0  0  0  0
    8.4787   -0.0213   24.4282 H   0  0  0  0  0  0  0  0  0  0  0  0
    5.3764    0.6224   20.0580 C   0  0  0  0  0  0  0  0  0  0  0  0
    4.9267    0.6296   21.0497 H   0  0  0  0  0  0  0  0  0  0  0  0
    4.7877    1.2965   18.9888 C   0  0  0  0  0  0  0  0  0  0  0  0
    3.8699    1.8577   19.1257 H   0  0  0  0  0  0  0  0  0  0  0  0
  1  2  1  0
  2  3  2  0
  3  4  1  0
  4  5  1  0
  4  6  2  0
  6  7  1  0
  7  8  1  0
  8  9  2  0
  9 10  1  0
 10 11  2  0
 11 12  1  0
 12 13  1  0
 13 14  2  0
 14 15  1  0
 15 16  2  0
 16 17  1  0
 16 18  1  0
 18 19  1  0
 18 20  2  0
 20 21  1  0
 20 22  1  0
 22 23  1  0
 22 24  2  0
 24 25  1  0
 25 26  1  0
  6 27  1  0
 27 28  1  0
 27 29  2  0
 29 30  1  0
 29  2  1  0
 11  7  1  0
 25 13  1  0
 24 15  1  0
M  END
>  <cnnaffinity>  (1) 
-5.23811

>  <filename>  (1) 
c1cncc(-n2nnnc2Oc2nc3ccccc3[nH]2)c1

$$$$
