
     RDKit          3D

 31 34  0  0  0  0  0  0  0  0999 V2000
    4.9117    1.7817   16.9945 H   0  0  0  0  0  0  0  0  0  0  0  0
    5.3994    1.2953   17.8363 C   0  0  0  0  0  0  0  0  0  0  0  0
    6.5626    0.6777   17.5745 N   0  0  0  0  0  0  0  0  0  0  0  0
    7.1742    0.0635   18.5895 C   0  0  0  0  0  0  0  0  0  0  0  0
    8.1137   -0.4340   18.3650 H   0  0  0  0  0  0  0  0  0  0  0  0
    6.6669    0.0122   19.8996 C   0  0  0  0  0  0  0  0  0  0  0  0
    7.3705   -0.6713   20.9285 N   0  0  0  0  0  0  0  0  0  0  0  0
    8.7250   -0.8541   21.0741 C   0  0  0  0  0  0  0  0  0  0  0  0
    9.4245   -0.4422   20.3549 H   0  0  0  0  0  0  0  0  0  0  0  0
    9.0286   -1.5463   22.1313 N   0  0  0  0  0  0  0  0  0  0  0  0
    7.8212   -1.8186   22.7555 C   0  0  0  0  0  0  0  0  0  0  0  0
    7.6686   -2.5382   24.0177 C   0  0  0  0  0  0  0  0  0  0  0  0
    6.5434   -2.4806   24.7841 C   0  0  0  0  0  0  0  0  0  0  0  0
    5.6445   -1.9124   24.5750 H   0  0  0  0  0  0  0  0  0  0  0  0
    6.6268   -3.3892   26.2411 S   0  0  0  0  0  0  0  0  0  0  0  0
    8.2387   -3.9192   25.8476 C   0  0  0  0  0  0  0  0  0  0  0  0
    9.0565   -4.7706   26.6090 C   0  0  0  0  0  0  0  0  0  0  0  0
    8.7127   -5.1730   27.5586 H   0  0  0  0  0  0  0  0  0  0  0  0
   10.3140   -5.0984   26.1141 C   0  0  0  0  0  0  0  0  0  0  0  0
   10.9467   -5.7648   26.6894 H   0  0  0  0  0  0  0  0  0  0  0  0
   10.7635   -4.5913   24.8748 C   0  0  0  0  0  0  0  0  0  0  0  0
   11.7462   -4.8620   24.5044 H   0  0  0  0  0  0  0  0  0  0  0  0
    9.9603   -3.7503   24.1189 C   0  0  0  0  0  0  0  0  0  0  0  0
   10.2883   -3.3518   23.1599 H   0  0  0  0  0  0  0  0  0  0  0  0
    8.6801   -3.3952   24.6131 C   0  0  0  0  0  0  0  0  0  0  0  0
    6.8024   -1.2963   22.0113 C   0  0  0  0  0  0  0  0  0  0  0  0
    5.7370   -1.3549   22.1503 H   0  0  0  0  0  0  0  0  0  0  0  0
    5.4448    0.6474   20.1617 C   0  0  0  0  0  0  0  0  0  0  0  0
    5.0135    0.6389   21.1661 H   0  0  0  0  0  0  0  0  0  0  0  0
    4.8095    1.3090   19.1070 C   0  0  0  0  0  0  0  0  0  0  0  0
    3.8750    1.8417   19.2643 H   0  0  0  0  0  0  0  0  0  0  0  0
  1  2  1  0
  2  3  2  0
  3  4  1  0
  4  5  1  0
  4  6  2  0
  6  7  1  0
  7  8  1  0
  8  9  1  0
  8 10  2  0
 10 11  1  0
 11 12  1  0
 12 13  2  0
 13 14  1  0
 13 15  1  0
 15 16  1  0
 16 17  2  0
 17 18  1  0
 17 19  1  0
 19 20  1  0
 19 21  2  0
 21 22  1  0
 21 23  1  0
 23 24  1  0
 23 25  2  0
 11 26  2  0
 26 27  1  0
  6 28  1  0
 28 29  1  0
 28 30  2  0
 30 31  1  0
 30  2  1  0
 26  7  1  0
 25 12  1  0
 25 16  1  0
M  END
>  <cnnaffinity>  (1) 
-5.45132

>  <filename>  (1) 
c1cncc(-n2cnc(-c3csc4ccccc34)c2)c1

$$$$
