
     RDKit          3D

 35 38  0  0  0  0  0  0  0  0999 V2000
    4.9287    1.8078   16.9741 H   0  0  0  0  0  0  0  0  0  0  0  0
    5.3902    1.2954   17.8176 C   0  0  0  0  0  0  0  0  0  0  0  0
    6.5514    0.6715   17.5621 N   0  0  0  0  0  0  0  0  0  0  0  0
    7.1573    0.0597   18.5875 C   0  0  0  0  0  0  0  0  0  0  0  0
    8.1069   -0.4242   18.3500 H   0  0  0  0  0  0  0  0  0  0  0  0
    6.6595    0.0348   19.8999 C   0  0  0  0  0  0  0  0  0  0  0  0
    7.3891   -0.6667   20.9993 C   0  0  0  0  0  0  0  0  0  0  0  0
    7.6071   -2.0417   20.8509 C   0  0  0  0  0  0  0  0  0  0  0  0
    7.1606   -2.5141   19.9803 H   0  0  0  0  0  0  0  0  0  0  0  0
    8.2865   -2.7727   21.8233 C   0  0  0  0  0  0  0  0  0  0  0  0
    8.5010   -3.8246   21.6674 H   0  0  0  0  0  0  0  0  0  0  0  0
    8.6805   -2.1476   23.0125 C   0  0  0  0  0  0  0  0  0  0  0  0
    9.1670   -2.7208   23.8007 H   0  0  0  0  0  0  0  0  0  0  0  0
    8.4090   -0.7933   23.2046 C   0  0  0  0  0  0  0  0  0  0  0  0
    8.6679   -0.3037   24.1424 H   0  0  0  0  0  0  0  0  0  0  0  0
    7.7872   -0.0277   22.1967 C   0  0  0  0  0  0  0  0  0  0  0  0
    7.5596    1.4264   22.4033 C   0  0  0  0  0  0  0  0  0  0  0  0
    8.1136    2.3832   21.5430 C   0  0  0  0  0  0  0  0  0  0  0  0
    8.6713    2.0429   20.6778 H   0  0  0  0  0  0  0  0  0  0  0  0
    7.9281    3.7605   21.7814 C   0  0  0  0  0  0  0  0  0  0  0  0
    8.3973    4.5109   21.1572 H   0  0  0  0  0  0  0  0  0  0  0  0
    7.1168    4.2100   22.8118 C   0  0  0  0  0  0  0  0  0  0  0  0
    6.9378    5.2729   22.9268 H   0  0  0  0  0  0  0  0  0  0  0  0
    6.5348    3.2504   23.6507 C   0  0  0  0  0  0  0  0  0  0  0  0
    6.7474    1.8650   23.4771 C   0  0  0  0  0  0  0  0  0  0  0  0
    5.9925    1.2001   24.5068 C   0  0  0  0  0  0  0  0  0  0  0  0
    5.9154    0.1242   24.6270 H   0  0  0  0  0  0  0  0  0  0  0  0
    5.3891    2.1746   25.2499 C   0  0  0  0  0  0  0  0  0  0  0  0
    4.7523    2.0979   26.1210 H   0  0  0  0  0  0  0  0  0  0  0  0
    5.7110    3.4106   24.7348 N   0  0  0  0  0  0  0  0  0  0  0  0
    5.4111    4.3073   25.0786 H   0  0  0  0  0  0  0  0  0  0  0  0
    5.4358    0.6721   20.1392 C   0  0  0  0  0  0  0  0  0  0  0  0
    5.0307    0.6666   21.1529 H   0  0  0  0  0  0  0  0  0  0  0  0
    4.7890    1.3110   19.0809 C   0  0  0  0  0  0  0  0  0  0  0  0
    3.8562    1.8464   19.2231 H   0  0  0  0  0  0  0  0  0  0  0  0
  1  2  1  0
  2  3  2  0
  3  4  1  0
  4  5  1  0
  4  6  2  0
  6  7  1  0
  7  8  2  0
  8  9  1  0
  8 10  1  0
 10 11  1  0
 10 12  2  0
 12 13  1  0
 12 14  1  0
 14 15  1  0
 14 16  2  0
 16 17  1  0
 17 18  2  0
 18 19  1  0
 18 20  1  0
 20 21  1  0
 20 22  2  0
 22 23  1  0
 22 24  1  0
 24 25  2  0
 25 26  1  0
 26 27  1  0
 26 28  2  0
 28 29  1  0
 28 30  1  0
 30 31  1  0
  6 32  1  0
 32 33  1  0
 32 34  2  0
 34 35  1  0
 34  2  1  0
 16  7  1  0
 25 17  1  0
 30 24  1  0
M  END
>  <cnnaffinity>  (1) 
-4.71447

>  <filename>  (1) 
c1cncc(-c2ccccc2-c2cccc3[nH]ccc23)c1

$$$$
