
     RDKit          3D

 36 40  0  0  0  0  0  0  0  0999 V2000
    4.9275    1.7725   17.0030 H   0  0  0  0  0  0  0  0  0  0  0  0
    5.4085    1.2856   17.8470 C   0  0  0  0  0  0  0  0  0  0  0  0
    6.5736    0.6679   17.5956 N   0  0  0  0  0  0  0  0  0  0  0  0
    7.1798    0.0532   18.6161 C   0  0  0  0  0  0  0  0  0  0  0  0
    8.1267   -0.4330   18.3856 H   0  0  0  0  0  0  0  0  0  0  0  0
    6.6461    0.0158   19.9123 C   0  0  0  0  0  0  0  0  0  0  0  0
    7.3650   -0.6905   20.9681 C   0  0  0  0  0  0  0  0  0  0  0  0
    8.5513   -1.3246   20.7607 N   0  0  0  0  0  0  0  0  0  0  0  0
    8.7989   -1.8150   21.9541 C   0  0  0  0  0  0  0  0  0  0  0  0
    9.9927   -2.8115   22.7276 S   0  0  0  0  0  0  0  0  0  0  0  0
    9.0714   -2.7722   24.2037 C   0  0  0  0  0  0  0  0  0  0  0  0
    9.4566   -3.2954   25.0667 H   0  0  0  0  0  0  0  0  0  0  0  0
    7.9420   -2.0331   24.1273 C   0  0  0  0  0  0  0  0  0  0  0  0
    6.9501   -1.7902   25.2088 C   0  0  0  0  0  0  0  0  0  0  0  0
    6.2189   -0.5879   25.2977 C   0  0  0  0  0  0  0  0  0  0  0  0
    6.3776    0.1855   24.5486 H   0  0  0  0  0  0  0  0  0  0  0  0
    5.2911   -0.4048   26.3237 C   0  0  0  0  0  0  0  0  0  0  0  0
    4.7251    0.5176   26.3856 H   0  0  0  0  0  0  0  0  0  0  0  0
    5.0682   -1.3975   27.2856 C   0  0  0  0  0  0  0  0  0  0  0  0
    5.8269   -2.5938   27.2341 C   0  0  0  0  0  0  0  0  0  0  0  0
    6.7416   -2.7763   26.1978 C   0  0  0  0  0  0  0  0  0  0  0  0
    7.2799   -3.7182   26.1583 H   0  0  0  0  0  0  0  0  0  0  0  0
    5.6539   -3.5957   28.1595 O   0  0  0  0  0  0  0  0  0  0  0  0
    4.9476   -3.2215   29.3498 C   0  0  0  0  0  0  0  0  0  0  0  0
    4.6177   -4.1562   29.8053 H   0  0  0  0  0  0  0  0  0  0  0  0
    5.6022   -2.7116   30.0657 H   0  0  0  0  0  0  0  0  0  0  0  0
    3.7547   -2.3259   29.0330 C   0  0  0  0  0  0  0  0  0  0  0  0
    2.9881   -2.9010   28.4982 H   0  0  0  0  0  0  0  0  0  0  0  0
    3.3181   -1.9408   29.9566 H   0  0  0  0  0  0  0  0  0  0  0  0
    4.1473   -1.1722   28.2769 O   0  0  0  0  0  0  0  0  0  0  0  0
    7.8287   -1.4910   22.8366 N   0  0  0  0  0  0  0  0  0  0  0  0
    6.8806   -0.7588   22.2042 N   0  0  0  0  0  0  0  0  0  0  0  0
    5.4253    0.6590   20.1677 C   0  0  0  0  0  0  0  0  0  0  0  0
    4.9986    0.6349   21.1755 H   0  0  0  0  0  0  0  0  0  0  0  0
    4.8044    1.3103   19.1090 C   0  0  0  0  0  0  0  0  0  0  0  0
    3.8741    1.8432   19.2575 H   0  0  0  0  0  0  0  0  0  0  0  0
  1  2  1  0
  2  3  2  0
  3  4  1  0
  4  5  1  0
  4  6  2  0
  6  7  1  0
  7  8  1  0
  8  9  2  0
  9 10  1  0
 10 11  1  0
 11 12  1  0
 11 13  2  0
 13 14  1  0
 14 15  2  0
 15 16  1  0
 15 17  1  0
 17 18  1  0
 17 19  2  0
 19 20  1  0
 20 21  2  0
 21 22  1  0
 20 23  1  0
 23 24  1  0
 24 25  1  0
 24 26  1  0
 24 27  1  0
 27 28  1  0
 27 29  1  0
 27 30  1  0
 13 31  1  0
 31 32  1  0
  6 33  1  0
 33 34  1  0
 33 35  2  0
 35 36  1  0
 35  2  1  0
 32  7  2  0
 31  9  1  0
 21 14  1  0
 30 19  1  0
M  END
>  <cnnaffinity>  (1) 
-5.70332

>  <filename>  (1) 
c1cncc(-c2nc3scc(-c4ccc5c(c4)OCCO5)n3n2)c1

$$$$
