
     RDKit          3D

 35 37  0  0  0  0  0  0  0  0999 V2000
    4.9124    1.7790   16.9960 H   0  0  0  0  0  0  0  0  0  0  0  0
    5.4015    1.2947   17.8357 C   0  0  0  0  0  0  0  0  0  0  0  0
    6.5648    0.6776   17.5686 N   0  0  0  0  0  0  0  0  0  0  0  0
    7.1730    0.0736   18.5942 C   0  0  0  0  0  0  0  0  0  0  0  0
    8.1135   -0.4276   18.3725 H   0  0  0  0  0  0  0  0  0  0  0  0
    6.6563    0.0187   19.8960 C   0  0  0  0  0  0  0  0  0  0  0  0
    7.3776   -0.6976   20.9612 C   0  0  0  0  0  0  0  0  0  0  0  0
    8.7576   -0.5607   21.1112 C   0  0  0  0  0  0  0  0  0  0  0  0
    9.3246    0.0914   20.4605 H   0  0  0  0  0  0  0  0  0  0  0  0
    9.3761   -1.2527   22.1438 C   0  0  0  0  0  0  0  0  0  0  0  0
   10.4465   -1.1601   22.2774 H   0  0  0  0  0  0  0  0  0  0  0  0
    8.7288   -2.0570   22.9984 N   0  0  0  0  0  0  0  0  0  0  0  0
    7.3990   -2.1830   22.8655 C   0  0  0  0  0  0  0  0  0  0  0  0
    6.6276   -3.1181   23.8035 C   0  0  0  0  0  0  0  0  0  0  0  0
    5.6091   -2.7140   23.8850 H   0  0  0  0  0  0  0  0  0  0  0  0
    7.2112   -3.1871   25.2346 C   0  0  0  0  0  0  0  0  0  0  0  0
    7.4639   -2.1775   25.5789 H   0  0  0  0  0  0  0  0  0  0  0  0
    6.4373   -3.5718   25.9118 H   0  0  0  0  0  0  0  0  0  0  0  0
    8.4365   -4.1086   25.3500 C   0  0  0  0  0  0  0  0  0  0  0  0
    9.2906   -3.6592   24.8406 H   0  0  0  0  0  0  0  0  0  0  0  0
    8.7211   -4.2213   26.4025 H   0  0  0  0  0  0  0  0  0  0  0  0
    8.2156   -5.4368   24.7675 N   0  0  0  0  0  0  0  0  0  0  0  0
    7.4537   -5.8635   25.2904 H   0  0  0  0  0  0  0  0  0  0  0  0
    7.7884   -5.3515   23.3692 C   0  0  0  0  0  0  0  0  0  0  0  0
    8.5984   -4.8871   22.7962 H   0  0  0  0  0  0  0  0  0  0  0  0
    7.6648   -6.3642   22.9702 H   0  0  0  0  0  0  0  0  0  0  0  0
    6.4985   -4.5433   23.1969 C   0  0  0  0  0  0  0  0  0  0  0  0
    5.6888   -5.0856   23.7054 H   0  0  0  0  0  0  0  0  0  0  0  0
    6.2191   -4.4873   22.1375 H   0  0  0  0  0  0  0  0  0  0  0  0
    6.6971   -1.5260   21.8487 C   0  0  0  0  0  0  0  0  0  0  0  0
    5.6281   -1.6734   21.7300 H   0  0  0  0  0  0  0  0  0  0  0  0
    5.4316    0.6532   20.1501 C   0  0  0  0  0  0  0  0  0  0  0  0
    5.0107    0.6337   21.1608 H   0  0  0  0  0  0  0  0  0  0  0  0
    4.8020    1.3175   19.1025 C   0  0  0  0  0  0  0  0  0  0  0  0
    3.8682    1.8474   19.2600 H   0  0  0  0  0  0  0  0  0  0  0  0
  1  2  1  0
  2  3  2  0
  3  4  1  0
  4  5  1  0
  4  6  2  0
  6  7  1  0
  7  8  2  0
  8  9  1  0
  8 10  1  0
 10 11  1  0
 10 12  2  0
 12 13  1  0
 13 14  1  0
 14 15  1  0
 14 16  1  0
 16 17  1  0
 16 18  1  0
 16 19  1  0
 19 20  1  0
 19 21  1  0
 19 22  1  0
 22 23  1  0
 22 24  1  0
 24 25  1  0
 24 26  1  0
 24 27  1  0
 27 28  1  0
 27 29  1  0
 13 30  2  0
 30 31  1  0
  6 32  1  0
 32 33  1  0
 32 34  2  0
 34 35  1  0
 34  2  1  0
 30  7  1  0
 27 14  1  0
M  END
>  <cnnaffinity>  (1) 
-4.90145

>  <filename>  (1) 
c1cncc(-c2ccnc(C3CCNCC3)c2)c1

$$$$
