
     RDKit          3D

 41 43  0  0  0  0  0  0  0  0999 V2000
    4.9146    1.7865   16.9947 H   0  0  0  0  0  0  0  0  0  0  0  0
    5.3964    1.2967   17.8376 C   0  0  0  0  0  0  0  0  0  0  0  0
    6.5602    0.6813   17.5723 N   0  0  0  0  0  0  0  0  0  0  0  0
    7.1724    0.0591   18.5905 C   0  0  0  0  0  0  0  0  0  0  0  0
    8.1211   -0.4291   18.3748 H   0  0  0  0  0  0  0  0  0  0  0  0
    6.6631   -0.0137   19.9115 C   0  0  0  0  0  0  0  0  0  0  0  0
    7.3263   -0.7094   20.9291 N   0  0  0  0  0  0  0  0  0  0  0  0
    6.7629   -1.1276   21.6579 H   0  0  0  0  0  0  0  0  0  0  0  0
    8.7119   -0.7020   21.1389 C   0  0  0  0  0  0  0  0  0  0  0  0
    9.6916    0.1994   20.6630 C   0  0  0  0  0  0  0  0  0  0  0  0
    9.5227    1.0269   19.9959 H   0  0  0  0  0  0  0  0  0  0  0  0
   10.9049   -0.0768   21.1312 N   0  0  0  0  0  0  0  0  0  0  0  0
   10.7045   -1.1616   21.8953 N   0  0  0  0  0  0  0  0  0  0  0  0
   11.4871   -1.5485   22.3966 H   0  0  0  0  0  0  0  0  0  0  0  0
    9.4143   -1.5866   21.9303 C   0  0  0  0  0  0  0  0  0  0  0  0
    8.9166   -2.6747   22.8091 C   0  0  0  0  0  0  0  0  0  0  0  0
    8.0536   -3.1508   22.3322 H   0  0  0  0  0  0  0  0  0  0  0  0
    9.6810   -3.4518   22.9369 H   0  0  0  0  0  0  0  0  0  0  0  0
    8.4822   -2.1321   24.1742 C   0  0  0  0  0  0  0  0  0  0  0  0
    7.7835   -1.3022   23.9976 H   0  0  0  0  0  0  0  0  0  0  0  0
    9.3494   -1.6746   24.6923 H   0  0  0  0  0  0  0  0  0  0  0  0
    7.8483   -3.1639   24.9864 N   0  0  0  0  0  0  0  0  0  0  0  0
    6.8904   -2.5940   25.9411 C   0  0  0  0  0  0  0  0  0  0  0  0
    6.1638   -1.9863   25.3872 H   0  0  0  0  0  0  0  0  0  0  0  0
    7.3929   -1.9133   26.6616 H   0  0  0  0  0  0  0  0  0  0  0  0
    6.1505   -3.6890   26.7071 C   0  0  0  0  0  0  0  0  0  0  0  0
    5.5413   -4.2594   25.9953 H   0  0  0  0  0  0  0  0  0  0  0  0
    5.4602   -3.2287   27.4230 H   0  0  0  0  0  0  0  0  0  0  0  0
    7.1299   -4.6294   27.4198 C   0  0  0  0  0  0  0  0  0  0  0  0
    6.5952   -5.4589   27.8953 H   0  0  0  0  0  0  0  0  0  0  0  0
    7.6489   -4.0886   28.2207 H   0  0  0  0  0  0  0  0  0  0  0  0
    8.1798   -5.1478   26.4322 C   0  0  0  0  0  0  0  0  0  0  0  0
    7.7086   -5.8176   25.7040 H   0  0  0  0  0  0  0  0  0  0  0  0
    8.9448   -5.7302   26.9584 H   0  0  0  0  0  0  0  0  0  0  0  0
    8.8432   -3.9941   25.6826 C   0  0  0  0  0  0  0  0  0  0  0  0
    9.5604   -4.3938   24.9573 H   0  0  0  0  0  0  0  0  0  0  0  0
    9.4349   -3.3840   26.3990 H   0  0  0  0  0  0  0  0  0  0  0  0
    5.4411    0.6304   20.1634 C   0  0  0  0  0  0  0  0  0  0  0  0
    5.0190    0.6226   21.1686 H   0  0  0  0  0  0  0  0  0  0  0  0
    4.8121    1.3047   19.1089 C   0  0  0  0  0  0  0  0  0  0  0  0
    3.8827    1.8370   19.2637 H   0  0  0  0  0  0  0  0  0  0  0  0
  1  2  1  0
  2  3  2  0
  3  4  1  0
  4  5  1  0
  4  6  2  0
  6  7  1  0
  7  8  1  0
  7  9  1  0
  9 10  1  0
 10 11  1  0
 10 12  2  0
 12 13  1  0
 13 14  1  0
 13 15  1  0
 15 16  1  0
 16 17  1  0
 16 18  1  0
 16 19  1  0
 19 20  1  0
 19 21  1  0
 19 22  1  0
 22 23  1  0
 23 24  1  0
 23 25  1  0
 23 26  1  0
 26 27  1  0
 26 28  1  0
 26 29  1  0
 29 30  1  0
 29 31  1  0
 29 32  1  0
 32 33  1  0
 32 34  1  0
 32 35  1  0
 35 36  1  0
 35 37  1  0
  6 38  1  0
 38 39  1  0
 38 40  2  0
 40 41  1  0
 40  2  1  0
 15  9  2  0
 35 22  1  0
M  END
>  <cnnaffinity>  (1) 
-5.60926

>  <filename>  (1) 
c1cncc(Nc2cn[nH]c2CCN2CCCCC2)c1

$$$$
