
     RDKit          3D

 39 42  0  0  0  0  0  0  0  0999 V2000
    4.9521    1.8071   17.0658 H   0  0  0  0  0  0  0  0  0  0  0  0
    5.4412    1.2861   17.8856 C   0  0  0  0  0  0  0  0  0  0  0  0
    6.6085    0.6780   17.6045 N   0  0  0  0  0  0  0  0  0  0  0  0
    7.2210    0.0363   18.6090 C   0  0  0  0  0  0  0  0  0  0  0  0
    8.1612   -0.4574   18.3604 H   0  0  0  0  0  0  0  0  0  0  0  0
    6.7286   -0.0547   19.9408 C   0  0  0  0  0  0  0  0  0  0  0  0
    7.4168   -0.8203   20.8921 N   0  0  0  0  0  0  0  0  0  0  0  0
    8.3921   -0.9596   20.6498 H   0  0  0  0  0  0  0  0  0  0  0  0
    7.2881   -0.7264   22.3209 C   0  0  0  0  0  0  0  0  0  0  0  0
    7.4227    0.6557   22.9593 C   0  0  0  0  0  0  0  0  0  0  0  0
    7.1367    0.5956   24.0154 H   0  0  0  0  0  0  0  0  0  0  0  0
    6.7241    1.3517   22.4847 H   0  0  0  0  0  0  0  0  0  0  0  0
    8.8454    1.1616   22.8463 C   0  0  0  0  0  0  0  0  0  0  0  0
    9.2291    1.9797   21.7419 C   0  0  0  0  0  0  0  0  0  0  0  0
    8.4665    2.3517   21.0584 H   0  0  0  0  0  0  0  0  0  0  0  0
   10.5430    2.3207   21.5474 C   0  0  0  0  0  0  0  0  0  0  0  0
   10.8638    2.8735   20.6685 H   0  0  0  0  0  0  0  0  0  0  0  0
   11.5470    1.8850   22.4599 C   0  0  0  0  0  0  0  0  0  0  0  0
   12.9102    2.2457   22.2893 C   0  0  0  0  0  0  0  0  0  0  0  0
   13.1346    3.0240   21.5657 H   0  0  0  0  0  0  0  0  0  0  0  0
   13.8974    1.6340   23.0236 C   0  0  0  0  0  0  0  0  0  0  0  0
   14.9400    1.8174   22.7827 H   0  0  0  0  0  0  0  0  0  0  0  0
   13.5525    0.7311   24.0696 C   0  0  0  0  0  0  0  0  0  0  0  0
   14.3484    0.2575   24.6387 H   0  0  0  0  0  0  0  0  0  0  0  0
   12.2323    0.4668   24.3533 C   0  0  0  0  0  0  0  0  0  0  0  0
   11.9621   -0.1951   25.1739 H   0  0  0  0  0  0  0  0  0  0  0  0
   11.1897    1.0267   23.5468 C   0  0  0  0  0  0  0  0  0  0  0  0
    9.8116    0.7213   23.7313 C   0  0  0  0  0  0  0  0  0  0  0  0
    9.5318    0.0849   24.5694 H   0  0  0  0  0  0  0  0  0  0  0  0
    7.9596   -1.9088   22.9647 C   0  0  0  0  0  0  0  0  0  0  0  0
    8.4163   -2.6343   22.2971 H   0  0  0  0  0  0  0  0  0  0  0  0
    8.5100   -1.7748   23.8889 H   0  0  0  0  0  0  0  0  0  0  0  0
    6.4633   -1.7835   22.9908 C   0  0  0  0  0  0  0  0  0  0  0  0
    5.8596   -2.4309   22.3613 H   0  0  0  0  0  0  0  0  0  0  0  0
    6.0348   -1.5221   23.9546 H   0  0  0  0  0  0  0  0  0  0  0  0
    5.5068    0.5805   20.1996 C   0  0  0  0  0  0  0  0  0  0  0  0
    5.0844    0.5438   21.2010 H   0  0  0  0  0  0  0  0  0  0  0  0
    4.8603    1.2588   19.1573 C   0  0  0  0  0  0  0  0  0  0  0  0
    3.9228    1.7747   19.3324 H   0  0  0  0  0  0  0  0  0  0  0  0
  1  2  1  0
  2  3  2  0
  3  4  1  0
  4  5  1  0
  4  6  2  0
  6  7  1  0
  7  8  1  0
  7  9  1  0
  9 10  1  0
 10 11  1  0
 10 12  1  0
 10 13  1  0
 13 14  2  0
 14 15  1  0
 14 16  1  0
 16 17  1  0
 16 18  2  0
 18 19  1  0
 19 20  1  0
 19 21  2  0
 21 22  1  0
 21 23  1  0
 23 24  1  0
 23 25  2  0
 25 26  1  0
 25 27  1  0
 27 28  2  0
 28 29  1  0
  9 30  1  0
 30 31  1  0
 30 32  1  0
 30 33  1  0
 33 34  1  0
 33 35  1  0
  6 36  1  0
 36 37  1  0
 36 38  2  0
 38 39  1  0
 38  2  1  0
 33  9  1  0
 28 13  1  0
 27 18  1  0
M  END
>  <cnnaffinity>  (1) 
-5.43305

>  <filename>  (1) 
c1cncc(NC2(Cc3ccc4ccccc4c3)CC2)c1

$$$$
