
     RDKit          3D

 40 42  0  0  0  0  0  0  0  0999 V2000
    4.9458    1.7849   16.9896 H   0  0  0  0  0  0  0  0  0  0  0  0
    5.4110    1.2842   17.8351 C   0  0  0  0  0  0  0  0  0  0  0  0
    6.5751    0.6597   17.5897 N   0  0  0  0  0  0  0  0  0  0  0  0
    7.1821    0.0444   18.6148 C   0  0  0  0  0  0  0  0  0  0  0  0
    8.1306   -0.4304   18.3726 H   0  0  0  0  0  0  0  0  0  0  0  0
    6.6581    0.0019   19.9245 C   0  0  0  0  0  0  0  0  0  0  0  0
    7.3569   -0.7022   21.0119 C   0  0  0  0  0  0  0  0  0  0  0  0
    8.5557   -1.3353   20.8071 N   0  0  0  0  0  0  0  0  0  0  0  0
    8.8953   -1.8528   21.9659 C   0  0  0  0  0  0  0  0  0  0  0  0
    9.7835   -2.4281   22.2043 H   0  0  0  0  0  0  0  0  0  0  0  0
    7.9549   -1.5795   22.9109 N   0  0  0  0  0  0  0  0  0  0  0  0
    8.0913   -2.0245   24.2067 O   0  0  0  0  0  0  0  0  0  0  0  0
    7.0083   -1.6505   25.0822 C   0  0  0  0  0  0  0  0  0  0  0  0
    6.9219   -0.5604   25.1423 H   0  0  0  0  0  0  0  0  0  0  0  0
    6.0604   -2.0608   24.7174 H   0  0  0  0  0  0  0  0  0  0  0  0
    7.3398   -2.2281   26.4576 C   0  0  0  0  0  0  0  0  0  0  0  0
    8.3108   -1.8369   26.7866 H   0  0  0  0  0  0  0  0  0  0  0  0
    7.4674   -3.3142   26.3687 H   0  0  0  0  0  0  0  0  0  0  0  0
    6.3501   -1.9597   27.5068 N   0  0  0  0  0  0  0  0  0  0  0  0
    6.2136   -0.5539   27.8889 C   0  0  0  0  0  0  0  0  0  0  0  0
    5.7215    0.0477   27.0968 H   0  0  0  0  0  0  0  0  0  0  0  0
    7.2177   -0.1356   28.0285 H   0  0  0  0  0  0  0  0  0  0  0  0
    5.3915   -0.3947   29.1767 C   0  0  0  0  0  0  0  0  0  0  0  0
    5.9403   -0.8359   30.0180 H   0  0  0  0  0  0  0  0  0  0  0  0
    5.2854    0.6728   29.3996 H   0  0  0  0  0  0  0  0  0  0  0  0
    4.0114   -1.0599   29.0436 C   0  0  0  0  0  0  0  0  0  0  0  0
    3.4024   -0.5064   28.3100 H   0  0  0  0  0  0  0  0  0  0  0  0
    3.4564   -1.0102   29.9904 H   0  0  0  0  0  0  0  0  0  0  0  0
    4.1839   -2.5159   28.5790 C   0  0  0  0  0  0  0  0  0  0  0  0
    3.2090   -2.9722   28.3736 H   0  0  0  0  0  0  0  0  0  0  0  0
    4.6500   -3.1128   29.3736 H   0  0  0  0  0  0  0  0  0  0  0  0
    5.0479   -2.5973   27.3118 C   0  0  0  0  0  0  0  0  0  0  0  0
    5.2156   -3.6461   27.0385 H   0  0  0  0  0  0  0  0  0  0  0  0
    4.4763   -2.1350   26.4806 H   0  0  0  0  0  0  0  0  0  0  0  0
    6.9580   -0.8390   22.3168 C   0  0  0  0  0  0  0  0  0  0  0  0
    6.0923   -0.4805   22.8481 H   0  0  0  0  0  0  0  0  0  0  0  0
    5.4356    0.6550   20.1530 C   0  0  0  0  0  0  0  0  0  0  0  0
    4.9809    0.6611   21.1451 H   0  0  0  0  0  0  0  0  0  0  0  0
    4.8128    1.3059   19.0961 C   0  0  0  0  0  0  0  0  0  0  0  0
    3.8837    1.8352   19.2436 H   0  0  0  0  0  0  0  0  0  0  0  0
  1  2  1  0
  2  3  2  0
  3  4  1  0
  4  5  1  0
  4  6  2  0
  6  7  1  0
  7  8  1  0
  8  9  2  0
  9 10  1  0
  9 11  1  0
 11 12  1  0
 12 13  1  0
 13 14  1  0
 13 15  1  0
 13 16  1  0
 16 17  1  0
 16 18  1  0
 16 19  1  0
 19 20  1  0
 20 21  1  0
 20 22  1  0
 20 23  1  0
 23 24  1  0
 23 25  1  0
 23 26  1  0
 26 27  1  0
 26 28  1  0
 26 29  1  0
 29 30  1  0
 29 31  1  0
 29 32  1  0
 32 33  1  0
 32 34  1  0
 11 35  1  0
 35 36  1  0
  6 37  1  0
 37 38  1  0
 37 39  2  0
 39 40  1  0
 39  2  1  0
 35  7  2  0
 32 19  1  0
M  END
>  <cnnaffinity>  (1) 
-4.54021

>  <filename>  (1) 
c1cncc(-c2cn(OCCN3CCCCC3)cn2)c1

$$$$
