
     RDKit          3D

 32 35  0  0  0  0  0  0  0  0999 V2000
    4.9181    1.7769   17.0028 H   0  0  0  0  0  0  0  0  0  0  0  0
    5.4059    1.2888   17.8449 C   0  0  0  0  0  0  0  0  0  0  0  0
    6.5715    0.6795   17.5829 N   0  0  0  0  0  0  0  0  0  0  0  0
    7.1764    0.0516   18.5955 C   0  0  0  0  0  0  0  0  0  0  0  0
    8.1229   -0.4335   18.3731 H   0  0  0  0  0  0  0  0  0  0  0  0
    6.6600   -0.0048   19.8983 C   0  0  0  0  0  0  0  0  0  0  0  0
    7.4000   -0.7269   20.9638 C   0  0  0  0  0  0  0  0  0  0  0  0
    8.1086   -1.8186   20.6213 N   0  0  0  0  0  0  0  0  0  0  0  0
    8.7702   -2.5294   21.5422 N   0  0  0  0  0  0  0  0  0  0  0  0
    8.7527   -2.1336   22.8190 C   0  0  0  0  0  0  0  0  0  0  0  0
    9.3288   -2.7309   23.5116 H   0  0  0  0  0  0  0  0  0  0  0  0
    8.0635   -0.9861   23.2555 C   0  0  0  0  0  0  0  0  0  0  0  0
    8.0771   -0.5878   24.6710 C   0  0  0  0  0  0  0  0  0  0  0  0
    7.8132   -1.4260   25.6998 C   0  0  0  0  0  0  0  0  0  0  0  0
    7.5701   -2.4774   25.6138 H   0  0  0  0  0  0  0  0  0  0  0  0
    7.8256   -0.6616   27.2453 S   0  0  0  0  0  0  0  0  0  0  0  0
    8.2245    0.8701   26.5128 C   0  0  0  0  0  0  0  0  0  0  0  0
    8.4158    2.1027   27.1527 C   0  0  0  0  0  0  0  0  0  0  0  0
    8.3433    2.1643   28.2337 H   0  0  0  0  0  0  0  0  0  0  0  0
    8.7905    3.2099   26.3932 C   0  0  0  0  0  0  0  0  0  0  0  0
    8.9832    4.1614   26.8827 H   0  0  0  0  0  0  0  0  0  0  0  0
    8.9444    3.1086   24.9930 C   0  0  0  0  0  0  0  0  0  0  0  0
    9.2302    3.9809   24.4098 H   0  0  0  0  0  0  0  0  0  0  0  0
    8.7261    1.8972   24.3528 C   0  0  0  0  0  0  0  0  0  0  0  0
    8.8506    1.8049   23.2748 H   0  0  0  0  0  0  0  0  0  0  0  0
    8.3495    0.7628   25.1142 C   0  0  0  0  0  0  0  0  0  0  0  0
    7.3669   -0.2719   22.2892 C   0  0  0  0  0  0  0  0  0  0  0  0
    6.8217    0.6315   22.5551 H   0  0  0  0  0  0  0  0  0  0  0  0
    5.4469    0.6484   20.1612 C   0  0  0  0  0  0  0  0  0  0  0  0
    4.9986    0.6293   21.1600 H   0  0  0  0  0  0  0  0  0  0  0  0
    4.8076    1.3043   19.1107 C   0  0  0  0  0  0  0  0  0  0  0  0
    3.8761    1.8413   19.2624 H   0  0  0  0  0  0  0  0  0  0  0  0
  1  2  1  0
  2  3  2  0
  3  4  1  0
  4  5  1  0
  4  6  2  0
  6  7  1  0
  7  8  2  0
  8  9  1  0
  9 10  2  0
 10 11  1  0
 10 12  1  0
 12 13  1  0
 13 14  2  0
 14 15  1  0
 14 16  1  0
 16 17  1  0
 17 18  2  0
 18 19  1  0
 18 20  1  0
 20 21  1  0
 20 22  2  0
 22 23  1  0
 22 24  1  0
 24 25  1  0
 24 26  2  0
 12 27  2  0
 27 28  1  0
  6 29  1  0
 29 30  1  0
 29 31  2  0
 31 32  1  0
 31  2  1  0
 27  7  1  0
 26 13  1  0
 26 17  1  0
M  END
>  <cnnaffinity>  (1) 
-5.47103

>  <filename>  (1) 
c1cncc(-c2cc(-c3csc4ccccc34)cnn2)c1

$$$$
