
     RDKit          3D

 34 37  0  0  0  0  0  0  0  0999 V2000
    4.9207    1.7763   17.0024 H   0  0  0  0  0  0  0  0  0  0  0  0
    5.4092    1.2881   17.8456 C   0  0  0  0  0  0  0  0  0  0  0  0
    6.5758    0.6745   17.5896 N   0  0  0  0  0  0  0  0  0  0  0  0
    7.1712    0.0393   18.6036 C   0  0  0  0  0  0  0  0  0  0  0  0
    8.1216   -0.4373   18.3732 H   0  0  0  0  0  0  0  0  0  0  0  0
    6.6498   -0.0185   19.8999 C   0  0  0  0  0  0  0  0  0  0  0  0
    7.4035   -0.7344   20.9571 C   0  0  0  0  0  0  0  0  0  0  0  0
    7.7629   -1.9966   20.6682 N   0  0  0  0  0  0  0  0  0  0  0  0
    8.3558   -2.7151   21.6252 C   0  0  0  0  0  0  0  0  0  0  0  0
    8.6193   -3.7349   21.3657 H   0  0  0  0  0  0  0  0  0  0  0  0
    8.6580   -2.2177   22.8948 C   0  0  0  0  0  0  0  0  0  0  0  0
    9.1610   -2.8403   23.6241 H   0  0  0  0  0  0  0  0  0  0  0  0
    8.3197   -0.9039   23.1882 C   0  0  0  0  0  0  0  0  0  0  0  0
    8.5519   -0.4632   24.1582 H   0  0  0  0  0  0  0  0  0  0  0  0
    7.6943   -0.1213   22.2049 C   0  0  0  0  0  0  0  0  0  0  0  0
    7.4093    1.3152   22.4828 C   0  0  0  0  0  0  0  0  0  0  0  0
    7.9319    2.3396   21.6788 C   0  0  0  0  0  0  0  0  0  0  0  0
    8.5544    2.0731   20.8281 H   0  0  0  0  0  0  0  0  0  0  0  0
    7.6660    3.6993   21.9682 C   0  0  0  0  0  0  0  0  0  0  0  0
    8.0896    4.4801   21.3422 H   0  0  0  0  0  0  0  0  0  0  0  0
    6.8580    4.0709   23.0428 C   0  0  0  0  0  0  0  0  0  0  0  0
    6.6313    5.1124   23.2701 H   0  0  0  0  0  0  0  0  0  0  0  0
    6.3316    3.0381   23.8342 C   0  0  0  0  0  0  0  0  0  0  0  0
    6.5919    1.6737   23.5817 C   0  0  0  0  0  0  0  0  0  0  0  0
    5.8669    0.9291   24.5724 C   0  0  0  0  0  0  0  0  0  0  0  0
    5.8466   -0.1517   24.6210 H   0  0  0  0  0  0  0  0  0  0  0  0
    5.2225    1.8240   25.3755 C   0  0  0  0  0  0  0  0  0  0  0  0
    4.5794    1.6423   26.2356 H   0  0  0  0  0  0  0  0  0  0  0  0
    5.5084    3.0986   24.9310 N   0  0  0  0  0  0  0  0  0  0  0  0
    5.1719    3.9611   25.3191 H   0  0  0  0  0  0  0  0  0  0  0  0
    5.4377    0.6396   20.1607 C   0  0  0  0  0  0  0  0  0  0  0  0
    5.0103    0.6399   21.1691 H   0  0  0  0  0  0  0  0  0  0  0  0
    4.8057    1.3016   19.1093 C   0  0  0  0  0  0  0  0  0  0  0  0
    3.8748    1.8421   19.2602 H   0  0  0  0  0  0  0  0  0  0  0  0
  1  2  1  0
  2  3  2  0
  3  4  1  0
  4  5  1  0
  4  6  2  0
  6  7  1  0
  7  8  2  0
  8  9  1  0
  9 10  1  0
  9 11  2  0
 11 12  1  0
 11 13  1  0
 13 14  1  0
 13 15  2  0
 15 16  1  0
 16 17  2  0
 17 18  1  0
 17 19  1  0
 19 20  1  0
 19 21  2  0
 21 22  1  0
 21 23  1  0
 23 24  2  0
 24 25  1  0
 25 26  1  0
 25 27  2  0
 27 28  1  0
 27 29  1  0
 29 30  1  0
  6 31  1  0
 31 32  1  0
 31 33  2  0
 33 34  1  0
 33  2  1  0
 15  7  1  0
 24 16  1  0
 29 23  1  0
M  END
>  <cnnaffinity>  (1) 
-5.18334

>  <filename>  (1) 
c1cncc(-c2ncccc2-c2cccc3[nH]ccc23)c1

$$$$
