
     RDKit          3D

 29 32  0  0  0  0  0  0  0  0999 V2000
    4.9468    1.7831   16.9862 H   0  0  0  0  0  0  0  0  0  0  0  0
    5.4054    1.2872   17.8359 C   0  0  0  0  0  0  0  0  0  0  0  0
    6.5650    0.6583   17.5955 N   0  0  0  0  0  0  0  0  0  0  0  0
    7.1619    0.0739   18.6373 C   0  0  0  0  0  0  0  0  0  0  0  0
    8.1097   -0.4151   18.4082 H   0  0  0  0  0  0  0  0  0  0  0  0
    6.6567    0.0863   19.9552 C   0  0  0  0  0  0  0  0  0  0  0  0
    7.4200   -0.6156   21.0027 C   0  0  0  0  0  0  0  0  0  0  0  0
    8.2848   -1.6376   20.8214 C   0  0  0  0  0  0  0  0  0  0  0  0
    8.6994   -1.9551   19.8855 H   0  0  0  0  0  0  0  0  0  0  0  0
    8.8734   -2.3358   22.3011 S   0  0  0  0  0  0  0  0  0  0  0  0
    8.0949   -1.0576   23.1924 C   0  0  0  0  0  0  0  0  0  0  0  0
    8.1263   -0.5451   24.4013 N   0  0  0  0  0  0  0  0  0  0  0  0
    7.3449    0.5830   24.2502 C   0  0  0  0  0  0  0  0  0  0  0  0
    7.0696    1.5770   25.3643 C   0  0  0  0  0  0  0  0  0  0  0  0
    6.3685    2.6433   25.2178 N   0  0  0  0  0  0  0  0  0  0  0  0
    6.3232    3.3347   26.5075 C   0  0  0  0  0  0  0  0  0  0  0  0
    6.7151    4.3494   26.3901 H   0  0  0  0  0  0  0  0  0  0  0  0
    5.2801    3.4602   26.8112 H   0  0  0  0  0  0  0  0  0  0  0  0
    7.1469    2.4828   27.5123 C   0  0  0  0  0  0  0  0  0  0  0  0
    6.5336    2.1198   28.3502 H   0  0  0  0  0  0  0  0  0  0  0  0
    8.0114    3.0333   27.9090 H   0  0  0  0  0  0  0  0  0  0  0  0
    7.5548    1.3931   26.6506 N   0  0  0  0  0  0  0  0  0  0  0  0
    8.1875    0.6519   26.8995 H   0  0  0  0  0  0  0  0  0  0  0  0
    6.8506    0.7640   23.0261 N   0  0  0  0  0  0  0  0  0  0  0  0
    7.3326   -0.3071   22.3619 N   0  0  0  0  0  0  0  0  0  0  0  0
    5.4263    0.7349   20.1809 C   0  0  0  0  0  0  0  0  0  0  0  0
    5.0034    0.7767   21.1875 H   0  0  0  0  0  0  0  0  0  0  0  0
    4.7930    1.3339   19.0922 C   0  0  0  0  0  0  0  0  0  0  0  0
    3.8449    1.8471   19.2047 H   0  0  0  0  0  0  0  0  0  0  0  0
  1  2  1  0
  2  3  2  0
  3  4  1  0
  4  5  1  0
  4  6  2  0
  6  7  1  0
  7  8  2  0
  8  9  1  0
  8 10  1  0
 10 11  1  0
 11 12  2  0
 12 13  1  0
 13 14  1  0
 14 15  2  0
 15 16  1  0
 16 17  1  0
 16 18  1  0
 16 19  1  0
 19 20  1  0
 19 21  1  0
 19 22  1  0
 22 23  1  0
 13 24  2  0
 24 25  1  0
  6 26  1  0
 26 27  1  0
 26 28  2  0
 28 29  1  0
 28  2  1  0
 25  7  1  0
 25 11  1  0
 22 14  1  0
M  END
>  <cnnaffinity>  (1) 
-4.98851

>  <filename>  (1) 
c1cncc(-c2csc3nc(C4=NCCN4)nn23)c1

$$$$
