
     RDKit          3D

 34 38  0  0  0  0  0  0  0  0999 V2000
    4.9235    1.7721   17.0035 H   0  0  0  0  0  0  0  0  0  0  0  0
    5.4100    1.2856   17.8467 C   0  0  0  0  0  0  0  0  0  0  0  0
    6.5750    0.6681   17.5946 N   0  0  0  0  0  0  0  0  0  0  0  0
    7.1807    0.0536   18.6160 C   0  0  0  0  0  0  0  0  0  0  0  0
    8.1266   -0.4330   18.3844 H   0  0  0  0  0  0  0  0  0  0  0  0
    6.6465    0.0149   19.9120 C   0  0  0  0  0  0  0  0  0  0  0  0
    7.3613   -0.6892   20.9686 C   0  0  0  0  0  0  0  0  0  0  0  0
    8.5473   -1.3258   20.7549 N   0  0  0  0  0  0  0  0  0  0  0  0
    8.8064   -1.8074   21.9535 C   0  0  0  0  0  0  0  0  0  0  0  0
   10.0256   -2.7689   22.7450 S   0  0  0  0  0  0  0  0  0  0  0  0
    9.1212   -2.6806   24.2307 C   0  0  0  0  0  0  0  0  0  0  0  0
    9.5216   -3.1522   25.1157 H   0  0  0  0  0  0  0  0  0  0  0  0
    7.9793   -1.9612   24.1310 C   0  0  0  0  0  0  0  0  0  0  0  0
    7.0089   -1.6505   25.1925 C   0  0  0  0  0  0  0  0  0  0  0  0
    6.4462   -0.3728   25.3567 C   0  0  0  0  0  0  0  0  0  0  0  0
    6.7098    0.4066   24.6475 H   0  0  0  0  0  0  0  0  0  0  0  0
    5.5504   -0.1021   26.4144 C   0  0  0  0  0  0  0  0  0  0  0  0
    5.1314    0.8945   26.5107 H   0  0  0  0  0  0  0  0  0  0  0  0
    5.1826   -1.0866   27.3337 C   0  0  0  0  0  0  0  0  0  0  0  0
    4.4883   -0.8976   28.1503 H   0  0  0  0  0  0  0  0  0  0  0  0
    5.7427   -2.3605   27.1620 C   0  0  0  0  0  0  0  0  0  0  0  0
    6.6479   -2.6683   26.1183 C   0  0  0  0  0  0  0  0  0  0  0  0
    6.9544   -4.0658   26.2503 C   0  0  0  0  0  0  0  0  0  0  0  0
    7.5824   -4.6314   25.5785 H   0  0  0  0  0  0  0  0  0  0  0  0
    6.2703   -4.5440   27.3300 C   0  0  0  0  0  0  0  0  0  0  0  0
    6.2443   -5.5518   27.7362 H   0  0  0  0  0  0  0  0  0  0  0  0
    5.5418   -3.5125   27.8827 N   0  0  0  0  0  0  0  0  0  0  0  0
    4.9344   -3.5661   28.6814 H   0  0  0  0  0  0  0  0  0  0  0  0
    7.8408   -1.4730   22.8329 N   0  0  0  0  0  0  0  0  0  0  0  0
    6.8847   -0.7465   22.2075 N   0  0  0  0  0  0  0  0  0  0  0  0
    5.4268    0.6584   20.1672 C   0  0  0  0  0  0  0  0  0  0  0  0
    4.9988    0.6339   21.1741 H   0  0  0  0  0  0  0  0  0  0  0  0
    4.8043    1.3102   19.1095 C   0  0  0  0  0  0  0  0  0  0  0  0
    3.8734    1.8436   19.2602 H   0  0  0  0  0  0  0  0  0  0  0  0
  1  2  1  0
  2  3  2  0
  3  4  1  0
  4  5  1  0
  4  6  2  0
  6  7  1  0
  7  8  1  0
  8  9  2  0
  9 10  1  0
 10 11  1  0
 11 12  1  0
 11 13  2  0
 13 14  1  0
 14 15  2  0
 15 16  1  0
 15 17  1  0
 17 18  1  0
 17 19  2  0
 19 20  1  0
 19 21  1  0
 21 22  2  0
 22 23  1  0
 23 24  1  0
 23 25  2  0
 25 26  1  0
 25 27  1  0
 27 28  1  0
 13 29  1  0
 29 30  1  0
  6 31  1  0
 31 32  1  0
 31 33  2  0
 33 34  1  0
 33  2  1  0
 30  7  2  0
 29  9  1  0
 22 14  1  0
 27 21  1  0
M  END
>  <cnnaffinity>  (1) 
-5.71761

>  <filename>  (1) 
c1cncc(-c2nc3scc(-c4cccc5[nH]ccc45)n3n2)c1

$$$$
