
     RDKit          3D

 28 30  0  0  0  0  0  0  0  0999 V2000
    9.6935   -4.8127   25.0565 H   0  0  0  0  0  0  0  0  0  0  0  0
    9.1529   -4.4681   24.1801 C   0  0  0  0  0  0  0  0  0  0  0  0
    8.0928   -5.1938   23.8116 N   0  0  0  0  0  0  0  0  0  0  0  0
    7.4438   -4.7601   22.7310 C   0  0  0  0  0  0  0  0  0  0  0  0
    6.5808   -5.3383   22.4126 H   0  0  0  0  0  0  0  0  0  0  0  0
    7.8254   -3.6345   22.0249 C   0  0  0  0  0  0  0  0  0  0  0  0
    7.3150   -3.3108   21.1316 H   0  0  0  0  0  0  0  0  0  0  0  0
    8.9370   -2.9494   22.5088 C   0  0  0  0  0  0  0  0  0  0  0  0
    9.4115   -1.7447   21.8283 C   0  0  0  0  0  0  0  0  0  0  0  0
    8.7126   -0.7940   21.1039 C   0  0  0  0  0  0  0  0  0  0  0  0
    7.3264   -0.7372   20.9258 N   0  0  0  0  0  0  0  0  0  0  0  0
    6.7713   -1.0443   21.7162 H   0  0  0  0  0  0  0  0  0  0  0  0
    6.6693   -0.0135   19.9161 C   0  0  0  0  0  0  0  0  0  0  0  0
    7.1746    0.0616   18.5923 C   0  0  0  0  0  0  0  0  0  0  0  0
    8.1206   -0.4300   18.3767 H   0  0  0  0  0  0  0  0  0  0  0  0
    6.5633    0.6823   17.5743 N   0  0  0  0  0  0  0  0  0  0  0  0
    5.3977    1.2966   17.8393 C   0  0  0  0  0  0  0  0  0  0  0  0
    4.9097    1.7818   16.9971 H   0  0  0  0  0  0  0  0  0  0  0  0
    4.8131    1.3059   19.1127 C   0  0  0  0  0  0  0  0  0  0  0  0
    3.8791    1.8398   19.2659 H   0  0  0  0  0  0  0  0  0  0  0  0
    5.4477    0.6340   20.1652 C   0  0  0  0  0  0  0  0  0  0  0  0
    5.0163    0.6229   21.1684 H   0  0  0  0  0  0  0  0  0  0  0  0
    9.6970    0.1235   20.6796 C   0  0  0  0  0  0  0  0  0  0  0  0
    9.5277    1.0169   20.1015 H   0  0  0  0  0  0  0  0  0  0  0  0
   10.9045   -0.2134   21.1138 N   0  0  0  0  0  0  0  0  0  0  0  0
   10.7123   -1.3417   21.7951 N   0  0  0  0  0  0  0  0  0  0  0  0
   11.4929   -1.7821   22.2606 H   0  0  0  0  0  0  0  0  0  0  0  0
    9.6236   -3.3836   23.5772 N   0  0  0  0  0  0  0  0  0  0  0  0
  1  2  1  0
  2  3  2  0
  3  4  1  0
  4  5  1  0
  4  6  2  0
  6  7  1  0
  6  8  1  0
  8  9  1  0
  9 10  2  0
 10 11  1  0
 11 12  1  0
 11 13  1  0
 13 14  2  0
 14 15  1  0
 14 16  1  0
 16 17  2  0
 17 18  1  0
 17 19  1  0
 19 20  1  0
 19 21  2  0
 21 22  1  0
 10 23  1  0
 23 24  1  0
 23 25  2  0
 25 26  1  0
 26 27  1  0
  8 28  2  0
 28  2  1  0
 26  9  1  0
 21 13  1  0
M  END
>  <cnnaffinity>  (1) 
-5.63812

>  <filename>  (1) 
c1cncc(Nc2cn[nH]c2-c2ccncn2)c1

$$$$
