
     RDKit          3D

 36 38  0  0  0  0  0  0  0  0999 V2000
    4.9056    1.9230   16.8975 H   0  0  0  0  0  0  0  0  0  0  0  0
    5.3794    1.3936   17.7201 C   0  0  0  0  0  0  0  0  0  0  0  0
    6.5439    0.7774   17.4491 N   0  0  0  0  0  0  0  0  0  0  0  0
    7.1567    0.1255   18.4483 C   0  0  0  0  0  0  0  0  0  0  0  0
    8.0940   -0.3698   18.1900 H   0  0  0  0  0  0  0  0  0  0  0  0
    6.6570    0.0315   19.7756 C   0  0  0  0  0  0  0  0  0  0  0  0
    7.3338   -0.7117   20.7789 N   0  0  0  0  0  0  0  0  0  0  0  0
    6.5581   -1.3235   21.8611 C   0  0  0  0  0  0  0  0  0  0  0  0
    5.5773   -1.6277   21.4711 H   0  0  0  0  0  0  0  0  0  0  0  0
    6.3899   -0.5961   22.6824 H   0  0  0  0  0  0  0  0  0  0  0  0
    7.2992   -2.5679   22.3672 C   0  0  0  0  0  0  0  0  0  0  0  0
    7.3676   -3.2408   21.4993 H   0  0  0  0  0  0  0  0  0  0  0  0
    6.7018   -3.0851   23.1296 H   0  0  0  0  0  0  0  0  0  0  0  0
    8.7364   -2.2788   22.8583 C   0  0  0  0  0  0  0  0  0  0  0  0
    8.7067   -1.6801   23.7821 H   0  0  0  0  0  0  0  0  0  0  0  0
    9.4902   -3.6060   23.1725 C   0  0  0  0  0  0  0  0  0  0  0  0
    9.2628   -4.3115   22.3630 H   0  0  0  0  0  0  0  0  0  0  0  0
   10.5775   -3.4324   23.1772 H   0  0  0  0  0  0  0  0  0  0  0  0
    9.0941   -4.3231   24.4416 C   0  0  0  0  0  0  0  0  0  0  0  0
    9.4828   -3.7363   26.0275 S   0  0  0  0  0  0  0  0  0  0  0  0
    8.6871   -5.0631   26.7900 C   0  0  0  0  0  0  0  0  0  0  0  0
    8.6641   -5.1523   27.8717 H   0  0  0  0  0  0  0  0  0  0  0  0
    8.1615   -5.9193   25.8732 C   0  0  0  0  0  0  0  0  0  0  0  0
    7.5962   -6.8069   26.1388 H   0  0  0  0  0  0  0  0  0  0  0  0
    8.4144   -5.5029   24.5307 C   0  0  0  0  0  0  0  0  0  0  0  0
    8.1031   -6.0603   23.6514 H   0  0  0  0  0  0  0  0  0  0  0  0
    9.4615   -1.4457   21.7694 C   0  0  0  0  0  0  0  0  0  0  0  0
    9.6443   -2.0813   20.8918 H   0  0  0  0  0  0  0  0  0  0  0  0
   10.4439   -1.1021   22.1260 H   0  0  0  0  0  0  0  0  0  0  0  0
    8.6381   -0.2443   21.2727 C   0  0  0  0  0  0  0  0  0  0  0  0
    8.4947    0.4926   22.0888 H   0  0  0  0  0  0  0  0  0  0  0  0
    9.1730    0.2661   20.4599 H   0  0  0  0  0  0  0  0  0  0  0  0
    5.4273    0.6761   20.0175 C   0  0  0  0  0  0  0  0  0  0  0  0
    5.0075    0.6279   21.0186 H   0  0  0  0  0  0  0  0  0  0  0  0
    4.7843    1.3629   18.9840 C   0  0  0  0  0  0  0  0  0  0  0  0
    3.8389    1.8692   19.1555 H   0  0  0  0  0  0  0  0  0  0  0  0
  1  2  1  0
  2  3  2  0
  3  4  1  0
  4  5  1  0
  4  6  2  0
  6  7  1  0
  7  8  1  0
  8  9  1  0
  8 10  1  0
  8 11  1  0
 11 12  1  0
 11 13  1  0
 11 14  1  0
 14 15  1  0
 14 16  1  0
 16 17  1  0
 16 18  1  0
 16 19  1  0
 19 20  1  0
 20 21  1  0
 21 22  1  0
 21 23  2  0
 23 24  1  0
 23 25  1  0
 25 26  1  0
 14 27  1  0
 27 28  1  0
 27 29  1  0
 27 30  1  0
 30 31  1  0
 30 32  1  0
  6 33  1  0
 33 34  1  0
 33 35  2  0
 35 36  1  0
 35  2  1  0
 30  7  1  0
 25 19  2  0
M  END
>  <cnnaffinity>  (1) 
-5.18765

>  <filename>  (1) 
c1cncc(N2CCC(Cc3cccs3)CC2)c1

$$$$
