
     RDKit          3D

 38 40  0  0  0  0  0  0  0  0999 V2000
    4.9532    1.8631   17.0007 H   0  0  0  0  0  0  0  0  0  0  0  0
    5.4185    1.3105   17.8120 C   0  0  0  0  0  0  0  0  0  0  0  0
    6.5692    0.6807   17.5192 N   0  0  0  0  0  0  0  0  0  0  0  0
    7.1707    0.0160   18.5200 C   0  0  0  0  0  0  0  0  0  0  0  0
    8.0940   -0.5026   18.2733 H   0  0  0  0  0  0  0  0  0  0  0  0
    6.6770   -0.0599   19.8464 C   0  0  0  0  0  0  0  0  0  0  0  0
    7.3414   -0.7665   20.8665 N   0  0  0  0  0  0  0  0  0  0  0  0
    6.7913   -0.8925   21.7087 H   0  0  0  0  0  0  0  0  0  0  0  0
    8.7351   -0.7213   21.0930 C   0  0  0  0  0  0  0  0  0  0  0  0
    9.7040    0.2401   20.7089 C   0  0  0  0  0  0  0  0  0  0  0  0
    9.5301    1.1437   20.1424 H   0  0  0  0  0  0  0  0  0  0  0  0
   10.9207   -0.0684   21.1561 N   0  0  0  0  0  0  0  0  0  0  0  0
   10.7299   -1.2128   21.8328 N   0  0  0  0  0  0  0  0  0  0  0  0
   11.5151   -1.6731   22.2722 H   0  0  0  0  0  0  0  0  0  0  0  0
    9.4413   -1.6429   21.8367 C   0  0  0  0  0  0  0  0  0  0  0  0
    8.9594   -2.7275   22.7252 C   0  0  0  0  0  0  0  0  0  0  0  0
    9.7760   -3.4451   22.8887 H   0  0  0  0  0  0  0  0  0  0  0  0
    8.1301   -3.2576   22.2419 H   0  0  0  0  0  0  0  0  0  0  0  0
    8.4778   -2.1747   24.0724 C   0  0  0  0  0  0  0  0  0  0  0  0
    9.3028   -1.6314   24.5851 H   0  0  0  0  0  0  0  0  0  0  0  0
    7.6940   -1.4242   23.8875 H   0  0  0  0  0  0  0  0  0  0  0  0
    7.9483   -3.2483   24.8828 N   0  0  0  0  0  0  0  0  0  0  0  0
    7.2493   -2.8168   26.0798 C   0  0  0  0  0  0  0  0  0  0  0  0
    7.8366   -2.0666   26.6421 H   0  0  0  0  0  0  0  0  0  0  0  0
    6.2870   -2.3541   25.8177 H   0  0  0  0  0  0  0  0  0  0  0  0
    7.0765   -4.1119   26.8721 C   0  0  0  0  0  0  0  0  0  0  0  0
    6.1593   -4.6107   26.5492 H   0  0  0  0  0  0  0  0  0  0  0  0
    6.9837   -3.9384   27.9486 H   0  0  0  0  0  0  0  0  0  0  0  0
    8.3063   -4.9610   26.4906 C   0  0  0  0  0  0  0  0  0  0  0  0
    7.9984   -5.9772   26.2254 H   0  0  0  0  0  0  0  0  0  0  0  0
    9.0397   -5.0430   27.2945 H   0  0  0  0  0  0  0  0  0  0  0  0
    8.9325   -4.2486   25.2837 C   0  0  0  0  0  0  0  0  0  0  0  0
    9.1290   -4.9409   24.4571 H   0  0  0  0  0  0  0  0  0  0  0  0
    9.9028   -3.7853   25.5528 H   0  0  0  0  0  0  0  0  0  0  0  0
    5.4559    0.5747   20.1158 C   0  0  0  0  0  0  0  0  0  0  0  0
    5.0267    0.5365   21.1207 H   0  0  0  0  0  0  0  0  0  0  0  0
    4.8258    1.2730   19.0808 C   0  0  0  0  0  0  0  0  0  0  0  0
    3.8916    1.8002   19.2529 H   0  0  0  0  0  0  0  0  0  0  0  0
  1  2  1  0
  2  3  2  0
  3  4  1  0
  4  5  1  0
  4  6  2  0
  6  7  1  0
  7  8  1  0
  7  9  1  0
  9 10  1  0
 10 11  1  0
 10 12  2  0
 12 13  1  0
 13 14  1  0
 13 15  1  0
 15 16  1  0
 16 17  1  0
 16 18  1  0
 16 19  1  0
 19 20  1  0
 19 21  1  0
 19 22  1  0
 22 23  1  0
 23 24  1  0
 23 25  1  0
 23 26  1  0
 26 27  1  0
 26 28  1  0
 26 29  1  0
 29 30  1  0
 29 31  1  0
 29 32  1  0
 32 33  1  0
 32 34  1  0
  6 35  1  0
 35 36  1  0
 35 37  2  0
 37 38  1  0
 37  2  1  0
 15  9  2  0
 32 22  1  0
M  END
>  <cnnaffinity>  (1) 
-5.49606

>  <filename>  (1) 
c1cncc(Nc2cn[nH]c2CCN2CCCC2)c1

$$$$
