
     RDKit          3D

 38 40  0  0  0  0  0  0  0  0999 V2000
    4.9115    1.7940   16.9875 H   0  0  0  0  0  0  0  0  0  0  0  0
    5.3953    1.3008   17.8282 C   0  0  0  0  0  0  0  0  0  0  0  0
    6.5541    0.6804   17.5575 N   0  0  0  0  0  0  0  0  0  0  0  0
    7.1714    0.0665   18.5767 C   0  0  0  0  0  0  0  0  0  0  0  0
    8.1109   -0.4343   18.3554 H   0  0  0  0  0  0  0  0  0  0  0  0
    6.6711    0.0224   19.8973 C   0  0  0  0  0  0  0  0  0  0  0  0
    7.3539   -0.6478   20.9662 N   0  0  0  0  0  0  0  0  0  0  0  0
    6.8351   -1.6054   21.8083 C   0  0  0  0  0  0  0  0  0  0  0  0
    5.8251   -1.9760   21.7069 H   0  0  0  0  0  0  0  0  0  0  0  0
    7.7196   -2.0057   22.6770 N   0  0  0  0  0  0  0  0  0  0  0  0
    8.8683   -1.2855   22.4473 N   0  0  0  0  0  0  0  0  0  0  0  0
    8.6333   -0.4685   21.4572 C   0  0  0  0  0  0  0  0  0  0  0  0
    9.5642    0.5659   20.9348 C   0  0  0  0  0  0  0  0  0  0  0  0
    9.6935    0.3983   19.8641 H   0  0  0  0  0  0  0  0  0  0  0  0
   10.5283    0.4208   21.4307 H   0  0  0  0  0  0  0  0  0  0  0  0
    9.0452    1.9936   21.1299 C   0  0  0  0  0  0  0  0  0  0  0  0
    8.2826    2.1841   20.3669 H   0  0  0  0  0  0  0  0  0  0  0  0
    9.8667    2.7108   20.9258 H   0  0  0  0  0  0  0  0  0  0  0  0
    8.4675    2.1840   22.4513 N   0  0  0  0  0  0  0  0  0  0  0  0
    9.4955    2.3624   23.4804 C   0  0  0  0  0  0  0  0  0  0  0  0
   10.2070    1.5306   23.4294 H   0  0  0  0  0  0  0  0  0  0  0  0
   10.0820    3.2861   23.2961 H   0  0  0  0  0  0  0  0  0  0  0  0
    8.8798    2.4359   24.8770 C   0  0  0  0  0  0  0  0  0  0  0  0
    9.6689    2.5969   25.6186 H   0  0  0  0  0  0  0  0  0  0  0  0
    8.4262    1.4662   25.1122 H   0  0  0  0  0  0  0  0  0  0  0  0
    7.8236    3.5439   24.9623 C   0  0  0  0  0  0  0  0  0  0  0  0
    7.3251    3.5322   25.9390 H   0  0  0  0  0  0  0  0  0  0  0  0
    8.3133    4.5250   24.8773 H   0  0  0  0  0  0  0  0  0  0  0  0
    6.8065    3.3813   23.8268 C   0  0  0  0  0  0  0  0  0  0  0  0
    6.2143    2.4722   23.9830 H   0  0  0  0  0  0  0  0  0  0  0  0
    6.1037    4.2210   23.8131 H   0  0  0  0  0  0  0  0  0  0  0  0
    7.4985    3.2792   22.4693 C   0  0  0  0  0  0  0  0  0  0  0  0
    6.7506    3.0910   21.6882 H   0  0  0  0  0  0  0  0  0  0  0  0
    7.9783    4.2503   22.2279 H   0  0  0  0  0  0  0  0  0  0  0  0
    5.4481    0.6538   20.1594 C   0  0  0  0  0  0  0  0  0  0  0  0
    5.0335    0.6292   21.1723 H   0  0  0  0  0  0  0  0  0  0  0  0
    4.8104    1.3121   19.1011 C   0  0  0  0  0  0  0  0  0  0  0  0
    3.8781    1.8404   19.2563 H   0  0  0  0  0  0  0  0  0  0  0  0
  1  2  1  0
  2  3  2  0
  3  4  1  0
  4  5  1  0
  4  6  2  0
  6  7  1  0
  7  8  1  0
  8  9  1  0
  8 10  2  0
 10 11  1  0
 11 12  2  0
 12 13  1  0
 13 14  1  0
 13 15  1  0
 13 16  1  0
 16 17  1  0
 16 18  1  0
 16 19  1  0
 19 20  1  0
 20 21  1  0
 20 22  1  0
 20 23  1  0
 23 24  1  0
 23 25  1  0
 23 26  1  0
 26 27  1  0
 26 28  1  0
 26 29  1  0
 29 30  1  0
 29 31  1  0
 29 32  1  0
 32 33  1  0
 32 34  1  0
  6 35  1  0
 35 36  1  0
 35 37  2  0
 37 38  1  0
 37  2  1  0
 12  7  1  0
 32 19  1  0
M  END
>  <cnnaffinity>  (1) 
-5.08465

>  <filename>  (1) 
c1cncc(-n2cnnc2CCN2CCCCC2)c1

$$$$
