
     RDKit          3D

 36 39  0  0  0  0  0  0  0  0999 V2000
    4.9134    1.8579   16.9868 H   0  0  0  0  0  0  0  0  0  0  0  0
    5.3870    1.3187   17.8029 C   0  0  0  0  0  0  0  0  0  0  0  0
    6.5385    0.6911   17.5119 N   0  0  0  0  0  0  0  0  0  0  0  0
    7.1624    0.0569   18.5163 C   0  0  0  0  0  0  0  0  0  0  0  0
    8.0877   -0.4646   18.2743 H   0  0  0  0  0  0  0  0  0  0  0  0
    6.6866    0.0085   19.8518 C   0  0  0  0  0  0  0  0  0  0  0  0
    7.3891   -0.6357   20.8790 N   0  0  0  0  0  0  0  0  0  0  0  0
    6.8589   -0.9529   21.6815 H   0  0  0  0  0  0  0  0  0  0  0  0
    8.7814   -0.6266   21.0612 C   0  0  0  0  0  0  0  0  0  0  0  0
    9.7417    0.3304   20.6753 C   0  0  0  0  0  0  0  0  0  0  0  0
    9.5603    1.2044   20.0855 H   0  0  0  0  0  0  0  0  0  0  0  0
   10.9633    0.0238   21.0945 N   0  0  0  0  0  0  0  0  0  0  0  0
   10.7998   -1.1279   21.7575 N   0  0  0  0  0  0  0  0  0  0  0  0
   11.6203   -1.6408   22.0537 H   0  0  0  0  0  0  0  0  0  0  0  0
    9.5134   -1.5710   21.7633 C   0  0  0  0  0  0  0  0  0  0  0  0
    9.0624   -2.7818   22.4420 C   0  0  0  0  0  0  0  0  0  0  0  0
    7.9889   -3.5299   21.8610 C   0  0  0  0  0  0  0  0  0  0  0  0
    7.6176   -3.2245   20.8898 H   0  0  0  0  0  0  0  0  0  0  0  0
    7.4186   -4.5733   22.5420 C   0  0  0  0  0  0  0  0  0  0  0  0
    6.6023   -5.1373   22.0959 H   0  0  0  0  0  0  0  0  0  0  0  0
    7.8784   -4.9036   23.8544 C   0  0  0  0  0  0  0  0  0  0  0  0
    7.1850   -5.8249   24.6915 C   0  0  0  0  0  0  0  0  0  0  0  0
    6.2430   -6.2377   24.3351 H   0  0  0  0  0  0  0  0  0  0  0  0
    7.6906   -6.1583   25.9275 C   0  0  0  0  0  0  0  0  0  0  0  0
    7.1531   -6.8316   26.5892 H   0  0  0  0  0  0  0  0  0  0  0  0
    8.9358   -5.6247   26.3687 C   0  0  0  0  0  0  0  0  0  0  0  0
    9.3368   -5.9541   27.3210 H   0  0  0  0  0  0  0  0  0  0  0  0
    9.6138   -4.7024   25.6077 C   0  0  0  0  0  0  0  0  0  0  0  0
   10.5583   -4.2809   25.9516 H   0  0  0  0  0  0  0  0  0  0  0  0
    9.0551   -4.2568   24.3698 C   0  0  0  0  0  0  0  0  0  0  0  0
    9.6089   -3.1739   23.6459 C   0  0  0  0  0  0  0  0  0  0  0  0
   10.4381   -2.6235   24.0915 H   0  0  0  0  0  0  0  0  0  0  0  0
    5.4517    0.6199   20.1147 C   0  0  0  0  0  0  0  0  0  0  0  0
    5.0340    0.5808   21.1216 H   0  0  0  0  0  0  0  0  0  0  0  0
    4.8039    1.2977   19.0768 C   0  0  0  0  0  0  0  0  0  0  0  0
    3.8712    1.8260   19.2489 H   0  0  0  0  0  0  0  0  0  0  0  0
  1  2  1  0
  2  3  2  0
  3  4  1  0
  4  5  1  0
  4  6  2  0
  6  7  1  0
  7  8  1  0
  7  9  1  0
  9 10  1  0
 10 11  1  0
 10 12  2  0
 12 13  1  0
 13 14  1  0
 13 15  1  0
 15 16  1  0
 16 17  2  0
 17 18  1  0
 17 19  1  0
 19 20  1  0
 19 21  2  0
 21 22  1  0
 22 23  1  0
 22 24  2  0
 24 25  1  0
 24 26  1  0
 26 27  1  0
 26 28  2  0
 28 29  1  0
 28 30  1  0
 30 31  2  0
 31 32  1  0
  6 33  1  0
 33 34  1  0
 33 35  2  0
 35 36  1  0
 35  2  1  0
 15  9  2  0
 31 16  1  0
 30 21  1  0
M  END
>  <cnnaffinity>  (1) 
-5.85323

>  <filename>  (1) 
c1cncc(Nc2cn[nH]c2-c2ccc3ccccc3c2)c1

$$$$
