
     RDKit          3D

 33 36  0  0  0  0  0  0  0  0999 V2000
    4.9148    1.7964   16.9808 H   0  0  0  0  0  0  0  0  0  0  0  0
    5.3902    1.3017   17.8248 C   0  0  0  0  0  0  0  0  0  0  0  0
    6.5513    0.6820   17.5590 N   0  0  0  0  0  0  0  0  0  0  0  0
    7.1638    0.0729   18.5810 C   0  0  0  0  0  0  0  0  0  0  0  0
    8.1064   -0.4236   18.3505 H   0  0  0  0  0  0  0  0  0  0  0  0
    6.6621    0.0199   19.8946 C   0  0  0  0  0  0  0  0  0  0  0  0
    7.3820   -0.7024   20.9753 C   0  0  0  0  0  0  0  0  0  0  0  0
    8.7711   -0.5831   21.1663 C   0  0  0  0  0  0  0  0  0  0  0  0
    9.3499    0.0658   20.5119 H   0  0  0  0  0  0  0  0  0  0  0  0
    9.4536   -1.2102   22.1312 N   0  0  0  0  0  0  0  0  0  0  0  0
    8.7581   -1.9945   22.9645 C   0  0  0  0  0  0  0  0  0  0  0  0
    9.3444   -2.5038   23.7287 H   0  0  0  0  0  0  0  0  0  0  0  0
    7.3666   -2.2045   22.8810 C   0  0  0  0  0  0  0  0  0  0  0  0
    6.6476   -3.0985   23.8298 C   0  0  0  0  0  0  0  0  0  0  0  0
    6.9831   -3.0960   25.2204 C   0  0  0  0  0  0  0  0  0  0  0  0
    7.7645   -2.4148   25.5562 H   0  0  0  0  0  0  0  0  0  0  0  0
    6.3270   -3.9044   26.1339 C   0  0  0  0  0  0  0  0  0  0  0  0
    6.5922   -3.8997   27.1870 H   0  0  0  0  0  0  0  0  0  0  0  0
    5.3077   -4.7428   25.6290 C   0  0  0  0  0  0  0  0  0  0  0  0
    4.9523   -4.7652   24.2581 C   0  0  0  0  0  0  0  0  0  0  0  0
    3.8998   -5.7249   24.1824 C   0  0  0  0  0  0  0  0  0  0  0  0
    3.3454   -6.0382   23.3040 H   0  0  0  0  0  0  0  0  0  0  0  0
    3.6350   -6.2401   25.3610 N   0  0  0  0  0  0  0  0  0  0  0  0
    4.4874   -5.6436   26.2281 N   0  0  0  0  0  0  0  0  0  0  0  0
    4.4719   -5.8889   27.2083 H   0  0  0  0  0  0  0  0  0  0  0  0
    5.6354   -3.9240   23.3548 C   0  0  0  0  0  0  0  0  0  0  0  0
    5.3957   -3.9274   22.2972 H   0  0  0  0  0  0  0  0  0  0  0  0
    6.6863   -1.5338   21.8557 C   0  0  0  0  0  0  0  0  0  0  0  0
    5.6086   -1.6565   21.7383 H   0  0  0  0  0  0  0  0  0  0  0  0
    5.4371    0.6560   20.1421 C   0  0  0  0  0  0  0  0  0  0  0  0
    5.0196    0.6398   21.1514 H   0  0  0  0  0  0  0  0  0  0  0  0
    4.8014    1.3194   19.0936 C   0  0  0  0  0  0  0  0  0  0  0  0
    3.8705    1.8470   19.2456 H   0  0  0  0  0  0  0  0  0  0  0  0
  1  2  1  0
  2  3  2  0
  3  4  1  0
  4  5  1  0
  4  6  2  0
  6  7  1  0
  7  8  2  0
  8  9  1  0
  8 10  1  0
 10 11  2  0
 11 12  1  0
 11 13  1  0
 13 14  1  0
 14 15  2  0
 15 16  1  0
 15 17  1  0
 17 18  1  0
 17 19  2  0
 19 20  1  0
 20 21  1  0
 21 22  1  0
 21 23  2  0
 23 24  1  0
 24 25  1  0
 20 26  2  0
 26 27  1  0
 13 28  2  0
 28 29  1  0
  6 30  1  0
 30 31  1  0
 30 32  2  0
 32 33  1  0
 32  2  1  0
 28  7  1  0
 26 14  1  0
 24 19  1  0
M  END
>  <cnnaffinity>  (1) 
-5.13011

>  <filename>  (1) 
c1cncc(-c2cncc(-c3ccc4[nH]ncc4c3)c2)c1

$$$$
