
     RDKit          3D

 43 46  0  0  0  0  0  0  0  0999 V2000
    5.1552    2.3412   16.6745 H   0  0  0  0  0  0  0  0  0  0  0  0
    5.5685    1.7606   17.4960 C   0  0  0  0  0  0  0  0  0  0  0  0
    6.4913    0.8353   17.1807 N   0  0  0  0  0  0  0  0  0  0  0  0
    7.0134    0.1137   18.1856 C   0  0  0  0  0  0  0  0  0  0  0  0
    7.7833   -0.6080   17.9151 H   0  0  0  0  0  0  0  0  0  0  0  0
    6.6666    0.2607   19.5526 C   0  0  0  0  0  0  0  0  0  0  0  0
    7.3070   -0.4957   20.5834 N   0  0  0  0  0  0  0  0  0  0  0  0
    7.0141   -1.9346   20.6881 C   0  0  0  0  0  0  0  0  0  0  0  0
    7.9339   -2.4981   20.8917 H   0  0  0  0  0  0  0  0  0  0  0  0
    6.6509   -2.2580   19.7082 H   0  0  0  0  0  0  0  0  0  0  0  0
    5.9471   -2.3597   21.7222 C   0  0  0  0  0  0  0  0  0  0  0  0
    5.6143   -3.3804   21.5131 H   0  0  0  0  0  0  0  0  0  0  0  0
    5.0787   -1.7175   21.5500 H   0  0  0  0  0  0  0  0  0  0  0  0
    6.3442   -2.3372   23.1319 N   0  0  0  0  0  0  0  0  0  0  0  0
    6.8993   -3.5181   23.7134 C   0  0  0  0  0  0  0  0  0  0  0  0
    6.1023   -4.4765   24.3258 C   0  0  0  0  0  0  0  0  0  0  0  0
    5.0186   -4.3691   24.2955 H   0  0  0  0  0  0  0  0  0  0  0  0
    6.5718   -5.5380   25.0466 N   0  0  0  0  0  0  0  0  0  0  0  0
    7.8738   -5.6711   25.1763 C   0  0  0  0  0  0  0  0  0  0  0  0
    8.2368   -6.4843   25.8029 H   0  0  0  0  0  0  0  0  0  0  0  0
    8.8339   -4.8029   24.5756 C   0  0  0  0  0  0  0  0  0  0  0  0
   10.2394   -4.9468   24.7960 C   0  0  0  0  0  0  0  0  0  0  0  0
   10.5974   -5.7496   25.4411 H   0  0  0  0  0  0  0  0  0  0  0  0
   11.1147   -4.0794   24.1991 C   0  0  0  0  0  0  0  0  0  0  0  0
   12.1707   -4.1778   24.3787 H   0  0  0  0  0  0  0  0  0  0  0  0
   10.6534   -3.0483   23.3479 C   0  0  0  0  0  0  0  0  0  0  0  0
   11.3727   -2.4029   22.8563 H   0  0  0  0  0  0  0  0  0  0  0  0
    9.2985   -2.8604   23.1677 C   0  0  0  0  0  0  0  0  0  0  0  0
    8.9681   -2.0070   22.5893 H   0  0  0  0  0  0  0  0  0  0  0  0
    8.3374   -3.7192   23.7859 C   0  0  0  0  0  0  0  0  0  0  0  0
    6.6774   -1.0861   23.8211 C   0  0  0  0  0  0  0  0  0  0  0  0
    5.9915   -0.9550   24.6743 H   0  0  0  0  0  0  0  0  0  0  0  0
    7.6696   -1.1804   24.2860 H   0  0  0  0  0  0  0  0  0  0  0  0
    6.6371    0.1688   22.9575 C   0  0  0  0  0  0  0  0  0  0  0  0
    5.6211    0.2863   22.5710 H   0  0  0  0  0  0  0  0  0  0  0  0
    6.8214    1.0310   23.6091 H   0  0  0  0  0  0  0  0  0  0  0  0
    7.6540    0.2266   21.8086 C   0  0  0  0  0  0  0  0  0  0  0  0
    7.7903    1.2751   21.5252 H   0  0  0  0  0  0  0  0  0  0  0  0
    8.6482   -0.0909   22.1539 H   0  0  0  0  0  0  0  0  0  0  0  0
    5.7121    1.2518   19.8433 C   0  0  0  0  0  0  0  0  0  0  0  0
    5.4493    1.4414   20.8779 H   0  0  0  0  0  0  0  0  0  0  0  0
    5.1460    1.9966   18.8062 C   0  0  0  0  0  0  0  0  0  0  0  0
    4.4204    2.7757   19.0198 H   0  0  0  0  0  0  0  0  0  0  0  0
  1  2  1  0
  2  3  2  0
  3  4  1  0
  4  5  1  0
  4  6  2  0
  6  7  1  0
  7  8  1  0
  8  9  1  0
  8 10  1  0
  8 11  1  0
 11 12  1  0
 11 13  1  0
 11 14  1  0
 14 15  1  0
 15 16  2  0
 16 17  1  0
 16 18  1  0
 18 19  2  0
 19 20  1  0
 19 21  1  0
 21 22  2  0
 22 23  1  0
 22 24  1  0
 24 25  1  0
 24 26  2  0
 26 27  1  0
 26 28  1  0
 28 29  1  0
 28 30  2  0
 14 31  1  0
 31 32  1  0
 31 33  1  0
 31 34  1  0
 34 35  1  0
 34 36  1  0
 34 37  1  0
 37 38  1  0
 37 39  1  0
  6 40  1  0
 40 41  1  0
 40 42  2  0
 42 43  1  0
 42  2  1  0
 37  7  1  0
 30 15  1  0
 30 21  1  0
M  END
>  <cnnaffinity>  (1) 
-5.86173

>  <filename>  (1) 
c1cncc(N2CCCN(c3cncc4ccccc34)CC2)c1

$$$$
