
     RDKit          3D

 48 52  0  0  0  0  0  0  0  0999 V2000
    4.9505    1.8146   16.9779 H   0  0  0  0  0  0  0  0  0  0  0  0
    5.4061    1.2966   17.8226 C   0  0  0  0  0  0  0  0  0  0  0  0
    6.5603    0.6583   17.5726 N   0  0  0  0  0  0  0  0  0  0  0  0
    7.1605    0.0303   18.5888 C   0  0  0  0  0  0  0  0  0  0  0  0
    8.0990   -0.4665   18.3556 H   0  0  0  0  0  0  0  0  0  0  0  0
    6.6535    0.0116   19.8976 C   0  0  0  0  0  0  0  0  0  0  0  0
    7.3913   -0.6562   20.9651 C   0  0  0  0  0  0  0  0  0  0  0  0
    8.0686   -1.8351   20.7581 N   0  0  0  0  0  0  0  0  0  0  0  0
    8.4721   -2.1661   21.9558 C   0  0  0  0  0  0  0  0  0  0  0  0
    9.4098   -3.4646   22.6330 S   0  0  0  0  0  0  0  0  0  0  0  0
    9.4405   -2.6636   24.1871 C   0  0  0  0  0  0  0  0  0  0  0  0
   10.0275   -3.1055   24.9804 H   0  0  0  0  0  0  0  0  0  0  0  0
    8.7221   -1.5313   24.1903 C   0  0  0  0  0  0  0  0  0  0  0  0
    8.5452   -0.8244   24.9963 H   0  0  0  0  0  0  0  0  0  0  0  0
    8.1443   -1.2795   22.9422 N   0  0  0  0  0  0  0  0  0  0  0  0
    7.4590   -0.2607   22.3098 C   0  0  0  0  0  0  0  0  0  0  0  0
    7.1386    0.8971   22.9591 N   0  0  0  0  0  0  0  0  0  0  0  0
    6.2932    0.9028   24.1471 C   0  0  0  0  0  0  0  0  0  0  0  0
    5.2850    1.2705   23.8797 H   0  0  0  0  0  0  0  0  0  0  0  0
    6.1644   -0.1231   24.5132 H   0  0  0  0  0  0  0  0  0  0  0  0
    6.9041    1.8227   25.1991 C   0  0  0  0  0  0  0  0  0  0  0  0
    6.2307    1.8945   26.0603 H   0  0  0  0  0  0  0  0  0  0  0  0
    7.8547    1.4069   25.5591 H   0  0  0  0  0  0  0  0  0  0  0  0
    7.1765    3.2203   24.6146 C   0  0  0  0  0  0  0  0  0  0  0  0
    6.1964    3.6577   24.3088 H   0  0  0  0  0  0  0  0  0  0  0  0
    7.7902    4.0938   25.6100 N   0  0  0  0  0  0  0  0  0  0  0  0
    7.0084    4.2409   26.8384 C   0  0  0  0  0  0  0  0  0  0  0  0
    7.1539    3.3751   27.4977 H   0  0  0  0  0  0  0  0  0  0  0  0
    5.9258    4.2931   26.6196 H   0  0  0  0  0  0  0  0  0  0  0  0
    7.4756    5.5517   27.4878 C   0  0  0  0  0  0  0  0  0  0  0  0
    6.6174    6.0894   27.9044 H   0  0  0  0  0  0  0  0  0  0  0  0
    8.1613    5.3526   28.3160 H   0  0  0  0  0  0  0  0  0  0  0  0
    8.1808    6.3376   26.3616 C   0  0  0  0  0  0  0  0  0  0  0  0
    9.2245    6.5405   26.6188 H   0  0  0  0  0  0  0  0  0  0  0  0
    7.7057    7.3035   26.1603 H   0  0  0  0  0  0  0  0  0  0  0  0
    8.0894    5.4396   25.1187 C   0  0  0  0  0  0  0  0  0  0  0  0
    7.2929    5.8063   24.4452 H   0  0  0  0  0  0  0  0  0  0  0  0
    9.0189    5.4405   24.5342 H   0  0  0  0  0  0  0  0  0  0  0  0
    8.0514    3.1117   23.3546 C   0  0  0  0  0  0  0  0  0  0  0  0
    8.2123    4.1003   22.9103 H   0  0  0  0  0  0  0  0  0  0  0  0
    9.0326    2.7148   23.6428 H   0  0  0  0  0  0  0  0  0  0  0  0
    7.4047    2.1873   22.3285 C   0  0  0  0  0  0  0  0  0  0  0  0
    6.4695    2.6309   21.9476 H   0  0  0  0  0  0  0  0  0  0  0  0
    8.0604    2.0152   21.4659 H   0  0  0  0  0  0  0  0  0  0  0  0
    5.4317    0.6628   20.1347 C   0  0  0  0  0  0  0  0  0  0  0  0
    4.9869    0.6567   21.1301 H   0  0  0  0  0  0  0  0  0  0  0  0
    4.7940    1.3149   19.0810 C   0  0  0  0  0  0  0  0  0  0  0  0
    3.8604    1.8514   19.2215 H   0  0  0  0  0  0  0  0  0  0  0  0
  1  2  1  0
  2  3  2  0
  3  4  1  0
  4  5  1  0
  4  6  2  0
  6  7  1  0
  7  8  1  0
  8  9  2  0
  9 10  1  0
 10 11  1  0
 11 12  1  0
 11 13  2  0
 13 14  1  0
 13 15  1  0
 15 16  1  0
 16 17  1  0
 17 18  1  0
 18 19  1  0
 18 20  1  0
 18 21  1  0
 21 22  1  0
 21 23  1  0
 21 24  1  0
 24 25  1  0
 24 26  1  0
 26 27  1  0
 27 28  1  0
 27 29  1  0
 27 30  1  0
 30 31  1  0
 30 32  1  0
 30 33  1  0
 33 34  1  0
 33 35  1  0
 33 36  1  0
 36 37  1  0
 36 38  1  0
 24 39  1  0
 39 40  1  0
 39 41  1  0
 39 42  1  0
 42 43  1  0
 42 44  1  0
  6 45  1  0
 45 46  1  0
 45 47  2  0
 47 48  1  0
 47  2  1  0
 16  7  2  0
 42 17  1  0
 15  9  1  0
 36 26  1  0
M  END
>  <cnnaffinity>  (1) 
-5.70007

>  <filename>  (1) 
c1cncc(-c2nc3sccn3c2N2CCC(N3CCCC3)CC2)c1

$$$$
