
     RDKit          3D

 37 41  0  0  0  0  0  0  0  0999 V2000
    4.9403    1.8021   16.9412 H   0  0  0  0  0  0  0  0  0  0  0  0
    5.4232    1.3095   17.7789 C   0  0  0  0  0  0  0  0  0  0  0  0
    6.5877    0.6968   17.5214 N   0  0  0  0  0  0  0  0  0  0  0  0
    7.2193    0.1056   18.5401 C   0  0  0  0  0  0  0  0  0  0  0  0
    8.1551   -0.3952   18.2948 H   0  0  0  0  0  0  0  0  0  0  0  0
    6.7174    0.0872   19.8541 C   0  0  0  0  0  0  0  0  0  0  0  0
    7.4064   -0.6630   20.9189 C   0  0  0  0  0  0  0  0  0  0  0  0
    8.6270   -1.1954   20.7508 N   0  0  0  0  0  0  0  0  0  0  0  0
    8.8100   -1.8816   21.9016 N   0  0  0  0  0  0  0  0  0  0  0  0
    9.7780   -2.7545   22.3836 C   0  0  0  0  0  0  0  0  0  0  0  0
   10.7240   -2.8712   21.8833 H   0  0  0  0  0  0  0  0  0  0  0  0
    9.2454   -3.3270   23.4925 C   0  0  0  0  0  0  0  0  0  0  0  0
    9.6368   -4.1048   24.1306 H   0  0  0  0  0  0  0  0  0  0  0  0
    7.9901   -2.7626   23.7415 N   0  0  0  0  0  0  0  0  0  0  0  0
    7.0756   -3.1078   24.7593 C   0  0  0  0  0  0  0  0  0  0  0  0
    6.2508   -2.0909   25.3570 C   0  0  0  0  0  0  0  0  0  0  0  0
    6.3849   -1.0521   25.0510 H   0  0  0  0  0  0  0  0  0  0  0  0
    5.3333   -2.3284   26.2652 N   0  0  0  0  0  0  0  0  0  0  0  0
    5.1449   -3.6328   26.6588 C   0  0  0  0  0  0  0  0  0  0  0  0
    4.1448   -3.9094   27.6309 C   0  0  0  0  0  0  0  0  0  0  0  0
    3.6011   -3.0481   28.0014 H   0  0  0  0  0  0  0  0  0  0  0  0
    3.9203   -5.1986   28.0641 C   0  0  0  0  0  0  0  0  0  0  0  0
    3.1686   -5.3977   28.8275 H   0  0  0  0  0  0  0  0  0  0  0  0
    4.6831   -6.2796   27.5292 C   0  0  0  0  0  0  0  0  0  0  0  0
    4.4936   -7.2882   27.8906 H   0  0  0  0  0  0  0  0  0  0  0  0
    5.6551   -6.0528   26.5816 C   0  0  0  0  0  0  0  0  0  0  0  0
    6.2403   -6.8771   26.1702 H   0  0  0  0  0  0  0  0  0  0  0  0
    5.9146   -4.7216   26.1294 C   0  0  0  0  0  0  0  0  0  0  0  0
    6.9035   -4.4156   25.1575 C   0  0  0  0  0  0  0  0  0  0  0  0
    7.4806   -5.2186   24.7025 H   0  0  0  0  0  0  0  0  0  0  0  0
    7.7520   -1.8404   22.7355 C   0  0  0  0  0  0  0  0  0  0  0  0
    6.8287   -0.9754   22.1695 C   0  0  0  0  0  0  0  0  0  0  0  0
    5.9378   -0.5264   22.5628 H   0  0  0  0  0  0  0  0  0  0  0  0
    5.4844    0.7200   20.0959 C   0  0  0  0  0  0  0  0  0  0  0  0
    5.0304    0.7220   21.0878 H   0  0  0  0  0  0  0  0  0  0  0  0
    4.8276    1.3375   19.0418 C   0  0  0  0  0  0  0  0  0  0  0  0
    3.8767    1.8350   19.1899 H   0  0  0  0  0  0  0  0  0  0  0  0
  1  2  1  0
  2  3  2  0
  3  4  1  0
  4  5  1  0
  4  6  2  0
  6  7  1  0
  7  8  2  0
  8  9  1  0
  9 10  1  0
 10 11  1  0
 10 12  2  0
 12 13  1  0
 12 14  1  0
 14 15  1  0
 15 16  2  0
 16 17  1  0
 16 18  1  0
 18 19  2  0
 19 20  1  0
 20 21  1  0
 20 22  2  0
 22 23  1  0
 22 24  1  0
 24 25  1  0
 24 26  2  0
 26 27  1  0
 26 28  1  0
 28 29  2  0
 29 30  1  0
 14 31  1  0
 31 32  2  0
 32 33  1  0
  6 34  1  0
 34 35  1  0
 34 36  2  0
 36 37  1  0
 36  2  1  0
 32  7  1  0
 31  9  1  0
 29 15  1  0
 28 19  1  0
M  END
>  <cnnaffinity>  (1) 
-5.95046

>  <filename>  (1) 
c1cncc(-c2cc3n(-c4cnc5ccccc5c4)ccn3n2)c1

$$$$
