
     RDKit          3D

 34 36  0  0  0  0  0  0  0  0999 V2000
    4.9752    1.7794   16.9769 H   0  0  0  0  0  0  0  0  0  0  0  0
    5.4425    1.2812   17.8242 C   0  0  0  0  0  0  0  0  0  0  0  0
    6.6045    0.6588   17.5736 N   0  0  0  0  0  0  0  0  0  0  0  0
    7.2048    0.0560   18.6012 C   0  0  0  0  0  0  0  0  0  0  0  0
    8.1519   -0.4360   18.3997 H   0  0  0  0  0  0  0  0  0  0  0  0
    6.6785    0.0130   19.8967 C   0  0  0  0  0  0  0  0  0  0  0  0
    7.4182   -0.7458   20.9240 C   0  0  0  0  0  0  0  0  0  0  0  0
    8.7639   -0.6491   20.9019 N   0  0  0  0  0  0  0  0  0  0  0  0
    9.4889   -1.2753   21.8280 N   0  0  0  0  0  0  0  0  0  0  0  0
    8.8914   -2.0300   22.7568 C   0  0  0  0  0  0  0  0  0  0  0  0
    9.5373   -2.4617   23.5169 H   0  0  0  0  0  0  0  0  0  0  0  0
    7.4787   -2.2068   22.7998 C   0  0  0  0  0  0  0  0  0  0  0  0
    6.7700   -2.9858   23.7044 N   0  0  0  0  0  0  0  0  0  0  0  0
    5.8409   -2.5980   23.8427 H   0  0  0  0  0  0  0  0  0  0  0  0
    7.3553   -3.3574   24.9742 C   0  0  0  0  0  0  0  0  0  0  0  0
    8.2162   -4.0219   24.7913 H   0  0  0  0  0  0  0  0  0  0  0  0
    7.8080   -2.1548   25.8148 C   0  0  0  0  0  0  0  0  0  0  0  0
    7.1216   -1.3117   25.6440 H   0  0  0  0  0  0  0  0  0  0  0  0
    8.8087   -1.8239   25.5306 H   0  0  0  0  0  0  0  0  0  0  0  0
    7.7513   -2.6219   27.2716 C   0  0  0  0  0  0  0  0  0  0  0  0
    8.7675   -2.7650   27.6385 H   0  0  0  0  0  0  0  0  0  0  0  0
    7.2556   -1.8543   27.8733 H   0  0  0  0  0  0  0  0  0  0  0  0
    6.9738   -3.9657   27.2720 C   0  0  0  0  0  0  0  0  0  0  0  0
    7.6693   -4.7970   27.4359 H   0  0  0  0  0  0  0  0  0  0  0  0
    6.2181   -4.0143   28.0626 H   0  0  0  0  0  0  0  0  0  0  0  0
    6.3550   -4.0734   25.8708 C   0  0  0  0  0  0  0  0  0  0  0  0
    6.1814   -5.1052   25.5449 H   0  0  0  0  0  0  0  0  0  0  0  0
    5.3988   -3.5297   25.8410 H   0  0  0  0  0  0  0  0  0  0  0  0
    6.7383   -1.5381   21.8424 C   0  0  0  0  0  0  0  0  0  0  0  0
    5.6566   -1.6288   21.8198 H   0  0  0  0  0  0  0  0  0  0  0  0
    5.4611    0.6584   20.1500 C   0  0  0  0  0  0  0  0  0  0  0  0
    5.0267    0.6720   21.1526 H   0  0  0  0  0  0  0  0  0  0  0  0
    4.8378    1.3092   19.0868 C   0  0  0  0  0  0  0  0  0  0  0  0
    3.9004    1.8367   19.2183 H   0  0  0  0  0  0  0  0  0  0  0  0
  1  2  1  0
  2  3  2  0
  3  4  1  0
  4  5  1  0
  4  6  2  0
  6  7  1  0
  7  8  2  0
  8  9  1  0
  9 10  2  0
 10 11  1  0
 10 12  1  0
 12 13  1  0
 13 14  1  0
 13 15  1  0
 15 16  1  0
 15 17  1  0
 17 18  1  0
 17 19  1  0
 17 20  1  0
 20 21  1  0
 20 22  1  0
 20 23  1  0
 23 24  1  0
 23 25  1  0
 23 26  1  0
 26 27  1  0
 26 28  1  0
 12 29  2  0
 29 30  1  0
  6 31  1  0
 31 32  1  0
 31 33  2  0
 33 34  1  0
 33  2  1  0
 29  7  1  0
 26 15  1  0
M  END
>  <cnnaffinity>  (1) 
-5.21129

>  <filename>  (1) 
c1cncc(-c2cc(NC3CCCC3)cnn2)c1

$$$$
