
     RDKit          3D

 26 28  0  0  0  0  0  0  0  0999 V2000
    5.7159    2.7488   26.6943 H   0  0  0  0  0  0  0  0  0  0  0  0
    5.9135    1.8690   26.0867 C   0  0  0  0  0  0  0  0  0  0  0  0
    6.3470    2.0146   24.7884 N   0  0  0  0  0  0  0  0  0  0  0  0
    6.5750    0.8425   24.2857 C   0  0  0  0  0  0  0  0  0  0  0  0
    7.0403    0.7831   23.0077 N   0  0  0  0  0  0  0  0  0  0  0  0
    6.9059    1.6975   22.6068 H   0  0  0  0  0  0  0  0  0  0  0  0
    7.4462   -0.3260   22.2916 C   0  0  0  0  0  0  0  0  0  0  0  0
    7.3842   -0.6781   20.9498 C   0  0  0  0  0  0  0  0  0  0  0  0
    6.6461    0.0007   19.8976 C   0  0  0  0  0  0  0  0  0  0  0  0
    7.1640    0.0350   18.5907 C   0  0  0  0  0  0  0  0  0  0  0  0
    8.1151   -0.4456   18.3659 H   0  0  0  0  0  0  0  0  0  0  0  0
    6.5658    0.6649   17.5760 N   0  0  0  0  0  0  0  0  0  0  0  0
    5.4062    1.2905   17.8332 C   0  0  0  0  0  0  0  0  0  0  0  0
    4.9426    1.7936   16.9882 H   0  0  0  0  0  0  0  0  0  0  0  0
    4.8016    1.3095   19.0945 C   0  0  0  0  0  0  0  0  0  0  0  0
    3.8711    1.8423   19.2389 H   0  0  0  0  0  0  0  0  0  0  0  0
    5.4255    0.6524   20.1499 C   0  0  0  0  0  0  0  0  0  0  0  0
    4.9862    0.6316   21.1490 H   0  0  0  0  0  0  0  0  0  0  0  0
    8.1304   -1.8174   20.7384 N   0  0  0  0  0  0  0  0  0  0  0  0
    8.5797   -2.1569   21.9178 C   0  0  0  0  0  0  0  0  0  0  0  0
    9.2062   -3.0136   22.1278 H   0  0  0  0  0  0  0  0  0  0  0  0
    8.1817   -1.2926   22.8972 N   0  0  0  0  0  0  0  0  0  0  0  0
    8.4646   -1.2672   23.8658 H   0  0  0  0  0  0  0  0  0  0  0  0
    6.2093   -0.5198   25.2856 S   0  0  0  0  0  0  0  0  0  0  0  0
    5.7702    0.5996   26.5314 C   0  0  0  0  0  0  0  0  0  0  0  0
    5.4351    0.2492   27.4919 H   0  0  0  0  0  0  0  0  0  0  0  0
  1  2  1  0
  2  3  1  0
  3  4  2  0
  4  5  1  0
  5  6  1  0
  5  7  1  0
  7  8  2  0
  8  9  1  0
  9 10  2  0
 10 11  1  0
 10 12  1  0
 12 13  2  0
 13 14  1  0
 13 15  1  0
 15 16  1  0
 15 17  2  0
 17 18  1  0
  8 19  1  0
 19 20  2  0
 20 21  1  0
 20 22  1  0
 22 23  1  0
  4 24  1  0
 24 25  1  0
 25 26  1  0
 25  2  2  0
 22  7  1  0
 17  9  1  0
M  END
>  <cnnaffinity>  (1) 
-4.95797

>  <filename>  (1) 
c1cncc(-c2nc[nH]c2Nc2nccs2)c1

$$$$
