
     RDKit          3D

 37 39  0  0  0  0  0  0  0  0999 V2000
    4.9382    1.8047   16.9715 H   0  0  0  0  0  0  0  0  0  0  0  0
    5.3938    1.2981   17.8202 C   0  0  0  0  0  0  0  0  0  0  0  0
    6.5559    0.6769   17.5731 N   0  0  0  0  0  0  0  0  0  0  0  0
    7.1601    0.0668   18.5936 C   0  0  0  0  0  0  0  0  0  0  0  0
    8.1160   -0.4100   18.3846 H   0  0  0  0  0  0  0  0  0  0  0  0
    6.6339    0.0156   19.8909 C   0  0  0  0  0  0  0  0  0  0  0  0
    7.4057   -0.7073   20.8935 C   0  0  0  0  0  0  0  0  0  0  0  0
    8.6680   -1.0552   20.7875 N   0  0  0  0  0  0  0  0  0  0  0  0
    8.9761   -1.6979   21.9526 C   0  0  0  0  0  0  0  0  0  0  0  0
    9.9886   -2.0609   22.1296 H   0  0  0  0  0  0  0  0  0  0  0  0
    7.8823   -1.7750   22.7781 C   0  0  0  0  0  0  0  0  0  0  0  0
    7.7353   -2.2537   24.1897 C   0  0  0  0  0  0  0  0  0  0  0  0
    8.2766   -3.2016   24.2956 H   0  0  0  0  0  0  0  0  0  0  0  0
    6.6855   -2.4898   24.4166 H   0  0  0  0  0  0  0  0  0  0  0  0
    8.2748   -1.2574   25.2390 C   0  0  0  0  0  0  0  0  0  0  0  0
    9.3031   -0.9785   24.9418 H   0  0  0  0  0  0  0  0  0  0  0  0
    7.4431    0.0450   25.3035 C   0  0  0  0  0  0  0  0  0  0  0  0
    6.3902   -0.2131   25.5210 H   0  0  0  0  0  0  0  0  0  0  0  0
    7.4500    0.5428   24.3234 H   0  0  0  0  0  0  0  0  0  0  0  0
    7.9635    1.0130   26.3844 C   0  0  0  0  0  0  0  0  0  0  0  0
    8.9656    1.3719   26.0969 H   0  0  0  0  0  0  0  0  0  0  0  0
    7.3272    1.9038   26.4346 H   0  0  0  0  0  0  0  0  0  0  0  0
    8.0675    0.3181   27.7491 C   0  0  0  0  0  0  0  0  0  0  0  0
    8.4295    1.0012   28.5278 H   0  0  0  0  0  0  0  0  0  0  0  0
    7.0657   -0.0024   28.0766 H   0  0  0  0  0  0  0  0  0  0  0  0
    8.9767   -0.9099   27.6239 C   0  0  0  0  0  0  0  0  0  0  0  0
    9.9568   -0.5905   27.2405 H   0  0  0  0  0  0  0  0  0  0  0  0
    9.1835   -1.3417   28.5993 H   0  0  0  0  0  0  0  0  0  0  0  0
    8.3887   -1.9166   26.6264 C   0  0  0  0  0  0  0  0  0  0  0  0
    9.0112   -2.8210   26.5471 H   0  0  0  0  0  0  0  0  0  0  0  0
    7.3899   -2.2557   26.9523 H   0  0  0  0  0  0  0  0  0  0  0  0
    6.8823   -1.1274   22.0775 N   0  0  0  0  0  0  0  0  0  0  0  0
    5.9301   -0.9696   22.3620 H   0  0  0  0  0  0  0  0  0  0  0  0
    5.4145    0.6703   20.1385 C   0  0  0  0  0  0  0  0  0  0  0  0
    4.9629    0.6978   21.1326 H   0  0  0  0  0  0  0  0  0  0  0  0
    4.7838    1.3215   19.0798 C   0  0  0  0  0  0  0  0  0  0  0  0
    3.8500    1.8597   19.2167 H   0  0  0  0  0  0  0  0  0  0  0  0
  1  2  1  0
  2  3  2  0
  3  4  1  0
  4  5  1  0
  4  6  2  0
  6  7  1  0
  7  8  2  0
  8  9  1  0
  9 10  1  0
  9 11  2  0
 11 12  1  0
 12 13  1  0
 12 14  1  0
 12 15  1  0
 15 16  1  0
 15 17  1  0
 17 18  1  0
 17 19  1  0
 17 20  1  0
 20 21  1  0
 20 22  1  0
 20 23  1  0
 23 24  1  0
 23 25  1  0
 23 26  1  0
 26 27  1  0
 26 28  1  0
 26 29  1  0
 29 30  1  0
 29 31  1  0
 11 32  1  0
 32 33  1  0
  6 34  1  0
 34 35  1  0
 34 36  2  0
 36 37  1  0
 36  2  1  0
 32  7  1  0
 29 15  1  0
M  END
>  <cnnaffinity>  (1) 
-5.32104

>  <filename>  (1) 
c1cncc(-c2ncc(CC3CCCCC3)[nH]2)c1

$$$$
