
     RDKit          3D

 37 41  0  0  0  0  0  0  0  0999 V2000
    4.9494    1.8021   16.9797 H   0  0  0  0  0  0  0  0  0  0  0  0
    5.4026    1.2885   17.8257 C   0  0  0  0  0  0  0  0  0  0  0  0
    6.5617    0.6583   17.5785 N   0  0  0  0  0  0  0  0  0  0  0  0
    7.1554    0.0277   18.5948 C   0  0  0  0  0  0  0  0  0  0  0  0
    8.1044   -0.4520   18.3625 H   0  0  0  0  0  0  0  0  0  0  0  0
    6.6400   -0.0000   19.9002 C   0  0  0  0  0  0  0  0  0  0  0  0
    7.3886   -0.6589   20.9628 C   0  0  0  0  0  0  0  0  0  0  0  0
    8.0441   -1.8437   20.7413 N   0  0  0  0  0  0  0  0  0  0  0  0
    8.4610   -2.1900   21.9267 C   0  0  0  0  0  0  0  0  0  0  0  0
    9.3503   -3.5205   22.5984 S   0  0  0  0  0  0  0  0  0  0  0  0
    9.4328   -2.7247   24.1480 C   0  0  0  0  0  0  0  0  0  0  0  0
   10.0074   -3.1965   24.9348 H   0  0  0  0  0  0  0  0  0  0  0  0
    8.7460   -1.5677   24.1517 C   0  0  0  0  0  0  0  0  0  0  0  0
    8.5960   -0.8541   24.9512 H   0  0  0  0  0  0  0  0  0  0  0  0
    8.1720   -1.2912   22.9145 N   0  0  0  0  0  0  0  0  0  0  0  0
    7.4960   -0.2552   22.2952 C   0  0  0  0  0  0  0  0  0  0  0  0
    7.0943    0.9681   22.9732 C   0  0  0  0  0  0  0  0  0  0  0  0
    6.4645    0.9363   24.2306 C   0  0  0  0  0  0  0  0  0  0  0  0
    6.2612   -0.0258   24.6817 H   0  0  0  0  0  0  0  0  0  0  0  0
    6.0651    2.1100   24.8646 C   0  0  0  0  0  0  0  0  0  0  0  0
    5.5845    2.1228   25.8376 H   0  0  0  0  0  0  0  0  0  0  0  0
    6.2874    3.3384   24.2466 C   0  0  0  0  0  0  0  0  0  0  0  0
    6.8947    3.3811   22.9720 C   0  0  0  0  0  0  0  0  0  0  0  0
    7.2969    2.2100   22.3522 C   0  0  0  0  0  0  0  0  0  0  0  0
    7.7325    2.2894   21.3648 H   0  0  0  0  0  0  0  0  0  0  0  0
    7.1235    4.5608   22.3223 O   0  0  0  0  0  0  0  0  0  0  0  0
    6.4056    5.6870   22.8306 C   0  0  0  0  0  0  0  0  0  0  0  0
    5.3722    5.6673   22.4528 H   0  0  0  0  0  0  0  0  0  0  0  0
    6.9344    6.5599   22.4421 H   0  0  0  0  0  0  0  0  0  0  0  0
    6.4110    5.6915   24.3600 C   0  0  0  0  0  0  0  0  0  0  0  0
    5.7583    6.4761   24.7452 H   0  0  0  0  0  0  0  0  0  0  0  0
    7.4394    5.8250   24.7262 H   0  0  0  0  0  0  0  0  0  0  0  0
    5.8770    4.4748   24.8874 O   0  0  0  0  0  0  0  0  0  0  0  0
    5.4126    0.6437   20.1401 C   0  0  0  0  0  0  0  0  0  0  0  0
    4.9833    0.6577   21.1438 H   0  0  0  0  0  0  0  0  0  0  0  0
    4.7909    1.3019   19.0837 C   0  0  0  0  0  0  0  0  0  0  0  0
    3.8638    1.8453   19.2250 H   0  0  0  0  0  0  0  0  0  0  0  0
  1  2  1  0
  2  3  2  0
  3  4  1  0
  4  5  1  0
  4  6  2  0
  6  7  1  0
  7  8  1  0
  8  9  2  0
  9 10  1  0
 10 11  1  0
 11 12  1  0
 11 13  2  0
 13 14  1  0
 13 15  1  0
 15 16  1  0
 16 17  1  0
 17 18  2  0
 18 19  1  0
 18 20  1  0
 20 21  1  0
 20 22  2  0
 22 23  1  0
 23 24  2  0
 24 25  1  0
 23 26  1  0
 26 27  1  0
 27 28  1  0
 27 29  1  0
 27 30  1  0
 30 31  1  0
 30 32  1  0
 30 33  1  0
  6 34  1  0
 34 35  1  0
 34 36  2  0
 36 37  1  0
 36  2  1  0
 16  7  2  0
 24 17  1  0
 15  9  1  0
 33 22  1  0
M  END
>  <cnnaffinity>  (1) 
-5.66344

>  <filename>  (1) 
c1cncc(-c2nc3sccn3c2-c2ccc3c(c2)OCCO3)c1

$$$$
