
     RDKit          3D

 31 33  0  0  0  0  0  0  0  0999 V2000
    4.9280    1.7790   16.9942 H   0  0  0  0  0  0  0  0  0  0  0  0
    5.4036    1.2899   17.8419 C   0  0  0  0  0  0  0  0  0  0  0  0
    6.5675    0.6697   17.5920 N   0  0  0  0  0  0  0  0  0  0  0  0
    7.1729    0.0577   18.6141 C   0  0  0  0  0  0  0  0  0  0  0  0
    8.1127   -0.4254   18.3528 H   0  0  0  0  0  0  0  0  0  0  0  0
    6.6594    0.0082   19.9201 C   0  0  0  0  0  0  0  0  0  0  0  0
    7.3511   -0.7055   21.0100 C   0  0  0  0  0  0  0  0  0  0  0  0
    6.8284   -1.0231   22.1733 N   0  0  0  0  0  0  0  0  0  0  0  0
    7.8432   -1.6455   22.8245 C   0  0  0  0  0  0  0  0  0  0  0  0
    7.6367   -2.0720   24.0714 O   0  0  0  0  0  0  0  0  0  0  0  0
    8.6892   -2.7775   24.7611 C   0  0  0  0  0  0  0  0  0  0  0  0
    9.6036   -2.1782   24.7281 H   0  0  0  0  0  0  0  0  0  0  0  0
    8.2875   -3.0206   26.2177 C   0  0  0  0  0  0  0  0  0  0  0  0
    8.4918   -2.1539   26.8540 H   0  0  0  0  0  0  0  0  0  0  0  0
    7.2111   -3.2158   26.2778 H   0  0  0  0  0  0  0  0  0  0  0  0
    9.0906   -4.2607   26.6643 C   0  0  0  0  0  0  0  0  0  0  0  0
   10.0241   -3.9750   27.1591 H   0  0  0  0  0  0  0  0  0  0  0  0
    8.5446   -4.8613   27.3994 H   0  0  0  0  0  0  0  0  0  0  0  0
    9.3979   -5.0606   25.3704 C   0  0  0  0  0  0  0  0  0  0  0  0
   10.4648   -5.3008   25.3125 H   0  0  0  0  0  0  0  0  0  0  0  0
    8.8737   -6.0224   25.3644 H   0  0  0  0  0  0  0  0  0  0  0  0
    8.9416   -4.1744   24.1851 C   0  0  0  0  0  0  0  0  0  0  0  0
    9.6719   -4.1330   23.3747 H   0  0  0  0  0  0  0  0  0  0  0  0
    8.0074   -4.5563   23.7626 H   0  0  0  0  0  0  0  0  0  0  0  0
    8.9731   -1.7463   22.1423 N   0  0  0  0  0  0  0  0  0  0  0  0
    8.6261   -1.1288   20.9690 N   0  0  0  0  0  0  0  0  0  0  0  0
    9.2995   -0.9878   20.2350 H   0  0  0  0  0  0  0  0  0  0  0  0
    5.4334    0.6546   20.1631 C   0  0  0  0  0  0  0  0  0  0  0  0
    5.0019    0.6315   21.1677 H   0  0  0  0  0  0  0  0  0  0  0  0
    4.8050    1.3119   19.1060 C   0  0  0  0  0  0  0  0  0  0  0  0
    3.8739    1.8444   19.2511 H   0  0  0  0  0  0  0  0  0  0  0  0
  1  2  1  0
  2  3  2  0
  3  4  1  0
  4  5  1  0
  4  6  2  0
  6  7  1  0
  7  8  2  0
  8  9  1  0
  9 10  1  0
 10 11  1  0
 11 12  1  0
 11 13  1  0
 13 14  1  0
 13 15  1  0
 13 16  1  0
 16 17  1  0
 16 18  1  0
 16 19  1  0
 19 20  1  0
 19 21  1  0
 19 22  1  0
 22 23  1  0
 22 24  1  0
  9 25  2  0
 25 26  1  0
 26 27  1  0
  6 28  1  0
 28 29  1  0
 28 30  2  0
 30 31  1  0
 30  2  1  0
 26  7  1  0
 22 11  1  0
M  END
>  <cnnaffinity>  (1) 
-4.90407

>  <filename>  (1) 
c1cncc(-c2nc(OC3CCCC3)n[nH]2)c1

$$$$
