
     RDKit          3D

 29 32  0  0  0  0  0  0  0  0999 V2000
    4.9512    1.8043   16.9783 H   0  0  0  0  0  0  0  0  0  0  0  0
    5.4018    1.2924   17.8265 C   0  0  0  0  0  0  0  0  0  0  0  0
    6.5590    0.6579   17.5807 N   0  0  0  0  0  0  0  0  0  0  0  0
    7.1511    0.0285   18.5982 C   0  0  0  0  0  0  0  0  0  0  0  0
    8.0980   -0.4556   18.3667 H   0  0  0  0  0  0  0  0  0  0  0  0
    6.6351    0.0089   19.9031 C   0  0  0  0  0  0  0  0  0  0  0  0
    7.3745   -0.6582   20.9699 C   0  0  0  0  0  0  0  0  0  0  0  0
    8.0390   -1.8381   20.7551 N   0  0  0  0  0  0  0  0  0  0  0  0
    8.4527   -2.1902   21.9401 C   0  0  0  0  0  0  0  0  0  0  0  0
    9.3386   -3.5212   22.6107 S   0  0  0  0  0  0  0  0  0  0  0  0
    9.4108   -2.7305   24.1696 C   0  0  0  0  0  0  0  0  0  0  0  0
    9.9877   -3.2068   24.9519 H   0  0  0  0  0  0  0  0  0  0  0  0
    8.7249   -1.5767   24.1823 C   0  0  0  0  0  0  0  0  0  0  0  0
    8.5739   -0.8756   24.9981 H   0  0  0  0  0  0  0  0  0  0  0  0
    8.1570   -1.2954   22.9362 N   0  0  0  0  0  0  0  0  0  0  0  0
    7.4729   -0.2744   22.3039 C   0  0  0  0  0  0  0  0  0  0  0  0
    7.1202    0.8937   22.9478 N   0  0  0  0  0  0  0  0  0  0  0  0
    6.5955    1.0161   24.2145 C   0  0  0  0  0  0  0  0  0  0  0  0
    6.3845    0.1172   24.7742 H   0  0  0  0  0  0  0  0  0  0  0  0
    6.3643    2.3399   24.4653 C   0  0  0  0  0  0  0  0  0  0  0  0
    5.9664    2.7473   25.3857 H   0  0  0  0  0  0  0  0  0  0  0  0
    6.7523    3.0671   23.2986 C   0  0  0  0  0  0  0  0  0  0  0  0
    6.7194    4.1394   23.1495 H   0  0  0  0  0  0  0  0  0  0  0  0
    7.2020    2.1524   22.3890 C   0  0  0  0  0  0  0  0  0  0  0  0
    7.5665    2.2320   21.3783 H   0  0  0  0  0  0  0  0  0  0  0  0
    5.4142    0.6649   20.1447 C   0  0  0  0  0  0  0  0  0  0  0  0
    4.9928    0.6867   21.1530 H   0  0  0  0  0  0  0  0  0  0  0  0
    4.7894    1.3129   19.0841 C   0  0  0  0  0  0  0  0  0  0  0  0
    3.8591    1.8513   19.2215 H   0  0  0  0  0  0  0  0  0  0  0  0
  1  2  1  0
  2  3  2  0
  3  4  1  0
  4  5  1  0
  4  6  2  0
  6  7  1  0
  7  8  1  0
  8  9  2  0
  9 10  1  0
 10 11  1  0
 11 12  1  0
 11 13  2  0
 13 14  1  0
 13 15  1  0
 15 16  1  0
 16 17  1  0
 17 18  1  0
 18 19  1  0
 18 20  2  0
 20 21  1  0
 20 22  1  0
 22 23  1  0
 22 24  2  0
 24 25  1  0
  6 26  1  0
 26 27  1  0
 26 28  2  0
 28 29  1  0
 28  2  1  0
 16  7  2  0
 24 17  1  0
 15  9  1  0
M  END
>  <cnnaffinity>  (1) 
-5.29502

>  <filename>  (1) 
c1cncc(-c2nc3sccn3c2-n2cccc2)c1

$$$$
