
     RDKit          3D

 32 34  0  0  0  0  0  0  0  0999 V2000
    5.0098    1.8667   16.9209 H   0  0  0  0  0  0  0  0  0  0  0  0
    5.4656    1.4759   17.8289 C   0  0  0  0  0  0  0  0  0  0  0  0
    6.7023    0.9681   17.7036 N   0  0  0  0  0  0  0  0  0  0  0  0
    7.2670    0.4594   18.8040 C   0  0  0  0  0  0  0  0  0  0  0  0
    8.2755    0.0609   18.6627 H   0  0  0  0  0  0  0  0  0  0  0  0
    6.6428    0.3700   20.0640 C   0  0  0  0  0  0  0  0  0  0  0  0
    7.3234   -0.3848   21.1881 C   0  0  0  0  0  0  0  0  0  0  0  0
    8.1294    0.5712   21.9210 N   0  0  0  0  0  0  0  0  0  0  0  0
    8.6544    1.1937   21.3341 H   0  0  0  0  0  0  0  0  0  0  0  0
    8.9973    0.1752   22.8921 C   0  0  0  0  0  0  0  0  0  0  0  0
    8.9546   -0.8217   23.6683 N   0  0  0  0  0  0  0  0  0  0  0  0
   10.1330   -0.7207   24.5294 C   0  0  0  0  0  0  0  0  0  0  0  0
    9.8626   -0.8456   25.5814 H   0  0  0  0  0  0  0  0  0  0  0  0
   10.8308   -1.5273   24.2794 H   0  0  0  0  0  0  0  0  0  0  0  0
   10.7390    0.6842   24.2605 C   0  0  0  0  0  0  0  0  0  0  0  0
   10.5078    1.3788   25.0837 H   0  0  0  0  0  0  0  0  0  0  0  0
   11.8280    0.6594   24.1280 H   0  0  0  0  0  0  0  0  0  0  0  0
   10.0663    1.0523   23.0050 N   0  0  0  0  0  0  0  0  0  0  0  0
    9.6988    1.9877   22.9413 H   0  0  0  0  0  0  0  0  0  0  0  0
    6.4143   -1.2838   22.0693 C   0  0  0  0  0  0  0  0  0  0  0  0
    5.4468   -1.4031   21.5750 H   0  0  0  0  0  0  0  0  0  0  0  0
    6.2936   -0.9881   23.1141 H   0  0  0  0  0  0  0  0  0  0  0  0
    7.3066   -2.5158   21.8072 C   0  0  0  0  0  0  0  0  0  0  0  0
    6.7939   -3.4123   21.4404 H   0  0  0  0  0  0  0  0  0  0  0  0
    7.9255   -2.7692   22.6668 H   0  0  0  0  0  0  0  0  0  0  0  0
    8.0440   -1.6934   20.7332 C   0  0  0  0  0  0  0  0  0  0  0  0
    7.6424   -1.9318   19.7532 H   0  0  0  0  0  0  0  0  0  0  0  0
    9.1394   -1.7009   20.7201 H   0  0  0  0  0  0  0  0  0  0  0  0
    5.3685    0.9527   20.1799 C   0  0  0  0  0  0  0  0  0  0  0  0
    4.8508    0.9644   21.1444 H   0  0  0  0  0  0  0  0  0  0  0  0
    4.7708    1.5003   19.0438 C   0  0  0  0  0  0  0  0  0  0  0  0
    3.7925    1.9661   19.0901 H   0  0  0  0  0  0  0  0  0  0  0  0
  1  2  1  0
  2  3  2  0
  3  4  1  0
  4  5  1  0
  4  6  2  0
  6  7  1  0
  7  8  1  0
  8  9  1  0
  8 10  1  0
 10 11  2  0
 11 12  1  0
 12 13  1  0
 12 14  1  0
 12 15  1  0
 15 16  1  0
 15 17  1  0
 15 18  1  0
 18 19  1  0
  7 20  1  0
 20 21  1  0
 20 22  1  0
 20 23  1  0
 23 24  1  0
 23 25  1  0
 23 26  1  0
 26 27  1  0
 26 28  1  0
  6 29  1  0
 29 30  1  0
 29 31  2  0
 31 32  1  0
 31  2  1  0
 26  7  1  0
 18 10  1  0
M  END
>  <cnnaffinity>  (1) 
-4.72198

>  <filename>  (1) 
c1cncc(C2(NC3=NCCN3)CCC2)c1

$$$$
