
     RDKit          3D

 40 43  0  0  0  0  0  0  0  0999 V2000
    4.9616    1.8085   16.9728 H   0  0  0  0  0  0  0  0  0  0  0  0
    5.4082    1.2951   17.8208 C   0  0  0  0  0  0  0  0  0  0  0  0
    6.5657    0.6572   17.5745 N   0  0  0  0  0  0  0  0  0  0  0  0
    7.1534    0.0287   18.5960 C   0  0  0  0  0  0  0  0  0  0  0  0
    8.0974   -0.4671   18.3771 H   0  0  0  0  0  0  0  0  0  0  0  0
    6.6414    0.0028   19.9010 C   0  0  0  0  0  0  0  0  0  0  0  0
    7.3870   -0.6980   20.9411 C   0  0  0  0  0  0  0  0  0  0  0  0
    8.0015   -1.9092   20.7236 N   0  0  0  0  0  0  0  0  0  0  0  0
    8.4100   -2.2620   21.9099 C   0  0  0  0  0  0  0  0  0  0  0  0
    8.1710   -1.3404   22.8719 N   0  0  0  0  0  0  0  0  0  0  0  0
    7.5380   -0.2953   22.2547 C   0  0  0  0  0  0  0  0  0  0  0  0
    7.1853    0.9800   22.9324 C   0  0  0  0  0  0  0  0  0  0  0  0
    6.8565    1.7074   22.1684 H   0  0  0  0  0  0  0  0  0  0  0  0
    6.3210    0.7999   23.5908 H   0  0  0  0  0  0  0  0  0  0  0  0
    8.2717    1.5112   23.7513 N   0  0  0  0  0  0  0  0  0  0  0  0
    9.3842    2.0314   22.9320 C   0  0  0  0  0  0  0  0  0  0  0  0
    9.0439    2.8589   22.2711 H   0  0  0  0  0  0  0  0  0  0  0  0
    9.7437    1.2253   22.2818 H   0  0  0  0  0  0  0  0  0  0  0  0
   10.5256    2.5725   23.8221 C   0  0  0  0  0  0  0  0  0  0  0  0
   11.3292    2.9814   23.1971 H   0  0  0  0  0  0  0  0  0  0  0  0
   10.9518    1.7405   24.4061 H   0  0  0  0  0  0  0  0  0  0  0  0
   10.0892    3.6021   24.7834 N   0  0  0  0  0  0  0  0  0  0  0  0
    9.8051    4.4448   24.2795 H   0  0  0  0  0  0  0  0  0  0  0  0
    8.9516    3.0702   25.5589 C   0  0  0  0  0  0  0  0  0  0  0  0
    9.3361    2.2415   26.1733 H   0  0  0  0  0  0  0  0  0  0  0  0
    8.5821    3.8443   26.2420 H   0  0  0  0  0  0  0  0  0  0  0  0
    7.7985    2.5423   24.6855 C   0  0  0  0  0  0  0  0  0  0  0  0
    7.0238    2.0974   25.3218 H   0  0  0  0  0  0  0  0  0  0  0  0
    7.3387    3.4028   24.1538 H   0  0  0  0  0  0  0  0  0  0  0  0
    8.7379   -1.5261   24.1955 C   0  0  0  0  0  0  0  0  0  0  0  0
    7.9794   -1.2838   24.9463 H   0  0  0  0  0  0  0  0  0  0  0  0
    9.5626   -0.8197   24.3449 H   0  0  0  0  0  0  0  0  0  0  0  0
    9.1906   -3.0110   24.2606 C   0  0  0  0  0  0  0  0  0  0  0  0
    8.5398   -3.6085   24.9010 H   0  0  0  0  0  0  0  0  0  0  0  0
   10.2099   -3.1258   24.6391 H   0  0  0  0  0  0  0  0  0  0  0  0
    9.1086   -3.7188   22.5687 S   0  0  0  0  0  0  0  0  0  0  0  0
    5.4155    0.6571   20.1373 C   0  0  0  0  0  0  0  0  0  0  0  0
    4.9476    0.6498   21.1248 H   0  0  0  0  0  0  0  0  0  0  0  0
    4.7935    1.3120   19.0784 C   0  0  0  0  0  0  0  0  0  0  0  0
    3.8587    1.8482   19.2194 H   0  0  0  0  0  0  0  0  0  0  0  0
  1  2  1  0
  2  3  2  0
  3  4  1  0
  4  5  1  0
  4  6  2  0
  6  7  1  0
  7  8  1  0
  8  9  2  0
  9 10  1  0
 10 11  1  0
 11 12  1  0
 12 13  1  0
 12 14  1  0
 12 15  1  0
 15 16  1  0
 16 17  1  0
 16 18  1  0
 16 19  1  0
 19 20  1  0
 19 21  1  0
 19 22  1  0
 22 23  1  0
 22 24  1  0
 24 25  1  0
 24 26  1  0
 24 27  1  0
 27 28  1  0
 27 29  1  0
 10 30  1  0
 30 31  1  0
 30 32  1  0
 30 33  1  0
 33 34  1  0
 33 35  1  0
 33 36  1  0
  6 37  1  0
 37 38  1  0
 37 39  2  0
 39 40  1  0
 39  2  1  0
 11  7  2  0
 27 15  1  0
 36  9  1  0
M  END
>  <cnnaffinity>  (1) 
-5.3866

>  <filename>  (1) 
c1cncc(-c2nc3n(c2CN2CCNCC2)CCS3)c1

$$$$
