
     RDKit          3D

 27 29  0  0  0  0  0  0  0  0999 V2000
    4.9129    1.7848   16.9953 H   0  0  0  0  0  0  0  0  0  0  0  0
    5.3965    1.2970   17.8380 C   0  0  0  0  0  0  0  0  0  0  0  0
    6.5610    0.6826   17.5731 N   0  0  0  0  0  0  0  0  0  0  0  0
    7.1733    0.0604   18.5903 C   0  0  0  0  0  0  0  0  0  0  0  0
    8.1197   -0.4290   18.3720 H   0  0  0  0  0  0  0  0  0  0  0  0
    6.6658   -0.0113   19.9115 C   0  0  0  0  0  0  0  0  0  0  0  0
    7.3182   -0.7237   20.9244 N   0  0  0  0  0  0  0  0  0  0  0  0
    6.7586   -1.0121   21.7185 H   0  0  0  0  0  0  0  0  0  0  0  0
    8.7112   -0.7834   21.0939 C   0  0  0  0  0  0  0  0  0  0  0  0
    9.7001    0.1389   20.6784 C   0  0  0  0  0  0  0  0  0  0  0  0
    9.5335    1.0374   20.1088 H   0  0  0  0  0  0  0  0  0  0  0  0
   10.9165   -0.2011   21.0821 N   0  0  0  0  0  0  0  0  0  0  0  0
   10.7221   -1.3484   21.7439 N   0  0  0  0  0  0  0  0  0  0  0  0
   11.5074   -1.8207   22.1594 H   0  0  0  0  0  0  0  0  0  0  0  0
    9.4221   -1.7566   21.7811 C   0  0  0  0  0  0  0  0  0  0  0  0
    8.9763   -2.9653   22.4277 C   0  0  0  0  0  0  0  0  0  0  0  0
    7.7641   -3.6656   22.1979 C   0  0  0  0  0  0  0  0  0  0  0  0
    6.9976   -3.4200   21.4770 H   0  0  0  0  0  0  0  0  0  0  0  0
    7.6739   -4.7494   22.9512 N   0  0  0  0  0  0  0  0  0  0  0  0
    8.8055   -4.7406   23.6737 N   0  0  0  0  0  0  0  0  0  0  0  0
    8.9634   -5.4825   24.3385 H   0  0  0  0  0  0  0  0  0  0  0  0
    9.6180   -3.7021   23.4015 C   0  0  0  0  0  0  0  0  0  0  0  0
   10.5723   -3.5494   23.8980 H   0  0  0  0  0  0  0  0  0  0  0  0
    5.4438    0.6347   20.1631 C   0  0  0  0  0  0  0  0  0  0  0  0
    5.0192    0.6217   21.1688 H   0  0  0  0  0  0  0  0  0  0  0  0
    4.8118    1.3063   19.1099 C   0  0  0  0  0  0  0  0  0  0  0  0
    3.8809    1.8383   19.2637 H   0  0  0  0  0  0  0  0  0  0  0  0
  1  2  1  0
  2  3  2  0
  3  4  1  0
  4  5  1  0
  4  6  2  0
  6  7  1  0
  7  8  1  0
  7  9  1  0
  9 10  1  0
 10 11  1  0
 10 12  2  0
 12 13  1  0
 13 14  1  0
 13 15  1  0
 15 16  1  0
 16 17  1  0
 17 18  1  0
 17 19  2  0
 19 20  1  0
 20 21  1  0
 20 22  1  0
 22 23  1  0
  6 24  1  0
 24 25  1  0
 24 26  2  0
 26 27  1  0
 26  2  1  0
 15  9  2  0
 22 16  2  0
M  END
>  <cnnaffinity>  (1) 
-5.43789

>  <filename>  (1) 
c1cncc(Nc2cn[nH]c2-c2cn[nH]c2)c1

$$$$
