
     RDKit          3D

 28 30  0  0  0  0  0  0  0  0999 V2000
    7.7155   -6.0542   24.2780 H   0  0  0  0  0  0  0  0  0  0  0  0
    8.0584   -5.1658   23.7606 C   0  0  0  0  0  0  0  0  0  0  0  0
    7.3659   -4.7858   22.6683 N   0  0  0  0  0  0  0  0  0  0  0  0
    7.8210   -3.6727   22.0624 C   0  0  0  0  0  0  0  0  0  0  0  0
    7.3060   -3.3441   21.1654 H   0  0  0  0  0  0  0  0  0  0  0  0
    8.9523   -2.9481   22.5199 C   0  0  0  0  0  0  0  0  0  0  0  0
    9.4137   -1.7394   21.8273 C   0  0  0  0  0  0  0  0  0  0  0  0
    8.7121   -0.7921   21.1029 C   0  0  0  0  0  0  0  0  0  0  0  0
    7.3264   -0.7342   20.9271 N   0  0  0  0  0  0  0  0  0  0  0  0
    6.7689   -1.0410   21.7178 H   0  0  0  0  0  0  0  0  0  0  0  0
    6.6682   -0.0136   19.9157 C   0  0  0  0  0  0  0  0  0  0  0  0
    7.1742    0.0612   18.5915 C   0  0  0  0  0  0  0  0  0  0  0  0
    8.1215   -0.4301   18.3747 H   0  0  0  0  0  0  0  0  0  0  0  0
    6.5628    0.6829   17.5749 N   0  0  0  0  0  0  0  0  0  0  0  0
    5.3972    1.2967   17.8391 C   0  0  0  0  0  0  0  0  0  0  0  0
    4.9093    1.7817   16.9971 H   0  0  0  0  0  0  0  0  0  0  0  0
    4.8125    1.3065   19.1126 C   0  0  0  0  0  0  0  0  0  0  0  0
    3.8783    1.8403   19.2657 H   0  0  0  0  0  0  0  0  0  0  0  0
    5.4480    0.6347   20.1639 C   0  0  0  0  0  0  0  0  0  0  0  0
    5.0177    0.6222   21.1678 H   0  0  0  0  0  0  0  0  0  0  0  0
    9.6981    0.1270   20.6779 C   0  0  0  0  0  0  0  0  0  0  0  0
    9.5266    1.0211   20.0993 H   0  0  0  0  0  0  0  0  0  0  0  0
   10.9070   -0.2064   21.1131 N   0  0  0  0  0  0  0  0  0  0  0  0
   10.7137   -1.3349   21.7967 N   0  0  0  0  0  0  0  0  0  0  0  0
   11.4908   -1.7819   22.2648 H   0  0  0  0  0  0  0  0  0  0  0  0
    9.6643   -3.3718   23.5955 N   0  0  0  0  0  0  0  0  0  0  0  0
    9.1937   -4.4639   24.2159 C   0  0  0  0  0  0  0  0  0  0  0  0
    9.7404   -4.8095   25.0897 H   0  0  0  0  0  0  0  0  0  0  0  0
  1  2  1  0
  2  3  2  0
  3  4  1  0
  4  5  1  0
  4  6  2  0
  6  7  1  0
  7  8  2  0
  8  9  1  0
  9 10  1  0
  9 11  1  0
 11 12  2  0
 12 13  1  0
 12 14  1  0
 14 15  2  0
 15 16  1  0
 15 17  1  0
 17 18  1  0
 17 19  2  0
 19 20  1  0
  8 21  1  0
 21 22  1  0
 21 23  2  0
 23 24  1  0
 24 25  1  0
  6 26  1  0
 26 27  2  0
 27 28  1  0
 27  2  1  0
 24  7  1  0
 19 11  1  0
M  END
>  <cnnaffinity>  (1) 
-5.7295

>  <filename>  (1) 
c1cncc(Nc2cn[nH]c2-c2cnccn2)c1

$$$$
