
     RDKit          3D

 42 45  0  0  0  0  0  0  0  0999 V2000
    4.9492    1.8714   16.9786 H   0  0  0  0  0  0  0  0  0  0  0  0
    5.4331    1.3323   17.7914 C   0  0  0  0  0  0  0  0  0  0  0  0
    6.6040    0.7400   17.5026 N   0  0  0  0  0  0  0  0  0  0  0  0
    7.2399    0.0956   18.4943 C   0  0  0  0  0  0  0  0  0  0  0  0
    8.1828   -0.3792   18.2245 H   0  0  0  0  0  0  0  0  0  0  0  0
    6.7557   -0.0254   19.8239 C   0  0  0  0  0  0  0  0  0  0  0  0
    7.4522   -0.7182   20.8404 N   0  0  0  0  0  0  0  0  0  0  0  0
    6.7614   -1.6625   21.7060 C   0  0  0  0  0  0  0  0  0  0  0  0
    7.3113   -2.6160   21.7481 H   0  0  0  0  0  0  0  0  0  0  0  0
    5.7929   -1.8846   21.2467 H   0  0  0  0  0  0  0  0  0  0  0  0
    6.5167   -1.2113   23.1593 C   0  0  0  0  0  0  0  0  0  0  0  0
    5.7740   -1.8953   23.5744 H   0  0  0  0  0  0  0  0  0  0  0  0
    6.0942   -0.1951   23.1725 H   0  0  0  0  0  0  0  0  0  0  0  0
    7.6604   -1.2652   24.0659 N   0  0  0  0  0  0  0  0  0  0  0  0
    7.8425   -2.3972   24.8435 C   0  0  0  0  0  0  0  0  0  0  0  0
    8.9389   -3.1425   25.2181 C   0  0  0  0  0  0  0  0  0  0  0  0
    9.9609   -3.0194   24.8914 H   0  0  0  0  0  0  0  0  0  0  0  0
    8.4669   -4.1480   26.1433 C   0  0  0  0  0  0  0  0  0  0  0  0
    9.0585   -5.1471   26.9540 C   0  0  0  0  0  0  0  0  0  0  0  0
   10.1266   -5.3478   26.9172 H   0  0  0  0  0  0  0  0  0  0  0  0
    8.2470   -5.8762   27.8180 C   0  0  0  0  0  0  0  0  0  0  0  0
    8.6714   -6.6041   28.4949 H   0  0  0  0  0  0  0  0  0  0  0  0
    6.8468   -5.6899   27.8584 C   0  0  0  0  0  0  0  0  0  0  0  0
    6.2532   -6.3118   28.5231 H   0  0  0  0  0  0  0  0  0  0  0  0
    6.2318   -4.7365   27.0618 C   0  0  0  0  0  0  0  0  0  0  0  0
    5.1500   -4.6126   27.0378 H   0  0  0  0  0  0  0  0  0  0  0  0
    7.0668   -3.9613   26.2575 C   0  0  0  0  0  0  0  0  0  0  0  0
    6.7089   -2.9145   25.4454 N   0  0  0  0  0  0  0  0  0  0  0  0
    5.9396   -2.3028   25.6635 H   0  0  0  0  0  0  0  0  0  0  0  0
    8.8028   -0.4481   23.6932 C   0  0  0  0  0  0  0  0  0  0  0  0
    9.5187   -0.4836   24.5240 H   0  0  0  0  0  0  0  0  0  0  0  0
    8.4687    0.5993   23.6228 H   0  0  0  0  0  0  0  0  0  0  0  0
    9.4607   -0.9009   22.3829 C   0  0  0  0  0  0  0  0  0  0  0  0
    9.4495   -1.9963   22.3653 H   0  0  0  0  0  0  0  0  0  0  0  0
   10.5111   -0.5970   22.3815 H   0  0  0  0  0  0  0  0  0  0  0  0
    8.8449   -0.3693   21.0835 C   0  0  0  0  0  0  0  0  0  0  0  0
    9.4608   -0.7250   20.2396 H   0  0  0  0  0  0  0  0  0  0  0  0
    8.9295    0.7299   21.0633 H   0  0  0  0  0  0  0  0  0  0  0  0
    5.5086    0.5793   20.0809 C   0  0  0  0  0  0  0  0  0  0  0  0
    5.0902    0.5043   21.0824 H   0  0  0  0  0  0  0  0  0  0  0  0
    4.8501    1.2767   19.0619 C   0  0  0  0  0  0  0  0  0  0  0  0
    3.9075    1.7824   19.2480 H   0  0  0  0  0  0  0  0  0  0  0  0
  1  2  1  0
  2  3  2  0
  3  4  1  0
  4  5  1  0
  4  6  2  0
  6  7  1  0
  7  8  1  0
  8  9  1  0
  8 10  1  0
  8 11  1  0
 11 12  1  0
 11 13  1  0
 11 14  1  0
 14 15  1  0
 15 16  2  0
 16 17  1  0
 16 18  1  0
 18 19  2  0
 19 20  1  0
 19 21  1  0
 21 22  1  0
 21 23  2  0
 23 24  1  0
 23 25  1  0
 25 26  1  0
 25 27  2  0
 27 28  1  0
 28 29  1  0
 14 30  1  0
 30 31  1  0
 30 32  1  0
 30 33  1  0
 33 34  1  0
 33 35  1  0
 33 36  1  0
 36 37  1  0
 36 38  1  0
  6 39  1  0
 39 40  1  0
 39 41  2  0
 41 42  1  0
 41  2  1  0
 36  7  1  0
 28 15  1  0
 27 18  1  0
M  END
>  <cnnaffinity>  (1) 
-5.15867

>  <filename>  (1) 
c1cncc(N2CCCN(c3cc4ccccc4[nH]3)CC2)c1

$$$$
