
     RDKit          3D

 38 41  0  0  0  0  0  0  0  0999 V2000
    4.9158    1.7752   17.0023 H   0  0  0  0  0  0  0  0  0  0  0  0
    5.4045    1.2899   17.8431 C   0  0  0  0  0  0  0  0  0  0  0  0
    6.5700    0.6781   17.5781 N   0  0  0  0  0  0  0  0  0  0  0  0
    7.1754    0.0571   18.5909 C   0  0  0  0  0  0  0  0  0  0  0  0
    8.1248   -0.4347   18.3743 H   0  0  0  0  0  0  0  0  0  0  0  0
    6.6488    0.0121   19.8919 C   0  0  0  0  0  0  0  0  0  0  0  0
    7.4035   -0.7036   20.9178 C   0  0  0  0  0  0  0  0  0  0  0  0
    8.3226   -1.6109   20.6961 N   0  0  0  0  0  0  0  0  0  0  0  0
    8.8170   -2.0552   21.9018 N   0  0  0  0  0  0  0  0  0  0  0  0
    8.1830   -1.3746   22.8157 C   0  0  0  0  0  0  0  0  0  0  0  0
    8.2329   -1.1473   24.5387 S   0  0  0  0  0  0  0  0  0  0  0  0
    7.0259    0.1293   24.3243 C   0  0  0  0  0  0  0  0  0  0  0  0
    6.4729    0.8718   25.4965 C   0  0  0  0  0  0  0  0  0  0  0  0
    6.5335    1.9420   25.2699 H   0  0  0  0  0  0  0  0  0  0  0  0
    7.1017    0.6921   26.3740 H   0  0  0  0  0  0  0  0  0  0  0  0
    5.0167    0.4834   25.8185 C   0  0  0  0  0  0  0  0  0  0  0  0
    4.4270    0.6026   24.8964 H   0  0  0  0  0  0  0  0  0  0  0  0
    4.8961   -0.9862   26.2631 C   0  0  0  0  0  0  0  0  0  0  0  0
    5.2724   -1.6585   25.4816 H   0  0  0  0  0  0  0  0  0  0  0  0
    5.5376   -1.1464   27.1434 H   0  0  0  0  0  0  0  0  0  0  0  0
    3.4529   -1.3593   26.6200 C   0  0  0  0  0  0  0  0  0  0  0  0
    2.8429   -1.3151   25.7073 H   0  0  0  0  0  0  0  0  0  0  0  0
    3.4092   -2.3947   26.9773 H   0  0  0  0  0  0  0  0  0  0  0  0
    2.8631   -0.4080   27.6669 C   0  0  0  0  0  0  0  0  0  0  0  0
    1.8169   -0.6652   27.8669 H   0  0  0  0  0  0  0  0  0  0  0  0
    3.4075   -0.5377   28.6130 H   0  0  0  0  0  0  0  0  0  0  0  0
    2.9756    1.0558   27.2252 C   0  0  0  0  0  0  0  0  0  0  0  0
    2.3444    1.2123   26.3390 H   0  0  0  0  0  0  0  0  0  0  0  0
    2.5939    1.7213   28.0075 H   0  0  0  0  0  0  0  0  0  0  0  0
    4.4211    1.4265   26.8744 C   0  0  0  0  0  0  0  0  0  0  0  0
    5.0385    1.3823   27.7843 H   0  0  0  0  0  0  0  0  0  0  0  0
    4.4662    2.4640   26.5165 H   0  0  0  0  0  0  0  0  0  0  0  0
    6.6187    0.3384   23.1153 N   0  0  0  0  0  0  0  0  0  0  0  0
    7.2713   -0.5266   22.2779 N   0  0  0  0  0  0  0  0  0  0  0  0
    5.4336    0.6524   20.1619 C   0  0  0  0  0  0  0  0  0  0  0  0
    5.0083    0.6353   21.1685 H   0  0  0  0  0  0  0  0  0  0  0  0
    4.8046    1.3087   19.1090 C   0  0  0  0  0  0  0  0  0  0  0  0
    3.8739    1.8437   19.2618 H   0  0  0  0  0  0  0  0  0  0  0  0
  1  2  1  0
  2  3  2  0
  3  4  1  0
  4  5  1  0
  4  6  2  0
  6  7  1  0
  7  8  2  0
  8  9  1  0
  9 10  2  0
 10 11  1  0
 11 12  1  0
 12 13  1  0
 13 14  1  0
 13 15  1  0
 13 16  1  0
 16 17  1  0
 16 18  1  0
 18 19  1  0
 18 20  1  0
 18 21  1  0
 21 22  1  0
 21 23  1  0
 21 24  1  0
 24 25  1  0
 24 26  1  0
 24 27  1  0
 27 28  1  0
 27 29  1  0
 27 30  1  0
 30 31  1  0
 30 32  1  0
 12 33  2  0
 33 34  1  0
  6 35  1  0
 35 36  1  0
 35 37  2  0
 37 38  1  0
 37  2  1  0
 34  7  1  0
 34 10  1  0
 30 16  1  0
M  END
>  <cnnaffinity>  (1) 
-5.50902

>  <filename>  (1) 
c1cncc(-c2nnc3sc(CC4CCCCC4)nn23)c1

$$$$
