
     RDKit          3D

 34 37  0  0  0  0  0  0  0  0999 V2000
    5.0135    1.8597   16.8841 H   0  0  0  0  0  0  0  0  0  0  0  0
    5.4372    1.3365   17.7383 C   0  0  0  0  0  0  0  0  0  0  0  0
    6.6113    0.7135   17.5311 N   0  0  0  0  0  0  0  0  0  0  0  0
    7.1511    0.0528   18.5621 C   0  0  0  0  0  0  0  0  0  0  0  0
    8.0986   -0.4531   18.3922 H   0  0  0  0  0  0  0  0  0  0  0  0
    6.5525   -0.0214   19.8312 C   0  0  0  0  0  0  0  0  0  0  0  0
    7.1650   -0.8140   20.7657 O   0  0  0  0  0  0  0  0  0  0  0  0
    7.1810   -0.4590   22.0868 C   0  0  0  0  0  0  0  0  0  0  0  0
    7.1849    0.7867   22.7553 C   0  0  0  0  0  0  0  0  0  0  0  0
    7.1047    1.7807   22.3319 H   0  0  0  0  0  0  0  0  0  0  0  0
    7.3272    0.6102   24.0684 N   0  0  0  0  0  0  0  0  0  0  0  0
    7.4179   -0.7188   24.2249 N   0  0  0  0  0  0  0  0  0  0  0  0
    7.5951   -1.1157   25.1357 H   0  0  0  0  0  0  0  0  0  0  0  0
    7.3483   -1.4176   23.0586 C   0  0  0  0  0  0  0  0  0  0  0  0
    7.4523   -2.8611   22.9087 C   0  0  0  0  0  0  0  0  0  0  0  0
    6.5451   -3.5239   22.1077 C   0  0  0  0  0  0  0  0  0  0  0  0
    5.8708   -2.9466   21.4774 H   0  0  0  0  0  0  0  0  0  0  0  0
    6.4271   -4.8782   22.0486 N   0  0  0  0  0  0  0  0  0  0  0  0
    7.2277   -5.5929   22.8182 C   0  0  0  0  0  0  0  0  0  0  0  0
    7.0988   -6.6743   22.7720 H   0  0  0  0  0  0  0  0  0  0  0  0
    8.2720   -5.0398   23.6276 C   0  0  0  0  0  0  0  0  0  0  0  0
    9.1624   -5.8122   24.4344 C   0  0  0  0  0  0  0  0  0  0  0  0
    8.9653   -6.8557   24.6041 H   0  0  0  0  0  0  0  0  0  0  0  0
   10.2876   -5.2429   24.9755 C   0  0  0  0  0  0  0  0  0  0  0  0
   10.9682   -5.8163   25.5948 H   0  0  0  0  0  0  0  0  0  0  0  0
   10.5933   -3.8853   24.7169 C   0  0  0  0  0  0  0  0  0  0  0  0
   11.5337   -3.4671   25.0347 H   0  0  0  0  0  0  0  0  0  0  0  0
    9.6983   -3.0881   24.0473 C   0  0  0  0  0  0  0  0  0  0  0  0
    9.9268   -2.0406   23.8711 H   0  0  0  0  0  0  0  0  0  0  0  0
    8.4781   -3.6332   23.5550 C   0  0  0  0  0  0  0  0  0  0  0  0
    5.3353    0.6289   20.0469 C   0  0  0  0  0  0  0  0  0  0  0  0
    4.8681    0.5920   21.0309 H   0  0  0  0  0  0  0  0  0  0  0  0
    4.7727    1.3215   18.9688 C   0  0  0  0  0  0  0  0  0  0  0  0
    3.8330    1.8501   19.0791 H   0  0  0  0  0  0  0  0  0  0  0  0
  1  2  1  0
  2  3  2  0
  3  4  1  0
  4  5  1  0
  4  6  2  0
  6  7  1  0
  7  8  1  0
  8  9  1  0
  9 10  1  0
  9 11  2  0
 11 12  1  0
 12 13  1  0
 12 14  1  0
 14 15  1  0
 15 16  2  0
 16 17  1  0
 16 18  1  0
 18 19  2  0
 19 20  1  0
 19 21  1  0
 21 22  2  0
 22 23  1  0
 22 24  1  0
 24 25  1  0
 24 26  2  0
 26 27  1  0
 26 28  1  0
 28 29  1  0
 28 30  2  0
  6 31  1  0
 31 32  1  0
 31 33  2  0
 33 34  1  0
 33  2  1  0
 14  8  2  0
 30 15  1  0
 30 21  1  0
M  END
>  <cnnaffinity>  (1) 
-5.82015

>  <filename>  (1) 
c1cncc(Oc2cn[nH]c2-c2cncc3ccccc23)c1

$$$$
