
     RDKit          3D

 28 30  0  0  0  0  0  0  0  0999 V2000
    4.9113    1.7848   16.9951 H   0  0  0  0  0  0  0  0  0  0  0  0
    5.3961    1.2977   17.8376 C   0  0  0  0  0  0  0  0  0  0  0  0
    6.5606    0.6833   17.5721 N   0  0  0  0  0  0  0  0  0  0  0  0
    7.1720    0.0609   18.5891 C   0  0  0  0  0  0  0  0  0  0  0  0
    8.1199   -0.4289   18.3738 H   0  0  0  0  0  0  0  0  0  0  0  0
    6.6639   -0.0110   19.9109 C   0  0  0  0  0  0  0  0  0  0  0  0
    7.3234   -0.7168   20.9250 N   0  0  0  0  0  0  0  0  0  0  0  0
    6.7700   -1.0601   21.7013 H   0  0  0  0  0  0  0  0  0  0  0  0
    8.7117   -0.7603   21.1018 C   0  0  0  0  0  0  0  0  0  0  0  0
    9.7006    0.1499   20.6682 C   0  0  0  0  0  0  0  0  0  0  0  0
    9.5296    1.0277   20.0708 H   0  0  0  0  0  0  0  0  0  0  0  0
   10.9129   -0.1721   21.1010 N   0  0  0  0  0  0  0  0  0  0  0  0
   10.7123   -1.2905   21.8103 N   0  0  0  0  0  0  0  0  0  0  0  0
   11.5020   -1.7506   22.2351 H   0  0  0  0  0  0  0  0  0  0  0  0
    9.4158   -1.7013   21.8328 C   0  0  0  0  0  0  0  0  0  0  0  0
    8.9582   -2.8897   22.5417 C   0  0  0  0  0  0  0  0  0  0  0  0
    7.8903   -3.6661   22.0415 C   0  0  0  0  0  0  0  0  0  0  0  0
    7.4169   -3.4104   21.0989 H   0  0  0  0  0  0  0  0  0  0  0  0
    7.4305   -4.7578   22.6599 N   0  0  0  0  0  0  0  0  0  0  0  0
    7.9809   -5.1418   23.8177 N   0  0  0  0  0  0  0  0  0  0  0  0
    8.9952   -4.4390   24.3436 C   0  0  0  0  0  0  0  0  0  0  0  0
    9.3998   -4.8062   25.2802 H   0  0  0  0  0  0  0  0  0  0  0  0
    9.5309   -3.3019   23.7395 C   0  0  0  0  0  0  0  0  0  0  0  0
   10.3471   -2.7497   24.2043 H   0  0  0  0  0  0  0  0  0  0  0  0
    5.4436    0.6348   20.1625 C   0  0  0  0  0  0  0  0  0  0  0  0
    5.0194    0.6215   21.1681 H   0  0  0  0  0  0  0  0  0  0  0  0
    4.8113    1.3069   19.1096 C   0  0  0  0  0  0  0  0  0  0  0  0
    3.8797    1.8393   19.2642 H   0  0  0  0  0  0  0  0  0  0  0  0
  1  2  1  0
  2  3  2  0
  3  4  1  0
  4  5  1  0
  4  6  2  0
  6  7  1  0
  7  8  1  0
  7  9  1  0
  9 10  1  0
 10 11  1  0
 10 12  2  0
 12 13  1  0
 13 14  1  0
 13 15  1  0
 15 16  1  0
 16 17  2  0
 17 18  1  0
 17 19  1  0
 19 20  2  0
 20 21  1  0
 21 22  1  0
 21 23  2  0
 23 24  1  0
  6 25  1  0
 25 26  1  0
 25 27  2  0
 27 28  1  0
 27  2  1  0
 15  9  2  0
 23 16  1  0
M  END
>  <cnnaffinity>  (1) 
-5.5848

>  <filename>  (1) 
c1cncc(Nc2cn[nH]c2-c2ccnnc2)c1

$$$$
