
     RDKit          3D

 33 37  0  0  0  0  0  0  0  0999 V2000
    4.9184    1.7769   17.0006 H   0  0  0  0  0  0  0  0  0  0  0  0
    5.4047    1.2901   17.8414 C   0  0  0  0  0  0  0  0  0  0  0  0
    6.5698    0.6772   17.5743 N   0  0  0  0  0  0  0  0  0  0  0  0
    7.1733    0.0561   18.5895 C   0  0  0  0  0  0  0  0  0  0  0  0
    8.1228   -0.4337   18.3725 H   0  0  0  0  0  0  0  0  0  0  0  0
    6.6474    0.0106   19.8922 C   0  0  0  0  0  0  0  0  0  0  0  0
    7.4042   -0.6999   20.9175 C   0  0  0  0  0  0  0  0  0  0  0  0
    8.3296   -1.6008   20.6981 N   0  0  0  0  0  0  0  0  0  0  0  0
    8.8314   -2.0377   21.9040 N   0  0  0  0  0  0  0  0  0  0  0  0
    8.2015   -1.3565   22.8203 C   0  0  0  0  0  0  0  0  0  0  0  0
    8.2617   -1.0991   24.5355 S   0  0  0  0  0  0  0  0  0  0  0  0
    7.0335    0.1696   24.3164 C   0  0  0  0  0  0  0  0  0  0  0  0
    6.5413    0.9552   25.4627 C   0  0  0  0  0  0  0  0  0  0  0  0
    5.5555    1.9689   25.2348 C   0  0  0  0  0  0  0  0  0  0  0  0
    5.1911    2.1405   24.2252 H   0  0  0  0  0  0  0  0  0  0  0  0
    5.0668    2.7311   26.2811 C   0  0  0  0  0  0  0  0  0  0  0  0
    4.3201    3.5032   26.1241 H   0  0  0  0  0  0  0  0  0  0  0  0
    5.5517    2.4997   27.5828 C   0  0  0  0  0  0  0  0  0  0  0  0
    5.2713    3.0879   28.8579 C   0  0  0  0  0  0  0  0  0  0  0  0
    4.5643    3.8866   29.0239 H   0  0  0  0  0  0  0  0  0  0  0  0
    6.0525    2.4510   29.7801 C   0  0  0  0  0  0  0  0  0  0  0  0
    6.1224    2.6110   30.8521 H   0  0  0  0  0  0  0  0  0  0  0  0
    6.8114    1.4890   29.1376 N   0  0  0  0  0  0  0  0  0  0  0  0
    7.4761    0.8649   29.5602 H   0  0  0  0  0  0  0  0  0  0  0  0
    6.5256    1.4961   27.7950 C   0  0  0  0  0  0  0  0  0  0  0  0
    7.0351    0.7124   26.7568 C   0  0  0  0  0  0  0  0  0  0  0  0
    7.7864   -0.0455   26.9853 H   0  0  0  0  0  0  0  0  0  0  0  0
    6.6216    0.3499   23.0969 N   0  0  0  0  0  0  0  0  0  0  0  0
    7.2740   -0.5211   22.2787 N   0  0  0  0  0  0  0  0  0  0  0  0
    5.4315    0.6522   20.1623 C   0  0  0  0  0  0  0  0  0  0  0  0
    5.0086    0.6361   21.1704 H   0  0  0  0  0  0  0  0  0  0  0  0
    4.8046    1.3079   19.1073 C   0  0  0  0  0  0  0  0  0  0  0  0
    3.8743    1.8432   19.2600 H   0  0  0  0  0  0  0  0  0  0  0  0
  1  2  1  0
  2  3  2  0
  3  4  1  0
  4  5  1  0
  4  6  2  0
  6  7  1  0
  7  8  2  0
  8  9  1  0
  9 10  2  0
 10 11  1  0
 11 12  1  0
 12 13  1  0
 13 14  2  0
 14 15  1  0
 14 16  1  0
 16 17  1  0
 16 18  2  0
 18 19  1  0
 19 20  1  0
 19 21  2  0
 21 22  1  0
 21 23  1  0
 23 24  1  0
 23 25  1  0
 25 26  2  0
 26 27  1  0
 12 28  2  0
 28 29  1  0
  6 30  1  0
 30 31  1  0
 30 32  2  0
 32 33  1  0
 32  2  1  0
 29  7  1  0
 29 10  1  0
 26 13  1  0
 25 18  1  0
M  END
>  <cnnaffinity>  (1) 
-5.49699

>  <filename>  (1) 
c1cncc(-c2nnc3sc(-c4ccc5cc[nH]c5c4)nn23)c1

$$$$
