
     RDKit          3D

 44 47  0  0  0  0  0  0  0  0999 V2000
    4.8914    1.8755   16.9670 H   0  0  0  0  0  0  0  0  0  0  0  0
    5.3722    1.3368   17.7799 C   0  0  0  0  0  0  0  0  0  0  0  0
    6.5292    0.7196   17.4824 N   0  0  0  0  0  0  0  0  0  0  0  0
    7.1627    0.0757   18.4740 C   0  0  0  0  0  0  0  0  0  0  0  0
    8.1103   -0.3977   18.2124 H   0  0  0  0  0  0  0  0  0  0  0  0
    6.6855   -0.0321   19.8090 C   0  0  0  0  0  0  0  0  0  0  0  0
    7.4210   -0.7339   20.8078 N   0  0  0  0  0  0  0  0  0  0  0  0
    6.7378   -1.8110   21.5256 C   0  0  0  0  0  0  0  0  0  0  0  0
    6.6377   -2.6876   20.8630 H   0  0  0  0  0  0  0  0  0  0  0  0
    5.7129   -1.5046   21.7758 H   0  0  0  0  0  0  0  0  0  0  0  0
    7.4203   -2.3432   22.8049 C   0  0  0  0  0  0  0  0  0  0  0  0
    8.4060   -2.7361   22.5244 H   0  0  0  0  0  0  0  0  0  0  0  0
    6.8305   -3.1978   23.1609 H   0  0  0  0  0  0  0  0  0  0  0  0
    7.6084   -1.4338   23.9222 N   0  0  0  0  0  0  0  0  0  0  0  0
    6.5079   -1.1832   24.7814 C   0  0  0  0  0  0  0  0  0  0  0  0
    5.6927   -0.0950   24.5851 C   0  0  0  0  0  0  0  0  0  0  0  0
    5.9275    0.5838   23.7702 H   0  0  0  0  0  0  0  0  0  0  0  0
    4.5233    0.0961   25.3707 C   0  0  0  0  0  0  0  0  0  0  0  0
    3.8611    0.9241   25.1350 H   0  0  0  0  0  0  0  0  0  0  0  0
    4.2337   -0.7571   26.4082 C   0  0  0  0  0  0  0  0  0  0  0  0
    3.3366   -0.6118   27.0075 H   0  0  0  0  0  0  0  0  0  0  0  0
    5.1118   -1.8457   26.7191 C   0  0  0  0  0  0  0  0  0  0  0  0
    4.8870   -2.7248   27.8265 C   0  0  0  0  0  0  0  0  0  0  0  0
    4.0297   -2.5476   28.4731 H   0  0  0  0  0  0  0  0  0  0  0  0
    5.7435   -3.7652   28.0909 C   0  0  0  0  0  0  0  0  0  0  0  0
    5.5883   -4.4030   28.9603 H   0  0  0  0  0  0  0  0  0  0  0  0
    6.8881   -3.9814   27.2771 C   0  0  0  0  0  0  0  0  0  0  0  0
    7.5844   -4.7780   27.5197 H   0  0  0  0  0  0  0  0  0  0  0  0
    7.1325   -3.1643   26.1984 C   0  0  0  0  0  0  0  0  0  0  0  0
    8.0021   -3.3130   25.5638 H   0  0  0  0  0  0  0  0  0  0  0  0
    6.2567   -2.0781   25.8858 C   0  0  0  0  0  0  0  0  0  0  0  0
    8.6997   -0.4859   23.8488 C   0  0  0  0  0  0  0  0  0  0  0  0
    9.6418   -1.0589   23.8313 H   0  0  0  0  0  0  0  0  0  0  0  0
    8.7338    0.0765   24.7894 H   0  0  0  0  0  0  0  0  0  0  0  0
    8.6937    0.4781   22.6585 C   0  0  0  0  0  0  0  0  0  0  0  0
    7.8341    1.1527   22.7324 H   0  0  0  0  0  0  0  0  0  0  0  0
    9.5986    1.0929   22.7463 H   0  0  0  0  0  0  0  0  0  0  0  0
    8.7016   -0.2012   21.2794 C   0  0  0  0  0  0  0  0  0  0  0  0
    9.0497    0.5137   20.5280 H   0  0  0  0  0  0  0  0  0  0  0  0
    9.4571   -1.0030   21.2829 H   0  0  0  0  0  0  0  0  0  0  0  0
    5.4568    0.6121   20.0780 C   0  0  0  0  0  0  0  0  0  0  0  0
    5.0559    0.5909   21.0913 H   0  0  0  0  0  0  0  0  0  0  0  0
    4.7992    1.3090   19.0552 C   0  0  0  0  0  0  0  0  0  0  0  0
    3.8637    1.8326   19.2350 H   0  0  0  0  0  0  0  0  0  0  0  0
  1  2  1  0
  2  3  2  0
  3  4  1  0
  4  5  1  0
  4  6  2  0
  6  7  1  0
  7  8  1  0
  8  9  1  0
  8 10  1  0
  8 11  1  0
 11 12  1  0
 11 13  1  0
 11 14  1  0
 14 15  1  0
 15 16  2  0
 16 17  1  0
 16 18  1  0
 18 19  1  0
 18 20  2  0
 20 21  1  0
 20 22  1  0
 22 23  2  0
 23 24  1  0
 23 25  1  0
 25 26  1  0
 25 27  2  0
 27 28  1  0
 27 29  1  0
 29 30  1  0
 29 31  2  0
 14 32  1  0
 32 33  1  0
 32 34  1  0
 32 35  1  0
 35 36  1  0
 35 37  1  0
 35 38  1  0
 38 39  1  0
 38 40  1  0
  6 41  1  0
 41 42  1  0
 41 43  2  0
 43 44  1  0
 43  2  1  0
 38  7  1  0
 31 15  1  0
 31 22  1  0
M  END
>  <cnnaffinity>  (1) 
-5.52485

>  <filename>  (1) 
c1cncc(N2CCCN(c3cccc4ccccc34)CC2)c1

$$$$
