
     RDKit          3D

 25 27  0  0  0  0  0  0  0  0999 V2000
   11.7367   -4.4341   24.9798 H   0  0  0  0  0  0  0  0  0  0  0  0
   10.8058   -3.9180   24.8033 C   0  0  0  0  0  0  0  0  0  0  0  0
    9.6768   -4.1132   25.5448 N   0  0  0  0  0  0  0  0  0  0  0  0
    8.7995   -3.3507   24.9469 C   0  0  0  0  0  0  0  0  0  0  0  0
    7.7546   -3.1982   25.1851 H   0  0  0  0  0  0  0  0  0  0  0  0
    9.3767   -2.7078   23.9009 N   0  0  0  0  0  0  0  0  0  0  0  0
    8.7061   -1.9739   22.9159 C   0  0  0  0  0  0  0  0  0  0  0  0
    7.3620   -1.9958   22.9935 N   0  0  0  0  0  0  0  0  0  0  0  0
    6.7344   -1.3786   21.9826 C   0  0  0  0  0  0  0  0  0  0  0  0
    5.6549   -1.4523   21.9473 H   0  0  0  0  0  0  0  0  0  0  0  0
    7.4124   -0.7152   20.9339 C   0  0  0  0  0  0  0  0  0  0  0  0
    6.6825    0.0113   19.8824 C   0  0  0  0  0  0  0  0  0  0  0  0
    7.2072    0.0716   18.5797 C   0  0  0  0  0  0  0  0  0  0  0  0
    8.1619   -0.4048   18.3635 H   0  0  0  0  0  0  0  0  0  0  0  0
    6.5840    0.6763   17.5640 N   0  0  0  0  0  0  0  0  0  0  0  0
    5.4187    1.2875   17.8306 C   0  0  0  0  0  0  0  0  0  0  0  0
    4.9419    1.7903   16.9933 H   0  0  0  0  0  0  0  0  0  0  0  0
    4.8186    1.3046   19.0946 C   0  0  0  0  0  0  0  0  0  0  0  0
    3.8789    1.8262   19.2458 H   0  0  0  0  0  0  0  0  0  0  0  0
    5.4597    0.6497   20.1439 C   0  0  0  0  0  0  0  0  0  0  0  0
    5.0320    0.6608   21.1486 H   0  0  0  0  0  0  0  0  0  0  0  0
    8.7733   -0.7261   20.8613 N   0  0  0  0  0  0  0  0  0  0  0  0
    9.4144   -1.3329   21.8596 C   0  0  0  0  0  0  0  0  0  0  0  0
   10.5004   -1.3587   21.8402 H   0  0  0  0  0  0  0  0  0  0  0  0
   10.6883   -3.0651   23.8084 N   0  0  0  0  0  0  0  0  0  0  0  0
  1  2  1  0
  2  3  1  0
  3  4  2  0
  4  5  1  0
  4  6  1  0
  6  7  1  0
  7  8  2  0
  8  9  1  0
  9 10  1  0
  9 11  2  0
 11 12  1  0
 12 13  2  0
 13 14  1  0
 13 15  1  0
 15 16  2  0
 16 17  1  0
 16 18  1  0
 18 19  1  0
 18 20  2  0
 20 21  1  0
 11 22  1  0
 22 23  2  0
 23 24  1  0
  6 25  1  0
 25  2  2  0
 23  7  1  0
 20 12  1  0
M  END
>  <cnnaffinity>  (1) 
-4.7908

>  <filename>  (1) 
c1cncc(-c2cnc(-n3cncn3)cn2)c1

$$$$
