
     RDKit          3D

 40 43  0  0  0  0  0  0  0  0999 V2000
    4.9593    1.8555   16.9320 H   0  0  0  0  0  0  0  0  0  0  0  0
    5.4012    1.3084   17.7632 C   0  0  0  0  0  0  0  0  0  0  0  0
    6.5417    0.6533   17.5015 N   0  0  0  0  0  0  0  0  0  0  0  0
    7.1291    0.0042   18.5125 C   0  0  0  0  0  0  0  0  0  0  0  0
    8.0516   -0.5143   18.2654 H   0  0  0  0  0  0  0  0  0  0  0  0
    6.6284   -0.0100   19.8304 C   0  0  0  0  0  0  0  0  0  0  0  0
    7.3802   -0.6416   20.9252 C   0  0  0  0  0  0  0  0  0  0  0  0
    8.1702   -1.7009   20.7394 N   0  0  0  0  0  0  0  0  0  0  0  0
    8.6772   -1.9189   21.9523 N   0  0  0  0  0  0  0  0  0  0  0  0
    8.2746   -1.0853   22.9195 C   0  0  0  0  0  0  0  0  0  0  0  0
    7.4057   -0.2120   22.3066 C   0  0  0  0  0  0  0  0  0  0  0  0
    6.7436    0.8789   22.8999 N   0  0  0  0  0  0  0  0  0  0  0  0
    6.8124    0.8112   23.9168 H   0  0  0  0  0  0  0  0  0  0  0  0
    7.2784    2.1697   22.4820 C   0  0  0  0  0  0  0  0  0  0  0  0
    7.4657    2.1273   21.3991 H   0  0  0  0  0  0  0  0  0  0  0  0
    8.5654    2.6001   23.2018 C   0  0  0  0  0  0  0  0  0  0  0  0
    8.5043    2.2771   24.2532 H   0  0  0  0  0  0  0  0  0  0  0  0
    9.4612    2.1393   22.7652 H   0  0  0  0  0  0  0  0  0  0  0  0
    8.5729    4.1412   23.1101 C   0  0  0  0  0  0  0  0  0  0  0  0
    8.9499    4.5838   24.0375 H   0  0  0  0  0  0  0  0  0  0  0  0
    9.2293    4.4777   22.3011 H   0  0  0  0  0  0  0  0  0  0  0  0
    7.1071    4.5737   22.8198 C   0  0  0  0  0  0  0  0  0  0  0  0
    6.7147    5.2453   23.5876 H   0  0  0  0  0  0  0  0  0  0  0  0
    7.0501    5.1111   21.8653 H   0  0  0  0  0  0  0  0  0  0  0  0
    6.2843    3.2751   22.7847 C   0  0  0  0  0  0  0  0  0  0  0  0
    5.8368    3.0638   23.7653 H   0  0  0  0  0  0  0  0  0  0  0  0
    5.4756    3.2754   22.0448 H   0  0  0  0  0  0  0  0  0  0  0  0
    9.0007   -1.3722   24.2048 C   0  0  0  0  0  0  0  0  0  0  0  0
    8.3087   -1.6595   25.0038 H   0  0  0  0  0  0  0  0  0  0  0  0
    9.5585   -0.4979   24.5634 H   0  0  0  0  0  0  0  0  0  0  0  0
    9.9681   -2.5251   23.8057 C   0  0  0  0  0  0  0  0  0  0  0  0
    9.9016   -3.3616   24.5028 H   0  0  0  0  0  0  0  0  0  0  0  0
   10.9925   -2.1746   23.7931 H   0  0  0  0  0  0  0  0  0  0  0  0
    9.6171   -2.9336   22.3462 C   0  0  0  0  0  0  0  0  0  0  0  0
   10.4896   -2.8707   21.6907 H   0  0  0  0  0  0  0  0  0  0  0  0
    9.1415   -3.9132   22.2608 H   0  0  0  0  0  0  0  0  0  0  0  0
    5.4224    0.6645   20.0810 C   0  0  0  0  0  0  0  0  0  0  0  0
    5.0077    0.6843   21.0915 H   0  0  0  0  0  0  0  0  0  0  0  0
    4.7954    1.3198   19.0244 C   0  0  0  0  0  0  0  0  0  0  0  0
    3.8649    1.8545   19.1602 H   0  0  0  0  0  0  0  0  0  0  0  0
  1  2  1  0
  2  3  2  0
  3  4  1  0
  4  5  1  0
  4  6  2  0
  6  7  1  0
  7  8  2  0
  8  9  1  0
  9 10  1  0
 10 11  2  0
 11 12  1  0
 12 13  1  0
 12 14  1  0
 14 15  1  0
 14 16  1  0
 16 17  1  0
 16 18  1  0
 16 19  1  0
 19 20  1  0
 19 21  1  0
 19 22  1  0
 22 23  1  0
 22 24  1  0
 22 25  1  0
 25 26  1  0
 25 27  1  0
 10 28  1  0
 28 29  1  0
 28 30  1  0
 28 31  1  0
 31 32  1  0
 31 33  1  0
 31 34  1  0
 34 35  1  0
 34 36  1  0
  6 37  1  0
 37 38  1  0
 37 39  2  0
 39 40  1  0
 39  2  1  0
 11  7  1  0
 25 14  1  0
 34  9  1  0
M  END
>  <cnnaffinity>  (1) 
-5.55748

>  <filename>  (1) 
c1cncc(-c2nn3c(c2NC2CCCC2)CCC3)c1

$$$$
