
     RDKit          3D

 29 32  0  0  0  0  0  0  0  0999 V2000
    4.9221    1.7718   17.0042 H   0  0  0  0  0  0  0  0  0  0  0  0
    5.4094    1.2857   17.8473 C   0  0  0  0  0  0  0  0  0  0  0  0
    6.5747    0.6688   17.5956 N   0  0  0  0  0  0  0  0  0  0  0  0
    7.1817    0.0536   18.6152 C   0  0  0  0  0  0  0  0  0  0  0  0
    8.1270   -0.4333   18.3842 H   0  0  0  0  0  0  0  0  0  0  0  0
    6.6475    0.0152   19.9110 C   0  0  0  0  0  0  0  0  0  0  0  0
    7.3613   -0.6887   20.9692 C   0  0  0  0  0  0  0  0  0  0  0  0
    8.5461   -1.3257   20.7558 N   0  0  0  0  0  0  0  0  0  0  0  0
    8.8003   -1.8156   21.9523 C   0  0  0  0  0  0  0  0  0  0  0  0
    9.9956   -2.8188   22.7213 S   0  0  0  0  0  0  0  0  0  0  0  0
    9.0855   -2.7661   24.1981 C   0  0  0  0  0  0  0  0  0  0  0  0
    9.4608   -3.2867   25.0711 H   0  0  0  0  0  0  0  0  0  0  0  0
    7.9656   -2.0188   24.1125 C   0  0  0  0  0  0  0  0  0  0  0  0
    6.9800   -1.7659   25.1853 C   0  0  0  0  0  0  0  0  0  0  0  0
    6.7747   -2.7354   26.1790 C   0  0  0  0  0  0  0  0  0  0  0  0
    7.3084   -3.6799   26.1644 H   0  0  0  0  0  0  0  0  0  0  0  0
    5.8500   -2.4808   27.1895 C   0  0  0  0  0  0  0  0  0  0  0  0
    5.6850   -3.2267   27.9611 H   0  0  0  0  0  0  0  0  0  0  0  0
    5.1365   -1.3520   27.2789 N   0  0  0  0  0  0  0  0  0  0  0  0
    5.3458   -0.4294   26.3288 C   0  0  0  0  0  0  0  0  0  0  0  0
    4.7646    0.4830   26.4074 H   0  0  0  0  0  0  0  0  0  0  0  0
    6.2449   -0.5760   25.2756 C   0  0  0  0  0  0  0  0  0  0  0  0
    6.3651    0.2074   24.5362 H   0  0  0  0  0  0  0  0  0  0  0  0
    7.8359   -1.4807   22.8315 N   0  0  0  0  0  0  0  0  0  0  0  0
    6.8810   -0.7504   22.2081 N   0  0  0  0  0  0  0  0  0  0  0  0
    5.4279    0.6579   20.1671 C   0  0  0  0  0  0  0  0  0  0  0  0
    5.0005    0.6329   21.1737 H   0  0  0  0  0  0  0  0  0  0  0  0
    4.8045    1.3102   19.1101 C   0  0  0  0  0  0  0  0  0  0  0  0
    3.8738    1.8434   19.2610 H   0  0  0  0  0  0  0  0  0  0  0  0
  1  2  1  0
  2  3  2  0
  3  4  1  0
  4  5  1  0
  4  6  2  0
  6  7  1  0
  7  8  1  0
  8  9  2  0
  9 10  1  0
 10 11  1  0
 11 12  1  0
 11 13  2  0
 13 14  1  0
 14 15  2  0
 15 16  1  0
 15 17  1  0
 17 18  1  0
 17 19  2  0
 19 20  1  0
 20 21  1  0
 20 22  2  0
 22 23  1  0
 13 24  1  0
 24 25  1  0
  6 26  1  0
 26 27  1  0
 26 28  2  0
 28 29  1  0
 28  2  1  0
 25  7  2  0
 24  9  1  0
 22 14  1  0
M  END
>  <cnnaffinity>  (1) 
-5.43317

>  <filename>  (1) 
c1cncc(-c2nc3scc(-c4ccncc4)n3n2)c1

$$$$
