
     RDKit          3D

 42 44  0  0  0  0  0  0  0  0999 V2000
    5.0507    1.8782   17.0458 H   0  0  0  0  0  0  0  0  0  0  0  0
    5.5127    1.3136   17.8531 C   0  0  0  0  0  0  0  0  0  0  0  0
    6.6839    0.7225   17.5716 N   0  0  0  0  0  0  0  0  0  0  0  0
    7.2848    0.0169   18.5410 C   0  0  0  0  0  0  0  0  0  0  0  0
    8.2442   -0.4319   18.2744 H   0  0  0  0  0  0  0  0  0  0  0  0
    6.7453   -0.1828   19.8416 C   0  0  0  0  0  0  0  0  0  0  0  0
    7.4101   -0.9755   20.7997 N   0  0  0  0  0  0  0  0  0  0  0  0
    6.6937   -1.6583   21.8717 C   0  0  0  0  0  0  0  0  0  0  0  0
    6.1203   -2.5106   21.4799 H   0  0  0  0  0  0  0  0  0  0  0  0
    5.9810   -0.9832   22.3548 H   0  0  0  0  0  0  0  0  0  0  0  0
    7.7849   -2.0990   22.8674 C   0  0  0  0  0  0  0  0  0  0  0  0
    7.6646   -3.1354   23.2004 H   0  0  0  0  0  0  0  0  0  0  0  0
    7.7402   -1.4730   23.7668 H   0  0  0  0  0  0  0  0  0  0  0  0
    9.1017   -1.8678   22.1134 C   0  0  0  0  0  0  0  0  0  0  0  0
    9.3558   -2.7355   21.4961 H   0  0  0  0  0  0  0  0  0  0  0  0
    9.9466   -1.6771   22.7845 H   0  0  0  0  0  0  0  0  0  0  0  0
    8.7949   -0.6760   21.1938 C   0  0  2  0  0  0  0  0  0  0  0  0
    9.4209   -0.7037   20.2911 H   0  0  0  0  0  0  0  0  0  0  0  0
    8.9700    0.7113   21.8753 C   0  0  0  0  0  0  0  0  0  0  0  0
    8.8020    0.6106   22.9563 H   0  0  0  0  0  0  0  0  0  0  0  0
    8.1634    1.3605   21.5116 H   0  0  0  0  0  0  0  0  0  0  0  0
   10.3115    1.4037   21.5508 C   0  0  0  0  0  0  0  0  0  0  0  0
   10.3186    1.4699   20.4534 H   0  0  0  0  0  0  0  0  0  0  0  0
   11.5781    0.6293   21.9616 C   0  0  0  0  0  0  0  0  0  0  0  0
   11.5199   -0.4234   21.6560 H   0  0  0  0  0  0  0  0  0  0  0  0
   12.4096    1.0805   21.4056 H   0  0  0  0  0  0  0  0  0  0  0  0
   11.9119    0.7623   23.4514 C   0  0  0  0  0  0  0  0  0  0  0  0
   12.7993    0.1665   23.6971 H   0  0  0  0  0  0  0  0  0  0  0  0
   11.0745    0.3724   24.0501 H   0  0  0  0  0  0  0  0  0  0  0  0
   12.1614    2.2290   23.8272 C   0  0  0  0  0  0  0  0  0  0  0  0
   13.0745    2.5928   23.3288 H   0  0  0  0  0  0  0  0  0  0  0  0
   12.3641    2.2991   24.8977 H   0  0  0  0  0  0  0  0  0  0  0  0
   10.9718    3.1308   23.4598 C   0  0  0  0  0  0  0  0  0  0  0  0
   11.2894    4.1805   23.5125 H   0  0  0  0  0  0  0  0  0  0  0  0
   10.1720    3.0311   24.2057 H   0  0  0  0  0  0  0  0  0  0  0  0
   10.4489    2.8694   22.0323 C   0  0  0  0  0  0  0  0  0  0  0  0
   11.1918    3.3148   21.3566 H   0  0  0  0  0  0  0  0  0  0  0  0
    9.5053    3.4064   21.8716 H   0  0  0  0  0  0  0  0  0  0  0  0
    5.5218    0.4705   20.1106 C   0  0  0  0  0  0  0  0  0  0  0  0
    5.0884    0.4040   21.1062 H   0  0  0  0  0  0  0  0  0  0  0  0
    4.9007    1.2234   19.1075 C   0  0  0  0  0  0  0  0  0  0  0  0
    3.9666    1.7475   19.2883 H   0  0  0  0  0  0  0  0  0  0  0  0
  1  2  1  0
  2  3  2  0
  3  4  1  0
  4  5  1  0
  4  6  2  0
  6  7  1  0
  7  8  1  0
  8  9  1  0
  8 10  1  0
  8 11  1  0
 11 12  1  0
 11 13  1  0
 11 14  1  0
 14 15  1  0
 14 16  1  0
 14 17  1  0
 17 18  1  6
 17 19  1  0
 19 20  1  0
 19 21  1  0
 19 22  1  0
 22 23  1  0
 22 24  1  0
 24 25  1  0
 24 26  1  0
 24 27  1  0
 27 28  1  0
 27 29  1  0
 27 30  1  0
 30 31  1  0
 30 32  1  0
 30 33  1  0
 33 34  1  0
 33 35  1  0
 33 36  1  0
 36 37  1  0
 36 38  1  0
  6 39  1  0
 39 40  1  0
 39 41  2  0
 41 42  1  0
 41  2  1  0
 17  7  1  0
 36 22  1  0
M  END
>  <cnnaffinity>  (1) 
-5.30963

>  <filename>  (1) 
c1cncc(N2CCC[C@@H]2CC2CCCCC2)c1

$$$$
