
     RDKit          3D

 42 46  0  0  0  0  0  0  0  0999 V2000
    4.9404    1.8317   16.9388 H   0  0  0  0  0  0  0  0  0  0  0  0
    5.4080    1.3334   17.7856 C   0  0  0  0  0  0  0  0  0  0  0  0
    6.5734    0.7149   17.5472 N   0  0  0  0  0  0  0  0  0  0  0  0
    7.1721    0.1052   18.5887 C   0  0  0  0  0  0  0  0  0  0  0  0
    8.1130   -0.3852   18.3334 H   0  0  0  0  0  0  0  0  0  0  0  0
    6.6610    0.0528   19.9020 C   0  0  0  0  0  0  0  0  0  0  0  0
    7.2908   -0.7984   21.0404 C   0  0  2  0  0  0  0  0  0  0  0  0
    6.5470   -2.1685   21.1420 C   0  0  0  0  0  0  0  0  0  0  0  0
    6.1970   -2.8124   19.9443 C   0  0  0  0  0  0  0  0  0  0  0  0
    6.3724   -2.3074   18.9962 H   0  0  0  0  0  0  0  0  0  0  0  0
    5.6542   -4.1080   19.9044 C   0  0  0  0  0  0  0  0  0  0  0  0
    5.4692   -4.5785   18.9457 H   0  0  0  0  0  0  0  0  0  0  0  0
    5.3373   -4.7915   21.0663 C   0  0  0  0  0  0  0  0  0  0  0  0
    4.8882   -5.7828   21.0523 H   0  0  0  0  0  0  0  0  0  0  0  0
    5.5801   -4.1280   22.2751 C   0  0  0  0  0  0  0  0  0  0  0  0
    6.2491   -2.8756   22.3552 C   0  0  0  0  0  0  0  0  0  0  0  0
    6.4158   -2.6566   23.7803 C   0  0  0  0  0  0  0  0  0  0  0  0
    6.9698   -1.8799   24.2826 H   0  0  0  0  0  0  0  0  0  0  0  0
    5.7930   -3.6627   24.4513 C   0  0  0  0  0  0  0  0  0  0  0  0
    5.6479   -3.8099   25.5155 H   0  0  0  0  0  0  0  0  0  0  0  0
    5.2954   -4.5556   23.5421 N   0  0  0  0  0  0  0  0  0  0  0  0
    4.6932   -5.3352   23.7502 H   0  0  0  0  0  0  0  0  0  0  0  0
    7.3288    0.0152   22.3927 C   0  0  0  0  0  0  0  0  0  0  0  0
    7.0784    1.0709   22.2296 H   0  0  0  0  0  0  0  0  0  0  0  0
    6.5821   -0.3512   23.0947 H   0  0  0  0  0  0  0  0  0  0  0  0
    8.7788   -0.1197   22.9191 C   0  0  2  0  0  0  0  0  0  0  0  0
    8.8612    0.0012   24.0047 H   0  0  0  0  0  0  0  0  0  0  0  0
    9.6476    0.8588   22.1029 C   0  0  0  0  0  0  0  0  0  0  0  0
   10.6448    0.9806   22.5424 H   0  0  0  0  0  0  0  0  0  0  0  0
    9.1891    1.8511   22.0579 H   0  0  0  0  0  0  0  0  0  0  0  0
    9.7111    0.1420   20.7227 C   0  0  0  0  0  0  0  0  0  0  0  0
   10.7314   -0.2224   20.5760 H   0  0  0  0  0  0  0  0  0  0  0  0
    9.4154    0.7688   19.8775 H   0  0  0  0  0  0  0  0  0  0  0  0
    8.8301   -1.1120   20.9084 C   0  0  1  0  0  0  0  0  0  0  0  0
    9.0303   -1.8800   20.1553 H   0  0  0  0  0  0  0  0  0  0  0  0
    9.2371   -1.4718   22.3541 C   0  0  0  0  0  0  0  0  0  0  0  0
    8.7170   -2.3350   22.7774 H   0  0  0  0  0  0  0  0  0  0  0  0
   10.3165   -1.6522   22.4567 H   0  0  0  0  0  0  0  0  0  0  0  0
    5.4216    0.6917   20.1029 C   0  0  0  0  0  0  0  0  0  0  0  0
    4.9552    0.6747   21.0901 H   0  0  0  0  0  0  0  0  0  0  0  0
    4.7919    1.3428   19.0395 C   0  0  0  0  0  0  0  0  0  0  0  0
    3.8514    1.8660   19.1748 H   0  0  0  0  0  0  0  0  0  0  0  0
  1  2  1  0
  2  3  2  0
  3  4  1  0
  4  5  1  0
  4  6  2  0
  7  6  1  6
  7  8  1  0
  8  9  2  0
  9 10  1  0
  9 11  1  0
 11 12  1  0
 11 13  2  0
 13 14  1  0
 13 15  1  0
 15 16  2  0
 16 17  1  0
 17 18  1  0
 17 19  2  0
 19 20  1  0
 19 21  1  0
 21 22  1  0
  7 23  1  0
 23 24  1  0
 23 25  1  0
 23 26  1  0
 26 27  1  1
 26 28  1  0
 28 29  1  0
 28 30  1  0
 28 31  1  0
 31 32  1  0
 31 33  1  0
 31 34  1  0
 34 35  1  6
 34 36  1  0
 36 37  1  0
 36 38  1  0
  6 39  1  0
 39 40  1  0
 39 41  2  0
 41 42  1  0
 41  2  1  0
 34  7  1  0
 16  8  1  0
 36 26  1  0
 21 15  1  0
M  END
>  <cnnaffinity>  (1) 
-4.92811

>  <filename>  (1) 
c1cncc([C@]2(c3cccc4[nH]ccc34)C[C@@H]3CC[C@H]2C3)c1

$$$$
