
     RDKit          3D

 32 35  0  0  0  0  0  0  0  0999 V2000
    5.0148    1.8415   16.9014 H   0  0  0  0  0  0  0  0  0  0  0  0
    5.3912    1.3086   17.7773 C   0  0  0  0  0  0  0  0  0  0  0  0
    6.5392    0.6363   17.6075 N   0  0  0  0  0  0  0  0  0  0  0  0
    7.0472    0.0177   18.6830 C   0  0  0  0  0  0  0  0  0  0  0  0
    7.9785   -0.5167   18.5206 H   0  0  0  0  0  0  0  0  0  0  0  0
    6.4571   -0.0036   19.9654 C   0  0  0  0  0  0  0  0  0  0  0  0
    7.2175   -0.6043   21.0835 C   0  0  0  0  0  0  0  0  0  0  0  0
    8.5735   -0.5349   21.3359 C   0  0  0  0  0  0  0  0  0  0  0  0
    8.7752   -1.1627   22.5577 C   0  0  0  0  0  0  0  0  0  0  0  0
    7.6595   -1.6334   23.0789 N   0  0  0  0  0  0  0  0  0  0  0  0
    6.7177   -1.2789   22.1676 N   0  0  0  0  0  0  0  0  0  0  0  0
    5.7628   -1.5540   22.3459 H   0  0  0  0  0  0  0  0  0  0  0  0
   10.2054   -1.1674   23.0018 C   0  0  0  0  0  0  0  0  0  0  0  0
   10.3289   -0.6965   23.9828 H   0  0  0  0  0  0  0  0  0  0  0  0
   10.6092   -2.1830   23.0853 H   0  0  0  0  0  0  0  0  0  0  0  0
   10.9307   -0.3591   21.8624 C   0  0  2  0  0  0  0  0  0  0  0  0
   11.7097   -0.9953   21.4353 H   0  0  0  0  0  0  0  0  0  0  0  0
   11.5736    0.9068   22.3774 C   0  0  0  0  0  0  0  0  0  0  0  0
   13.2843    1.1206   22.5200 S   0  0  0  0  0  0  0  0  0  0  0  0
   13.1008    2.7471   23.0484 C   0  0  0  0  0  0  0  0  0  0  0  0
   13.9854    3.3446   23.2136 H   0  0  0  0  0  0  0  0  0  0  0  0
   11.7911    3.0988   23.1707 C   0  0  0  0  0  0  0  0  0  0  0  0
   11.4456    4.0803   23.4802 H   0  0  0  0  0  0  0  0  0  0  0  0
   10.9205    2.0318   22.7971 C   0  0  0  0  0  0  0  0  0  0  0  0
    9.8407    2.1021   22.8333 H   0  0  0  0  0  0  0  0  0  0  0  0
    9.8600   -0.0678   20.7445 C   0  0  0  0  0  0  0  0  0  0  0  0
    9.8317    0.9847   20.4338 H   0  0  0  0  0  0  0  0  0  0  0  0
   10.0969   -0.6554   19.8541 H   0  0  0  0  0  0  0  0  0  0  0  0
    5.2303    0.6712   20.1094 C   0  0  0  0  0  0  0  0  0  0  0  0
    4.7152    0.7038   21.0728 H   0  0  0  0  0  0  0  0  0  0  0  0
    4.7049    1.3390   18.9984 C   0  0  0  0  0  0  0  0  0  0  0  0
    3.7896    1.9127   19.0646 H   0  0  0  0  0  0  0  0  0  0  0  0
  1  2  1  0
  2  3  2  0
  3  4  1  0
  4  5  1  0
  4  6  2  0
  6  7  1  0
  7  8  2  0
  8  9  1  0
  9 10  2  0
 10 11  1  0
 11 12  1  0
  9 13  1  0
 13 14  1  0
 13 15  1  0
 13 16  1  0
 16 17  1  6
 16 18  1  0
 18 19  1  0
 19 20  1  0
 20 21  1  0
 20 22  2  0
 22 23  1  0
 22 24  1  0
 24 25  1  0
 16 26  1  0
 26 27  1  0
 26 28  1  0
  6 29  1  0
 29 30  1  0
 29 31  2  0
 31 32  1  0
 31  2  1  0
 11  7  1  0
 24 18  2  0
 26  8  1  0
M  END
>  <cnnaffinity>  (1) 
-5.58068

>  <filename>  (1) 
c1cncc(-c2[nH]nc3c2C[C@@H](c2cccs2)C3)c1

$$$$
