
     RDKit          3D

 39 41  0  0  0  0  0  0  0  0999 V2000
    4.9214    1.8021   16.9640 H   0  0  0  0  0  0  0  0  0  0  0  0
    5.3878    1.3055   17.8110 C   0  0  0  0  0  0  0  0  0  0  0  0
    6.5523    0.6870   17.5663 N   0  0  0  0  0  0  0  0  0  0  0  0
    7.1588    0.0968   18.6043 C   0  0  0  0  0  0  0  0  0  0  0  0
    8.1092   -0.3861   18.3755 H   0  0  0  0  0  0  0  0  0  0  0  0
    6.6652    0.0840   19.9311 C   0  0  0  0  0  0  0  0  0  0  0  0
    7.4369   -0.5923   21.0122 C   0  0  0  0  0  0  0  0  0  0  0  0
    8.3035   -1.6764   21.0275 C   0  0  0  0  0  0  0  0  0  0  0  0
    8.6937   -2.2818   20.2326 H   0  0  0  0  0  0  0  0  0  0  0  0
    8.6625   -1.9733   22.2917 N   0  0  0  0  0  0  0  0  0  0  0  0
    8.0903   -1.1330   23.0983 N   0  0  0  0  0  0  0  0  0  0  0  0
    7.3845   -0.2971   22.3441 N   0  0  0  0  0  0  0  0  0  0  0  0
    6.6535    0.7177   22.8935 O   0  0  0  0  0  0  0  0  0  0  0  0
    7.0829    1.1381   24.2073 C   0  0  0  0  0  0  0  0  0  0  0  0
    7.0044    0.2959   24.8954 H   0  0  0  0  0  0  0  0  0  0  0  0
    6.3252    1.8738   24.4647 H   0  0  0  0  0  0  0  0  0  0  0  0
    8.4863    1.7181   24.2927 C   0  0  0  0  0  0  0  0  0  0  0  0
    8.6543    1.9990   25.3468 H   0  0  0  0  0  0  0  0  0  0  0  0
    9.1861    0.9011   24.0886 H   0  0  0  0  0  0  0  0  0  0  0  0
    8.7295    2.8090   23.3618 N   0  0  0  0  0  0  0  0  0  0  0  0
    8.3538    4.1457   23.8276 C   0  0  0  0  0  0  0  0  0  0  0  0
    8.2334    4.7798   22.9366 H   0  0  0  0  0  0  0  0  0  0  0  0
    7.3655    4.0945   24.3010 H   0  0  0  0  0  0  0  0  0  0  0  0
    9.3873    4.7823   24.7793 C   0  0  0  0  0  0  0  0  0  0  0  0
    9.0745    5.8014   25.0324 H   0  0  0  0  0  0  0  0  0  0  0  0
    9.3932    4.2128   25.7193 H   0  0  0  0  0  0  0  0  0  0  0  0
   10.7983    4.7749   24.1628 C   0  0  0  0  0  0  0  0  0  0  0  0
   10.8376    5.4850   23.3230 H   0  0  0  0  0  0  0  0  0  0  0  0
   11.5379    5.1254   24.8922 H   0  0  0  0  0  0  0  0  0  0  0  0
   11.1592    3.3663   23.6577 C   0  0  0  0  0  0  0  0  0  0  0  0
   12.1197    3.3670   23.1279 H   0  0  0  0  0  0  0  0  0  0  0  0
   11.2678    2.6828   24.5111 H   0  0  0  0  0  0  0  0  0  0  0  0
   10.0531    2.8176   22.7400 C   0  0  0  0  0  0  0  0  0  0  0  0
    9.9801    3.4381   21.8431 H   0  0  0  0  0  0  0  0  0  0  0  0
   10.2913    1.8087   22.3792 H   0  0  0  0  0  0  0  0  0  0  0  0
    5.4193    0.7107   20.1465 C   0  0  0  0  0  0  0  0  0  0  0  0
    4.9715    0.7257   21.1406 H   0  0  0  0  0  0  0  0  0  0  0  0
    4.7802    1.3302   19.0704 C   0  0  0  0  0  0  0  0  0  0  0  0
    3.8328    1.8441   19.1955 H   0  0  0  0  0  0  0  0  0  0  0  0
  1  2  1  0
  2  3  2  0
  3  4  1  0
  4  5  1  0
  4  6  2  0
  6  7  1  0
  7  8  2  0
  8  9  1  0
  8 10  1  0
 10 11  2  0
 11 12  1  0
 12 13  1  0
 13 14  1  0
 14 15  1  0
 14 16  1  0
 14 17  1  0
 17 18  1  0
 17 19  1  0
 17 20  1  0
 20 21  1  0
 21 22  1  0
 21 23  1  0
 21 24  1  0
 24 25  1  0
 24 26  1  0
 24 27  1  0
 27 28  1  0
 27 29  1  0
 27 30  1  0
 30 31  1  0
 30 32  1  0
 30 33  1  0
 33 34  1  0
 33 35  1  0
  6 36  1  0
 36 37  1  0
 36 38  2  0
 38 39  1  0
 38  2  1  0
 12  7  1  0
 33 20  1  0
M  END
>  <cnnaffinity>  (1) 
-4.95927

>  <filename>  (1) 
c1cncc(-c2cnnn2OCCN2CCCCC2)c1

$$$$
