
     RDKit          3D

 35 37  0  0  0  0  0  0  0  0999 V2000
    4.9169    1.7885   16.9939 H   0  0  0  0  0  0  0  0  0  0  0  0
    5.3967    1.2965   17.8376 C   0  0  0  0  0  0  0  0  0  0  0  0
    6.5600    0.6802   17.5728 N   0  0  0  0  0  0  0  0  0  0  0  0
    7.1697    0.0563   18.5918 C   0  0  0  0  0  0  0  0  0  0  0  0
    8.1196   -0.4281   18.3760 H   0  0  0  0  0  0  0  0  0  0  0  0
    6.6606   -0.0227   19.9143 C   0  0  0  0  0  0  0  0  0  0  0  0
    7.3285   -0.7285   20.9222 N   0  0  0  0  0  0  0  0  0  0  0  0
    6.7938   -1.1121   21.6945 H   0  0  0  0  0  0  0  0  0  0  0  0
    8.7130   -0.6944   21.1386 C   0  0  0  0  0  0  0  0  0  0  0  0
    9.6954    0.1996   20.6613 C   0  0  0  0  0  0  0  0  0  0  0  0
    9.5340    1.0209   19.9857 H   0  0  0  0  0  0  0  0  0  0  0  0
   10.9062   -0.0781   21.1369 N   0  0  0  0  0  0  0  0  0  0  0  0
   10.7007   -1.1559   21.9058 N   0  0  0  0  0  0  0  0  0  0  0  0
   11.4837   -1.5315   22.4171 H   0  0  0  0  0  0  0  0  0  0  0  0
    9.4059   -1.5631   21.9506 C   0  0  0  0  0  0  0  0  0  0  0  0
    8.8800   -2.6387   22.8280 C   0  0  0  0  0  0  0  0  0  0  0  0
    8.1805   -3.2530   22.2445 H   0  0  0  0  0  0  0  0  0  0  0  0
    9.7057   -3.3193   23.1280 H   0  0  0  0  0  0  0  0  0  0  0  0
    8.1829   -2.0935   23.9944 N   0  0  0  0  0  0  0  0  0  0  0  0
    7.4359   -3.1178   24.7221 C   0  0  0  0  0  0  0  0  0  0  0  0
    6.4692   -3.2971   24.2341 H   0  0  0  0  0  0  0  0  0  0  0  0
    7.9776   -4.0823   24.7331 H   0  0  0  0  0  0  0  0  0  0  0  0
    7.2795   -2.5781   26.1503 C   0  0  0  0  0  0  0  0  0  0  0  0
    7.3747   -3.3901   26.8755 H   0  0  0  0  0  0  0  0  0  0  0  0
    6.2912   -2.1352   26.2930 H   0  0  0  0  0  0  0  0  0  0  0  0
    8.3849   -1.5125   26.3119 C   0  0  0  0  0  0  0  0  0  0  0  0
    9.0947   -1.7669   27.1041 H   0  0  0  0  0  0  0  0  0  0  0  0
    7.9572   -0.5427   26.5785 H   0  0  0  0  0  0  0  0  0  0  0  0
    9.0953   -1.4461   24.9514 C   0  0  0  0  0  0  0  0  0  0  0  0
    9.3182   -0.4164   24.6495 H   0  0  0  0  0  0  0  0  0  0  0  0
   10.0628   -1.9751   25.0011 H   0  0  0  0  0  0  0  0  0  0  0  0
    5.4408    0.6263   20.1655 C   0  0  0  0  0  0  0  0  0  0  0  0
    5.0199    0.6223   21.1716 H   0  0  0  0  0  0  0  0  0  0  0  0
    4.8137    1.3028   19.1092 C   0  0  0  0  0  0  0  0  0  0  0  0
    3.8852    1.8355   19.2634 H   0  0  0  0  0  0  0  0  0  0  0  0
  1  2  1  0
  2  3  2  0
  3  4  1  0
  4  5  1  0
  4  6  2  0
  6  7  1  0
  7  8  1  0
  7  9  1  0
  9 10  1  0
 10 11  1  0
 10 12  2  0
 12 13  1  0
 13 14  1  0
 13 15  1  0
 15 16  1  0
 16 17  1  0
 16 18  1  0
 16 19  1  0
 19 20  1  0
 20 21  1  0
 20 22  1  0
 20 23  1  0
 23 24  1  0
 23 25  1  0
 23 26  1  0
 26 27  1  0
 26 28  1  0
 26 29  1  0
 29 30  1  0
 29 31  1  0
  6 32  1  0
 32 33  1  0
 32 34  2  0
 34 35  1  0
 34  2  1  0
 15  9  2  0
 29 19  1  0
M  END
>  <cnnaffinity>  (1) 
-5.41128

>  <filename>  (1) 
c1cncc(Nc2cn[nH]c2CN2CCCC2)c1

$$$$
