
     RDKit          3D

 35 38  0  0  0  0  0  0  0  0999 V2000
    5.0085    1.8921   16.8308 H   0  0  0  0  0  0  0  0  0  0  0  0
    5.4320    1.3473   17.6710 C   0  0  0  0  0  0  0  0  0  0  0  0
    6.5838    0.6928   17.4350 N   0  0  0  0  0  0  0  0  0  0  0  0
    7.1307    0.0213   18.4576 C   0  0  0  0  0  0  0  0  0  0  0  0
    8.0737   -0.4876   18.2580 H   0  0  0  0  0  0  0  0  0  0  0  0
    6.5741   -0.0474   19.7550 C   0  0  0  0  0  0  0  0  0  0  0  0
    7.1856   -0.7695   20.7826 N   0  0  0  0  0  0  0  0  0  0  0  0
    7.6320   -1.6559   20.5808 H   0  0  0  0  0  0  0  0  0  0  0  0
    7.2132   -0.4175   22.1319 C   0  0  0  0  0  0  0  0  0  0  0  0
    7.2209    0.8324   22.8057 C   0  0  0  0  0  0  0  0  0  0  0  0
    7.1502    1.8243   22.3835 H   0  0  0  0  0  0  0  0  0  0  0  0
    7.3522    0.6773   24.1228 N   0  0  0  0  0  0  0  0  0  0  0  0
    7.4264   -0.6533   24.2986 N   0  0  0  0  0  0  0  0  0  0  0  0
    7.5178   -1.0427   25.2280 H   0  0  0  0  0  0  0  0  0  0  0  0
    7.3689   -1.3540   23.1355 C   0  0  0  0  0  0  0  0  0  0  0  0
    7.3653   -2.8073   23.0047 C   0  0  0  0  0  0  0  0  0  0  0  0
    6.2996   -3.4123   22.3606 C   0  0  0  0  0  0  0  0  0  0  0  0
    5.5313   -2.7891   21.9093 H   0  0  0  0  0  0  0  0  0  0  0  0
    6.1612   -4.8199   22.3320 C   0  0  0  0  0  0  0  0  0  0  0  0
    5.3255   -5.2765   21.8104 H   0  0  0  0  0  0  0  0  0  0  0  0
    7.0905   -5.6155   22.9623 C   0  0  0  0  0  0  0  0  0  0  0  0
    7.0256   -6.6985   22.9784 H   0  0  0  0  0  0  0  0  0  0  0  0
    8.2116   -5.0346   23.6157 C   0  0  0  0  0  0  0  0  0  0  0  0
    9.0647   -5.8825   24.2728 N   0  0  0  0  0  0  0  0  0  0  0  0
   10.1649   -5.3716   24.7741 C   0  0  0  0  0  0  0  0  0  0  0  0
   10.8038   -6.0704   25.3101 H   0  0  0  0  0  0  0  0  0  0  0  0
   10.5452   -4.0076   24.6253 C   0  0  0  0  0  0  0  0  0  0  0  0
   11.5122   -3.6653   24.9575 H   0  0  0  0  0  0  0  0  0  0  0  0
    9.6673   -3.1285   24.0405 C   0  0  0  0  0  0  0  0  0  0  0  0
    9.9167   -2.0695   23.9536 H   0  0  0  0  0  0  0  0  0  0  0  0
    8.4134   -3.6170   23.5607 C   0  0  0  0  0  0  0  0  0  0  0  0
    5.3724    0.6413   19.9795 C   0  0  0  0  0  0  0  0  0  0  0  0
    4.9325    0.6116   20.9777 H   0  0  0  0  0  0  0  0  0  0  0  0
    4.7962    1.3452   18.9181 C   0  0  0  0  0  0  0  0  0  0  0  0
    3.8789    1.9073   19.0543 H   0  0  0  0  0  0  0  0  0  0  0  0
  1  2  1  0
  2  3  2  0
  3  4  1  0
  4  5  1  0
  4  6  2  0
  6  7  1  0
  7  8  1  0
  7  9  1  0
  9 10  1  0
 10 11  1  0
 10 12  2  0
 12 13  1  0
 13 14  1  0
 13 15  1  0
 15 16  1  0
 16 17  2  0
 17 18  1  0
 17 19  1  0
 19 20  1  0
 19 21  2  0
 21 22  1  0
 21 23  1  0
 23 24  2  0
 24 25  1  0
 25 26  1  0
 25 27  2  0
 27 28  1  0
 27 29  1  0
 29 30  1  0
 29 31  2  0
  6 32  1  0
 32 33  1  0
 32 34  2  0
 34 35  1  0
 34  2  1  0
 15  9  2  0
 31 16  1  0
 31 23  1  0
M  END
>  <cnnaffinity>  (1) 
-5.90212

>  <filename>  (1) 
c1cncc(Nc2cn[nH]c2-c2cccc3ncccc23)c1

$$$$
