
     RDKit          3D

 31 33  0  0  0  0  0  0  0  0999 V2000
    8.9848   -3.0567   22.3171 H   0  0  0  0  0  0  0  0  0  0  0  0
    8.4505   -2.1826   21.9666 C   0  0  0  0  0  0  0  0  0  0  0  0
    8.0121   -1.9155   20.7871 N   0  0  0  0  0  0  0  0  0  0  0  0
    7.3736   -0.6837   20.9368 C   0  0  0  0  0  0  0  0  0  0  0  0
    6.6407   -0.0024   19.8741 C   0  0  0  0  0  0  0  0  0  0  0  0
    7.1507    0.0331   18.5647 C   0  0  0  0  0  0  0  0  0  0  0  0
    8.1010   -0.4445   18.3406 H   0  0  0  0  0  0  0  0  0  0  0  0
    6.5497    0.6690   17.5542 N   0  0  0  0  0  0  0  0  0  0  0  0
    5.3931    1.3027   17.8150 C   0  0  0  0  0  0  0  0  0  0  0  0
    4.9359    1.8155   16.9705 H   0  0  0  0  0  0  0  0  0  0  0  0
    4.7907    1.3202   19.0789 C   0  0  0  0  0  0  0  0  0  0  0  0
    3.8583    1.8556   19.2216 H   0  0  0  0  0  0  0  0  0  0  0  0
    5.4261    0.6616   20.1286 C   0  0  0  0  0  0  0  0  0  0  0  0
    5.0078    0.6406   21.1373 H   0  0  0  0  0  0  0  0  0  0  0  0
    7.5332   -0.2661   22.2350 C   0  0  0  0  0  0  0  0  0  0  0  0
    7.1849    0.8652   22.8953 N   0  0  0  0  0  0  0  0  0  0  0  0
    6.8888    1.6237   22.3034 H   0  0  0  0  0  0  0  0  0  0  0  0
    7.4182    1.1108   24.2973 C   0  0  0  0  0  0  0  0  0  0  0  0
    7.0687    0.2717   24.9163 H   0  0  0  0  0  0  0  0  0  0  0  0
    6.8172    1.9871   24.5557 H   0  0  0  0  0  0  0  0  0  0  0  0
    8.8759    1.3547   24.5735 C   0  0  0  0  0  0  0  0  0  0  0  0
    9.5013    2.5275   24.1250 C   0  0  0  0  0  0  0  0  0  0  0  0
    8.9488    3.3297   23.6267 H   0  0  0  0  0  0  0  0  0  0  0  0
   10.8057    2.7744   24.2865 N   0  0  0  0  0  0  0  0  0  0  0  0
   11.5474    1.8398   24.8877 C   0  0  0  0  0  0  0  0  0  0  0  0
   12.6066    2.0699   24.9848 H   0  0  0  0  0  0  0  0  0  0  0  0
   11.0303    0.6344   25.3695 C   0  0  0  0  0  0  0  0  0  0  0  0
   11.6946   -0.0710   25.8517 H   0  0  0  0  0  0  0  0  0  0  0  0
    9.6687    0.3826   25.1983 C   0  0  0  0  0  0  0  0  0  0  0  0
    9.2163   -0.5628   25.5148 H   0  0  0  0  0  0  0  0  0  0  0  0
    8.1965   -1.2278   22.9129 O   0  0  0  0  0  0  0  0  0  0  0  0
  1  2  1  0
  2  3  2  0
  3  4  1  0
  4  5  1  0
  5  6  2  0
  6  7  1  0
  6  8  1  0
  8  9  2  0
  9 10  1  0
  9 11  1  0
 11 12  1  0
 11 13  2  0
 13 14  1  0
  4 15  2  0
 15 16  1  0
 16 17  1  0
 16 18  1  0
 18 19  1  0
 18 20  1  0
 18 21  1  0
 21 22  2  0
 22 23  1  0
 22 24  1  0
 24 25  2  0
 25 26  1  0
 25 27  1  0
 27 28  1  0
 27 29  2  0
 29 30  1  0
 15 31  1  0
 31  2  1  0
 13  5  1  0
 29 21  1  0
M  END
>  <cnnaffinity>  (1) 
-5.08962

>  <filename>  (1) 
c1cncc(CNc2ocnc2-c2cccnc2)c1

$$$$
