
     RDKit          3D

 33 36  0  0  0  0  0  0  0  0999 V2000
    4.9205    1.7762   17.0038 H   0  0  0  0  0  0  0  0  0  0  0  0
    5.4090    1.2888   17.8472 C   0  0  0  0  0  0  0  0  0  0  0  0
    6.5752    0.6751   17.5907 N   0  0  0  0  0  0  0  0  0  0  0  0
    7.1711    0.0375   18.6025 C   0  0  0  0  0  0  0  0  0  0  0  0
    8.1226   -0.4379   18.3731 H   0  0  0  0  0  0  0  0  0  0  0  0
    6.6509   -0.0177   19.8990 C   0  0  0  0  0  0  0  0  0  0  0  0
    7.4047   -0.7404   20.9496 C   0  0  0  0  0  0  0  0  0  0  0  0
    7.7636   -2.0028   20.6653 N   0  0  0  0  0  0  0  0  0  0  0  0
    8.3585   -2.7194   21.6225 C   0  0  0  0  0  0  0  0  0  0  0  0
    8.6231   -3.7390   21.3649 H   0  0  0  0  0  0  0  0  0  0  0  0
    8.6642   -2.2224   22.8925 C   0  0  0  0  0  0  0  0  0  0  0  0
    9.1689   -2.8409   23.6224 H   0  0  0  0  0  0  0  0  0  0  0  0
    8.3262   -0.9109   23.1851 C   0  0  0  0  0  0  0  0  0  0  0  0
    8.5556   -0.4625   24.1532 H   0  0  0  0  0  0  0  0  0  0  0  0
    7.6968   -0.1337   22.1983 C   0  0  0  0  0  0  0  0  0  0  0  0
    7.4128    1.2945   22.4681 C   0  0  0  0  0  0  0  0  0  0  0  0
    7.8824    2.3208   21.7222 C   0  0  0  0  0  0  0  0  0  0  0  0
    8.4995    2.2296   20.8360 H   0  0  0  0  0  0  0  0  0  0  0  0
    7.4194    3.8825   22.3068 S   0  0  0  0  0  0  0  0  0  0  0  0
    6.5272    3.1597   23.6208 C   0  0  0  0  0  0  0  0  0  0  0  0
    5.7867    3.8118   24.6225 C   0  0  0  0  0  0  0  0  0  0  0  0
    5.7323    4.8963   24.6420 H   0  0  0  0  0  0  0  0  0  0  0  0
    5.1254    3.0397   25.5756 C   0  0  0  0  0  0  0  0  0  0  0  0
    4.5473    3.5270   26.3576 H   0  0  0  0  0  0  0  0  0  0  0  0
    5.1888    1.6278   25.5398 C   0  0  0  0  0  0  0  0  0  0  0  0
    4.6629    1.0380   26.2864 H   0  0  0  0  0  0  0  0  0  0  0  0
    5.9200    0.9833   24.5523 C   0  0  0  0  0  0  0  0  0  0  0  0
    5.9627   -0.1039   24.4979 H   0  0  0  0  0  0  0  0  0  0  0  0
    6.6122    1.7515   23.5852 C   0  0  0  0  0  0  0  0  0  0  0  0
    5.4379    0.6398   20.1612 C   0  0  0  0  0  0  0  0  0  0  0  0
    5.0103    0.6392   21.1691 H   0  0  0  0  0  0  0  0  0  0  0  0
    4.8071    1.3027   19.1106 C   0  0  0  0  0  0  0  0  0  0  0  0
    3.8771    1.8414   19.2603 H   0  0  0  0  0  0  0  0  0  0  0  0
  1  2  1  0
  2  3  2  0
  3  4  1  0
  4  5  1  0
  4  6  2  0
  6  7  1  0
  7  8  2  0
  8  9  1  0
  9 10  1  0
  9 11  2  0
 11 12  1  0
 11 13  1  0
 13 14  1  0
 13 15  2  0
 15 16  1  0
 16 17  2  0
 17 18  1  0
 17 19  1  0
 19 20  1  0
 20 21  2  0
 21 22  1  0
 21 23  1  0
 23 24  1  0
 23 25  2  0
 25 26  1  0
 25 27  1  0
 27 28  1  0
 27 29  2  0
  6 30  1  0
 30 31  1  0
 30 32  2  0
 32 33  1  0
 32  2  1  0
 15  7  1  0
 29 16  1  0
 29 20  1  0
M  END
>  <cnnaffinity>  (1) 
-5.36686

>  <filename>  (1) 
c1cncc(-c2ncccc2-c2csc3ccccc23)c1

$$$$
