
     RDKit          3D

 33 36  0  0  0  0  0  0  0  0999 V2000
    4.9165    1.7752   17.0055 H   0  0  0  0  0  0  0  0  0  0  0  0
    5.4058    1.2878   17.8477 C   0  0  0  0  0  0  0  0  0  0  0  0
    6.5679    0.6750   17.5852 N   0  0  0  0  0  0  0  0  0  0  0  0
    7.1802    0.0584   18.5993 C   0  0  0  0  0  0  0  0  0  0  0  0
    8.1217   -0.4265   18.3710 H   0  0  0  0  0  0  0  0  0  0  0  0
    6.6776   -0.0049   19.9123 C   0  0  0  0  0  0  0  0  0  0  0  0
    7.4415   -0.7385   20.9693 C   0  0  0  0  0  0  0  0  0  0  0  0
    8.6065   -1.3208   20.6052 N   0  0  0  0  0  0  0  0  0  0  0  0
    9.3498   -1.9859   21.4938 N   0  0  0  0  0  0  0  0  0  0  0  0
    8.9359   -2.0866   22.7621 C   0  0  0  0  0  0  0  0  0  0  0  0
    9.5880   -2.6293   23.4311 H   0  0  0  0  0  0  0  0  0  0  0  0
    7.7384   -1.5126   23.2336 C   0  0  0  0  0  0  0  0  0  0  0  0
    7.3102   -1.6171   24.6456 C   0  0  0  0  0  0  0  0  0  0  0  0
    6.9088   -0.4799   25.3575 C   0  0  0  0  0  0  0  0  0  0  0  0
    6.9281    0.4854   24.8569 H   0  0  0  0  0  0  0  0  0  0  0  0
    6.5059   -0.5692   26.7068 C   0  0  0  0  0  0  0  0  0  0  0  0
    6.2025    0.3286   27.2352 H   0  0  0  0  0  0  0  0  0  0  0  0
    6.4738   -1.7947   27.3711 C   0  0  0  0  0  0  0  0  0  0  0  0
    6.1415   -1.8802   28.4022 H   0  0  0  0  0  0  0  0  0  0  0  0
    6.8672   -2.9320   26.6487 C   0  0  0  0  0  0  0  0  0  0  0  0
    7.2823   -2.8727   25.3009 C   0  0  0  0  0  0  0  0  0  0  0  0
    7.5566   -4.2223   24.8976 C   0  0  0  0  0  0  0  0  0  0  0  0
    7.8657   -4.5101   23.9022 H   0  0  0  0  0  0  0  0  0  0  0  0
    7.3231   -5.0313   25.9702 C   0  0  0  0  0  0  0  0  0  0  0  0
    7.4183   -6.1127   26.0513 H   0  0  0  0  0  0  0  0  0  0  0  0
    6.9117   -4.2496   27.0302 N   0  0  0  0  0  0  0  0  0  0  0  0
    6.6553   -4.5692   27.9468 H   0  0  0  0  0  0  0  0  0  0  0  0
    6.9837   -0.8193   22.3000 C   0  0  0  0  0  0  0  0  0  0  0  0
    6.0492   -0.3591   22.6084 H   0  0  0  0  0  0  0  0  0  0  0  0
    5.4549    0.6424   20.1641 C   0  0  0  0  0  0  0  0  0  0  0  0
    4.9929    0.6423   21.1535 H   0  0  0  0  0  0  0  0  0  0  0  0
    4.8147    1.3025   19.1156 C   0  0  0  0  0  0  0  0  0  0  0  0
    3.8803    1.8382   19.2661 H   0  0  0  0  0  0  0  0  0  0  0  0
  1  2  1  0
  2  3  2  0
  3  4  1  0
  4  5  1  0
  4  6  2  0
  6  7  1  0
  7  8  2  0
  8  9  1  0
  9 10  2  0
 10 11  1  0
 10 12  1  0
 12 13  1  0
 13 14  2  0
 14 15  1  0
 14 16  1  0
 16 17  1  0
 16 18  2  0
 18 19  1  0
 18 20  1  0
 20 21  2  0
 21 22  1  0
 22 23  1  0
 22 24  2  0
 24 25  1  0
 24 26  1  0
 26 27  1  0
 12 28  2  0
 28 29  1  0
  6 30  1  0
 30 31  1  0
 30 32  2  0
 32 33  1  0
 32  2  1  0
 28  7  1  0
 21 13  1  0
 26 20  1  0
M  END
>  <cnnaffinity>  (1) 
-5.32363

>  <filename>  (1) 
c1cncc(-c2cc(-c3cccc4[nH]ccc34)cnn2)c1

$$$$
