
     RDKit          3D

 39 42  0  0  0  0  0  0  0  0999 V2000
    4.9492    1.8509   16.9176 H   0  0  0  0  0  0  0  0  0  0  0  0
    5.3878    1.3101   17.7537 C   0  0  0  0  0  0  0  0  0  0  0  0
    6.5212    0.6390   17.4946 N   0  0  0  0  0  0  0  0  0  0  0  0
    7.0956   -0.0103   18.5120 C   0  0  0  0  0  0  0  0  0  0  0  0
    8.0143   -0.5420   18.2731 H   0  0  0  0  0  0  0  0  0  0  0  0
    6.5923   -0.0025   19.8282 C   0  0  0  0  0  0  0  0  0  0  0  0
    7.3374   -0.6239   20.9315 C   0  0  0  0  0  0  0  0  0  0  0  0
    8.1311   -1.6806   20.7299 N   0  0  0  0  0  0  0  0  0  0  0  0
    8.6537   -1.9016   21.9370 N   0  0  0  0  0  0  0  0  0  0  0  0
    8.2609   -1.0705   22.9032 C   0  0  0  0  0  0  0  0  0  0  0  0
    7.3741   -0.1941   22.3145 C   0  0  0  0  0  0  0  0  0  0  0  0
    6.8768    0.9840   22.9343 N   0  0  0  0  0  0  0  0  0  0  0  0
    7.0623    0.8805   23.9277 H   0  0  0  0  0  0  0  0  0  0  0  0
    7.5485    2.2004   22.4396 C   0  0  0  0  0  0  0  0  0  0  0  0
    7.0798    3.0592   22.9355 H   0  0  0  0  0  0  0  0  0  0  0  0
    7.3201    2.2671   21.3723 H   0  0  0  0  0  0  0  0  0  0  0  0
    9.0482    2.2013   22.6503 C   0  0  0  0  0  0  0  0  0  0  0  0
    9.5833    2.5935   23.8835 C   0  0  0  0  0  0  0  0  0  0  0  0
    8.9235    2.9529   24.6777 H   0  0  0  0  0  0  0  0  0  0  0  0
   10.8917    2.5918   24.1717 N   0  0  0  0  0  0  0  0  0  0  0  0
   11.7368    2.1829   23.2151 C   0  0  0  0  0  0  0  0  0  0  0  0
   12.8008    2.2353   23.4551 H   0  0  0  0  0  0  0  0  0  0  0  0
   11.3112    1.7303   21.9625 C   0  0  0  0  0  0  0  0  0  0  0  0
   12.0451    1.4334   21.2216 H   0  0  0  0  0  0  0  0  0  0  0  0
    9.9443    1.7067   21.6834 C   0  0  0  0  0  0  0  0  0  0  0  0
    9.5722    1.2906   20.7430 H   0  0  0  0  0  0  0  0  0  0  0  0
    9.0361   -1.3074   24.1628 C   0  0  0  0  0  0  0  0  0  0  0  0
    8.3795   -1.6040   24.9876 H   0  0  0  0  0  0  0  0  0  0  0  0
    9.5576   -0.3943   24.4645 H   0  0  0  0  0  0  0  0  0  0  0  0
   10.0384   -2.4179   23.7406 C   0  0  0  0  0  0  0  0  0  0  0  0
   10.0709   -3.2291   24.4676 H   0  0  0  0  0  0  0  0  0  0  0  0
   11.0354   -1.9978   23.6538 H   0  0  0  0  0  0  0  0  0  0  0  0
    9.6216   -2.8954   22.3215 C   0  0  0  0  0  0  0  0  0  0  0  0
   10.4608   -2.8555   21.6266 H   0  0  0  0  0  0  0  0  0  0  0  0
    9.1682   -3.8906   22.2937 H   0  0  0  0  0  0  0  0  0  0  0  0
    5.3943    0.6841   20.0771 C   0  0  0  0  0  0  0  0  0  0  0  0
    4.9896    0.7235   21.0918 H   0  0  0  0  0  0  0  0  0  0  0  0
    4.7756    1.3383   19.0122 C   0  0  0  0  0  0  0  0  0  0  0  0
    3.8495    1.8852   19.1475 H   0  0  0  0  0  0  0  0  0  0  0  0
  1  2  1  0
  2  3  2  0
  3  4  1  0
  4  5  1  0
  4  6  2  0
  6  7  1  0
  7  8  2  0
  8  9  1  0
  9 10  1  0
 10 11  2  0
 11 12  1  0
 12 13  1  0
 12 14  1  0
 14 15  1  0
 14 16  1  0
 14 17  1  0
 17 18  2  0
 18 19  1  0
 18 20  1  0
 20 21  2  0
 21 22  1  0
 21 23  1  0
 23 24  1  0
 23 25  2  0
 25 26  1  0
 10 27  1  0
 27 28  1  0
 27 29  1  0
 27 30  1  0
 30 31  1  0
 30 32  1  0
 30 33  1  0
 33 34  1  0
 33 35  1  0
  6 36  1  0
 36 37  1  0
 36 38  2  0
 38 39  1  0
 38  2  1  0
 11  7  1  0
 25 17  1  0
 33  9  1  0
M  END
>  <cnnaffinity>  (1) 
-5.93679

>  <filename>  (1) 
c1cncc(CNc2c(-c3cccnc3)nn3c2CCC3)c1

$$$$
