
     RDKit          3D

 30 33  0  0  0  0  0  0  0  0999 V2000
    4.9196    1.7794   16.9999 H   0  0  0  0  0  0  0  0  0  0  0  0
    5.4052    1.2924   17.8412 C   0  0  0  0  0  0  0  0  0  0  0  0
    6.5726    0.6801   17.5807 N   0  0  0  0  0  0  0  0  0  0  0  0
    7.1716    0.0499   18.5938 C   0  0  0  0  0  0  0  0  0  0  0  0
    8.1212   -0.4373   18.3783 H   0  0  0  0  0  0  0  0  0  0  0  0
    6.6465    0.0011   19.8937 C   0  0  0  0  0  0  0  0  0  0  0  0
    7.3685   -0.7018   20.9575 C   0  0  0  0  0  0  0  0  0  0  0  0
    7.8933   -1.9383   20.7107 N   0  0  0  0  0  0  0  0  0  0  0  0
    8.4275   -2.5099   21.7103 N   0  0  0  0  0  0  0  0  0  0  0  0
    8.3467   -1.5334   23.0992 S   0  0  0  0  0  0  0  0  0  0  0  0
    7.5540   -0.2749   22.2655 C   0  0  0  0  0  0  0  0  0  0  0  0
    7.2311    1.0343   22.8534 C   0  0  0  0  0  0  0  0  0  0  0  0
    6.7558    1.1078   24.2009 C   0  0  0  0  0  0  0  0  0  0  0  0
    6.6213    0.1954   24.7747 H   0  0  0  0  0  0  0  0  0  0  0  0
    6.4549    2.3258   24.7869 C   0  0  0  0  0  0  0  0  0  0  0  0
    6.0992    2.3959   25.8120 H   0  0  0  0  0  0  0  0  0  0  0  0
    6.6221    3.5086   24.0395 C   0  0  0  0  0  0  0  0  0  0  0  0
    6.4163    4.8986   24.3251 C   0  0  0  0  0  0  0  0  0  0  0  0
    6.0584    5.2889   25.2654 H   0  0  0  0  0  0  0  0  0  0  0  0
    6.7565    5.5998   23.2032 C   0  0  0  0  0  0  0  0  0  0  0  0
    6.7377    6.6700   23.0206 H   0  0  0  0  0  0  0  0  0  0  0  0
    7.1693    4.7107   22.2252 N   0  0  0  0  0  0  0  0  0  0  0  0
    7.4719    4.9371   21.2937 H   0  0  0  0  0  0  0  0  0  0  0  0
    7.1000    3.4278   22.7098 C   0  0  0  0  0  0  0  0  0  0  0  0
    7.4191    2.2059   22.1064 C   0  0  0  0  0  0  0  0  0  0  0  0
    7.7795    2.1788   21.0813 H   0  0  0  0  0  0  0  0  0  0  0  0
    5.4241    0.6398   20.1505 C   0  0  0  0  0  0  0  0  0  0  0  0
    5.0086    0.6337   21.1613 H   0  0  0  0  0  0  0  0  0  0  0  0
    4.8001    1.3066   19.1024 C   0  0  0  0  0  0  0  0  0  0  0  0
    3.8721    1.8433   19.2574 H   0  0  0  0  0  0  0  0  0  0  0  0
  1  2  1  0
  2  3  2  0
  3  4  1  0
  4  5  1  0
  4  6  2  0
  6  7  1  0
  7  8  1  0
  8  9  2  0
  9 10  1  0
 10 11  1  0
 11 12  1  0
 12 13  2  0
 13 14  1  0
 13 15  1  0
 15 16  1  0
 15 17  2  0
 17 18  1  0
 18 19  1  0
 18 20  2  0
 20 21  1  0
 20 22  1  0
 22 23  1  0
 22 24  1  0
 24 25  2  0
 25 26  1  0
  6 27  1  0
 27 28  1  0
 27 29  2  0
 29 30  1  0
 29  2  1  0
 11  7  2  0
 25 12  1  0
 24 17  1  0
M  END
>  <cnnaffinity>  (1) 
-5.14982

>  <filename>  (1) 
c1cncc(-c2nnsc2-c2ccc3cc[nH]c3c2)c1

$$$$
