
     RDKit          3D

 31 34  0  0  0  0  0  0  0  0999 V2000
    4.9441    1.7839   16.9979 H   0  0  0  0  0  0  0  0  0  0  0  0
    5.4083    1.2824   17.8429 C   0  0  0  0  0  0  0  0  0  0  0  0
    6.5702    0.6595   17.5866 N   0  0  0  0  0  0  0  0  0  0  0  0
    7.1890    0.0527   18.5987 C   0  0  0  0  0  0  0  0  0  0  0  0
    8.1373   -0.4277   18.3691 H   0  0  0  0  0  0  0  0  0  0  0  0
    6.6754    0.0150   19.9032 C   0  0  0  0  0  0  0  0  0  0  0  0
    7.3874   -0.6763   20.9108 N   0  0  0  0  0  0  0  0  0  0  0  0
    8.7081   -0.9309   20.8141 N   0  0  0  0  0  0  0  0  0  0  0  0
    9.0057   -1.6137   21.9066 C   0  0  0  0  0  0  0  0  0  0  0  0
   10.0318   -1.9151   22.0786 H   0  0  0  0  0  0  0  0  0  0  0  0
    7.8731   -1.8263   22.7416 C   0  0  0  0  0  0  0  0  0  0  0  0
    7.8010   -2.5374   24.0211 C   0  0  0  0  0  0  0  0  0  0  0  0
    8.5193   -3.6563   24.2976 C   0  0  0  0  0  0  0  0  0  0  0  0
    9.2399   -4.1213   23.6385 H   0  0  0  0  0  0  0  0  0  0  0  0
    8.1709   -4.3679   25.8321 S   0  0  0  0  0  0  0  0  0  0  0  0
    7.0110   -3.1197   26.1885 C   0  0  0  0  0  0  0  0  0  0  0  0
    6.2238   -2.9954   27.3459 C   0  0  0  0  0  0  0  0  0  0  0  0
    6.2722   -3.7527   28.1239 H   0  0  0  0  0  0  0  0  0  0  0  0
    5.3848   -1.8948   27.4659 C   0  0  0  0  0  0  0  0  0  0  0  0
    4.7914   -1.7739   28.3667 H   0  0  0  0  0  0  0  0  0  0  0  0
    5.2993   -0.9312   26.4390 C   0  0  0  0  0  0  0  0  0  0  0  0
    4.6326   -0.0784   26.5474 H   0  0  0  0  0  0  0  0  0  0  0  0
    6.0613   -1.0691   25.2887 C   0  0  0  0  0  0  0  0  0  0  0  0
    5.9950   -0.3222   24.5018 H   0  0  0  0  0  0  0  0  0  0  0  0
    6.9267   -2.1802   25.1373 C   0  0  0  0  0  0  0  0  0  0  0  0
    6.8633   -1.2077   22.0358 C   0  0  0  0  0  0  0  0  0  0  0  0
    5.8094   -1.1180   22.2195 H   0  0  0  0  0  0  0  0  0  0  0  0
    5.4508    0.6509   20.1697 C   0  0  0  0  0  0  0  0  0  0  0  0
    5.0167    0.6570   21.1714 H   0  0  0  0  0  0  0  0  0  0  0  0
    4.8200    1.3016   19.1087 C   0  0  0  0  0  0  0  0  0  0  0  0
    3.8874    1.8292   19.2578 H   0  0  0  0  0  0  0  0  0  0  0  0
  1  2  1  0
  2  3  2  0
  3  4  1  0
  4  5  1  0
  4  6  2  0
  6  7  1  0
  7  8  1  0
  8  9  2  0
  9 10  1  0
  9 11  1  0
 11 12  1  0
 12 13  2  0
 13 14  1  0
 13 15  1  0
 15 16  1  0
 16 17  2  0
 17 18  1  0
 17 19  1  0
 19 20  1  0
 19 21  2  0
 21 22  1  0
 21 23  1  0
 23 24  1  0
 23 25  2  0
 11 26  2  0
 26 27  1  0
  6 28  1  0
 28 29  1  0
 28 30  2  0
 30 31  1  0
 30  2  1  0
 26  7  1  0
 25 12  1  0
 25 16  1  0
M  END
>  <cnnaffinity>  (1) 
-5.53533

>  <filename>  (1) 
c1cncc(-n2cc(-c3csc4ccccc34)cn2)c1

$$$$
