
     RDKit          3D

 35 38  0  0  0  0  0  0  0  0999 V2000
    4.9483    1.8063   16.9750 H   0  0  0  0  0  0  0  0  0  0  0  0
    5.4018    1.2946   17.8220 C   0  0  0  0  0  0  0  0  0  0  0  0
    6.5598    0.6629   17.5721 N   0  0  0  0  0  0  0  0  0  0  0  0
    7.1544    0.0439   18.5998 C   0  0  0  0  0  0  0  0  0  0  0  0
    8.1036   -0.4403   18.3669 H   0  0  0  0  0  0  0  0  0  0  0  0
    6.6330   -0.0097   19.8992 C   0  0  0  0  0  0  0  0  0  0  0  0
    7.3601   -0.7137   20.9598 C   0  0  0  0  0  0  0  0  0  0  0  0
    6.7119   -1.5619   21.8245 N   0  0  0  0  0  0  0  0  0  0  0  0
    7.6398   -1.9386   22.6510 C   0  0  0  0  0  0  0  0  0  0  0  0
    8.8585   -1.3931   22.3976 N   0  0  0  0  0  0  0  0  0  0  0  0
    8.7031   -0.5784   21.3068 C   0  0  0  0  0  0  0  0  0  0  0  0
    9.7080    0.4556   20.9084 C   0  0  0  0  0  0  0  0  0  0  0  0
    9.5885    0.6131   19.8336 H   0  0  0  0  0  0  0  0  0  0  0  0
   10.7325    0.0925   21.0650 H   0  0  0  0  0  0  0  0  0  0  0  0
    9.4915    1.7858   21.6230 C   0  0  0  0  0  0  0  0  0  0  0  0
   10.1989    2.1684   22.7678 C   0  0  0  0  0  0  0  0  0  0  0  0
   10.9553    1.5216   23.2006 H   0  0  0  0  0  0  0  0  0  0  0  0
    9.8920    3.3885   23.3820 C   0  0  0  0  0  0  0  0  0  0  0  0
   10.4073    3.7081   24.2904 H   0  0  0  0  0  0  0  0  0  0  0  0
    8.9556    4.2275   22.9270 N   0  0  0  0  0  0  0  0  0  0  0  0
    8.2810    3.8668   21.8268 C   0  0  0  0  0  0  0  0  0  0  0  0
    7.5491    4.5983   21.4741 H   0  0  0  0  0  0  0  0  0  0  0  0
    8.4959    2.6518   21.1618 C   0  0  0  0  0  0  0  0  0  0  0  0
    7.8941    2.3568   20.3088 H   0  0  0  0  0  0  0  0  0  0  0  0
    9.8963   -1.5227   23.4080 C   0  0  0  0  0  0  0  0  0  0  0  0
   10.0202   -0.5705   23.9399 H   0  0  0  0  0  0  0  0  0  0  0  0
   10.8569   -1.7590   22.9347 H   0  0  0  0  0  0  0  0  0  0  0  0
    9.4234   -2.6544   24.3582 C   0  0  0  0  0  0  0  0  0  0  0  0
    9.9577   -3.5847   24.1570 H   0  0  0  0  0  0  0  0  0  0  0  0
    9.5798   -2.3936   25.4064 H   0  0  0  0  0  0  0  0  0  0  0  0
    7.6206   -2.9267   24.0938 S   0  0  0  0  0  0  0  0  0  0  0  0
    5.4133    0.6453   20.1390 C   0  0  0  0  0  0  0  0  0  0  0  0
    4.9771    0.6338   21.1403 H   0  0  0  0  0  0  0  0  0  0  0  0
    4.7936    1.3124   19.0834 C   0  0  0  0  0  0  0  0  0  0  0  0
    3.8606    1.8519   19.2194 H   0  0  0  0  0  0  0  0  0  0  0  0
  1  2  1  0
  2  3  2  0
  3  4  1  0
  4  5  1  0
  4  6  2  0
  6  7  1  0
  7  8  1  0
  8  9  2  0
  9 10  1  0
 10 11  1  0
 11 12  1  0
 12 13  1  0
 12 14  1  0
 12 15  1  0
 15 16  2  0
 16 17  1  0
 16 18  1  0
 18 19  1  0
 18 20  2  0
 20 21  1  0
 21 22  1  0
 21 23  2  0
 23 24  1  0
 10 25  1  0
 25 26  1  0
 25 27  1  0
 25 28  1  0
 28 29  1  0
 28 30  1  0
 28 31  1  0
  6 32  1  0
 32 33  1  0
 32 34  2  0
 34 35  1  0
 34  2  1  0
 11  7  2  0
 23 15  1  0
 31  9  1  0
M  END
>  <cnnaffinity>  (1) 
-5.61958

>  <filename>  (1) 
c1cncc(-c2nc3n(c2Cc2ccncc2)CCS3)c1

$$$$
