
     RDKit          3D

 40 43  0  0  0  0  0  0  0  0999 V2000
    4.9688    2.0983   16.4268 H   0  0  0  0  0  0  0  0  0  0  0  0
    5.4094    1.5726   17.2702 C   0  0  0  0  0  0  0  0  0  0  0  0
    6.6057    1.0011   17.0590 N   0  0  0  0  0  0  0  0  0  0  0  0
    7.1849    0.3653   18.0891 C   0  0  0  0  0  0  0  0  0  0  0  0
    8.1533   -0.0914   17.8896 H   0  0  0  0  0  0  0  0  0  0  0  0
    6.6067    0.2374   19.3816 C   0  0  0  0  0  0  0  0  0  0  0  0
    7.2014   -0.4152   20.4636 N   0  0  0  0  0  0  0  0  0  0  0  0
    6.4429   -1.3612   21.2901 C   0  0  0  0  0  0  0  0  0  0  0  0
    6.7012   -2.4015   21.0283 H   0  0  0  0  0  0  0  0  0  0  0  0
    5.3653   -1.2521   21.1219 H   0  0  0  0  0  0  0  0  0  0  0  0
    6.7776   -1.1116   22.7651 C   0  0  0  0  0  0  0  0  0  0  0  0
    6.5389   -0.0595   22.9883 H   0  0  0  0  0  0  0  0  0  0  0  0
    6.1857   -1.7354   23.4334 H   0  0  0  0  0  0  0  0  0  0  0  0
    8.2095   -1.3332   22.9907 N   0  0  0  0  0  0  0  0  0  0  0  0
    8.6598   -2.1992   23.9575 C   0  0  0  0  0  0  0  0  0  0  0  0
    7.7849   -2.5896   24.8645 N   0  0  0  0  0  0  0  0  0  0  0  0
    8.2063   -3.4533   25.8306 C   0  0  0  0  0  0  0  0  0  0  0  0
    7.2621   -3.8245   26.8250 C   0  0  0  0  0  0  0  0  0  0  0  0
    6.2857   -3.3608   26.7339 H   0  0  0  0  0  0  0  0  0  0  0  0
    7.5994   -4.7112   27.8221 C   0  0  0  0  0  0  0  0  0  0  0  0
    6.8848   -4.9840   28.5983 H   0  0  0  0  0  0  0  0  0  0  0  0
    8.9095   -5.2597   27.8580 C   0  0  0  0  0  0  0  0  0  0  0  0
    9.1451   -5.9630   28.6468 H   0  0  0  0  0  0  0  0  0  0  0  0
    9.8627   -4.8977   26.9309 C   0  0  0  0  0  0  0  0  0  0  0  0
   10.8723   -5.2981   26.9881 H   0  0  0  0  0  0  0  0  0  0  0  0
    9.5265   -4.0022   25.8756 C   0  0  0  0  0  0  0  0  0  0  0  0
   10.4295   -3.6071   24.8391 C   0  0  0  0  0  0  0  0  0  0  0  0
   11.4317   -4.0403   24.8106 H   0  0  0  0  0  0  0  0  0  0  0  0
   10.0184   -2.6916   23.9082 C   0  0  0  0  0  0  0  0  0  0  0  0
   10.6830   -2.3394   23.1304 H   0  0  0  0  0  0  0  0  0  0  0  0
    9.0169   -0.4111   22.1834 C   0  0  0  0  0  0  0  0  0  0  0  0
    8.8495    0.6214   22.5323 H   0  0  0  0  0  0  0  0  0  0  0  0
   10.0840   -0.6082   22.2996 H   0  0  0  0  0  0  0  0  0  0  0  0
    8.6508   -0.4873   20.6782 C   0  0  0  0  0  0  0  0  0  0  0  0
    9.0603   -1.4211   20.2605 H   0  0  0  0  0  0  0  0  0  0  0  0
    9.1282    0.3540   20.1594 H   0  0  0  0  0  0  0  0  0  0  0  0
    5.3399    0.8322   19.5583 C   0  0  0  0  0  0  0  0  0  0  0  0
    4.8714    0.7780   20.5392 H   0  0  0  0  0  0  0  0  0  0  0  0
    4.7401    1.5093   18.4982 C   0  0  0  0  0  0  0  0  0  0  0  0
    3.7703    1.9826   18.6185 H   0  0  0  0  0  0  0  0  0  0  0  0
  1  2  1  0
  2  3  2  0
  3  4  1  0
  4  5  1  0
  4  6  2  0
  6  7  1  0
  7  8  1  0
  8  9  1  0
  8 10  1  0
  8 11  1  0
 11 12  1  0
 11 13  1  0
 11 14  1  0
 14 15  1  0
 15 16  2  0
 16 17  1  0
 17 18  2  0
 18 19  1  0
 18 20  1  0
 20 21  1  0
 20 22  2  0
 22 23  1  0
 22 24  1  0
 24 25  1  0
 24 26  2  0
 26 27  1  0
 27 28  1  0
 27 29  2  0
 29 30  1  0
 14 31  1  0
 31 32  1  0
 31 33  1  0
 31 34  1  0
 34 35  1  0
 34 36  1  0
  6 37  1  0
 37 38  1  0
 37 39  2  0
 39 40  1  0
 39  2  1  0
 34  7  1  0
 29 15  1  0
 26 17  1  0
M  END
>  <cnnaffinity>  (1) 
-5.21078

>  <filename>  (1) 
c1cncc(N2CCN(c3ccc4ccccc4n3)CC2)c1

$$$$
