
     RDKit          3D

 33 36  0  0  0  0  0  0  0  0999 V2000
    4.9212    1.7778   17.0013 H   0  0  0  0  0  0  0  0  0  0  0  0
    5.4046    1.2913   17.8436 C   0  0  0  0  0  0  0  0  0  0  0  0
    6.5682    0.6735   17.5830 N   0  0  0  0  0  0  0  0  0  0  0  0
    7.1640    0.0423   18.5969 C   0  0  0  0  0  0  0  0  0  0  0  0
    8.1156   -0.4375   18.3754 H   0  0  0  0  0  0  0  0  0  0  0  0
    6.6462    0.0073   19.8983 C   0  0  0  0  0  0  0  0  0  0  0  0
    7.3971   -0.6765   20.9407 C   0  0  0  0  0  0  0  0  0  0  0  0
    7.8498   -1.9628   20.7839 N   0  0  0  0  0  0  0  0  0  0  0  0
    8.4425   -2.2204   21.9170 C   0  0  0  0  0  0  0  0  0  0  0  0
    9.3175   -3.5483   22.6221 S   0  0  0  0  0  0  0  0  0  0  0  0
    9.7069   -2.5824   24.0224 C   0  0  0  0  0  0  0  0  0  0  0  0
   10.3195   -3.0170   24.7983 H   0  0  0  0  0  0  0  0  0  0  0  0
    9.1585   -1.3569   23.9685 C   0  0  0  0  0  0  0  0  0  0  0  0
    9.2214   -0.5645   24.7062 H   0  0  0  0  0  0  0  0  0  0  0  0
    8.4433   -1.1649   22.7922 N   0  0  0  0  0  0  0  0  0  0  0  0
    7.7897   -0.1346   22.1534 C   0  0  0  0  0  0  0  0  0  0  0  0
    7.6196    1.2314   22.7184 C   0  0  0  0  0  0  0  0  0  0  0  0
    7.6525    1.9468   21.8903 H   0  0  0  0  0  0  0  0  0  0  0  0
    8.4613    1.4685   23.3810 H   0  0  0  0  0  0  0  0  0  0  0  0
    6.3282    1.4276   23.4861 C   0  0  0  0  0  0  0  0  0  0  0  0
    5.9795    0.5842   24.5416 C   0  0  0  0  0  0  0  0  0  0  0  0
    6.6210   -0.2410   24.8288 H   0  0  0  0  0  0  0  0  0  0  0  0
    4.7834    0.8079   25.2212 C   0  0  0  0  0  0  0  0  0  0  0  0
    4.5080    0.1609   26.0470 H   0  0  0  0  0  0  0  0  0  0  0  0
    3.9284    1.7954   24.9276 N   0  0  0  0  0  0  0  0  0  0  0  0
    4.2791    2.6058   23.9214 C   0  0  0  0  0  0  0  0  0  0  0  0
    3.5915    3.4106   23.6880 H   0  0  0  0  0  0  0  0  0  0  0  0
    5.4503    2.4658   23.1782 C   0  0  0  0  0  0  0  0  0  0  0  0
    5.6680    3.1405   22.3570 H   0  0  0  0  0  0  0  0  0  0  0  0
    5.4340    0.6631   20.1594 C   0  0  0  0  0  0  0  0  0  0  0  0
    5.0006    0.6373   21.1622 H   0  0  0  0  0  0  0  0  0  0  0  0
    4.8023    1.3152   19.1067 C   0  0  0  0  0  0  0  0  0  0  0  0
    3.8698    1.8454   19.2590 H   0  0  0  0  0  0  0  0  0  0  0  0
  1  2  1  0
  2  3  2  0
  3  4  1  0
  4  5  1  0
  4  6  2  0
  6  7  1  0
  7  8  1  0
  8  9  2  0
  9 10  1  0
 10 11  1  0
 11 12  1  0
 11 13  2  0
 13 14  1  0
 13 15  1  0
 15 16  1  0
 16 17  1  0
 17 18  1  0
 17 19  1  0
 17 20  1  0
 20 21  2  0
 21 22  1  0
 21 23  1  0
 23 24  1  0
 23 25  2  0
 25 26  1  0
 26 27  1  0
 26 28  2  0
 28 29  1  0
  6 30  1  0
 30 31  1  0
 30 32  2  0
 32 33  1  0
 32  2  1  0
 16  7  2  0
 28 20  1  0
 15  9  1  0
M  END
>  <cnnaffinity>  (1) 
-5.36409

>  <filename>  (1) 
c1cncc(-c2nc3sccn3c2Cc2ccncc2)c1

$$$$
