
     RDKit          3D

 33 36  0  0  0  0  0  0  0  0999 V2000
    4.9455    1.8258   16.9896 H   0  0  0  0  0  0  0  0  0  0  0  0
    5.3905    1.2892   17.8254 C   0  0  0  0  0  0  0  0  0  0  0  0
    6.5359    0.6376   17.5724 N   0  0  0  0  0  0  0  0  0  0  0  0
    7.1242    0.0005   18.5880 C   0  0  0  0  0  0  0  0  0  0  0  0
    8.0599   -0.5103   18.3632 H   0  0  0  0  0  0  0  0  0  0  0  0
    6.6228    0.0018   19.8986 C   0  0  0  0  0  0  0  0  0  0  0  0
    7.3993   -0.6475   20.9463 C   0  0  0  0  0  0  0  0  0  0  0  0
    7.9410   -1.9049   20.7934 N   0  0  0  0  0  0  0  0  0  0  0  0
    8.4718   -2.1497   21.9582 C   0  0  0  0  0  0  0  0  0  0  0  0
    8.4195   -1.0943   22.8138 N   0  0  0  0  0  0  0  0  0  0  0  0
    7.6920   -0.1177   22.1917 C   0  0  0  0  0  0  0  0  0  0  0  0
    7.3872    1.1774   22.8825 C   0  0  0  0  0  0  0  0  0  0  0  0
    8.3318    1.6412   23.1955 H   0  0  0  0  0  0  0  0  0  0  0  0
    6.9303    1.8656   22.1675 H   0  0  0  0  0  0  0  0  0  0  0  0
    6.4832    1.0440   24.0783 C   0  0  0  0  0  0  0  0  0  0  0  0
    5.1143    0.9524   23.9517 N   0  0  0  0  0  0  0  0  0  0  0  0
    4.6573    0.7514   25.1629 C   0  0  0  0  0  0  0  0  0  0  0  0
    3.6222    0.5790   25.4382 H   0  0  0  0  0  0  0  0  0  0  0  0
    5.6589    0.7414   26.0811 N   0  0  0  0  0  0  0  0  0  0  0  0
    5.5395    0.6412   27.0744 H   0  0  0  0  0  0  0  0  0  0  0  0
    6.8403    0.9365   25.3939 C   0  0  0  0  0  0  0  0  0  0  0  0
    7.8124    0.9854   25.8664 H   0  0  0  0  0  0  0  0  0  0  0  0
    9.0727   -1.2447   24.0964 C   0  0  0  0  0  0  0  0  0  0  0  0
    8.3257   -1.4720   24.8624 H   0  0  0  0  0  0  0  0  0  0  0  0
    9.6182   -0.3389   24.3773 H   0  0  0  0  0  0  0  0  0  0  0  0
   10.0367   -2.4255   23.8846 C   0  0  0  0  0  0  0  0  0  0  0  0
   10.9490   -2.0990   23.3792 H   0  0  0  0  0  0  0  0  0  0  0  0
   10.2926   -2.9471   24.8085 H   0  0  0  0  0  0  0  0  0  0  0  0
    9.1835   -3.5578   22.7302 S   0  0  0  0  0  0  0  0  0  0  0  0
    5.4079    0.6675   20.1474 C   0  0  0  0  0  0  0  0  0  0  0  0
    4.9794    0.6843   21.1540 H   0  0  0  0  0  0  0  0  0  0  0  0
    4.7792    1.3109   19.0832 C   0  0  0  0  0  0  0  0  0  0  0  0
    3.8532    1.8548   19.2199 H   0  0  0  0  0  0  0  0  0  0  0  0
  1  2  1  0
  2  3  2  0
  3  4  1  0
  4  5  1  0
  4  6  2  0
  6  7  1  0
  7  8  1  0
  8  9  2  0
  9 10  1  0
 10 11  1  0
 11 12  1  0
 12 13  1  0
 12 14  1  0
 12 15  1  0
 15 16  1  0
 16 17  2  0
 17 18  1  0
 17 19  1  0
 19 20  1  0
 19 21  1  0
 21 22  1  0
 10 23  1  0
 23 24  1  0
 23 25  1  0
 23 26  1  0
 26 27  1  0
 26 28  1  0
 26 29  1  0
  6 30  1  0
 30 31  1  0
 30 32  2  0
 32 33  1  0
 32  2  1  0
 11  7  2  0
 21 15  2  0
 29  9  1  0
M  END
>  <cnnaffinity>  (1) 
-5.58607

>  <filename>  (1) 
c1cncc(-c2nc3n(c2Cc2c[nH]cn2)CCS3)c1

$$$$
