
     RDKit          3D

 34 37  0  0  0  0  0  0  0  0999 V2000
    4.9165    1.7864   16.9910 H   0  0  0  0  0  0  0  0  0  0  0  0
    5.3994    1.2959   17.8318 C   0  0  0  0  0  0  0  0  0  0  0  0
    6.5646    0.6814   17.5641 N   0  0  0  0  0  0  0  0  0  0  0  0
    7.1599    0.0563   18.5868 C   0  0  0  0  0  0  0  0  0  0  0  0
    8.1156   -0.4222   18.3664 H   0  0  0  0  0  0  0  0  0  0  0  0
    6.6531    0.0111   19.8934 C   0  0  0  0  0  0  0  0  0  0  0  0
    7.3976   -0.6861   20.9808 C   0  0  0  0  0  0  0  0  0  0  0  0
    7.6594   -2.0491   20.8290 C   0  0  0  0  0  0  0  0  0  0  0  0
    7.2301   -2.4877   19.9432 H   0  0  0  0  0  0  0  0  0  0  0  0
    8.3115   -2.7926   21.8087 C   0  0  0  0  0  0  0  0  0  0  0  0
    8.5233   -3.8476   21.6517 H   0  0  0  0  0  0  0  0  0  0  0  0
    8.6724   -2.1631   23.0047 C   0  0  0  0  0  0  0  0  0  0  0  0
    9.1606   -2.7255   23.7952 H   0  0  0  0  0  0  0  0  0  0  0  0
    8.3918   -0.8117   23.1880 C   0  0  0  0  0  0  0  0  0  0  0  0
    8.6595   -0.3016   24.1086 H   0  0  0  0  0  0  0  0  0  0  0  0
    7.7705   -0.0498   22.1791 C   0  0  0  0  0  0  0  0  0  0  0  0
    7.5504    1.3969   22.3612 C   0  0  0  0  0  0  0  0  0  0  0  0
    8.0458    2.3547   21.5420 C   0  0  0  0  0  0  0  0  0  0  0  0
    8.6405    2.1798   20.6555 H   0  0  0  0  0  0  0  0  0  0  0  0
    7.6552    3.9657   22.0389 S   0  0  0  0  0  0  0  0  0  0  0  0
    6.7445    3.3589   23.3969 C   0  0  0  0  0  0  0  0  0  0  0  0
    6.0372    4.0955   24.3618 C   0  0  0  0  0  0  0  0  0  0  0  0
    6.0237    5.1808   24.3151 H   0  0  0  0  0  0  0  0  0  0  0  0
    5.3581    3.4091   25.3635 C   0  0  0  0  0  0  0  0  0  0  0  0
    4.8065    3.9661   26.1190 H   0  0  0  0  0  0  0  0  0  0  0  0
    5.3665    1.9948   25.4160 C   0  0  0  0  0  0  0  0  0  0  0  0
    4.8248    1.4742   26.2038 H   0  0  0  0  0  0  0  0  0  0  0  0
    6.0630    1.2657   24.4650 C   0  0  0  0  0  0  0  0  0  0  0  0
    6.0646    0.1743   24.4749 H   0  0  0  0  0  0  0  0  0  0  0  0
    6.7746    1.9491   23.4502 C   0  0  0  0  0  0  0  0  0  0  0  0
    5.4338    0.6539   20.1516 C   0  0  0  0  0  0  0  0  0  0  0  0
    5.0247    0.6380   21.1674 H   0  0  0  0  0  0  0  0  0  0  0  0
    4.7997    1.3085   19.0970 C   0  0  0  0  0  0  0  0  0  0  0  0
    3.8707    1.8449   19.2518 H   0  0  0  0  0  0  0  0  0  0  0  0
  1  2  1  0
  2  3  2  0
  3  4  1  0
  4  5  1  0
  4  6  2  0
  6  7  1  0
  7  8  2  0
  8  9  1  0
  8 10  1  0
 10 11  1  0
 10 12  2  0
 12 13  1  0
 12 14  1  0
 14 15  1  0
 14 16  2  0
 16 17  1  0
 17 18  2  0
 18 19  1  0
 18 20  1  0
 20 21  1  0
 21 22  2  0
 22 23  1  0
 22 24  1  0
 24 25  1  0
 24 26  2  0
 26 27  1  0
 26 28  1  0
 28 29  1  0
 28 30  2  0
  6 31  1  0
 31 32  1  0
 31 33  2  0
 33 34  1  0
 33  2  1  0
 16  7  1  0
 30 17  1  0
 30 21  1  0
M  END
>  <cnnaffinity>  (1) 
-4.94368

>  <filename>  (1) 
c1cncc(-c2ccccc2-c2csc3ccccc23)c1

$$$$
