
     RDKit          3D

 27 29  0  0  0  0  0  0  0  0999 V2000
    8.2642   -6.0697   25.3664 H   0  0  0  0  0  0  0  0  0  0  0  0
    8.8162   -5.3032   24.8299 C   0  0  0  0  0  0  0  0  0  0  0  0
    8.2489   -4.6948   23.7308 N   0  0  0  0  0  0  0  0  0  0  0  0
    9.0884   -3.8394   23.2385 C   0  0  0  0  0  0  0  0  0  0  0  0
    8.7078   -3.1663   22.1088 N   0  0  0  0  0  0  0  0  0  0  0  0
    7.7202   -3.3591   22.0020 H   0  0  0  0  0  0  0  0  0  0  0  0
    9.1669   -1.9263   21.6842 C   0  0  0  0  0  0  0  0  0  0  0  0
    8.4847   -0.9101   21.0520 C   0  0  0  0  0  0  0  0  0  0  0  0
    7.1273   -0.9463   20.8152 O   0  0  0  0  0  0  0  0  0  0  0  0
    6.6034   -0.1878   19.7939 C   0  0  0  0  0  0  0  0  0  0  0  0
    7.1362   -0.1734   18.4900 C   0  0  0  0  0  0  0  0  0  0  0  0
    8.0078   -0.7781   18.2490 H   0  0  0  0  0  0  0  0  0  0  0  0
    6.6203    0.5557   17.4912 N   0  0  0  0  0  0  0  0  0  0  0  0
    5.5364    1.3025   17.7562 C   0  0  0  0  0  0  0  0  0  0  0  0
    5.1407    1.8991   16.9381 H   0  0  0  0  0  0  0  0  0  0  0  0
    4.9201    1.3287   19.0159 C   0  0  0  0  0  0  0  0  0  0  0  0
    4.0492    1.9572   19.1753 H   0  0  0  0  0  0  0  0  0  0  0  0
    5.4540    0.5639   20.0542 C   0  0  0  0  0  0  0  0  0  0  0  0
    5.0112    0.5372   21.0513 H   0  0  0  0  0  0  0  0  0  0  0  0
    9.4493    0.0934   20.8129 C   0  0  0  0  0  0  0  0  0  0  0  0
    9.3120    1.0532   20.3375 H   0  0  0  0  0  0  0  0  0  0  0  0
   10.6474   -0.2815   21.2461 N   0  0  0  0  0  0  0  0  0  0  0  0
   10.4518   -1.5148   21.7596 N   0  0  0  0  0  0  0  0  0  0  0  0
   11.2138   -2.0176   22.1841 H   0  0  0  0  0  0  0  0  0  0  0  0
   10.6101   -3.6867   24.0605 S   0  0  0  0  0  0  0  0  0  0  0  0
   10.0665   -4.9099   25.1638 C   0  0  0  0  0  0  0  0  0  0  0  0
   10.6921   -5.2968   25.9555 H   0  0  0  0  0  0  0  0  0  0  0  0
  1  2  1  0
  2  3  1  0
  3  4  2  0
  4  5  1  0
  5  6  1  0
  5  7  1  0
  7  8  2  0
  8  9  1  0
  9 10  1  0
 10 11  2  0
 11 12  1  0
 11 13  1  0
 13 14  2  0
 14 15  1  0
 14 16  1  0
 16 17  1  0
 16 18  2  0
 18 19  1  0
  8 20  1  0
 20 21  1  0
 20 22  2  0
 22 23  1  0
 23 24  1  0
  4 25  1  0
 25 26  1  0
 26 27  1  0
 26  2  2  0
 23  7  1  0
 18 10  1  0
M  END
>  <cnnaffinity>  (1) 
-5.52197

>  <filename>  (1) 
c1cncc(Oc2cn[nH]c2Nc2nccs2)c1

$$$$
