
     RDKit          3D

 43 46  0  0  0  0  0  0  0  0999 V2000
    4.9121    1.8172   16.9695 H   0  0  0  0  0  0  0  0  0  0  0  0
    5.3802    1.3111   17.8105 C   0  0  0  0  0  0  0  0  0  0  0  0
    6.5420    0.6893   17.5481 N   0  0  0  0  0  0  0  0  0  0  0  0
    7.1579    0.0706   18.5625 C   0  0  0  0  0  0  0  0  0  0  0  0
    8.1113   -0.3915   18.3108 H   0  0  0  0  0  0  0  0  0  0  0  0
    6.6610    0.0209   19.8828 C   0  0  0  0  0  0  0  0  0  0  0  0
    7.3859   -0.6535   20.9817 C   0  0  0  0  0  0  0  0  0  0  0  0
    7.5225   -0.3229   22.3258 C   0  0  0  0  0  0  0  0  0  0  0  0
    7.0218    0.8367   22.9280 N   0  0  0  0  0  0  0  0  0  0  0  0
    6.9874    1.6514   22.3348 H   0  0  0  0  0  0  0  0  0  0  0  0
    6.8211    1.0332   24.2949 C   0  0  0  0  0  0  0  0  0  0  0  0
    7.0432    2.2957   24.8670 C   0  0  0  0  0  0  0  0  0  0  0  0
    7.3933    3.1064   24.2314 H   0  0  0  0  0  0  0  0  0  0  0  0
    6.8347    2.4900   26.2348 C   0  0  0  0  0  0  0  0  0  0  0  0
    6.9983    3.4568   26.7023 H   0  0  0  0  0  0  0  0  0  0  0  0
    6.3638    1.4473   27.0577 C   0  0  0  0  0  0  0  0  0  0  0  0
    6.0938    1.7245   28.4162 N   0  0  0  0  0  0  0  0  0  0  0  0
    5.0185    1.0203   29.1101 C   0  0  0  0  0  0  0  0  0  0  0  0
    5.3187    0.0160   29.4623 H   0  0  0  0  0  0  0  0  0  0  0  0
    4.1737    0.9020   28.4187 H   0  0  0  0  0  0  0  0  0  0  0  0
    4.5562    1.8471   30.3184 C   0  0  0  0  0  0  0  0  0  0  0  0
    4.0852    2.7758   29.9556 H   0  0  0  0  0  0  0  0  0  0  0  0
    3.8275    1.2879   30.9135 H   0  0  0  0  0  0  0  0  0  0  0  0
    5.6357    2.1644   31.1880 O   0  0  0  0  0  0  0  0  0  0  0  0
    6.6363    2.9036   30.4978 C   0  0  0  0  0  0  0  0  0  0  0  0
    7.4242    3.1146   31.2285 H   0  0  0  0  0  0  0  0  0  0  0  0
    6.2139    3.8588   30.1437 H   0  0  0  0  0  0  0  0  0  0  0  0
    7.1930    2.1265   29.2977 C   0  0  0  0  0  0  0  0  0  0  0  0
    7.8785    2.7731   28.7395 H   0  0  0  0  0  0  0  0  0  0  0  0
    7.7758    1.2604   29.6604 H   0  0  0  0  0  0  0  0  0  0  0  0
    6.1318    0.1878   26.4713 C   0  0  0  0  0  0  0  0  0  0  0  0
    5.7812   -0.6259   27.1001 H   0  0  0  0  0  0  0  0  0  0  0  0
    6.3576   -0.0130   25.1081 C   0  0  0  0  0  0  0  0  0  0  0  0
    6.1751   -0.9686   24.6229 H   0  0  0  0  0  0  0  0  0  0  0  0
    8.2978   -1.3790   22.8795 C   0  0  0  0  0  0  0  0  0  0  0  0
    8.6410   -1.4905   23.9025 H   0  0  0  0  0  0  0  0  0  0  0  0
    8.6133   -2.2899   21.9632 N   0  0  0  0  0  0  0  0  0  0  0  0
    8.0589   -1.8264   20.8317 N   0  0  0  0  0  0  0  0  0  0  0  0
    8.1217   -2.3743   19.9843 H   0  0  0  0  0  0  0  0  0  0  0  0
    5.4367    0.6645   20.1286 C   0  0  0  0  0  0  0  0  0  0  0  0
    5.0144    0.6332   21.1312 H   0  0  0  0  0  0  0  0  0  0  0  0
    4.7879    1.3199   19.0787 C   0  0  0  0  0  0  0  0  0  0  0  0
    3.8554    1.8533   19.2285 H   0  0  0  0  0  0  0  0  0  0  0  0
  1  2  1  0
  2  3  2  0
  3  4  1  0
  4  5  1  0
  4  6  2  0
  6  7  1  0
  7  8  2  0
  8  9  1  0
  9 10  1  0
  9 11  1  0
 11 12  2  0
 12 13  1  0
 12 14  1  0
 14 15  1  0
 14 16  2  0
 16 17  1  0
 17 18  1  0
 18 19  1  0
 18 20  1  0
 18 21  1  0
 21 22  1  0
 21 23  1  0
 21 24  1  0
 24 25  1  0
 25 26  1  0
 25 27  1  0
 25 28  1  0
 28 29  1  0
 28 30  1  0
 16 31  1  0
 31 32  1  0
 31 33  2  0
 33 34  1  0
  8 35  1  0
 35 36  1  0
 35 37  2  0
 37 38  1  0
 38 39  1  0
  6 40  1  0
 40 41  1  0
 40 42  2  0
 42 43  1  0
 42  2  1  0
 38  7  1  0
 33 11  1  0
 28 17  1  0
M  END
>  <cnnaffinity>  (1) 
-5.55816

>  <filename>  (1) 
c1cncc(-c2[nH]ncc2Nc2ccc(N3CCOCC3)cc2)c1

$$$$
