
     RDKit          3D

 37 39  0  0  0  0  0  0  0  0999 V2000
    4.7978    1.2972   19.1252 C   0  0  0  0  0  0  0  0  0  0  0  0
    5.4370    1.2677   17.8800 C   0  0  0  0  0  0  0  0  0  0  0  0
    6.5890    0.6129   17.6617 N   0  0  0  0  0  0  0  0  0  0  0  0
    7.1424   -0.0190   18.6993 C   0  0  0  0  0  0  0  0  0  0  0  0
    6.5929   -0.0652   19.9930 C   0  0  0  0  0  0  0  0  0  0  0  0
    7.3292   -0.7870   21.0753 C   0  0  0  0  0  0  0  0  0  0  0  0
    6.5919   -1.3833   22.0291 N   0  0  0  0  0  0  0  0  0  0  0  0
    7.2679   -2.0335   23.0054 C   0  0  0  0  0  0  0  0  0  0  0  0
    6.3961   -2.5957   23.8852 N   0  0  0  0  0  0  0  0  0  0  0  0
    6.6665   -3.3332   25.1032 C   0  0  0  0  0  0  0  0  0  0  0  0
    7.3924   -4.6527   24.7910 C   0  0  0  0  0  0  0  0  0  0  0  0
    7.7553   -5.4261   26.0557 C   0  0  0  0  0  0  0  0  0  0  0  0
    8.5757   -4.5363   26.9552 N   0  0  0  0  0  4  0  0  0  0  0  0
    7.7978   -3.3142   27.3608 C   0  0  0  0  0  0  0  0  0  0  0  0
    7.4374   -2.4928   26.1316 C   0  0  0  0  0  0  0  0  0  0  0  0
    6.8382   -1.6258   26.4173 H   0  0  0  0  0  0  0  0  0  0  0  0
    8.3551   -2.1032   25.6839 H   0  0  0  0  0  0  0  0  0  0  0  0
    8.3773   -2.7164   28.0635 H   0  0  0  0  0  0  0  0  0  0  0  0
    6.8760   -3.6252   27.8644 H   0  0  0  0  0  0  0  0  0  0  0  0
    8.9422   -5.0555   27.7759 H   0  0  0  0  0  0  0  0  0  0  0  0
    9.4027   -4.2053   26.3877 H   0  0  0  0  0  0  0  0  0  0  0  0
    6.8411   -5.7295   26.5780 H   0  0  0  0  0  0  0  0  0  0  0  0
    8.3160   -6.3346   25.8237 H   0  0  0  0  0  0  0  0  0  0  0  0
    6.7690   -5.2577   24.1312 H   0  0  0  0  0  0  0  0  0  0  0  0
    8.3115   -4.4325   24.2403 H   0  0  0  0  0  0  0  0  0  0  0  0
    5.6893   -3.5817   25.5449 H   0  0  0  0  0  0  0  0  0  0  0  0
    5.4814   -2.2393   23.6153 H   0  0  0  0  0  0  0  0  0  0  0  0
    8.7060   -2.0537   23.0259 C   0  0  0  0  0  0  0  0  0  0  0  0
    9.4452   -1.4437   22.0809 N   0  0  0  0  0  0  0  0  0  0  0  0
    8.7529   -0.8163   21.1084 C   0  0  0  0  0  0  0  0  0  0  0  0
    9.3210   -0.2937   20.3420 H   0  0  0  0  0  0  0  0  0  0  0  0
    9.2375   -2.5539   23.8265 H   0  0  0  0  0  0  0  0  0  0  0  0
    5.3773    0.6164   20.1978 C   0  0  0  0  0  0  0  0  0  0  0  0
    4.9103    0.6282   21.1864 H   0  0  0  0  0  0  0  0  0  0  0  0
    8.0854   -0.5202   18.4868 H   0  0  0  0  0  0  0  0  0  0  0  0
    5.0067    1.7855   17.0254 H   0  0  0  0  0  0  0  0  0  0  0  0
    3.8754    1.8653   19.2370 H   0  0  0  0  0  0  0  0  0  0  0  0
  1  2  2  0
  2  3  1  0
  3  4  2  0
  4  5  1  0
  5  6  1  0
  6  7  2  0
  7  8  1  0
  8  9  1  0
  9 10  1  0
 10 11  1  0
 11 12  1  0
 12 13  1  0
 13 14  1  0
 14 15  1  0
 15 16  1  0
 15 17  1  0
 14 18  1  0
 14 19  1  0
 13 20  1  0
 13 21  1  0
 12 22  1  0
 12 23  1  0
 11 24  1  0
 11 25  1  0
 10 26  1  0
  9 27  1  0
  8 28  2  0
 28 29  1  0
 29 30  2  0
 30 31  1  0
 28 32  1  0
  5 33  2  0
 33 34  1  0
  4 35  1  0
  2 36  1  0
  1 37  1  0
 33  1  1  0
 30  6  1  0
 15 10  1  0
M  CHG  1  13   1
M  END
>  <cnnaffinity>  (1) 
-5.11319

>  <filename>  (1) 
c1cncc(-c2cncc(NC3CC[NH2+]CC3)n2)c1

$$$$
