
     RDKit          3D

 35 37  0  0  0  0  0  0  0  0999 V2000
    4.9060    1.7735   17.0038 H   0  0  0  0  0  0  0  0  0  0  0  0
    5.3994    1.2925   17.8446 C   0  0  0  0  0  0  0  0  0  0  0  0
    6.5705    0.6814   17.5892 N   0  0  0  0  0  0  0  0  0  0  0  0
    7.1833    0.0540   18.5977 C   0  0  0  0  0  0  0  0  0  0  0  0
    8.1318   -0.4404   18.3845 H   0  0  0  0  0  0  0  0  0  0  0  0
    6.6585    0.0074   19.9006 C   0  0  0  0  0  0  0  0  0  0  0  0
    7.3715   -0.6684   20.9356 N   0  0  0  0  0  0  0  0  0  0  0  0
    7.8136   -1.9355   20.8027 N   0  0  0  0  0  0  0  0  0  0  0  0
    8.4342   -2.2272   21.8819 N   0  0  0  0  0  0  0  0  0  0  0  0
    8.4349   -1.1859   22.7422 N   0  0  0  0  0  0  0  0  0  0  0  0
    7.7763   -0.2189   22.1536 C   0  0  0  0  0  0  0  0  0  0  0  0
    7.6368    1.1835   22.6417 C   0  0  0  0  0  0  0  0  0  0  0  0
    6.5877    1.4932   22.5751 H   0  0  0  0  0  0  0  0  0  0  0  0
    7.8925    1.1774   23.7053 H   0  0  0  0  0  0  0  0  0  0  0  0
    8.5284    2.1783   21.8532 C   0  0  0  0  0  0  0  0  0  0  0  0
    8.2646    2.0771   20.7893 H   0  0  0  0  0  0  0  0  0  0  0  0
   10.0397    1.8648   21.9974 C   0  0  0  0  0  0  0  0  0  0  0  0
   10.5872    2.4522   21.2446 H   0  0  0  0  0  0  0  0  0  0  0  0
   10.2402    0.8070   21.7739 H   0  0  0  0  0  0  0  0  0  0  0  0
   10.5973    2.2206   23.3861 C   0  0  0  0  0  0  0  0  0  0  0  0
   11.6814    2.0524   23.4020 H   0  0  0  0  0  0  0  0  0  0  0  0
   10.1627    1.5488   24.1434 H   0  0  0  0  0  0  0  0  0  0  0  0
   10.2917    3.6768   23.7556 C   0  0  0  0  0  0  0  0  0  0  0  0
   10.6503    3.8907   24.7662 H   0  0  0  0  0  0  0  0  0  0  0  0
   10.8402    4.3427   23.0711 H   0  0  0  0  0  0  0  0  0  0  0  0
    8.7931    3.9849   23.6601 C   0  0  0  0  0  0  0  0  0  0  0  0
    8.2519    3.4155   24.4307 H   0  0  0  0  0  0  0  0  0  0  0  0
    8.6175    5.0476   23.8669 H   0  0  0  0  0  0  0  0  0  0  0  0
    8.2342    3.6300   22.2751 C   0  0  0  0  0  0  0  0  0  0  0  0
    8.6783    4.3070   21.5392 H   0  0  0  0  0  0  0  0  0  0  0  0
    7.1543    3.8216   22.2396 H   0  0  0  0  0  0  0  0  0  0  0  0
    5.4462    0.6526   20.1641 C   0  0  0  0  0  0  0  0  0  0  0  0
    5.0092    0.6246   21.1606 H   0  0  0  0  0  0  0  0  0  0  0  0
    4.8060    1.3107   19.1097 C   0  0  0  0  0  0  0  0  0  0  0  0
    3.8723    1.8446   19.2685 H   0  0  0  0  0  0  0  0  0  0  0  0
  1  2  1  0
  2  3  2  0
  3  4  1  0
  4  5  1  0
  4  6  2  0
  6  7  1  0
  7  8  1  0
  8  9  2  0
  9 10  1  0
 10 11  2  0
 11 12  1  0
 12 13  1  0
 12 14  1  0
 12 15  1  0
 15 16  1  0
 15 17  1  0
 17 18  1  0
 17 19  1  0
 17 20  1  0
 20 21  1  0
 20 22  1  0
 20 23  1  0
 23 24  1  0
 23 25  1  0
 23 26  1  0
 26 27  1  0
 26 28  1  0
 26 29  1  0
 29 30  1  0
 29 31  1  0
  6 32  1  0
 32 33  1  0
 32 34  2  0
 34 35  1  0
 34  2  1  0
 11  7  1  0
 29 15  1  0
M  END
>  <cnnaffinity>  (1) 
-5.31049

>  <filename>  (1) 
c1cncc(-n2nnnc2CC2CCCCC2)c1

$$$$
