
     RDKit          3D

 33 36  0  0  0  0  0  0  0  0999 V2000
    4.9689    1.8127   16.9690 H   0  0  0  0  0  0  0  0  0  0  0  0
    5.4132    1.2888   17.8122 C   0  0  0  0  0  0  0  0  0  0  0  0
    6.5628    0.6369   17.5781 N   0  0  0  0  0  0  0  0  0  0  0  0
    7.1431    0.0113   18.6072 C   0  0  0  0  0  0  0  0  0  0  0  0
    8.0693   -0.5166   18.3852 H   0  0  0  0  0  0  0  0  0  0  0  0
    6.6362    0.0330   19.9177 C   0  0  0  0  0  0  0  0  0  0  0  0
    7.3924   -0.6226   20.9838 C   0  0  0  0  0  0  0  0  0  0  0  0
    7.8660   -1.9024   20.8066 N   0  0  0  0  0  0  0  0  0  0  0  0
    8.4099   -2.1982   21.9570 C   0  0  0  0  0  0  0  0  0  0  0  0
    9.1949   -3.5832   22.6781 S   0  0  0  0  0  0  0  0  0  0  0  0
    9.5638   -2.6407   24.1102 C   0  0  0  0  0  0  0  0  0  0  0  0
   10.2119   -3.0436   24.8785 H   0  0  0  0  0  0  0  0  0  0  0  0
    9.0356   -1.4093   24.0519 C   0  0  0  0  0  0  0  0  0  0  0  0
    9.0588   -0.6225   24.7930 H   0  0  0  0  0  0  0  0  0  0  0  0
    8.3828   -1.1609   22.8521 N   0  0  0  0  0  0  0  0  0  0  0  0
    7.7247   -0.1161   22.2346 C   0  0  0  0  0  0  0  0  0  0  0  0
    7.5788    1.2344   22.8730 C   0  0  0  0  0  0  0  0  0  0  0  0
    6.9708    1.8444   22.1975 H   0  0  0  0  0  0  0  0  0  0  0  0
    8.5691    1.7109   22.9150 H   0  0  0  0  0  0  0  0  0  0  0  0
    6.9085    1.2082   24.2448 C   0  0  0  0  0  0  0  0  0  0  0  0
    5.5893    0.7318   24.3427 C   0  0  0  0  0  0  0  0  0  0  0  0
    5.0329    0.5147   23.4364 H   0  0  0  0  0  0  0  0  0  0  0  0
    4.9140    0.5571   25.4847 N   0  0  0  0  0  0  0  0  0  0  0  0
    5.5394    0.8954   26.6204 C   0  0  0  0  0  0  0  0  0  0  0  0
    5.0110    0.7097   27.5574 H   0  0  0  0  0  0  0  0  0  0  0  0
    6.8101    1.4739   26.6448 C   0  0  0  0  0  0  0  0  0  0  0  0
    7.2359    1.8073   27.5863 H   0  0  0  0  0  0  0  0  0  0  0  0
    7.5105    1.6301   25.4429 C   0  0  0  0  0  0  0  0  0  0  0  0
    8.5054    2.0852   25.4706 H   0  0  0  0  0  0  0  0  0  0  0  0
    5.4097    0.6837   20.1318 C   0  0  0  0  0  0  0  0  0  0  0  0
    4.9351    0.6764   21.1146 H   0  0  0  0  0  0  0  0  0  0  0  0
    4.7881    1.3194   19.0612 C   0  0  0  0  0  0  0  0  0  0  0  0
    3.8535    1.8524   19.1870 H   0  0  0  0  0  0  0  0  0  0  0  0
  1  2  1  0
  2  3  2  0
  3  4  1  0
  4  5  1  0
  4  6  2  0
  6  7  1  0
  7  8  1  0
  8  9  2  0
  9 10  1  0
 10 11  1  0
 11 12  1  0
 11 13  2  0
 13 14  1  0
 13 15  1  0
 15 16  1  0
 16 17  1  0
 17 18  1  0
 17 19  1  0
 17 20  1  0
 20 21  2  0
 21 22  1  0
 21 23  1  0
 23 24  2  0
 24 25  1  0
 24 26  1  0
 26 27  1  0
 26 28  2  0
 28 29  1  0
  6 30  1  0
 30 31  1  0
 30 32  2  0
 32 33  1  0
 32  2  1  0
 16  7  2  0
 28 20  1  0
 15  9  1  0
M  END
>  <cnnaffinity>  (1) 
-5.80141

>  <filename>  (1) 
c1cncc(Cc2c(-c3cccnc3)nc3sccn23)c1

$$$$
