
     RDKit          3D

 34 36  0  0  0  0  0  0  0  0999 V2000
    4.9994    1.8190   16.9554 H   0  0  0  0  0  0  0  0  0  0  0  0
    5.4323    1.2923   17.8042 C   0  0  0  0  0  0  0  0  0  0  0  0
    6.5865    0.6499   17.5659 N   0  0  0  0  0  0  0  0  0  0  0  0
    7.1525    0.0045   18.5901 C   0  0  0  0  0  0  0  0  0  0  0  0
    8.0874   -0.5136   18.3848 H   0  0  0  0  0  0  0  0  0  0  0  0
    6.6184   -0.0217   19.8877 C   0  0  0  0  0  0  0  0  0  0  0  0
    7.3562   -0.7219   20.9502 C   0  0  0  0  0  0  0  0  0  0  0  0
    7.9127   -1.9515   20.7252 N   0  0  0  0  0  0  0  0  0  0  0  0
    8.5128   -2.4636   21.7277 N   0  0  0  0  0  0  0  0  0  0  0  0
    8.4723   -1.4218   23.0586 S   0  0  0  0  0  0  0  0  0  0  0  0
    7.5957   -0.2416   22.2120 C   0  0  0  0  0  0  0  0  0  0  0  0
    7.2706    1.0853   22.8069 C   0  0  0  0  0  0  0  0  0  0  0  0
    6.3876    0.9697   23.4569 H   0  0  0  0  0  0  0  0  0  0  0  0
    6.9767    1.7886   22.0029 H   0  0  0  0  0  0  0  0  0  0  0  0
    8.3659    1.6155   23.6060 N   0  0  0  0  0  0  0  0  0  0  0  0
    9.5163    2.0028   22.7632 C   0  0  0  0  0  0  0  0  0  0  0  0
    9.8587    1.1209   22.2040 H   0  0  0  0  0  0  0  0  0  0  0  0
    9.2289    2.7572   21.9967 H   0  0  0  0  0  0  0  0  0  0  0  0
   10.6421    2.5894   23.6173 C   0  0  0  0  0  0  0  0  0  0  0  0
   11.4996    2.8372   22.9794 H   0  0  0  0  0  0  0  0  0  0  0  0
   10.9673    1.8369   24.3541 H   0  0  0  0  0  0  0  0  0  0  0  0
   10.1101    3.8133   24.3682 C   0  0  0  0  0  0  0  0  0  0  0  0
   10.9184    4.3390   24.8820 H   0  0  0  0  0  0  0  0  0  0  0  0
    9.6840    4.5413   23.6550 H   0  0  0  0  0  0  0  0  0  0  0  0
    9.0001    3.3340   25.3136 C   0  0  0  0  0  0  0  0  0  0  0  0
    9.3942    2.5823   26.0169 H   0  0  0  0  0  0  0  0  0  0  0  0
    8.5996    4.1743   25.8950 H   0  0  0  0  0  0  0  0  0  0  0  0
    7.8800    2.6961   24.4815 C   0  0  0  0  0  0  0  0  0  0  0  0
    7.1129    2.2711   25.1449 H   0  0  0  0  0  0  0  0  0  0  0  0
    7.3790    3.5059   23.9084 H   0  0  0  0  0  0  0  0  0  0  0  0
    5.3982    0.6340   20.1149 C   0  0  0  0  0  0  0  0  0  0  0  0
    4.9284    0.6124   21.1012 H   0  0  0  0  0  0  0  0  0  0  0  0
    4.7956    1.3037   19.0493 C   0  0  0  0  0  0  0  0  0  0  0  0
    3.8682    1.8514   19.1785 H   0  0  0  0  0  0  0  0  0  0  0  0
  1  2  1  0
  2  3  2  0
  3  4  1  0
  4  5  1  0
  4  6  2  0
  6  7  1  0
  7  8  1  0
  8  9  2  0
  9 10  1  0
 10 11  1  0
 11 12  1  0
 12 13  1  0
 12 14  1  0
 12 15  1  0
 15 16  1  0
 16 17  1  0
 16 18  1  0
 16 19  1  0
 19 20  1  0
 19 21  1  0
 19 22  1  0
 22 23  1  0
 22 24  1  0
 22 25  1  0
 25 26  1  0
 25 27  1  0
 25 28  1  0
 28 29  1  0
 28 30  1  0
  6 31  1  0
 31 32  1  0
 31 33  2  0
 33 34  1  0
 33  2  1  0
 11  7  2  0
 28 15  1  0
M  END
>  <cnnaffinity>  (1) 
-5.14522

>  <filename>  (1) 
c1cncc(-c2nnsc2CN2CCCCC2)c1

$$$$
