
     RDKit          3D

 36 39  0  0  0  0  0  0  0  0999 V2000
    4.9391    1.8674   17.0023 H   0  0  0  0  0  0  0  0  0  0  0  0
    5.4049    1.3165   17.8142 C   0  0  0  0  0  0  0  0  0  0  0  0
    6.5533    0.6861   17.5195 N   0  0  0  0  0  0  0  0  0  0  0  0
    7.1668    0.0311   18.5159 C   0  0  0  0  0  0  0  0  0  0  0  0
    8.0924   -0.4867   18.2682 H   0  0  0  0  0  0  0  0  0  0  0  0
    6.6821   -0.0340   19.8472 C   0  0  0  0  0  0  0  0  0  0  0  0
    7.3622   -0.7099   20.8684 N   0  0  0  0  0  0  0  0  0  0  0  0
    6.8216   -0.9412   21.6927 H   0  0  0  0  0  0  0  0  0  0  0  0
    8.7516   -0.6785   21.0854 C   0  0  0  0  0  0  0  0  0  0  0  0
    9.7268    0.2722   20.7045 C   0  0  0  0  0  0  0  0  0  0  0  0
    9.5685    1.1575   20.1154 H   0  0  0  0  0  0  0  0  0  0  0  0
   10.9419   -0.0576   21.1296 N   0  0  0  0  0  0  0  0  0  0  0  0
   10.7576   -1.2059   21.7981 N   0  0  0  0  0  0  0  0  0  0  0  0
   11.5657   -1.7440   22.0854 H   0  0  0  0  0  0  0  0  0  0  0  0
    9.4673   -1.6300   21.7945 C   0  0  0  0  0  0  0  0  0  0  0  0
    9.0157   -2.8316   22.4752 C   0  0  0  0  0  0  0  0  0  0  0  0
    7.9517   -3.5696   21.9313 C   0  0  0  0  0  0  0  0  0  0  0  0
    7.5598   -3.2740   20.9625 H   0  0  0  0  0  0  0  0  0  0  0  0
    7.4183   -4.6435   22.6387 C   0  0  0  0  0  0  0  0  0  0  0  0
    6.5899   -5.2238   22.2503 H   0  0  0  0  0  0  0  0  0  0  0  0
    7.9321   -4.9634   23.8975 C   0  0  0  0  0  0  0  0  0  0  0  0
    9.0765   -4.2839   24.3919 C   0  0  0  0  0  0  0  0  0  0  0  0
    9.6066   -3.2201   23.6873 C   0  0  0  0  0  0  0  0  0  0  0  0
   10.4520   -2.6803   24.1089 H   0  0  0  0  0  0  0  0  0  0  0  0
    9.6581   -4.6241   25.5859 O   0  0  0  0  0  0  0  0  0  0  0  0
    9.2504   -5.8944   26.1030 C   0  0  0  0  0  0  0  0  0  0  0  0
    9.6084   -5.9340   27.1335 H   0  0  0  0  0  0  0  0  0  0  0  0
    9.7172   -6.6977   25.5173 H   0  0  0  0  0  0  0  0  0  0  0  0
    7.7335   -6.0014   26.0066 C   0  0  0  0  0  0  0  0  0  0  0  0
    7.2759   -5.1750   26.5655 H   0  0  0  0  0  0  0  0  0  0  0  0
    7.3439   -6.9412   26.3890 H   0  0  0  0  0  0  0  0  0  0  0  0
    7.3292   -5.9457   24.6322 O   0  0  0  0  0  0  0  0  0  0  0  0
    5.4563    0.5899   20.1184 C   0  0  0  0  0  0  0  0  0  0  0  0
    5.0425    0.5528   21.1271 H   0  0  0  0  0  0  0  0  0  0  0  0
    4.8185    1.2838   19.0863 C   0  0  0  0  0  0  0  0  0  0  0  0
    3.8895    1.8152   19.2605 H   0  0  0  0  0  0  0  0  0  0  0  0
  1  2  1  0
  2  3  2  0
  3  4  1  0
  4  5  1  0
  4  6  2  0
  6  7  1  0
  7  8  1  0
  7  9  1  0
  9 10  1  0
 10 11  1  0
 10 12  2  0
 12 13  1  0
 13 14  1  0
 13 15  1  0
 15 16  1  0
 16 17  2  0
 17 18  1  0
 17 19  1  0
 19 20  1  0
 19 21  2  0
 21 22  1  0
 22 23  2  0
 23 24  1  0
 22 25  1  0
 25 26  1  0
 26 27  1  0
 26 28  1  0
 26 29  1  0
 29 30  1  0
 29 31  1  0
 29 32  1  0
  6 33  1  0
 33 34  1  0
 33 35  2  0
 35 36  1  0
 35  2  1  0
 15  9  2  0
 23 16  1  0
 32 21  1  0
M  END
>  <cnnaffinity>  (1) 
-5.66648

>  <filename>  (1) 
c1cncc(Nc2cn[nH]c2-c2ccc3c(c2)OCCO3)c1

$$$$
