
     RDKit          3D

 33 36  0  0  0  0  0  0  0  0999 V2000
    4.9828    1.7876   16.9678 H   0  0  0  0  0  0  0  0  0  0  0  0
    5.4369    1.2971   17.8287 C   0  0  0  0  0  0  0  0  0  0  0  0
    6.6181    0.6934   17.6201 N   0  0  0  0  0  0  0  0  0  0  0  0
    7.1814    0.0667   18.6629 C   0  0  0  0  0  0  0  0  0  0  0  0
    8.1418   -0.4066   18.4656 H   0  0  0  0  0  0  0  0  0  0  0  0
    6.6257    0.0057   19.9622 C   0  0  0  0  0  0  0  0  0  0  0  0
    7.2754   -0.7206   21.0890 C   0  0  0  0  0  0  0  0  0  0  0  0
    7.7187   -2.0690   21.1692 C   0  0  0  0  0  0  0  0  0  0  0  0
    7.6429   -2.8603   20.4447 H   0  0  0  0  0  0  0  0  0  0  0  0
    8.1994   -2.3707   22.3630 N   0  0  0  0  0  0  0  0  0  0  0  0
    8.0649   -1.2496   23.0704 N   0  0  0  0  0  0  0  0  0  0  0  0
    8.2838   -1.2398   24.0589 H   0  0  0  0  0  0  0  0  0  0  0  0
    7.5111   -0.2269   22.3784 C   0  0  0  0  0  0  0  0  0  0  0  0
    7.2318    1.0537   23.0762 C   0  0  0  0  0  0  0  0  0  0  0  0
    6.9374    0.9668   24.3674 N   0  0  0  0  0  0  0  0  0  0  0  0
    6.5611    2.0992   25.0238 C   0  0  0  0  0  0  0  0  0  0  0  0
    6.1252    1.9687   26.3782 C   0  0  0  0  0  0  0  0  0  0  0  0
    6.0920    0.9693   26.7946 H   0  0  0  0  0  0  0  0  0  0  0  0
    5.7465    3.0763   27.0999 C   0  0  0  0  0  0  0  0  0  0  0  0
    5.4077    2.9820   28.1301 H   0  0  0  0  0  0  0  0  0  0  0  0
    5.7892    4.3670   26.4994 C   0  0  0  0  0  0  0  0  0  0  0  0
    5.4960    5.2306   27.0855 H   0  0  0  0  0  0  0  0  0  0  0  0
    6.1849    4.5302   25.1916 C   0  0  0  0  0  0  0  0  0  0  0  0
    6.1998    5.5161   24.7287 H   0  0  0  0  0  0  0  0  0  0  0  0
    6.5739    3.3974   24.4144 C   0  0  0  0  0  0  0  0  0  0  0  0
    6.9699    3.4616   23.0460 C   0  0  0  0  0  0  0  0  0  0  0  0
    6.9925    4.4205   22.5318 H   0  0  0  0  0  0  0  0  0  0  0  0
    7.2966    2.3004   22.3829 C   0  0  0  0  0  0  0  0  0  0  0  0
    7.5976    2.3008   21.3420 H   0  0  0  0  0  0  0  0  0  0  0  0
    5.4011    0.6647   20.1502 C   0  0  0  0  0  0  0  0  0  0  0  0
    4.9559    0.6851   21.1449 H   0  0  0  0  0  0  0  0  0  0  0  0
    4.7917    1.3082   19.0686 C   0  0  0  0  0  0  0  0  0  0  0  0
    3.8409    1.8212   19.1758 H   0  0  0  0  0  0  0  0  0  0  0  0
  1  2  1  0
  2  3  2  0
  3  4  1  0
  4  5  1  0
  4  6  2  0
  6  7  1  0
  7  8  1  0
  8  9  1  0
  8 10  2  0
 10 11  1  0
 11 12  1  0
 11 13  1  0
 13 14  1  0
 14 15  2  0
 15 16  1  0
 16 17  2  0
 17 18  1  0
 17 19  1  0
 19 20  1  0
 19 21  2  0
 21 22  1  0
 21 23  1  0
 23 24  1  0
 23 25  2  0
 25 26  1  0
 26 27  1  0
 26 28  2  0
 28 29  1  0
  6 30  1  0
 30 31  1  0
 30 32  2  0
 32 33  1  0
 32  2  1  0
 13  7  2  0
 28 14  1  0
 25 16  1  0
M  END
>  <cnnaffinity>  (1) 
-5.11095

>  <filename>  (1) 
c1cncc(-c2cn[nH]c2-c2ccc3ccccc3n2)c1

$$$$
