
     RDKit          3D

 41 43  0  0  0  0  0  0  0  0999 V2000
    4.9069    1.7797   16.9962 H   0  0  0  0  0  0  0  0  0  0  0  0
    5.3990    1.2948   17.8367 C   0  0  0  0  0  0  0  0  0  0  0  0
    6.5647    0.6814   17.5724 N   0  0  0  0  0  0  0  0  0  0  0  0
    7.1822    0.0697   18.5956 C   0  0  0  0  0  0  0  0  0  0  0  0
    8.1257   -0.4259   18.3721 H   0  0  0  0  0  0  0  0  0  0  0  0
    6.6756   -0.0000   19.9197 C   0  0  0  0  0  0  0  0  0  0  0  0
    7.3525   -0.6710   20.9391 N   0  0  0  0  0  0  0  0  0  0  0  0
    6.6162   -1.4471   21.9361 C   0  0  0  0  0  0  0  0  0  0  0  0
    5.6889   -1.8226   21.4862 H   0  0  0  0  0  0  0  0  0  0  0  0
    6.3257   -0.8072   22.7849 H   0  0  0  0  0  0  0  0  0  0  0  0
    7.4592   -2.6309   22.4186 C   0  0  0  0  0  0  0  0  0  0  0  0
    7.6135   -3.2996   21.5641 H   0  0  0  0  0  0  0  0  0  0  0  0
    6.8712   -3.2093   23.1380 H   0  0  0  0  0  0  0  0  0  0  0  0
    8.8358   -2.2038   22.9984 C   0  0  0  0  0  0  0  0  0  0  0  0
    9.5721   -2.9132   22.5912 H   0  0  0  0  0  0  0  0  0  0  0  0
    8.9397   -2.2905   24.5397 C   0  0  0  0  0  0  0  0  0  0  0  0
    9.8968   -1.8182   24.8234 H   0  0  0  0  0  0  0  0  0  0  0  0
    9.0194   -3.7514   25.0270 C   0  0  0  0  0  0  0  0  0  0  0  0
    8.1189   -4.3009   24.7188 H   0  0  0  0  0  0  0  0  0  0  0  0
    9.8765   -4.2606   24.5682 H   0  0  0  0  0  0  0  0  0  0  0  0
    9.1220   -3.8292   26.5525 C   0  0  0  0  0  0  0  0  0  0  0  0
   10.0719   -3.3963   26.8729 H   0  0  0  0  0  0  0  0  0  0  0  0
    9.1379   -4.8700   26.8902 H   0  0  0  0  0  0  0  0  0  0  0  0
    8.0529   -3.1044   27.2447 N   0  0  0  0  0  0  0  0  0  0  0  0
    7.1765   -3.5377   26.9606 H   0  0  0  0  0  0  0  0  0  0  0  0
    7.9921   -1.7010   26.8196 C   0  0  0  0  0  0  0  0  0  0  0  0
    8.9184   -1.2087   27.1462 H   0  0  0  0  0  0  0  0  0  0  0  0
    7.1773   -1.2007   27.3540 H   0  0  0  0  0  0  0  0  0  0  0  0
    7.8307   -1.5349   25.3027 C   0  0  0  0  0  0  0  0  0  0  0  0
    6.8412   -1.9311   25.0286 H   0  0  0  0  0  0  0  0  0  0  0  0
    7.8257   -0.4670   25.0522 H   0  0  0  0  0  0  0  0  0  0  0  0
    9.2667   -0.8103   22.4791 C   0  0  0  0  0  0  0  0  0  0  0  0
    8.8563   -0.0085   23.1061 H   0  0  0  0  0  0  0  0  0  0  0  0
   10.3559   -0.7149   22.5315 H   0  0  0  0  0  0  0  0  0  0  0  0
    8.8087   -0.5670   21.0439 C   0  0  0  0  0  0  0  0  0  0  0  0
    9.3048   -1.2777   20.3623 H   0  0  0  0  0  0  0  0  0  0  0  0
    9.1210    0.4367   20.7272 H   0  0  0  0  0  0  0  0  0  0  0  0
    5.4429    0.6416   20.1598 C   0  0  0  0  0  0  0  0  0  0  0  0
    5.0133    0.6225   21.1643 H   0  0  0  0  0  0  0  0  0  0  0  0
    4.8088    1.3104   19.1069 C   0  0  0  0  0  0  0  0  0  0  0  0
    3.8748    1.8416   19.2647 H   0  0  0  0  0  0  0  0  0  0  0  0
  1  2  1  0
  2  3  2  0
  3  4  1  0
  4  5  1  0
  4  6  2  0
  6  7  1  0
  7  8  1  0
  8  9  1  0
  8 10  1  0
  8 11  1  0
 11 12  1  0
 11 13  1  0
 11 14  1  0
 14 15  1  0
 14 16  1  0
 16 17  1  0
 16 18  1  0
 18 19  1  0
 18 20  1  0
 18 21  1  0
 21 22  1  0
 21 23  1  0
 21 24  1  0
 24 25  1  0
 24 26  1  0
 26 27  1  0
 26 28  1  0
 26 29  1  0
 29 30  1  0
 29 31  1  0
 14 32  1  0
 32 33  1  0
 32 34  1  0
 32 35  1  0
 35 36  1  0
 35 37  1  0
  6 38  1  0
 38 39  1  0
 38 40  2  0
 40 41  1  0
 40  2  1  0
 35  7  1  0
 29 16  1  0
M  END
>  <cnnaffinity>  (1) 
-4.77366

>  <filename>  (1) 
c1cncc(N2CCC(C3CCNCC3)CC2)c1

$$$$
