
     RDKit          3D

 36 38  0  0  0  0  0  0  0  0999 V2000
    4.9245    1.7853   16.9954 H   0  0  0  0  0  0  0  0  0  0  0  0
    5.4024    1.2946   17.8407 C   0  0  0  0  0  0  0  0  0  0  0  0
    6.5611    0.6690   17.5832 N   0  0  0  0  0  0  0  0  0  0  0  0
    7.1723    0.0514   18.6016 C   0  0  0  0  0  0  0  0  0  0  0  0
    8.1156   -0.4349   18.3650 H   0  0  0  0  0  0  0  0  0  0  0  0
    6.6548    0.0041   19.9072 C   0  0  0  0  0  0  0  0  0  0  0  0
    7.3577   -0.6771   20.9397 N   0  0  0  0  0  0  0  0  0  0  0  0
    6.7389   -1.6353   21.6739 N   0  0  0  0  0  0  0  0  0  0  0  0
    7.5874   -2.0923   22.5355 N   0  0  0  0  0  0  0  0  0  0  0  0
    8.7608   -1.4318   22.3808 C   0  0  0  0  0  0  0  0  0  0  0  0
    9.6131   -1.6114   23.0212 H   0  0  0  0  0  0  0  0  0  0  0  0
    8.6469   -0.5156   21.3673 C   0  0  0  0  0  0  0  0  0  0  0  0
    9.5960    0.5479   20.9359 C   0  0  0  0  0  0  0  0  0  0  0  0
   10.6079    0.1402   21.0322 H   0  0  0  0  0  0  0  0  0  0  0  0
    9.4595    0.7766   19.8744 H   0  0  0  0  0  0  0  0  0  0  0  0
    9.5094    1.8551   21.7619 C   0  0  0  0  0  0  0  0  0  0  0  0
   10.2499    2.5457   21.3238 H   0  0  0  0  0  0  0  0  0  0  0  0
    9.8678    1.6676   23.2443 C   0  0  0  0  0  0  0  0  0  0  0  0
    9.1437    0.9820   23.7066 H   0  0  0  0  0  0  0  0  0  0  0  0
   10.8506    1.1908   23.3319 H   0  0  0  0  0  0  0  0  0  0  0  0
    9.8351    2.9997   24.0030 C   0  0  0  0  0  0  0  0  0  0  0  0
   10.6302    3.6489   23.6119 H   0  0  0  0  0  0  0  0  0  0  0  0
   10.0607    2.8316   25.0607 H   0  0  0  0  0  0  0  0  0  0  0  0
    8.4800    3.7101   23.8481 C   0  0  0  0  0  0  0  0  0  0  0  0
    8.4967    4.6806   24.3593 H   0  0  0  0  0  0  0  0  0  0  0  0
    7.7061    3.1129   24.3499 H   0  0  0  0  0  0  0  0  0  0  0  0
    8.0894    3.8779   22.3679 C   0  0  0  0  0  0  0  0  0  0  0  0
    8.7873    4.5843   21.9019 H   0  0  0  0  0  0  0  0  0  0  0  0
    7.0996    4.3406   22.2804 H   0  0  0  0  0  0  0  0  0  0  0  0
    8.1326    2.5233   21.6374 C   0  0  0  0  0  0  0  0  0  0  0  0
    7.3493    1.8773   22.0585 H   0  0  0  0  0  0  0  0  0  0  0  0
    7.8886    2.5659   20.5775 H   0  0  0  0  0  0  0  0  0  0  0  0
    5.4377    0.6437   20.1693 C   0  0  0  0  0  0  0  0  0  0  0  0
    5.0119    0.6113   21.1776 H   0  0  0  0  0  0  0  0  0  0  0  0
    4.8124    1.3090   19.1105 C   0  0  0  0  0  0  0  0  0  0  0  0
    3.8811    1.8388   19.2582 H   0  0  0  0  0  0  0  0  0  0  0  0
  1  2  1  0
  2  3  2  0
  3  4  1  0
  4  5  1  0
  4  6  2  0
  6  7  1  0
  7  8  1  0
  8  9  2  0
  9 10  1  0
 10 11  1  0
 10 12  2  0
 12 13  1  0
 13 14  1  0
 13 15  1  0
 13 16  1  0
 16 17  1  0
 16 18  1  0
 18 19  1  0
 18 20  1  0
 18 21  1  0
 21 22  1  0
 21 23  1  0
 21 24  1  0
 24 25  1  0
 24 26  1  0
 24 27  1  0
 27 28  1  0
 27 29  1  0
 27 30  1  0
 30 31  1  0
 30 32  1  0
  6 33  1  0
 33 34  1  0
 33 35  2  0
 35 36  1  0
 35  2  1  0
 12  7  1  0
 30 16  1  0
M  END
>  <cnnaffinity>  (1) 
-5.29582

>  <filename>  (1) 
c1cncc(-n2nncc2CC2CCCCC2)c1

$$$$
