
     RDKit          3D

 39 41  0  0  0  0  0  0  0  0999 V2000
    4.9117    1.7929   16.9877 H   0  0  0  0  0  0  0  0  0  0  0  0
    5.3953    1.3000   17.8291 C   0  0  0  0  0  0  0  0  0  0  0  0
    6.5557    0.6815   17.5616 N   0  0  0  0  0  0  0  0  0  0  0  0
    7.1738    0.0687   18.5792 C   0  0  0  0  0  0  0  0  0  0  0  0
    8.1136   -0.4318   18.3575 H   0  0  0  0  0  0  0  0  0  0  0  0
    6.6693    0.0190   19.8968 C   0  0  0  0  0  0  0  0  0  0  0  0
    7.3537   -0.6593   20.9575 N   0  0  0  0  0  0  0  0  0  0  0  0
    6.8346   -1.6198   21.7959 C   0  0  0  0  0  0  0  0  0  0  0  0
    5.8278   -1.9941   21.6911 H   0  0  0  0  0  0  0  0  0  0  0  0
    7.7176   -2.0166   22.6690 N   0  0  0  0  0  0  0  0  0  0  0  0
    8.8637   -1.2931   22.4424 N   0  0  0  0  0  0  0  0  0  0  0  0
    8.6347   -0.4823   21.4434 C   0  0  0  0  0  0  0  0  0  0  0  0
    9.5611    0.5656   20.9273 C   0  0  0  0  0  0  0  0  0  0  0  0
   10.5379    0.3891   21.3894 H   0  0  0  0  0  0  0  0  0  0  0  0
    9.6710    0.4271   19.8493 H   0  0  0  0  0  0  0  0  0  0  0  0
    9.0729    2.0049   21.1892 C   0  0  0  0  0  0  0  0  0  0  0  0
    8.2014    2.2035   20.5511 H   0  0  0  0  0  0  0  0  0  0  0  0
    9.8584    2.7063   20.8792 H   0  0  0  0  0  0  0  0  0  0  0  0
    8.7038    2.2965   22.6479 C   0  0  0  0  0  0  0  0  0  0  0  0
    7.9543    1.5545   22.9694 H   0  0  0  0  0  0  0  0  0  0  0  0
    9.9021    2.1567   23.5974 C   0  0  0  0  0  0  0  0  0  0  0  0
   10.3168    1.1417   23.5557 H   0  0  0  0  0  0  0  0  0  0  0  0
   10.7058    2.8300   23.2639 H   0  0  0  0  0  0  0  0  0  0  0  0
    9.5267    2.4935   25.0429 C   0  0  0  0  0  0  0  0  0  0  0  0
   10.4098    2.3590   25.6677 H   0  0  0  0  0  0  0  0  0  0  0  0
    8.8162    1.7479   25.4235 H   0  0  0  0  0  0  0  0  0  0  0  0
    8.9015    3.8943   25.1659 C   0  0  0  0  0  0  0  0  0  0  0  0
    9.6444    4.6572   24.8929 H   0  0  0  0  0  0  0  0  0  0  0  0
    8.6119    4.1075   26.2028 H   0  0  0  0  0  0  0  0  0  0  0  0
    7.6893    4.0286   24.2292 C   0  0  0  0  0  0  0  0  0  0  0  0
    6.9002    3.3424   24.5670 H   0  0  0  0  0  0  0  0  0  0  0  0
    7.2616    5.0369   24.2849 H   0  0  0  0  0  0  0  0  0  0  0  0
    8.0579    3.6860   22.7794 C   0  0  0  0  0  0  0  0  0  0  0  0
    7.1686    3.7394   22.1385 H   0  0  0  0  0  0  0  0  0  0  0  0
    8.7611    4.4384   22.3929 H   0  0  0  0  0  0  0  0  0  0  0  0
    5.4442    0.6476   20.1579 C   0  0  0  0  0  0  0  0  0  0  0  0
    5.0288    0.6238   21.1700 H   0  0  0  0  0  0  0  0  0  0  0  0
    4.8105    1.3103   19.1011 C   0  0  0  0  0  0  0  0  0  0  0  0
    3.8793    1.8388   19.2568 H   0  0  0  0  0  0  0  0  0  0  0  0
  1  2  1  0
  2  3  2  0
  3  4  1  0
  4  5  1  0
  4  6  2  0
  6  7  1  0
  7  8  1  0
  8  9  1  0
  8 10  2  0
 10 11  1  0
 11 12  2  0
 12 13  1  0
 13 14  1  0
 13 15  1  0
 13 16  1  0
 16 17  1  0
 16 18  1  0
 16 19  1  0
 19 20  1  0
 19 21  1  0
 21 22  1  0
 21 23  1  0
 21 24  1  0
 24 25  1  0
 24 26  1  0
 24 27  1  0
 27 28  1  0
 27 29  1  0
 27 30  1  0
 30 31  1  0
 30 32  1  0
 30 33  1  0
 33 34  1  0
 33 35  1  0
  6 36  1  0
 36 37  1  0
 36 38  2  0
 38 39  1  0
 38  2  1  0
 12  7  1  0
 33 19  1  0
M  END
>  <cnnaffinity>  (1) 
-5.09544

>  <filename>  (1) 
c1cncc(-n2cnnc2CCC2CCCCC2)c1

$$$$
