
     RDKit          3D

 30 33  0  0  0  0  0  0  0  0999 V2000
    4.9216    1.7777   17.0021 H   0  0  0  0  0  0  0  0  0  0  0  0
    5.4059    1.2910   17.8430 C   0  0  0  0  0  0  0  0  0  0  0  0
    6.5719    0.6765   17.5829 N   0  0  0  0  0  0  0  0  0  0  0  0
    7.1689    0.0444   18.5949 C   0  0  0  0  0  0  0  0  0  0  0  0
    8.1202   -0.4381   18.3762 H   0  0  0  0  0  0  0  0  0  0  0  0
    6.6440    0.0080   19.8919 C   0  0  0  0  0  0  0  0  0  0  0  0
    7.3530   -0.6907   20.9442 C   0  0  0  0  0  0  0  0  0  0  0  0
    7.8586   -1.9587   20.7599 N   0  0  0  0  0  0  0  0  0  0  0  0
    8.3155   -2.2773   21.9356 C   0  0  0  0  0  0  0  0  0  0  0  0
    9.1212   -3.6602   22.6249 S   0  0  0  0  0  0  0  0  0  0  0  0
    9.3057   -2.8180   24.1488 C   0  0  0  0  0  0  0  0  0  0  0  0
    9.8159   -3.3116   24.9641 H   0  0  0  0  0  0  0  0  0  0  0  0
    8.7542   -1.5948   24.1303 C   0  0  0  0  0  0  0  0  0  0  0  0
    8.7233   -0.8744   24.9413 H   0  0  0  0  0  0  0  0  0  0  0  0
    8.1787   -1.2970   22.8932 N   0  0  0  0  0  0  0  0  0  0  0  0
    7.5918   -0.2224   22.2387 C   0  0  0  0  0  0  0  0  0  0  0  0
    7.4313    1.0014   22.8207 N   0  0  0  0  0  0  0  0  0  0  0  0
    7.4220    1.0513   23.8258 H   0  0  0  0  0  0  0  0  0  0  0  0
    7.4482    2.2296   22.0953 C   0  0  0  0  0  0  0  0  0  0  0  0
    7.9992    2.1847   21.1584 H   0  0  0  0  0  0  0  0  0  0  0  0
    7.5021    3.4931   22.8798 C   0  0  0  0  0  0  0  0  0  0  0  0
    7.5281    3.4167   23.9615 H   0  0  0  0  0  0  0  0  0  0  0  0
    8.0707    4.3245   22.4794 H   0  0  0  0  0  0  0  0  0  0  0  0
    6.2387    3.1060   22.1636 C   0  0  0  0  0  0  0  0  0  0  0  0
    5.4183    2.7425   22.7729 H   0  0  0  0  0  0  0  0  0  0  0  0
    5.9583    3.6819   21.2900 H   0  0  0  0  0  0  0  0  0  0  0  0
    5.4319    0.6631   20.1582 C   0  0  0  0  0  0  0  0  0  0  0  0
    5.0141    0.6435   21.1696 H   0  0  0  0  0  0  0  0  0  0  0  0
    4.8012    1.3106   19.1045 C   0  0  0  0  0  0  0  0  0  0  0  0
    3.8710    1.8431   19.2568 H   0  0  0  0  0  0  0  0  0  0  0  0
  1  2  1  0
  2  3  2  0
  3  4  1  0
  4  5  1  0
  4  6  2  0
  6  7  1  0
  7  8  1  0
  8  9  2  0
  9 10  1  0
 10 11  1  0
 11 12  1  0
 11 13  2  0
 13 14  1  0
 13 15  1  0
 15 16  1  0
 16 17  1  0
 17 18  1  0
 17 19  1  0
 19 20  1  0
 19 21  1  0
 21 22  1  0
 21 23  1  0
 21 24  1  0
 24 25  1  0
 24 26  1  0
  6 27  1  0
 27 28  1  0
 27 29  2  0
 29 30  1  0
 29  2  1  0
 16  7  2  0
 24 19  1  0
 15  9  1  0
M  END
>  <cnnaffinity>  (1) 
-5.19714

>  <filename>  (1) 
c1cncc(-c2nc3sccn3c2NC2CC2)c1

$$$$
