
     RDKit          3D

 38 40  0  0  0  0  0  0  0  0999 V2000
    4.9172    1.7812   16.9947 H   0  0  0  0  0  0  0  0  0  0  0  0
    5.4016    1.2962   17.8357 C   0  0  0  0  0  0  0  0  0  0  0  0
    6.5651    0.6789   17.5729 N   0  0  0  0  0  0  0  0  0  0  0  0
    7.1724    0.0679   18.5920 C   0  0  0  0  0  0  0  0  0  0  0  0
    8.1143   -0.4351   18.3667 H   0  0  0  0  0  0  0  0  0  0  0  0
    6.6552    0.0264   19.8908 C   0  0  0  0  0  0  0  0  0  0  0  0
    7.3451   -0.6818   20.9702 C   0  0  0  0  0  0  0  0  0  0  0  0
    6.7989   -1.5694   21.7743 N   0  0  0  0  0  0  0  0  0  0  0  0
    7.7572   -1.9194   22.6555 N   0  0  0  0  0  0  0  0  0  0  0  0
    8.8447   -1.2705   22.4365 N   0  0  0  0  0  0  0  0  0  0  0  0
    8.6208   -0.4861   21.3675 N   0  0  0  0  0  0  0  0  0  0  0  0
    9.5929    0.4837   20.8823 C   0  0  0  0  0  0  0  0  0  0  0  0
   10.5480    0.2596   21.3663 H   0  0  0  0  0  0  0  0  0  0  0  0
    9.7039    0.3044   19.8135 H   0  0  0  0  0  0  0  0  0  0  0  0
    9.2022    1.9448   21.1245 C   0  0  0  0  0  0  0  0  0  0  0  0
    9.9679    2.5694   20.6507 H   0  0  0  0  0  0  0  0  0  0  0  0
    8.2547    2.1588   20.6085 H   0  0  0  0  0  0  0  0  0  0  0  0
    9.1267    2.3516   22.6021 C   0  0  0  0  0  0  0  0  0  0  0  0
    9.8536    1.7378   23.1602 H   0  0  0  0  0  0  0  0  0  0  0  0
    9.5412    3.8257   22.7907 C   0  0  0  0  0  0  0  0  0  0  0  0
    8.8806    4.4612   22.1820 H   0  0  0  0  0  0  0  0  0  0  0  0
   10.5601    3.9817   22.4075 H   0  0  0  0  0  0  0  0  0  0  0  0
    9.4666    4.2708   24.2528 C   0  0  0  0  0  0  0  0  0  0  0  0
    9.7318    5.3311   24.3416 H   0  0  0  0  0  0  0  0  0  0  0  0
   10.2146    3.7107   24.8285 H   0  0  0  0  0  0  0  0  0  0  0  0
    8.0776    4.0121   24.8482 C   0  0  0  0  0  0  0  0  0  0  0  0
    7.3467    4.6543   24.3377 H   0  0  0  0  0  0  0  0  0  0  0  0
    8.0560    4.2927   25.9081 H   0  0  0  0  0  0  0  0  0  0  0  0
    7.6589    2.5467   24.6738 C   0  0  0  0  0  0  0  0  0  0  0  0
    6.6442    2.3916   25.0590 H   0  0  0  0  0  0  0  0  0  0  0  0
    8.3205    1.9063   25.2734 H   0  0  0  0  0  0  0  0  0  0  0  0
    7.7388    2.1010   23.2113 C   0  0  0  0  0  0  0  0  0  0  0  0
    6.9948    2.6605   22.6248 H   0  0  0  0  0  0  0  0  0  0  0  0
    7.4629    1.0453   23.1238 H   0  0  0  0  0  0  0  0  0  0  0  0
    5.4304    0.6573   20.1517 C   0  0  0  0  0  0  0  0  0  0  0  0
    4.9993    0.6209   21.1616 H   0  0  0  0  0  0  0  0  0  0  0  0
    4.8045    1.3167   19.1009 C   0  0  0  0  0  0  0  0  0  0  0  0
    3.8701    1.8465   19.2555 H   0  0  0  0  0  0  0  0  0  0  0  0
  1  2  1  0
  2  3  2  0
  3  4  1  0
  4  5  1  0
  4  6  2  0
  6  7  1  0
  7  8  2  0
  8  9  1  0
  9 10  2  0
 10 11  1  0
 11 12  1  0
 12 13  1  0
 12 14  1  0
 12 15  1  0
 15 16  1  0
 15 17  1  0
 15 18  1  0
 18 19  1  0
 18 20  1  0
 20 21  1  0
 20 22  1  0
 20 23  1  0
 23 24  1  0
 23 25  1  0
 23 26  1  0
 26 27  1  0
 26 28  1  0
 26 29  1  0
 29 30  1  0
 29 31  1  0
 29 32  1  0
 32 33  1  0
 32 34  1  0
  6 35  1  0
 35 36  1  0
 35 37  2  0
 37 38  1  0
 37  2  1  0
 11  7  1  0
 32 18  1  0
M  END
>  <cnnaffinity>  (1) 
-5.05522

>  <filename>  (1) 
c1cncc(-c2nnnn2CCC2CCCCC2)c1

$$$$
