
     RDKit          3D

 39 41  0  0  0  0  0  0  0  0999 V2000
    4.9074    1.7924   16.9856 H   0  0  0  0  0  0  0  0  0  0  0  0
    5.3894    1.3040   17.8263 C   0  0  0  0  0  0  0  0  0  0  0  0
    6.5552    0.6927   17.5528 N   0  0  0  0  0  0  0  0  0  0  0  0
    7.1736    0.0856   18.5715 C   0  0  0  0  0  0  0  0  0  0  0  0
    8.1142   -0.4203   18.3612 H   0  0  0  0  0  0  0  0  0  0  0  0
    6.6737    0.0063   19.8926 C   0  0  0  0  0  0  0  0  0  0  0  0
    7.3874   -0.7386   20.8561 N   0  0  0  0  0  0  0  0  0  0  0  0
    6.6913   -1.6697   21.7302 C   0  0  0  0  0  0  0  0  0  0  0  0
    7.2274   -2.6317   21.7218 H   0  0  0  0  0  0  0  0  0  0  0  0
    5.7007   -1.8641   21.3043 H   0  0  0  0  0  0  0  0  0  0  0  0
    6.5305   -1.2457   23.1908 C   0  0  0  0  0  0  0  0  0  0  0  0
    5.9005   -1.9850   23.6989 H   0  0  0  0  0  0  0  0  0  0  0  0
    6.0180   -0.2705   23.2442 H   0  0  0  0  0  0  0  0  0  0  0  0
    7.8238   -1.1766   23.8811 N   0  0  0  0  0  0  0  0  0  0  0  0
    7.7577   -1.6723   25.1748 N   0  0  0  0  0  0  0  0  0  0  0  0
    7.1680   -1.2241   25.8620 H   0  0  0  0  0  0  0  0  0  0  0  0
    8.3898   -2.8187   25.5761 C   0  0  0  0  0  0  0  0  0  0  0  0
    8.2442   -3.2564   26.9011 C   0  0  0  0  0  0  0  0  0  0  0  0
    7.6286   -2.7089   27.6000 H   0  0  0  0  0  0  0  0  0  0  0  0
    8.9132   -4.4079   27.2831 C   0  0  0  0  0  0  0  0  0  0  0  0
    8.8243   -4.7845   28.2978 H   0  0  0  0  0  0  0  0  0  0  0  0
    9.6921   -5.1336   26.4781 N   0  0  0  0  0  0  0  0  0  0  0  0
    9.8147   -4.7034   25.2222 C   0  0  0  0  0  0  0  0  0  0  0  0
   10.4480   -5.3063   24.5782 H   0  0  0  0  0  0  0  0  0  0  0  0
    9.1943   -3.5739   24.7193 C   0  0  0  0  0  0  0  0  0  0  0  0
    9.3225   -3.2627   23.6965 H   0  0  0  0  0  0  0  0  0  0  0  0
    8.4476    0.1532   23.8609 C   0  0  0  0  0  0  0  0  0  0  0  0
    7.8599    0.8521   24.4873 H   0  0  0  0  0  0  0  0  0  0  0  0
    9.4167    0.0237   24.3481 H   0  0  0  0  0  0  0  0  0  0  0  0
    8.6276    0.7650   22.4568 C   0  0  0  0  0  0  0  0  0  0  0  0
    9.5445    1.3677   22.4666 H   0  0  0  0  0  0  0  0  0  0  0  0
    7.8156    1.4712   22.2425 H   0  0  0  0  0  0  0  0  0  0  0  0
    8.6921   -0.2492   21.2997 C   0  0  0  0  0  0  0  0  0  0  0  0
    9.3051   -1.1110   21.5934 H   0  0  0  0  0  0  0  0  0  0  0  0
    9.1808    0.2112   20.4343 H   0  0  0  0  0  0  0  0  0  0  0  0
    5.4458    0.6444   20.1527 C   0  0  0  0  0  0  0  0  0  0  0  0
    5.0226    0.6151   21.1584 H   0  0  0  0  0  0  0  0  0  0  0  0
    4.8086    1.3146   19.1003 C   0  0  0  0  0  0  0  0  0  0  0  0
    3.8748    1.8403   19.2568 H   0  0  0  0  0  0  0  0  0  0  0  0
  1  2  1  0
  2  3  2  0
  3  4  1  0
  4  5  1  0
  4  6  2  0
  6  7  1  0
  7  8  1  0
  8  9  1  0
  8 10  1  0
  8 11  1  0
 11 12  1  0
 11 13  1  0
 11 14  1  0
 14 15  1  0
 15 16  1  0
 15 17  1  0
 17 18  2  0
 18 19  1  0
 18 20  1  0
 20 21  1  0
 20 22  2  0
 22 23  1  0
 23 24  1  0
 23 25  2  0
 25 26  1  0
 14 27  1  0
 27 28  1  0
 27 29  1  0
 27 30  1  0
 30 31  1  0
 30 32  1  0
 30 33  1  0
 33 34  1  0
 33 35  1  0
  6 36  1  0
 36 37  1  0
 36 38  2  0
 38 39  1  0
 38  2  1  0
 33  7  1  0
 25 17  1  0
M  END
>  <cnnaffinity>  (1) 
-4.7086

>  <filename>  (1) 
c1cncc(N2CCCN(Nc3ccncc3)CC2)c1

$$$$
