
     RDKit          3D

 32 35  0  0  0  0  0  0  0  0999 V2000
    8.6192   -3.7064   21.4271 H   0  0  0  0  0  0  0  0  0  0  0  0
    8.3449   -2.6756   21.6443 C   0  0  0  0  0  0  0  0  0  0  0  0
    8.6098   -2.2342   22.8736 N   0  0  0  0  0  0  0  0  0  0  0  0
    8.2709   -0.9738   23.1288 C   0  0  0  0  0  0  0  0  0  0  0  0
    8.5155   -0.6052   24.1282 H   0  0  0  0  0  0  0  0  0  0  0  0
    7.6684   -0.1297   22.1970 C   0  0  0  0  0  0  0  0  0  0  0  0
    7.3896    1.2964   22.5311 C   0  0  0  0  0  0  0  0  0  0  0  0
    7.8724    2.3354   21.6748 C   0  0  0  0  0  0  0  0  0  0  0  0
    8.4148    2.0308   20.7834 H   0  0  0  0  0  0  0  0  0  0  0  0
    7.6331    3.6699   21.9542 C   0  0  0  0  0  0  0  0  0  0  0  0
    8.0018    4.4757   21.3297 H   0  0  0  0  0  0  0  0  0  0  0  0
    6.8701    3.9568   23.1083 C   0  0  0  0  0  0  0  0  0  0  0  0
    6.3842    2.9486   23.9701 C   0  0  0  0  0  0  0  0  0  0  0  0
    5.7023    3.6693   24.9994 C   0  0  0  0  0  0  0  0  0  0  0  0
    5.1899    3.2783   25.8700 H   0  0  0  0  0  0  0  0  0  0  0  0
    5.7554    4.9699   24.7915 N   0  0  0  0  0  0  0  0  0  0  0  0
    6.4594    5.1366   23.6475 N   0  0  0  0  0  0  0  0  0  0  0  0
    6.6156    6.0590   23.2745 H   0  0  0  0  0  0  0  0  0  0  0  0
    6.6590    1.5939   23.6720 C   0  0  0  0  0  0  0  0  0  0  0  0
    6.3000    0.7843   24.3027 H   0  0  0  0  0  0  0  0  0  0  0  0
    7.3936   -0.7321   20.9514 C   0  0  0  0  0  0  0  0  0  0  0  0
    6.6380   -0.0259   19.9032 C   0  0  0  0  0  0  0  0  0  0  0  0
    7.1657    0.0234   18.6082 C   0  0  0  0  0  0  0  0  0  0  0  0
    8.1172   -0.4538   18.3724 H   0  0  0  0  0  0  0  0  0  0  0  0
    6.5775    0.6644   17.5946 N   0  0  0  0  0  0  0  0  0  0  0  0
    5.4131    1.2816   17.8485 C   0  0  0  0  0  0  0  0  0  0  0  0
    4.9467    1.7843   17.0046 H   0  0  0  0  0  0  0  0  0  0  0  0
    4.8049    1.2930   19.1087 C   0  0  0  0  0  0  0  0  0  0  0  0
    3.8790    1.8364   19.2483 H   0  0  0  0  0  0  0  0  0  0  0  0
    5.4286    0.6351   20.1652 C   0  0  0  0  0  0  0  0  0  0  0  0
    5.0153    0.6590   21.1787 H   0  0  0  0  0  0  0  0  0  0  0  0
    7.7782   -1.9786   20.6655 N   0  0  0  0  0  0  0  0  0  0  0  0
  1  2  1  0
  2  3  2  0
  3  4  1  0
  4  5  1  0
  4  6  2  0
  6  7  1  0
  7  8  2  0
  8  9  1  0
  8 10  1  0
 10 11  1  0
 10 12  2  0
 12 13  1  0
 13 14  1  0
 14 15  1  0
 14 16  2  0
 16 17  1  0
 17 18  1  0
 13 19  2  0
 19 20  1  0
  6 21  1  0
 21 22  1  0
 22 23  2  0
 23 24  1  0
 23 25  1  0
 25 26  2  0
 26 27  1  0
 26 28  1  0
 28 29  1  0
 28 30  2  0
 30 31  1  0
 21 32  2  0
 32  2  1  0
 19  7  1  0
 30 22  1  0
 17 12  1  0
M  END
>  <cnnaffinity>  (1) 
-4.90227

>  <filename>  (1) 
c1cncc(-c2ncncc2-c2ccc3[nH]ncc3c2)c1

$$$$
