
     RDKit          3D

 33 36  0  0  0  0  0  0  0  0999 V2000
    4.9110    1.8002   16.9784 H   0  0  0  0  0  0  0  0  0  0  0  0
    5.3877    1.3051   17.8207 C   0  0  0  0  0  0  0  0  0  0  0  0
    6.5520    0.6906   17.5517 N   0  0  0  0  0  0  0  0  0  0  0  0
    7.1581    0.0657   18.5669 C   0  0  0  0  0  0  0  0  0  0  0  0
    8.1157   -0.4002   18.3342 H   0  0  0  0  0  0  0  0  0  0  0  0
    6.6515    0.0129   19.8821 C   0  0  0  0  0  0  0  0  0  0  0  0
    7.3721   -0.6602   20.9708 C   0  0  0  0  0  0  0  0  0  0  0  0
    7.5146   -0.3265   22.3105 C   0  0  0  0  0  0  0  0  0  0  0  0
    7.0183    0.8279   22.9224 N   0  0  0  0  0  0  0  0  0  0  0  0
    6.9845    1.6404   22.3246 H   0  0  0  0  0  0  0  0  0  0  0  0
    6.8162    1.0277   24.2930 C   0  0  0  0  0  0  0  0  0  0  0  0
    6.3427   -0.0542   25.0972 C   0  0  0  0  0  0  0  0  0  0  0  0
    6.1742   -0.9988   24.5840 H   0  0  0  0  0  0  0  0  0  0  0  0
    6.1158    0.0938   26.4536 C   0  0  0  0  0  0  0  0  0  0  0  0
    5.7638   -0.7364   27.0583 H   0  0  0  0  0  0  0  0  0  0  0  0
    6.3603    1.3648   27.0131 C   0  0  0  0  0  0  0  0  0  0  0  0
    6.8159    2.4549   26.2344 C   0  0  0  0  0  0  0  0  0  0  0  0
    6.9154    3.5271   27.1713 C   0  0  0  0  0  0  0  0  0  0  0  0
    7.2241    4.5475   26.9839 H   0  0  0  0  0  0  0  0  0  0  0  0
    6.5643    3.1495   28.3815 N   0  0  0  0  0  0  0  0  0  0  0  0
    6.2320    1.8429   28.2797 N   0  0  0  0  0  0  0  0  0  0  0  0
    5.9264    1.3324   29.0950 H   0  0  0  0  0  0  0  0  0  0  0  0
    7.0393    2.2815   24.8430 C   0  0  0  0  0  0  0  0  0  0  0  0
    7.3969    3.0986   24.2229 H   0  0  0  0  0  0  0  0  0  0  0  0
    8.2905   -1.3776   22.8617 C   0  0  0  0  0  0  0  0  0  0  0  0
    8.6262   -1.4675   23.8857 H   0  0  0  0  0  0  0  0  0  0  0  0
    8.6076   -2.2914   21.9501 N   0  0  0  0  0  0  0  0  0  0  0  0
    8.0513   -1.8279   20.8204 N   0  0  0  0  0  0  0  0  0  0  0  0
    8.1342   -2.3665   19.9722 H   0  0  0  0  0  0  0  0  0  0  0  0
    5.4330    0.6618   20.1398 C   0  0  0  0  0  0  0  0  0  0  0  0
    5.0176    0.6270   21.1496 H   0  0  0  0  0  0  0  0  0  0  0  0
    4.7940    1.3186   19.0887 C   0  0  0  0  0  0  0  0  0  0  0  0
    3.8640    1.8490   19.2441 H   0  0  0  0  0  0  0  0  0  0  0  0
  1  2  1  0
  2  3  2  0
  3  4  1  0
  4  5  1  0
  4  6  2  0
  6  7  1  0
  7  8  2  0
  8  9  1  0
  9 10  1  0
  9 11  1  0
 11 12  2  0
 12 13  1  0
 12 14  1  0
 14 15  1  0
 14 16  2  0
 16 17  1  0
 17 18  1  0
 18 19  1  0
 18 20  2  0
 20 21  1  0
 21 22  1  0
 17 23  2  0
 23 24  1  0
  8 25  1  0
 25 26  1  0
 25 27  2  0
 27 28  1  0
 28 29  1  0
  6 30  1  0
 30 31  1  0
 30 32  2  0
 32 33  1  0
 32  2  1  0
 28  7  1  0
 23 11  1  0
 21 16  1  0
M  END
>  <cnnaffinity>  (1) 
-5.55836

>  <filename>  (1) 
c1cncc(-c2[nH]ncc2Nc2ccc3[nH]ncc3c2)c1

$$$$
