
     RDKit          3D

 33 36  0  0  0  0  0  0  0  0999 V2000
    4.9891    1.8556   16.7081 H   0  0  0  0  0  0  0  0  0  0  0  0
    5.4677    1.3722   17.5593 C   0  0  0  0  0  0  0  0  0  0  0  0
    6.6350    0.7522   17.3228 N   0  0  0  0  0  0  0  0  0  0  0  0
    7.2551    0.1764   18.3600 C   0  0  0  0  0  0  0  0  0  0  0  0
    8.2218   -0.2740   18.1448 H   0  0  0  0  0  0  0  0  0  0  0  0
    6.7305    0.1367   19.6603 C   0  0  0  0  0  0  0  0  0  0  0  0
    7.4624   -0.5687   20.7431 C   0  0  0  0  0  0  0  0  0  0  0  0
    8.8047   -0.5917   20.6711 N   0  0  0  0  0  0  0  0  0  0  0  0
    9.4656   -1.0877   21.7263 C   0  0  0  0  0  0  0  0  0  0  0  0
   10.5507   -1.0648   21.6740 H   0  0  0  0  0  0  0  0  0  0  0  0
    8.8389   -1.6306   22.8472 C   0  0  0  0  0  0  0  0  0  0  0  0
    9.4229   -1.9403   23.7046 H   0  0  0  0  0  0  0  0  0  0  0  0
    7.4404   -1.7287   22.8768 C   0  0  0  0  0  0  0  0  0  0  0  0
    6.7617   -2.3836   24.0278 C   0  0  0  0  0  0  0  0  0  0  0  0
    5.8187   -1.7844   24.7990 C   0  0  0  0  0  0  0  0  0  0  0  0
    5.4436   -0.7785   24.6801 H   0  0  0  0  0  0  0  0  0  0  0  0
    5.2374   -2.7427   26.1122 S   0  0  0  0  0  0  0  0  0  0  0  0
    6.3524   -4.0160   25.7171 C   0  0  0  0  0  0  0  0  0  0  0  0
    6.5777   -5.1950   26.4559 C   0  0  0  0  0  0  0  0  0  0  0  0
    6.0200   -5.4264   27.3602 H   0  0  0  0  0  0  0  0  0  0  0  0
    7.5711   -6.0601   26.0206 C   0  0  0  0  0  0  0  0  0  0  0  0
    7.8032   -6.9260   26.6252 H   0  0  0  0  0  0  0  0  0  0  0  0
    8.2939   -5.8009   24.8363 C   0  0  0  0  0  0  0  0  0  0  0  0
    9.0593   -6.5007   24.5181 H   0  0  0  0  0  0  0  0  0  0  0  0
    8.0465   -4.6502   24.0950 C   0  0  0  0  0  0  0  0  0  0  0  0
    8.5893   -4.4509   23.1741 H   0  0  0  0  0  0  0  0  0  0  0  0
    7.0996   -3.7049   24.5577 C   0  0  0  0  0  0  0  0  0  0  0  0
    6.7537   -1.1598   21.8026 C   0  0  0  0  0  0  0  0  0  0  0  0
    5.6714   -1.1834   21.7525 H   0  0  0  0  0  0  0  0  0  0  0  0
    5.5057    0.7917   19.8889 C   0  0  0  0  0  0  0  0  0  0  0  0
    5.0723    0.8377   20.8907 H   0  0  0  0  0  0  0  0  0  0  0  0
    4.8687    1.4199   18.8225 C   0  0  0  0  0  0  0  0  0  0  0  0
    3.9328    1.9515   18.9650 H   0  0  0  0  0  0  0  0  0  0  0  0
  1  2  1  0
  2  3  2  0
  3  4  1  0
  4  5  1  0
  4  6  2  0
  6  7  1  0
  7  8  2  0
  8  9  1  0
  9 10  1  0
  9 11  2  0
 11 12  1  0
 11 13  1  0
 13 14  1  0
 14 15  2  0
 15 16  1  0
 15 17  1  0
 17 18  1  0
 18 19  2  0
 19 20  1  0
 19 21  1  0
 21 22  1  0
 21 23  2  0
 23 24  1  0
 23 25  1  0
 25 26  1  0
 25 27  2  0
 13 28  2  0
 28 29  1  0
  6 30  1  0
 30 31  1  0
 30 32  2  0
 32 33  1  0
 32  2  1  0
 28  7  1  0
 27 14  1  0
 27 18  1  0
M  END
>  <cnnaffinity>  (1) 
-5.37821

>  <filename>  (1) 
c1cncc(-c2cc(-c3csc4ccccc34)ccn2)c1

$$$$
