
     RDKit          3D

 33 37  0  0  0  0  0  0  0  0999 V2000
    4.9182    1.7775   17.0002 H   0  0  0  0  0  0  0  0  0  0  0  0
    5.4038    1.2906   17.8413 C   0  0  0  0  0  0  0  0  0  0  0  0
    6.5686    0.6774   17.5754 N   0  0  0  0  0  0  0  0  0  0  0  0
    7.1738    0.0557   18.5891 C   0  0  0  0  0  0  0  0  0  0  0  0
    8.1228   -0.4337   18.3720 H   0  0  0  0  0  0  0  0  0  0  0  0
    6.6492    0.0103   19.8922 C   0  0  0  0  0  0  0  0  0  0  0  0
    7.4059   -0.6988   20.9189 C   0  0  0  0  0  0  0  0  0  0  0  0
    8.3326   -1.6005   20.7032 N   0  0  0  0  0  0  0  0  0  0  0  0
    8.8360   -2.0304   21.9108 N   0  0  0  0  0  0  0  0  0  0  0  0
    8.2056   -1.3447   22.8258 C   0  0  0  0  0  0  0  0  0  0  0  0
    8.2742   -1.0800   24.5405 S   0  0  0  0  0  0  0  0  0  0  0  0
    7.0451    0.1909   24.3235 C   0  0  0  0  0  0  0  0  0  0  0  0
    6.6038    0.9397   25.4768 C   0  0  0  0  0  0  0  0  0  0  0  0
    7.0289    0.8025   26.7803 C   0  0  0  0  0  0  0  0  0  0  0  0
    7.7644    0.1231   27.2124 H   0  0  0  0  0  0  0  0  0  0  0  0
    6.3561    1.7105   27.5505 N   0  0  0  0  0  0  0  0  0  0  0  0
    6.4542    1.8427   28.5392 H   0  0  0  0  0  0  0  0  0  0  0  0
    5.4910    2.4480   26.7799 C   0  0  0  0  0  0  0  0  0  0  0  0
    4.6055    3.4809   27.1334 C   0  0  0  0  0  0  0  0  0  0  0  0
    4.5333    3.8095   28.1687 H   0  0  0  0  0  0  0  0  0  0  0  0
    3.8457    4.0442   26.1128 C   0  0  0  0  0  0  0  0  0  0  0  0
    3.1498    4.8472   26.3477 H   0  0  0  0  0  0  0  0  0  0  0  0
    3.9578    3.5960   24.7670 C   0  0  0  0  0  0  0  0  0  0  0  0
    3.3557    4.0563   23.9901 H   0  0  0  0  0  0  0  0  0  0  0  0
    4.8379    2.5745   24.4320 C   0  0  0  0  0  0  0  0  0  0  0  0
    4.9579    2.2104   23.4157 H   0  0  0  0  0  0  0  0  0  0  0  0
    5.6152    1.9917   25.4541 C   0  0  0  0  0  0  0  0  0  0  0  0
    6.6252    0.3647   23.0996 N   0  0  0  0  0  0  0  0  0  0  0  0
    7.2761   -0.5128   22.2818 N   0  0  0  0  0  0  0  0  0  0  0  0
    5.4334    0.6520   20.1604 C   0  0  0  0  0  0  0  0  0  0  0  0
    5.0082    0.6311   21.1676 H   0  0  0  0  0  0  0  0  0  0  0  0
    4.8046    1.3082   19.1073 C   0  0  0  0  0  0  0  0  0  0  0  0
    3.8737    1.8428   19.2590 H   0  0  0  0  0  0  0  0  0  0  0  0
  1  2  1  0
  2  3  2  0
  3  4  1  0
  4  5  1  0
  4  6  2  0
  6  7  1  0
  7  8  2  0
  8  9  1  0
  9 10  2  0
 10 11  1  0
 11 12  1  0
 12 13  1  0
 13 14  2  0
 14 15  1  0
 14 16  1  0
 16 17  1  0
 16 18  1  0
 18 19  2  0
 19 20  1  0
 19 21  1  0
 21 22  1  0
 21 23  2  0
 23 24  1  0
 23 25  1  0
 25 26  1  0
 25 27  2  0
 12 28  2  0
 28 29  1  0
  6 30  1  0
 30 31  1  0
 30 32  2  0
 32 33  1  0
 32  2  1  0
 29  7  1  0
 29 10  1  0
 27 13  1  0
 27 18  1  0
M  END
>  <cnnaffinity>  (1) 
-5.50414

>  <filename>  (1) 
c1cncc(-c2nnc3sc(-c4c[nH]c5ccccc45)nn23)c1

$$$$
