
     RDKit          3D

 38 40  0  0  0  0  0  0  0  0999 V2000
    4.9277    1.7739   17.0004 H   0  0  0  0  0  0  0  0  0  0  0  0
    5.4079    1.2857   17.8479 C   0  0  0  0  0  0  0  0  0  0  0  0
    6.5714    0.6662   17.6037 N   0  0  0  0  0  0  0  0  0  0  0  0
    7.1773    0.0526   18.6219 C   0  0  0  0  0  0  0  0  0  0  0  0
    8.1217   -0.4264   18.3727 H   0  0  0  0  0  0  0  0  0  0  0  0
    6.6575    0.0046   19.9229 C   0  0  0  0  0  0  0  0  0  0  0  0
    7.3630   -0.7030   21.0057 C   0  0  0  0  0  0  0  0  0  0  0  0
    6.9070   -0.7662   22.2229 N   0  0  0  0  0  0  0  0  0  0  0  0
    7.7486   -1.4658   23.0487 C   0  0  0  0  0  0  0  0  0  0  0  0
    7.3872   -1.7099   24.4803 C   0  0  0  0  0  0  0  0  0  0  0  0
    6.7919   -0.8775   24.8657 H   0  0  0  0  0  0  0  0  0  0  0  0
    8.2983   -1.7687   25.0869 H   0  0  0  0  0  0  0  0  0  0  0  0
    6.5934   -3.0067   24.6457 C   0  0  0  0  0  0  0  0  0  0  0  0
    7.1703   -3.8550   24.2346 H   0  0  0  0  0  0  0  0  0  0  0  0
    5.6880   -2.9331   24.0319 H   0  0  0  0  0  0  0  0  0  0  0  0
    6.2248   -3.2264   26.0420 N   0  0  0  0  0  0  0  0  0  0  0  0
    4.9052   -3.8478   26.2204 C   0  0  0  0  0  0  0  0  0  0  0  0
    4.1674   -3.2919   25.6287 H   0  0  0  0  0  0  0  0  0  0  0  0
    4.6004   -3.7218   27.2685 H   0  0  0  0  0  0  0  0  0  0  0  0
    4.8801   -5.3420   25.8629 C   0  0  0  0  0  0  0  0  0  0  0  0
    3.8761   -5.7545   26.0166 H   0  0  0  0  0  0  0  0  0  0  0  0
    5.1036   -5.4458   24.7931 H   0  0  0  0  0  0  0  0  0  0  0  0
    5.9219   -6.1081   26.6890 C   0  0  0  0  0  0  0  0  0  0  0  0
    5.9570   -7.1607   26.3886 H   0  0  0  0  0  0  0  0  0  0  0  0
    5.6198   -6.0902   27.7454 H   0  0  0  0  0  0  0  0  0  0  0  0
    7.3084   -5.4628   26.5508 C   0  0  0  0  0  0  0  0  0  0  0  0
    8.0224   -5.9341   27.2378 H   0  0  0  0  0  0  0  0  0  0  0  0
    7.6957   -5.6295   25.5387 H   0  0  0  0  0  0  0  0  0  0  0  0
    7.2498   -3.9464   26.8173 C   0  0  0  0  0  0  0  0  0  0  0  0
    7.0390   -3.7921   27.8800 H   0  0  0  0  0  0  0  0  0  0  0  0
    8.2284   -3.4886   26.6348 H   0  0  0  0  0  0  0  0  0  0  0  0
    8.8477   -1.9719   22.4363 C   0  0  0  0  0  0  0  0  0  0  0  0
    9.6204   -2.5679   22.8907 H   0  0  0  0  0  0  0  0  0  0  0  0
    8.8751   -1.5384   20.7803 S   0  0  0  0  0  0  0  0  0  0  0  0
    5.4340    0.6537   20.1670 C   0  0  0  0  0  0  0  0  0  0  0  0
    5.0015    0.6347   21.1709 H   0  0  0  0  0  0  0  0  0  0  0  0
    4.8067    1.3084   19.1106 C   0  0  0  0  0  0  0  0  0  0  0  0
    3.8739    1.8433   19.2574 H   0  0  0  0  0  0  0  0  0  0  0  0
  1  2  1  0
  2  3  2  0
  3  4  1  0
  4  5  1  0
  4  6  2  0
  6  7  1  0
  7  8  2  0
  8  9  1  0
  9 10  1  0
 10 11  1  0
 10 12  1  0
 10 13  1  0
 13 14  1  0
 13 15  1  0
 13 16  1  0
 16 17  1  0
 17 18  1  0
 17 19  1  0
 17 20  1  0
 20 21  1  0
 20 22  1  0
 20 23  1  0
 23 24  1  0
 23 25  1  0
 23 26  1  0
 26 27  1  0
 26 28  1  0
 26 29  1  0
 29 30  1  0
 29 31  1  0
  9 32  2  0
 32 33  1  0
 32 34  1  0
  6 35  1  0
 35 36  1  0
 35 37  2  0
 37 38  1  0
 37  2  1  0
 34  7  1  0
 29 16  1  0
M  END
>  <cnnaffinity>  (1) 
-5.14778

>  <filename>  (1) 
c1cncc(-c2nc(CCN3CCCCC3)cs2)c1

$$$$
