
     RDKit          3D

 39 42  0  0  0  0  0  0  0  0999 V2000
    4.9273    1.7839   16.9931 H   0  0  0  0  0  0  0  0  0  0  0  0
    5.4053    1.2905   17.8372 C   0  0  0  0  0  0  0  0  0  0  0  0
    6.5649    0.6662   17.5822 N   0  0  0  0  0  0  0  0  0  0  0  0
    7.1532    0.0315   18.6053 C   0  0  0  0  0  0  0  0  0  0  0  0
    8.1136   -0.4247   18.3732 H   0  0  0  0  0  0  0  0  0  0  0  0
    6.6420   -0.0337   19.9086 C   0  0  0  0  0  0  0  0  0  0  0  0
    7.3453   -0.8272   20.9901 C   0  0  0  0  0  0  0  0  0  0  0  0
    6.8584   -2.1900   20.9472 N   0  0  0  0  0  0  0  0  0  0  0  0
    6.4174   -2.4527   20.0846 H   0  0  0  0  0  0  0  0  0  0  0  0
    6.6364   -3.0433   22.0403 C   0  0  0  0  0  0  0  0  0  0  0  0
    7.7161   -3.4181   22.9006 C   0  0  0  0  0  0  0  0  0  0  0  0
    8.7091   -3.0415   22.6737 H   0  0  0  0  0  0  0  0  0  0  0  0
    7.4984   -4.2361   23.9887 C   0  0  0  0  0  0  0  0  0  0  0  0
    8.3172   -4.5173   24.6444 H   0  0  0  0  0  0  0  0  0  0  0  0
    6.1948   -4.7379   24.2821 C   0  0  0  0  0  0  0  0  0  0  0  0
    5.9377   -5.5941   25.4011 C   0  0  0  0  0  0  0  0  0  0  0  0
    6.7702   -5.8621   26.0532 H   0  0  0  0  0  0  0  0  0  0  0  0
    4.6665   -6.0672   25.6465 C   0  0  0  0  0  0  0  0  0  0  0  0
    4.4766   -6.7172   26.5018 H   0  0  0  0  0  0  0  0  0  0  0  0
    3.5870   -5.7063   24.7830 C   0  0  0  0  0  0  0  0  0  0  0  0
    2.5886   -6.0895   24.9945 H   0  0  0  0  0  0  0  0  0  0  0  0
    3.8024   -4.8850   23.6994 C   0  0  0  0  0  0  0  0  0  0  0  0
    2.9842   -4.6107   23.0355 H   0  0  0  0  0  0  0  0  0  0  0  0
    5.1097   -4.3755   23.4149 C   0  0  0  0  0  0  0  0  0  0  0  0
    5.3671   -3.5303   22.2895 C   0  0  0  0  0  0  0  0  0  0  0  0
    4.5385   -3.2397   21.6472 H   0  0  0  0  0  0  0  0  0  0  0  0
    7.3288   -0.1455   22.3907 C   0  0  0  0  0  0  0  0  0  0  0  0
    6.8266   -0.7294   23.1681 H   0  0  0  0  0  0  0  0  0  0  0  0
    6.8865    0.8513   22.3702 H   0  0  0  0  0  0  0  0  0  0  0  0
    8.8758   -0.1245   22.4130 C   0  0  0  0  0  0  0  0  0  0  0  0
    9.3198   -0.7546   23.1899 H   0  0  0  0  0  0  0  0  0  0  0  0
    9.3219    0.8714   22.4903 H   0  0  0  0  0  0  0  0  0  0  0  0
    8.9000   -0.7358   20.9919 C   0  0  0  0  0  0  0  0  0  0  0  0
    9.3039   -0.0654   20.2330 H   0  0  0  0  0  0  0  0  0  0  0  0
    9.3940   -1.7060   20.8856 H   0  0  0  0  0  0  0  0  0  0  0  0
    5.4302    0.6361   20.1518 C   0  0  0  0  0  0  0  0  0  0  0  0
    5.0041    0.6356   21.1583 H   0  0  0  0  0  0  0  0  0  0  0  0
    4.8056    1.3064   19.1013 C   0  0  0  0  0  0  0  0  0  0  0  0
    3.8780    1.8454   19.2555 H   0  0  0  0  0  0  0  0  0  0  0  0
  1  2  1  0
  2  3  2  0
  3  4  1  0
  4  5  1  0
  4  6  2  0
  6  7  1  0
  7  8  1  0
  8  9  1  0
  8 10  1  0
 10 11  2  0
 11 12  1  0
 11 13  1  0
 13 14  1  0
 13 15  2  0
 15 16  1  0
 16 17  1  0
 16 18  2  0
 18 19  1  0
 18 20  1  0
 20 21  1  0
 20 22  2  0
 22 23  1  0
 22 24  1  0
 24 25  2  0
 25 26  1  0
  7 27  1  0
 27 28  1  0
 27 29  1  0
 27 30  1  0
 30 31  1  0
 30 32  1  0
 30 33  1  0
 33 34  1  0
 33 35  1  0
  6 36  1  0
 36 37  1  0
 36 38  2  0
 38 39  1  0
 38  2  1  0
 33  7  1  0
 25 10  1  0
 24 15  1  0
M  END
>  <cnnaffinity>  (1) 
-5.16134

>  <filename>  (1) 
c1cncc(C2(Nc3ccc4ccccc4c3)CCC2)c1

$$$$
