
     RDKit          3D

 36 38  0  0  0  0  0  0  0  0999 V2000
    4.9072    1.7840   16.9922 H   0  0  0  0  0  0  0  0  0  0  0  0
    5.3965    1.2979   17.8332 C   0  0  0  0  0  0  0  0  0  0  0  0
    6.5610    0.6845   17.5642 N   0  0  0  0  0  0  0  0  0  0  0  0
    7.1766    0.0779   18.5855 C   0  0  0  0  0  0  0  0  0  0  0  0
    8.1177   -0.4272   18.3704 H   0  0  0  0  0  0  0  0  0  0  0  0
    6.6735    0.0069   19.9081 C   0  0  0  0  0  0  0  0  0  0  0  0
    7.3803   -0.7229   20.8955 N   0  0  0  0  0  0  0  0  0  0  0  0
    6.6419   -1.5987   21.8040 C   0  0  0  0  0  0  0  0  0  0  0  0
    5.7343   -1.9356   21.2906 H   0  0  0  0  0  0  0  0  0  0  0  0
    6.3076   -1.0885   22.7283 H   0  0  0  0  0  0  0  0  0  0  0  0
    7.5080   -2.8061   22.1618 C   0  0  0  0  0  0  0  0  0  0  0  0
    7.6613   -3.4030   21.2548 H   0  0  0  0  0  0  0  0  0  0  0  0
    6.9763   -3.4383   22.8790 H   0  0  0  0  0  0  0  0  0  0  0  0
    8.8607   -2.3613   22.7185 C   0  0  0  0  0  0  0  0  0  0  0  0
    9.4916   -3.2325   22.9172 H   0  0  0  0  0  0  0  0  0  0  0  0
    8.7153   -1.8504   23.6814 H   0  0  0  0  0  0  0  0  0  0  0  0
    9.5657   -1.4230   21.7339 C   0  0  0  0  0  0  0  0  0  0  0  0
    9.8095   -1.9747   20.8186 H   0  0  0  0  0  0  0  0  0  0  0  0
   10.5168   -1.0666   22.1449 H   0  0  0  0  0  0  0  0  0  0  0  0
    8.6910   -0.2232   21.3361 C   0  0  2  0  0  0  0  0  0  0  0  0
    9.1552    0.2574   20.4680 H   0  0  0  0  0  0  0  0  0  0  0  0
    8.5783    0.8734   22.4302 C   0  0  0  0  0  0  0  0  0  0  0  0
    7.8542    1.6249   22.0932 H   0  0  0  0  0  0  0  0  0  0  0  0
    8.1580    0.4210   23.3362 H   0  0  0  0  0  0  0  0  0  0  0  0
    9.8971    1.5135   22.7665 C   0  0  0  0  0  0  0  0  0  0  0  0
   10.6338    2.6720   21.7224 S   0  0  0  0  0  0  0  0  0  0  0  0
   12.0107    2.8163   22.7424 C   0  0  0  0  0  0  0  0  0  0  0  0
   12.8115    3.4999   22.4884 H   0  0  0  0  0  0  0  0  0  0  0  0
   11.9221    1.9940   23.8201 C   0  0  0  0  0  0  0  0  0  0  0  0
   12.6847    1.9075   24.5903 H   0  0  0  0  0  0  0  0  0  0  0  0
   10.7090    1.2457   23.8258 C   0  0  0  0  0  0  0  0  0  0  0  0
   10.4506    0.5152   24.5892 H   0  0  0  0  0  0  0  0  0  0  0  0
    5.4458    0.6468   20.1598 C   0  0  0  0  0  0  0  0  0  0  0  0
    5.0194    0.6212   21.1668 H   0  0  0  0  0  0  0  0  0  0  0  0
    4.8087    1.3126   19.1054 C   0  0  0  0  0  0  0  0  0  0  0  0
    3.8731    1.8426   19.2609 H   0  0  0  0  0  0  0  0  0  0  0  0
  1  2  1  0
  2  3  2  0
  3  4  1  0
  4  5  1  0
  4  6  2  0
  6  7  1  0
  7  8  1  0
  8  9  1  0
  8 10  1  0
  8 11  1  0
 11 12  1  0
 11 13  1  0
 11 14  1  0
 14 15  1  0
 14 16  1  0
 14 17  1  0
 17 18  1  0
 17 19  1  0
 17 20  1  0
 20 21  1  6
 20 22  1  0
 22 23  1  0
 22 24  1  0
 22 25  1  0
 25 26  1  0
 26 27  1  0
 27 28  1  0
 27 29  2  0
 29 30  1  0
 29 31  1  0
 31 32  1  0
  6 33  1  0
 33 34  1  0
 33 35  2  0
 35 36  1  0
 35  2  1  0
 20  7  1  0
 31 25  2  0
M  END
>  <cnnaffinity>  (1) 
-5.55019

>  <filename>  (1) 
c1cncc(N2CCCC[C@@H]2Cc2cccs2)c1

$$$$
