
     RDKit          3D

 29 31  0  0  0  0  0  0  0  0999 V2000
    4.9716    1.8365   16.9714 H   0  0  0  0  0  0  0  0  0  0  0  0
    5.4284    1.3002   17.7980 C   0  0  0  0  0  0  0  0  0  0  0  0
    6.5861    0.6695   17.5329 N   0  0  0  0  0  0  0  0  0  0  0  0
    7.1736    0.0179   18.5475 C   0  0  0  0  0  0  0  0  0  0  0  0
    8.0976   -0.5071   18.3182 H   0  0  0  0  0  0  0  0  0  0  0  0
    6.6584   -0.0299   19.8666 C   0  0  0  0  0  0  0  0  0  0  0  0
    7.2602   -0.7368   20.9156 N   0  0  0  0  0  0  0  0  0  0  0  0
    6.9256   -0.4521   21.8393 H   0  0  0  0  0  0  0  0  0  0  0  0
    8.6274   -0.9833   20.8082 N   0  0  0  0  0  0  0  0  0  0  0  0
    9.1984   -0.1403   20.7610 H   0  0  0  0  0  0  0  0  0  0  0  0
    9.2136   -1.9027   21.6917 C   0  0  0  0  0  0  0  0  0  0  0  0
   10.6247   -1.7794   21.8302 C   0  0  0  0  0  0  0  0  0  0  0  0
   11.1372   -1.0208   21.2334 H   0  0  0  0  0  0  0  0  0  0  0  0
   11.3327   -2.5949   22.6893 C   0  0  0  0  0  0  0  0  0  0  0  0
   12.4134   -2.5651   22.6982 H   0  0  0  0  0  0  0  0  0  0  0  0
   10.6113   -3.5250   23.4596 C   0  0  0  0  0  0  0  0  0  0  0  0
    9.2192   -3.7206   23.2820 C   0  0  0  0  0  0  0  0  0  0  0  0
    8.5091   -2.8892   22.3872 C   0  0  0  0  0  0  0  0  0  0  0  0
    7.4378   -3.0030   22.2340 H   0  0  0  0  0  0  0  0  0  0  0  0
    8.8613   -4.8233   24.1315 C   0  0  0  0  0  0  0  0  0  0  0  0
    7.8752   -5.2533   24.2271 H   0  0  0  0  0  0  0  0  0  0  0  0
    9.9934   -5.2258   24.7804 C   0  0  0  0  0  0  0  0  0  0  0  0
   10.1344   -6.0286   25.4925 H   0  0  0  0  0  0  0  0  0  0  0  0
   11.0561   -4.4303   24.3916 N   0  0  0  0  0  0  0  0  0  0  0  0
   12.0088   -4.4836   24.7148 H   0  0  0  0  0  0  0  0  0  0  0  0
    5.4435    0.6288   20.1164 C   0  0  0  0  0  0  0  0  0  0  0  0
    5.0200    0.6057   21.1246 H   0  0  0  0  0  0  0  0  0  0  0  0
    4.8189    1.2959   19.0621 C   0  0  0  0  0  0  0  0  0  0  0  0
    3.8797    1.8191   19.2165 H   0  0  0  0  0  0  0  0  0  0  0  0
  1  2  1  0
  2  3  2  0
  3  4  1  0
  4  5  1  0
  4  6  2  0
  6  7  1  0
  7  8  1  0
  7  9  1  0
  9 10  1  0
  9 11  1  0
 11 12  2  0
 12 13  1  0
 12 14  1  0
 14 15  1  0
 14 16  2  0
 16 17  1  0
 17 18  2  0
 18 19  1  0
 17 20  1  0
 20 21  1  0
 20 22  2  0
 22 23  1  0
 22 24  1  0
 24 25  1  0
  6 26  1  0
 26 27  1  0
 26 28  2  0
 28 29  1  0
 28  2  1  0
 18 11  1  0
 24 16  1  0
M  END
>  <cnnaffinity>  (1) 
-4.91129

>  <filename>  (1) 
c1cncc(NNc2ccc3[nH]ccc3c2)c1

$$$$
