
     RDKit          3D

 37 40  0  0  0  0  0  0  0  0999 V2000
    4.9625    1.7225   17.0440 H   0  0  0  0  0  0  0  0  0  0  0  0
    5.5138    1.2036   17.8265 C   0  0  0  0  0  0  0  0  0  0  0  0
    6.6538    0.5981   17.4523 N   0  0  0  0  0  0  0  0  0  0  0  0
    7.3722   -0.0279   18.3943 C   0  0  0  0  0  0  0  0  0  0  0  0
    8.2624   -0.5499   18.0385 H   0  0  0  0  0  0  0  0  0  0  0  0
    7.0334   -0.0638   19.7749 C   0  0  0  0  0  0  0  0  0  0  0  0
    7.8577   -0.6645   20.7274 N   0  0  0  0  0  0  0  0  0  0  0  0
    8.6875   -1.1425   20.3966 H   0  0  0  0  0  0  0  0  0  0  0  0
    7.8723   -0.3488   22.1573 C   0  0  0  0  0  0  0  0  0  0  0  0
    8.1748    1.1367   22.4932 C   0  0  0  0  0  0  0  0  0  0  0  0
    7.1275    2.0430   22.8236 C   0  0  0  0  0  0  0  0  0  0  0  0
    6.1156    1.6597   22.8914 H   0  0  0  0  0  0  0  0  0  0  0  0
    7.3463    3.3946   23.0626 C   0  0  0  0  0  0  0  0  0  0  0  0
    6.5122    4.0544   23.2772 H   0  0  0  0  0  0  0  0  0  0  0  0
    8.6586    3.9072   22.9942 C   0  0  0  0  0  0  0  0  0  0  0  0
    9.2647    5.2084   23.1334 C   0  0  0  0  0  0  0  0  0  0  0  0
    8.7439    6.1388   23.3091 H   0  0  0  0  0  0  0  0  0  0  0  0
   10.6035    5.0476   22.9238 C   0  0  0  0  0  0  0  0  0  0  0  0
   11.3948    5.7859   22.9455 H   0  0  0  0  0  0  0  0  0  0  0  0
   10.8782    3.7154   22.6702 N   0  0  0  0  0  0  0  0  0  0  0  0
   11.7040    3.3591   22.2184 H   0  0  0  0  0  0  0  0  0  0  0  0
    9.6994    3.0046   22.6809 C   0  0  0  0  0  0  0  0  0  0  0  0
    9.4821    1.6411   22.4285 C   0  0  0  0  0  0  0  0  0  0  0  0
   10.3352    1.0053   22.2124 H   0  0  0  0  0  0  0  0  0  0  0  0
    6.6733   -1.0102   22.9204 C   0  0  0  0  0  0  0  0  0  0  0  0
    6.0178   -1.5493   22.2333 H   0  0  0  0  0  0  0  0  0  0  0  0
    6.0861   -0.3421   23.5488 H   0  0  0  0  0  0  0  0  0  0  0  0
    7.6344   -1.9270   23.7102 C   0  0  0  0  0  0  0  0  0  0  0  0
    7.4752   -3.0090   23.6262 H   0  0  0  0  0  0  0  0  0  0  0  0
    7.6740   -1.6806   24.7765 H   0  0  0  0  0  0  0  0  0  0  0  0
    8.8071   -1.3491   22.8831 C   0  0  0  0  0  0  0  0  0  0  0  0
    9.5911   -0.8823   23.4753 H   0  0  0  0  0  0  0  0  0  0  0  0
    9.2767   -2.0540   22.1968 H   0  0  0  0  0  0  0  0  0  0  0  0
    5.7976    0.5115   20.1198 C   0  0  0  0  0  0  0  0  0  0  0  0
    5.4678    0.4525   21.1532 H   0  0  0  0  0  0  0  0  0  0  0  0
    5.0364    1.1565   19.1389 C   0  0  0  0  0  0  0  0  0  0  0  0
    4.0890    1.6234   19.3832 H   0  0  0  0  0  0  0  0  0  0  0  0
  1  2  1  0
  2  3  2  0
  3  4  1  0
  4  5  1  0
  4  6  2  0
  6  7  1  0
  7  8  1  0
  7  9  1  0
  9 10  1  0
 10 11  2  0
 11 12  1  0
 11 13  1  0
 13 14  1  0
 13 15  2  0
 15 16  1  0
 16 17  1  0
 16 18  2  0
 18 19  1  0
 18 20  1  0
 20 21  1  0
 20 22  1  0
 22 23  2  0
 23 24  1  0
  9 25  1  0
 25 26  1  0
 25 27  1  0
 25 28  1  0
 28 29  1  0
 28 30  1  0
 28 31  1  0
 31 32  1  0
 31 33  1  0
  6 34  1  0
 34 35  1  0
 34 36  2  0
 36 37  1  0
 36  2  1  0
 31  9  1  0
 23 10  1  0
 22 15  1  0
M  END
>  <cnnaffinity>  (1) 
-5.23793

>  <filename>  (1) 
c1cncc(NC2(c3ccc4cc[nH]c4c3)CCC2)c1

$$$$
