
     RDKit          3D

 36 38  0  0  0  0  0  0  0  0999 V2000
    4.8017    1.3109   19.1074 C   0  0  0  0  0  0  0  0  0  0  0  0
    5.4042    1.2898   17.8420 C   0  0  0  0  0  0  0  0  0  0  0  0
    6.5650    0.6734   17.5802 N   0  0  0  0  0  0  0  0  0  0  0  0
    7.1694    0.0607   18.5993 C   0  0  0  0  0  0  0  0  0  0  0  0
    6.6445    0.0160   19.8987 C   0  0  0  0  0  0  0  0  0  0  0  0
    7.4102   -0.7055   20.9080 C   0  0  0  0  0  0  0  0  0  0  0  0
    8.5386   -1.3241   20.7733 N   0  0  0  0  0  0  0  0  0  0  0  0
    8.8601   -1.8330   22.0204 N   0  0  0  0  0  0  0  0  0  0  0  0
    7.8918   -1.5014   22.8083 C   0  0  0  0  0  0  0  0  0  0  0  0
    7.7673   -1.8499   24.2511 C   0  0  0  0  0  0  0  0  0  0  0  0
    7.0844   -3.0809   24.4085 O   0  0  0  0  0  0  0  0  0  0  0  0
    6.8194   -3.4349   25.7558 C   0  0  0  0  0  0  0  0  0  0  0  0
    5.4189   -2.9624   26.1588 C   0  0  0  0  0  0  0  0  0  0  0  0
    5.0717   -3.4116   27.5823 C   0  0  0  0  0  0  0  0  0  0  0  0
    5.2488   -4.9297   27.7496 C   0  0  0  0  0  0  0  0  0  0  0  0
    6.6487   -5.4036   27.3232 C   0  0  0  0  0  0  0  0  0  0  0  0
    6.9799   -4.9474   25.8955 C   0  0  0  0  0  0  0  0  0  0  0  0
    6.3150   -5.4323   25.1706 H   0  0  0  0  0  0  0  0  0  0  0  0
    8.0026   -5.2242   25.6109 H   0  0  0  0  0  0  0  0  0  0  0  0
    6.7346   -6.4936   27.4033 H   0  0  0  0  0  0  0  0  0  0  0  0
    7.3958   -4.9846   28.0119 H   0  0  0  0  0  0  0  0  0  0  0  0
    5.0431   -5.2263   28.7833 H   0  0  0  0  0  0  0  0  0  0  0  0
    4.5023   -5.4382   27.1271 H   0  0  0  0  0  0  0  0  0  0  0  0
    5.7313   -2.8873   28.2833 H   0  0  0  0  0  0  0  0  0  0  0  0
    4.0529   -3.1033   27.8428 H   0  0  0  0  0  0  0  0  0  0  0  0
    5.3534   -1.8709   26.0611 H   0  0  0  0  0  0  0  0  0  0  0  0
    4.7059   -3.3764   25.4367 H   0  0  0  0  0  0  0  0  0  0  0  0
    7.5554   -2.9622   26.4302 H   0  0  0  0  0  0  0  0  0  0  0  0
    7.2656   -1.0240   24.7833 H   0  0  0  0  0  0  0  0  0  0  0  0
    8.7902   -1.9316   24.6409 H   0  0  0  0  0  0  0  0  0  0  0  0
    6.9404   -0.7698   22.1810 O   0  0  0  0  0  0  0  0  0  0  0  0
    5.4248    0.6574   20.1684 C   0  0  0  0  0  0  0  0  0  0  0  0
    4.9882    0.6443   21.1718 H   0  0  0  0  0  0  0  0  0  0  0  0
    8.1167   -0.4260   18.3825 H   0  0  0  0  0  0  0  0  0  0  0  0
    4.9290    1.7803   16.9963 H   0  0  0  0  0  0  0  0  0  0  0  0
    3.8707    1.8456   19.2510 H   0  0  0  0  0  0  0  0  0  0  0  0
  1  2  2  0
  2  3  1  0
  3  4  2  0
  4  5  1  0
  5  6  1  0
  6  7  2  0
  7  8  1  0
  8  9  2  0
  9 10  1  0
 10 11  1  0
 11 12  1  0
 12 13  1  0
 13 14  1  0
 14 15  1  0
 15 16  1  0
 16 17  1  0
 17 18  1  0
 17 19  1  0
 16 20  1  0
 16 21  1  0
 15 22  1  0
 15 23  1  0
 14 24  1  0
 14 25  1  0
 13 26  1  0
 13 27  1  0
 12 28  1  0
 10 29  1  0
 10 30  1  0
  9 31  1  0
  5 32  2  0
 32 33  1  0
  4 34  1  0
  2 35  1  0
  1 36  1  0
 32  1  1  0
 31  6  1  0
 17 12  1  0
M  END
>  <cnnaffinity>  (1) 
-4.81345

>  <filename>  (1) 
c1cncc(-c2nnc(COC3CCCCC3)o2)c1

$$$$
