
     RDKit          3D

 48 50  0  0  0  0  0  0  0  0999 V2000
    4.9322    1.8212   16.9689 H   0  0  0  0  0  0  0  0  0  0  0  0
    5.3922    1.3017   17.8080 C   0  0  0  0  0  0  0  0  0  0  0  0
    6.5434    0.6652   17.5458 N   0  0  0  0  0  0  0  0  0  0  0  0
    7.1569    0.0424   18.5646 C   0  0  0  0  0  0  0  0  0  0  0  0
    8.1018   -0.4408   18.3186 H   0  0  0  0  0  0  0  0  0  0  0  0
    6.6706    0.0118   19.9045 C   0  0  0  0  0  0  0  0  0  0  0  0
    7.3179   -0.6461   20.9635 N   0  0  0  0  0  0  0  0  0  0  0  0
    7.8419   -1.9817   20.7361 C   0  0  0  0  0  0  0  0  0  0  0  0
    8.7691   -1.9312   20.1405 H   0  0  0  0  0  0  0  0  0  0  0  0
    7.0752   -2.5142   20.1481 H   0  0  0  0  0  0  0  0  0  0  0  0
    8.1002   -2.7386   22.0438 C   0  0  0  0  0  0  0  0  0  0  0  0
    8.1151   -3.8174   21.8480 H   0  0  0  0  0  0  0  0  0  0  0  0
    9.0775   -2.4736   22.4688 H   0  0  0  0  0  0  0  0  0  0  0  0
    7.0138   -2.3960   23.0620 C   0  0  0  0  0  0  0  0  0  0  0  0
    6.0402   -2.6480   22.6087 H   0  0  0  0  0  0  0  0  0  0  0  0
    7.2147   -3.1340   24.2550 O   0  0  0  0  0  0  0  0  0  0  0  0
    6.5242   -4.3603   24.3592 C   0  0  0  0  0  0  0  0  0  0  0  0
    6.3955   -4.8564   23.3787 H   0  0  0  0  0  0  0  0  0  0  0  0
    7.1494   -5.0186   24.9786 H   0  0  0  0  0  0  0  0  0  0  0  0
    5.1389   -4.1468   25.0006 C   0  0  0  0  0  0  0  0  0  0  0  0
    5.2787   -3.7951   26.0338 H   0  0  0  0  0  0  0  0  0  0  0  0
    4.6349   -3.3283   24.4641 H   0  0  0  0  0  0  0  0  0  0  0  0
    4.2621   -5.3104   25.0084 N   0  0  0  0  0  0  0  0  0  0  0  0
    4.7951   -6.4434   25.7654 C   0  0  0  0  0  0  0  0  0  0  0  0
    5.6406   -6.9318   25.2373 H   0  0  0  0  0  0  0  0  0  0  0  0
    5.1878   -6.0631   26.7194 H   0  0  0  0  0  0  0  0  0  0  0  0
    3.6889   -7.4736   26.0040 C   0  0  0  0  0  0  0  0  0  0  0  0
    2.8983   -6.9976   26.6020 H   0  0  0  0  0  0  0  0  0  0  0  0
    4.0883   -8.2986   26.6069 H   0  0  0  0  0  0  0  0  0  0  0  0
    3.1062   -7.9431   24.6556 C   0  0  0  0  0  0  0  0  0  0  0  0
    3.8836   -8.4507   24.0655 H   0  0  0  0  0  0  0  0  0  0  0  0
    2.3036   -8.6767   24.8014 H   0  0  0  0  0  0  0  0  0  0  0  0
    2.6191   -6.7257   23.8458 C   0  0  0  0  0  0  0  0  0  0  0  0
    2.2697   -7.0214   22.8471 H   0  0  0  0  0  0  0  0  0  0  0  0
    1.7736   -6.2454   24.3575 H   0  0  0  0  0  0  0  0  0  0  0  0
    3.7470   -5.6959   23.6943 C   0  0  0  0  0  0  0  0  0  0  0  0
    3.3728   -4.7896   23.1979 H   0  0  0  0  0  0  0  0  0  0  0  0
    4.5374   -6.1223   23.0379 H   0  0  0  0  0  0  0  0  0  0  0  0
    7.0404   -0.8976   23.4137 C   0  0  0  0  0  0  0  0  0  0  0  0
    6.0321   -0.5720   23.6862 H   0  0  0  0  0  0  0  0  0  0  0  0
    7.6632   -0.7711   24.3053 H   0  0  0  0  0  0  0  0  0  0  0  0
    7.5899   -0.0339   22.2570 C   0  0  0  0  0  0  0  0  0  0  0  0
    8.6837    0.0575   22.3748 H   0  0  0  0  0  0  0  0  0  0  0  0
    7.1781    0.9813   22.2610 H   0  0  0  0  0  0  0  0  0  0  0  0
    5.4513    0.6758   20.1333 C   0  0  0  0  0  0  0  0  0  0  0  0
    5.0391    0.6536   21.1426 H   0  0  0  0  0  0  0  0  0  0  0  0
    4.7989    1.3234   19.0784 C   0  0  0  0  0  0  0  0  0  0  0  0
    3.8615    1.8550   19.2337 H   0  0  0  0  0  0  0  0  0  0  0  0
  1  2  1  0
  2  3  2  0
  3  4  1  0
  4  5  1  0
  4  6  2  0
  6  7  1  0
  7  8  1  0
  8  9  1  0
  8 10  1  0
  8 11  1  0
 11 12  1  0
 11 13  1  0
 11 14  1  0
 14 15  1  0
 14 16  1  0
 16 17  1  0
 17 18  1  0
 17 19  1  0
 17 20  1  0
 20 21  1  0
 20 22  1  0
 20 23  1  0
 23 24  1  0
 24 25  1  0
 24 26  1  0
 24 27  1  0
 27 28  1  0
 27 29  1  0
 27 30  1  0
 30 31  1  0
 30 32  1  0
 30 33  1  0
 33 34  1  0
 33 35  1  0
 33 36  1  0
 36 37  1  0
 36 38  1  0
 14 39  1  0
 39 40  1  0
 39 41  1  0
 39 42  1  0
 42 43  1  0
 42 44  1  0
  6 45  1  0
 45 46  1  0
 45 47  2  0
 47 48  1  0
 47  2  1  0
 42  7  1  0
 36 23  1  0
M  END
>  <cnnaffinity>  (1) 
-4.8793

>  <filename>  (1) 
c1cncc(N2CCC(OCCN3CCCCC3)CC2)c1

$$$$
