
     RDKit          3D

 30 33  0  0  0  0  0  0  0  0999 V2000
    4.9946    1.8346   16.9175 H   0  0  0  0  0  0  0  0  0  0  0  0
    5.3893    1.3063   17.7855 C   0  0  0  0  0  0  0  0  0  0  0  0
    6.5421    0.6444   17.6003 N   0  0  0  0  0  0  0  0  0  0  0  0
    7.0703    0.0239   18.6626 C   0  0  0  0  0  0  0  0  0  0  0  0
    8.0099   -0.4955   18.4836 H   0  0  0  0  0  0  0  0  0  0  0  0
    6.4936   -0.0073   19.9518 C   0  0  0  0  0  0  0  0  0  0  0  0
    7.2468   -0.6218   21.0636 C   0  0  0  0  0  0  0  0  0  0  0  0
    8.6031   -0.5549   21.3090 C   0  0  0  0  0  0  0  0  0  0  0  0
    8.8070   -1.1758   22.5345 C   0  0  0  0  0  0  0  0  0  0  0  0
    7.6923   -1.6417   23.0626 N   0  0  0  0  0  0  0  0  0  0  0  0
    6.7481   -1.2890   22.1520 N   0  0  0  0  0  0  0  0  0  0  0  0
    5.7891   -1.5358   22.3500 H   0  0  0  0  0  0  0  0  0  0  0  0
   10.2312   -1.1034   22.9986 C   0  0  0  0  0  0  0  0  0  0  0  0
   10.6560   -2.0968   23.1749 H   0  0  0  0  0  0  0  0  0  0  0  0
   10.3260   -0.5314   23.9305 H   0  0  0  0  0  0  0  0  0  0  0  0
   10.9449   -0.3757   21.7981 C   0  0  2  0  0  0  0  0  0  0  0  0
   11.6920   -1.0481   21.3776 H   0  0  0  0  0  0  0  0  0  0  0  0
   11.6848    0.8545   22.2264 C   0  0  0  0  0  0  0  0  0  0  0  0
   11.0578    1.9467   22.7312 N   0  0  0  0  0  0  0  0  0  0  0  0
   11.9832    2.8209   23.0019 N   0  0  0  0  0  0  0  0  0  0  0  0
   13.1175    2.2467   22.6671 N   0  0  0  0  0  0  0  0  0  0  0  0
   14.0005    2.7382   22.7317 H   0  0  0  0  0  0  0  0  0  0  0  0
   12.9975    1.0205   22.1804 N   0  0  0  0  0  0  0  0  0  0  0  0
    9.8661   -0.0549   20.7066 C   0  0  0  0  0  0  0  0  0  0  0  0
   10.0936   -0.5965   19.7839 H   0  0  0  0  0  0  0  0  0  0  0  0
    9.8133    1.0118   20.4541 H   0  0  0  0  0  0  0  0  0  0  0  0
    5.2695    0.6672   20.1149 C   0  0  0  0  0  0  0  0  0  0  0  0
    4.7747    0.7068   21.0888 H   0  0  0  0  0  0  0  0  0  0  0  0
    4.7225    1.3342   19.0180 C   0  0  0  0  0  0  0  0  0  0  0  0
    3.8059    1.9043   19.0982 H   0  0  0  0  0  0  0  0  0  0  0  0
  1  2  1  0
  2  3  2  0
  3  4  1  0
  4  5  1  0
  4  6  2  0
  6  7  1  0
  7  8  2  0
  8  9  1  0
  9 10  2  0
 10 11  1  0
 11 12  1  0
  9 13  1  0
 13 14  1  0
 13 15  1  0
 13 16  1  0
 16 17  1  6
 16 18  1  0
 18 19  1  0
 19 20  2  0
 20 21  1  0
 21 22  1  0
 21 23  1  0
 16 24  1  0
 24 25  1  0
 24 26  1  0
  6 27  1  0
 27 28  1  0
 27 29  2  0
 29 30  1  0
 29  2  1  0
 11  7  1  0
 23 18  2  0
 24  8  1  0
M  END
>  <cnnaffinity>  (1) 
-5.52894

>  <filename>  (1) 
c1cncc(-c2[nH]nc3c2C[C@@H](c2nn[nH]n2)C3)c1

$$$$
