
     RDKit          3D

 38 41  0  0  0  0  0  0  0  0999 V2000
    4.9190    1.9880   16.4652 H   0  0  0  0  0  0  0  0  0  0  0  0
    5.3433    1.3978   17.2738 C   0  0  0  0  0  0  0  0  0  0  0  0
    6.4608    0.7179   16.9840 N   0  0  0  0  0  0  0  0  0  0  0  0
    7.0485    0.0367   17.9743 C   0  0  0  0  0  0  0  0  0  0  0  0
    7.9501   -0.5129   17.7067 H   0  0  0  0  0  0  0  0  0  0  0  0
    6.5605    0.0188   19.2942 C   0  0  0  0  0  0  0  0  0  0  0  0
    7.3535   -0.5667   20.3858 C   0  0  0  0  0  0  0  0  0  0  0  0
    8.5319   -1.1457   20.1192 N   0  0  0  0  0  0  0  0  0  0  0  0
    8.9879   -1.4669   21.3438 N   0  0  0  0  0  0  0  0  0  0  0  0
   10.1374   -2.0521   21.8403 C   0  0  0  0  0  0  0  0  0  0  0  0
   10.9164   -2.3487   21.1606 H   0  0  0  0  0  0  0  0  0  0  0  0
    9.9815   -2.0716   23.1924 C   0  0  0  0  0  0  0  0  0  0  0  0
   10.6126   -2.5063   23.9526 H   0  0  0  0  0  0  0  0  0  0  0  0
    8.7664   -1.4686   23.5273 N   0  0  0  0  0  0  0  0  0  0  0  0
    8.2933   -0.9757   24.8248 C   0  0  0  0  0  0  0  0  0  0  0  0
    7.2055   -0.8335   24.7278 H   0  0  0  0  0  0  0  0  0  0  0  0
    8.4998   -2.0234   25.9204 C   0  0  0  0  0  0  0  0  0  0  0  0
    9.5709   -2.2465   26.0056 H   0  0  0  0  0  0  0  0  0  0  0  0
    8.0021   -2.9552   25.6301 H   0  0  0  0  0  0  0  0  0  0  0  0
    8.0097   -1.5377   27.2920 C   0  0  0  0  0  0  0  0  0  0  0  0
    8.2324   -2.3284   28.0031 H   0  0  0  0  0  0  0  0  0  0  0  0
    6.9149   -1.4065   27.3092 H   0  0  0  0  0  0  0  0  0  0  0  0
    8.6636   -0.1997   27.6824 C   0  0  0  0  0  0  0  0  0  0  0  0
    8.3149    0.1598   28.6599 H   0  0  0  0  0  0  0  0  0  0  0  0
    9.7540   -0.3234   27.7841 H   0  0  0  0  0  0  0  0  0  0  0  0
    8.3592    0.8460   26.5971 C   0  0  0  0  0  0  0  0  0  0  0  0
    8.7519    1.8330   26.8735 H   0  0  0  0  0  0  0  0  0  0  0  0
    7.2635    0.9529   26.5209 H   0  0  0  0  0  0  0  0  0  0  0  0
    8.8876    0.4035   25.2184 C   0  0  0  0  0  0  0  0  0  0  0  0
    8.6029    1.1430   24.4612 H   0  0  0  0  0  0  0  0  0  0  0  0
    9.9897    0.3608   25.2340 H   0  0  0  0  0  0  0  0  0  0  0  0
    8.1602   -1.1128   22.3458 C   0  0  0  0  0  0  0  0  0  0  0  0
    7.0515   -0.5221   21.7715 C   0  0  0  0  0  0  0  0  0  0  0  0
    6.1690   -0.1271   22.2439 H   0  0  0  0  0  0  0  0  0  0  0  0
    5.3451    0.6649   19.5544 C   0  0  0  0  0  0  0  0  0  0  0  0
    4.8980    0.6214   20.5477 H   0  0  0  0  0  0  0  0  0  0  0  0
    4.7302    1.3769   18.5303 C   0  0  0  0  0  0  0  0  0  0  0  0
    3.8157    1.9311   18.7056 H   0  0  0  0  0  0  0  0  0  0  0  0
  1  2  1  0
  2  3  2  0
  3  4  1  0
  4  5  1  0
  4  6  2  0
  6  7  1  0
  7  8  2  0
  8  9  1  0
  9 10  1  0
 10 11  1  0
 10 12  2  0
 12 13  1  0
 12 14  1  0
 14 15  1  0
 15 16  1  0
 15 17  1  0
 17 18  1  0
 17 19  1  0
 17 20  1  0
 20 21  1  0
 20 22  1  0
 20 23  1  0
 23 24  1  0
 23 25  1  0
 23 26  1  0
 26 27  1  0
 26 28  1  0
 26 29  1  0
 29 30  1  0
 29 31  1  0
 14 32  1  0
 32 33  2  0
 33 34  1  0
  6 35  1  0
 35 36  1  0
 35 37  2  0
 37 38  1  0
 37  2  1  0
 33  7  1  0
 32  9  1  0
 29 15  1  0
M  END
>  <cnnaffinity>  (1) 
-5.47035

>  <filename>  (1) 
c1cncc(-c2cc3n(C4CCCCC4)ccn3n2)c1

$$$$
