
     RDKit          3D

 40 43  0  0  0  0  0  0  0  0999 V2000
    4.9149    1.9170   16.8869 H   0  0  0  0  0  0  0  0  0  0  0  0
    5.3720    1.3654   17.7037 C   0  0  0  0  0  0  0  0  0  0  0  0
    6.5461    0.7727   17.4303 N   0  0  0  0  0  0  0  0  0  0  0  0
    7.1552    0.1261   18.4340 C   0  0  0  0  0  0  0  0  0  0  0  0
    8.1099   -0.3419   18.1961 H   0  0  0  0  0  0  0  0  0  0  0  0
    6.6415    0.0036   19.7547 C   0  0  0  0  0  0  0  0  0  0  0  0
    7.3793   -0.6312   20.7648 N   0  0  0  0  0  0  0  0  0  0  0  0
    6.7552   -1.4085   21.8267 C   0  0  0  0  0  0  0  0  0  0  0  0
    6.5946   -0.8010   22.7369 H   0  0  0  0  0  0  0  0  0  0  0  0
    5.7734   -1.7649   21.4941 H   0  0  0  0  0  0  0  0  0  0  0  0
    7.6442   -2.6096   22.1740 C   0  0  0  0  0  0  0  0  0  0  0  0
    7.5929   -3.3349   21.3591 H   0  0  0  0  0  0  0  0  0  0  0  0
    7.2175   -3.1156   23.0447 H   0  0  0  0  0  0  0  0  0  0  0  0
    9.1422   -2.2331   22.4176 C   0  0  0  0  0  0  0  0  0  0  0  0
    9.7290   -2.6792   21.5979 H   0  0  0  0  0  0  0  0  0  0  0  0
    9.6616   -2.8314   23.7002 C   0  0  0  0  0  0  0  0  0  0  0  0
   10.8068   -3.5612   23.8082 C   0  0  0  0  0  0  0  0  0  0  0  0
   11.5950   -3.6894   23.0791 H   0  0  0  0  0  0  0  0  0  0  0  0
   10.8481   -4.2084   25.0257 N   0  0  0  0  0  0  0  0  0  0  0  0
   11.6288   -4.7274   25.3846 H   0  0  0  0  0  0  0  0  0  0  0  0
    9.7157   -3.9017   25.7387 C   0  0  0  0  0  0  0  0  0  0  0  0
    9.2355   -4.4042   26.9623 C   0  0  0  0  0  0  0  0  0  0  0  0
    9.7710   -5.1867   27.5008 H   0  0  0  0  0  0  0  0  0  0  0  0
    8.0304   -3.8984   27.4314 C   0  0  0  0  0  0  0  0  0  0  0  0
    7.6033   -4.2928   28.3492 H   0  0  0  0  0  0  0  0  0  0  0  0
    7.3423   -2.8655   26.7493 C   0  0  0  0  0  0  0  0  0  0  0  0
    6.4245   -2.4561   27.1678 H   0  0  0  0  0  0  0  0  0  0  0  0
    7.8215   -2.3804   25.5419 C   0  0  0  0  0  0  0  0  0  0  0  0
    7.3157   -1.5664   25.0298 H   0  0  0  0  0  0  0  0  0  0  0  0
    8.9868   -2.9536   24.9763 C   0  0  0  0  0  0  0  0  0  0  0  0
    9.3668   -0.7114   22.2729 C   0  0  0  0  0  0  0  0  0  0  0  0
    8.9234   -0.1771   23.1200 H   0  0  0  0  0  0  0  0  0  0  0  0
   10.4330   -0.4708   22.2788 H   0  0  0  0  0  0  0  0  0  0  0  0
    8.7660   -0.1962   20.9593 C   0  0  0  0  0  0  0  0  0  0  0  0
    8.8097    0.9059   20.9252 H   0  0  0  0  0  0  0  0  0  0  0  0
    9.3780   -0.5476   20.1115 H   0  0  0  0  0  0  0  0  0  0  0  0
    5.3829    0.5946   19.9939 C   0  0  0  0  0  0  0  0  0  0  0  0
    4.9418    0.5239   20.9879 H   0  0  0  0  0  0  0  0  0  0  0  0
    4.7554    1.2988   18.9589 C   0  0  0  0  0  0  0  0  0  0  0  0
    3.8109    1.8096   19.1194 H   0  0  0  0  0  0  0  0  0  0  0  0
  1  2  1  0
  2  3  2  0
  3  4  1  0
  4  5  1  0
  4  6  2  0
  6  7  1  0
  7  8  1  0
  8  9  1  0
  8 10  1  0
  8 11  1  0
 11 12  1  0
 11 13  1  0
 11 14  1  0
 14 15  1  0
 14 16  1  0
 16 17  2  0
 17 18  1  0
 17 19  1  0
 19 20  1  0
 19 21  1  0
 21 22  2  0
 22 23  1  0
 22 24  1  0
 24 25  1  0
 24 26  2  0
 26 27  1  0
 26 28  1  0
 28 29  1  0
 28 30  2  0
 14 31  1  0
 31 32  1  0
 31 33  1  0
 31 34  1  0
 34 35  1  0
 34 36  1  0
  6 37  1  0
 37 38  1  0
 37 39  2  0
 39 40  1  0
 39  2  1  0
 34  7  1  0
 30 16  1  0
 30 21  1  0
M  END
>  <cnnaffinity>  (1) 
-5.47127

>  <filename>  (1) 
c1cncc(N2CCC(c3c[nH]c4ccccc34)CC2)c1

$$$$
