
     RDKit          3D

 31 34  0  0  0  0  0  0  0  0999 V2000
    4.9127    1.7842   16.9942 H   0  0  0  0  0  0  0  0  0  0  0  0
    5.3972    1.2956   17.8368 C   0  0  0  0  0  0  0  0  0  0  0  0
    6.5591    0.6799   17.5685 N   0  0  0  0  0  0  0  0  0  0  0  0
    7.1609    0.0473   18.5804 C   0  0  0  0  0  0  0  0  0  0  0  0
    8.1220   -0.4232   18.3715 H   0  0  0  0  0  0  0  0  0  0  0  0
    6.6269   -0.0287   19.8818 C   0  0  0  0  0  0  0  0  0  0  0  0
    7.5625   -0.8416   21.1884 S   0  0  0  0  0  0  0  0  0  0  0  0
    8.5114    0.5771   21.6402 C   0  0  0  0  0  0  0  0  0  0  0  0
    9.6532    0.9200   21.0859 N   0  0  0  0  0  0  0  0  0  0  0  0
    9.9527    2.1300   21.6064 N   0  0  0  0  0  0  0  0  0  0  0  0
    9.0524    2.5274   22.4231 N   0  0  0  0  0  0  0  0  0  0  0  0
    8.1061    1.5584   22.4681 N   0  0  0  0  0  0  0  0  0  0  0  0
    6.9500    1.6420   23.2673 C   0  0  0  0  0  0  0  0  0  0  0  0
    6.2628    0.6049   23.8340 C   0  0  0  0  0  0  0  0  0  0  0  0
    6.4606   -0.4647   23.7979 H   0  0  0  0  0  0  0  0  0  0  0  0
    5.2009    1.1199   24.5354 N   0  0  0  0  0  0  0  0  0  0  0  0
    4.5315    0.5956   25.0711 H   0  0  0  0  0  0  0  0  0  0  0  0
    5.1823    2.4892   24.4311 C   0  0  0  0  0  0  0  0  0  0  0  0
    4.2961    3.4290   24.9914 C   0  0  0  0  0  0  0  0  0  0  0  0
    3.4656    3.1037   25.6178 H   0  0  0  0  0  0  0  0  0  0  0  0
    4.5367    4.7723   24.7028 C   0  0  0  0  0  0  0  0  0  0  0  0
    3.8729    5.5298   25.1121 H   0  0  0  0  0  0  0  0  0  0  0  0
    5.6268    5.1708   23.8804 C   0  0  0  0  0  0  0  0  0  0  0  0
    5.7822    6.2258   23.6706 H   0  0  0  0  0  0  0  0  0  0  0  0
    6.4951    4.2291   23.3326 C   0  0  0  0  0  0  0  0  0  0  0  0
    7.3383    4.5037   22.7021 H   0  0  0  0  0  0  0  0  0  0  0  0
    6.2756    2.8649   23.6197 C   0  0  0  0  0  0  0  0  0  0  0  0
    5.4285    0.6400   20.1554 C   0  0  0  0  0  0  0  0  0  0  0  0
    5.0121    0.6357   21.1699 H   0  0  0  0  0  0  0  0  0  0  0  0
    4.7999    1.3131   19.1034 C   0  0  0  0  0  0  0  0  0  0  0  0
    3.8685    1.8497   19.2582 H   0  0  0  0  0  0  0  0  0  0  0  0
  1  2  1  0
  2  3  2  0
  3  4  1  0
  4  5  1  0
  4  6  2  0
  6  7  1  0
  7  8  1  0
  8  9  2  0
  9 10  1  0
 10 11  2  0
 11 12  1  0
 12 13  1  0
 13 14  2  0
 14 15  1  0
 14 16  1  0
 16 17  1  0
 16 18  1  0
 18 19  2  0
 19 20  1  0
 19 21  1  0
 21 22  1  0
 21 23  2  0
 23 24  1  0
 23 25  1  0
 25 26  1  0
 25 27  2  0
  6 28  1  0
 28 29  1  0
 28 30  2  0
 30 31  1  0
 30  2  1  0
 12  8  1  0
 27 13  1  0
 27 18  1  0
M  END
>  <cnnaffinity>  (1) 
-5.1479

>  <filename>  (1) 
c1cncc(Sc2nnnn2-c2c[nH]c3ccccc23)c1

$$$$
