
     RDKit          3D

 37 40  0  0  0  0  0  0  0  0999 V2000
    5.0115    1.6904   16.8797 H   0  0  0  0  0  0  0  0  0  0  0  0
    5.5058    1.2819   17.7553 C   0  0  0  0  0  0  0  0  0  0  0  0
    6.7117    0.7278   17.5491 N   0  0  0  0  0  0  0  0  0  0  0  0
    7.3315    0.1993   18.6129 C   0  0  0  0  0  0  0  0  0  0  0  0
    8.3078   -0.2456   18.4224 H   0  0  0  0  0  0  0  0  0  0  0  0
    6.7929    0.1773   19.9094 C   0  0  0  0  0  0  0  0  0  0  0  0
    7.4419   -0.6143   21.0101 C   0  0  0  0  0  0  0  0  0  0  0  0
    6.9392   -2.0280   21.1056 C   0  0  0  0  0  0  0  0  0  0  0  0
    5.6896   -2.3254   20.9209 N   0  0  0  0  0  0  0  0  0  0  0  0
    5.4292   -3.6602   20.9283 N   0  0  0  0  0  0  0  0  0  0  0  0
    6.5097   -4.3604   21.0709 C   0  0  0  0  0  0  0  0  0  0  0  0
    6.5647   -5.6925   20.9935 O   0  0  0  0  0  0  0  0  0  0  0  0
    5.8811   -6.4444   22.0147 C   0  0  0  0  0  0  0  0  0  0  0  0
    6.1528   -7.4748   21.7644 H   0  0  0  0  0  0  0  0  0  0  0  0
    6.3368   -6.1490   23.4460 C   0  0  0  0  0  0  0  0  0  0  0  0
    6.2769   -5.0674   23.6334 H   0  0  0  0  0  0  0  0  0  0  0  0
    7.3813   -6.4382   23.6230 H   0  0  0  0  0  0  0  0  0  0  0  0
    5.2540   -6.8792   24.2550 C   0  0  0  0  0  0  0  0  0  0  0  0
    5.2873   -6.6877   25.3315 H   0  0  0  0  0  0  0  0  0  0  0  0
    5.3447   -7.9689   24.1250 H   0  0  0  0  0  0  0  0  0  0  0  0
    3.9664   -6.4180   23.5600 C   0  0  0  0  0  0  0  0  0  0  0  0
    3.1256   -7.0957   23.7308 H   0  0  0  0  0  0  0  0  0  0  0  0
    3.6696   -5.4331   23.9402 H   0  0  0  0  0  0  0  0  0  0  0  0
    4.3414   -6.3146   22.0637 C   0  0  0  0  0  0  0  0  0  0  0  0
    3.8739   -7.1067   21.4769 H   0  0  0  0  0  0  0  0  0  0  0  0
    4.0186   -5.3604   21.6526 H   0  0  0  0  0  0  0  0  0  0  0  0
    7.9554   -3.4323   21.3337 S   0  0  0  0  0  0  0  0  0  0  0  0
    8.8796   -0.2830   21.3175 C   0  0  0  0  0  0  0  0  0  0  0  0
    9.3316    0.4773   20.6838 H   0  0  0  0  0  0  0  0  0  0  0  0
    9.5297   -1.1028   21.6062 H   0  0  0  0  0  0  0  0  0  0  0  0
    7.8173    0.1501   22.2732 C   0  0  0  0  0  0  0  0  0  0  0  0
    7.7217   -0.3549   23.2302 H   0  0  0  0  0  0  0  0  0  0  0  0
    7.5310    1.2023   22.2821 H   0  0  0  0  0  0  0  0  0  0  0  0
    5.5597    0.8072   20.1121 C   0  0  0  0  0  0  0  0  0  0  0  0
    5.1422    0.8451   21.1199 H   0  0  0  0  0  0  0  0  0  0  0  0
    4.8953    1.3542   19.0147 C   0  0  0  0  0  0  0  0  0  0  0  0
    3.9365    1.8458   19.1225 H   0  0  0  0  0  0  0  0  0  0  0  0
  1  2  1  0
  2  3  2  0
  3  4  1  0
  4  5  1  0
  4  6  2  0
  6  7  1  0
  7  8  1  0
  8  9  2  0
  9 10  1  0
 10 11  2  0
 11 12  1  0
 12 13  1  0
 13 14  1  0
 13 15  1  0
 15 16  1  0
 15 17  1  0
 15 18  1  0
 18 19  1  0
 18 20  1  0
 18 21  1  0
 21 22  1  0
 21 23  1  0
 21 24  1  0
 24 25  1  0
 24 26  1  0
 11 27  1  0
  7 28  1  0
 28 29  1  0
 28 30  1  0
 28 31  1  0
 31 32  1  0
 31 33  1  0
  6 34  1  0
 34 35  1  0
 34 36  2  0
 36 37  1  0
 36  2  1  0
 31  7  1  0
 27  8  1  0
 24 13  1  0
M  END
>  <cnnaffinity>  (1) 
-5.25244

>  <filename>  (1) 
c1cncc(C2(c3nnc(OC4CCCC4)s3)CC2)c1

$$$$
