
     RDKit          3D

 35 38  0  0  0  0  0  0  0  0999 V2000
    4.9535    1.8200   16.9604 H   0  0  0  0  0  0  0  0  0  0  0  0
    5.3997    1.2995   17.8083 C   0  0  0  0  0  0  0  0  0  0  0  0
    6.5535    0.6593   17.5600 N   0  0  0  0  0  0  0  0  0  0  0  0
    7.1504    0.0307   18.5781 C   0  0  0  0  0  0  0  0  0  0  0  0
    8.0960   -0.4563   18.3518 H   0  0  0  0  0  0  0  0  0  0  0  0
    6.6421    0.0079   19.8865 C   0  0  0  0  0  0  0  0  0  0  0  0
    7.3842   -0.6581   20.9549 C   0  0  0  0  0  0  0  0  0  0  0  0
    8.0883   -1.8306   20.7568 N   0  0  0  0  0  0  0  0  0  0  0  0
    8.5028   -2.1393   21.9540 C   0  0  0  0  0  0  0  0  0  0  0  0
    9.4045   -3.4590   22.6312 S   0  0  0  0  0  0  0  0  0  0  0  0
    9.4559   -2.6584   24.1830 C   0  0  0  0  0  0  0  0  0  0  0  0
   10.0455   -3.1294   24.9608 H   0  0  0  0  0  0  0  0  0  0  0  0
    8.7532   -1.5164   24.1974 C   0  0  0  0  0  0  0  0  0  0  0  0
    8.5750   -0.8464   25.0346 H   0  0  0  0  0  0  0  0  0  0  0  0
    8.1864   -1.2266   22.9409 N   0  0  0  0  0  0  0  0  0  0  0  0
    7.4538   -0.2450   22.2917 C   0  0  0  0  0  0  0  0  0  0  0  0
    6.9622    0.8596   22.9196 N   0  0  0  0  0  0  0  0  0  0  0  0
    6.8068    1.6827   22.3547 H   0  0  0  0  0  0  0  0  0  0  0  0
    6.7826    0.9902   24.3476 C   0  0  0  0  0  0  0  0  0  0  0  0
    6.3727    0.0450   24.7364 H   0  0  0  0  0  0  0  0  0  0  0  0
    7.7376    1.1795   24.8618 H   0  0  0  0  0  0  0  0  0  0  0  0
    5.8261    2.1234   24.5794 C   0  0  0  0  0  0  0  0  0  0  0  0
    4.4566    1.8954   24.3976 C   0  0  0  0  0  0  0  0  0  0  0  0
    4.0787    0.8995   24.1624 H   0  0  0  0  0  0  0  0  0  0  0  0
    3.5157    2.8338   24.5417 N   0  0  0  0  0  0  0  0  0  0  0  0
    3.9146    4.0653   24.8844 C   0  0  0  0  0  0  0  0  0  0  0  0
    3.1121    4.7931   25.0178 H   0  0  0  0  0  0  0  0  0  0  0  0
    5.2568    4.4116   25.0799 C   0  0  0  0  0  0  0  0  0  0  0  0
    5.5051    5.4302   25.3646 H   0  0  0  0  0  0  0  0  0  0  0  0
    6.2344    3.4214   24.9155 C   0  0  0  0  0  0  0  0  0  0  0  0
    7.2944    3.6502   25.0632 H   0  0  0  0  0  0  0  0  0  0  0  0
    5.4196    0.6637   20.1222 C   0  0  0  0  0  0  0  0  0  0  0  0
    4.9864    0.6515   21.1218 H   0  0  0  0  0  0  0  0  0  0  0  0
    4.7873    1.3169   19.0672 C   0  0  0  0  0  0  0  0  0  0  0  0
    3.8547    1.8557   19.2047 H   0  0  0  0  0  0  0  0  0  0  0  0
  1  2  1  0
  2  3  2  0
  3  4  1  0
  4  5  1  0
  4  6  2  0
  6  7  1  0
  7  8  1  0
  8  9  2  0
  9 10  1  0
 10 11  1  0
 11 12  1  0
 11 13  2  0
 13 14  1  0
 13 15  1  0
 15 16  1  0
 16 17  1  0
 17 18  1  0
 17 19  1  0
 19 20  1  0
 19 21  1  0
 19 22  1  0
 22 23  2  0
 23 24  1  0
 23 25  1  0
 25 26  2  0
 26 27  1  0
 26 28  1  0
 28 29  1  0
 28 30  2  0
 30 31  1  0
  6 32  1  0
 32 33  1  0
 32 34  2  0
 34 35  1  0
 34  2  1  0
 16  7  2  0
 30 22  1  0
 15  9  1  0
M  END
>  <cnnaffinity>  (1) 
-5.46091

>  <filename>  (1) 
c1cncc(CNc2c(-c3cccnc3)nc3sccn23)c1

$$$$
