
     RDKit          3D

 36 38  0  0  0  0  0  0  0  0999 V2000
    7.5263   -2.8252   23.1985 H   0  0  0  0  0  0  0  0  0  0  0  0
    7.6895   -2.0378   22.4800 C   0  0  0  0  0  0  0  0  0  0  0  0
    8.8680   -1.3693   22.3730 N   0  0  0  0  0  0  0  0  0  0  0  0
    8.6225   -0.5058   21.4107 C   0  0  0  0  0  0  0  0  0  0  0  0
    9.5544    0.5746   20.9810 C   0  0  0  0  0  0  0  0  0  0  0  0
   10.5643    0.1605   21.0475 H   0  0  0  0  0  0  0  0  0  0  0  0
    9.3780    0.8088   19.9304 H   0  0  0  0  0  0  0  0  0  0  0  0
    9.4597    1.8653   21.8264 C   0  0  0  0  0  0  0  0  0  0  0  0
   10.1849    2.5769   21.3957 H   0  0  0  0  0  0  0  0  0  0  0  0
    9.8401    1.6364   23.2943 C   0  0  0  0  0  0  0  0  0  0  0  0
   10.8292    1.1685   23.3470 H   0  0  0  0  0  0  0  0  0  0  0  0
    9.1473    0.9084   23.7335 H   0  0  0  0  0  0  0  0  0  0  0  0
    9.7962    2.9404   24.0967 C   0  0  0  0  0  0  0  0  0  0  0  0
   10.0405    2.7416   25.1452 H   0  0  0  0  0  0  0  0  0  0  0  0
   10.5739    3.6166   23.7172 H   0  0  0  0  0  0  0  0  0  0  0  0
    8.4290    3.6306   23.9826 C   0  0  0  0  0  0  0  0  0  0  0  0
    8.4328    4.5824   24.5270 H   0  0  0  0  0  0  0  0  0  0  0  0
    7.6735    3.0012   24.4713 H   0  0  0  0  0  0  0  0  0  0  0  0
    8.0186    3.8425   22.5166 C   0  0  0  0  0  0  0  0  0  0  0  0
    7.0188    4.2887   22.4570 H   0  0  0  0  0  0  0  0  0  0  0  0
    8.7005    4.5695   22.0561 H   0  0  0  0  0  0  0  0  0  0  0  0
    8.0731    2.5179   21.7402 C   0  0  0  0  0  0  0  0  0  0  0  0
    7.3049    1.8422   22.1368 H   0  0  0  0  0  0  0  0  0  0  0  0
    7.8056    2.6201   20.6900 H   0  0  0  0  0  0  0  0  0  0  0  0
    7.3501   -0.6855   20.9322 N   0  0  0  0  0  0  0  0  0  0  0  0
    6.6540    0.0032   19.9023 C   0  0  0  0  0  0  0  0  0  0  0  0
    7.1676    0.0517   18.5939 C   0  0  0  0  0  0  0  0  0  0  0  0
    8.1119   -0.4348   18.3686 H   0  0  0  0  0  0  0  0  0  0  0  0
    6.5594    0.6713   17.5784 N   0  0  0  0  0  0  0  0  0  0  0  0
    5.4019    1.2967   17.8375 C   0  0  0  0  0  0  0  0  0  0  0  0
    4.9194    1.7860   16.9940 H   0  0  0  0  0  0  0  0  0  0  0  0
    4.8120    1.3104   19.1091 C   0  0  0  0  0  0  0  0  0  0  0  0
    3.8786    1.8402   19.2600 H   0  0  0  0  0  0  0  0  0  0  0  0
    5.4389    0.6451   20.1667 C   0  0  0  0  0  0  0  0  0  0  0  0
    5.0102    0.6120   21.1730 H   0  0  0  0  0  0  0  0  0  0  0  0
    6.7421   -1.6660   21.6469 N   0  0  0  0  0  0  0  0  0  0  0  0
  1  2  1  0
  2  3  1  0
  3  4  2  0
  4  5  1  0
  5  6  1  0
  5  7  1  0
  5  8  1  0
  8  9  1  0
  8 10  1  0
 10 11  1  0
 10 12  1  0
 10 13  1  0
 13 14  1  0
 13 15  1  0
 13 16  1  0
 16 17  1  0
 16 18  1  0
 16 19  1  0
 19 20  1  0
 19 21  1  0
 19 22  1  0
 22 23  1  0
 22 24  1  0
  4 25  1  0
 25 26  1  0
 26 27  2  0
 27 28  1  0
 27 29  1  0
 29 30  2  0
 30 31  1  0
 30 32  1  0
 32 33  1  0
 32 34  2  0
 34 35  1  0
 25 36  1  0
 36  2  2  0
 22  8  1  0
 34 26  1  0
M  END
>  <cnnaffinity>  (1) 
-5.31574

>  <filename>  (1) 
c1cncc(-n2ncnc2CC2CCCCC2)c1

$$$$
