
     RDKit          3D

 42 45  0  0  0  0  0  0  0  0999 V2000
    4.9195    1.7868   16.9980 H   0  0  0  0  0  0  0  0  0  0  0  0
    5.4011    1.2943   17.8378 C   0  0  0  0  0  0  0  0  0  0  0  0
    6.5666    0.6814   17.5781 N   0  0  0  0  0  0  0  0  0  0  0  0
    7.1864    0.0642   18.5975 C   0  0  0  0  0  0  0  0  0  0  0  0
    8.1321   -0.4089   18.3506 H   0  0  0  0  0  0  0  0  0  0  0  0
    6.6837   -0.0308   19.9281 C   0  0  0  0  0  0  0  0  0  0  0  0
    7.3452   -0.7332   20.9273 N   0  0  0  0  0  0  0  0  0  0  0  0
    6.6412   -1.3056   22.0640 C   0  0  0  0  0  0  0  0  0  0  0  0
    6.3271   -0.5328   22.7869 H   0  0  0  0  0  0  0  0  0  0  0  0
    5.7309   -1.8087   21.7133 H   0  0  0  0  0  0  0  0  0  0  0  0
    7.6447   -2.2957   22.6691 C   0  0  0  0  0  0  0  0  0  0  0  0
    7.4608   -3.3016   22.2801 H   0  0  0  0  0  0  0  0  0  0  0  0
    7.5441   -2.3380   23.7570 H   0  0  0  0  0  0  0  0  0  0  0  0
    9.0255   -1.7852   22.2359 C   0  0  0  0  0  0  0  0  0  0  0  0
    9.7199   -2.5997   22.0162 H   0  0  0  0  0  0  0  0  0  0  0  0
    9.4869   -1.1955   23.0321 H   0  0  0  0  0  0  0  0  0  0  0  0
    8.7957   -0.9150   20.9825 C   0  0  2  0  0  0  0  0  0  0  0  0
    9.1060   -1.4749   20.0872 H   0  0  0  0  0  0  0  0  0  0  0  0
    9.6283    0.4017   20.9819 C   0  0  0  0  0  0  0  0  0  0  0  0
    9.5722    0.8236   19.9737 H   0  0  0  0  0  0  0  0  0  0  0  0
   10.6783    0.1350   21.1565 H   0  0  0  0  0  0  0  0  0  0  0  0
    9.1893    1.4462   21.9928 C   0  0  0  0  0  0  0  0  0  0  0  0
    9.7444    1.4741   23.3092 C   0  0  0  0  0  0  0  0  0  0  0  0
   10.5411    0.7711   23.5647 H   0  0  0  0  0  0  0  0  0  0  0  0
    9.2923    2.3664   24.2520 C   0  0  0  0  0  0  0  0  0  0  0  0
    9.7215    2.3845   25.2505 H   0  0  0  0  0  0  0  0  0  0  0  0
    8.2458    3.2896   23.9376 C   0  0  0  0  0  0  0  0  0  0  0  0
    7.7508    4.2340   24.8912 C   0  0  0  0  0  0  0  0  0  0  0  0
    8.1902    4.2333   25.8879 H   0  0  0  0  0  0  0  0  0  0  0  0
    6.7492    5.1139   24.5507 C   0  0  0  0  0  0  0  0  0  0  0  0
    6.3768    5.8307   25.2817 H   0  0  0  0  0  0  0  0  0  0  0  0
    6.1855    5.0984   23.2371 C   0  0  0  0  0  0  0  0  0  0  0  0
    5.3963    5.8028   22.9833 H   0  0  0  0  0  0  0  0  0  0  0  0
    6.6408    4.1989   22.2964 C   0  0  0  0  0  0  0  0  0  0  0  0
    6.2230    4.1736   21.2884 H   0  0  0  0  0  0  0  0  0  0  0  0
    7.6826    3.2761   22.6212 C   0  0  0  0  0  0  0  0  0  0  0  0
    8.1970    2.3484   21.6662 C   0  0  0  0  0  0  0  0  0  0  0  0
    7.7674    2.3460   20.6702 H   0  0  0  0  0  0  0  0  0  0  0  0
    5.4544    0.6288   20.1692 C   0  0  0  0  0  0  0  0  0  0  0  0
    5.0214    0.6238   21.1693 H   0  0  0  0  0  0  0  0  0  0  0  0
    4.8246    1.2989   19.1120 C   0  0  0  0  0  0  0  0  0  0  0  0
    3.8938    1.8269   19.2654 H   0  0  0  0  0  0  0  0  0  0  0  0
  1  2  1  0
  2  3  2  0
  3  4  1  0
  4  5  1  0
  4  6  2  0
  6  7  1  0
  7  8  1  0
  8  9  1  0
  8 10  1  0
  8 11  1  0
 11 12  1  0
 11 13  1  0
 11 14  1  0
 14 15  1  0
 14 16  1  0
 14 17  1  0
 17 18  1  6
 17 19  1  0
 19 20  1  0
 19 21  1  0
 19 22  1  0
 22 23  2  0
 23 24  1  0
 23 25  1  0
 25 26  1  0
 25 27  2  0
 27 28  1  0
 28 29  1  0
 28 30  2  0
 30 31  1  0
 30 32  1  0
 32 33  1  0
 32 34  2  0
 34 35  1  0
 34 36  1  0
 36 37  2  0
 37 38  1  0
  6 39  1  0
 39 40  1  0
 39 41  2  0
 41 42  1  0
 41  2  1  0
 17  7  1  0
 37 22  1  0
 36 27  1  0
M  END
>  <cnnaffinity>  (1) 
-5.33914

>  <filename>  (1) 
c1cncc(N2CCC[C@@H]2Cc2ccc3ccccc3c2)c1

$$$$
