
     RDKit          3D

 33 37  0  0  0  0  0  0  0  0999 V2000
    4.9676    1.7919   16.9835 H   0  0  0  0  0  0  0  0  0  0  0  0
    5.4213    1.2857   17.8323 C   0  0  0  0  0  0  0  0  0  0  0  0
    6.5818    0.6550   17.5967 N   0  0  0  0  0  0  0  0  0  0  0  0
    7.1713    0.0388   18.6256 C   0  0  0  0  0  0  0  0  0  0  0  0
    8.1203   -0.4539   18.4220 H   0  0  0  0  0  0  0  0  0  0  0  0
    6.6287    0.0115   19.9163 C   0  0  0  0  0  0  0  0  0  0  0  0
    7.3613   -0.6942   20.9665 C   0  0  0  0  0  0  0  0  0  0  0  0
    8.5536   -1.3244   20.7457 N   0  0  0  0  0  0  0  0  0  0  0  0
    8.8195   -1.7965   21.9465 C   0  0  0  0  0  0  0  0  0  0  0  0
   10.0653   -2.7174   22.7361 S   0  0  0  0  0  0  0  0  0  0  0  0
    9.1760   -2.6257   24.2230 C   0  0  0  0  0  0  0  0  0  0  0  0
    9.5980   -3.1164   25.0869 H   0  0  0  0  0  0  0  0  0  0  0  0
    8.0116   -1.9304   24.1453 C   0  0  0  0  0  0  0  0  0  0  0  0
    7.0728   -1.6837   25.2543 C   0  0  0  0  0  0  0  0  0  0  0  0
    5.9325   -0.9502   25.0403 O   0  0  0  0  0  0  0  0  0  0  0  0
    5.2685   -0.8916   26.2240 C   0  0  0  0  0  0  0  0  0  0  0  0
    4.0553   -0.2363   26.4358 C   0  0  0  0  0  0  0  0  0  0  0  0
    3.5654    0.2682   25.6164 H   0  0  0  0  0  0  0  0  0  0  0  0
    3.5167   -0.2696   27.7206 C   0  0  0  0  0  0  0  0  0  0  0  0
    2.5725    0.2318   27.9228 H   0  0  0  0  0  0  0  0  0  0  0  0
    4.1717   -0.9527   28.7645 C   0  0  0  0  0  0  0  0  0  0  0  0
    3.7216   -0.9543   29.7593 H   0  0  0  0  0  0  0  0  0  0  0  0
    5.3729   -1.6176   28.5334 C   0  0  0  0  0  0  0  0  0  0  0  0
    5.8065   -2.1555   29.3637 H   0  0  0  0  0  0  0  0  0  0  0  0
    5.9565   -1.5849   27.2356 C   0  0  0  0  0  0  0  0  0  0  0  0
    7.1388   -2.0869   26.5627 C   0  0  0  0  0  0  0  0  0  0  0  0
    7.9401   -2.6704   26.9967 H   0  0  0  0  0  0  0  0  0  0  0  0
    7.8500   -1.4780   22.8283 N   0  0  0  0  0  0  0  0  0  0  0  0
    6.8934   -0.7580   22.2059 N   0  0  0  0  0  0  0  0  0  0  0  0
    5.4084    0.6681   20.1549 C   0  0  0  0  0  0  0  0  0  0  0  0
    4.9712    0.6701   21.1566 H   0  0  0  0  0  0  0  0  0  0  0  0
    4.7969    1.3145   19.0855 C   0  0  0  0  0  0  0  0  0  0  0  0
    3.8629    1.8512   19.2094 H   0  0  0  0  0  0  0  0  0  0  0  0
  1  2  1  0
  2  3  2  0
  3  4  1  0
  4  5  1  0
  4  6  2  0
  6  7  1  0
  7  8  1  0
  8  9  2  0
  9 10  1  0
 10 11  1  0
 11 12  1  0
 11 13  2  0
 13 14  1  0
 14 15  1  0
 15 16  1  0
 16 17  2  0
 17 18  1  0
 17 19  1  0
 19 20  1  0
 19 21  2  0
 21 22  1  0
 21 23  1  0
 23 24  1  0
 23 25  2  0
 25 26  1  0
 26 27  1  0
 13 28  1  0
 28 29  1  0
  6 30  1  0
 30 31  1  0
 30 32  2  0
 32 33  1  0
 32  2  1  0
 29  7  2  0
 28  9  1  0
 26 14  2  0
 25 16  1  0
M  END
>  <cnnaffinity>  (1) 
-5.6604

>  <filename>  (1) 
c1cncc(-c2nc3scc(-c4cc5ccccc5o4)n3n2)c1

$$$$
