
     RDKit          3D

 36 39  0  0  0  0  0  0  0  0999 V2000
    4.9152    1.7834   16.9908 H   0  0  0  0  0  0  0  0  0  0  0  0
    5.3994    1.2960   17.8315 C   0  0  0  0  0  0  0  0  0  0  0  0
    6.5618    0.6773   17.5687 N   0  0  0  0  0  0  0  0  0  0  0  0
    7.1705    0.0725   18.5947 C   0  0  0  0  0  0  0  0  0  0  0  0
    8.1120   -0.4275   18.3738 H   0  0  0  0  0  0  0  0  0  0  0  0
    6.6542    0.0149   19.8991 C   0  0  0  0  0  0  0  0  0  0  0  0
    7.3732   -0.7095   20.9707 C   0  0  0  0  0  0  0  0  0  0  0  0
    6.6770   -1.5489   21.8535 C   0  0  0  0  0  0  0  0  0  0  0  0
    5.6070   -1.6782   21.7150 H   0  0  0  0  0  0  0  0  0  0  0  0
    7.3527   -2.2276   22.8698 C   0  0  0  0  0  0  0  0  0  0  0  0
    6.7977   -2.8747   23.5455 H   0  0  0  0  0  0  0  0  0  0  0  0
    8.7345   -2.0717   23.0107 C   0  0  0  0  0  0  0  0  0  0  0  0
    9.2658   -2.5792   23.8093 H   0  0  0  0  0  0  0  0  0  0  0  0
    9.4483   -1.2222   22.1485 C   0  0  0  0  0  0  0  0  0  0  0  0
   10.9118   -1.0421   22.3081 C   0  0  0  0  0  0  0  0  0  0  0  0
   11.7443   -2.1238   22.1517 C   0  0  0  0  0  0  0  0  0  0  0  0
   11.3030   -3.0983   22.0132 H   0  0  0  0  0  0  0  0  0  0  0  0
   13.1014   -2.0804   22.1606 N   0  0  0  0  0  0  0  0  0  0  0  0
   13.6563   -0.9203   22.4354 C   0  0  0  0  0  0  0  0  0  0  0  0
   14.7384   -0.9034   22.5233 H   0  0  0  0  0  0  0  0  0  0  0  0
   12.9312    0.2830   22.6615 C   0  0  0  0  0  0  0  0  0  0  0  0
   13.5719    1.5268   22.9348 C   0  0  0  0  0  0  0  0  0  0  0  0
   14.6605    1.5641   22.9713 H   0  0  0  0  0  0  0  0  0  0  0  0
   12.8250    2.6629   23.1302 C   0  0  0  0  0  0  0  0  0  0  0  0
   13.3109    3.6151   23.3298 H   0  0  0  0  0  0  0  0  0  0  0  0
   11.4020    2.6101   23.0737 C   0  0  0  0  0  0  0  0  0  0  0  0
   10.8160    3.5107   23.2348 H   0  0  0  0  0  0  0  0  0  0  0  0
   10.7597    1.4215   22.8176 C   0  0  0  0  0  0  0  0  0  0  0  0
    9.6734    1.3627   22.7875 H   0  0  0  0  0  0  0  0  0  0  0  0
   11.5066    0.2287   22.5884 C   0  0  0  0  0  0  0  0  0  0  0  0
    8.7567   -0.5636   21.1226 C   0  0  0  0  0  0  0  0  0  0  0  0
    9.3038    0.1119   20.4668 H   0  0  0  0  0  0  0  0  0  0  0  0
    5.4302    0.6532   20.1482 C   0  0  0  0  0  0  0  0  0  0  0  0
    5.0091    0.6377   21.1591 H   0  0  0  0  0  0  0  0  0  0  0  0
    4.8024    1.3182   19.0980 C   0  0  0  0  0  0  0  0  0  0  0  0
    3.8696    1.8470   19.2547 H   0  0  0  0  0  0  0  0  0  0  0  0
  1  2  1  0
  2  3  2  0
  3  4  1  0
  4  5  1  0
  4  6  2  0
  6  7  1  0
  7  8  2  0
  8  9  1  0
  8 10  1  0
 10 11  1  0
 10 12  2  0
 12 13  1  0
 12 14  1  0
 14 15  1  0
 15 16  2  0
 16 17  1  0
 16 18  1  0
 18 19  2  0
 19 20  1  0
 19 21  1  0
 21 22  2  0
 22 23  1  0
 22 24  1  0
 24 25  1  0
 24 26  2  0
 26 27  1  0
 26 28  1  0
 28 29  1  0
 28 30  2  0
 14 31  2  0
 31 32  1  0
  6 33  1  0
 33 34  1  0
 33 35  2  0
 35 36  1  0
 35  2  1  0
 31  7  1  0
 30 15  1  0
 30 21  1  0
M  END
>  <cnnaffinity>  (1) 
-5.98998

>  <filename>  (1) 
c1cncc(-c2cccc(-c3cncc4ccccc34)c2)c1

$$$$
