
     RDKit          3D

 36 38  0  0  0  0  0  0  0  0999 V2000
    4.9806    1.8195   16.9532 H   0  0  0  0  0  0  0  0  0  0  0  0
    5.4588    1.2984   17.7796 C   0  0  0  0  0  0  0  0  0  0  0  0
    6.6038    0.6632   17.4838 N   0  0  0  0  0  0  0  0  0  0  0  0
    7.2250    0.0239   18.4844 C   0  0  0  0  0  0  0  0  0  0  0  0
    8.1431   -0.4937   18.2083 H   0  0  0  0  0  0  0  0  0  0  0  0
    6.7660   -0.0220   19.8198 C   0  0  0  0  0  0  0  0  0  0  0  0
    7.4982   -0.7332   20.8992 C   0  0  0  0  0  0  0  0  0  0  0  0
    8.8631   -1.1281   21.0128 C   0  0  0  0  0  0  0  0  0  0  0  0
    9.6533   -0.9361   20.2982 H   0  0  0  0  0  0  0  0  0  0  0  0
    9.1291   -1.7321   22.1658 N   0  0  0  0  0  0  0  0  0  0  0  0
    7.9581   -1.7660   22.7931 N   0  0  0  0  0  0  0  0  0  0  0  0
    7.7834   -2.1612   24.1045 N   0  0  0  0  0  0  0  0  0  0  0  0
    6.8357   -2.4965   24.1916 H   0  0  0  0  0  0  0  0  0  0  0  0
    8.7122   -3.1012   24.7505 C   0  0  0  0  0  0  0  0  0  0  0  0
    9.6925   -2.6123   24.8320 H   0  0  0  0  0  0  0  0  0  0  0  0
    8.9486   -4.4504   24.0484 C   0  0  0  0  0  0  0  0  0  0  0  0
    7.9957   -4.9896   23.9472 H   0  0  0  0  0  0  0  0  0  0  0  0
    9.3275   -4.2611   23.0365 H   0  0  0  0  0  0  0  0  0  0  0  0
    9.9539   -5.2825   24.8821 C   0  0  0  0  0  0  0  0  0  0  0  0
   10.9262   -4.7679   24.8426 H   0  0  0  0  0  0  0  0  0  0  0  0
   10.1041   -6.2815   24.4542 H   0  0  0  0  0  0  0  0  0  0  0  0
    9.5411   -5.4733   26.3573 C   0  0  0  0  0  0  0  0  0  0  0  0
   10.3969   -5.8909   26.9066 H   0  0  0  0  0  0  0  0  0  0  0  0
    8.7361   -6.2194   26.4119 H   0  0  0  0  0  0  0  0  0  0  0  0
    9.0743   -4.1831   27.0482 C   0  0  0  0  0  0  0  0  0  0  0  0
    9.9360   -3.5664   27.3213 H   0  0  0  0  0  0  0  0  0  0  0  0
    8.5736   -4.4374   27.9910 H   0  0  0  0  0  0  0  0  0  0  0  0
    8.1390   -3.3491   26.1628 C   0  0  0  0  0  0  0  0  0  0  0  0
    7.1728   -3.8707   26.0554 H   0  0  0  0  0  0  0  0  0  0  0  0
    7.9310   -2.3814   26.6370 H   0  0  0  0  0  0  0  0  0  0  0  0
    6.9764   -1.1550   22.1021 C   0  0  0  0  0  0  0  0  0  0  0  0
    6.0089   -1.0468   22.5637 H   0  0  0  0  0  0  0  0  0  0  0  0
    5.5501    0.6343   20.0859 C   0  0  0  0  0  0  0  0  0  0  0  0
    5.1357    0.6342   21.0958 H   0  0  0  0  0  0  0  0  0  0  0  0
    4.8875    1.3011   19.0557 C   0  0  0  0  0  0  0  0  0  0  0  0
    3.9491    1.8212   19.2262 H   0  0  0  0  0  0  0  0  0  0  0  0
  1  2  1  0
  2  3  2  0
  3  4  1  0
  4  5  1  0
  4  6  2  0
  6  7  1  0
  7  8  1  0
  8  9  1  0
  8 10  2  0
 10 11  1  0
 11 12  1  0
 12 13  1  0
 12 14  1  0
 14 15  1  0
 14 16  1  0
 16 17  1  0
 16 18  1  0
 16 19  1  0
 19 20  1  0
 19 21  1  0
 19 22  1  0
 22 23  1  0
 22 24  1  0
 22 25  1  0
 25 26  1  0
 25 27  1  0
 25 28  1  0
 28 29  1  0
 28 30  1  0
 11 31  1  0
 31 32  1  0
  6 33  1  0
 33 34  1  0
 33 35  2  0
 35 36  1  0
 35  2  1  0
 31  7  2  0
 28 14  1  0
M  END
>  <cnnaffinity>  (1) 
-4.66228

>  <filename>  (1) 
c1cncc(-c2cnn(NC3CCCCC3)c2)c1

$$$$
