
     RDKit          3D

 36 39  0  0  0  0  0  0  0  0999 V2000
    4.9214    1.7817   17.0002 H   0  0  0  0  0  0  0  0  0  0  0  0
    5.4059    1.2943   17.8427 C   0  0  0  0  0  0  0  0  0  0  0  0
    6.5700    0.6832   17.5771 N   0  0  0  0  0  0  0  0  0  0  0  0
    7.1736    0.0529   18.5876 C   0  0  0  0  0  0  0  0  0  0  0  0
    8.1199   -0.4311   18.3619 H   0  0  0  0  0  0  0  0  0  0  0  0
    6.6550   -0.0065   19.8859 C   0  0  0  0  0  0  0  0  0  0  0  0
    7.3895   -0.7318   20.9318 C   0  0  0  0  0  0  0  0  0  0  0  0
    8.0105   -1.8634   20.7096 N   0  0  0  0  0  0  0  0  0  0  0  0
    8.4926   -2.2889   21.9227 O   0  0  0  0  0  0  0  0  0  0  0  0
    8.1652   -1.3958   22.8669 C   0  0  0  0  0  0  0  0  0  0  0  0
    8.5046   -1.5999   23.8726 H   0  0  0  0  0  0  0  0  0  0  0  0
    7.4816   -0.3534   22.3258 C   0  0  0  0  0  0  0  0  0  0  0  0
    6.9785    0.7961   22.9326 N   0  0  0  0  0  0  0  0  0  0  0  0
    7.2943    2.1151   22.3957 C   0  0  0  0  0  0  0  0  0  0  0  0
    7.8711    1.9962   21.4733 H   0  0  0  0  0  0  0  0  0  0  0  0
    6.3690    2.6174   22.0784 H   0  0  0  0  0  0  0  0  0  0  0  0
    8.0420    3.0301   23.3620 C   0  0  0  0  0  0  0  0  0  0  0  0
    8.5829    4.2385   22.8974 C   0  0  0  0  0  0  0  0  0  0  0  0
    8.4934    4.5066   21.8443 H   0  0  0  0  0  0  0  0  0  0  0  0
    9.2377    5.1086   23.7736 C   0  0  0  0  0  0  0  0  0  0  0  0
    9.6501    6.0431   23.4009 H   0  0  0  0  0  0  0  0  0  0  0  0
    9.3564    4.7761   25.1280 C   0  0  0  0  0  0  0  0  0  0  0  0
    9.8647    5.4439   25.8181 H   0  0  0  0  0  0  0  0  0  0  0  0
    8.8208    3.5737   25.5943 C   0  0  0  0  0  0  0  0  0  0  0  0
    8.9049    3.2961   26.6431 H   0  0  0  0  0  0  0  0  0  0  0  0
    8.1643    2.6947   24.7252 C   0  0  0  0  0  0  0  0  0  0  0  0
    7.6256    1.3732   25.2460 C   0  0  0  0  0  0  0  0  0  0  0  0
    7.2143    1.4940   26.2532 H   0  0  0  0  0  0  0  0  0  0  0  0
    8.4573    0.6651   25.3391 H   0  0  0  0  0  0  0  0  0  0  0  0
    6.5618    0.7762   24.3230 C   0  0  0  0  0  0  0  0  0  0  0  0
    5.6337    1.3587   24.4034 H   0  0  0  0  0  0  0  0  0  0  0  0
    6.3204   -0.2535   24.6058 H   0  0  0  0  0  0  0  0  0  0  0  0
    5.4409    0.6471   20.1576 C   0  0  0  0  0  0  0  0  0  0  0  0
    5.0128    0.6356   21.1628 H   0  0  0  0  0  0  0  0  0  0  0  0
    4.8074    1.3088   19.1085 C   0  0  0  0  0  0  0  0  0  0  0  0
    3.8752    1.8415   19.2589 H   0  0  0  0  0  0  0  0  0  0  0  0
  1  2  1  0
  2  3  2  0
  3  4  1  0
  4  5  1  0
  4  6  2  0
  6  7  1  0
  7  8  2  0
  8  9  1  0
  9 10  1  0
 10 11  1  0
 10 12  2  0
 12 13  1  0
 13 14  1  0
 14 15  1  0
 14 16  1  0
 14 17  1  0
 17 18  2  0
 18 19  1  0
 18 20  1  0
 20 21  1  0
 20 22  2  0
 22 23  1  0
 22 24  1  0
 24 25  1  0
 24 26  2  0
 26 27  1  0
 27 28  1  0
 27 29  1  0
 27 30  1  0
 30 31  1  0
 30 32  1  0
  6 33  1  0
 33 34  1  0
 33 35  2  0
 35 36  1  0
 35  2  1  0
 12  7  1  0
 30 13  1  0
 26 17  1  0
M  END
>  <cnnaffinity>  (1) 
-5.24712

>  <filename>  (1) 
c1cncc(-c2nocc2N2CCc3ccccc3C2)c1

$$$$
