
     RDKit          3D

 36 39  0  0  0  0  0  0  0  0999 V2000
    4.9783    1.8092   16.9645 H   0  0  0  0  0  0  0  0  0  0  0  0
    5.4272    1.2941   17.8114 C   0  0  0  0  0  0  0  0  0  0  0  0
    6.5760    0.6404   17.5768 N   0  0  0  0  0  0  0  0  0  0  0  0
    7.1531    0.0093   18.6053 C   0  0  0  0  0  0  0  0  0  0  0  0
    8.0792   -0.5211   18.3874 H   0  0  0  0  0  0  0  0  0  0  0  0
    6.6540    0.0301   19.9157 C   0  0  0  0  0  0  0  0  0  0  0  0
    7.4247   -0.6499   20.9666 C   0  0  0  0  0  0  0  0  0  0  0  0
    7.8355   -1.9506   20.8058 N   0  0  0  0  0  0  0  0  0  0  0  0
    8.3486   -2.2639   21.9638 C   0  0  0  0  0  0  0  0  0  0  0  0
    8.9975   -3.7108   22.6990 S   0  0  0  0  0  0  0  0  0  0  0  0
    9.4483   -2.7907   24.1239 C   0  0  0  0  0  0  0  0  0  0  0  0
   10.0480   -3.2525   24.8962 H   0  0  0  0  0  0  0  0  0  0  0  0
    9.0357   -1.5146   24.0577 C   0  0  0  0  0  0  0  0  0  0  0  0
    9.1722   -0.7388   24.7973 H   0  0  0  0  0  0  0  0  0  0  0  0
    8.3866   -1.2241   22.8593 N   0  0  0  0  0  0  0  0  0  0  0  0
    7.7962   -0.1466   22.2107 C   0  0  0  0  0  0  0  0  0  0  0  0
    7.6761    1.2631   22.6670 C   0  0  0  0  0  0  0  0  0  0  0  0
    6.6215    1.5372   22.4926 H   0  0  0  0  0  0  0  0  0  0  0  0
    7.9619    1.5033   24.1560 C   0  0  0  0  0  0  0  0  0  0  0  0
    9.0124    1.2642   24.3587 H   0  0  0  0  0  0  0  0  0  0  0  0
    7.3440    0.8472   24.7756 H   0  0  0  0  0  0  0  0  0  0  0  0
    7.7563    2.9719   24.5265 C   0  0  0  0  0  0  0  0  0  0  0  0
    8.0051    3.1560   25.5764 H   0  0  0  0  0  0  0  0  0  0  0  0
    6.6947    3.2385   24.4220 H   0  0  0  0  0  0  0  0  0  0  0  0
    8.5621    3.8721   23.6960 N   0  0  0  0  0  0  0  0  0  0  0  0
    9.5438    3.6325   23.8486 H   0  0  0  0  0  0  0  0  0  0  0  0
    8.2915    3.6791   22.2665 C   0  0  0  0  0  0  0  0  0  0  0  0
    7.2439    3.9437   22.0783 H   0  0  0  0  0  0  0  0  0  0  0  0
    8.8533    4.4230   21.7018 H   0  0  0  0  0  0  0  0  0  0  0  0
    8.5207    2.2343   21.7979 C   0  0  0  0  0  0  0  0  0  0  0  0
    8.2421    2.1181   20.7445 H   0  0  0  0  0  0  0  0  0  0  0  0
    9.5888    1.9833   21.8870 H   0  0  0  0  0  0  0  0  0  0  0  0
    5.4334    0.7004   20.1352 C   0  0  0  0  0  0  0  0  0  0  0  0
    4.9686    0.7153   21.1212 H   0  0  0  0  0  0  0  0  0  0  0  0
    4.8068    1.3313   19.0615 C   0  0  0  0  0  0  0  0  0  0  0  0
    3.8641    1.8546   19.1834 H   0  0  0  0  0  0  0  0  0  0  0  0
  1  2  1  0
  2  3  2  0
  3  4  1  0
  4  5  1  0
  4  6  2  0
  6  7  1  0
  7  8  1  0
  8  9  2  0
  9 10  1  0
 10 11  1  0
 11 12  1  0
 11 13  2  0
 13 14  1  0
 13 15  1  0
 15 16  1  0
 16 17  1  0
 17 18  1  0
 17 19  1  0
 19 20  1  0
 19 21  1  0
 19 22  1  0
 22 23  1  0
 22 24  1  0
 22 25  1  0
 25 26  1  0
 25 27  1  0
 27 28  1  0
 27 29  1  0
 27 30  1  0
 30 31  1  0
 30 32  1  0
  6 33  1  0
 33 34  1  0
 33 35  2  0
 35 36  1  0
 35  2  1  0
 16  7  2  0
 30 17  1  0
 15  9  1  0
M  END
>  <cnnaffinity>  (1) 
-5.56576

>  <filename>  (1) 
c1cncc(-c2nc3sccn3c2C2CCNCC2)c1

$$$$
