
     RDKit          3D

 30 33  0  0  0  0  0  0  0  0999 V2000
    4.9878    1.8636   16.8935 H   0  0  0  0  0  0  0  0  0  0  0  0
    5.4177    1.3053   17.7232 C   0  0  0  0  0  0  0  0  0  0  0  0
    6.5606    0.6484   17.4731 N   0  0  0  0  0  0  0  0  0  0  0  0
    7.1336   -0.0045   18.4898 C   0  0  0  0  0  0  0  0  0  0  0  0
    8.0666   -0.5162   18.2628 H   0  0  0  0  0  0  0  0  0  0  0  0
    6.6063   -0.0433   19.7953 C   0  0  0  0  0  0  0  0  0  0  0  0
    7.3706   -0.6579   20.9009 C   0  0  0  0  0  0  0  0  0  0  0  0
    8.5070   -1.3365   20.6751 N   0  0  0  0  0  0  0  0  0  0  0  0
    8.9526   -1.5986   21.9206 N   0  0  0  0  0  0  0  0  0  0  0  0
   10.0684   -2.2281   22.4529 C   0  0  0  0  0  0  0  0  0  0  0  0
   10.7984   -2.6846   21.8114 H   0  0  0  0  0  0  0  0  0  0  0  0
    9.9662   -2.0961   23.8000 C   0  0  0  0  0  0  0  0  0  0  0  0
   10.6013   -2.4784   24.5844 H   0  0  0  0  0  0  0  0  0  0  0  0
    8.8056   -1.3772   24.1103 N   0  0  0  0  0  0  0  0  0  0  0  0
    8.3279   -0.9657   25.3738 C   0  0  0  0  0  0  0  0  0  0  0  0
    6.9323   -0.9222   25.6023 C   0  0  0  0  0  0  0  0  0  0  0  0
    6.2290   -1.2125   24.8240 H   0  0  0  0  0  0  0  0  0  0  0  0
    6.3938   -0.5253   26.7533 N   0  0  0  0  0  0  0  0  0  0  0  0
    7.1721   -0.1446   27.7719 N   0  0  0  0  0  0  0  0  0  0  0  0
    8.5031   -0.1594   27.6199 C   0  0  0  0  0  0  0  0  0  0  0  0
    9.0692    0.1426   28.4995 H   0  0  0  0  0  0  0  0  0  0  0  0
    9.1427   -0.5522   26.4311 C   0  0  0  0  0  0  0  0  0  0  0  0
   10.2294   -0.5012   26.3647 H   0  0  0  0  0  0  0  0  0  0  0  0
    8.1738   -1.1063   22.8967 C   0  0  0  0  0  0  0  0  0  0  0  0
    7.0835   -0.5130   22.2801 C   0  0  0  0  0  0  0  0  0  0  0  0
    6.2123   -0.0587   22.7139 H   0  0  0  0  0  0  0  0  0  0  0  0
    5.3870    0.6170   20.0261 C   0  0  0  0  0  0  0  0  0  0  0  0
    4.9205    0.6161   21.0144 H   0  0  0  0  0  0  0  0  0  0  0  0
    4.7893    1.3031   18.9730 C   0  0  0  0  0  0  0  0  0  0  0  0
    3.8732    1.8636   19.1190 H   0  0  0  0  0  0  0  0  0  0  0  0
  1  2  1  0
  2  3  2  0
  3  4  1  0
  4  5  1  0
  4  6  2  0
  6  7  1  0
  7  8  2  0
  8  9  1  0
  9 10  1  0
 10 11  1  0
 10 12  2  0
 12 13  1  0
 12 14  1  0
 14 15  1  0
 15 16  2  0
 16 17  1  0
 16 18  1  0
 18 19  2  0
 19 20  1  0
 20 21  1  0
 20 22  2  0
 22 23  1  0
 14 24  1  0
 24 25  2  0
 25 26  1  0
  6 27  1  0
 27 28  1  0
 27 29  2  0
 29 30  1  0
 29  2  1  0
 25  7  1  0
 24  9  1  0
 22 15  1  0
M  END
>  <cnnaffinity>  (1) 
-5.26389

>  <filename>  (1) 
c1cncc(-c2cc3n(-c4ccnnc4)ccn3n2)c1

$$$$
