
     RDKit          3D

 30 33  0  0  0  0  0  0  0  0999 V2000
    4.9318    1.8206   16.9604 H   0  0  0  0  0  0  0  0  0  0  0  0
    5.3901    1.3085   17.8001 C   0  0  0  0  0  0  0  0  0  0  0  0
    6.5512    0.6870   17.5416 N   0  0  0  0  0  0  0  0  0  0  0  0
    7.1538    0.0737   18.5697 C   0  0  0  0  0  0  0  0  0  0  0  0
    8.1038   -0.4042   18.3340 H   0  0  0  0  0  0  0  0  0  0  0  0
    6.6511    0.0319   19.8982 C   0  0  0  0  0  0  0  0  0  0  0  0
    7.3542   -0.6816   21.0169 C   0  0  0  0  0  0  0  0  0  0  0  0
    7.5769   -0.2894   22.3997 C   0  0  0  0  0  0  0  0  0  0  0  0
    7.1835    0.9408   23.0954 C   0  0  0  0  0  0  0  0  0  0  0  0
    7.3072    2.1855   22.4108 C   0  0  0  0  0  0  0  0  0  0  0  0
    7.6744    2.1792   21.3880 H   0  0  0  0  0  0  0  0  0  0  0  0
    6.9515    3.3749   23.0135 C   0  0  0  0  0  0  0  0  0  0  0  0
    7.0351    4.3057   22.4663 H   0  0  0  0  0  0  0  0  0  0  0  0
    6.4755    3.3070   24.3406 C   0  0  0  0  0  0  0  0  0  0  0  0
    6.3460    2.0834   25.0370 C   0  0  0  0  0  0  0  0  0  0  0  0
    5.8504    2.4641   26.3187 C   0  0  0  0  0  0  0  0  0  0  0  0
    5.6199    1.8172   27.1530 H   0  0  0  0  0  0  0  0  0  0  0  0
    5.6856    3.7673   26.4088 N   0  0  0  0  0  0  0  0  0  0  0  0
    6.0638    4.2656   25.2101 N   0  0  0  0  0  0  0  0  0  0  0  0
    6.0412    5.2567   25.0345 H   0  0  0  0  0  0  0  0  0  0  0  0
    6.7039    0.8794   24.3990 C   0  0  0  0  0  0  0  0  0  0  0  0
    6.6276   -0.0907   24.8857 H   0  0  0  0  0  0  0  0  0  0  0  0
    8.2064   -1.2247   23.0736 N   0  0  0  0  0  0  0  0  0  0  0  0
    8.3856   -2.2638   22.2103 O   0  0  0  0  0  0  0  0  0  0  0  0
    7.8705   -1.9378   21.0285 C   0  0  0  0  0  0  0  0  0  0  0  0
    7.8657   -2.7624   20.3541 H   0  0  0  0  0  0  0  0  0  0  0  0
    5.4207    0.6817   20.1208 C   0  0  0  0  0  0  0  0  0  0  0  0
    4.9876    0.6932   21.1237 H   0  0  0  0  0  0  0  0  0  0  0  0
    4.7824    1.3262   19.0579 C   0  0  0  0  0  0  0  0  0  0  0  0
    3.8380    1.8465   19.1868 H   0  0  0  0  0  0  0  0  0  0  0  0
  1  2  1  0
  2  3  2  0
  3  4  1  0
  4  5  1  0
  4  6  2  0
  6  7  1  0
  7  8  1  0
  8  9  1  0
  9 10  2  0
 10 11  1  0
 10 12  1  0
 12 13  1  0
 12 14  2  0
 14 15  1  0
 15 16  1  0
 16 17  1  0
 16 18  2  0
 18 19  1  0
 19 20  1  0
 15 21  2  0
 21 22  1  0
  8 23  2  0
 23 24  1  0
 24 25  1  0
 25 26  1  0
  6 27  1  0
 27 28  1  0
 27 29  2  0
 29 30  1  0
 29  2  1  0
 25  7  2  0
 21  9  1  0
 19 14  1  0
M  END
>  <cnnaffinity>  (1) 
-4.94621

>  <filename>  (1) 
c1cncc(-c2conc2-c2ccc3[nH]ncc3c2)c1

$$$$
