
     RDKit          3D

 32 35  0  0  0  0  0  0  0  0999 V2000
    4.9123    1.7788   16.9963 H   0  0  0  0  0  0  0  0  0  0  0  0
    5.4021    1.2940   17.8363 C   0  0  0  0  0  0  0  0  0  0  0  0
    6.5643    0.6777   17.5705 N   0  0  0  0  0  0  0  0  0  0  0  0
    7.1731    0.0714   18.5965 C   0  0  0  0  0  0  0  0  0  0  0  0
    8.1148   -0.4297   18.3762 H   0  0  0  0  0  0  0  0  0  0  0  0
    6.6564    0.0179   19.8992 C   0  0  0  0  0  0  0  0  0  0  0  0
    7.3811   -0.6994   20.9656 C   0  0  0  0  0  0  0  0  0  0  0  0
    8.7585   -0.5586   21.1208 C   0  0  0  0  0  0  0  0  0  0  0  0
    9.3223    0.0961   20.4649 H   0  0  0  0  0  0  0  0  0  0  0  0
    9.3771   -1.2496   22.1644 C   0  0  0  0  0  0  0  0  0  0  0  0
   10.4469   -1.1443   22.2970 H   0  0  0  0  0  0  0  0  0  0  0  0
    8.7253   -2.0552   23.0177 N   0  0  0  0  0  0  0  0  0  0  0  0
    7.3900   -2.1897   22.8583 C   0  0  0  0  0  0  0  0  0  0  0  0
    6.6253   -3.0760   23.7943 C   0  0  0  0  0  0  0  0  0  0  0  0
    5.3467   -3.2966   23.7398 N   0  0  0  0  0  0  0  0  0  0  0  0
    4.9491   -4.1598   24.7472 C   0  0  0  0  0  0  0  0  0  0  0  0
    3.6269   -4.5977   24.9783 C   0  0  0  0  0  0  0  0  0  0  0  0
    2.8353   -4.2345   24.3274 H   0  0  0  0  0  0  0  0  0  0  0  0
    3.3740   -5.4788   26.0293 C   0  0  0  0  0  0  0  0  0  0  0  0
    2.3578   -5.8225   26.2153 H   0  0  0  0  0  0  0  0  0  0  0  0
    4.4264   -5.9309   26.8577 C   0  0  0  0  0  0  0  0  0  0  0  0
    4.2142   -6.6184   27.6742 H   0  0  0  0  0  0  0  0  0  0  0  0
    5.7401   -5.5043   26.6411 C   0  0  0  0  0  0  0  0  0  0  0  0
    6.5516   -5.8492   27.2753 H   0  0  0  0  0  0  0  0  0  0  0  0
    5.9984   -4.6150   25.5822 C   0  0  0  0  0  0  0  0  0  0  0  0
    7.5012   -3.9081   25.0606 S   0  0  0  0  0  0  0  0  0  0  0  0
    6.6915   -1.5291   21.8443 C   0  0  0  0  0  0  0  0  0  0  0  0
    5.6242   -1.6793   21.7411 H   0  0  0  0  0  0  0  0  0  0  0  0
    5.4340    0.6531   20.1509 C   0  0  0  0  0  0  0  0  0  0  0  0
    5.0141    0.6301   21.1610 H   0  0  0  0  0  0  0  0  0  0  0  0
    4.8020    1.3177   19.1034 C   0  0  0  0  0  0  0  0  0  0  0  0
    3.8682    1.8475   19.2600 H   0  0  0  0  0  0  0  0  0  0  0  0
  1  2  1  0
  2  3  2  0
  3  4  1  0
  4  5  1  0
  4  6  2  0
  6  7  1  0
  7  8  2  0
  8  9  1  0
  8 10  1  0
 10 11  1  0
 10 12  2  0
 12 13  1  0
 13 14  1  0
 14 15  2  0
 15 16  1  0
 16 17  2  0
 17 18  1  0
 17 19  1  0
 19 20  1  0
 19 21  2  0
 21 22  1  0
 21 23  1  0
 23 24  1  0
 23 25  2  0
 25 26  1  0
 13 27  2  0
 27 28  1  0
  6 29  1  0
 29 30  1  0
 29 31  2  0
 31 32  1  0
 31  2  1  0
 27  7  1  0
 26 14  1  0
 25 16  1  0
M  END
>  <cnnaffinity>  (1) 
-5.36917

>  <filename>  (1) 
c1cncc(-c2ccnc(-c3nc4ccccc4s3)c2)c1

$$$$
