
     RDKit          3D

 37 40  0  0  0  0  0  0  0  0999 V2000
    5.2068    1.6649   16.9999 H   0  0  0  0  0  0  0  0  0  0  0  0
    5.7392    1.2122   17.8331 C   0  0  0  0  0  0  0  0  0  0  0  0
    6.9284    0.6539   17.5558 N   0  0  0  0  0  0  0  0  0  0  0  0
    7.5964    0.0994   18.5715 C   0  0  0  0  0  0  0  0  0  0  0  0
    8.5763   -0.3128   18.3307 H   0  0  0  0  0  0  0  0  0  0  0  0
    7.1066    0.0208   19.8863 C   0  0  0  0  0  0  0  0  0  0  0  0
    7.8829   -0.7251   20.8873 C   0  0  0  0  0  0  0  0  0  0  0  0
    9.2172   -0.6270   20.9407 N   0  0  0  0  0  0  0  0  0  0  0  0
    9.5450   -1.4696   21.9242 N   0  0  0  0  0  0  0  0  0  0  0  0
    8.5079   -2.1071   22.4748 C   0  0  0  0  0  0  0  0  0  0  0  0
    7.3771   -1.6659   21.8308 C   0  0  0  0  0  0  0  0  0  0  0  0
    5.9935   -2.2166   22.0092 C   0  0  0  0  0  0  0  0  0  0  0  0
    5.7783   -2.2923   23.0807 H   0  0  0  0  0  0  0  0  0  0  0  0
    5.2917   -1.5021   21.5684 H   0  0  0  0  0  0  0  0  0  0  0  0
    5.8026   -3.5579   21.3427 C   0  0  0  0  0  0  0  0  0  0  0  0
    5.9218   -3.6170   19.9471 C   0  0  0  0  0  0  0  0  0  0  0  0
    6.0900   -2.6873   19.3953 H   0  0  0  0  0  0  0  0  0  0  0  0
    5.8181   -4.7400   19.2310 N   0  0  0  0  0  0  0  0  0  0  0  0
    5.5948   -5.8747   19.9016 C   0  0  0  0  0  0  0  0  0  0  0  0
    5.5003   -6.7737   19.2996 H   0  0  0  0  0  0  0  0  0  0  0  0
    5.4412   -5.9330   21.2866 C   0  0  0  0  0  0  0  0  0  0  0  0
    5.2383   -6.8901   21.7530 H   0  0  0  0  0  0  0  0  0  0  0  0
    5.5361   -4.7520   22.0263 C   0  0  0  0  0  0  0  0  0  0  0  0
    5.3937   -4.7678   23.1095 H   0  0  0  0  0  0  0  0  0  0  0  0
    8.9583   -3.0154   23.5676 C   0  0  0  0  0  0  0  0  0  0  0  0
    8.3853   -2.8448   24.4815 H   0  0  0  0  0  0  0  0  0  0  0  0
    8.8114   -4.0597   23.2842 H   0  0  0  0  0  0  0  0  0  0  0  0
   10.4515   -2.6376   23.7246 C   0  0  0  0  0  0  0  0  0  0  0  0
   10.5689   -2.0337   24.6224 H   0  0  0  0  0  0  0  0  0  0  0  0
   11.0880   -3.5138   23.8276 H   0  0  0  0  0  0  0  0  0  0  0  0
   10.8434   -1.7933   22.4770 C   0  0  0  0  0  0  0  0  0  0  0  0
   11.3692   -0.8752   22.7458 H   0  0  0  0  0  0  0  0  0  0  0  0
   11.4427   -2.3546   21.7517 H   0  0  0  0  0  0  0  0  0  0  0  0
    5.8786    0.6479   20.1637 C   0  0  0  0  0  0  0  0  0  0  0  0
    5.4696    0.6694   21.1750 H   0  0  0  0  0  0  0  0  0  0  0  0
    5.1871    1.2494   19.1155 C   0  0  0  0  0  0  0  0  0  0  0  0
    4.2367    1.7419   19.2893 H   0  0  0  0  0  0  0  0  0  0  0  0
  1  2  1  0
  2  3  2  0
  3  4  1  0
  4  5  1  0
  4  6  2  0
  6  7  1  0
  7  8  2  0
  8  9  1  0
  9 10  1  0
 10 11  2  0
 11 12  1  0
 12 13  1  0
 12 14  1  0
 12 15  1  0
 15 16  2  0
 16 17  1  0
 16 18  1  0
 18 19  2  0
 19 20  1  0
 19 21  1  0
 21 22  1  0
 21 23  2  0
 23 24  1  0
 10 25  1  0
 25 26  1  0
 25 27  1  0
 25 28  1  0
 28 29  1  0
 28 30  1  0
 28 31  1  0
 31 32  1  0
 31 33  1  0
  6 34  1  0
 34 35  1  0
 34 36  2  0
 36 37  1  0
 36  2  1  0
 11  7  1  0
 23 15  1  0
 31  9  1  0
M  END
>  <cnnaffinity>  (1) 
-5.71427

>  <filename>  (1) 
c1cncc(Cc2c(-c3cccnc3)nn3c2CCC3)c1

$$$$
