
     RDKit          3D

 32 35  0  0  0  0  0  0  0  0999 V2000
    4.9454    1.8051   16.9857 H   0  0  0  0  0  0  0  0  0  0  0  0
    5.4051    1.2936   17.8290 C   0  0  0  0  0  0  0  0  0  0  0  0
    6.5666    0.6718   17.5785 N   0  0  0  0  0  0  0  0  0  0  0  0
    7.1570    0.0289   18.5897 C   0  0  0  0  0  0  0  0  0  0  0  0
    8.1068   -0.4487   18.3552 H   0  0  0  0  0  0  0  0  0  0  0  0
    6.6261   -0.0200   19.8902 C   0  0  0  0  0  0  0  0  0  0  0  0
    7.3363   -0.7143   20.9585 C   0  0  0  0  0  0  0  0  0  0  0  0
    7.9538   -1.8701   20.7505 N   0  0  0  0  0  0  0  0  0  0  0  0
    8.4153   -2.2036   21.9597 N   0  0  0  0  0  0  0  0  0  0  0  0
    8.2136   -1.3056   22.9140 C   0  0  0  0  0  0  0  0  0  0  0  0
    7.4963   -0.2862   22.3118 C   0  0  0  0  0  0  0  0  0  0  0  0
    7.2831    1.0070   22.9100 C   0  0  0  0  0  0  0  0  0  0  0  0
    7.1980    1.1297   24.2324 N   0  0  0  0  0  0  0  0  0  0  0  0
    7.0581    2.4394   24.4440 N   0  0  0  0  0  0  0  0  0  0  0  0
    6.9745    2.7471   25.4035 H   0  0  0  0  0  0  0  0  0  0  0  0
    7.0753    3.1722   23.3060 C   0  0  0  0  0  0  0  0  0  0  0  0
    6.9696    4.2475   23.3233 H   0  0  0  0  0  0  0  0  0  0  0  0
    7.2299    2.2709   22.2798 C   0  0  0  0  0  0  0  0  0  0  0  0
    7.2954    2.4003   21.2106 H   0  0  0  0  0  0  0  0  0  0  0  0
    9.0840   -1.5749   24.1155 C   0  0  0  0  0  0  0  0  0  0  0  0
    9.7709   -0.7346   24.2634 H   0  0  0  0  0  0  0  0  0  0  0  0
    8.4782   -1.6537   25.0200 H   0  0  0  0  0  0  0  0  0  0  0  0
    9.8256   -2.8863   23.7218 C   0  0  0  0  0  0  0  0  0  0  0  0
    9.5556   -3.7238   24.3693 H   0  0  0  0  0  0  0  0  0  0  0  0
   10.9096   -2.7798   23.7713 H   0  0  0  0  0  0  0  0  0  0  0  0
    9.4245   -3.1847   22.2519 C   0  0  0  0  0  0  0  0  0  0  0  0
   10.2489   -2.9891   21.5609 H   0  0  0  0  0  0  0  0  0  0  0  0
    9.0074   -4.1840   22.1167 H   0  0  0  0  0  0  0  0  0  0  0  0
    5.4109    0.6323   20.1382 C   0  0  0  0  0  0  0  0  0  0  0  0
    4.9981    0.6473   21.1474 H   0  0  0  0  0  0  0  0  0  0  0  0
    4.7920    1.3021   19.0855 C   0  0  0  0  0  0  0  0  0  0  0  0
    3.8683    1.8435   19.2350 H   0  0  0  0  0  0  0  0  0  0  0  0
  1  2  1  0
  2  3  2  0
  3  4  1  0
  4  5  1  0
  4  6  2  0
  6  7  1  0
  7  8  2  0
  8  9  1  0
  9 10  1  0
 10 11  2  0
 11 12  1  0
 12 13  2  0
 13 14  1  0
 14 15  1  0
 14 16  1  0
 16 17  1  0
 16 18  2  0
 18 19  1  0
 10 20  1  0
 20 21  1  0
 20 22  1  0
 20 23  1  0
 23 24  1  0
 23 25  1  0
 23 26  1  0
 26 27  1  0
 26 28  1  0
  6 29  1  0
 29 30  1  0
 29 31  2  0
 31 32  1  0
 31  2  1  0
 11  7  1  0
 18 12  1  0
 26  9  1  0
M  END
>  <cnnaffinity>  (1) 
-5.25189

>  <filename>  (1) 
c1cncc(-c2nn3c(c2-c2cc[nH]n2)CCC3)c1

$$$$
