
     RDKit          3D

 29 31  0  0  0  0  0  0  0  0999 V2000
    4.9193    1.7869   16.9904 H   0  0  0  0  0  0  0  0  0  0  0  0
    5.3965    1.2966   17.8357 C   0  0  0  0  0  0  0  0  0  0  0  0
    6.5593    0.6797   17.5751 N   0  0  0  0  0  0  0  0  0  0  0  0
    7.1659    0.0670   18.5988 C   0  0  0  0  0  0  0  0  0  0  0  0
    8.1173   -0.4155   18.3818 H   0  0  0  0  0  0  0  0  0  0  0  0
    6.6455    0.0112   19.9014 C   0  0  0  0  0  0  0  0  0  0  0  0
    7.4148   -0.7120   20.9766 C   0  0  0  0  0  0  0  0  0  0  0  0
    7.6430   -1.7430   20.6878 H   0  0  0  0  0  0  0  0  0  0  0  0
    6.8357   -0.7506   21.9055 H   0  0  0  0  0  0  0  0  0  0  0  0
    8.6889   -0.0709   21.2829 N   0  0  0  0  0  0  0  0  0  0  0  0
    9.8465   -0.5167   20.7661 N   0  0  0  0  0  0  0  0  0  0  0  0
   10.7600    0.3002   21.1458 N   0  0  0  0  0  0  0  0  0  0  0  0
   10.2411    1.3015   21.8812 N   0  0  0  0  0  0  0  0  0  0  0  0
    8.9496    1.0659   21.9602 C   0  0  0  0  0  0  0  0  0  0  0  0
    7.9708    1.8584   22.7453 C   0  0  0  0  0  0  0  0  0  0  0  0
    8.3416    2.8863   22.7873 H   0  0  0  0  0  0  0  0  0  0  0  0
    7.0108    1.8891   22.2182 H   0  0  0  0  0  0  0  0  0  0  0  0
    7.7679    1.3258   24.1565 C   0  0  0  0  0  0  0  0  0  0  0  0
    8.6840    1.0125   24.6557 H   0  0  0  0  0  0  0  0  0  0  0  0
    6.5125    0.5888   24.5138 C   0  0  0  0  0  0  0  0  0  0  0  0
    5.7654    0.4565   23.7315 H   0  0  0  0  0  0  0  0  0  0  0  0
    6.5561   -0.2398   25.2155 H   0  0  0  0  0  0  0  0  0  0  0  0
    6.7418    1.9884   25.0201 C   0  0  0  0  0  0  0  0  0  0  0  0
    6.9594    2.1367   26.0748 H   0  0  0  0  0  0  0  0  0  0  0  0
    6.1739    2.8041   24.5792 H   0  0  0  0  0  0  0  0  0  0  0  0
    5.4297    0.6526   20.1524 C   0  0  0  0  0  0  0  0  0  0  0  0
    4.9928    0.6358   21.1569 H   0  0  0  0  0  0  0  0  0  0  0  0
    4.7966    1.3159   19.0997 C   0  0  0  0  0  0  0  0  0  0  0  0
    3.8666    1.8502   19.2481 H   0  0  0  0  0  0  0  0  0  0  0  0
  1  2  1  0
  2  3  2  0
  3  4  1  0
  4  5  1  0
  4  6  2  0
  6  7  1  0
  7  8  1  0
  7  9  1  0
  7 10  1  0
 10 11  1  0
 11 12  2  0
 12 13  1  0
 13 14  2  0
 14 15  1  0
 15 16  1  0
 15 17  1  0
 15 18  1  0
 18 19  1  0
 18 20  1  0
 20 21  1  0
 20 22  1  0
 20 23  1  0
 23 24  1  0
 23 25  1  0
  6 26  1  0
 26 27  1  0
 26 28  2  0
 28 29  1  0
 28  2  1  0
 14 10  1  0
 23 18  1  0
M  END
>  <cnnaffinity>  (1) 
-4.88177

>  <filename>  (1) 
c1cncc(Cn2nnnc2CC2CC2)c1

$$$$
