
     RDKit          3D

 45 48  0  0  0  0  0  0  0  0999 V2000
    5.0063    1.7962   16.9953 H   0  0  0  0  0  0  0  0  0  0  0  0
    5.4364    1.2665   17.8451 C   0  0  0  0  0  0  0  0  0  0  0  0
    6.5881    0.6169   17.6152 N   0  0  0  0  0  0  0  0  0  0  0  0
    7.1397   -0.0256   18.6540 C   0  0  0  0  0  0  0  0  0  0  0  0
    8.0834   -0.5325   18.4562 H   0  0  0  0  0  0  0  0  0  0  0  0
    6.5969   -0.0815   19.9511 C   0  0  0  0  0  0  0  0  0  0  0  0
    7.3313   -0.8036   21.0585 C   0  0  0  0  0  0  0  0  0  0  0  0
    7.0195   -2.2587   21.2927 C   0  0  0  0  0  0  0  0  0  0  0  0
    7.8676   -3.2385   21.2290 N   0  0  0  0  0  0  0  0  0  0  0  0
    7.3008   -4.4665   21.4293 N   0  0  0  0  0  0  0  0  0  0  0  0
    6.0450   -4.3755   21.7173 C   0  0  0  0  0  0  0  0  0  0  0  0
    5.2862   -5.4437   21.9402 O   0  0  0  0  0  0  0  0  0  0  0  0
    4.1711   -5.3833   22.8595 C   0  0  0  0  0  0  0  0  0  0  0  0
    3.3687   -4.7561   22.4527 H   0  0  0  0  0  0  0  0  0  0  0  0
    4.4882   -4.9583   23.8197 H   0  0  0  0  0  0  0  0  0  0  0  0
    3.7068   -6.8267   23.0530 C   0  0  0  0  0  0  0  0  0  0  0  0
    3.4444   -7.2554   22.0679 H   0  0  0  0  0  0  0  0  0  0  0  0
    4.5706   -7.3902   23.4301 H   0  0  0  0  0  0  0  0  0  0  0  0
    2.6074   -6.9069   24.0116 N   0  0  0  0  0  0  0  0  0  0  0  0
    1.3113   -6.5486   23.4198 C   0  0  0  0  0  0  0  0  0  0  0  0
    1.3960   -5.5773   22.9136 H   0  0  0  0  0  0  0  0  0  0  0  0
    1.0062   -7.2818   22.6427 H   0  0  0  0  0  0  0  0  0  0  0  0
    0.2275   -6.4576   24.4952 C   0  0  0  0  0  0  0  0  0  0  0  0
   -0.7320   -6.2105   24.0264 H   0  0  0  0  0  0  0  0  0  0  0  0
    0.4831   -5.6277   25.1683 H   0  0  0  0  0  0  0  0  0  0  0  0
    0.1246   -7.7634   25.2947 C   0  0  0  0  0  0  0  0  0  0  0  0
   -0.2497   -8.5709   24.6438 H   0  0  0  0  0  0  0  0  0  0  0  0
   -0.5939   -7.6524   26.1155 H   0  0  0  0  0  0  0  0  0  0  0  0
    1.5082   -8.1406   25.8418 C   0  0  0  0  0  0  0  0  0  0  0  0
    1.8319   -7.3954   26.5807 H   0  0  0  0  0  0  0  0  0  0  0  0
    1.4762   -9.1080   26.3552 H   0  0  0  0  0  0  0  0  0  0  0  0
    2.5552   -8.1857   24.7276 C   0  0  0  0  0  0  0  0  0  0  0  0
    3.5440   -8.3775   25.1681 H   0  0  0  0  0  0  0  0  0  0  0  0
    2.3422   -9.0339   24.0441 H   0  0  0  0  0  0  0  0  0  0  0  0
    5.4117   -2.7543   21.7114 S   0  0  0  0  0  0  0  0  0  0  0  0
    8.7632   -0.4048   21.2972 C   0  0  0  0  0  0  0  0  0  0  0  0
    9.4223   -1.2144   21.5929 H   0  0  0  0  0  0  0  0  0  0  0  0
    9.1852    0.3582   20.6445 H   0  0  0  0  0  0  0  0  0  0  0  0
    7.7235    0.0153   22.2831 C   0  0  0  0  0  0  0  0  0  0  0  0
    7.6919   -0.4652   23.2563 H   0  0  0  0  0  0  0  0  0  0  0  0
    7.4348    1.0643   22.2928 H   0  0  0  0  0  0  0  0  0  0  0  0
    5.3978    0.6108   20.1673 C   0  0  0  0  0  0  0  0  0  0  0  0
    4.9497    0.6292   21.1648 H   0  0  0  0  0  0  0  0  0  0  0  0
    4.8072    1.2862   19.0949 C   0  0  0  0  0  0  0  0  0  0  0  0
    3.8801    1.8324   19.2150 H   0  0  0  0  0  0  0  0  0  0  0  0
  1  2  1  0
  2  3  2  0
  3  4  1  0
  4  5  1  0
  4  6  2  0
  6  7  1  0
  7  8  1  0
  8  9  2  0
  9 10  1  0
 10 11  2  0
 11 12  1  0
 12 13  1  0
 13 14  1  0
 13 15  1  0
 13 16  1  0
 16 17  1  0
 16 18  1  0
 16 19  1  0
 19 20  1  0
 20 21  1  0
 20 22  1  0
 20 23  1  0
 23 24  1  0
 23 25  1  0
 23 26  1  0
 26 27  1  0
 26 28  1  0
 26 29  1  0
 29 30  1  0
 29 31  1  0
 29 32  1  0
 32 33  1  0
 32 34  1  0
 11 35  1  0
  7 36  1  0
 36 37  1  0
 36 38  1  0
 36 39  1  0
 39 40  1  0
 39 41  1  0
  6 42  1  0
 42 43  1  0
 42 44  2  0
 44 45  1  0
 44  2  1  0
 39  7  1  0
 35  8  1  0
 32 19  1  0
M  END
>  <cnnaffinity>  (1) 
-5.33502

>  <filename>  (1) 
c1cncc(C2(c3nnc(OCCN4CCCCC4)s3)CC2)c1

$$$$
