
     RDKit          3D

 37 39  0  0  0  0  0  0  0  0999 V2000
    4.9525    1.7941   16.9910 H   0  0  0  0  0  0  0  0  0  0  0  0
    5.4118    1.2868   17.8365 C   0  0  0  0  0  0  0  0  0  0  0  0
    6.5748    0.6593   17.5964 N   0  0  0  0  0  0  0  0  0  0  0  0
    7.1788    0.0432   18.6221 C   0  0  0  0  0  0  0  0  0  0  0  0
    8.1313   -0.4306   18.3820 H   0  0  0  0  0  0  0  0  0  0  0  0
    6.6632    0.0109   19.9331 C   0  0  0  0  0  0  0  0  0  0  0  0
    7.3664   -0.6792   20.9753 N   0  0  0  0  0  0  0  0  0  0  0  0
    7.6777   -2.0181   20.9177 C   0  0  0  0  0  0  0  0  0  0  0  0
    7.2446   -2.5918   20.1158 H   0  0  0  0  0  0  0  0  0  0  0  0
    8.3921   -2.3670   22.0353 C   0  0  0  0  0  0  0  0  0  0  0  0
    8.8097   -3.3373   22.2718 H   0  0  0  0  0  0  0  0  0  0  0  0
    8.4928   -1.1978   22.8334 C   0  0  0  0  0  0  0  0  0  0  0  0
    8.9759   -1.0998   23.7973 H   0  0  0  0  0  0  0  0  0  0  0  0
    7.8620   -0.1734   22.1705 C   0  0  0  0  0  0  0  0  0  0  0  0
    7.7592    1.2600   22.5250 C   0  0  0  0  0  0  0  0  0  0  0  0
    6.7231    1.5989   22.4047 H   0  0  0  0  0  0  0  0  0  0  0  0
    7.9904    1.3901   23.5889 H   0  0  0  0  0  0  0  0  0  0  0  0
    8.6658    2.1742   21.6688 C   0  0  0  0  0  0  0  0  0  0  0  0
    8.3868    2.0004   20.6191 H   0  0  0  0  0  0  0  0  0  0  0  0
    8.3458    3.6334   22.0678 C   0  0  0  0  0  0  0  0  0  0  0  0
    7.2686    3.7062   22.2526 H   0  0  0  0  0  0  0  0  0  0  0  0
    8.5150    4.3431   21.2553 H   0  0  0  0  0  0  0  0  0  0  0  0
    9.0942    4.0882   23.3373 C   0  0  0  0  0  0  0  0  0  0  0  0
    9.0097    5.1738   23.4633 H   0  0  0  0  0  0  0  0  0  0  0  0
    8.6018    3.6422   24.2105 H   0  0  0  0  0  0  0  0  0  0  0  0
   10.5133    3.7324   23.3937 N   0  0  0  0  0  0  0  0  0  0  0  0
   10.9783    4.2230   22.6279 H   0  0  0  0  0  0  0  0  0  0  0  0
   10.7305    2.2995   23.1775 C   0  0  0  0  0  0  0  0  0  0  0  0
   11.8075    2.1095   23.2446 H   0  0  0  0  0  0  0  0  0  0  0  0
   10.2821    1.7333   24.0107 H   0  0  0  0  0  0  0  0  0  0  0  0
   10.1675    1.8275   21.8287 C   0  0  0  0  0  0  0  0  0  0  0  0
   10.3149    0.7456   21.7182 H   0  0  0  0  0  0  0  0  0  0  0  0
   10.7463    2.3092   21.0271 H   0  0  0  0  0  0  0  0  0  0  0  0
    5.4376    0.6586   20.1613 C   0  0  0  0  0  0  0  0  0  0  0  0
    4.9900    0.6456   21.1544 H   0  0  0  0  0  0  0  0  0  0  0  0
    4.8060    1.3055   19.0951 C   0  0  0  0  0  0  0  0  0  0  0  0
    3.8708    1.8382   19.2392 H   0  0  0  0  0  0  0  0  0  0  0  0
  1  2  1  0
  2  3  2  0
  3  4  1  0
  4  5  1  0
  4  6  2  0
  6  7  1  0
  7  8  1  0
  8  9  1  0
  8 10  2  0
 10 11  1  0
 10 12  1  0
 12 13  1  0
 12 14  2  0
 14 15  1  0
 15 16  1  0
 15 17  1  0
 15 18  1  0
 18 19  1  0
 18 20  1  0
 20 21  1  0
 20 22  1  0
 20 23  1  0
 23 24  1  0
 23 25  1  0
 23 26  1  0
 26 27  1  0
 26 28  1  0
 28 29  1  0
 28 30  1  0
 28 31  1  0
 31 32  1  0
 31 33  1  0
  6 34  1  0
 34 35  1  0
 34 36  2  0
 36 37  1  0
 36  2  1  0
 14  7  1  0
 31 18  1  0
M  END
>  <cnnaffinity>  (1) 
-4.82507

>  <filename>  (1) 
c1cncc(-n2cccc2CC2CCNCC2)c1

$$$$
