
     RDKit          3D

 40 43  0  0  0  0  0  0  0  0999 V2000
    4.9806    1.8362   16.8891 H   0  0  0  0  0  0  0  0  0  0  0  0
    5.4174    1.3582   17.7632 C   0  0  0  0  0  0  0  0  0  0  0  0
    6.5729    0.7049   17.5601 N   0  0  0  0  0  0  0  0  0  0  0  0
    7.1322    0.0938   18.6159 C   0  0  0  0  0  0  0  0  0  0  0  0
    8.0657   -0.4371   18.4232 H   0  0  0  0  0  0  0  0  0  0  0  0
    6.5911    0.0969   19.9317 C   0  0  0  0  0  0  0  0  0  0  0  0
    7.1277   -0.6315   21.0266 N   0  0  0  0  0  0  0  0  0  0  0  0
    7.6941    0.0666   22.1813 C   0  0  0  0  0  0  0  0  0  0  0  0
    8.7746    0.2758   22.0458 H   0  0  0  0  0  0  0  0  0  0  0  0
    7.2045    1.0398   22.2892 H   0  0  0  0  0  0  0  0  0  0  0  0
    7.4986   -0.7776   23.4483 C   0  0  0  0  0  0  0  0  0  0  0  0
    7.9142   -0.2536   24.3170 H   0  0  0  0  0  0  0  0  0  0  0  0
    6.4243   -0.8923   23.6323 H   0  0  0  0  0  0  0  0  0  0  0  0
    8.1389   -2.1769   23.3050 C   0  0  0  0  0  0  0  0  0  0  0  0
    9.2303   -2.0291   23.2529 H   0  0  0  0  0  0  0  0  0  0  0  0
    7.8387   -3.1118   24.4677 C   0  0  0  0  0  0  0  0  0  0  0  0
    6.5261   -3.3467   24.8920 C   0  0  0  0  0  0  0  0  0  0  0  0
    5.6918   -2.9079   24.3468 H   0  0  0  0  0  0  0  0  0  0  0  0
    6.2492   -4.1534   26.0178 C   0  0  0  0  0  0  0  0  0  0  0  0
    5.2126   -4.3013   26.3142 H   0  0  0  0  0  0  0  0  0  0  0  0
    7.2676   -4.7725   26.7342 C   0  0  0  0  0  0  0  0  0  0  0  0
    7.0510   -5.3878   27.6029 H   0  0  0  0  0  0  0  0  0  0  0  0
    8.5873   -4.5987   26.2754 C   0  0  0  0  0  0  0  0  0  0  0  0
    8.8792   -3.8169   25.1288 C   0  0  0  0  0  0  0  0  0  0  0  0
   10.2859   -3.9535   24.8997 C   0  0  0  0  0  0  0  0  0  0  0  0
   10.8316   -3.5153   24.0775 H   0  0  0  0  0  0  0  0  0  0  0  0
   10.7918   -4.7404   25.8889 C   0  0  0  0  0  0  0  0  0  0  0  0
   11.8173   -5.0126   26.0734 H   0  0  0  0  0  0  0  0  0  0  0  0
    9.7741   -5.1234   26.7313 N   0  0  0  0  0  0  0  0  0  0  0  0
    9.8629   -5.7627   27.5080 H   0  0  0  0  0  0  0  0  0  0  0  0
    7.6412   -2.8332   22.0065 C   0  0  0  0  0  0  0  0  0  0  0  0
    8.1941   -3.7622   21.8348 H   0  0  0  0  0  0  0  0  0  0  0  0
    6.5879   -3.1118   22.1441 H   0  0  0  0  0  0  0  0  0  0  0  0
    7.7387   -1.9294   20.7777 C   0  0  0  0  0  0  0  0  0  0  0  0
    7.1682   -2.3952   19.9701 H   0  0  0  0  0  0  0  0  0  0  0  0
    8.7937   -1.8468   20.4451 H   0  0  0  0  0  0  0  0  0  0  0  0
    5.3968    0.8222   20.1146 C   0  0  0  0  0  0  0  0  0  0  0  0
    4.9604    0.8553   21.1128 H   0  0  0  0  0  0  0  0  0  0  0  0
    4.7925    1.4379   19.0131 C   0  0  0  0  0  0  0  0  0  0  0  0
    3.8595    1.9840   19.1142 H   0  0  0  0  0  0  0  0  0  0  0  0
  1  2  1  0
  2  3  2  0
  3  4  1  0
  4  5  1  0
  4  6  2  0
  6  7  1  0
  7  8  1  0
  8  9  1  0
  8 10  1  0
  8 11  1  0
 11 12  1  0
 11 13  1  0
 11 14  1  0
 14 15  1  0
 14 16  1  0
 16 17  2  0
 17 18  1  0
 17 19  1  0
 19 20  1  0
 19 21  2  0
 21 22  1  0
 21 23  1  0
 23 24  2  0
 24 25  1  0
 25 26  1  0
 25 27  2  0
 27 28  1  0
 27 29  1  0
 29 30  1  0
 14 31  1  0
 31 32  1  0
 31 33  1  0
 31 34  1  0
 34 35  1  0
 34 36  1  0
  6 37  1  0
 37 38  1  0
 37 39  2  0
 39 40  1  0
 39  2  1  0
 34  7  1  0
 24 16  1  0
 29 23  1  0
M  END
>  <cnnaffinity>  (1) 
-5.39961

>  <filename>  (1) 
c1cncc(N2CCC(c3cccc4[nH]ccc34)CC2)c1

$$$$
