
     RDKit          3D

 32 35  0  0  0  0  0  0  0  0999 V2000
    9.1766   -3.0578   21.9606 H   0  0  0  0  0  0  0  0  0  0  0  0
    8.5673   -2.1615   21.9181 C   0  0  0  0  0  0  0  0  0  0  0  0
    8.2343   -1.3912   22.8930 N   0  0  0  0  0  0  0  0  0  0  0  0
    7.4719   -0.3956   22.2984 C   0  0  0  0  0  0  0  0  0  0  0  0
    6.9944    0.7815   23.0053 C   0  0  0  0  0  0  0  0  0  0  0  0
    7.2976    2.0446   22.5228 C   0  0  0  0  0  0  0  0  0  0  0  0
    7.8717    2.1473   21.6072 H   0  0  0  0  0  0  0  0  0  0  0  0
    6.9209    3.2089   23.1035 N   0  0  0  0  0  0  0  0  0  0  0  0
    6.2090    3.1226   24.2091 C   0  0  0  0  0  0  0  0  0  0  0  0
    5.9139    4.0528   24.6873 H   0  0  0  0  0  0  0  0  0  0  0  0
    5.8058    1.8992   24.8185 C   0  0  0  0  0  0  0  0  0  0  0  0
    5.0317    1.8556   26.0209 C   0  0  0  0  0  0  0  0  0  0  0  0
    4.7418    2.7869   26.5072 H   0  0  0  0  0  0  0  0  0  0  0  0
    4.6537    0.6454   26.5542 C   0  0  0  0  0  0  0  0  0  0  0  0
    4.0641    0.6044   27.4680 H   0  0  0  0  0  0  0  0  0  0  0  0
    5.0249   -0.5716   25.9205 C   0  0  0  0  0  0  0  0  0  0  0  0
    4.7132   -1.5231   26.3402 H   0  0  0  0  0  0  0  0  0  0  0  0
    5.7846   -0.5539   24.7713 C   0  0  0  0  0  0  0  0  0  0  0  0
    6.0596   -1.4697   24.2542 H   0  0  0  0  0  0  0  0  0  0  0  0
    6.2024    0.6808   24.1938 C   0  0  0  0  0  0  0  0  0  0  0  0
    7.3665   -0.6741   20.9541 C   0  0  0  0  0  0  0  0  0  0  0  0
    6.6508   -0.0072   19.8835 C   0  0  0  0  0  0  0  0  0  0  0  0
    7.1730    0.0466   18.5788 C   0  0  0  0  0  0  0  0  0  0  0  0
    8.1243   -0.4315   18.3629 H   0  0  0  0  0  0  0  0  0  0  0  0
    6.5693    0.6777   17.5705 N   0  0  0  0  0  0  0  0  0  0  0  0
    5.4052    1.2908   17.8402 C   0  0  0  0  0  0  0  0  0  0  0  0
    4.9170    1.7785   17.0013 H   0  0  0  0  0  0  0  0  0  0  0  0
    4.8054    1.3078   19.1061 C   0  0  0  0  0  0  0  0  0  0  0  0
    3.8744    1.8444   19.2601 H   0  0  0  0  0  0  0  0  0  0  0  0
    5.4371    0.6471   20.1546 C   0  0  0  0  0  0  0  0  0  0  0  0
    5.0092    0.6313   21.1644 H   0  0  0  0  0  0  0  0  0  0  0  0
    8.0955   -1.8029   20.7108 O   0  0  0  0  0  0  0  0  0  0  0  0
  1  2  1  0
  2  3  2  0
  3  4  1  0
  4  5  1  0
  5  6  2  0
  6  7  1  0
  6  8  1  0
  8  9  2  0
  9 10  1  0
  9 11  1  0
 11 12  2  0
 12 13  1  0
 12 14  1  0
 14 15  1  0
 14 16  2  0
 16 17  1  0
 16 18  1  0
 18 19  1  0
 18 20  2  0
  4 21  2  0
 21 22  1  0
 22 23  2  0
 23 24  1  0
 23 25  1  0
 25 26  2  0
 26 27  1  0
 26 28  1  0
 28 29  1  0
 28 30  2  0
 30 31  1  0
 21 32  1  0
 32  2  1  0
 20  5  1  0
 30 22  1  0
 20 11  1  0
M  END
>  <cnnaffinity>  (1) 
-4.82148

>  <filename>  (1) 
c1cncc(-c2ocnc2-c2cncc3ccccc23)c1

$$$$
