
     RDKit          3D

 38 40  0  0  0  0  0  0  0  0999 V2000
    6.6990   -3.3968   22.7975 H   0  0  0  0  0  0  0  0  0  0  0  0
    7.2484   -2.5480   22.4022 C   0  0  0  0  0  0  0  0  0  0  0  0
    6.6312   -1.8150   21.4562 N   0  0  0  0  0  0  0  0  0  0  0  0
    7.3345   -0.7714   20.9706 C   0  0  0  0  0  0  0  0  0  0  0  0
    6.6446   -0.0038   19.9037 C   0  0  0  0  0  0  0  0  0  0  0  0
    7.1628    0.0494   18.6052 C   0  0  0  0  0  0  0  0  0  0  0  0
    8.1146   -0.4324   18.3743 H   0  0  0  0  0  0  0  0  0  0  0  0
    6.5641    0.6714   17.5841 N   0  0  0  0  0  0  0  0  0  0  0  0
    5.4050    1.2947   17.8426 C   0  0  0  0  0  0  0  0  0  0  0  0
    4.9187    1.7804   16.9993 H   0  0  0  0  0  0  0  0  0  0  0  0
    4.8096    1.3163   19.1080 C   0  0  0  0  0  0  0  0  0  0  0  0
    3.8749    1.8454   19.2595 H   0  0  0  0  0  0  0  0  0  0  0  0
    5.4288    0.6428   20.1586 C   0  0  0  0  0  0  0  0  0  0  0  0
    4.9927    0.6260   21.1617 H   0  0  0  0  0  0  0  0  0  0  0  0
    8.6410   -0.4289   21.4749 C   0  0  0  0  0  0  0  0  0  0  0  0
    9.4134    0.8013   21.0288 C   0  0  0  0  0  0  0  0  0  0  0  0
    9.1523    1.0321   19.9945 H   0  0  0  0  0  0  0  0  0  0  0  0
   10.4772    0.5430   21.0327 H   0  0  0  0  0  0  0  0  0  0  0  0
    9.1919    2.0787   21.8761 C   0  0  0  0  0  0  0  0  0  0  0  0
    9.7695    2.8759   21.3823 H   0  0  0  0  0  0  0  0  0  0  0  0
    7.7279    2.5518   21.8933 C   0  0  0  0  0  0  0  0  0  0  0  0
    7.3280    2.5961   20.8751 H   0  0  0  0  0  0  0  0  0  0  0  0
    7.1168    1.7979   22.4078 H   0  0  0  0  0  0  0  0  0  0  0  0
    7.5635    3.9262   22.5897 C   0  0  0  0  0  0  0  0  0  0  0  0
    6.5699    3.9691   23.0533 H   0  0  0  0  0  0  0  0  0  0  0  0
    7.5882    4.7288   21.8415 H   0  0  0  0  0  0  0  0  0  0  0  0
    8.6471    4.2100   23.6577 C   0  0  0  0  0  0  0  0  0  0  0  0
    8.2640    4.9095   24.4092 H   0  0  0  0  0  0  0  0  0  0  0  0
    9.5049    4.7060   23.1831 H   0  0  0  0  0  0  0  0  0  0  0  0
    9.1332    2.9210   24.3281 C   0  0  0  0  0  0  0  0  0  0  0  0
    8.2820    2.4369   24.8264 H   0  0  0  0  0  0  0  0  0  0  0  0
    9.8590    3.1455   25.1161 H   0  0  0  0  0  0  0  0  0  0  0  0
    9.7550    1.9367   23.3138 C   0  0  0  0  0  0  0  0  0  0  0  0
   10.8419    2.0824   23.2663 H   0  0  0  0  0  0  0  0  0  0  0  0
    9.6103    0.9125   23.6719 H   0  0  0  0  0  0  0  0  0  0  0  0
    9.2419   -1.1944   22.4100 N   0  0  0  0  0  0  0  0  0  0  0  0
    8.5337   -2.2458   22.8657 C   0  0  0  0  0  0  0  0  0  0  0  0
    8.9986   -2.8567   23.6297 H   0  0  0  0  0  0  0  0  0  0  0  0
  1  2  1  0
  2  3  2  0
  3  4  1  0
  4  5  1  0
  5  6  2  0
  6  7  1  0
  6  8  1  0
  8  9  2  0
  9 10  1  0
  9 11  1  0
 11 12  1  0
 11 13  2  0
 13 14  1  0
  4 15  2  0
 15 16  1  0
 16 17  1  0
 16 18  1  0
 16 19  1  0
 19 20  1  0
 19 21  1  0
 21 22  1  0
 21 23  1  0
 21 24  1  0
 24 25  1  0
 24 26  1  0
 24 27  1  0
 27 28  1  0
 27 29  1  0
 27 30  1  0
 30 31  1  0
 30 32  1  0
 30 33  1  0
 33 34  1  0
 33 35  1  0
 15 36  1  0
 36 37  2  0
 37 38  1  0
 37  2  1  0
 13  5  1  0
 33 19  1  0
M  END
>  <cnnaffinity>  (1) 
-5.48403

>  <filename>  (1) 
c1cncc(-c2nccnc2CC2CCCCC2)c1

$$$$
