
     RDKit          3D

 36 38  0  0  0  0  0  0  0  0999 V2000
    4.9725    1.8404   16.8792 H   0  0  0  0  0  0  0  0  0  0  0  0
    5.4101    1.3018   17.7162 C   0  0  0  0  0  0  0  0  0  0  0  0
    6.5689    0.6729   17.4608 N   0  0  0  0  0  0  0  0  0  0  0  0
    7.1488    0.0254   18.4759 C   0  0  0  0  0  0  0  0  0  0  0  0
    8.0754   -0.5016   18.2412 H   0  0  0  0  0  0  0  0  0  0  0  0
    6.6207   -0.0339   19.7729 C   0  0  0  0  0  0  0  0  0  0  0  0
    7.3994   -0.6910   20.8924 C   0  0  0  0  0  0  0  0  0  0  0  0
    6.7085   -0.9881   21.6879 H   0  0  0  0  0  0  0  0  0  0  0  0
    7.8790   -1.6103   20.5374 H   0  0  0  0  0  0  0  0  0  0  0  0
    8.4443    0.1738   21.4561 N   0  0  0  0  0  0  0  0  0  0  0  0
    9.7978    0.1032   21.1575 C   0  0  0  0  0  0  0  0  0  0  0  0
   10.2012   -0.7466   20.6206 H   0  0  0  0  0  0  0  0  0  0  0  0
   10.4210    1.2223   21.6491 C   0  0  0  0  0  0  0  0  0  0  0  0
   11.4784    1.4551   21.5619 H   0  0  0  0  0  0  0  0  0  0  0  0
    9.4168    2.0252   22.2610 C   0  0  0  0  0  0  0  0  0  0  0  0
    9.5400    2.9669   22.7877 H   0  0  0  0  0  0  0  0  0  0  0  0
    8.2171    1.3639   22.1176 C   0  0  0  0  0  0  0  0  0  0  0  0
    6.9420    1.8043   22.4912 N   0  0  0  0  0  0  0  0  0  0  0  0
    7.0413    2.7939   22.6956 H   0  0  0  0  0  0  0  0  0  0  0  0
    6.2612    1.1127   23.6049 C   0  0  0  0  0  0  0  0  0  0  0  0
    5.2085    1.4097   23.5619 H   0  0  0  0  0  0  0  0  0  0  0  0
    6.2950    0.0316   23.4297 H   0  0  0  0  0  0  0  0  0  0  0  0
    6.8254    1.4317   24.9832 C   0  0  0  0  0  0  0  0  0  0  0  0
    6.3166    2.4711   25.7803 C   0  0  0  0  0  0  0  0  0  0  0  0
    5.4712    3.0759   25.4573 H   0  0  0  0  0  0  0  0  0  0  0  0
    6.9249    2.7438   27.0118 C   0  0  0  0  0  0  0  0  0  0  0  0
    6.5822    3.5733   27.6267 H   0  0  0  0  0  0  0  0  0  0  0  0
    7.9518    2.0444   27.5080 N   0  0  0  0  0  0  0  0  0  0  0  0
    8.4389    1.0575   26.7442 C   0  0  0  0  0  0  0  0  0  0  0  0
    9.2924    0.5070   27.1385 H   0  0  0  0  0  0  0  0  0  0  0  0
    7.9307    0.7237   25.4845 C   0  0  0  0  0  0  0  0  0  0  0  0
    8.4180   -0.0573   24.9021 H   0  0  0  0  0  0  0  0  0  0  0  0
    5.3965    0.6027   20.0108 C   0  0  0  0  0  0  0  0  0  0  0  0
    4.9632    0.5786   21.0138 H   0  0  0  0  0  0  0  0  0  0  0  0
    4.7799    1.2893   18.9639 C   0  0  0  0  0  0  0  0  0  0  0  0
    3.8482    1.8274   19.1080 H   0  0  0  0  0  0  0  0  0  0  0  0
  1  2  1  0
  2  3  2  0
  3  4  1  0
  4  5  1  0
  4  6  2  0
  6  7  1  0
  7  8  1  0
  7  9  1  0
  7 10  1  0
 10 11  1  0
 11 12  1  0
 11 13  2  0
 13 14  1  0
 13 15  1  0
 15 16  1  0
 15 17  2  0
 17 18  1  0
 18 19  1  0
 18 20  1  0
 20 21  1  0
 20 22  1  0
 20 23  1  0
 23 24  2  0
 24 25  1  0
 24 26  1  0
 26 27  1  0
 26 28  2  0
 28 29  1  0
 29 30  1  0
 29 31  2  0
 31 32  1  0
  6 33  1  0
 33 34  1  0
 33 35  2  0
 35 36  1  0
 35  2  1  0
 17 10  1  0
 31 23  1  0
M  END
>  <cnnaffinity>  (1) 
-4.66081

>  <filename>  (1) 
c1cncc(Cn2cccc2NCc2ccncc2)c1

$$$$
