
     RDKit          3D

 35 37  0  0  0  0  0  0  0  0999 V2000
    4.9127    1.7848   16.9954 H   0  0  0  0  0  0  0  0  0  0  0  0
    5.3967    1.2966   17.8382 C   0  0  0  0  0  0  0  0  0  0  0  0
    6.5609    0.6818   17.5733 N   0  0  0  0  0  0  0  0  0  0  0  0
    7.1731    0.0591   18.5914 C   0  0  0  0  0  0  0  0  0  0  0  0
    8.1212   -0.4298   18.3744 H   0  0  0  0  0  0  0  0  0  0  0  0
    6.6652   -0.0123   19.9125 C   0  0  0  0  0  0  0  0  0  0  0  0
    7.3247   -0.7167   20.9302 N   0  0  0  0  0  0  0  0  0  0  0  0
    6.7574   -1.0727   21.6865 H   0  0  0  0  0  0  0  0  0  0  0  0
    8.7173   -0.7603   21.1055 C   0  0  0  0  0  0  0  0  0  0  0  0
    9.6818    0.1777   20.6726 C   0  0  0  0  0  0  0  0  0  0  0  0
    9.4873    1.0713   20.1039 H   0  0  0  0  0  0  0  0  0  0  0  0
   10.9139   -0.1508   21.0455 N   0  0  0  0  0  0  0  0  0  0  0  0
   10.7450   -1.3056   21.6985 N   0  0  0  0  0  0  0  0  0  0  0  0
   11.5497   -1.7633   22.0941 H   0  0  0  0  0  0  0  0  0  0  0  0
    9.4542   -1.7243   21.7694 C   0  0  0  0  0  0  0  0  0  0  0  0
    9.0316   -2.9533   22.4915 C   0  0  0  0  0  0  0  0  0  0  0  0
    9.9391   -3.5231   22.7543 H   0  0  0  0  0  0  0  0  0  0  0  0
    8.3212   -2.6048   23.8178 C   0  0  0  0  0  0  0  0  0  0  0  0
    7.4710   -1.9385   23.6161 H   0  0  0  0  0  0  0  0  0  0  0  0
    9.0026   -2.0568   24.4781 H   0  0  0  0  0  0  0  0  0  0  0  0
    7.8105   -3.8759   24.5003 C   0  0  0  0  0  0  0  0  0  0  0  0
    7.2506   -3.6286   25.4080 H   0  0  0  0  0  0  0  0  0  0  0  0
    8.6667   -4.4858   24.8191 H   0  0  0  0  0  0  0  0  0  0  0  0
    6.9693   -4.7048   23.6303 N   0  0  0  0  0  0  0  0  0  0  0  0
    6.1672   -4.1339   23.3676 H   0  0  0  0  0  0  0  0  0  0  0  0
    7.6608   -5.0690   22.3919 C   0  0  0  0  0  0  0  0  0  0  0  0
    6.9975   -5.6863   21.7766 H   0  0  0  0  0  0  0  0  0  0  0  0
    8.5182   -5.7037   22.6574 H   0  0  0  0  0  0  0  0  0  0  0  0
    8.1462   -3.8521   21.6066 C   0  0  0  0  0  0  0  0  0  0  0  0
    8.6887   -4.1571   20.7140 H   0  0  0  0  0  0  0  0  0  0  0  0
    7.2852   -3.2847   21.2383 H   0  0  0  0  0  0  0  0  0  0  0  0
    5.4434    0.6330   20.1632 C   0  0  0  0  0  0  0  0  0  0  0  0
    5.0179    0.6234   21.1669 H   0  0  0  0  0  0  0  0  0  0  0  0
    4.8118    1.3059   19.1095 C   0  0  0  0  0  0  0  0  0  0  0  0
    3.8808    1.8383   19.2642 H   0  0  0  0  0  0  0  0  0  0  0  0
  1  2  1  0
  2  3  2  0
  3  4  1  0
  4  5  1  0
  4  6  2  0
  6  7  1  0
  7  8  1  0
  7  9  1  0
  9 10  1  0
 10 11  1  0
 10 12  2  0
 12 13  1  0
 13 14  1  0
 13 15  1  0
 15 16  1  0
 16 17  1  0
 16 18  1  0
 18 19  1  0
 18 20  1  0
 18 21  1  0
 21 22  1  0
 21 23  1  0
 21 24  1  0
 24 25  1  0
 24 26  1  0
 26 27  1  0
 26 28  1  0
 26 29  1  0
 29 30  1  0
 29 31  1  0
  6 32  1  0
 32 33  1  0
 32 34  2  0
 34 35  1  0
 34  2  1  0
 15  9  2  0
 29 16  1  0
M  END
>  <cnnaffinity>  (1) 
-5.20933

>  <filename>  (1) 
c1cncc(Nc2cn[nH]c2C2CCNCC2)c1

$$$$
