
     RDKit          3D

 33 36  0  0  0  0  0  0  0  0999 V2000
    4.9795    1.7605   16.9946 H   0  0  0  0  0  0  0  0  0  0  0  0
    5.4115    1.2819   17.8666 C   0  0  0  0  0  0  0  0  0  0  0  0
    6.5853    0.6688   17.6580 N   0  0  0  0  0  0  0  0  0  0  0  0
    7.1654    0.1083   18.7168 C   0  0  0  0  0  0  0  0  0  0  0  0
    8.1231   -0.3717   18.5199 H   0  0  0  0  0  0  0  0  0  0  0  0
    6.6254    0.1218   20.0095 C   0  0  0  0  0  0  0  0  0  0  0  0
    7.3751   -0.5624   21.0835 C   0  0  0  0  0  0  0  0  0  0  0  0
    7.1782   -0.1330   22.3282 N   0  0  0  0  0  0  0  0  0  0  0  0
    7.8088   -0.7600   23.3381 C   0  0  0  0  0  0  0  0  0  0  0  0
    7.6575   -0.2132   24.7129 C   0  0  0  0  0  0  0  0  0  0  0  0
    7.5999   -0.9556   25.8523 C   0  0  0  0  0  0  0  0  0  0  0  0
    7.6403   -2.0347   25.9535 H   0  0  0  0  0  0  0  0  0  0  0  0
    7.3490   -0.0260   27.2886 S   0  0  0  0  0  0  0  0  0  0  0  0
    7.3542    1.4543   26.3730 C   0  0  0  0  0  0  0  0  0  0  0  0
    7.1801    2.7594   26.8697 C   0  0  0  0  0  0  0  0  0  0  0  0
    7.0005    2.9284   27.9250 H   0  0  0  0  0  0  0  0  0  0  0  0
    7.2295    3.8252   25.9761 C   0  0  0  0  0  0  0  0  0  0  0  0
    7.0888    4.8403   26.3398 H   0  0  0  0  0  0  0  0  0  0  0  0
    7.4460    3.5993   24.6007 C   0  0  0  0  0  0  0  0  0  0  0  0
    7.4875    4.4421   23.9162 H   0  0  0  0  0  0  0  0  0  0  0  0
    7.5975    2.3126   24.1050 C   0  0  0  0  0  0  0  0  0  0  0  0
    7.7281    2.1346   23.0406 H   0  0  0  0  0  0  0  0  0  0  0  0
    7.5429    1.2112   24.9973 C   0  0  0  0  0  0  0  0  0  0  0  0
    8.6006   -1.9049   23.1190 C   0  0  0  0  0  0  0  0  0  0  0  0
    9.0958   -2.3937   23.9467 H   0  0  0  0  0  0  0  0  0  0  0  0
    8.8034   -2.3600   21.8174 C   0  0  0  0  0  0  0  0  0  0  0  0
    9.3862   -3.2566   21.6184 H   0  0  0  0  0  0  0  0  0  0  0  0
    8.2316   -1.6290   20.7858 C   0  0  0  0  0  0  0  0  0  0  0  0
    8.4505   -1.8397   19.7590 H   0  0  0  0  0  0  0  0  0  0  0  0
    5.3898    0.7579   20.2152 C   0  0  0  0  0  0  0  0  0  0  0  0
    4.9495    0.7903   21.2170 H   0  0  0  0  0  0  0  0  0  0  0  0
    4.7703    1.3376   19.1097 C   0  0  0  0  0  0  0  0  0  0  0  0
    3.8164    1.8440   19.1947 H   0  0  0  0  0  0  0  0  0  0  0  0
  1  2  1  0
  2  3  2  0
  3  4  1  0
  4  5  1  0
  4  6  2  0
  6  7  1  0
  7  8  2  0
  8  9  1  0
  9 10  1  0
 10 11  2  0
 11 12  1  0
 11 13  1  0
 13 14  1  0
 14 15  2  0
 15 16  1  0
 15 17  1  0
 17 18  1  0
 17 19  2  0
 19 20  1  0
 19 21  1  0
 21 22  1  0
 21 23  2  0
  9 24  2  0
 24 25  1  0
 24 26  1  0
 26 27  1  0
 26 28  2  0
 28 29  1  0
  6 30  1  0
 30 31  1  0
 30 32  2  0
 32 33  1  0
 32  2  1  0
 28  7  1  0
 23 10  1  0
 23 14  1  0
M  END
>  <cnnaffinity>  (1) 
-5.37103

>  <filename>  (1) 
c1cncc(-c2cccc(-c3csc4ccccc34)n2)c1

$$$$
