
     RDKit          3D

 32 35  0  0  0  0  0  0  0  0999 V2000
    4.9946    1.8426   16.9210 H   0  0  0  0  0  0  0  0  0  0  0  0
    5.3877    1.3070   17.7834 C   0  0  0  0  0  0  0  0  0  0  0  0
    6.5398    0.6444   17.5961 N   0  0  0  0  0  0  0  0  0  0  0  0
    7.0650    0.0219   18.6609 C   0  0  0  0  0  0  0  0  0  0  0  0
    8.0035   -0.4997   18.4789 H   0  0  0  0  0  0  0  0  0  0  0  0
    6.4801   -0.0076   19.9470 C   0  0  0  0  0  0  0  0  0  0  0  0
    7.2328   -0.6248   21.0612 C   0  0  0  0  0  0  0  0  0  0  0  0
    8.5891   -0.5779   21.2927 C   0  0  0  0  0  0  0  0  0  0  0  0
    8.7984   -1.1805   22.5233 C   0  0  0  0  0  0  0  0  0  0  0  0
    7.6828   -1.6305   23.0660 N   0  0  0  0  0  0  0  0  0  0  0  0
    6.7322   -1.2740   22.1619 N   0  0  0  0  0  0  0  0  0  0  0  0
    5.7728   -1.5243   22.3694 H   0  0  0  0  0  0  0  0  0  0  0  0
   10.2262   -1.1316   22.9641 C   0  0  0  0  0  0  0  0  0  0  0  0
   10.3469   -0.6325   23.9305 H   0  0  0  0  0  0  0  0  0  0  0  0
   10.6318   -2.1411   23.0737 H   0  0  0  0  0  0  0  0  0  0  0  0
   10.9340   -0.3371   21.8109 C   0  0  2  0  0  0  0  0  0  0  0  0
   11.6918   -1.0010   21.3896 H   0  0  0  0  0  0  0  0  0  0  0  0
   11.6051    0.9288   22.2878 C   0  0  0  0  0  0  0  0  0  0  0  0
   10.9004    1.9799   22.7967 C   0  0  0  0  0  0  0  0  0  0  0  0
    9.8317    2.0351   22.9316 H   0  0  0  0  0  0  0  0  0  0  0  0
   11.8914    3.3046   23.2451 S   0  0  0  0  0  0  0  0  0  0  0  0
   13.2971    2.4545   22.7597 C   0  0  0  0  0  0  0  0  0  0  0  0
   14.2667    2.9238   22.8155 H   0  0  0  0  0  0  0  0  0  0  0  0
   13.0101    1.2115   22.2867 C   0  0  0  0  0  0  0  0  0  0  0  0
   13.7698    0.5177   21.9465 H   0  0  0  0  0  0  0  0  0  0  0  0
    9.8595   -0.0766   20.6996 C   0  0  0  0  0  0  0  0  0  0  0  0
    9.7864    0.9754   20.4002 H   0  0  0  0  0  0  0  0  0  0  0  0
   10.1192   -0.6366   19.7999 H   0  0  0  0  0  0  0  0  0  0  0  0
    5.2554    0.6677   20.1087 C   0  0  0  0  0  0  0  0  0  0  0  0
    4.7576    0.7100   21.0815 H   0  0  0  0  0  0  0  0  0  0  0  0
    4.7143    1.3385   19.0108 C   0  0  0  0  0  0  0  0  0  0  0  0
    3.7993    1.9145   19.0930 H   0  0  0  0  0  0  0  0  0  0  0  0
  1  2  1  0
  2  3  2  0
  3  4  1  0
  4  5  1  0
  4  6  2  0
  6  7  1  0
  7  8  2  0
  8  9  1  0
  9 10  2  0
 10 11  1  0
 11 12  1  0
  9 13  1  0
 13 14  1  0
 13 15  1  0
 13 16  1  0
 16 17  1  6
 16 18  1  0
 18 19  2  0
 19 20  1  0
 19 21  1  0
 21 22  1  0
 22 23  1  0
 22 24  2  0
 24 25  1  0
 16 26  1  0
 26 27  1  0
 26 28  1  0
  6 29  1  0
 29 30  1  0
 29 31  2  0
 31 32  1  0
 31  2  1  0
 11  7  1  0
 24 18  1  0
 26  8  1  0
M  END
>  <cnnaffinity>  (1) 
-5.53568

>  <filename>  (1) 
c1cncc(-c2[nH]nc3c2C[C@@H](c2ccsc2)C3)c1

$$$$
