
     RDKit          3D

 38 42  0  0  0  0  0  0  0  0999 V2000
    4.9833    1.8686   16.8804 H   0  0  0  0  0  0  0  0  0  0  0  0
    5.4159    1.3077   17.7083 C   0  0  0  0  0  0  0  0  0  0  0  0
    6.5587    0.6496   17.4599 N   0  0  0  0  0  0  0  0  0  0  0  0
    7.1329   -0.0053   18.4756 C   0  0  0  0  0  0  0  0  0  0  0  0
    8.0632   -0.5201   18.2437 H   0  0  0  0  0  0  0  0  0  0  0  0
    6.6047   -0.0409   19.7796 C   0  0  0  0  0  0  0  0  0  0  0  0
    7.3649   -0.6457   20.8878 C   0  0  0  0  0  0  0  0  0  0  0  0
    8.5020   -1.3238   20.6682 N   0  0  0  0  0  0  0  0  0  0  0  0
    8.9372   -1.5911   21.9153 N   0  0  0  0  0  0  0  0  0  0  0  0
   10.0509   -2.2120   22.4595 C   0  0  0  0  0  0  0  0  0  0  0  0
   10.7988   -2.6740   21.8378 H   0  0  0  0  0  0  0  0  0  0  0  0
    9.9191   -2.0902   23.8029 C   0  0  0  0  0  0  0  0  0  0  0  0
   10.5397   -2.4545   24.6028 H   0  0  0  0  0  0  0  0  0  0  0  0
    8.7467   -1.3930   24.1002 N   0  0  0  0  0  0  0  0  0  0  0  0
    8.2517   -1.0229   25.3789 C   0  0  0  0  0  0  0  0  0  0  0  0
    9.1765   -0.6608   26.4110 C   0  0  0  0  0  0  0  0  0  0  0  0
   10.2459   -0.7003   26.2163 H   0  0  0  0  0  0  0  0  0  0  0  0
    8.7185   -0.2064   27.6203 C   0  0  0  0  0  0  0  0  0  0  0  0
    9.4180    0.0140   28.4271 H   0  0  0  0  0  0  0  0  0  0  0  0
    7.3236   -0.0305   27.8616 C   0  0  0  0  0  0  0  0  0  0  0  0
    6.8391    0.6249   29.0331 C   0  0  0  0  0  0  0  0  0  0  0  0
    7.5613    1.0536   29.7245 H   0  0  0  0  0  0  0  0  0  0  0  0
    5.4871    0.7561   29.2493 C   0  0  0  0  0  0  0  0  0  0  0  0
    5.1189    1.2726   30.1303 H   0  0  0  0  0  0  0  0  0  0  0  0
    4.5589    0.2387   28.3029 C   0  0  0  0  0  0  0  0  0  0  0  0
    3.4962    0.3302   28.5012 H   0  0  0  0  0  0  0  0  0  0  0  0
    4.9990   -0.3459   27.1377 C   0  0  0  0  0  0  0  0  0  0  0  0
    4.2930   -0.6867   26.3863 H   0  0  0  0  0  0  0  0  0  0  0  0
    6.3943   -0.4785   26.8699 C   0  0  0  0  0  0  0  0  0  0  0  0
    6.8903   -0.9740   25.6253 C   0  0  0  0  0  0  0  0  0  0  0  0
    6.1889   -1.2623   24.8474 H   0  0  0  0  0  0  0  0  0  0  0  0
    8.1409   -1.1029   22.8895 C   0  0  0  0  0  0  0  0  0  0  0  0
    7.0674   -0.4959   22.2627 C   0  0  0  0  0  0  0  0  0  0  0  0
    6.1952   -0.0338   22.6846 H   0  0  0  0  0  0  0  0  0  0  0  0
    5.3849    0.6168   20.0075 C   0  0  0  0  0  0  0  0  0  0  0  0
    4.9209    0.6052   20.9946 H   0  0  0  0  0  0  0  0  0  0  0  0
    4.7865    1.3056   18.9573 C   0  0  0  0  0  0  0  0  0  0  0  0
    3.8702    1.8645   19.1086 H   0  0  0  0  0  0  0  0  0  0  0  0
  1  2  1  0
  2  3  2  0
  3  4  1  0
  4  5  1  0
  4  6  2  0
  6  7  1  0
  7  8  2  0
  8  9  1  0
  9 10  1  0
 10 11  1  0
 10 12  2  0
 12 13  1  0
 12 14  1  0
 14 15  1  0
 15 16  2  0
 16 17  1  0
 16 18  1  0
 18 19  1  0
 18 20  2  0
 20 21  1  0
 21 22  1  0
 21 23  2  0
 23 24  1  0
 23 25  1  0
 25 26  1  0
 25 27  2  0
 27 28  1  0
 27 29  1  0
 29 30  2  0
 30 31  1  0
 14 32  1  0
 32 33  2  0
 33 34  1  0
  6 35  1  0
 35 36  1  0
 35 37  2  0
 37 38  1  0
 37  2  1  0
 33  7  1  0
 32  9  1  0
 30 15  1  0
 29 20  1  0
M  END
>  <cnnaffinity>  (1) 
-5.41626

>  <filename>  (1) 
c1cncc(-c2cc3n(-c4ccc5ccccc5c4)ccn3n2)c1

$$$$
