
     RDKit          3D

 27 29  0  0  0  0  0  0  0  0999 V2000
    4.9864    1.7517   16.9965 H   0  0  0  0  0  0  0  0  0  0  0  0
    5.4169    1.2752   17.8710 C   0  0  0  0  0  0  0  0  0  0  0  0
    6.5903    0.6583   17.6664 N   0  0  0  0  0  0  0  0  0  0  0  0
    7.1688    0.1021   18.7294 C   0  0  0  0  0  0  0  0  0  0  0  0
    8.1187   -0.3904   18.5252 H   0  0  0  0  0  0  0  0  0  0  0  0
    6.6295    0.1212   20.0263 C   0  0  0  0  0  0  0  0  0  0  0  0
    7.3709   -0.5521   21.1178 C   0  0  0  0  0  0  0  0  0  0  0  0
    7.2192   -0.0837   22.3615 N   0  0  0  0  0  0  0  0  0  0  0  0
    7.8534   -0.7387   23.3370 C   0  0  0  0  0  0  0  0  0  0  0  0
    7.7346   -0.2160   24.6357 N   0  0  0  0  0  0  0  0  0  0  0  0
    6.9940    0.8976   24.9153 C   0  0  0  0  0  0  0  0  0  0  0  0
    6.4711    1.4039   24.1142 H   0  0  0  0  0  0  0  0  0  0  0  0
    7.0365    1.2037   26.1792 N   0  0  0  0  0  0  0  0  0  0  0  0
    7.8435    0.2572   26.7737 C   0  0  0  0  0  0  0  0  0  0  0  0
    8.0470    0.2782   27.8393 H   0  0  0  0  0  0  0  0  0  0  0  0
    8.2901   -0.6336   25.8461 C   0  0  0  0  0  0  0  0  0  0  0  0
    8.9323   -1.4972   25.9263 H   0  0  0  0  0  0  0  0  0  0  0  0
    8.6113   -1.8996   23.1423 C   0  0  0  0  0  0  0  0  0  0  0  0
    9.0810   -2.3839   23.9843 H   0  0  0  0  0  0  0  0  0  0  0  0
    8.7592   -2.3869   21.8545 C   0  0  0  0  0  0  0  0  0  0  0  0
    9.3266   -3.2977   21.6633 H   0  0  0  0  0  0  0  0  0  0  0  0
    8.1592   -1.6648   20.8285 C   0  0  0  0  0  0  0  0  0  0  0  0
    8.2655   -1.9133   19.7959 H   0  0  0  0  0  0  0  0  0  0  0  0
    5.3844    0.7437   20.2179 C   0  0  0  0  0  0  0  0  0  0  0  0
    4.9135    0.7469   21.2057 H   0  0  0  0  0  0  0  0  0  0  0  0
    4.7707    1.3302   19.1121 C   0  0  0  0  0  0  0  0  0  0  0  0
    3.8201    1.8473   19.2002 H   0  0  0  0  0  0  0  0  0  0  0  0
  1  2  1  0
  2  3  2  0
  3  4  1  0
  4  5  1  0
  4  6  2  0
  6  7  1  0
  7  8  2  0
  8  9  1  0
  9 10  1  0
 10 11  1  0
 11 12  1  0
 11 13  2  0
 13 14  1  0
 14 15  1  0
 14 16  2  0
 16 17  1  0
  9 18  2  0
 18 19  1  0
 18 20  1  0
 20 21  1  0
 20 22  2  0
 22 23  1  0
  6 24  1  0
 24 25  1  0
 24 26  2  0
 26 27  1  0
 26  2  1  0
 22  7  1  0
 16 10  1  0
M  END
>  <cnnaffinity>  (1) 
-4.54943

>  <filename>  (1) 
c1cncc(-c2cccc(-n3ccnc3)n2)c1

$$$$
