
     RDKit          3D

 39 41  0  0  0  0  0  0  0  0999 V2000
    4.9714    1.8411   16.9311 H   0  0  0  0  0  0  0  0  0  0  0  0
    5.4219    1.3247   17.7730 C   0  0  0  0  0  0  0  0  0  0  0  0
    6.5799    0.6923   17.5159 N   0  0  0  0  0  0  0  0  0  0  0  0
    7.1502    0.0505   18.5403 C   0  0  0  0  0  0  0  0  0  0  0  0
    8.0865   -0.4645   18.3267 H   0  0  0  0  0  0  0  0  0  0  0  0
    6.6122   -0.0253   19.8449 C   0  0  0  0  0  0  0  0  0  0  0  0
    7.3530   -0.7450   20.9177 C   0  0  0  0  0  0  0  0  0  0  0  0
    6.7514   -1.6041   21.8590 C   0  0  0  0  0  0  0  0  0  0  0  0
    5.6823   -1.7968   21.8063 H   0  0  0  0  0  0  0  0  0  0  0  0
    7.4225   -2.2587   22.8151 N   0  0  0  0  0  0  0  0  0  0  0  0
    8.7423   -2.0355   22.8997 C   0  0  0  0  0  0  0  0  0  0  0  0
    9.2617   -2.5717   23.6917 H   0  0  0  0  0  0  0  0  0  0  0  0
    9.4540   -1.1802   22.0439 C   0  0  0  0  0  0  0  0  0  0  0  0
   10.9026   -0.8064   22.2278 C   0  0  0  0  0  0  0  0  0  0  0  0
   11.4182   -0.9342   21.2665 H   0  0  0  0  0  0  0  0  0  0  0  0
   11.3863   -1.5029   22.9217 H   0  0  0  0  0  0  0  0  0  0  0  0
   11.0558    0.6609   22.7193 C   0  0  0  0  0  0  0  0  0  0  0  0
   10.4348    1.3050   22.0751 H   0  0  0  0  0  0  0  0  0  0  0  0
   10.5986    0.8443   24.1836 C   0  0  0  0  0  0  0  0  0  0  0  0
   10.6869    1.9139   24.4304 H   0  0  0  0  0  0  0  0  0  0  0  0
    9.5426    0.5751   24.3077 H   0  0  0  0  0  0  0  0  0  0  0  0
   11.4877    0.0548   25.1609 C   0  0  0  0  0  0  0  0  0  0  0  0
   11.2800   -1.0148   25.0259 H   0  0  0  0  0  0  0  0  0  0  0  0
   11.1761    0.2760   26.1876 H   0  0  0  0  0  0  0  0  0  0  0  0
   12.9689    0.4458   24.9711 C   0  0  0  0  0  0  0  0  0  0  0  0
   13.6479   -0.1251   25.6134 H   0  0  0  0  0  0  0  0  0  0  0  0
   13.0457    1.4971   25.2694 H   0  0  0  0  0  0  0  0  0  0  0  0
   13.4661    0.4198   23.5211 C   0  0  0  0  0  0  0  0  0  0  0  0
   14.4517    0.8968   23.4941 H   0  0  0  0  0  0  0  0  0  0  0  0
   13.6098   -0.6009   23.1550 H   0  0  0  0  0  0  0  0  0  0  0  0
   12.4977    1.1862   22.6158 C   0  0  0  0  0  0  0  0  0  0  0  0
   12.4968    2.2340   22.9537 H   0  0  0  0  0  0  0  0  0  0  0  0
   12.8315    1.2047   21.5760 H   0  0  0  0  0  0  0  0  0  0  0  0
    8.7319   -0.5599   21.0236 C   0  0  0  0  0  0  0  0  0  0  0  0
    9.2392    0.1102   20.3283 H   0  0  0  0  0  0  0  0  0  0  0  0
    5.3995    0.6375   20.0827 C   0  0  0  0  0  0  0  0  0  0  0  0
    4.9628    0.6406   21.0853 H   0  0  0  0  0  0  0  0  0  0  0  0
    4.7986    1.3254   19.0269 C   0  0  0  0  0  0  0  0  0  0  0  0
    3.8690    1.8688   19.1641 H   0  0  0  0  0  0  0  0  0  0  0  0
  1  2  1  0
  2  3  2  0
  3  4  1  0
  4  5  1  0
  4  6  2  0
  6  7  1  0
  7  8  2  0
  8  9  1  0
  8 10  1  0
 10 11  2  0
 11 12  1  0
 11 13  1  0
 13 14  1  0
 14 15  1  0
 14 16  1  0
 14 17  1  0
 17 18  1  0
 17 19  1  0
 19 20  1  0
 19 21  1  0
 19 22  1  0
 22 23  1  0
 22 24  1  0
 22 25  1  0
 25 26  1  0
 25 27  1  0
 25 28  1  0
 28 29  1  0
 28 30  1  0
 28 31  1  0
 31 32  1  0
 31 33  1  0
 13 34  2  0
 34 35  1  0
  6 36  1  0
 36 37  1  0
 36 38  2  0
 38 39  1  0
 38  2  1  0
 34  7  1  0
 31 17  1  0
M  END
>  <cnnaffinity>  (1) 
-5.49066

>  <filename>  (1) 
c1cncc(-c2cncc(CC3CCCCC3)c2)c1

$$$$
