
     RDKit          3D

 38 41  0  0  0  0  0  0  0  0999 V2000
    4.9262    1.8264   16.9263 H   0  0  0  0  0  0  0  0  0  0  0  0
    5.3882    1.3271   17.7763 C   0  0  0  0  0  0  0  0  0  0  0  0
    6.5374    0.6802   17.5357 N   0  0  0  0  0  0  0  0  0  0  0  0
    7.1362    0.0721   18.5714 C   0  0  0  0  0  0  0  0  0  0  0  0
    8.0651   -0.4491   18.3381 H   0  0  0  0  0  0  0  0  0  0  0  0
    6.6552    0.0948   19.9117 C   0  0  0  0  0  0  0  0  0  0  0  0
    7.3373   -0.5261   20.9732 N   0  0  0  0  0  0  0  0  0  0  0  0
    7.6382    0.0757   22.2729 C   0  0  0  0  0  0  0  0  0  0  0  0
    7.2021    1.0754   22.3588 H   0  0  0  0  0  0  0  0  0  0  0  0
    8.7322    0.1915   22.3797 H   0  0  0  0  0  0  0  0  0  0  0  0
    7.1680   -0.8099   23.4467 C   0  0  0  0  0  0  0  0  0  0  0  0
    6.0747   -0.7770   23.5368 H   0  0  0  0  0  0  0  0  0  0  0  0
    7.5455   -0.3778   24.3850 H   0  0  0  0  0  0  0  0  0  0  0  0
    7.6364   -2.1926   23.3148 N   0  0  0  0  0  0  0  0  0  0  0  0
    7.5559   -3.0654   24.3996 C   0  0  0  0  0  0  0  0  0  0  0  0
    6.3910   -3.0069   25.2282 C   0  0  0  0  0  0  0  0  0  0  0  0
    5.6123   -2.2991   24.9698 H   0  0  0  0  0  0  0  0  0  0  0  0
    6.2312   -3.8311   26.3213 C   0  0  0  0  0  0  0  0  0  0  0  0
    5.3480   -3.7833   26.9402 H   0  0  0  0  0  0  0  0  0  0  0  0
    7.2748   -4.7293   26.6082 C   0  0  0  0  0  0  0  0  0  0  0  0
    8.4417   -4.8148   25.8182 C   0  0  0  0  0  0  0  0  0  0  0  0
    9.2164   -5.8237   26.4772 C   0  0  0  0  0  0  0  0  0  0  0  0
   10.1950   -6.2010   26.2045 H   0  0  0  0  0  0  0  0  0  0  0  0
    8.5850   -6.2898   27.5348 N   0  0  0  0  0  0  0  0  0  0  0  0
    7.4179   -5.6301   27.6138 N   0  0  0  0  0  0  0  0  0  0  0  0
    6.7631   -5.8460   28.3502 H   0  0  0  0  0  0  0  0  0  0  0  0
    8.5785   -3.9752   24.6764 C   0  0  0  0  0  0  0  0  0  0  0  0
    9.4466   -3.9970   24.0238 H   0  0  0  0  0  0  0  0  0  0  0  0
    8.3483   -2.5658   22.1000 C   0  0  0  0  0  0  0  0  0  0  0  0
    9.4236   -2.3231   22.1674 H   0  0  0  0  0  0  0  0  0  0  0  0
    8.2812   -3.6515   21.9738 H   0  0  0  0  0  0  0  0  0  0  0  0
    7.7724   -1.9131   20.8135 C   0  0  0  0  0  0  0  0  0  0  0  0
    8.5668   -1.9583   20.0600 H   0  0  0  0  0  0  0  0  0  0  0  0
    6.9341   -2.5242   20.4404 H   0  0  0  0  0  0  0  0  0  0  0  0
    5.4265    0.7506   20.1196 C   0  0  0  0  0  0  0  0  0  0  0  0
    4.9879    0.7542   21.1176 H   0  0  0  0  0  0  0  0  0  0  0  0
    4.7877    1.3655   19.0393 C   0  0  0  0  0  0  0  0  0  0  0  0
    3.8466    1.8820   19.1695 H   0  0  0  0  0  0  0  0  0  0  0  0
  1  2  1  0
  2  3  2  0
  3  4  1  0
  4  5  1  0
  4  6  2  0
  6  7  1  0
  7  8  1  0
  8  9  1  0
  8 10  1  0
  8 11  1  0
 11 12  1  0
 11 13  1  0
 11 14  1  0
 14 15  1  0
 15 16  2  0
 16 17  1  0
 16 18  1  0
 18 19  1  0
 18 20  2  0
 20 21  1  0
 21 22  1  0
 22 23  1  0
 22 24  2  0
 24 25  1  0
 25 26  1  0
 21 27  2  0
 27 28  1  0
 14 29  1  0
 29 30  1  0
 29 31  1  0
 29 32  1  0
 32 33  1  0
 32 34  1  0
  6 35  1  0
 35 36  1  0
 35 37  2  0
 37 38  1  0
 37  2  1  0
 32  7  1  0
 27 15  1  0
 25 20  1  0
M  END
>  <cnnaffinity>  (1) 
-5.08031

>  <filename>  (1) 
c1cncc(N2CCN(c3ccc4[nH]ncc4c3)CC2)c1

$$$$
