
     RDKit          3D

 38 40  0  0  0  0  0  0  0  0999 V2000
    4.8891    1.3200   19.0731 C   0  0  0  0  0  0  0  0  0  0  0  0
    5.4742    1.2992   17.8044 C   0  0  0  0  0  0  0  0  0  0  0  0
    6.6274    0.6635   17.5463 N   0  0  0  0  0  0  0  0  0  0  0  0
    7.2363    0.0193   18.5547 C   0  0  0  0  0  0  0  0  0  0  0  0
    6.7191   -0.0293   19.8730 C   0  0  0  0  0  0  0  0  0  0  0  0
    7.3107   -0.7724   20.9556 N   0  0  0  0  0  0  0  0  0  0  0  0
    6.6364   -1.5765   21.8527 C   0  0  0  0  0  0  0  0  0  0  0  0
    7.4215   -2.0372   22.7808 N   0  0  0  0  0  0  0  0  0  0  0  0
    8.6839   -1.5327   22.5287 N   0  0  0  0  0  0  0  0  0  0  0  0
    8.5967   -0.7947   21.4552 C   0  0  0  0  0  0  0  0  0  0  0  0
    9.6061   -0.1141   20.8301 N   0  0  0  0  0  0  0  0  0  0  0  0
   10.9180   -0.0790   21.4660 C   0  0  0  0  0  0  0  0  0  0  0  0
   11.1748    1.2540   22.2031 C   0  0  0  0  0  0  0  0  0  0  0  0
   12.6813    1.4477   22.4672 C   0  0  0  0  0  0  0  0  0  0  0  0
   13.2382    0.5150   23.5493 C   0  0  0  0  0  0  0  0  0  0  0  0
   12.4388    0.6288   24.8506 C   0  0  0  0  0  0  0  0  0  0  0  0
   10.9230    0.4716   24.6285 C   0  0  0  0  0  0  0  0  0  0  0  0
   10.4094    1.4270   23.5356 C   0  0  0  0  0  0  0  0  0  0  0  0
   10.5741    2.4639   23.8767 H   0  0  0  0  0  0  0  0  0  0  0  0
    9.3265    1.3029   23.3970 H   0  0  0  0  0  0  0  0  0  0  0  0
   10.3912    0.6656   25.5689 H   0  0  0  0  0  0  0  0  0  0  0  0
   10.6756   -0.5622   24.3387 H   0  0  0  0  0  0  0  0  0  0  0  0
   12.6207    1.6293   25.2661 H   0  0  0  0  0  0  0  0  0  0  0  0
   12.8046   -0.1083   25.5721 H   0  0  0  0  0  0  0  0  0  0  0  0
   13.1946   -0.5159   23.1742 H   0  0  0  0  0  0  0  0  0  0  0  0
   14.3014    0.7371   23.7214 H   0  0  0  0  0  0  0  0  0  0  0  0
   12.8665    2.4926   22.7506 H   0  0  0  0  0  0  0  0  0  0  0  0
   13.2197    1.2658   21.5438 H   0  0  0  0  0  0  0  0  0  0  0  0
   10.8422    2.0477   21.5125 H   0  0  0  0  0  0  0  0  0  0  0  0
   11.0249   -0.9484   22.1323 H   0  0  0  0  0  0  0  0  0  0  0  0
   11.6856   -0.1946   20.6893 H   0  0  0  0  0  0  0  0  0  0  0  0
    9.2373    0.7867   20.5570 H   0  0  0  0  0  0  0  0  0  0  0  0
    5.5849   -1.8061   21.7473 H   0  0  0  0  0  0  0  0  0  0  0  0
    5.5311    0.6610   20.1231 C   0  0  0  0  0  0  0  0  0  0  0  0
    5.1370    0.6823   21.1384 H   0  0  0  0  0  0  0  0  0  0  0  0
    8.1649   -0.4895   18.3017 H   0  0  0  0  0  0  0  0  0  0  0  0
    4.9998    1.8180   16.9701 H   0  0  0  0  0  0  0  0  0  0  0  0
    3.9517    1.8394   19.2320 H   0  0  0  0  0  0  0  0  0  0  0  0
  1  2  2  0
  2  3  1  0
  3  4  2  0
  4  5  1  0
  5  6  1  0
  6  7  1  0
  7  8  2  0
  8  9  1  0
  9 10  2  0
 10 11  1  0
 11 12  1  0
 12 13  1  0
 13 14  1  0
 14 15  1  0
 15 16  1  0
 16 17  1  0
 17 18  1  0
 18 19  1  0
 18 20  1  0
 17 21  1  0
 17 22  1  0
 16 23  1  0
 16 24  1  0
 15 25  1  0
 15 26  1  0
 14 27  1  0
 14 28  1  0
 13 29  1  0
 12 30  1  0
 12 31  1  0
 11 32  1  0
  7 33  1  0
  5 34  2  0
 34 35  1  0
  4 36  1  0
  2 37  1  0
  1 38  1  0
 34  1  1  0
 10  6  1  0
 18 13  1  0
M  END
>  <cnnaffinity>  (1) 
-5.29434

>  <filename>  (1) 
c1cncc(-n2cnnc2NCC2CCCCC2)c1

$$$$
