
     RDKit          3D

 39 42  0  0  0  0  0  0  0  0999 V2000
    4.9414    2.7081   16.1399 H   0  0  0  0  0  0  0  0  0  0  0  0
    5.2863    2.1735   17.0238 C   0  0  0  0  0  0  0  0  0  0  0  0
    6.3669    1.3909   16.8665 N   0  0  0  0  0  0  0  0  0  0  0  0
    6.7791    0.6885   17.9346 C   0  0  0  0  0  0  0  0  0  0  0  0
    7.6510    0.0520   17.7901 H   0  0  0  0  0  0  0  0  0  0  0  0
    6.1493    0.7148   19.2041 C   0  0  0  0  0  0  0  0  0  0  0  0
    6.5341   -0.0812   20.3185 N   0  0  0  0  0  0  0  0  0  0  0  0
    7.1581   -1.3827   20.0555 C   0  0  0  0  0  0  0  0  0  0  0  0
    6.6478   -1.8593   19.2090 H   0  0  0  0  0  0  0  0  0  0  0  0
    8.2318   -1.2784   19.7993 H   0  0  0  0  0  0  0  0  0  0  0  0
    7.0348   -2.2511   21.3085 C   0  0  0  0  0  0  0  0  0  0  0  0
    5.9671   -2.4417   21.5075 H   0  0  0  0  0  0  0  0  0  0  0  0
    7.5156   -3.2176   21.1366 H   0  0  0  0  0  0  0  0  0  0  0  0
    7.6792   -1.5935   22.4472 N   0  0  0  0  0  0  0  0  0  0  0  0
    8.2611   -2.3720   23.4295 C   0  0  0  0  0  0  0  0  0  0  0  0
    9.3028   -3.2506   23.3031 C   0  0  0  0  0  0  0  0  0  0  0  0
    9.8212   -3.4615   22.3794 H   0  0  0  0  0  0  0  0  0  0  0  0
    9.5217   -3.8509   24.5838 C   0  0  0  0  0  0  0  0  0  0  0  0
   10.3884   -4.8543   25.0788 C   0  0  0  0  0  0  0  0  0  0  0  0
   11.1475   -5.3053   24.4436 H   0  0  0  0  0  0  0  0  0  0  0  0
   10.2327   -5.2828   26.3927 C   0  0  0  0  0  0  0  0  0  0  0  0
   10.8382   -6.0948   26.7780 H   0  0  0  0  0  0  0  0  0  0  0  0
    9.2553   -4.7107   27.2424 C   0  0  0  0  0  0  0  0  0  0  0  0
    9.1556   -5.0754   28.2624 H   0  0  0  0  0  0  0  0  0  0  0  0
    8.4222   -3.6932   26.7932 C   0  0  0  0  0  0  0  0  0  0  0  0
    7.6917   -3.2200   27.4438 H   0  0  0  0  0  0  0  0  0  0  0  0
    8.5503   -3.2908   25.4581 C   0  0  0  0  0  0  0  0  0  0  0  0
    7.8107   -2.3703   24.7390 N   0  0  0  0  0  0  0  0  0  0  0  0
    6.8946   -2.0300   24.9900 H   0  0  0  0  0  0  0  0  0  0  0  0
    7.2103   -0.2306   22.6945 C   0  0  0  0  0  0  0  0  0  0  0  0
    6.1847   -0.2050   23.0990 H   0  0  0  0  0  0  0  0  0  0  0  0
    7.8678    0.2358   23.4331 H   0  0  0  0  0  0  0  0  0  0  0  0
    7.2546    0.6076   21.4046 C   0  0  0  0  0  0  0  0  0  0  0  0
    8.3127    0.7722   21.1289 H   0  0  0  0  0  0  0  0  0  0  0  0
    6.8041    1.5954   21.5712 H   0  0  0  0  0  0  0  0  0  0  0  0
    5.0527    1.5806   19.3494 C   0  0  0  0  0  0  0  0  0  0  0  0
    4.5726    1.6297   20.3258 H   0  0  0  0  0  0  0  0  0  0  0  0
    4.6015    2.3044   18.2386 C   0  0  0  0  0  0  0  0  0  0  0  0
    3.7398    2.9629   18.3060 H   0  0  0  0  0  0  0  0  0  0  0  0
  1  2  1  0
  2  3  2  0
  3  4  1  0
  4  5  1  0
  4  6  2  0
  6  7  1  0
  7  8  1  0
  8  9  1  0
  8 10  1  0
  8 11  1  0
 11 12  1  0
 11 13  1  0
 11 14  1  0
 14 15  1  0
 15 16  2  0
 16 17  1  0
 16 18  1  0
 18 19  2  0
 19 20  1  0
 19 21  1  0
 21 22  1  0
 21 23  2  0
 23 24  1  0
 23 25  1  0
 25 26  1  0
 25 27  2  0
 27 28  1  0
 28 29  1  0
 14 30  1  0
 30 31  1  0
 30 32  1  0
 30 33  1  0
 33 34  1  0
 33 35  1  0
  6 36  1  0
 36 37  1  0
 36 38  2  0
 38 39  1  0
 38  2  1  0
 33  7  1  0
 28 15  1  0
 27 18  1  0
M  END
>  <cnnaffinity>  (1) 
-4.93816

>  <filename>  (1) 
c1cncc(N2CCN(c3cc4ccccc4[nH]3)CC2)c1

$$$$
