
     RDKit          3D

 27 29  0  0  0  0  0  0  0  0999 V2000
    4.9204    1.8066   16.9932 H   0  0  0  0  0  0  0  0  0  0  0  0
    5.3939    1.3000   17.8315 C   0  0  0  0  0  0  0  0  0  0  0  0
    6.5565    0.6840   17.5623 N   0  0  0  0  0  0  0  0  0  0  0  0
    7.1661    0.0530   18.5746 C   0  0  0  0  0  0  0  0  0  0  0  0
    8.1159   -0.4286   18.3488 H   0  0  0  0  0  0  0  0  0  0  0  0
    6.6584   -0.0252   19.8965 C   0  0  0  0  0  0  0  0  0  0  0  0
    7.3114   -0.7487   20.9066 N   0  0  0  0  0  0  0  0  0  0  0  0
    6.7683   -0.9742   21.7328 H   0  0  0  0  0  0  0  0  0  0  0  0
    8.7064   -0.7632   21.0972 C   0  0  0  0  0  0  0  0  0  0  0  0
    9.6933    0.1715   20.6927 C   0  0  0  0  0  0  0  0  0  0  0  0
    9.5617    1.0721   20.1082 H   0  0  0  0  0  0  0  0  0  0  0  0
   10.9083   -0.1884   21.0938 N   0  0  0  0  0  0  0  0  0  0  0  0
   10.7181   -1.3436   21.7441 N   0  0  0  0  0  0  0  0  0  0  0  0
   11.5113   -1.8333   22.1422 H   0  0  0  0  0  0  0  0  0  0  0  0
    9.4154   -1.7403   21.7859 C   0  0  0  0  0  0  0  0  0  0  0  0
    8.9643   -2.9586   22.4251 C   0  0  0  0  0  0  0  0  0  0  0  0
    7.7977   -3.6178   22.1620 C   0  0  0  0  0  0  0  0  0  0  0  0
    6.9972   -3.4620   21.4517 H   0  0  0  0  0  0  0  0  0  0  0  0
    7.6883   -4.7136   22.9353 O   0  0  0  0  0  0  0  0  0  0  0  0
    8.7908   -4.7637   23.7205 C   0  0  0  0  0  0  0  0  0  0  0  0
    8.8182   -5.6031   24.3978 H   0  0  0  0  0  0  0  0  0  0  0  0
    9.6173   -3.7263   23.4607 C   0  0  0  0  0  0  0  0  0  0  0  0
   10.5591   -3.5157   23.9518 H   0  0  0  0  0  0  0  0  0  0  0  0
    5.4444    0.6268   20.1536 C   0  0  0  0  0  0  0  0  0  0  0  0
    5.0308    0.6139   21.1620 H   0  0  0  0  0  0  0  0  0  0  0  0
    4.8083    1.3026   19.1046 C   0  0  0  0  0  0  0  0  0  0  0  0
    3.8768    1.8380   19.2607 H   0  0  0  0  0  0  0  0  0  0  0  0
  1  2  1  0
  2  3  2  0
  3  4  1  0
  4  5  1  0
  4  6  2  0
  6  7  1  0
  7  8  1  0
  7  9  1  0
  9 10  1  0
 10 11  1  0
 10 12  2  0
 12 13  1  0
 13 14  1  0
 13 15  1  0
 15 16  1  0
 16 17  2  0
 17 18  1  0
 17 19  1  0
 19 20  1  0
 20 21  1  0
 20 22  2  0
 22 23  1  0
  6 24  1  0
 24 25  1  0
 24 26  2  0
 26 27  1  0
 26  2  1  0
 15  9  2  0
 22 16  1  0
M  END
>  <cnnaffinity>  (1) 
-5.39233

>  <filename>  (1) 
c1cncc(Nc2cn[nH]c2-c2ccoc2)c1

$$$$
