
     RDKit          3D

 41 45  0  0  0  0  0  0  0  0999 V2000
    5.0104    1.8371   16.8824 H   0  0  0  0  0  0  0  0  0  0  0  0
    5.4370    1.2914   17.7213 C   0  0  0  0  0  0  0  0  0  0  0  0
    6.5777    0.6278   17.4809 N   0  0  0  0  0  0  0  0  0  0  0  0
    7.1488   -0.0164   18.5039 C   0  0  0  0  0  0  0  0  0  0  0  0
    8.0725   -0.5447   18.2794 H   0  0  0  0  0  0  0  0  0  0  0  0
    6.6258   -0.0284   19.8095 C   0  0  0  0  0  0  0  0  0  0  0  0
    7.3825   -0.6432   20.9154 C   0  0  0  0  0  0  0  0  0  0  0  0
    8.5601   -1.2516   20.6929 N   0  0  0  0  0  0  0  0  0  0  0  0
    8.9509   -1.6045   21.9343 N   0  0  0  0  0  0  0  0  0  0  0  0
   10.0714   -2.2130   22.4838 C   0  0  0  0  0  0  0  0  0  0  0  0
   10.8712   -2.5705   21.8599 H   0  0  0  0  0  0  0  0  0  0  0  0
    9.8767   -2.1848   23.8270 C   0  0  0  0  0  0  0  0  0  0  0  0
   10.5011   -2.5583   24.6234 H   0  0  0  0  0  0  0  0  0  0  0  0
    8.6416   -1.5967   24.1147 N   0  0  0  0  0  0  0  0  0  0  0  0
    8.2737   -0.9057   25.3531 C   0  0  0  0  0  0  0  0  0  0  0  0
    8.8145   -1.3758   26.1811 H   0  0  0  0  0  0  0  0  0  0  0  0
    7.2042   -1.0455   25.5326 H   0  0  0  0  0  0  0  0  0  0  0  0
    8.6164    0.5758   25.2792 C   0  0  0  0  0  0  0  0  0  0  0  0
    9.9993    0.9163   25.2806 C   0  0  0  0  0  0  0  0  0  0  0  0
   10.7448    0.1409   25.4350 H   0  0  0  0  0  0  0  0  0  0  0  0
   10.4130    2.2037   25.0707 C   0  0  0  0  0  0  0  0  0  0  0  0
   11.4718    2.4450   25.0335 H   0  0  0  0  0  0  0  0  0  0  0  0
    9.4594    3.2511   24.9135 C   0  0  0  0  0  0  0  0  0  0  0  0
    9.8608    4.6153   24.8337 C   0  0  0  0  0  0  0  0  0  0  0  0
   10.9191    4.8324   24.9258 H   0  0  0  0  0  0  0  0  0  0  0  0
    8.9349    5.6208   24.6869 C   0  0  0  0  0  0  0  0  0  0  0  0
    9.2491    6.6621   24.6952 H   0  0  0  0  0  0  0  0  0  0  0  0
    7.5542    5.2952   24.5480 C   0  0  0  0  0  0  0  0  0  0  0  0
    6.8407    6.0998   24.3879 H   0  0  0  0  0  0  0  0  0  0  0  0
    7.1310    3.9856   24.6096 C   0  0  0  0  0  0  0  0  0  0  0  0
    6.0760    3.7441   24.4890 H   0  0  0  0  0  0  0  0  0  0  0  0
    8.0673    2.9289   24.8508 C   0  0  0  0  0  0  0  0  0  0  0  0
    7.6772    1.5629   25.0457 C   0  0  0  0  0  0  0  0  0  0  0  0
    6.6186    1.3201   25.0037 H   0  0  0  0  0  0  0  0  0  0  0  0
    8.0855   -1.2442   22.9023 C   0  0  0  0  0  0  0  0  0  0  0  0
    7.0141   -0.6279   22.2809 C   0  0  0  0  0  0  0  0  0  0  0  0
    6.1139   -0.2339   22.7232 H   0  0  0  0  0  0  0  0  0  0  0  0
    5.4030    0.6288   20.0267 C   0  0  0  0  0  0  0  0  0  0  0  0
    4.9312    0.6149   21.0100 H   0  0  0  0  0  0  0  0  0  0  0  0
    4.8052    1.3059   18.9680 C   0  0  0  0  0  0  0  0  0  0  0  0
    3.8798    1.8555   19.1005 H   0  0  0  0  0  0  0  0  0  0  0  0
  1  2  1  0
  2  3  2  0
  3  4  1  0
  4  5  1  0
  4  6  2  0
  6  7  1  0
  7  8  2  0
  8  9  1  0
  9 10  1  0
 10 11  1  0
 10 12  2  0
 12 13  1  0
 12 14  1  0
 14 15  1  0
 15 16  1  0
 15 17  1  0
 15 18  1  0
 18 19  2  0
 19 20  1  0
 19 21  1  0
 21 22  1  0
 21 23  2  0
 23 24  1  0
 24 25  1  0
 24 26  2  0
 26 27  1  0
 26 28  1  0
 28 29  1  0
 28 30  2  0
 30 31  1  0
 30 32  1  0
 32 33  2  0
 33 34  1  0
 14 35  1  0
 35 36  2  0
 36 37  1  0
  6 38  1  0
 38 39  1  0
 38 40  2  0
 40 41  1  0
 40  2  1  0
 36  7  1  0
 35  9  1  0
 33 18  1  0
 32 23  1  0
M  END
>  <cnnaffinity>  (1) 
-5.85439

>  <filename>  (1) 
c1cncc(-c2cc3n(Cc4ccc5ccccc5c4)ccn3n2)c1

$$$$
