
     RDKit          3D

 34 37  0  0  0  0  0  0  0  0999 V2000
    4.9185    1.7778   16.9995 H   0  0  0  0  0  0  0  0  0  0  0  0
    5.4039    1.2906   17.8401 C   0  0  0  0  0  0  0  0  0  0  0  0
    6.5688    0.6778   17.5746 N   0  0  0  0  0  0  0  0  0  0  0  0
    7.1734    0.0558   18.5878 C   0  0  0  0  0  0  0  0  0  0  0  0
    8.1226   -0.4337   18.3718 H   0  0  0  0  0  0  0  0  0  0  0  0
    6.6468    0.0104   19.8900 C   0  0  0  0  0  0  0  0  0  0  0  0
    7.4035   -0.7014   20.9138 C   0  0  0  0  0  0  0  0  0  0  0  0
    8.3306   -1.6026   20.6956 N   0  0  0  0  0  0  0  0  0  0  0  0
    8.8334   -2.0381   21.9007 N   0  0  0  0  0  0  0  0  0  0  0  0
    8.2022   -1.3561   22.8149 C   0  0  0  0  0  0  0  0  0  0  0  0
    8.2703   -1.0879   24.5325 S   0  0  0  0  0  0  0  0  0  0  0  0
    7.0470    0.1793   24.3101 C   0  0  0  0  0  0  0  0  0  0  0  0
    6.5838    1.0031   25.4760 C   0  0  0  0  0  0  0  0  0  0  0  0
    5.7810    1.6414   25.0810 H   0  0  0  0  0  0  0  0  0  0  0  0
    6.0070    0.1428   26.6227 C   0  0  0  0  0  0  0  0  0  0  0  0
    5.1433   -0.4280   26.2644 H   0  0  0  0  0  0  0  0  0  0  0  0
    6.7597   -0.5827   26.9543 H   0  0  0  0  0  0  0  0  0  0  0  0
    5.5974    1.0134   27.8082 C   0  0  0  0  0  0  0  0  0  0  0  0
    4.7437    1.6504   27.5037 H   0  0  0  0  0  0  0  0  0  0  0  0
    5.2528    0.3742   28.6276 H   0  0  0  0  0  0  0  0  0  0  0  0
    6.7376    1.8058   28.2695 N   0  0  0  0  0  0  0  0  0  0  0  0
    6.4442    2.3563   29.0703 H   0  0  0  0  0  0  0  0  0  0  0  0
    7.2280    2.7123   27.2317 C   0  0  0  0  0  0  0  0  0  0  0  0
    8.0599    3.2985   27.6323 H   0  0  0  0  0  0  0  0  0  0  0  0
    6.4497    3.4277   26.9009 H   0  0  0  0  0  0  0  0  0  0  0  0
    7.7076    1.9165   26.0209 C   0  0  0  0  0  0  0  0  0  0  0  0
    8.5708    1.3064   26.3125 H   0  0  0  0  0  0  0  0  0  0  0  0
    8.0466    2.6028   25.2370 H   0  0  0  0  0  0  0  0  0  0  0  0
    6.6306    0.3578   23.1016 N   0  0  0  0  0  0  0  0  0  0  0  0
    7.2716   -0.5224   22.2744 N   0  0  0  0  0  0  0  0  0  0  0  0
    5.4300    0.6518   20.1592 C   0  0  0  0  0  0  0  0  0  0  0  0
    5.0068    0.6364   21.1657 H   0  0  0  0  0  0  0  0  0  0  0  0
    4.8043    1.3083   19.1053 C   0  0  0  0  0  0  0  0  0  0  0  0
    3.8742    1.8433   19.2590 H   0  0  0  0  0  0  0  0  0  0  0  0
  1  2  1  0
  2  3  2  0
  3  4  1  0
  4  5  1  0
  4  6  2  0
  6  7  1  0
  7  8  2  0
  8  9  1  0
  9 10  2  0
 10 11  1  0
 11 12  1  0
 12 13  1  0
 13 14  1  0
 13 15  1  0
 15 16  1  0
 15 17  1  0
 15 18  1  0
 18 19  1  0
 18 20  1  0
 18 21  1  0
 21 22  1  0
 21 23  1  0
 23 24  1  0
 23 25  1  0
 23 26  1  0
 26 27  1  0
 26 28  1  0
 12 29  2  0
 29 30  1  0
  6 31  1  0
 31 32  1  0
 31 33  2  0
 33 34  1  0
 33  2  1  0
 30  7  1  0
 30 10  1  0
 26 13  1  0
M  END
>  <cnnaffinity>  (1) 
-5.08092

>  <filename>  (1) 
c1cncc(-c2nnc3sc(C4CCNCC4)nn23)c1

$$$$
