
     RDKit          3D

 28 31  0  0  0  0  0  0  0  0999 V2000
    6.4459   -2.0919   28.2535 H   0  0  0  0  0  0  0  0  0  0  0  0
    6.2262   -1.7168   27.2699 C   0  0  0  0  0  0  0  0  0  0  0  0
    7.1398   -2.0068   26.3469 N   0  0  0  0  0  0  0  0  0  0  0  0
    6.9253   -1.5369   25.1096 C   0  0  0  0  0  0  0  0  0  0  0  0
    7.9700   -1.8897   24.1077 C   0  0  0  0  0  0  0  0  0  0  0  0
    9.1227   -2.5994   24.2512 C   0  0  0  0  0  0  0  0  0  0  0  0
    9.4965   -3.0734   25.1494 H   0  0  0  0  0  0  0  0  0  0  0  0
   10.0568   -2.7235   22.7854 S   0  0  0  0  0  0  0  0  0  0  0  0
    8.8412   -1.8015   21.9282 C   0  0  0  0  0  0  0  0  0  0  0  0
    8.5807   -1.3327   20.7235 N   0  0  0  0  0  0  0  0  0  0  0  0
    7.3855   -0.7027   20.9347 C   0  0  0  0  0  0  0  0  0  0  0  0
    6.6373    0.0046   19.9045 C   0  0  0  0  0  0  0  0  0  0  0  0
    7.1784    0.0312   18.6190 C   0  0  0  0  0  0  0  0  0  0  0  0
    8.1280   -0.4687   18.4345 H   0  0  0  0  0  0  0  0  0  0  0  0
    6.5903    0.6491   17.5915 N   0  0  0  0  0  0  0  0  0  0  0  0
    5.4316    1.2816   17.8364 C   0  0  0  0  0  0  0  0  0  0  0  0
    4.9792    1.7942   16.9928 H   0  0  0  0  0  0  0  0  0  0  0  0
    4.8024    1.3079   19.0888 C   0  0  0  0  0  0  0  0  0  0  0  0
    3.8655    1.8455   19.2095 H   0  0  0  0  0  0  0  0  0  0  0  0
    5.4169    0.6607   20.1573 C   0  0  0  0  0  0  0  0  0  0  0  0
    4.9816    0.6671   21.1600 H   0  0  0  0  0  0  0  0  0  0  0  0
    6.9089   -0.7582   22.1600 N   0  0  0  0  0  0  0  0  0  0  0  0
    7.8567   -1.4710   22.7919 N   0  0  0  0  0  0  0  0  0  0  0  0
    5.8600   -0.7909   24.7729 N   0  0  0  0  0  0  0  0  0  0  0  0
    4.9494   -0.5459   25.7015 C   0  0  0  0  0  0  0  0  0  0  0  0
    4.0829    0.0311   25.3837 H   0  0  0  0  0  0  0  0  0  0  0  0
    5.0764   -0.9891   27.0117 C   0  0  0  0  0  0  0  0  0  0  0  0
    4.3439   -0.7843   27.7866 H   0  0  0  0  0  0  0  0  0  0  0  0
  1  2  1  0
  2  3  2  0
  3  4  1  0
  4  5  1  0
  5  6  2  0
  6  7  1  0
  6  8  1  0
  8  9  1  0
  9 10  2  0
 10 11  1  0
 11 12  1  0
 12 13  2  0
 13 14  1  0
 13 15  1  0
 15 16  2  0
 16 17  1  0
 16 18  1  0
 18 19  1  0
 18 20  2  0
 20 21  1  0
 11 22  2  0
 22 23  1  0
  4 24  2  0
 24 25  1  0
 25 26  1  0
 25 27  2  0
 27 28  1  0
 27  2  1  0
 23  5  1  0
 23  9  1  0
 20 12  1  0
M  END
>  <cnnaffinity>  (1) 
-5.1137

>  <filename>  (1) 
c1cnc(-c2csc3nc(-c4cccnc4)nn23)nc1

$$$$
