
     RDKit          3D

 35 38  0  0  0  0  0  0  0  0999 V2000
    5.4802    1.6062   16.8213 H   0  0  0  0  0  0  0  0  0  0  0  0
    6.0289    1.3142   17.7161 C   0  0  0  0  0  0  0  0  0  0  0  0
    7.2567    0.8118   17.5220 N   0  0  0  0  0  0  0  0  0  0  0  0
    7.9265    0.3648   18.5887 C   0  0  0  0  0  0  0  0  0  0  0  0
    8.9293   -0.0140   18.4008 H   0  0  0  0  0  0  0  0  0  0  0  0
    7.3922    0.3306   19.8862 C   0  0  0  0  0  0  0  0  0  0  0  0
    8.0563   -0.4899   20.9124 C   0  0  0  0  0  0  0  0  0  0  0  0
    9.3813   -0.4840   21.0818 N   0  0  0  0  0  0  0  0  0  0  0  0
    9.5572   -1.3406   22.0891 N   0  0  0  0  0  0  0  0  0  0  0  0
    8.4335   -1.9177   22.5467 C   0  0  0  0  0  0  0  0  0  0  0  0
    7.4045   -1.4320   21.7714 C   0  0  0  0  0  0  0  0  0  0  0  0
    5.9814   -1.9477   21.6247 C   0  0  0  0  0  0  0  0  0  0  0  0
    5.3199   -1.0896   21.4748 H   0  0  0  0  0  0  0  0  0  0  0  0
    5.6586   -2.4624   22.5363 H   0  0  0  0  0  0  0  0  0  0  0  0
    5.7529   -2.8519   20.4458 C   0  0  0  0  0  0  0  0  0  0  0  0
    5.7788   -4.2237   20.5269 N   0  0  0  0  0  0  0  0  0  0  0  0
    5.5988   -4.6560   19.3102 C   0  0  0  0  0  0  0  0  0  0  0  0
    5.5622   -5.7001   19.0176 H   0  0  0  0  0  0  0  0  0  0  0  0
    5.4333   -3.6298   18.4343 N   0  0  0  0  0  0  0  0  0  0  0  0
    5.3364   -3.7083   17.4325 H   0  0  0  0  0  0  0  0  0  0  0  0
    5.5329   -2.4646   19.1529 C   0  0  0  0  0  0  0  0  0  0  0  0
    5.4072   -1.4808   18.7199 H   0  0  0  0  0  0  0  0  0  0  0  0
    8.7859   -2.8752   23.6535 C   0  0  0  0  0  0  0  0  0  0  0  0
    8.8233   -3.9016   23.2671 H   0  0  0  0  0  0  0  0  0  0  0  0
    8.0668   -2.8765   24.4780 H   0  0  0  0  0  0  0  0  0  0  0  0
   10.1963   -2.3731   24.0529 C   0  0  0  0  0  0  0  0  0  0  0  0
   10.0907   -1.5797   24.7995 H   0  0  0  0  0  0  0  0  0  0  0  0
   10.8374   -3.1479   24.4754 H   0  0  0  0  0  0  0  0  0  0  0  0
   10.7707   -1.7863   22.7412 C   0  0  0  0  0  0  0  0  0  0  0  0
   11.4647   -0.9564   22.8789 H   0  0  0  0  0  0  0  0  0  0  0  0
   11.2572   -2.5655   22.1412 H   0  0  0  0  0  0  0  0  0  0  0  0
    6.1604    0.9797   20.0902 C   0  0  0  0  0  0  0  0  0  0  0  0
    5.7499    1.1020   21.0929 H   0  0  0  0  0  0  0  0  0  0  0  0
    5.4567    1.4522   18.9823 C   0  0  0  0  0  0  0  0  0  0  0  0
    4.4712    1.8896   19.0807 H   0  0  0  0  0  0  0  0  0  0  0  0
  1  2  1  0
  2  3  2  0
  3  4  1  0
  4  5  1  0
  4  6  2  0
  6  7  1  0
  7  8  2  0
  8  9  1  0
  9 10  1  0
 10 11  2  0
 11 12  1  0
 12 13  1  0
 12 14  1  0
 12 15  1  0
 15 16  1  0
 16 17  2  0
 17 18  1  0
 17 19  1  0
 19 20  1  0
 19 21  1  0
 21 22  1  0
 10 23  1  0
 23 24  1  0
 23 25  1  0
 23 26  1  0
 26 27  1  0
 26 28  1  0
 26 29  1  0
 29 30  1  0
 29 31  1  0
  6 32  1  0
 32 33  1  0
 32 34  2  0
 34 35  1  0
 34  2  1  0
 11  7  1  0
 21 15  2  0
 29  9  1  0
M  END
>  <cnnaffinity>  (1) 
-5.38993

>  <filename>  (1) 
c1cncc(-c2nn3c(c2Cc2c[nH]cn2)CCC3)c1

$$$$
