
     RDKit          3D

 32 35  0  0  0  0  0  0  0  0999 V2000
    4.8830    1.8950   16.6275 H   0  0  0  0  0  0  0  0  0  0  0  0
    5.2541    1.4752   17.5588 C   0  0  0  0  0  0  0  0  0  0  0  0
    6.4295    0.8310   17.4839 N   0  0  0  0  0  0  0  0  0  0  0  0
    6.9287    0.3377   18.6230 C   0  0  0  0  0  0  0  0  0  0  0  0
    7.8876   -0.1748   18.5187 H   0  0  0  0  0  0  0  0  0  0  0  0
    6.3112    0.4507   19.8844 C   0  0  0  0  0  0  0  0  0  0  0  0
    6.9972   -0.0958   21.1174 C   0  0  1  0  0  0  0  0  0  0  0  0
    6.3868    0.1320   22.0010 H   0  0  0  0  0  0  0  0  0  0  0  0
    7.1655   -1.6457   21.0785 C   0  0  0  0  0  0  0  0  0  0  0  0
    7.0114   -2.0713   20.0793 H   0  0  0  0  0  0  0  0  0  0  0  0
    6.4712   -2.1531   21.7521 H   0  0  0  0  0  0  0  0  0  0  0  0
    8.5756   -1.8345   21.5216 C   0  0  0  0  0  0  0  0  0  0  0  0
    9.2760   -2.9271   21.7420 N   0  0  0  0  0  0  0  0  0  0  0  0
   10.5073   -2.4465   22.0190 N   0  0  0  0  0  0  0  0  0  0  0  0
   11.2785   -3.0996   22.1406 H   0  0  0  0  0  0  0  0  0  0  0  0
   10.5933   -1.0837   21.9848 C   0  0  0  0  0  0  0  0  0  0  0  0
   11.8498   -0.3823   22.1776 C   0  0  0  0  0  0  0  0  0  0  0  0
   12.0080    0.9666   22.2855 C   0  0  0  0  0  0  0  0  0  0  0  0
   11.3229    1.7968   22.1936 H   0  0  0  0  0  0  0  0  0  0  0  0
   13.3049    1.2793   22.5008 O   0  0  0  0  0  0  0  0  0  0  0  0
   14.0030    0.1126   22.5073 C   0  0  0  0  0  0  0  0  0  0  0  0
   15.0670    0.2024   22.6650 H   0  0  0  0  0  0  0  0  0  0  0  0
   13.1847   -0.9383   22.3056 C   0  0  0  0  0  0  0  0  0  0  0  0
   13.4856   -1.9775   22.2266 H   0  0  0  0  0  0  0  0  0  0  0  0
    9.3051   -0.6544   21.6783 C   0  0  0  0  0  0  0  0  0  0  0  0
    8.4195    0.5316   21.3767 C   0  0  0  0  0  0  0  0  0  0  0  0
    8.7652    1.0923   20.5010 H   0  0  0  0  0  0  0  0  0  0  0  0
    8.3666    1.2650   22.1903 H   0  0  0  0  0  0  0  0  0  0  0  0
    5.0649    1.0938   19.9227 C   0  0  0  0  0  0  0  0  0  0  0  0
    4.5327    1.1834   20.8696 H   0  0  0  0  0  0  0  0  0  0  0  0
    4.5303    1.6199   18.7443 C   0  0  0  0  0  0  0  0  0  0  0  0
    3.5807    2.1434   18.7387 H   0  0  0  0  0  0  0  0  0  0  0  0
  1  2  1  0
  2  3  2  0
  3  4  1  0
  4  5  1  0
  4  6  2  0
  6  7  1  0
  7  8  1  1
  7  9  1  0
  9 10  1  0
  9 11  1  0
  9 12  1  0
 12 13  2  0
 13 14  1  0
 14 15  1  0
 14 16  1  0
 16 17  1  0
 17 18  2  0
 18 19  1  0
 18 20  1  0
 20 21  1  0
 21 22  1  0
 21 23  2  0
 23 24  1  0
 16 25  2  0
 25 26  1  0
 26 27  1  0
 26 28  1  0
  6 29  1  0
 29 30  1  0
 29 31  2  0
 31 32  1  0
 31  2  1  0
 26  7  1  0
 25 12  1  0
 23 17  1  0
M  END
>  <cnnaffinity>  (1) 
-5.61012

>  <filename>  (1) 
c1cncc([C@H]2Cc3n[nH]c(-c4ccoc4)c3C2)c1

$$$$
