
     RDKit          3D

 37 39  0  0  0  0  0  0  0  0999 V2000
    4.9962    1.8397   16.8387 H   0  0  0  0  0  0  0  0  0  0  0  0
    5.4438    1.3288   17.6888 C   0  0  0  0  0  0  0  0  0  0  0  0
    6.5969    0.6823   17.4565 N   0  0  0  0  0  0  0  0  0  0  0  0
    7.1796    0.0600   18.4847 C   0  0  0  0  0  0  0  0  0  0  0  0
    8.1041   -0.4687   18.2505 H   0  0  0  0  0  0  0  0  0  0  0  0
    6.6602    0.0550   19.7945 C   0  0  0  0  0  0  0  0  0  0  0  0
    7.4035   -0.6240   20.8784 C   0  0  0  0  0  0  0  0  0  0  0  0
    8.5601   -1.2437   20.6469 N   0  0  0  0  0  0  0  0  0  0  0  0
    8.9230   -1.7563   21.8342 N   0  0  0  0  0  0  0  0  0  0  0  0
    9.8183   -2.2101   21.9209 H   0  0  0  0  0  0  0  0  0  0  0  0
    8.0604   -1.4753   22.8410 C   0  0  0  0  0  0  0  0  0  0  0  0
    8.2551   -1.9908   24.2385 C   0  0  0  0  0  0  0  0  0  0  0  0
    7.7346   -1.3016   24.9110 H   0  0  0  0  0  0  0  0  0  0  0  0
    9.3198   -1.9130   24.4952 H   0  0  0  0  0  0  0  0  0  0  0  0
    7.7518   -3.4342   24.4951 C   0  0  0  0  0  0  0  0  0  0  0  0
    8.3157   -4.0959   23.8172 H   0  0  0  0  0  0  0  0  0  0  0  0
    8.0399   -3.8905   25.9626 C   0  0  0  0  0  0  0  0  0  0  0  0
    9.0841   -4.2313   26.0142 H   0  0  0  0  0  0  0  0  0  0  0  0
    7.9655   -3.0338   26.6455 H   0  0  0  0  0  0  0  0  0  0  0  0
    7.1141   -5.0220   26.4977 C   0  0  0  0  0  0  0  0  0  0  0  0
    6.2740   -4.6116   27.0781 H   0  0  0  0  0  0  0  0  0  0  0  0
    7.6763   -5.6480   27.2016 H   0  0  0  0  0  0  0  0  0  0  0  0
    6.6026   -5.8907   25.3436 C   0  0  0  0  0  0  0  0  0  0  0  0
    5.9831   -6.7169   25.7143 H   0  0  0  0  0  0  0  0  0  0  0  0
    7.4946   -6.3227   24.8614 H   0  0  0  0  0  0  0  0  0  0  0  0
    5.8190   -5.0800   24.2818 C   0  0  0  0  0  0  0  0  0  0  0  0
    5.9935   -5.5610   23.3150 H   0  0  0  0  0  0  0  0  0  0  0  0
    4.7363   -5.1188   24.4595 H   0  0  0  0  0  0  0  0  0  0  0  0
    6.2596   -3.6047   24.1606 C   0  0  0  0  0  0  0  0  0  0  0  0
    5.6732   -2.9651   24.8377 H   0  0  0  0  0  0  0  0  0  0  0  0
    6.0485   -3.2468   23.1424 H   0  0  0  0  0  0  0  0  0  0  0  0
    7.0632   -0.7283   22.2496 C   0  0  0  0  0  0  0  0  0  0  0  0
    6.2175   -0.2871   22.7506 H   0  0  0  0  0  0  0  0  0  0  0  0
    5.4311    0.7080   20.0064 C   0  0  0  0  0  0  0  0  0  0  0  0
    4.9601    0.7065   20.9893 H   0  0  0  0  0  0  0  0  0  0  0  0
    4.8152    1.3542   18.9367 C   0  0  0  0  0  0  0  0  0  0  0  0
    3.8739    1.8843   19.0558 H   0  0  0  0  0  0  0  0  0  0  0  0
  1  2  1  0
  2  3  2  0
  3  4  1  0
  4  5  1  0
  4  6  2  0
  6  7  1  0
  7  8  2  0
  8  9  1  0
  9 10  1  0
  9 11  1  0
 11 12  1  0
 12 13  1  0
 12 14  1  0
 12 15  1  0
 15 16  1  0
 15 17  1  0
 17 18  1  0
 17 19  1  0
 17 20  1  0
 20 21  1  0
 20 22  1  0
 20 23  1  0
 23 24  1  0
 23 25  1  0
 23 26  1  0
 26 27  1  0
 26 28  1  0
 26 29  1  0
 29 30  1  0
 29 31  1  0
 11 32  2  0
 32 33  1  0
  6 34  1  0
 34 35  1  0
 34 36  2  0
 36 37  1  0
 36  2  1  0
 32  7  1  0
 29 15  1  0
M  END
>  <cnnaffinity>  (1) 
-5.43003

>  <filename>  (1) 
c1cncc(-c2cc(CC3CCCCC3)[nH]n2)c1

$$$$
