
     RDKit          3D

 30 33  0  0  0  0  0  0  0  0999 V2000
    5.0167    1.8568   16.8036 H   0  0  0  0  0  0  0  0  0  0  0  0
    5.4512    1.3391   17.6538 C   0  0  0  0  0  0  0  0  0  0  0  0
    6.6055    0.6914   17.4320 N   0  0  0  0  0  0  0  0  0  0  0  0
    7.1751    0.0603   18.4653 C   0  0  0  0  0  0  0  0  0  0  0  0
    8.1059   -0.4613   18.2404 H   0  0  0  0  0  0  0  0  0  0  0  0
    6.6298    0.0532   19.7597 C   0  0  0  0  0  0  0  0  0  0  0  0
    7.3035   -0.6229   20.8832 C   0  0  0  0  0  0  0  0  0  0  0  0
    8.4153   -1.2955   20.7345 N   0  0  0  0  0  0  0  0  0  0  0  0
    8.7174   -1.8052   21.9809 O   0  0  0  0  0  0  0  0  0  0  0  0
    7.7869   -1.4133   22.8813 C   0  0  0  0  0  0  0  0  0  0  0  0
    7.8801   -1.8826   24.2636 C   0  0  0  0  0  0  0  0  0  0  0  0
    6.9794   -1.5715   25.2382 C   0  0  0  0  0  0  0  0  0  0  0  0
    6.1597   -0.8578   25.1853 H   0  0  0  0  0  0  0  0  0  0  0  0
    7.2196   -2.4175   26.7182 S   0  0  0  0  0  0  0  0  0  0  0  0
    8.6010   -3.2566   26.0693 C   0  0  0  0  0  0  0  0  0  0  0  0
    9.3480   -4.2743   26.6954 C   0  0  0  0  0  0  0  0  0  0  0  0
    9.0679   -4.6591   27.6740 H   0  0  0  0  0  0  0  0  0  0  0  0
   10.4218   -4.8209   26.0012 C   0  0  0  0  0  0  0  0  0  0  0  0
   10.9982   -5.6251   26.4450 H   0  0  0  0  0  0  0  0  0  0  0  0
   10.7546   -4.3553   24.7124 C   0  0  0  0  0  0  0  0  0  0  0  0
   11.6181   -4.7740   24.2068 H   0  0  0  0  0  0  0  0  0  0  0  0
    9.9989   -3.3836   24.0757 C   0  0  0  0  0  0  0  0  0  0  0  0
   10.2478   -3.0438   23.0745 H   0  0  0  0  0  0  0  0  0  0  0  0
    8.8710   -2.8463   24.7459 C   0  0  0  0  0  0  0  0  0  0  0  0
    6.8616   -0.6561   22.2346 C   0  0  0  0  0  0  0  0  0  0  0  0
    6.0078   -0.1581   22.6567 H   0  0  0  0  0  0  0  0  0  0  0  0
    5.4071    0.7129   19.9621 C   0  0  0  0  0  0  0  0  0  0  0  0
    4.9401    0.7191   20.9470 H   0  0  0  0  0  0  0  0  0  0  0  0
    4.8079    1.3650   18.8944 C   0  0  0  0  0  0  0  0  0  0  0  0
    3.8729    1.8981   19.0191 H   0  0  0  0  0  0  0  0  0  0  0  0
  1  2  1  0
  2  3  2  0
  3  4  1  0
  4  5  1  0
  4  6  2  0
  6  7  1  0
  7  8  2  0
  8  9  1  0
  9 10  1  0
 10 11  1  0
 11 12  2  0
 12 13  1  0
 12 14  1  0
 14 15  1  0
 15 16  2  0
 16 17  1  0
 16 18  1  0
 18 19  1  0
 18 20  2  0
 20 21  1  0
 20 22  1  0
 22 23  1  0
 22 24  2  0
 10 25  2  0
 25 26  1  0
  6 27  1  0
 27 28  1  0
 27 29  2  0
 29 30  1  0
 29  2  1  0
 25  7  1  0
 24 11  1  0
 24 15  1  0
M  END
>  <cnnaffinity>  (1) 
-5.09308

>  <filename>  (1) 
c1cncc(-c2cc(-c3csc4ccccc34)on2)c1

$$$$
