
     RDKit          3D

 30 33  0  0  0  0  0  0  0  0999 V2000
    4.9201    1.7877   16.9920 H   0  0  0  0  0  0  0  0  0  0  0  0
    5.4006    1.2956   17.8354 C   0  0  0  0  0  0  0  0  0  0  0  0
    6.5649    0.6789   17.5737 N   0  0  0  0  0  0  0  0  0  0  0  0
    7.1681    0.0603   18.5924 C   0  0  0  0  0  0  0  0  0  0  0  0
    8.1129   -0.4268   18.3697 H   0  0  0  0  0  0  0  0  0  0  0  0
    6.6638    0.0013   19.9091 C   0  0  0  0  0  0  0  0  0  0  0  0
    7.3792   -0.7092   20.9922 C   0  0  0  0  0  0  0  0  0  0  0  0
    8.1240   -2.2415   20.8058 S   0  0  0  0  0  0  0  0  0  0  0  0
    8.5776   -2.4360   22.3812 N   0  0  0  0  0  0  0  0  0  0  0  0
    8.2006   -1.3825   23.0478 C   0  0  0  0  0  0  0  0  0  0  0  0
    8.4521   -1.3276   24.1041 H   0  0  0  0  0  0  0  0  0  0  0  0
    7.5232   -0.3524   22.3185 C   0  0  0  0  0  0  0  0  0  0  0  0
    7.1250    0.9295   22.9183 C   0  0  0  0  0  0  0  0  0  0  0  0
    6.4782    0.9307   24.1982 C   0  0  0  0  0  0  0  0  0  0  0  0
    6.2962   -0.0334   24.6762 H   0  0  0  0  0  0  0  0  0  0  0  0
    6.0795    2.1035   24.8097 C   0  0  0  0  0  0  0  0  0  0  0  0
    5.5943    2.1116   25.7848 H   0  0  0  0  0  0  0  0  0  0  0  0
    6.3514    3.3049   24.1074 C   0  0  0  0  0  0  0  0  0  0  0  0
    6.9922    3.3302   22.8510 C   0  0  0  0  0  0  0  0  0  0  0  0
    7.0562    4.7117   22.5104 C   0  0  0  0  0  0  0  0  0  0  0  0
    7.4809    5.1378   21.6136 H   0  0  0  0  0  0  0  0  0  0  0  0
    6.5283    5.4657   23.4525 N   0  0  0  0  0  0  0  0  0  0  0  0
    6.1067    4.6048   24.4054 N   0  0  0  0  0  0  0  0  0  0  0  0
    5.6604    4.9447   25.2348 H   0  0  0  0  0  0  0  0  0  0  0  0
    7.3936    2.1227   22.2552 C   0  0  0  0  0  0  0  0  0  0  0  0
    7.8775    2.0961   21.2826 H   0  0  0  0  0  0  0  0  0  0  0  0
    5.4339    0.6401   20.1527 C   0  0  0  0  0  0  0  0  0  0  0  0
    5.0187    0.6379   21.1629 H   0  0  0  0  0  0  0  0  0  0  0  0
    4.8008    1.3036   19.0998 C   0  0  0  0  0  0  0  0  0  0  0  0
    3.8723    1.8420   19.2526 H   0  0  0  0  0  0  0  0  0  0  0  0
  1  2  1  0
  2  3  2  0
  3  4  1  0
  4  5  1  0
  4  6  2  0
  6  7  1  0
  7  8  1  0
  8  9  1  0
  9 10  2  0
 10 11  1  0
 10 12  1  0
 12 13  1  0
 13 14  2  0
 14 15  1  0
 14 16  1  0
 16 17  1  0
 16 18  2  0
 18 19  1  0
 19 20  1  0
 20 21  1  0
 20 22  2  0
 22 23  1  0
 23 24  1  0
 19 25  2  0
 25 26  1  0
  6 27  1  0
 27 28  1  0
 27 29  2  0
 29 30  1  0
 29  2  1  0
 12  7  2  0
 25 13  1  0
 23 18  1  0
M  END
>  <cnnaffinity>  (1) 
-4.94773

>  <filename>  (1) 
c1cncc(-c2sncc2-c2ccc3[nH]ncc3c2)c1

$$$$
