
     RDKit          3D

 35 37  0  0  0  0  0  0  0  0999 V2000
    4.9292    1.8495   16.9392 H   0  0  0  0  0  0  0  0  0  0  0  0
    5.3927    1.3350   17.7785 C   0  0  0  0  0  0  0  0  0  0  0  0
    6.5466    0.6971   17.5235 N   0  0  0  0  0  0  0  0  0  0  0  0
    7.1338    0.0602   18.5492 C   0  0  0  0  0  0  0  0  0  0  0  0
    8.0656   -0.4486   18.2930 H   0  0  0  0  0  0  0  0  0  0  0  0
    6.6183   -0.0029   19.8705 C   0  0  0  0  0  0  0  0  0  0  0  0
    7.2631   -0.7734   20.9728 C   0  0  0  0  0  0  0  0  0  0  0  0
    6.7546   -1.6721   21.8855 C   0  0  0  0  0  0  0  0  0  0  0  0
    5.7347   -2.0209   21.9917 H   0  0  0  0  0  0  0  0  0  0  0  0
    7.7333   -2.1677   22.7126 N   0  0  0  0  0  0  0  0  0  0  0  0
    8.8316   -1.5722   22.3317 C   0  0  0  0  0  0  0  0  0  0  0  0
    9.8223   -1.6981   22.7580 H   0  0  0  0  0  0  0  0  0  0  0  0
    8.6255   -0.7219   21.2831 N   0  0  0  0  0  0  0  0  0  0  0  0
    9.7209    0.0817   20.7518 C   0  0  0  0  0  0  0  0  0  0  0  0
    9.2886    0.8984   20.1579 H   0  0  0  0  0  0  0  0  0  0  0  0
   10.3478   -0.5505   20.1190 H   0  0  0  0  0  0  0  0  0  0  0  0
   10.5425    0.5515   21.7892 O   0  0  0  0  0  0  0  0  0  0  0  0
    9.9821    1.6746   22.4907 C   0  0  0  0  0  0  0  0  0  0  0  0
    8.8867    1.5877   22.5222 H   0  0  0  0  0  0  0  0  0  0  0  0
   10.4338    2.9780   21.8453 C   0  0  0  0  0  0  0  0  0  0  0  0
    9.6580    3.7321   22.0312 H   0  0  0  0  0  0  0  0  0  0  0  0
   10.5470    2.8587   20.7635 H   0  0  0  0  0  0  0  0  0  0  0  0
   11.7546    3.4001   22.5317 C   0  0  0  0  0  0  0  0  0  0  0  0
   12.6228    3.2137   21.8918 H   0  0  0  0  0  0  0  0  0  0  0  0
   11.7355    4.4733   22.7473 H   0  0  0  0  0  0  0  0  0  0  0  0
   11.8548    2.5520   23.8210 C   0  0  0  0  0  0  0  0  0  0  0  0
   11.9887    3.1745   24.7080 H   0  0  0  0  0  0  0  0  0  0  0  0
   12.7122    1.8753   23.7663 H   0  0  0  0  0  0  0  0  0  0  0  0
   10.5374    1.7592   23.9083 C   0  0  0  0  0  0  0  0  0  0  0  0
   10.6465    0.7771   24.3734 H   0  0  0  0  0  0  0  0  0  0  0  0
    9.8160    2.3150   24.5208 H   0  0  0  0  0  0  0  0  0  0  0  0
    5.4006    0.6760   20.0933 C   0  0  0  0  0  0  0  0  0  0  0  0
    4.9617    0.6990   21.0912 H   0  0  0  0  0  0  0  0  0  0  0  0
    4.7854    1.3499   19.0349 C   0  0  0  0  0  0  0  0  0  0  0  0
    3.8510    1.8834   19.1722 H   0  0  0  0  0  0  0  0  0  0  0  0
  1  2  1  0
  2  3  2  0
  3  4  1  0
  4  5  1  0
  4  6  2  0
  6  7  1  0
  7  8  2  0
  8  9  1  0
  8 10  1  0
 10 11  2  0
 11 12  1  0
 11 13  1  0
 13 14  1  0
 14 15  1  0
 14 16  1  0
 14 17  1  0
 17 18  1  0
 18 19  1  0
 18 20  1  0
 20 21  1  0
 20 22  1  0
 20 23  1  0
 23 24  1  0
 23 25  1  0
 23 26  1  0
 26 27  1  0
 26 28  1  0
 26 29  1  0
 29 30  1  0
 29 31  1  0
  6 32  1  0
 32 33  1  0
 32 34  2  0
 34 35  1  0
 34  2  1  0
 13  7  1  0
 29 18  1  0
M  END
>  <cnnaffinity>  (1) 
-5.32718

>  <filename>  (1) 
c1cncc(-c2cncn2COC2CCCC2)c1

$$$$
