
     RDKit          3D

 34 37  0  0  0  0  0  0  0  0999 V2000
    4.9969    1.8423   16.9189 H   0  0  0  0  0  0  0  0  0  0  0  0
    5.3892    1.3072   17.7817 C   0  0  0  0  0  0  0  0  0  0  0  0
    6.5428    0.6447   17.5941 N   0  0  0  0  0  0  0  0  0  0  0  0
    7.0670    0.0249   18.6614 C   0  0  0  0  0  0  0  0  0  0  0  0
    8.0049   -0.4981   18.4790 H   0  0  0  0  0  0  0  0  0  0  0  0
    6.4843   -0.0045   19.9479 C   0  0  0  0  0  0  0  0  0  0  0  0
    7.2410   -0.6135   21.0659 C   0  0  0  0  0  0  0  0  0  0  0  0
    8.5962   -0.5484   21.3059 C   0  0  0  0  0  0  0  0  0  0  0  0
    8.8101   -1.1553   22.5328 C   0  0  0  0  0  0  0  0  0  0  0  0
    7.6986   -1.6199   23.0719 N   0  0  0  0  0  0  0  0  0  0  0  0
    6.7460   -1.2697   22.1655 N   0  0  0  0  0  0  0  0  0  0  0  0
    5.7880   -1.5238   22.3719 H   0  0  0  0  0  0  0  0  0  0  0  0
   10.2425   -1.1170   22.9614 C   0  0  0  0  0  0  0  0  0  0  0  0
   10.3705   -0.6348   23.9343 H   0  0  0  0  0  0  0  0  0  0  0  0
   10.6504   -2.1271   23.0579 H   0  0  0  0  0  0  0  0  0  0  0  0
   10.9402   -0.3076   21.8149 C   0  0  2  0  0  0  0  0  0  0  0  0
   11.7212   -0.9432   21.3947 H   0  0  0  0  0  0  0  0  0  0  0  0
   11.5732    0.9711   22.3132 C   0  0  0  0  0  0  0  0  0  0  0  0
   10.7635    1.9902   22.8396 C   0  0  0  0  0  0  0  0  0  0  0  0
    9.6870    1.8255   22.8913 H   0  0  0  0  0  0  0  0  0  0  0  0
   11.2077    3.1685   23.2950 N   0  0  0  0  0  0  0  0  0  0  0  0
   12.5269    3.3819   23.2285 C   0  0  0  0  0  0  0  0  0  0  0  0
   12.8801    4.3511   23.5822 H   0  0  0  0  0  0  0  0  0  0  0  0
   13.4292    2.4333   22.7504 C   0  0  0  0  0  0  0  0  0  0  0  0
   14.4823    2.6652   22.6998 H   0  0  0  0  0  0  0  0  0  0  0  0
   12.9535    1.2017   22.3003 C   0  0  0  0  0  0  0  0  0  0  0  0
   13.6458    0.4393   21.9386 H   0  0  0  0  0  0  0  0  0  0  0  0
    9.8640   -0.0607   20.7041 C   0  0  0  0  0  0  0  0  0  0  0  0
   10.1110   -0.6354   19.8096 H   0  0  0  0  0  0  0  0  0  0  0  0
    9.7999    0.9872   20.3916 H   0  0  0  0  0  0  0  0  0  0  0  0
    5.2569    0.6661   20.1094 C   0  0  0  0  0  0  0  0  0  0  0  0
    4.7578    0.7059   21.0823 H   0  0  0  0  0  0  0  0  0  0  0  0
    4.7169    1.3360   19.0102 C   0  0  0  0  0  0  0  0  0  0  0  0
    3.8008    1.9099   19.0930 H   0  0  0  0  0  0  0  0  0  0  0  0
  1  2  1  0
  2  3  2  0
  3  4  1  0
  4  5  1  0
  4  6  2  0
  6  7  1  0
  7  8  2  0
  8  9  1  0
  9 10  2  0
 10 11  1  0
 11 12  1  0
  9 13  1  0
 13 14  1  0
 13 15  1  0
 13 16  1  0
 16 17  1  6
 16 18  1  0
 18 19  2  0
 19 20  1  0
 19 21  1  0
 21 22  2  0
 22 23  1  0
 22 24  1  0
 24 25  1  0
 24 26  2  0
 26 27  1  0
 16 28  1  0
 28 29  1  0
 28 30  1  0
  6 31  1  0
 31 32  1  0
 31 33  2  0
 33 34  1  0
 33  2  1  0
 11  7  1  0
 26 18  1  0
 28  8  1  0
M  END
>  <cnnaffinity>  (1) 
-5.59408

>  <filename>  (1) 
c1cncc(-c2[nH]nc3c2C[C@@H](c2cccnc2)C3)c1

$$$$
