
     RDKit          3D

 31 34  0  0  0  0  0  0  0  0999 V2000
    4.9233    1.7797   16.9990 H   0  0  0  0  0  0  0  0  0  0  0  0
    5.4087    1.2912   17.8450 C   0  0  0  0  0  0  0  0  0  0  0  0
    6.5761    0.6726   17.5958 N   0  0  0  0  0  0  0  0  0  0  0  0
    7.1768    0.0400   18.6044 C   0  0  0  0  0  0  0  0  0  0  0  0
    8.1237   -0.4395   18.3787 H   0  0  0  0  0  0  0  0  0  0  0  0
    6.6548   -0.0117   19.9071 C   0  0  0  0  0  0  0  0  0  0  0  0
    7.3728   -0.6977   20.9271 N   0  0  0  0  0  0  0  0  0  0  0  0
    7.9110   -1.9132   20.6986 N   0  0  0  0  0  0  0  0  0  0  0  0
    8.4184   -2.2900   21.8622 C   0  0  0  0  0  0  0  0  0  0  0  0
    8.9216   -3.2399   21.9588 H   0  0  0  0  0  0  0  0  0  0  0  0
    8.2309   -1.3261   22.8625 C   0  0  0  0  0  0  0  0  0  0  0  0
    8.5735   -1.3105   23.8864 H   0  0  0  0  0  0  0  0  0  0  0  0
    7.5663   -0.2937   22.2249 C   0  0  0  0  0  0  0  0  0  0  0  0
    7.2304    1.0333   22.7279 C   0  0  0  0  0  0  0  0  0  0  0  0
    7.5237    2.2086   22.1110 C   0  0  0  0  0  0  0  0  0  0  0  0
    7.9830    2.3057   21.1354 H   0  0  0  0  0  0  0  0  0  0  0  0
    7.1001    3.6082   23.0286 S   0  0  0  0  0  0  0  0  0  0  0  0
    6.4981    2.6047   24.3269 C   0  0  0  0  0  0  0  0  0  0  0  0
    5.9266    3.0219   25.5410 C   0  0  0  0  0  0  0  0  0  0  0  0
    5.8251    4.0805   25.7598 H   0  0  0  0  0  0  0  0  0  0  0  0
    5.4896    2.0584   26.4475 C   0  0  0  0  0  0  0  0  0  0  0  0
    5.0428    2.3667   27.3916 H   0  0  0  0  0  0  0  0  0  0  0  0
    5.6103    0.6783   26.1596 C   0  0  0  0  0  0  0  0  0  0  0  0
    5.2573   -0.0626   26.8758 H   0  0  0  0  0  0  0  0  0  0  0  0
    6.1719    0.2606   24.9605 C   0  0  0  0  0  0  0  0  0  0  0  0
    6.2524   -0.7999   24.7149 H   0  0  0  0  0  0  0  0  0  0  0  0
    6.6354    1.2294   24.0324 C   0  0  0  0  0  0  0  0  0  0  0  0
    5.4354    0.6339   20.1670 C   0  0  0  0  0  0  0  0  0  0  0  0
    5.0043    0.6323   21.1721 H   0  0  0  0  0  0  0  0  0  0  0  0
    4.8108    1.2994   19.1089 C   0  0  0  0  0  0  0  0  0  0  0  0
    3.8803    1.8382   19.2603 H   0  0  0  0  0  0  0  0  0  0  0  0
  1  2  1  0
  2  3  2  0
  3  4  1  0
  4  5  1  0
  4  6  2  0
  6  7  1  0
  7  8  1  0
  8  9  2  0
  9 10  1  0
  9 11  1  0
 11 12  1  0
 11 13  2  0
 13 14  1  0
 14 15  2  0
 15 16  1  0
 15 17  1  0
 17 18  1  0
 18 19  2  0
 19 20  1  0
 19 21  1  0
 21 22  1  0
 21 23  2  0
 23 24  1  0
 23 25  1  0
 25 26  1  0
 25 27  2  0
  6 28  1  0
 28 29  1  0
 28 30  2  0
 30 31  1  0
 30  2  1  0
 13  7  1  0
 27 14  1  0
 27 18  1  0
M  END
>  <cnnaffinity>  (1) 
-5.43587

>  <filename>  (1) 
c1cncc(-n2nccc2-c2csc3ccccc23)c1

$$$$
