
     RDKit          3D

 34 38  0  0  0  0  0  0  0  0999 V2000
    4.9114    1.8073   16.9759 H   0  0  0  0  0  0  0  0  0  0  0  0
    5.3800    1.3036   17.8218 C   0  0  0  0  0  0  0  0  0  0  0  0
    6.5432    0.6851   17.5650 N   0  0  0  0  0  0  0  0  0  0  0  0
    7.1540    0.0746   18.5846 C   0  0  0  0  0  0  0  0  0  0  0  0
    8.1048   -0.3957   18.3400 H   0  0  0  0  0  0  0  0  0  0  0  0
    6.6614    0.0262   19.9100 C   0  0  0  0  0  0  0  0  0  0  0  0
    7.4105   -0.6752   20.9647 C   0  0  0  0  0  0  0  0  0  0  0  0
    8.3215   -1.7044   20.9067 C   0  0  0  0  0  0  0  0  0  0  0  0
    8.7176   -2.1264   20.0030 H   0  0  0  0  0  0  0  0  0  0  0  0
    8.7845   -2.1079   22.1283 N   0  0  0  0  0  0  0  0  0  0  0  0
    8.1794   -1.2904   22.9481 C   0  0  0  0  0  0  0  0  0  0  0  0
    8.2530   -0.9277   24.6282 S   0  0  0  0  0  0  0  0  0  0  0  0
    7.1261    0.4038   24.3157 C   0  0  0  0  0  0  0  0  0  0  0  0
    6.6839    1.2749   25.4133 C   0  0  0  0  0  0  0  0  0  0  0  0
    7.0534    1.0160   26.7456 C   0  0  0  0  0  0  0  0  0  0  0  0
    7.6853    0.1625   26.9854 H   0  0  0  0  0  0  0  0  0  0  0  0
    6.6206    1.8456   27.7946 C   0  0  0  0  0  0  0  0  0  0  0  0
    6.9331    1.5975   28.8081 H   0  0  0  0  0  0  0  0  0  0  0  0
    5.8141    2.9547   27.5550 C   0  0  0  0  0  0  0  0  0  0  0  0
    5.4844    3.5867   28.3738 H   0  0  0  0  0  0  0  0  0  0  0  0
    5.4461    3.2213   26.2255 C   0  0  0  0  0  0  0  0  0  0  0  0
    5.8644    2.4086   25.1417 C   0  0  0  0  0  0  0  0  0  0  0  0
    5.3054    3.0017   23.9517 C   0  0  0  0  0  0  0  0  0  0  0  0
    5.4662    2.6247   22.9507 H   0  0  0  0  0  0  0  0  0  0  0  0
    4.5931    4.0976   24.3342 C   0  0  0  0  0  0  0  0  0  0  0  0
    4.0293    4.8148   23.7472 H   0  0  0  0  0  0  0  0  0  0  0  0
    4.6767    4.2295   25.7045 N   0  0  0  0  0  0  0  0  0  0  0  0
    4.2572    4.9537   26.2646 H   0  0  0  0  0  0  0  0  0  0  0  0
    6.7498    0.5364   23.0751 N   0  0  0  0  0  0  0  0  0  0  0  0
    7.3355   -0.4177   22.3306 N   0  0  0  0  0  0  0  0  0  0  0  0
    5.4303    0.6625   20.1476 C   0  0  0  0  0  0  0  0  0  0  0  0
    5.0141    0.6409   21.1540 H   0  0  0  0  0  0  0  0  0  0  0  0
    4.7909    1.3144   19.0896 C   0  0  0  0  0  0  0  0  0  0  0  0
    3.8598    1.8466   19.2352 H   0  0  0  0  0  0  0  0  0  0  0  0
  1  2  1  0
  2  3  2  0
  3  4  1  0
  4  5  1  0
  4  6  2  0
  6  7  1  0
  7  8  2  0
  8  9  1  0
  8 10  1  0
 10 11  2  0
 11 12  1  0
 12 13  1  0
 13 14  1  0
 14 15  2  0
 15 16  1  0
 15 17  1  0
 17 18  1  0
 17 19  2  0
 19 20  1  0
 19 21  1  0
 21 22  2  0
 22 23  1  0
 23 24  1  0
 23 25  2  0
 25 26  1  0
 25 27  1  0
 27 28  1  0
 13 29  2  0
 29 30  1  0
  6 31  1  0
 31 32  1  0
 31 33  2  0
 33 34  1  0
 33  2  1  0
 30  7  1  0
 30 11  1  0
 22 14  1  0
 27 21  1  0
M  END
>  <cnnaffinity>  (1) 
-5.28198

>  <filename>  (1) 
c1cncc(-c2cnc3sc(-c4cccc5[nH]ccc45)nn23)c1

$$$$
