
     RDKit          3D

 34 37  0  0  0  0  0  0  0  0999 V2000
    4.9213    1.7732   17.0025 H   0  0  0  0  0  0  0  0  0  0  0  0
    5.4077    1.2873   17.8464 C   0  0  0  0  0  0  0  0  0  0  0  0
    6.5728    0.6701   17.5936 N   0  0  0  0  0  0  0  0  0  0  0  0
    7.1786    0.0556   18.6141 C   0  0  0  0  0  0  0  0  0  0  0  0
    8.1248   -0.4294   18.3744 H   0  0  0  0  0  0  0  0  0  0  0  0
    6.6533    0.0091   19.9165 C   0  0  0  0  0  0  0  0  0  0  0  0
    7.3498   -0.6918   21.0035 C   0  0  0  0  0  0  0  0  0  0  0  0
    6.8678   -0.7356   22.2029 N   0  0  0  0  0  0  0  0  0  0  0  0
    7.7139   -1.4484   22.9991 N   0  0  0  0  0  0  0  0  0  0  0  0
    7.7288   -1.8335   24.3337 C   0  0  0  0  0  0  0  0  0  0  0  0
    6.7574   -1.5031   25.2567 N   0  0  0  0  0  0  0  0  0  0  0  0
    5.9960   -0.9212   24.9367 H   0  0  0  0  0  0  0  0  0  0  0  0
    6.7864   -2.0235   26.6073 C   0  0  0  0  0  0  0  0  0  0  0  0
    6.0718   -1.4580   27.2144 H   0  0  0  0  0  0  0  0  0  0  0  0
    7.7747   -1.8395   27.0549 H   0  0  0  0  0  0  0  0  0  0  0  0
    6.4801   -3.4983   26.6614 C   0  0  0  0  0  0  0  0  0  0  0  0
    5.2501   -3.9773   26.1909 C   0  0  0  0  0  0  0  0  0  0  0  0
    4.4985   -3.2845   25.8203 H   0  0  0  0  0  0  0  0  0  0  0  0
    4.8942   -5.2679   26.1914 N   0  0  0  0  0  0  0  0  0  0  0  0
    5.7900   -6.1492   26.6568 C   0  0  0  0  0  0  0  0  0  0  0  0
    5.4938   -7.1940   26.6500 H   0  0  0  0  0  0  0  0  0  0  0  0
    7.0516   -5.7871   27.1331 C   0  0  0  0  0  0  0  0  0  0  0  0
    7.7424   -6.5392   27.4973 H   0  0  0  0  0  0  0  0  0  0  0  0
    7.4013   -4.4381   27.1329 C   0  0  0  0  0  0  0  0  0  0  0  0
    8.3776   -4.1195   27.4980 H   0  0  0  0  0  0  0  0  0  0  0  0
    8.9060   -2.5528   24.4394 C   0  0  0  0  0  0  0  0  0  0  0  0
    9.2777   -3.0241   25.3353 H   0  0  0  0  0  0  0  0  0  0  0  0
    9.5965   -2.6359   23.2456 N   0  0  0  0  0  0  0  0  0  0  0  0
    8.8418   -1.9587   22.4257 C   0  0  0  0  0  0  0  0  0  0  0  0
    8.8926   -1.5258   20.7488 S   0  0  0  0  0  0  0  0  0  0  0  0
    5.4302    0.6568   20.1646 C   0  0  0  0  0  0  0  0  0  0  0  0
    4.9999    0.6348   21.1676 H   0  0  0  0  0  0  0  0  0  0  0  0
    4.8038    1.3110   19.1086 C   0  0  0  0  0  0  0  0  0  0  0  0
    3.8718    1.8452   19.2601 H   0  0  0  0  0  0  0  0  0  0  0  0
  1  2  1  0
  2  3  2  0
  3  4  1  0
  4  5  1  0
  4  6  2  0
  6  7  1  0
  7  8  2  0
  8  9  1  0
  9 10  1  0
 10 11  1  0
 11 12  1  0
 11 13  1  0
 13 14  1  0
 13 15  1  0
 13 16  1  0
 16 17  2  0
 17 18  1  0
 17 19  1  0
 19 20  2  0
 20 21  1  0
 20 22  1  0
 22 23  1  0
 22 24  2  0
 24 25  1  0
 10 26  2  0
 26 27  1  0
 26 28  1  0
 28 29  2  0
 29 30  1  0
  6 31  1  0
 31 32  1  0
 31 33  2  0
 33 34  1  0
 33  2  1  0
 30  7  1  0
 29  9  1  0
 24 16  1  0
M  END
>  <cnnaffinity>  (1) 
-5.27735

>  <filename>  (1) 
c1cncc(CNc2cnc3sc(-c4cccnc4)nn23)c1

$$$$
