
     RDKit          3D

 48 52  0  0  0  0  0  0  0  0999 V2000
    4.9500    1.8259   16.9736 H   0  0  0  0  0  0  0  0  0  0  0  0
    5.4027    1.2947   17.8092 C   0  0  0  0  0  0  0  0  0  0  0  0
    6.5618    0.6654   17.5535 N   0  0  0  0  0  0  0  0  0  0  0  0
    7.1491    0.0135   18.5621 C   0  0  0  0  0  0  0  0  0  0  0  0
    8.1037   -0.4558   18.3253 H   0  0  0  0  0  0  0  0  0  0  0  0
    6.6198   -0.0398   19.8648 C   0  0  0  0  0  0  0  0  0  0  0  0
    7.3546   -0.6946   20.9509 C   0  0  0  0  0  0  0  0  0  0  0  0
    8.0819   -1.7874   20.7358 N   0  0  0  0  0  0  0  0  0  0  0  0
    8.5627   -2.0824   21.9418 N   0  0  0  0  0  0  0  0  0  0  0  0
    8.2335   -1.2484   22.9238 C   0  0  0  0  0  0  0  0  0  0  0  0
    7.4467   -0.2824   22.3226 C   0  0  0  0  0  0  0  0  0  0  0  0
    7.0827    0.9633   22.9710 C   0  0  0  0  0  0  0  0  0  0  0  0
    7.2766    2.1996   22.3334 C   0  0  0  0  0  0  0  0  0  0  0  0
    7.6718    2.2105   21.3183 H   0  0  0  0  0  0  0  0  0  0  0  0
    6.9528    3.3800   22.9897 C   0  0  0  0  0  0  0  0  0  0  0  0
    7.0795    4.3385   22.5014 H   0  0  0  0  0  0  0  0  0  0  0  0
    6.4386    3.3409   24.2984 C   0  0  0  0  0  0  0  0  0  0  0  0
    6.0080    4.4896   24.9855 N   0  0  0  0  0  0  0  0  0  0  0  0
    6.7081    4.8730   26.2127 C   0  0  0  0  0  0  0  0  0  0  0  0
    7.6503    5.4039   25.9873 H   0  0  0  0  0  0  0  0  0  0  0  0
    6.9617    3.9730   26.7881 H   0  0  0  0  0  0  0  0  0  0  0  0
    5.7928    5.7673   27.0572 C   0  0  0  0  0  0  0  0  0  0  0  0
    4.9341    5.1669   27.4057 H   0  0  0  0  0  0  0  0  0  0  0  0
    6.3287    6.1690   27.9245 H   0  0  0  0  0  0  0  0  0  0  0  0
    5.3323    6.8928   26.3167 O   0  0  0  0  0  0  0  0  0  0  0  0
    4.6215    6.4883   25.1515 C   0  0  0  0  0  0  0  0  0  0  0  0
    4.3087    7.4063   24.6427 H   0  0  0  0  0  0  0  0  0  0  0  0
    3.7298    5.9032   25.4367 H   0  0  0  0  0  0  0  0  0  0  0  0
    5.4915    5.6255   24.2286 C   0  0  0  0  0  0  0  0  0  0  0  0
    6.2997    6.2465   23.7998 H   0  0  0  0  0  0  0  0  0  0  0  0
    4.8723    5.2430   23.4050 H   0  0  0  0  0  0  0  0  0  0  0  0
    6.2908    2.1033   24.9449 C   0  0  0  0  0  0  0  0  0  0  0  0
    5.8983    2.1145   25.9543 H   0  0  0  0  0  0  0  0  0  0  0  0
    6.6074    0.9234   24.2885 C   0  0  0  0  0  0  0  0  0  0  0  0
    6.4786   -0.0441   24.7743 H   0  0  0  0  0  0  0  0  0  0  0  0
    9.0707   -1.5018   24.1568 C   0  0  0  0  0  0  0  0  0  0  0  0
    8.4650   -1.7040   25.0484 H   0  0  0  0  0  0  0  0  0  0  0  0
    9.6711   -0.6096   24.3748 H   0  0  0  0  0  0  0  0  0  0  0  0
    9.9409   -2.7218   23.7302 C   0  0  0  0  0  0  0  0  0  0  0  0
   11.0017   -2.4954   23.7840 H   0  0  0  0  0  0  0  0  0  0  0  0
    9.7605   -3.5957   24.3542 H   0  0  0  0  0  0  0  0  0  0  0  0
    9.5645   -3.0543   22.2609 C   0  0  0  0  0  0  0  0  0  0  0  0
    9.1344   -4.0521   22.1499 H   0  0  0  0  0  0  0  0  0  0  0  0
   10.4001   -2.9059   21.5740 H   0  0  0  0  0  0  0  0  0  0  0  0
    5.4076    0.6222   20.1115 C   0  0  0  0  0  0  0  0  0  0  0  0
    4.9980    0.6535   21.1219 H   0  0  0  0  0  0  0  0  0  0  0  0
    4.7869    1.2962   19.0646 C   0  0  0  0  0  0  0  0  0  0  0  0
    3.8643    1.8452   19.2201 H   0  0  0  0  0  0  0  0  0  0  0  0
  1  2  1  0
  2  3  2  0
  3  4  1  0
  4  5  1  0
  4  6  2  0
  6  7  1  0
  7  8  2  0
  8  9  1  0
  9 10  1  0
 10 11  2  0
 11 12  1  0
 12 13  2  0
 13 14  1  0
 13 15  1  0
 15 16  1  0
 15 17  2  0
 17 18  1  0
 18 19  1  0
 19 20  1  0
 19 21  1  0
 19 22  1  0
 22 23  1  0
 22 24  1  0
 22 25  1  0
 25 26  1  0
 26 27  1  0
 26 28  1  0
 26 29  1  0
 29 30  1  0
 29 31  1  0
 17 32  1  0
 32 33  1  0
 32 34  2  0
 34 35  1  0
 10 36  1  0
 36 37  1  0
 36 38  1  0
 36 39  1  0
 39 40  1  0
 39 41  1  0
 39 42  1  0
 42 43  1  0
 42 44  1  0
  6 45  1  0
 45 46  1  0
 45 47  2  0
 47 48  1  0
 47  2  1  0
 11  7  1  0
 34 12  1  0
 42  9  1  0
 29 18  1  0
M  END
>  <cnnaffinity>  (1) 
-5.56016

>  <filename>  (1) 
c1cncc(-c2nn3c(c2-c2ccc(N4CCOCC4)cc2)CCC3)c1

$$$$
