
     RDKit          3D

 33 36  0  0  0  0  0  0  0  0999 V2000
    4.9127    1.8058   16.9743 H   0  0  0  0  0  0  0  0  0  0  0  0
    5.3855    1.3064   17.8181 C   0  0  0  0  0  0  0  0  0  0  0  0
    6.5487    0.6892   17.5541 N   0  0  0  0  0  0  0  0  0  0  0  0
    7.1574    0.0674   18.5700 C   0  0  0  0  0  0  0  0  0  0  0  0
    8.1133   -0.3966   18.3289 H   0  0  0  0  0  0  0  0  0  0  0  0
    6.6531    0.0176   19.8880 C   0  0  0  0  0  0  0  0  0  0  0  0
    7.3706   -0.6543   20.9831 C   0  0  0  0  0  0  0  0  0  0  0  0
    7.5182   -0.3301   22.3278 C   0  0  0  0  0  0  0  0  0  0  0  0
    7.0363    0.8365   22.9278 N   0  0  0  0  0  0  0  0  0  0  0  0
    6.9839    1.6452   22.3204 H   0  0  0  0  0  0  0  0  0  0  0  0
    6.6832    1.0294   24.2408 C   0  0  0  0  0  0  0  0  0  0  0  0
    6.3706   -0.3327   25.2995 S   0  0  0  0  0  0  0  0  0  0  0  0
    6.0239    0.7482   26.6279 C   0  0  0  0  0  0  0  0  0  0  0  0
    5.6398    0.3930   27.9300 C   0  0  0  0  0  0  0  0  0  0  0  0
    5.5422   -0.6486   28.2250 H   0  0  0  0  0  0  0  0  0  0  0  0
    5.3803    1.4113   28.8414 C   0  0  0  0  0  0  0  0  0  0  0  0
    5.0797    1.1571   29.8547 H   0  0  0  0  0  0  0  0  0  0  0  0
    5.5008    2.7668   28.4736 C   0  0  0  0  0  0  0  0  0  0  0  0
    5.2903    3.5431   29.2040 H   0  0  0  0  0  0  0  0  0  0  0  0
    5.8848    3.1131   27.1830 C   0  0  0  0  0  0  0  0  0  0  0  0
    5.9753    4.1536   26.8916 H   0  0  0  0  0  0  0  0  0  0  0  0
    6.1506    2.1011   26.2371 C   0  0  0  0  0  0  0  0  0  0  0  0
    6.5310    2.2347   24.8581 C   0  0  0  0  0  0  0  0  0  0  0  0
    6.6933    3.1874   24.3717 H   0  0  0  0  0  0  0  0  0  0  0  0
    8.3059   -1.3773   22.8720 C   0  0  0  0  0  0  0  0  0  0  0  0
    8.6469   -1.4809   23.8934 H   0  0  0  0  0  0  0  0  0  0  0  0
    8.6129   -2.2809   21.9520 N   0  0  0  0  0  0  0  0  0  0  0  0
    8.0489   -1.8203   20.8264 N   0  0  0  0  0  0  0  0  0  0  0  0
    8.1258   -2.3618   19.9760 H   0  0  0  0  0  0  0  0  0  0  0  0
    5.4310    0.6627   20.1371 C   0  0  0  0  0  0  0  0  0  0  0  0
    5.0121    0.6277   21.1439 H   0  0  0  0  0  0  0  0  0  0  0  0
    4.7907    1.3191   19.0847 C   0  0  0  0  0  0  0  0  0  0  0  0
    3.8607    1.8508   19.2376 H   0  0  0  0  0  0  0  0  0  0  0  0
  1  2  1  0
  2  3  2  0
  3  4  1  0
  4  5  1  0
  4  6  2  0
  6  7  1  0
  7  8  2  0
  8  9  1  0
  9 10  1  0
  9 11  1  0
 11 12  1  0
 12 13  1  0
 13 14  2  0
 14 15  1  0
 14 16  1  0
 16 17  1  0
 16 18  2  0
 18 19  1  0
 18 20  1  0
 20 21  1  0
 20 22  2  0
 22 23  1  0
 23 24  1  0
  8 25  1  0
 25 26  1  0
 25 27  2  0
 27 28  1  0
 28 29  1  0
  6 30  1  0
 30 31  1  0
 30 32  2  0
 32 33  1  0
 32  2  1  0
 28  7  1  0
 23 11  2  0
 22 13  1  0
M  END
>  <cnnaffinity>  (1) 
-5.53058

>  <filename>  (1) 
c1cncc(-c2[nH]ncc2Nc2cc3ccccc3s2)c1

$$$$
