
     RDKit          3D

 32 35  0  0  0  0  0  0  0  0999 V2000
    4.9079    1.8192   16.9550 H   0  0  0  0  0  0  0  0  0  0  0  0
    5.3815    1.3144   17.7975 C   0  0  0  0  0  0  0  0  0  0  0  0
    6.5433    0.6942   17.5343 N   0  0  0  0  0  0  0  0  0  0  0  0
    7.1650    0.0811   18.5493 C   0  0  0  0  0  0  0  0  0  0  0  0
    8.1000   -0.4113   18.2866 H   0  0  0  0  0  0  0  0  0  0  0  0
    6.6802    0.0320   19.8689 C   0  0  0  0  0  0  0  0  0  0  0  0
    7.3743   -0.6877   20.9546 C   0  0  0  0  0  0  0  0  0  0  0  0
    6.8521   -1.2341   22.0974 C   0  0  0  0  0  0  0  0  0  0  0  0
    5.8165   -1.3183   22.3352 H   0  0  0  0  0  0  0  0  0  0  0  0
    7.9204   -1.7917   22.8185 C   0  0  0  0  0  0  0  0  0  0  0  0
    7.8322   -2.4831   24.1243 C   0  0  0  0  0  0  0  0  0  0  0  0
    6.7204   -2.3227   24.9677 C   0  0  0  0  0  0  0  0  0  0  0  0
    5.8980   -1.6794   24.6616 H   0  0  0  0  0  0  0  0  0  0  0  0
    6.6376   -2.9718   26.2124 C   0  0  0  0  0  0  0  0  0  0  0  0
    5.7557   -2.8121   26.8302 H   0  0  0  0  0  0  0  0  0  0  0  0
    7.6624   -3.8076   26.6507 C   0  0  0  0  0  0  0  0  0  0  0  0
    7.5950   -4.3015   27.6158 H   0  0  0  0  0  0  0  0  0  0  0  0
    8.7704   -3.9844   25.8040 C   0  0  0  0  0  0  0  0  0  0  0  0
    8.8800   -3.3483   24.5449 C   0  0  0  0  0  0  0  0  0  0  0  0
   10.1312   -3.7793   23.9612 C   0  0  0  0  0  0  0  0  0  0  0  0
   10.5055   -3.4518   22.9964 H   0  0  0  0  0  0  0  0  0  0  0  0
   10.7171   -4.6224   24.8543 C   0  0  0  0  0  0  0  0  0  0  0  0
   11.6556   -5.1596   24.8094 H   0  0  0  0  0  0  0  0  0  0  0  0
    9.9055   -4.7439   25.9650 N   0  0  0  0  0  0  0  0  0  0  0  0
   10.0874   -5.3136   26.7729 H   0  0  0  0  0  0  0  0  0  0  0  0
    9.0621   -1.6229   22.1387 N   0  0  0  0  0  0  0  0  0  0  0  0
    8.7086   -0.9660   21.0248 N   0  0  0  0  0  0  0  0  0  0  0  0
    9.4303   -0.6622   20.3873 H   0  0  0  0  0  0  0  0  0  0  0  0
    5.4513    0.6738   20.1141 C   0  0  0  0  0  0  0  0  0  0  0  0
    5.0267    0.6625   21.1171 H   0  0  0  0  0  0  0  0  0  0  0  0
    4.7969    1.3268   19.0688 C   0  0  0  0  0  0  0  0  0  0  0  0
    3.8600    1.8519   19.2228 H   0  0  0  0  0  0  0  0  0  0  0  0
  1  2  1  0
  2  3  2  0
  3  4  1  0
  4  5  1  0
  4  6  2  0
  6  7  1  0
  7  8  2  0
  8  9  1  0
  8 10  1  0
 10 11  1  0
 11 12  2  0
 12 13  1  0
 12 14  1  0
 14 15  1  0
 14 16  2  0
 16 17  1  0
 16 18  1  0
 18 19  2  0
 19 20  1  0
 20 21  1  0
 20 22  2  0
 22 23  1  0
 22 24  1  0
 24 25  1  0
 10 26  2  0
 26 27  1  0
 27 28  1  0
  6 29  1  0
 29 30  1  0
 29 31  2  0
 31 32  1  0
 31  2  1  0
 27  7  1  0
 19 11  1  0
 24 18  1  0
M  END
>  <cnnaffinity>  (1) 
-5.24277

>  <filename>  (1) 
c1cncc(-c2cc(-c3cccc4[nH]ccc34)n[nH]2)c1

$$$$
