
     RDKit          3D

 40 44  0  0  0  0  0  0  0  0999 V2000
    4.9204    1.7783   17.0000 H   0  0  0  0  0  0  0  0  0  0  0  0
    5.4047    1.2915   17.8415 C   0  0  0  0  0  0  0  0  0  0  0  0
    6.5684    0.6739   17.5805 N   0  0  0  0  0  0  0  0  0  0  0  0
    7.1651    0.0441   18.5952 C   0  0  0  0  0  0  0  0  0  0  0  0
    8.1163   -0.4356   18.3734 H   0  0  0  0  0  0  0  0  0  0  0  0
    6.6473    0.0083   19.8960 C   0  0  0  0  0  0  0  0  0  0  0  0
    7.3934   -0.6733   20.9455 C   0  0  0  0  0  0  0  0  0  0  0  0
    7.7214   -2.0024   20.8505 N   0  0  0  0  0  0  0  0  0  0  0  0
    8.3447   -2.2491   21.9713 C   0  0  0  0  0  0  0  0  0  0  0  0
    9.1362   -3.6161   22.7163 S   0  0  0  0  0  0  0  0  0  0  0  0
    9.6361   -2.6040   24.0576 C   0  0  0  0  0  0  0  0  0  0  0  0
   10.2247   -3.0384   24.8510 H   0  0  0  0  0  0  0  0  0  0  0  0
    9.2022   -1.3363   23.9461 C   0  0  0  0  0  0  0  0  0  0  0  0
    9.3595   -0.5066   24.6301 H   0  0  0  0  0  0  0  0  0  0  0  0
    8.4752   -1.1467   22.7775 N   0  0  0  0  0  0  0  0  0  0  0  0
    7.8892   -0.0983   22.1030 C   0  0  0  0  0  0  0  0  0  0  0  0
    7.8487    1.3115   22.5828 C   0  0  0  0  0  0  0  0  0  0  0  0
    7.9677    1.9665   21.7115 H   0  0  0  0  0  0  0  0  0  0  0  0
    8.6970    1.5021   23.2520 H   0  0  0  0  0  0  0  0  0  0  0  0
    6.5572    1.6751   23.3036 C   0  0  0  0  0  0  0  0  0  0  0  0
    6.1734    0.9445   24.4680 C   0  0  0  0  0  0  0  0  0  0  0  0
    6.8148    0.1422   24.8314 H   0  0  0  0  0  0  0  0  0  0  0  0
    5.0098    1.2419   25.1322 C   0  0  0  0  0  0  0  0  0  0  0  0
    4.7217    0.6897   26.0247 H   0  0  0  0  0  0  0  0  0  0  0  0
    4.1538    2.2840   24.6659 C   0  0  0  0  0  0  0  0  0  0  0  0
    2.9351    2.6199   25.3285 C   0  0  0  0  0  0  0  0  0  0  0  0
    2.6621    2.0553   26.2193 H   0  0  0  0  0  0  0  0  0  0  0  0
    2.1376    3.6334   24.8492 C   0  0  0  0  0  0  0  0  0  0  0  0
    1.2115    3.8866   25.3596 H   0  0  0  0  0  0  0  0  0  0  0  0
    2.5141    4.3640   23.6825 C   0  0  0  0  0  0  0  0  0  0  0  0
    1.8725    5.1627   23.3183 H   0  0  0  0  0  0  0  0  0  0  0  0
    3.6818    4.0658   23.0197 C   0  0  0  0  0  0  0  0  0  0  0  0
    3.9889    4.6131   22.1270 H   0  0  0  0  0  0  0  0  0  0  0  0
    4.5308    3.0239   23.4970 C   0  0  0  0  0  0  0  0  0  0  0  0
    5.7540    2.6945   22.8484 C   0  0  0  0  0  0  0  0  0  0  0  0
    6.0220    3.2377   21.9421 H   0  0  0  0  0  0  0  0  0  0  0  0
    5.4339    0.6589   20.1537 C   0  0  0  0  0  0  0  0  0  0  0  0
    4.9997    0.6294   21.1557 H   0  0  0  0  0  0  0  0  0  0  0  0
    4.8005    1.3144   19.1031 C   0  0  0  0  0  0  0  0  0  0  0  0
    3.8687    1.8468   19.2585 H   0  0  0  0  0  0  0  0  0  0  0  0
  1  2  1  0
  2  3  2  0
  3  4  1  0
  4  5  1  0
  4  6  2  0
  6  7  1  0
  7  8  1  0
  8  9  2  0
  9 10  1  0
 10 11  1  0
 11 12  1  0
 11 13  2  0
 13 14  1  0
 13 15  1  0
 15 16  1  0
 16 17  1  0
 17 18  1  0
 17 19  1  0
 17 20  1  0
 20 21  2  0
 21 22  1  0
 21 23  1  0
 23 24  1  0
 23 25  2  0
 25 26  1  0
 26 27  1  0
 26 28  2  0
 28 29  1  0
 28 30  1  0
 30 31  1  0
 30 32  2  0
 32 33  1  0
 32 34  1  0
 34 35  2  0
 35 36  1  0
  6 37  1  0
 37 38  1  0
 37 39  2  0
 39 40  1  0
 39  2  1  0
 16  7  2  0
 35 20  1  0
 15  9  1  0
 34 25  1  0
M  END
>  <cnnaffinity>  (1) 
-5.79358

>  <filename>  (1) 
c1cncc(-c2nc3sccn3c2Cc2ccc3ccccc3c2)c1

$$$$
