
     RDKit          3D

 32 35  0  0  0  0  0  0  0  0999 V2000
    4.9473    1.7886   16.9934 H   0  0  0  0  0  0  0  0  0  0  0  0
    5.4097    1.2833   17.8335 C   0  0  0  0  0  0  0  0  0  0  0  0
    6.5722    0.6629   17.5732 N   0  0  0  0  0  0  0  0  0  0  0  0
    7.1925    0.0527   18.5842 C   0  0  0  0  0  0  0  0  0  0  0  0
    8.1422   -0.4316   18.3699 H   0  0  0  0  0  0  0  0  0  0  0  0
    6.6784    0.0199   19.8873 C   0  0  0  0  0  0  0  0  0  0  0  0
    7.3995   -0.6658   20.8894 N   0  0  0  0  0  0  0  0  0  0  0  0
    8.7200   -0.9305   20.7919 N   0  0  0  0  0  0  0  0  0  0  0  0
    9.0240   -1.5813   21.9007 C   0  0  0  0  0  0  0  0  0  0  0  0
   10.0551   -1.8864   22.0409 H   0  0  0  0  0  0  0  0  0  0  0  0
    7.8868   -1.7705   22.7433 C   0  0  0  0  0  0  0  0  0  0  0  0
    7.7349   -2.4153   24.0347 C   0  0  0  0  0  0  0  0  0  0  0  0
    6.6061   -2.5642   24.8042 C   0  0  0  0  0  0  0  0  0  0  0  0
    5.6163   -2.1986   24.5557 H   0  0  0  0  0  0  0  0  0  0  0  0
    6.9691   -3.2852   25.9823 C   0  0  0  0  0  0  0  0  0  0  0  0
    6.2553   -3.7504   27.1101 C   0  0  0  0  0  0  0  0  0  0  0  0
    5.1936   -3.5274   27.1985 H   0  0  0  0  0  0  0  0  0  0  0  0
    6.9309   -4.4939   28.0674 C   0  0  0  0  0  0  0  0  0  0  0  0
    6.4012   -4.8275   28.9530 H   0  0  0  0  0  0  0  0  0  0  0  0
    8.3102   -4.7869   27.9233 C   0  0  0  0  0  0  0  0  0  0  0  0
    8.8062   -5.4338   28.6404 H   0  0  0  0  0  0  0  0  0  0  0  0
    9.0451   -4.2871   26.8573 C   0  0  0  0  0  0  0  0  0  0  0  0
   10.1118   -4.4732   26.7951 H   0  0  0  0  0  0  0  0  0  0  0  0
    8.3629   -3.5494   25.8789 C   0  0  0  0  0  0  0  0  0  0  0  0
    8.7980   -3.0052   24.6917 N   0  0  0  0  0  0  0  0  0  0  0  0
    9.7378   -3.0420   24.3359 H   0  0  0  0  0  0  0  0  0  0  0  0
    6.8796   -1.1650   22.0257 C   0  0  0  0  0  0  0  0  0  0  0  0
    5.8264   -1.0639   22.2168 H   0  0  0  0  0  0  0  0  0  0  0  0
    5.4552    0.6579   20.1556 C   0  0  0  0  0  0  0  0  0  0  0  0
    5.0160    0.6726   21.1548 H   0  0  0  0  0  0  0  0  0  0  0  0
    4.8174    1.3051   19.0994 C   0  0  0  0  0  0  0  0  0  0  0  0
    3.8822    1.8323   19.2515 H   0  0  0  0  0  0  0  0  0  0  0  0
  1  2  1  0
  2  3  2  0
  3  4  1  0
  4  5  1  0
  4  6  2  0
  6  7  1  0
  7  8  1  0
  8  9  2  0
  9 10  1  0
  9 11  1  0
 11 12  1  0
 12 13  2  0
 13 14  1  0
 13 15  1  0
 15 16  2  0
 16 17  1  0
 16 18  1  0
 18 19  1  0
 18 20  2  0
 20 21  1  0
 20 22  1  0
 22 23  1  0
 22 24  2  0
 24 25  1  0
 25 26  1  0
 11 27  2  0
 27 28  1  0
  6 29  1  0
 29 30  1  0
 29 31  2  0
 31 32  1  0
 31  2  1  0
 27  7  1  0
 25 12  1  0
 24 15  1  0
M  END
>  <cnnaffinity>  (1) 
-5.23843

>  <filename>  (1) 
c1cncc(-n2cc(-c3cc4ccccc4[nH]3)cn2)c1

$$$$
