
     RDKit          3D

 37 40  0  0  0  0  0  0  0  0999 V2000
    4.9182    1.7878   16.9853 H   0  0  0  0  0  0  0  0  0  0  0  0
    5.3983    1.2975   17.8273 C   0  0  0  0  0  0  0  0  0  0  0  0
    6.5595    0.6772   17.5639 N   0  0  0  0  0  0  0  0  0  0  0  0
    7.1669    0.0737   18.5928 C   0  0  0  0  0  0  0  0  0  0  0  0
    8.1083   -0.4252   18.3703 H   0  0  0  0  0  0  0  0  0  0  0  0
    6.6508    0.0149   19.8997 C   0  0  0  0  0  0  0  0  0  0  0  0
    7.3691   -0.7115   20.9707 C   0  0  0  0  0  0  0  0  0  0  0  0
    6.6749   -1.5512   21.8542 C   0  0  0  0  0  0  0  0  0  0  0  0
    5.6058   -1.6782   21.7122 H   0  0  0  0  0  0  0  0  0  0  0  0
    7.3489   -2.2297   22.8729 C   0  0  0  0  0  0  0  0  0  0  0  0
    6.7951   -2.8769   23.5500 H   0  0  0  0  0  0  0  0  0  0  0  0
    8.7304   -2.0716   23.0135 C   0  0  0  0  0  0  0  0  0  0  0  0
    9.2667   -2.5814   23.8101 H   0  0  0  0  0  0  0  0  0  0  0  0
    9.4425   -1.2183   22.1516 C   0  0  0  0  0  0  0  0  0  0  0  0
   10.9111   -1.0453   22.3043 C   0  0  0  0  0  0  0  0  0  0  0  0
   11.7166   -2.1481   22.1311 C   0  0  0  0  0  0  0  0  0  0  0  0
   11.2119   -3.0989   22.0332 H   0  0  0  0  0  0  0  0  0  0  0  0
   13.1294   -2.0565   22.1337 C   0  0  0  0  0  0  0  0  0  0  0  0
   13.7359   -2.9552   22.0336 H   0  0  0  0  0  0  0  0  0  0  0  0
   13.7315   -0.8589   22.4325 C   0  0  0  0  0  0  0  0  0  0  0  0
   14.8119   -0.7945   22.5424 H   0  0  0  0  0  0  0  0  0  0  0  0
   12.9412    0.3045   22.6741 C   0  0  0  0  0  0  0  0  0  0  0  0
   13.5512    1.5575   22.9684 C   0  0  0  0  0  0  0  0  0  0  0  0
   14.6377    1.5921   22.9979 H   0  0  0  0  0  0  0  0  0  0  0  0
   12.7901    2.6823   23.1801 C   0  0  0  0  0  0  0  0  0  0  0  0
   13.2697    3.6361   23.3895 H   0  0  0  0  0  0  0  0  0  0  0  0
   11.3703    2.6082   23.1234 C   0  0  0  0  0  0  0  0  0  0  0  0
   10.7727    3.5012   23.2944 H   0  0  0  0  0  0  0  0  0  0  0  0
   10.7455    1.4138   22.8525 C   0  0  0  0  0  0  0  0  0  0  0  0
    9.6579    1.3453   22.8207 H   0  0  0  0  0  0  0  0  0  0  0  0
   11.5101    0.2268   22.6039 C   0  0  0  0  0  0  0  0  0  0  0  0
    8.7519   -0.5635   21.1233 C   0  0  0  0  0  0  0  0  0  0  0  0
    9.2991    0.1121   20.4693 H   0  0  0  0  0  0  0  0  0  0  0  0
    5.4273    0.6543   20.1472 C   0  0  0  0  0  0  0  0  0  0  0  0
    5.0084    0.6408   21.1573 H   0  0  0  0  0  0  0  0  0  0  0  0
    4.8009    1.3193   19.0943 C   0  0  0  0  0  0  0  0  0  0  0  0
    3.8686    1.8480   19.2496 H   0  0  0  0  0  0  0  0  0  0  0  0
  1  2  1  0
  2  3  2  0
  3  4  1  0
  4  5  1  0
  4  6  2  0
  6  7  1  0
  7  8  2  0
  8  9  1  0
  8 10  1  0
 10 11  1  0
 10 12  2  0
 12 13  1  0
 12 14  1  0
 14 15  1  0
 15 16  2  0
 16 17  1  0
 16 18  1  0
 18 19  1  0
 18 20  2  0
 20 21  1  0
 20 22  1  0
 22 23  2  0
 23 24  1  0
 23 25  1  0
 25 26  1  0
 25 27  2  0
 27 28  1  0
 27 29  1  0
 29 30  1  0
 29 31  2  0
 14 32  2  0
 32 33  1  0
  6 34  1  0
 34 35  1  0
 34 36  2  0
 36 37  1  0
 36  2  1  0
 32  7  1  0
 31 15  1  0
 31 22  1  0
M  END
>  <cnnaffinity>  (1) 
-5.75938

>  <filename>  (1) 
c1cncc(-c2cccc(-c3cccc4ccccc34)c2)c1

$$$$
