
     RDKit          3D

 44 47  0  0  0  0  0  0  0  0999 V2000
    4.9413    1.8054   16.9776 H   0  0  0  0  0  0  0  0  0  0  0  0
    5.4014    1.2896   17.8185 C   0  0  0  0  0  0  0  0  0  0  0  0
    6.5614    0.6639   17.5653 N   0  0  0  0  0  0  0  0  0  0  0  0
    7.1623    0.0337   18.5800 C   0  0  0  0  0  0  0  0  0  0  0  0
    8.1129   -0.4422   18.3384 H   0  0  0  0  0  0  0  0  0  0  0  0
    6.6374   -0.0037   19.8883 C   0  0  0  0  0  0  0  0  0  0  0  0
    7.3656   -0.6501   20.9854 C   0  0  0  0  0  0  0  0  0  0  0  0
    8.2539   -1.6203   20.7491 N   0  0  0  0  0  0  0  0  0  0  0  0
    8.7233   -1.9191   21.9526 N   0  0  0  0  0  0  0  0  0  0  0  0
    8.2221   -1.2100   22.9691 C   0  0  0  0  0  0  0  0  0  0  0  0
    7.3183   -0.3411   22.3883 C   0  0  0  0  0  0  0  0  0  0  0  0
    6.5953    0.6601   22.9480 O   0  0  0  0  0  0  0  0  0  0  0  0
    6.7127    0.8163   24.3618 C   0  0  0  0  0  0  0  0  0  0  0  0
    7.7591    1.0310   24.6290 H   0  0  0  0  0  0  0  0  0  0  0  0
    6.4078   -0.1098   24.8677 H   0  0  0  0  0  0  0  0  0  0  0  0
    5.7990    1.9715   24.7291 C   0  0  0  0  0  0  0  0  0  0  0  0
    4.7955    1.7285   24.3558 H   0  0  0  0  0  0  0  0  0  0  0  0
    6.1457    2.8675   24.1710 H   0  0  0  0  0  0  0  0  0  0  0  0
    5.7261    2.2074   26.1674 N   0  0  0  0  0  0  0  0  0  0  0  0
    6.9627    2.7286   26.7562 C   0  0  0  0  0  0  0  0  0  0  0  0
    7.4844    3.4048   26.0523 H   0  0  0  0  0  0  0  0  0  0  0  0
    7.6659    1.9113   26.9773 H   0  0  0  0  0  0  0  0  0  0  0  0
    6.5328    3.4929   28.0256 C   0  0  0  0  0  0  0  0  0  0  0  0
    6.8176    2.9501   28.9335 H   0  0  0  0  0  0  0  0  0  0  0  0
    7.0414    4.4621   28.0682 H   0  0  0  0  0  0  0  0  0  0  0  0
    4.9947    3.6373   27.9259 C   0  0  0  0  0  0  0  0  0  0  0  0
    4.6570    4.6730   28.0406 H   0  0  0  0  0  0  0  0  0  0  0  0
    4.4945    3.0541   28.7060 H   0  0  0  0  0  0  0  0  0  0  0  0
    4.6333    3.1028   26.5344 C   0  0  0  0  0  0  0  0  0  0  0  0
    4.5282    3.9370   25.8140 H   0  0  0  0  0  0  0  0  0  0  0  0
    3.6799    2.5546   26.5183 H   0  0  0  0  0  0  0  0  0  0  0  0
    8.9360   -1.5437   24.2492 C   0  0  0  0  0  0  0  0  0  0  0  0
    9.4732   -0.6545   24.6072 H   0  0  0  0  0  0  0  0  0  0  0  0
    8.2522   -1.8562   25.0492 H   0  0  0  0  0  0  0  0  0  0  0  0
    9.9125   -2.6797   23.8224 C   0  0  0  0  0  0  0  0  0  0  0  0
    9.7068   -3.6159   24.3386 H   0  0  0  0  0  0  0  0  0  0  0  0
   10.9412   -2.4127   24.0396 H   0  0  0  0  0  0  0  0  0  0  0  0
    9.7086   -2.9030   22.3003 C   0  0  0  0  0  0  0  0  0  0  0  0
   10.6078   -2.7410   21.7017 H   0  0  0  0  0  0  0  0  0  0  0  0
    9.2978   -3.8947   22.0993 H   0  0  0  0  0  0  0  0  0  0  0  0
    5.4211    0.6519   20.1304 C   0  0  0  0  0  0  0  0  0  0  0  0
    5.0093    0.6605   21.1383 H   0  0  0  0  0  0  0  0  0  0  0  0
    4.7915    1.3055   19.0767 C   0  0  0  0  0  0  0  0  0  0  0  0
    3.8628    1.8463   19.2259 H   0  0  0  0  0  0  0  0  0  0  0  0
  1  2  1  0
  2  3  2  0
  3  4  1  0
  4  5  1  0
  4  6  2  0
  6  7  1  0
  7  8  2  0
  8  9  1  0
  9 10  1  0
 10 11  2  0
 11 12  1  0
 12 13  1  0
 13 14  1  0
 13 15  1  0
 13 16  1  0
 16 17  1  0
 16 18  1  0
 16 19  1  0
 19 20  1  0
 20 21  1  0
 20 22  1  0
 20 23  1  0
 23 24  1  0
 23 25  1  0
 23 26  1  0
 26 27  1  0
 26 28  1  0
 26 29  1  0
 29 30  1  0
 29 31  1  0
 10 32  1  0
 32 33  1  0
 32 34  1  0
 32 35  1  0
 35 36  1  0
 35 37  1  0
 35 38  1  0
 38 39  1  0
 38 40  1  0
  6 41  1  0
 41 42  1  0
 41 43  2  0
 43 44  1  0
 43  2  1  0
 11  7  1  0
 29 19  1  0
 38  9  1  0
M  END
>  <cnnaffinity>  (1) 
-5.7093

>  <filename>  (1) 
c1cncc(-c2nn3c(c2OCCN2CCCC2)CCC3)c1

$$$$
