
     RDKit          3D

 38 41  0  0  0  0  0  0  0  0999 V2000
    4.9285    1.8058   16.9753 H   0  0  0  0  0  0  0  0  0  0  0  0
    5.4005    1.2970   17.8146 C   0  0  0  0  0  0  0  0  0  0  0  0
    6.5604    0.6763   17.5569 N   0  0  0  0  0  0  0  0  0  0  0  0
    7.1717    0.0479   18.5689 C   0  0  0  0  0  0  0  0  0  0  0  0
    8.1203   -0.4259   18.3269 H   0  0  0  0  0  0  0  0  0  0  0  0
    6.6547   -0.0091   19.8790 C   0  0  0  0  0  0  0  0  0  0  0  0
    7.3675   -0.7025   20.9679 C   0  0  0  0  0  0  0  0  0  0  0  0
    8.4504   -1.4644   20.7460 N   0  0  0  0  0  0  0  0  0  0  0  0
    8.7979   -1.8595   21.9923 N   0  0  0  0  0  0  0  0  0  0  0  0
    9.8609   -2.5634   22.5298 C   0  0  0  0  0  0  0  0  0  0  0  0
   10.6216   -2.9380   21.8672 H   0  0  0  0  0  0  0  0  0  0  0  0
    9.6911   -2.5470   23.8772 C   0  0  0  0  0  0  0  0  0  0  0  0
   10.2948   -2.9269   24.6862 H   0  0  0  0  0  0  0  0  0  0  0  0
    8.5215   -1.8559   24.1485 N   0  0  0  0  0  0  0  0  0  0  0  0
    8.1849   -1.5148   25.4367 O   0  0  0  0  0  0  0  0  0  0  0  0
    6.9029   -0.8327   25.6056 C   0  0  0  0  0  0  0  0  0  0  0  0
    6.8884    0.0324   24.9261 H   0  0  0  0  0  0  0  0  0  0  0  0
    5.7116   -1.7583   25.3171 C   0  0  0  0  0  0  0  0  0  0  0  0
    5.8624   -2.6836   25.8896 H   0  0  0  0  0  0  0  0  0  0  0  0
    5.6889   -2.0362   24.2570 H   0  0  0  0  0  0  0  0  0  0  0  0
    4.3907   -1.0989   25.7700 C   0  0  0  0  0  0  0  0  0  0  0  0
    3.5381   -1.7772   25.6456 H   0  0  0  0  0  0  0  0  0  0  0  0
    4.1527   -0.2043   25.1699 H   0  0  0  0  0  0  0  0  0  0  0  0
    4.4213   -0.6766   27.1722 N   0  0  0  0  0  0  0  0  0  0  0  0
    4.5408   -1.5068   27.7525 H   0  0  0  0  0  0  0  0  0  0  0  0
    5.5378    0.2275   27.4505 C   0  0  0  0  0  0  0  0  0  0  0  0
    5.3548    1.1675   26.9025 H   0  0  0  0  0  0  0  0  0  0  0  0
    5.5099    0.4837   28.5167 H   0  0  0  0  0  0  0  0  0  0  0  0
    6.8990   -0.3764   27.0605 C   0  0  0  0  0  0  0  0  0  0  0  0
    7.0925   -1.2593   27.6887 H   0  0  0  0  0  0  0  0  0  0  0  0
    7.7116    0.3382   27.2379 H   0  0  0  0  0  0  0  0  0  0  0  0
    8.0004   -1.3895   22.9693 C   0  0  0  0  0  0  0  0  0  0  0  0
    7.0302   -0.6127   22.3409 C   0  0  0  0  0  0  0  0  0  0  0  0
    6.2427   -0.0407   22.7863 H   0  0  0  0  0  0  0  0  0  0  0  0
    5.4387    0.6489   20.1262 C   0  0  0  0  0  0  0  0  0  0  0  0
    4.9944    0.6502   21.1230 H   0  0  0  0  0  0  0  0  0  0  0  0
    4.8037    1.3112   19.0797 C   0  0  0  0  0  0  0  0  0  0  0  0
    3.8732    1.8434   19.2375 H   0  0  0  0  0  0  0  0  0  0  0  0
  1  2  1  0
  2  3  2  0
  3  4  1  0
  4  5  1  0
  4  6  2  0
  6  7  1  0
  7  8  2  0
  8  9  1  0
  9 10  1  0
 10 11  1  0
 10 12  2  0
 12 13  1  0
 12 14  1  0
 14 15  1  0
 15 16  1  0
 16 17  1  0
 16 18  1  0
 18 19  1  0
 18 20  1  0
 18 21  1  0
 21 22  1  0
 21 23  1  0
 21 24  1  0
 24 25  1  0
 24 26  1  0
 26 27  1  0
 26 28  1  0
 26 29  1  0
 29 30  1  0
 29 31  1  0
 14 32  1  0
 32 33  2  0
 33 34  1  0
  6 35  1  0
 35 36  1  0
 35 37  2  0
 37 38  1  0
 37  2  1  0
 33  7  1  0
 32  9  1  0
 29 16  1  0
M  END
>  <cnnaffinity>  (1) 
-5.20672

>  <filename>  (1) 
c1cncc(-c2cc3n(OC4CCNCC4)ccn3n2)c1

$$$$
