
     RDKit          3D

 36 39  0  0  0  0  0  0  0  0999 V2000
    4.9069    1.8323   17.0203 H   0  0  0  0  0  0  0  0  0  0  0  0
    5.3981    1.2932   17.8274 C   0  0  0  0  0  0  0  0  0  0  0  0
    6.5512    0.6771   17.5223 N   0  0  0  0  0  0  0  0  0  0  0  0
    7.1837    0.0281   18.5138 C   0  0  0  0  0  0  0  0  0  0  0  0
    8.1249   -0.4573   18.2519 H   0  0  0  0  0  0  0  0  0  0  0  0
    6.7129   -0.0583   19.8490 C   0  0  0  0  0  0  0  0  0  0  0  0
    7.4059   -0.7792   20.8746 N   0  0  0  0  0  0  0  0  0  0  0  0
    6.7214   -1.2550   21.4582 H   0  0  0  0  0  0  0  0  0  0  0  0
    8.2852   -0.0148   21.8061 C   0  0  0  0  0  0  0  0  0  0  0  0
    7.5498    1.1051   22.5586 C   0  0  0  0  0  0  0  0  0  0  0  0
    6.8103    0.8117   23.7492 C   0  0  0  0  0  0  0  0  0  0  0  0
    6.8155   -0.2001   24.1565 H   0  0  0  0  0  0  0  0  0  0  0  0
    6.1123    1.7844   24.4442 C   0  0  0  0  0  0  0  0  0  0  0  0
    5.5890    1.5468   25.3630 H   0  0  0  0  0  0  0  0  0  0  0  0
    6.1245    3.1024   23.9293 C   0  0  0  0  0  0  0  0  0  0  0  0
    6.8228    3.4216   22.7468 C   0  0  0  0  0  0  0  0  0  0  0  0
    6.5701    4.8199   22.5670 C   0  0  0  0  0  0  0  0  0  0  0  0
    6.9104    5.4644   21.7736 H   0  0  0  0  0  0  0  0  0  0  0  0
    5.8157    5.3060   23.5315 N   0  0  0  0  0  0  0  0  0  0  0  0
    5.5530    4.2649   24.3491 N   0  0  0  0  0  0  0  0  0  0  0  0
    4.9596    4.4136   25.1498 H   0  0  0  0  0  0  0  0  0  0  0  0
    7.5460    2.4095   22.0658 C   0  0  0  0  0  0  0  0  0  0  0  0
    8.1134    2.6369   21.1694 H   0  0  0  0  0  0  0  0  0  0  0  0
    9.0679   -1.0128   22.6938 C   0  0  0  0  0  0  0  0  0  0  0  0
    9.0730   -0.7504   23.7530 H   0  0  0  0  0  0  0  0  0  0  0  0
    8.7176   -2.0428   22.5823 H   0  0  0  0  0  0  0  0  0  0  0  0
   10.3876   -0.6615   21.9681 C   0  0  0  0  0  0  0  0  0  0  0  0
   10.8298   -1.4794   21.3910 H   0  0  0  0  0  0  0  0  0  0  0  0
   11.1614   -0.2435   22.6192 H   0  0  0  0  0  0  0  0  0  0  0  0
    9.6210    0.3849   21.1250 C   0  0  0  0  0  0  0  0  0  0  0  0
    9.6035    0.1840   20.0543 H   0  0  0  0  0  0  0  0  0  0  0  0
    9.9324    1.4175   21.3015 H   0  0  0  0  0  0  0  0  0  0  0  0
    5.4901    0.5823   20.1294 C   0  0  0  0  0  0  0  0  0  0  0  0
    5.1411    0.6041   21.1635 H   0  0  0  0  0  0  0  0  0  0  0  0
    4.8244    1.2666   19.1039 C   0  0  0  0  0  0  0  0  0  0  0  0
    3.8912    1.7989   19.2813 H   0  0  0  0  0  0  0  0  0  0  0  0
  1  2  1  0
  2  3  2  0
  3  4  1  0
  4  5  1  0
  4  6  2  0
  6  7  1  0
  7  8  1  0
  7  9  1  0
  9 10  1  0
 10 11  2  0
 11 12  1  0
 11 13  1  0
 13 14  1  0
 13 15  2  0
 15 16  1  0
 16 17  1  0
 17 18  1  0
 17 19  2  0
 19 20  1  0
 20 21  1  0
 16 22  2  0
 22 23  1  0
  9 24  1  0
 24 25  1  0
 24 26  1  0
 24 27  1  0
 27 28  1  0
 27 29  1  0
 27 30  1  0
 30 31  1  0
 30 32  1  0
  6 33  1  0
 33 34  1  0
 33 35  2  0
 35 36  1  0
 35  2  1  0
 30  9  1  0
 22 10  1  0
 20 15  1  0
M  END
>  <cnnaffinity>  (1) 
-5.06499

>  <filename>  (1) 
c1cncc(NC2(c3ccc4[nH]ncc4c3)CCC2)c1

$$$$
