
     RDKit          3D

 34 37  0  0  0  0  0  0  0  0999 V2000
    5.0260    1.7793   16.9582 H   0  0  0  0  0  0  0  0  0  0  0  0
    5.4659    1.2770   17.8183 C   0  0  0  0  0  0  0  0  0  0  0  0
    6.6132    0.6194   17.5916 N   0  0  0  0  0  0  0  0  0  0  0  0
    7.1844    0.0024   18.6308 C   0  0  0  0  0  0  0  0  0  0  0  0
    8.0914   -0.5562   18.4125 H   0  0  0  0  0  0  0  0  0  0  0  0
    6.6807    0.0437   19.9436 C   0  0  0  0  0  0  0  0  0  0  0  0
    7.4573   -0.6117   21.0236 C   0  0  0  0  0  0  0  0  0  0  0  0
    8.1349   -1.7076   20.6484 N   0  0  0  0  0  0  0  0  0  0  0  0
    8.7626   -2.4118   21.5919 C   0  0  0  0  0  0  0  0  0  0  0  0
    9.2576   -3.3175   21.2481 H   0  0  0  0  0  0  0  0  0  0  0  0
    8.8096   -2.0359   22.9330 C   0  0  0  0  0  0  0  0  0  0  0  0
    9.3085   -2.6824   23.6458 H   0  0  0  0  0  0  0  0  0  0  0  0
    8.1731   -0.8484   23.3353 C   0  0  0  0  0  0  0  0  0  0  0  0
    8.2103   -0.4106   24.7620 C   0  0  0  0  0  0  0  0  0  0  0  0
    9.4106   -0.4282   25.4926 C   0  0  0  0  0  0  0  0  0  0  0  0
   10.3320   -0.7157   25.0047 H   0  0  0  0  0  0  0  0  0  0  0  0
    9.4621   -0.0790   26.8561 C   0  0  0  0  0  0  0  0  0  0  0  0
   10.4139   -0.0905   27.3822 H   0  0  0  0  0  0  0  0  0  0  0  0
    8.3050    0.2657   27.5467 C   0  0  0  0  0  0  0  0  0  0  0  0
    8.3280    0.5637   28.5906 H   0  0  0  0  0  0  0  0  0  0  0  0
    7.0970    0.2510   26.8334 C   0  0  0  0  0  0  0  0  0  0  0  0
    7.0269   -0.0108   25.4441 C   0  0  0  0  0  0  0  0  0  0  0  0
    5.6436    0.1666   25.0788 C   0  0  0  0  0  0  0  0  0  0  0  0
    5.2487    0.1713   24.0755 H   0  0  0  0  0  0  0  0  0  0  0  0
    4.9422    0.4336   26.2147 C   0  0  0  0  0  0  0  0  0  0  0  0
    3.8687    0.5584   26.3374 H   0  0  0  0  0  0  0  0  0  0  0  0
    5.8165    0.4857   27.2763 N   0  0  0  0  0  0  0  0  0  0  0  0
    5.5995    0.7421   28.2245 H   0  0  0  0  0  0  0  0  0  0  0  0
    7.4909   -0.1291   22.3417 C   0  0  0  0  0  0  0  0  0  0  0  0
    6.9927    0.8026   22.5950 H   0  0  0  0  0  0  0  0  0  0  0  0
    5.4526    0.6918   20.1504 C   0  0  0  0  0  0  0  0  0  0  0  0
    4.9734    0.6924   21.1312 H   0  0  0  0  0  0  0  0  0  0  0  0
    4.8355    1.3160   19.0656 C   0  0  0  0  0  0  0  0  0  0  0  0
    3.8907    1.8388   19.1706 H   0  0  0  0  0  0  0  0  0  0  0  0
  1  2  1  0
  2  3  2  0
  3  4  1  0
  4  5  1  0
  4  6  2  0
  6  7  1  0
  7  8  2  0
  8  9  1  0
  9 10  1  0
  9 11  2  0
 11 12  1  0
 11 13  1  0
 13 14  1  0
 14 15  2  0
 15 16  1  0
 15 17  1  0
 17 18  1  0
 17 19  2  0
 19 20  1  0
 19 21  1  0
 21 22  2  0
 22 23  1  0
 23 24  1  0
 23 25  2  0
 25 26  1  0
 25 27  1  0
 27 28  1  0
 13 29  2  0
 29 30  1  0
  6 31  1  0
 31 32  1  0
 31 33  2  0
 33 34  1  0
 33  2  1  0
 29  7  1  0
 22 14  1  0
 27 21  1  0
M  END
>  <cnnaffinity>  (1) 
-5.31244

>  <filename>  (1) 
c1cncc(-c2cc(-c3cccc4[nH]ccc34)ccn2)c1

$$$$
