
     RDKit          3D

 32 35  0  0  0  0  0  0  0  0999 V2000
    5.0534    2.1424   16.2777 H   0  0  0  0  0  0  0  0  0  0  0  0
    5.2672    1.6680   17.2309 C   0  0  0  0  0  0  0  0  0  0  0  0
    6.3688    0.9041   17.2711 N   0  0  0  0  0  0  0  0  0  0  0  0
    6.6519    0.3100   18.4307 C   0  0  0  0  0  0  0  0  0  0  0  0
    7.5534   -0.2986   18.4680 H   0  0  0  0  0  0  0  0  0  0  0  0
    5.8672    0.4431   19.5818 C   0  0  0  0  0  0  0  0  0  0  0  0
    6.3342   -0.2650   20.7649 C   0  0  0  0  0  0  0  0  0  0  0  0
    7.3446   -1.1685   20.6605 N   0  0  0  0  0  0  0  0  0  0  0  0
    7.5528   -1.5528   21.9037 C   0  0  0  0  0  0  0  0  0  0  0  0
    8.7286   -2.2854   22.3309 C   0  0  0  0  0  0  0  0  0  0  0  0
    9.9190   -1.8463   21.7815 C   0  0  0  0  0  0  0  0  0  0  0  0
    9.9039   -1.1203   20.9649 H   0  0  0  0  0  0  0  0  0  0  0  0
   11.1351   -2.2575   22.1980 N   0  0  0  0  0  0  0  0  0  0  0  0
   11.1752   -3.1704   23.1460 C   0  0  0  0  0  0  0  0  0  0  0  0
   12.1604   -3.5168   23.4554 H   0  0  0  0  0  0  0  0  0  0  0  0
   10.0268   -3.7610   23.7506 C   0  0  0  0  0  0  0  0  0  0  0  0
   10.1453   -4.7711   24.7518 C   0  0  0  0  0  0  0  0  0  0  0  0
   11.1403   -5.0810   25.0675 H   0  0  0  0  0  0  0  0  0  0  0  0
    9.0215   -5.3255   25.3068 C   0  0  0  0  0  0  0  0  0  0  0  0
    9.1071   -6.0753   26.0902 H   0  0  0  0  0  0  0  0  0  0  0  0
    7.7337   -4.9053   24.8734 C   0  0  0  0  0  0  0  0  0  0  0  0
    6.8633   -5.3437   25.3458 H   0  0  0  0  0  0  0  0  0  0  0  0
    7.5876   -3.9377   23.8966 C   0  0  0  0  0  0  0  0  0  0  0  0
    6.5922   -3.6383   23.5731 H   0  0  0  0  0  0  0  0  0  0  0  0
    8.7396   -3.3217   23.3163 C   0  0  0  0  0  0  0  0  0  0  0  0
    6.6844   -0.9138   22.7092 N   0  0  0  0  0  0  0  0  0  0  0  0
    6.6073   -0.9891   23.7123 H   0  0  0  0  0  0  0  0  0  0  0  0
    5.9059   -0.0611   21.9930 N   0  0  0  0  0  0  0  0  0  0  0  0
    4.7196    1.2498   19.5371 C   0  0  0  0  0  0  0  0  0  0  0  0
    4.1089    1.4021   20.4262 H   0  0  0  0  0  0  0  0  0  0  0  0
    4.4141    1.8607   18.3238 C   0  0  0  0  0  0  0  0  0  0  0  0
    3.5390    2.4900   18.2125 H   0  0  0  0  0  0  0  0  0  0  0  0
  1  2  1  0
  2  3  2  0
  3  4  1  0
  4  5  1  0
  4  6  2  0
  6  7  1  0
  7  8  1  0
  8  9  2  0
  9 10  1  0
 10 11  2  0
 11 12  1  0
 11 13  1  0
 13 14  2  0
 14 15  1  0
 14 16  1  0
 16 17  2  0
 17 18  1  0
 17 19  1  0
 19 20  1  0
 19 21  2  0
 21 22  1  0
 21 23  1  0
 23 24  1  0
 23 25  2  0
  9 26  1  0
 26 27  1  0
 26 28  1  0
  6 29  1  0
 29 30  1  0
 29 31  2  0
 31 32  1  0
 31  2  1  0
 28  7  2  0
 25 10  1  0
 25 16  1  0
M  END
>  <cnnaffinity>  (1) 
-5.5495

>  <filename>  (1) 
c1cncc(-c2n[nH]c(-c3cncc4ccccc34)n2)c1

$$$$
