
     RDKit          3D

 48 52  0  0  0  0  0  0  0  0999 V2000
    4.9037    1.8789   16.9493 H   0  0  0  0  0  0  0  0  0  0  0  0
    5.3639    1.3221   17.7594 C   0  0  0  0  0  0  0  0  0  0  0  0
    6.5142    0.6912   17.4685 N   0  0  0  0  0  0  0  0  0  0  0  0
    7.1275    0.0339   18.4612 C   0  0  0  0  0  0  0  0  0  0  0  0
    8.0831   -0.4174   18.1920 H   0  0  0  0  0  0  0  0  0  0  0  0
    6.6324   -0.0500   19.7841 C   0  0  0  0  0  0  0  0  0  0  0  0
    7.3889   -0.6795   20.8966 C   0  0  0  0  0  0  0  0  0  0  0  0
    7.5850   -0.2253   22.1853 C   0  0  0  0  0  0  0  0  0  0  0  0
    8.5169   -1.0777   22.7645 C   0  0  0  0  0  0  0  0  0  0  0  0
    8.8870   -2.0529   21.9563 N   0  0  0  0  0  0  0  0  0  0  0  0
    8.1980   -1.7831   20.8172 N   0  0  0  0  0  0  0  0  0  0  0  0
    8.3710   -2.3636   20.0110 H   0  0  0  0  0  0  0  0  0  0  0  0
    8.9345   -0.6388   24.1358 C   0  0  0  0  0  0  0  0  0  0  0  0
   10.0051   -0.4246   24.2022 H   0  0  0  0  0  0  0  0  0  0  0  0
    8.7380   -1.4225   24.8719 H   0  0  0  0  0  0  0  0  0  0  0  0
    8.0969    0.6674   24.3729 C   0  0  2  0  0  0  0  0  0  0  0  0
    8.8004    1.5031   24.4717 H   0  0  0  0  0  0  0  0  0  0  0  0
    7.2572    0.5963   25.6326 C   0  0  0  0  0  0  0  0  0  0  0  0
    7.4207    1.5143   26.6806 C   0  0  0  0  0  0  0  0  0  0  0  0
    8.1741    2.2940   26.5951 H   0  0  0  0  0  0  0  0  0  0  0  0
    6.6181    1.4612   27.8225 C   0  0  0  0  0  0  0  0  0  0  0  0
    6.7478    2.1752   28.6292 H   0  0  0  0  0  0  0  0  0  0  0  0
    5.6303    0.4697   27.9417 C   0  0  0  0  0  0  0  0  0  0  0  0
    4.7388    0.3945   29.0304 N   0  0  0  0  0  0  0  0  0  0  0  0
    4.8335   -0.7798   29.9094 C   0  0  0  0  0  0  0  0  0  0  0  0
    5.6753   -0.6841   30.6204 H   0  0  0  0  0  0  0  0  0  0  0  0
    5.0028   -1.6879   29.3176 H   0  0  0  0  0  0  0  0  0  0  0  0
    3.5159   -0.9335   30.6748 C   0  0  0  0  0  0  0  0  0  0  0  0
    2.7104   -1.1927   29.9685 H   0  0  0  0  0  0  0  0  0  0  0  0
    3.5818   -1.7393   31.4102 H   0  0  0  0  0  0  0  0  0  0  0  0
    3.1828    0.2490   31.3948 O   0  0  0  0  0  0  0  0  0  0  0  0
    3.1021    1.3826   30.5395 C   0  0  0  0  0  0  0  0  0  0  0  0
    2.8667    2.2402   31.1739 H   0  0  0  0  0  0  0  0  0  0  0  0
    2.2783    1.2634   29.8173 H   0  0  0  0  0  0  0  0  0  0  0  0
    4.4110    1.6093   29.7771 C   0  0  0  0  0  0  0  0  0  0  0  0
    4.2677    2.4444   29.0788 H   0  0  0  0  0  0  0  0  0  0  0  0
    5.2067    1.8852   30.4959 H   0  0  0  0  0  0  0  0  0  0  0  0
    5.4798   -0.4724   26.9113 C   0  0  0  0  0  0  0  0  0  0  0  0
    4.7132   -1.2304   27.0420 H   0  0  0  0  0  0  0  0  0  0  0  0
    6.2670   -0.3942   25.7651 C   0  0  0  0  0  0  0  0  0  0  0  0
    6.1010   -1.1099   24.9627 H   0  0  0  0  0  0  0  0  0  0  0  0
    7.2369    0.9198   23.0813 C   0  0  0  0  0  0  0  0  0  0  0  0
    7.4868    1.8919   22.6334 H   0  0  0  0  0  0  0  0  0  0  0  0
    6.1626    0.9326   23.3055 H   0  0  0  0  0  0  0  0  0  0  0  0
    5.4226    0.6175   20.0523 C   0  0  0  0  0  0  0  0  0  0  0  0
    5.0040    0.6106   21.0597 H   0  0  0  0  0  0  0  0  0  0  0  0
    4.7755    1.3073   19.0282 C   0  0  0  0  0  0  0  0  0  0  0  0
    3.8606    1.8643   19.2036 H   0  0  0  0  0  0  0  0  0  0  0  0
  1  2  1  0
  2  3  2  0
  3  4  1  0
  4  5  1  0
  4  6  2  0
  6  7  1  0
  7  8  2  0
  8  9  1  0
  9 10  2  0
 10 11  1  0
 11 12  1  0
  9 13  1  0
 13 14  1  0
 13 15  1  0
 13 16  1  0
 16 17  1  1
 16 18  1  0
 18 19  2  0
 19 20  1  0
 19 21  1  0
 21 22  1  0
 21 23  2  0
 23 24  1  0
 24 25  1  0
 25 26  1  0
 25 27  1  0
 25 28  1  0
 28 29  1  0
 28 30  1  0
 28 31  1  0
 31 32  1  0
 32 33  1  0
 32 34  1  0
 32 35  1  0
 35 36  1  0
 35 37  1  0
 23 38  1  0
 38 39  1  0
 38 40  2  0
 40 41  1  0
 16 42  1  0
 42 43  1  0
 42 44  1  0
  6 45  1  0
 45 46  1  0
 45 47  2  0
 47 48  1  0
 47  2  1  0
 11  7  1  0
 40 18  1  0
 42  8  1  0
 35 24  1  0
M  END
>  <cnnaffinity>  (1) 
-5.48867

>  <filename>  (1) 
c1cncc(-c2[nH]nc3c2C[C@@H](c2ccc(N4CCOCC4)cc2)C3)c1

$$$$
