
     RDKit          3D

 32 35  0  0  0  0  0  0  0  0999 V2000
    4.9201    1.7928   16.9892 H   0  0  0  0  0  0  0  0  0  0  0  0
    5.3985    1.2983   17.8315 C   0  0  0  0  0  0  0  0  0  0  0  0
    6.5620    0.6821   17.5627 N   0  0  0  0  0  0  0  0  0  0  0  0
    7.1657    0.0626   18.5791 C   0  0  0  0  0  0  0  0  0  0  0  0
    8.1156   -0.4103   18.3518 H   0  0  0  0  0  0  0  0  0  0  0  0
    6.6636   -0.0012   19.9001 C   0  0  0  0  0  0  0  0  0  0  0  0
    7.3693   -0.7212   20.9841 C   0  0  0  0  0  0  0  0  0  0  0  0
    8.0801   -2.2555   20.8209 S   0  0  0  0  0  0  0  0  0  0  0  0
    8.5045   -2.3737   22.4388 N   0  0  0  0  0  0  0  0  0  0  0  0
    8.1519   -1.3326   23.0808 N   0  0  0  0  0  0  0  0  0  0  0  0
    7.5377   -0.3723   22.3216 C   0  0  0  0  0  0  0  0  0  0  0  0
    7.1737    0.9171   22.9386 C   0  0  0  0  0  0  0  0  0  0  0  0
    6.5744    0.9136   24.2382 C   0  0  0  0  0  0  0  0  0  0  0  0
    6.4371   -0.0426   24.7445 H   0  0  0  0  0  0  0  0  0  0  0  0
    6.1945    2.0961   24.8206 C   0  0  0  0  0  0  0  0  0  0  0  0
    5.7621    2.1026   25.8174 H   0  0  0  0  0  0  0  0  0  0  0  0
    6.3858    3.3465   24.1474 C   0  0  0  0  0  0  0  0  0  0  0  0
    6.0094    4.5922   24.7388 C   0  0  0  0  0  0  0  0  0  0  0  0
    5.5662    4.5739   25.7326 H   0  0  0  0  0  0  0  0  0  0  0  0
    6.2022    5.7820   24.0678 C   0  0  0  0  0  0  0  0  0  0  0  0
    5.9123    6.7289   24.5187 H   0  0  0  0  0  0  0  0  0  0  0  0
    6.7867    5.7853   22.7676 C   0  0  0  0  0  0  0  0  0  0  0  0
    6.9382    6.7234   22.2321 H   0  0  0  0  0  0  0  0  0  0  0  0
    7.1675    4.6028   22.1809 C   0  0  0  0  0  0  0  0  0  0  0  0
    7.6458    4.6301   21.2112 H   0  0  0  0  0  0  0  0  0  0  0  0
    6.9822    3.3519   22.8460 C   0  0  0  0  0  0  0  0  0  0  0  0
    7.3808    2.1100   22.2697 C   0  0  0  0  0  0  0  0  0  0  0  0
    7.8029    2.1090   21.2656 H   0  0  0  0  0  0  0  0  0  0  0  0
    5.4335    0.6360   20.1500 C   0  0  0  0  0  0  0  0  0  0  0  0
    5.0212    0.6325   21.1628 H   0  0  0  0  0  0  0  0  0  0  0  0
    4.8019    1.3015   19.0972 C   0  0  0  0  0  0  0  0  0  0  0  0
    3.8741    1.8406   19.2519 H   0  0  0  0  0  0  0  0  0  0  0  0
  1  2  1  0
  2  3  2  0
  3  4  1  0
  4  5  1  0
  4  6  2  0
  6  7  1  0
  7  8  1  0
  8  9  1  0
  9 10  2  0
 10 11  1  0
 11 12  1  0
 12 13  2  0
 13 14  1  0
 13 15  1  0
 15 16  1  0
 15 17  2  0
 17 18  1  0
 18 19  1  0
 18 20  2  0
 20 21  1  0
 20 22  1  0
 22 23  1  0
 22 24  2  0
 24 25  1  0
 24 26  1  0
 26 27  2  0
 27 28  1  0
  6 29  1  0
 29 30  1  0
 29 31  2  0
 31 32  1  0
 31  2  1  0
 11  7  2  0
 27 12  1  0
 26 17  1  0
M  END
>  <cnnaffinity>  (1) 
-5.13121

>  <filename>  (1) 
c1cncc(-c2snnc2-c2ccc3ccccc3c2)c1

$$$$
