
     RDKit          3D

 40 42  0  0  0  0  0  0  0  0999 V2000
   10.4722   -1.3946   21.8667 H   0  0  0  0  0  0  0  0  0  0  0  0
    9.3830   -1.3915   21.8713 C   0  0  0  0  0  0  0  0  0  0  0  0
    8.7651   -0.7435   20.8806 N   0  0  0  0  0  0  0  0  0  0  0  0
    7.4300   -0.7416   20.9271 C   0  0  0  0  0  0  0  0  0  0  0  0
    6.6942    0.0112   19.8942 C   0  0  0  0  0  0  0  0  0  0  0  0
    7.2115    0.0571   18.5950 C   0  0  0  0  0  0  0  0  0  0  0  0
    8.1633   -0.4216   18.3727 H   0  0  0  0  0  0  0  0  0  0  0  0
    6.5936    0.6604   17.5759 N   0  0  0  0  0  0  0  0  0  0  0  0
    5.4341    1.2847   17.8302 C   0  0  0  0  0  0  0  0  0  0  0  0
    4.9658    1.7889   16.9874 H   0  0  0  0  0  0  0  0  0  0  0  0
    4.8314    1.3106   19.0929 C   0  0  0  0  0  0  0  0  0  0  0  0
    3.8872    1.8288   19.2326 H   0  0  0  0  0  0  0  0  0  0  0  0
    5.4739    0.6602   20.1464 C   0  0  0  0  0  0  0  0  0  0  0  0
    5.0420    0.6805   21.1487 H   0  0  0  0  0  0  0  0  0  0  0  0
    6.7278   -1.4378   21.9013 C   0  0  0  0  0  0  0  0  0  0  0  0
    5.6531   -1.5467   21.8416 H   0  0  0  0  0  0  0  0  0  0  0  0
    7.4689   -2.0441   22.8986 C   0  0  0  0  0  0  0  0  0  0  0  0
    6.8272   -2.7812   24.0306 C   0  0  0  0  0  0  0  0  0  0  0  0
    5.8521   -2.3458   24.2695 H   0  0  0  0  0  0  0  0  0  0  0  0
    7.4618   -2.6902   24.9112 H   0  0  0  0  0  0  0  0  0  0  0  0
    6.6549   -4.2479   23.6589 C   0  0  0  0  0  0  0  0  0  0  0  0
    7.6421   -4.6696   23.4299 H   0  0  0  0  0  0  0  0  0  0  0  0
    6.2794   -4.8197   24.5286 H   0  0  0  0  0  0  0  0  0  0  0  0
    5.7956   -4.3583   22.4809 N   0  0  0  0  0  0  0  0  0  0  0  0
    4.3623   -4.3176   22.7835 C   0  0  0  0  0  0  0  0  0  0  0  0
    3.8320   -4.0885   21.8545 H   0  0  0  0  0  0  0  0  0  0  0  0
    4.1557   -3.4663   23.4410 H   0  0  0  0  0  0  0  0  0  0  0  0
    3.8120   -5.6175   23.4022 C   0  0  0  0  0  0  0  0  0  0  0  0
    4.1799   -5.6818   24.4320 H   0  0  0  0  0  0  0  0  0  0  0  0
    2.7214   -5.5430   23.4779 H   0  0  0  0  0  0  0  0  0  0  0  0
    4.2409   -6.8790   22.6296 C   0  0  0  0  0  0  0  0  0  0  0  0
    4.0429   -7.7811   23.2222 H   0  0  0  0  0  0  0  0  0  0  0  0
    3.6337   -6.9988   21.7263 H   0  0  0  0  0  0  0  0  0  0  0  0
    5.7297   -6.8302   22.2444 C   0  0  0  0  0  0  0  0  0  0  0  0
    6.3370   -6.9273   23.1491 H   0  0  0  0  0  0  0  0  0  0  0  0
    6.0083   -7.6722   21.6080 H   0  0  0  0  0  0  0  0  0  0  0  0
    6.1107   -5.4888   21.6072 C   0  0  0  0  0  0  0  0  0  0  0  0
    7.1813   -5.4441   21.3740 H   0  0  0  0  0  0  0  0  0  0  0  0
    5.5888   -5.3340   20.6529 H   0  0  0  0  0  0  0  0  0  0  0  0
    8.8047   -2.0500   22.8723 N   0  0  0  0  0  0  0  0  0  0  0  0
  1  2  1  0
  2  3  2  0
  3  4  1  0
  4  5  1  0
  5  6  2  0
  6  7  1  0
  6  8  1  0
  8  9  2  0
  9 10  1  0
  9 11  1  0
 11 12  1  0
 11 13  2  0
 13 14  1  0
  4 15  2  0
 15 16  1  0
 15 17  1  0
 17 18  1  0
 18 19  1  0
 18 20  1  0
 18 21  1  0
 21 22  1  0
 21 23  1  0
 21 24  1  0
 24 25  1  0
 25 26  1  0
 25 27  1  0
 25 28  1  0
 28 29  1  0
 28 30  1  0
 28 31  1  0
 31 32  1  0
 31 33  1  0
 31 34  1  0
 34 35  1  0
 34 36  1  0
 34 37  1  0
 37 38  1  0
 37 39  1  0
 17 40  2  0
 40  2  1  0
 13  5  1  0
 37 24  1  0
M  END
>  <cnnaffinity>  (1) 
-5.09681

>  <filename>  (1) 
c1cncc(-c2cc(CCN3CCCCC3)ncn2)c1

$$$$
