
     RDKit          3D

 42 45  0  0  0  0  0  0  0  0999 V2000
    4.9266    1.8039   16.9763 H   0  0  0  0  0  0  0  0  0  0  0  0
    5.4007    1.2966   17.8162 C   0  0  0  0  0  0  0  0  0  0  0  0
    6.5611    0.6767   17.5594 N   0  0  0  0  0  0  0  0  0  0  0  0
    7.1737    0.0491   18.5713 C   0  0  0  0  0  0  0  0  0  0  0  0
    8.1216   -0.4265   18.3298 H   0  0  0  0  0  0  0  0  0  0  0  0
    6.6566   -0.0054   19.8804 C   0  0  0  0  0  0  0  0  0  0  0  0
    7.3696   -0.7007   20.9647 C   0  0  0  0  0  0  0  0  0  0  0  0
    8.4545   -1.4576   20.7354 N   0  0  0  0  0  0  0  0  0  0  0  0
    8.7958   -1.8719   21.9763 N   0  0  0  0  0  0  0  0  0  0  0  0
    9.8387   -2.6076   22.5134 C   0  0  0  0  0  0  0  0  0  0  0  0
   10.6118   -2.9747   21.8642 H   0  0  0  0  0  0  0  0  0  0  0  0
    9.6482   -2.6152   23.8562 C   0  0  0  0  0  0  0  0  0  0  0  0
   10.2200   -3.0353   24.6678 H   0  0  0  0  0  0  0  0  0  0  0  0
    8.4989   -1.9025   24.1212 N   0  0  0  0  0  0  0  0  0  0  0  0
    8.1419   -1.5970   25.4074 O   0  0  0  0  0  0  0  0  0  0  0  0
    6.8627   -0.9454   25.5697 C   0  0  0  0  0  0  0  0  0  0  0  0
    6.8869   -0.7102   26.6323 H   0  0  0  0  0  0  0  0  0  0  0  0
    6.8527   -0.0179   24.9804 H   0  0  0  0  0  0  0  0  0  0  0  0
    5.6270   -1.7851   25.2408 C   0  0  0  0  0  0  0  0  0  0  0  0
    5.6941   -2.1644   24.2009 H   0  0  0  0  0  0  0  0  0  0  0  0
    4.7831   -1.0842   25.2500 H   0  0  0  0  0  0  0  0  0  0  0  0
    5.3708   -2.8404   26.2246 N   0  0  0  0  0  0  0  0  0  0  0  0
    3.9474   -3.1712   26.3829 C   0  0  0  0  0  0  0  0  0  0  0  0
    3.4110   -2.2814   26.7407 H   0  0  0  0  0  0  0  0  0  0  0  0
    3.4807   -3.4913   25.4316 H   0  0  0  0  0  0  0  0  0  0  0  0
    3.7626   -4.2917   27.4120 C   0  0  0  0  0  0  0  0  0  0  0  0
    4.0729   -3.9306   28.4066 H   0  0  0  0  0  0  0  0  0  0  0  0
    2.7126   -4.5988   27.4593 H   0  0  0  0  0  0  0  0  0  0  0  0
    4.5047   -5.4547   27.0642 O   0  0  0  0  0  0  0  0  0  0  0  0
    5.8895   -5.1459   26.9612 C   0  0  0  0  0  0  0  0  0  0  0  0
    6.3903   -6.0727   26.6629 H   0  0  0  0  0  0  0  0  0  0  0  0
    6.2811   -4.8239   27.9405 H   0  0  0  0  0  0  0  0  0  0  0  0
    6.1525   -4.0516   25.9246 C   0  0  0  0  0  0  0  0  0  0  0  0
    7.2139   -3.7883   25.9230 H   0  0  0  0  0  0  0  0  0  0  0  0
    5.8926   -4.4521   24.9257 H   0  0  0  0  0  0  0  0  0  0  0  0
    7.9923   -1.4123   22.9504 C   0  0  0  0  0  0  0  0  0  0  0  0
    7.0221   -0.6276   22.3348 C   0  0  0  0  0  0  0  0  0  0  0  0
    6.2191   -0.0726   22.7768 H   0  0  0  0  0  0  0  0  0  0  0  0
    5.4402    0.6504   20.1270 C   0  0  0  0  0  0  0  0  0  0  0  0
    4.9944    0.6506   21.1224 H   0  0  0  0  0  0  0  0  0  0  0  0
    4.8036    1.3119   19.0809 C   0  0  0  0  0  0  0  0  0  0  0  0
    3.8726    1.8438   19.2386 H   0  0  0  0  0  0  0  0  0  0  0  0
  1  2  1  0
  2  3  2  0
  3  4  1  0
  4  5  1  0
  4  6  2  0
  6  7  1  0
  7  8  2  0
  8  9  1  0
  9 10  1  0
 10 11  1  0
 10 12  2  0
 12 13  1  0
 12 14  1  0
 14 15  1  0
 15 16  1  0
 16 17  1  0
 16 18  1  0
 16 19  1  0
 19 20  1  0
 19 21  1  0
 19 22  1  0
 22 23  1  0
 23 24  1  0
 23 25  1  0
 23 26  1  0
 26 27  1  0
 26 28  1  0
 26 29  1  0
 29 30  1  0
 30 31  1  0
 30 32  1  0
 30 33  1  0
 33 34  1  0
 33 35  1  0
 14 36  1  0
 36 37  2  0
 37 38  1  0
  6 39  1  0
 39 40  1  0
 39 41  2  0
 41 42  1  0
 41  2  1  0
 37  7  1  0
 36  9  1  0
 33 22  1  0
M  END
>  <cnnaffinity>  (1) 
-5.19331

>  <filename>  (1) 
c1cncc(-c2cc3n(OCCN4CCOCC4)ccn3n2)c1

$$$$
