
     RDKit          3D

 33 37  0  0  0  0  0  0  0  0999 V2000
    4.9219    1.7730   17.0031 H   0  0  0  0  0  0  0  0  0  0  0  0
    5.4076    1.2869   17.8478 C   0  0  0  0  0  0  0  0  0  0  0  0
    6.5729    0.6694   17.5953 N   0  0  0  0  0  0  0  0  0  0  0  0
    7.1782    0.0552   18.6159 C   0  0  0  0  0  0  0  0  0  0  0  0
    8.1244   -0.4292   18.3749 H   0  0  0  0  0  0  0  0  0  0  0  0
    6.6530    0.0083   19.9193 C   0  0  0  0  0  0  0  0  0  0  0  0
    7.3512   -0.6920   21.0005 C   0  0  0  0  0  0  0  0  0  0  0  0
    6.8752   -0.7459   22.2055 N   0  0  0  0  0  0  0  0  0  0  0  0
    7.7321   -1.4496   22.9768 N   0  0  0  0  0  0  0  0  0  0  0  0
    7.7374   -1.8270   24.3051 C   0  0  0  0  0  0  0  0  0  0  0  0
    6.7429   -1.4312   25.2775 C   0  0  0  0  0  0  0  0  0  0  0  0
    6.1163   -0.2249   25.3091 C   0  0  0  0  0  0  0  0  0  0  0  0
    6.2497    0.5592   24.5772 H   0  0  0  0  0  0  0  0  0  0  0  0
    5.0465   -0.0248   26.6437 S   0  0  0  0  0  0  0  0  0  0  0  0
    5.4207   -1.6305   27.2272 C   0  0  0  0  0  0  0  0  0  0  0  0
    4.8917   -2.2719   28.3620 C   0  0  0  0  0  0  0  0  0  0  0  0
    4.1821   -1.7561   29.0035 H   0  0  0  0  0  0  0  0  0  0  0  0
    5.2848   -3.5797   28.6351 C   0  0  0  0  0  0  0  0  0  0  0  0
    4.8944   -4.0897   29.5128 H   0  0  0  0  0  0  0  0  0  0  0  0
    6.2008   -4.2509   27.7931 C   0  0  0  0  0  0  0  0  0  0  0  0
    6.4987   -5.2727   28.0148 H   0  0  0  0  0  0  0  0  0  0  0  0
    6.7243   -3.6196   26.6740 C   0  0  0  0  0  0  0  0  0  0  0  0
    7.3997   -4.1489   26.0048 H   0  0  0  0  0  0  0  0  0  0  0  0
    6.3498   -2.2839   26.3868 C   0  0  0  0  0  0  0  0  0  0  0  0
    8.9161   -2.5308   24.4274 C   0  0  0  0  0  0  0  0  0  0  0  0
    9.3187   -2.9558   25.3372 H   0  0  0  0  0  0  0  0  0  0  0  0
    9.6135   -2.6102   23.2517 N   0  0  0  0  0  0  0  0  0  0  0  0
    8.8629   -1.9497   22.4120 C   0  0  0  0  0  0  0  0  0  0  0  0
    8.9039   -1.5114   20.7396 S   0  0  0  0  0  0  0  0  0  0  0  0
    5.4307    0.6557   20.1680 C   0  0  0  0  0  0  0  0  0  0  0  0
    5.0024    0.6324   21.1727 H   0  0  0  0  0  0  0  0  0  0  0  0
    4.8045    1.3101   19.1106 C   0  0  0  0  0  0  0  0  0  0  0  0
    3.8726    1.8445   19.2604 H   0  0  0  0  0  0  0  0  0  0  0  0
  1  2  1  0
  2  3  2  0
  3  4  1  0
  4  5  1  0
  4  6  2  0
  6  7  1  0
  7  8  2  0
  8  9  1  0
  9 10  1  0
 10 11  1  0
 11 12  2  0
 12 13  1  0
 12 14  1  0
 14 15  1  0
 15 16  2  0
 16 17  1  0
 16 18  1  0
 18 19  1  0
 18 20  2  0
 20 21  1  0
 20 22  1  0
 22 23  1  0
 22 24  2  0
 10 25  2  0
 25 26  1  0
 25 27  1  0
 27 28  2  0
 28 29  1  0
  6 30  1  0
 30 31  1  0
 30 32  2  0
 32 33  1  0
 32  2  1  0
 29  7  1  0
 28  9  1  0
 24 11  1  0
 24 15  1  0
M  END
>  <cnnaffinity>  (1) 
-5.47534

>  <filename>  (1) 
c1cncc(-c2nn3c(-c4csc5ccccc45)cnc3s2)c1

$$$$
