
     RDKit          3D

 33 36  0  0  0  0  0  0  0  0999 V2000
    4.9477    1.8163   16.9661 H   0  0  0  0  0  0  0  0  0  0  0  0
    5.3923    1.2976   17.8137 C   0  0  0  0  0  0  0  0  0  0  0  0
    6.5426    0.6520   17.5667 N   0  0  0  0  0  0  0  0  0  0  0  0
    7.1390    0.0276   18.5848 C   0  0  0  0  0  0  0  0  0  0  0  0
    8.0819   -0.4668   18.3582 H   0  0  0  0  0  0  0  0  0  0  0  0
    6.6351    0.0199   19.8888 C   0  0  0  0  0  0  0  0  0  0  0  0
    7.3793   -0.6600   20.9434 C   0  0  0  0  0  0  0  0  0  0  0  0
    7.5180   -2.0214   20.9033 N   0  0  0  0  0  0  0  0  0  0  0  0
    8.0941   -2.3078   22.0376 C   0  0  0  0  0  0  0  0  0  0  0  0
    8.5830   -3.7970   22.7870 S   0  0  0  0  0  0  0  0  0  0  0  0
    9.2280   -2.8989   24.1549 C   0  0  0  0  0  0  0  0  0  0  0  0
    9.7078   -3.4473   24.9572 H   0  0  0  0  0  0  0  0  0  0  0  0
    9.0482   -1.5740   24.0290 C   0  0  0  0  0  0  0  0  0  0  0  0
    9.3418   -0.8004   24.7328 H   0  0  0  0  0  0  0  0  0  0  0  0
    8.4002   -1.2290   22.8338 N   0  0  0  0  0  0  0  0  0  0  0  0
    7.9574   -0.1156   22.1058 C   0  0  0  0  0  0  0  0  0  0  0  0
    8.1549    1.1710   22.4763 N   0  0  0  0  0  0  0  0  0  0  0  0
    8.6904    1.5757   23.7718 C   0  0  0  0  0  0  0  0  0  0  0  0
    9.7239    1.2159   23.8885 H   0  0  0  0  0  0  0  0  0  0  0  0
    8.1034    1.1353   24.5894 H   0  0  0  0  0  0  0  0  0  0  0  0
    8.6128    3.1082   23.7394 C   0  0  0  0  0  0  0  0  0  0  0  0
    7.7047    3.4608   24.2417 H   0  0  0  0  0  0  0  0  0  0  0  0
    9.4668    3.5544   24.2573 H   0  0  0  0  0  0  0  0  0  0  0  0
    8.6176    3.4627   22.2452 C   0  0  0  0  0  0  0  0  0  0  0  0
    9.6572    3.5472   21.9174 H   0  0  0  0  0  0  0  0  0  0  0  0
    8.1094    4.4056   22.0175 H   0  0  0  0  0  0  0  0  0  0  0  0
    7.9466    2.2819   21.5407 C   0  0  0  0  0  0  0  0  0  0  0  0
    6.8769    2.4504   21.3570 H   0  0  0  0  0  0  0  0  0  0  0  0
    8.3794    2.0451   20.5584 H   0  0  0  0  0  0  0  0  0  0  0  0
    5.4126    0.6691   20.1319 C   0  0  0  0  0  0  0  0  0  0  0  0
    4.9815    0.6637   21.1353 H   0  0  0  0  0  0  0  0  0  0  0  0
    4.7845    1.3232   19.0727 C   0  0  0  0  0  0  0  0  0  0  0  0
    3.8549    1.8618   19.2142 H   0  0  0  0  0  0  0  0  0  0  0  0
  1  2  1  0
  2  3  2  0
  3  4  1  0
  4  5  1  0
  4  6  2  0
  6  7  1  0
  7  8  1  0
  8  9  2  0
  9 10  1  0
 10 11  1  0
 11 12  1  0
 11 13  2  0
 13 14  1  0
 13 15  1  0
 15 16  1  0
 16 17  1  0
 17 18  1  0
 18 19  1  0
 18 20  1  0
 18 21  1  0
 21 22  1  0
 21 23  1  0
 21 24  1  0
 24 25  1  0
 24 26  1  0
 24 27  1  0
 27 28  1  0
 27 29  1  0
  6 30  1  0
 30 31  1  0
 30 32  2  0
 32 33  1  0
 32  2  1  0
 16  7  2  0
 27 17  1  0
 15  9  1  0
M  END
>  <cnnaffinity>  (1) 
-5.25016

>  <filename>  (1) 
c1cncc(-c2nc3sccn3c2N2CCCC2)c1

$$$$
