
     RDKit          3D

 32 35  0  0  0  0  0  0  0  0999 V2000
    4.9651    1.7819   16.9860 H   0  0  0  0  0  0  0  0  0  0  0  0
    5.4055    1.2798   17.8437 C   0  0  0  0  0  0  0  0  0  0  0  0
    6.5747    0.6609   17.6182 N   0  0  0  0  0  0  0  0  0  0  0  0
    7.1663    0.0601   18.6530 C   0  0  0  0  0  0  0  0  0  0  0  0
    8.1029   -0.4506   18.4298 H   0  0  0  0  0  0  0  0  0  0  0  0
    6.6369    0.0594   19.9469 C   0  0  0  0  0  0  0  0  0  0  0  0
    7.3782   -0.6767   20.9739 C   0  0  0  0  0  0  0  0  0  0  0  0
    7.9114   -1.8038   20.7280 N   0  0  0  0  0  0  0  0  0  0  0  0
    8.4059   -2.3744   21.9809 C   0  0  0  0  0  0  0  0  0  0  0  0
    9.4796   -2.5698   21.8714 H   0  0  0  0  0  0  0  0  0  0  0  0
    7.9146   -3.3386   22.1713 H   0  0  0  0  0  0  0  0  0  0  0  0
    8.1013   -1.3403   23.0974 C   0  0  0  0  0  0  0  0  0  0  0  0
    7.4128   -1.7109   23.8704 H   0  0  0  0  0  0  0  0  0  0  0  0
    9.0063   -1.0016   23.6236 H   0  0  0  0  0  0  0  0  0  0  0  0
    7.4729   -0.2640   22.3020 N   0  0  0  0  0  0  0  0  0  0  0  0
    7.3948    1.0416   22.6759 C   0  0  0  0  0  0  0  0  0  0  0  0
    7.3211    2.0779   21.9081 N   0  0  0  0  0  0  0  0  0  0  0  0
    7.2699    3.1442   22.8165 C   0  0  0  0  0  0  0  0  0  0  0  0
    7.1642    4.5215   22.6138 C   0  0  0  0  0  0  0  0  0  0  0  0
    7.0937    4.9137   21.6061 H   0  0  0  0  0  0  0  0  0  0  0  0
    7.1471    5.3554   23.7324 C   0  0  0  0  0  0  0  0  0  0  0  0
    7.0701    6.4297   23.5906 H   0  0  0  0  0  0  0  0  0  0  0  0
    7.2274    4.8241   25.0293 C   0  0  0  0  0  0  0  0  0  0  0  0
    7.2141    5.5086   25.8730 H   0  0  0  0  0  0  0  0  0  0  0  0
    7.3213    3.4453   25.2516 C   0  0  0  0  0  0  0  0  0  0  0  0
    7.3837    3.0480   26.2562 H   0  0  0  0  0  0  0  0  0  0  0  0
    7.3330    2.6401   24.1193 C   0  0  0  0  0  0  0  0  0  0  0  0
    7.4142    1.2712   24.0198 O   0  0  0  0  0  0  0  0  0  0  0  0
    5.3933    0.6659   20.1673 C   0  0  0  0  0  0  0  0  0  0  0  0
    4.9526    0.6882   21.1661 H   0  0  0  0  0  0  0  0  0  0  0  0
    4.7780    1.2975   19.0920 C   0  0  0  0  0  0  0  0  0  0  0  0
    3.8540    1.8417   19.2248 H   0  0  0  0  0  0  0  0  0  0  0  0
  1  2  1  0
  2  3  2  0
  3  4  1  0
  4  5  1  0
  4  6  2  0
  6  7  1  0
  7  8  2  0
  8  9  1  0
  9 10  1  0
  9 11  1  0
  9 12  1  0
 12 13  1  0
 12 14  1  0
 12 15  1  0
 15 16  1  0
 16 17  2  0
 17 18  1  0
 18 19  2  0
 19 20  1  0
 19 21  1  0
 21 22  1  0
 21 23  2  0
 23 24  1  0
 23 25  1  0
 25 26  1  0
 25 27  2  0
 27 28  1  0
  6 29  1  0
 29 30  1  0
 29 31  2  0
 31 32  1  0
 31  2  1  0
 15  7  1  0
 28 16  1  0
 27 18  1  0
M  END
>  <cnnaffinity>  (1) 
-4.95619

>  <filename>  (1) 
c1cncc(C2=NCCN2c2nc3ccccc3o2)c1

$$$$
