
     RDKit          3D

 39 43  0  0  0  0  0  0  0  0999 V2000
    4.9828    1.8596   16.9250 H   0  0  0  0  0  0  0  0  0  0  0  0
    5.4240    1.3089   17.7535 C   0  0  0  0  0  0  0  0  0  0  0  0
    6.5668    0.6585   17.4945 N   0  0  0  0  0  0  0  0  0  0  0  0
    7.1467    0.0052   18.5117 C   0  0  0  0  0  0  0  0  0  0  0  0
    8.0710   -0.5115   18.2554 H   0  0  0  0  0  0  0  0  0  0  0  0
    6.6462   -0.0496   19.8300 C   0  0  0  0  0  0  0  0  0  0  0  0
    7.3746   -0.8035   20.9418 C   0  0  1  0  0  0  0  0  0  0  0  0
    7.0227   -1.8448   20.9158 H   0  0  0  0  0  0  0  0  0  0  0  0
    8.9389   -0.8509   20.8040 C   0  0  0  0  0  0  0  0  0  0  0  0
    9.2758   -1.7849   20.3460 H   0  0  0  0  0  0  0  0  0  0  0  0
    9.3282   -0.0268   20.1948 H   0  0  0  0  0  0  0  0  0  0  0  0
    9.4136   -0.7123   22.2222 C   0  0  0  0  0  0  0  0  0  0  0  0
   10.5941   -0.7852   22.8094 N   0  0  0  0  0  0  0  0  0  0  0  0
   10.3102   -0.5295   24.1102 N   0  0  0  0  0  0  0  0  0  0  0  0
   11.0808   -0.4563   24.7597 H   0  0  0  0  0  0  0  0  0  0  0  0
    8.9842   -0.2869   24.3624 C   0  0  0  0  0  0  0  0  0  0  0  0
    8.3993    0.0808   25.6811 C   0  0  0  0  0  0  0  0  0  0  0  0
    7.1150    0.7042   25.6648 C   0  0  0  0  0  0  0  0  0  0  0  0
    6.6048    0.8283   24.7167 H   0  0  0  0  0  0  0  0  0  0  0  0
    6.5046    1.1798   26.8136 C   0  0  0  0  0  0  0  0  0  0  0  0
    5.5149    1.6214   26.7641 H   0  0  0  0  0  0  0  0  0  0  0  0
    7.1682    1.0535   28.0477 C   0  0  0  0  0  0  0  0  0  0  0  0
    6.9066    1.4967   29.3902 C   0  0  0  0  0  0  0  0  0  0  0  0
    6.0455    2.0648   29.7190 H   0  0  0  0  0  0  0  0  0  0  0  0
    7.9458    1.0648   30.1596 C   0  0  0  0  0  0  0  0  0  0  0  0
    8.1052    1.1780   31.2239 H   0  0  0  0  0  0  0  0  0  0  0  0
    8.8439    0.3590   29.3814 N   0  0  0  0  0  0  0  0  0  0  0  0
    9.7706    0.0682   29.6535 H   0  0  0  0  0  0  0  0  0  0  0  0
    8.4044    0.3611   28.0735 C   0  0  0  0  0  0  0  0  0  0  0  0
    9.0354   -0.1250   26.9163 C   0  0  0  0  0  0  0  0  0  0  0  0
    9.9976   -0.6243   27.0047 H   0  0  0  0  0  0  0  0  0  0  0  0
    8.3904   -0.4044   23.1113 C   0  0  0  0  0  0  0  0  0  0  0  0
    7.0827   -0.2641   22.3871 C   0  0  0  0  0  0  0  0  0  0  0  0
    6.2682   -0.8235   22.8641 H   0  0  0  0  0  0  0  0  0  0  0  0
    6.7850    0.7944   22.3457 H   0  0  0  0  0  0  0  0  0  0  0  0
    5.4184    0.6019   20.0501 C   0  0  0  0  0  0  0  0  0  0  0  0
    4.9419    0.5729   21.0312 H   0  0  0  0  0  0  0  0  0  0  0  0
    4.8067    1.2982   19.0059 C   0  0  0  0  0  0  0  0  0  0  0  0
    3.8848    1.8494   19.1611 H   0  0  0  0  0  0  0  0  0  0  0  0
  1  2  1  0
  2  3  2  0
  3  4  1  0
  4  5  1  0
  4  6  2  0
  6  7  1  0
  7  8  1  1
  7  9  1  0
  9 10  1  0
  9 11  1  0
  9 12  1  0
 12 13  2  0
 13 14  1  0
 14 15  1  0
 14 16  1  0
 16 17  1  0
 17 18  2  0
 18 19  1  0
 18 20  1  0
 20 21  1  0
 20 22  2  0
 22 23  1  0
 23 24  1  0
 23 25  2  0
 25 26  1  0
 25 27  1  0
 27 28  1  0
 27 29  1  0
 29 30  2  0
 30 31  1  0
 16 32  2  0
 32 33  1  0
 33 34  1  0
 33 35  1  0
  6 36  1  0
 36 37  1  0
 36 38  2  0
 38 39  1  0
 38  2  1  0
 33  7  1  0
 32 12  1  0
 30 17  1  0
 29 22  1  0
M  END
>  <cnnaffinity>  (1) 
-5.56474

>  <filename>  (1) 
c1cncc([C@H]2Cc3n[nH]c(-c4ccc5cc[nH]c5c4)c3C2)c1

$$$$
