
     RDKit          3D

 30 33  0  0  0  0  0  0  0  0999 V2000
    4.9203    1.8262   16.9475 H   0  0  0  0  0  0  0  0  0  0  0  0
    5.3773    1.3126   17.7897 C   0  0  0  0  0  0  0  0  0  0  0  0
    6.5425    0.6955   17.5409 N   0  0  0  0  0  0  0  0  0  0  0  0
    7.1504    0.0923   18.5705 C   0  0  0  0  0  0  0  0  0  0  0  0
    8.0997   -0.3881   18.3318 H   0  0  0  0  0  0  0  0  0  0  0  0
    6.6409    0.0564   19.8915 C   0  0  0  0  0  0  0  0  0  0  0  0
    7.3313   -0.6878   20.9728 C   0  0  0  0  0  0  0  0  0  0  0  0
    7.6950   -2.0073   21.0467 C   0  0  0  0  0  0  0  0  0  0  0  0
    7.5125   -2.7953   20.3447 H   0  0  0  0  0  0  0  0  0  0  0  0
    8.2834   -2.2696   22.2409 N   0  0  0  0  0  0  0  0  0  0  0  0
    8.2931   -1.1975   22.9404 N   0  0  0  0  0  0  0  0  0  0  0  0
    7.7138   -0.2087   22.2114 N   0  0  0  0  0  0  0  0  0  0  0  0
    7.5102    0.9957   22.8525 C   0  0  0  0  0  0  0  0  0  0  0  0
    7.2073    2.0674   22.0819 O   0  0  0  0  0  0  0  0  0  0  0  0
    7.0702    3.1154   22.9447 C   0  0  0  0  0  0  0  0  0  0  0  0
    6.7597    4.4239   22.5965 C   0  0  0  0  0  0  0  0  0  0  0  0
    6.5740    4.6962   21.5616 H   0  0  0  0  0  0  0  0  0  0  0  0
    6.6972    5.3477   23.6417 C   0  0  0  0  0  0  0  0  0  0  0  0
    6.4627    6.3873   23.4134 H   0  0  0  0  0  0  0  0  0  0  0  0
    6.9322    4.9607   24.9821 C   0  0  0  0  0  0  0  0  0  0  0  0
    6.8834    5.7133   25.7650 H   0  0  0  0  0  0  0  0  0  0  0  0
    7.2255    3.6376   25.3107 C   0  0  0  0  0  0  0  0  0  0  0  0
    7.4111    3.3318   26.3391 H   0  0  0  0  0  0  0  0  0  0  0  0
    7.2900    2.6885   24.2681 C   0  0  0  0  0  0  0  0  0  0  0  0
    7.5651    1.2891   24.1765 C   0  0  0  0  0  0  0  0  0  0  0  0
    7.7834    0.5688   24.9537 H   0  0  0  0  0  0  0  0  0  0  0  0
    5.3960    0.6701   20.1041 C   0  0  0  0  0  0  0  0  0  0  0  0
    4.9373    0.6429   21.0924 H   0  0  0  0  0  0  0  0  0  0  0  0
    4.7614    1.3175   19.0422 C   0  0  0  0  0  0  0  0  0  0  0  0
    3.8194    1.8373   19.1796 H   0  0  0  0  0  0  0  0  0  0  0  0
  1  2  1  0
  2  3  2  0
  3  4  1  0
  4  5  1  0
  4  6  2  0
  6  7  1  0
  7  8  2  0
  8  9  1  0
  8 10  1  0
 10 11  2  0
 11 12  1  0
 12 13  1  0
 13 14  1  0
 14 15  1  0
 15 16  2  0
 16 17  1  0
 16 18  1  0
 18 19  1  0
 18 20  2  0
 20 21  1  0
 20 22  1  0
 22 23  1  0
 22 24  2  0
 24 25  1  0
 25 26  1  0
  6 27  1  0
 27 28  1  0
 27 29  2  0
 29 30  1  0
 29  2  1  0
 12  7  1  0
 25 13  2  0
 24 15  1  0
M  END
>  <cnnaffinity>  (1) 
-4.87864

>  <filename>  (1) 
c1cncc(-c2cnnn2-c2cc3ccccc3o2)c1

$$$$
