
     RDKit          3D

 37 40  0  0  0  0  0  0  0  0999 V2000
    5.1570    1.2371   17.1319 H   0  0  0  0  0  0  0  0  0  0  0  0
    5.6175    0.6859   17.9502 C   0  0  0  0  0  0  0  0  0  0  0  0
    6.6363   -0.1236   17.6288 N   0  0  0  0  0  0  0  0  0  0  0  0
    7.2251   -0.7952   18.6285 C   0  0  0  0  0  0  0  0  0  0  0  0
    8.0534   -1.4277   18.3205 H   0  0  0  0  0  0  0  0  0  0  0  0
    6.8601   -0.6954   19.9708 C   0  0  0  0  0  0  0  0  0  0  0  0
    7.7054   -1.4203   21.0152 C   0  0  2  0  0  0  0  0  0  0  0  0
    8.7376   -1.4924   20.6497 H   0  0  0  0  0  0  0  0  0  0  0  0
    7.2775   -2.7394   21.2236 O   0  0  0  0  0  0  0  0  0  0  0  0
    6.3410   -2.6874   22.2779 C   0  0  0  0  0  0  0  0  0  0  0  0
    6.2498   -3.6873   22.7008 H   0  0  0  0  0  0  0  0  0  0  0  0
    5.3565   -2.3638   21.9030 H   0  0  0  0  0  0  0  0  0  0  0  0
    6.9242   -1.6608   23.2444 C   0  0  0  0  0  0  0  0  0  0  0  0
    6.1326   -1.1415   23.7909 H   0  0  0  0  0  0  0  0  0  0  0  0
    7.6100   -2.1341   23.9642 H   0  0  0  0  0  0  0  0  0  0  0  0
    7.6682   -0.7894   22.3430 N   0  0  0  0  0  0  0  0  0  0  0  0
    7.9810    0.5681   22.5226 C   0  0  0  0  0  0  0  0  0  0  0  0
    8.6126    1.2156   21.4610 C   0  0  0  0  0  0  0  0  0  0  0  0
    8.9736    0.6459   20.6122 H   0  0  0  0  0  0  0  0  0  0  0  0
    8.7076    2.6188   21.3920 C   0  0  0  0  0  0  0  0  0  0  0  0
    9.1468    3.0591   20.5101 H   0  0  0  0  0  0  0  0  0  0  0  0
    8.2556    3.4140   22.4118 C   0  0  0  0  0  0  0  0  0  0  0  0
    8.3115    4.5012   22.3631 H   0  0  0  0  0  0  0  0  0  0  0  0
    7.7717    2.7983   23.6046 C   0  0  0  0  0  0  0  0  0  0  0  0
    7.4560    3.6230   24.7261 C   0  0  0  0  0  0  0  0  0  0  0  0
    7.4892    4.7024   24.5841 H   0  0  0  0  0  0  0  0  0  0  0  0
    7.1533    3.0758   25.9465 C   0  0  0  0  0  0  0  0  0  0  0  0
    6.9664    3.7144   26.8072 H   0  0  0  0  0  0  0  0  0  0  0  0
    7.1012    1.6635   26.0892 C   0  0  0  0  0  0  0  0  0  0  0  0
    6.8839    1.2231   27.0594 H   0  0  0  0  0  0  0  0  0  0  0  0
    7.3512    0.8328   25.0152 C   0  0  0  0  0  0  0  0  0  0  0  0
    7.3333   -0.2402   25.1772 H   0  0  0  0  0  0  0  0  0  0  0  0
    7.6803    1.3622   23.7159 C   0  0  0  0  0  0  0  0  0  0  0  0
    5.7814    0.1418   20.2836 C   0  0  0  0  0  0  0  0  0  0  0  0
    5.4830    0.2786   21.3226 H   0  0  0  0  0  0  0  0  0  0  0  0
    5.1568    0.8475   19.2594 C   0  0  0  0  0  0  0  0  0  0  0  0
    4.3576    1.5472   19.4727 H   0  0  0  0  0  0  0  0  0  0  0  0
  1  2  1  0
  2  3  2  0
  3  4  1  0
  4  5  1  0
  4  6  2  0
  6  7  1  0
  7  8  1  6
  7  9  1  0
  9 10  1  0
 10 11  1  0
 10 12  1  0
 10 13  1  0
 13 14  1  0
 13 15  1  0
 13 16  1  0
 16 17  1  0
 17 18  2  0
 18 19  1  0
 18 20  1  0
 20 21  1  0
 20 22  2  0
 22 23  1  0
 22 24  1  0
 24 25  2  0
 25 26  1  0
 25 27  1  0
 27 28  1  0
 27 29  2  0
 29 30  1  0
 29 31  1  0
 31 32  1  0
 31 33  2  0
  6 34  1  0
 34 35  1  0
 34 36  2  0
 36 37  1  0
 36  2  1  0
 16  7  1  0
 33 17  1  0
 33 24  1  0
M  END
>  <cnnaffinity>  (1) 
-4.27942

>  <filename>  (1) 
c1cncc([C@@H]2OCCN2c2cccc3ccccc23)c1

$$$$
