
     RDKit          3D

 31 34  0  0  0  0  0  0  0  0999 V2000
    4.9110    1.9529   16.7545 H   0  0  0  0  0  0  0  0  0  0  0  0
    5.3753    1.4187   17.5837 C   0  0  0  0  0  0  0  0  0  0  0  0
    6.5207    0.7834   17.2966 N   0  0  0  0  0  0  0  0  0  0  0  0
    7.1319    0.1331   18.2880 C   0  0  0  0  0  0  0  0  0  0  0  0
    8.0529   -0.3701   17.9839 H   0  0  0  0  0  0  0  0  0  0  0  0
    6.6486    0.0751   19.6040 C   0  0  0  0  0  0  0  0  0  0  0  0
    7.3834   -0.6487   20.6445 C   0  0  0  0  0  0  0  0  0  0  0  0
    7.0173   -0.7912   21.8934 N   0  0  0  0  0  0  0  0  0  0  0  0
    7.9905   -1.5525   22.4656 C   0  0  0  0  0  0  0  0  0  0  0  0
    7.9052   -1.8823   23.9071 C   0  0  0  0  0  0  0  0  0  0  0  0
    6.8736   -1.3314   24.6823 C   0  0  0  0  0  0  0  0  0  0  0  0
    6.1120   -0.7382   24.1827 H   0  0  0  0  0  0  0  0  0  0  0  0
    6.8055   -1.5341   26.0704 C   0  0  0  0  0  0  0  0  0  0  0  0
    5.9971   -1.0699   26.6302 H   0  0  0  0  0  0  0  0  0  0  0  0
    7.7314   -2.3414   26.7244 C   0  0  0  0  0  0  0  0  0  0  0  0
    7.6953   -2.4800   27.7956 H   0  0  0  0  0  0  0  0  0  0  0  0
    8.7246   -2.9579   25.9457 C   0  0  0  0  0  0  0  0  0  0  0  0
    8.8436   -2.7295   24.5516 C   0  0  0  0  0  0  0  0  0  0  0  0
    9.9508   -3.5190   24.0916 C   0  0  0  0  0  0  0  0  0  0  0  0
   10.2999   -3.4952   23.0715 H   0  0  0  0  0  0  0  0  0  0  0  0
   10.4381   -4.2012   25.1661 C   0  0  0  0  0  0  0  0  0  0  0  0
   11.2349   -4.9322   25.2398 H   0  0  0  0  0  0  0  0  0  0  0  0
    9.7023   -3.8629   26.2817 N   0  0  0  0  0  0  0  0  0  0  0  0
    9.8545   -4.2451   27.1980 H   0  0  0  0  0  0  0  0  0  0  0  0
    8.9558   -1.8916   21.6148 N   0  0  0  0  0  0  0  0  0  0  0  0
    8.5493   -1.3031   20.4677 N   0  0  0  0  0  0  0  0  0  0  0  0
    9.1035   -1.3792   19.6315 H   0  0  0  0  0  0  0  0  0  0  0  0
    5.4312    0.7244   19.8909 C   0  0  0  0  0  0  0  0  0  0  0  0
    5.0019    0.6950   20.8979 H   0  0  0  0  0  0  0  0  0  0  0  0
    4.7920    1.4063   18.8565 C   0  0  0  0  0  0  0  0  0  0  0  0
    3.8590    1.9347   19.0101 H   0  0  0  0  0  0  0  0  0  0  0  0
  1  2  1  0
  2  3  2  0
  3  4  1  0
  4  5  1  0
  4  6  2  0
  6  7  1  0
  7  8  2  0
  8  9  1  0
  9 10  1  0
 10 11  2  0
 11 12  1  0
 11 13  1  0
 13 14  1  0
 13 15  2  0
 15 16  1  0
 15 17  1  0
 17 18  2  0
 18 19  1  0
 19 20  1  0
 19 21  2  0
 21 22  1  0
 21 23  1  0
 23 24  1  0
  9 25  2  0
 25 26  1  0
 26 27  1  0
  6 28  1  0
 28 29  1  0
 28 30  2  0
 30 31  1  0
 30  2  1  0
 26  7  1  0
 18 10  1  0
 23 17  1  0
M  END
>  <cnnaffinity>  (1) 
-5.00658

>  <filename>  (1) 
c1cncc(-c2nc(-c3cccc4[nH]ccc34)n[nH]2)c1

$$$$
