
     RDKit          3D

 34 37  0  0  0  0  0  0  0  0999 V2000
    4.9164    1.8106   16.9697 H   0  0  0  0  0  0  0  0  0  0  0  0
    5.3848    1.3075   17.8127 C   0  0  0  0  0  0  0  0  0  0  0  0
    6.5435    0.6853   17.5465 N   0  0  0  0  0  0  0  0  0  0  0  0
    7.1599    0.0770   18.5655 C   0  0  0  0  0  0  0  0  0  0  0  0
    8.1006   -0.4201   18.3321 H   0  0  0  0  0  0  0  0  0  0  0  0
    6.6640    0.0285   19.8808 C   0  0  0  0  0  0  0  0  0  0  0  0
    7.3861   -0.6976   20.9609 C   0  0  0  0  0  0  0  0  0  0  0  0
    8.7780   -0.5793   21.1537 C   0  0  0  0  0  0  0  0  0  0  0  0
    9.3759    0.0638   20.5071 H   0  0  0  0  0  0  0  0  0  0  0  0
    9.4513   -1.2064   22.1253 N   0  0  0  0  0  0  0  0  0  0  0  0
    8.7562   -1.9932   22.9521 C   0  0  0  0  0  0  0  0  0  0  0  0
    9.3341   -2.4858   23.7341 H   0  0  0  0  0  0  0  0  0  0  0  0
    7.3663   -2.1989   22.8665 C   0  0  0  0  0  0  0  0  0  0  0  0
    6.7101   -3.0977   23.8187 C   0  0  0  0  0  0  0  0  0  0  0  0
    7.2446   -4.1021   24.5784 C   0  0  0  0  0  0  0  0  0  0  0  0
    8.2828   -4.4133   24.5576 H   0  0  0  0  0  0  0  0  0  0  0  0
    6.1809   -4.6885   25.3322 C   0  0  0  0  0  0  0  0  0  0  0  0
    6.1116   -5.7418   26.2640 C   0  0  0  0  0  0  0  0  0  0  0  0
    7.0207   -6.2832   26.5164 H   0  0  0  0  0  0  0  0  0  0  0  0
    4.8854   -6.0552   26.8343 C   0  0  0  0  0  0  0  0  0  0  0  0
    4.8311   -6.8638   27.5567 H   0  0  0  0  0  0  0  0  0  0  0  0
    3.7145   -5.3319   26.4909 C   0  0  0  0  0  0  0  0  0  0  0  0
    2.7727   -5.6055   26.9653 H   0  0  0  0  0  0  0  0  0  0  0  0
    3.7483   -4.2904   25.5697 C   0  0  0  0  0  0  0  0  0  0  0  0
    2.8439   -3.7401   25.3176 H   0  0  0  0  0  0  0  0  0  0  0  0
    4.9944   -3.9818   24.9876 C   0  0  0  0  0  0  0  0  0  0  0  0
    5.3497   -3.0404   24.0523 N   0  0  0  0  0  0  0  0  0  0  0  0
    4.7594   -2.3132   23.6894 H   0  0  0  0  0  0  0  0  0  0  0  0
    6.6820   -1.5260   21.8396 C   0  0  0  0  0  0  0  0  0  0  0  0
    5.6084   -1.6629   21.6853 H   0  0  0  0  0  0  0  0  0  0  0  0
    5.4384    0.6632   20.1312 C   0  0  0  0  0  0  0  0  0  0  0  0
    5.0228    0.6457   21.1402 H   0  0  0  0  0  0  0  0  0  0  0  0
    4.7976    1.3238   19.0825 C   0  0  0  0  0  0  0  0  0  0  0  0
    3.8653    1.8504   19.2341 H   0  0  0  0  0  0  0  0  0  0  0  0
  1  2  1  0
  2  3  2  0
  3  4  1  0
  4  5  1  0
  4  6  2  0
  6  7  1  0
  7  8  2  0
  8  9  1  0
  8 10  1  0
 10 11  2  0
 11 12  1  0
 11 13  1  0
 13 14  1  0
 14 15  2  0
 15 16  1  0
 15 17  1  0
 17 18  2  0
 18 19  1  0
 18 20  1  0
 20 21  1  0
 20 22  2  0
 22 23  1  0
 22 24  1  0
 24 25  1  0
 24 26  2  0
 26 27  1  0
 27 28  1  0
 13 29  2  0
 29 30  1  0
  6 31  1  0
 31 32  1  0
 31 33  2  0
 33 34  1  0
 33  2  1  0
 29  7  1  0
 27 14  1  0
 26 17  1  0
M  END
>  <cnnaffinity>  (1) 
-5.30813

>  <filename>  (1) 
c1cncc(-c2cncc(-c3cc4ccccc4[nH]3)c2)c1

$$$$
