
     RDKit          3D

 30 33  0  0  0  0  0  0  0  0999 V2000
    4.9214    1.8135   16.9533 H   0  0  0  0  0  0  0  0  0  0  0  0
    5.3959    1.3301   17.8058 C   0  0  0  0  0  0  0  0  0  0  0  0
    6.5687    0.7201   17.5689 N   0  0  0  0  0  0  0  0  0  0  0  0
    7.1606    0.1135   18.6056 C   0  0  0  0  0  0  0  0  0  0  0  0
    8.1129   -0.3723   18.3980 H   0  0  0  0  0  0  0  0  0  0  0  0
    6.6484    0.0815   19.9251 C   0  0  0  0  0  0  0  0  0  0  0  0
    7.3578   -0.6310   21.0212 C   0  0  0  0  0  0  0  0  0  0  0  0
    7.7074   -2.0261   20.9922 C   0  0  0  0  0  0  0  0  0  0  0  0
    7.4007   -2.6935   20.1939 H   0  0  0  0  0  0  0  0  0  0  0  0
    8.3458   -2.5169   22.0104 N   0  0  0  0  0  0  0  0  0  0  0  0
    8.5506   -1.3154   23.1416 S   0  0  0  0  0  0  0  0  0  0  0  0
    7.6953   -0.1054   22.2588 C   0  0  0  0  0  0  0  0  0  0  0  0
    7.3672    1.2005   22.8163 C   0  0  0  0  0  0  0  0  0  0  0  0
    7.5659    2.3492   22.1231 C   0  0  0  0  0  0  0  0  0  0  0  0
    7.9255    2.4103   21.1001 H   0  0  0  0  0  0  0  0  0  0  0  0
    7.1323    3.7767   22.9860 S   0  0  0  0  0  0  0  0  0  0  0  0
    6.6177    2.8404   24.3642 C   0  0  0  0  0  0  0  0  0  0  0  0
    6.0840    3.3297   25.5713 C   0  0  0  0  0  0  0  0  0  0  0  0
    5.9944    4.3988   25.7414 H   0  0  0  0  0  0  0  0  0  0  0  0
    5.6744    2.4148   26.5320 C   0  0  0  0  0  0  0  0  0  0  0  0
    5.2718    2.7705   27.4757 H   0  0  0  0  0  0  0  0  0  0  0  0
    5.7780    1.0292   26.2965 C   0  0  0  0  0  0  0  0  0  0  0  0
    5.4360    0.3295   27.0516 H   0  0  0  0  0  0  0  0  0  0  0  0
    6.3078    0.5466   25.1092 C   0  0  0  0  0  0  0  0  0  0  0  0
    6.3394   -0.5246   24.9290 H   0  0  0  0  0  0  0  0  0  0  0  0
    6.7719    1.4552   24.1320 C   0  0  0  0  0  0  0  0  0  0  0  0
    5.4159    0.7183   20.1391 C   0  0  0  0  0  0  0  0  0  0  0  0
    4.9655    0.7078   21.1358 H   0  0  0  0  0  0  0  0  0  0  0  0
    4.7813    1.3476   19.0643 C   0  0  0  0  0  0  0  0  0  0  0  0
    3.8220    1.8396   19.1801 H   0  0  0  0  0  0  0  0  0  0  0  0
  1  2  1  0
  2  3  2  0
  3  4  1  0
  4  5  1  0
  4  6  2  0
  6  7  1  0
  7  8  1  0
  8  9  1  0
  8 10  2  0
 10 11  1  0
 11 12  1  0
 12 13  1  0
 13 14  2  0
 14 15  1  0
 14 16  1  0
 16 17  1  0
 17 18  2  0
 18 19  1  0
 18 20  1  0
 20 21  1  0
 20 22  2  0
 22 23  1  0
 22 24  1  0
 24 25  1  0
 24 26  2  0
  6 27  1  0
 27 28  1  0
 27 29  2  0
 29 30  1  0
 29  2  1  0
 12  7  2  0
 26 13  1  0
 26 17  1  0
M  END
>  <cnnaffinity>  (1) 
-5.31188

>  <filename>  (1) 
c1cncc(-c2cnsc2-c2csc3ccccc23)c1

$$$$
