
     RDKit          3D

 39 41  0  0  0  0  0  0  0  0999 V2000
    4.8837    1.5888   16.7924 H   0  0  0  0  0  0  0  0  0  0  0  0
    5.3680    1.1650   17.6702 C   0  0  0  0  0  0  0  0  0  0  0  0
    6.6175    0.7059   17.4895 N   0  0  0  0  0  0  0  0  0  0  0  0
    7.2490    0.1893   18.5570 C   0  0  0  0  0  0  0  0  0  0  0  0
    8.2576   -0.1824   18.3882 H   0  0  0  0  0  0  0  0  0  0  0  0
    6.6709    0.0510   19.8437 C   0  0  0  0  0  0  0  0  0  0  0  0
    7.2946   -0.6128   20.9382 N   0  0  0  0  0  0  0  0  0  0  0  0
    8.5616   -0.3960   21.5038 C   0  0  0  0  0  0  0  0  0  0  0  0
    9.5495    0.5639   20.9131 C   0  0  0  0  0  0  0  0  0  0  0  0
   10.4980    0.3412   21.4303 H   0  0  0  0  0  0  0  0  0  0  0  0
    9.6702    0.4143   19.8374 H   0  0  0  0  0  0  0  0  0  0  0  0
    8.8449    2.3074   21.4394 C   0  0  0  0  0  0  0  0  0  0  0  0
    7.6951    1.8480   21.5106 H   0  0  0  0  0  0  0  0  0  0  0  0
    9.4210    1.9301   23.7627 C   0  0  0  0  0  0  0  0  0  0  0  0
    8.8976    2.8370   23.5625 H   0  0  0  0  0  0  0  0  0  0  0  0
    8.9385    1.0947   23.3394 H   0  0  0  0  0  0  0  0  0  0  0  0
   10.7492    1.9859   24.2021 C   0  0  0  0  0  0  0  0  0  0  0  0
   10.8697    2.3085   25.2628 H   0  0  0  0  0  0  0  0  0  0  0  0
   11.2662    0.9987   24.1620 H   0  0  0  0  0  0  0  0  0  0  0  0
   11.5785    3.0294   23.3392 C   0  0  0  0  0  0  0  0  0  0  0  0
   11.2907    4.0470   23.6424 H   0  0  0  0  0  0  0  0  0  0  0  0
   12.6437    2.9393   23.6030 H   0  0  0  0  0  0  0  0  0  0  0  0
   11.3928    2.8505   21.8228 C   0  0  0  0  0  0  0  0  0  0  0  0
   11.7281    1.8626   21.5008 H   0  0  0  0  0  0  0  0  0  0  0  0
   11.8946    3.6324   21.2344 H   0  0  0  0  0  0  0  0  0  0  0  0
    8.8357    2.3134   21.1439 C   0  0  0  0  0  0  0  0  0  0  0  0
    9.9765    2.8111   21.4077 H   0  0  0  0  0  0  0  0  0  0  0  0
    8.4864    3.4789   21.5235 H   0  0  0  0  0  0  0  0  0  0  0  0
    8.8591   -1.2090   22.4514 N   0  0  0  0  0  0  0  0  0  0  0  0
    7.7745   -2.1825   22.6094 C   0  0  0  0  0  0  0  0  0  0  0  0
    8.1669   -3.1999   22.4895 H   0  0  0  0  0  0  0  0  0  0  0  0
    7.3663   -2.0993   23.6236 H   0  0  0  0  0  0  0  0  0  0  0  0
    6.7277   -1.8408   21.5257 C   0  0  0  0  0  0  0  0  0  0  0  0
    5.7281   -1.6579   21.9316 H   0  0  0  0  0  0  0  0  0  0  0  0
    6.6358   -2.6308   20.7673 H   0  0  0  0  0  0  0  0  0  0  0  0
    5.3732    0.5585   20.0039 C   0  0  0  0  0  0  0  0  0  0  0  0
    4.9121    0.5028   20.9897 H   0  0  0  0  0  0  0  0  0  0  0  0
    4.7031    1.1095   18.9018 C   0  0  0  0  0  0  0  0  0  0  0  0
    3.7019    1.5144   18.9954 H   0  0  0  0  0  0  0  0  0  0  0  0
  1  2  1  0
  2  3  2  0
  3  4  1  0
  4  5  1  0
  4  6  2  0
  6  7  1  0
  7  8  1  0
  8  9  1  0
  9 10  1  0
  9 11  1  0
  9 12  1  0
 12 13  1  0
 12 14  1  0
 14 15  1  0
 14 16  1  0
 14 17  1  0
 17 18  1  0
 17 19  1  0
 17 20  1  0
 20 21  1  0
 20 22  1  0
 20 23  1  0
 23 24  1  0
 23 25  1  0
 23 26  1  0
 26 27  1  0
 26 28  1  0
  8 29  2  0
 29 30  1  0
 30 31  1  0
 30 32  1  0
 30 33  1  0
 33 34  1  0
 33 35  1  0
  6 36  1  0
 36 37  1  0
 36 38  2  0
 38 39  1  0
 38  2  1  0
 33  7  1  0
 26 12  1  0
M  END
>  <cnnaffinity>  (1) 
-5.30863

>  <filename>  (1) 
c1cncc(N2CCN=C2CC2CCCCC2)c1

$$$$
