
     RDKit          3D

 34 37  0  0  0  0  0  0  0  0999 V2000
   10.4544   -1.1785   21.8795 H   0  0  0  0  0  0  0  0  0  0  0  0
    9.3710   -1.2367   21.8780 C   0  0  0  0  0  0  0  0  0  0  0  0
    8.7418   -0.6510   20.8601 N   0  0  0  0  0  0  0  0  0  0  0  0
    7.4078   -0.7013   20.8827 C   0  0  0  0  0  0  0  0  0  0  0  0
    6.6821    0.0290   19.8306 C   0  0  0  0  0  0  0  0  0  0  0  0
    7.2158    0.0700   18.5349 C   0  0  0  0  0  0  0  0  0  0  0  0
    8.1660   -0.4122   18.3173 H   0  0  0  0  0  0  0  0  0  0  0  0
    6.6155    0.6770   17.5075 N   0  0  0  0  0  0  0  0  0  0  0  0
    5.4579    1.3079   17.7513 C   0  0  0  0  0  0  0  0  0  0  0  0
    4.9921    1.7983   16.8993 H   0  0  0  0  0  0  0  0  0  0  0  0
    4.8542    1.3545   19.0125 C   0  0  0  0  0  0  0  0  0  0  0  0
    3.9226    1.8917   19.1456 H   0  0  0  0  0  0  0  0  0  0  0  0
    5.4742    0.7003   20.0747 C   0  0  0  0  0  0  0  0  0  0  0  0
    5.0449    0.7271   21.0801 H   0  0  0  0  0  0  0  0  0  0  0  0
    6.7168   -1.4093   21.8623 C   0  0  0  0  0  0  0  0  0  0  0  0
    5.6546   -1.5721   21.7895 H   0  0  0  0  0  0  0  0  0  0  0  0
    7.4740   -1.9878   22.8746 C   0  0  0  0  0  0  0  0  0  0  0  0
    6.8336   -2.6625   24.0105 C   0  0  0  0  0  0  0  0  0  0  0  0
    5.8363   -1.9960   24.6797 C   0  0  0  0  0  0  0  0  0  0  0  0
    5.5491   -0.9831   24.4014 H   0  0  0  0  0  0  0  0  0  0  0  0
    5.1648   -2.4940   25.7505 N   0  0  0  0  0  0  0  0  0  0  0  0
    5.5237   -3.6772   26.2045 C   0  0  0  0  0  0  0  0  0  0  0  0
    4.9458   -4.0650   27.0474 H   0  0  0  0  0  0  0  0  0  0  0  0
    6.6048   -4.4441   25.6665 C   0  0  0  0  0  0  0  0  0  0  0  0
    7.1136   -5.6336   26.2798 C   0  0  0  0  0  0  0  0  0  0  0  0
    6.7206   -5.9685   27.2393 H   0  0  0  0  0  0  0  0  0  0  0  0
    8.1019   -6.3515   25.6541 C   0  0  0  0  0  0  0  0  0  0  0  0
    8.5224   -7.2489   26.0904 H   0  0  0  0  0  0  0  0  0  0  0  0
    8.6014   -5.9559   24.3872 C   0  0  0  0  0  0  0  0  0  0  0  0
    9.3442   -6.5726   23.8938 H   0  0  0  0  0  0  0  0  0  0  0  0
    8.1965   -4.7755   23.8162 C   0  0  0  0  0  0  0  0  0  0  0  0
    8.6435   -4.4037   22.9019 H   0  0  0  0  0  0  0  0  0  0  0  0
    7.2330   -3.9546   24.4796 C   0  0  0  0  0  0  0  0  0  0  0  0
    8.8070   -1.9025   22.8838 N   0  0  0  0  0  0  0  0  0  0  0  0
  1  2  1  0
  2  3  2  0
  3  4  1  0
  4  5  1  0
  5  6  2  0
  6  7  1  0
  6  8  1  0
  8  9  2  0
  9 10  1  0
  9 11  1  0
 11 12  1  0
 11 13  2  0
 13 14  1  0
  4 15  2  0
 15 16  1  0
 15 17  1  0
 17 18  1  0
 18 19  2  0
 19 20  1  0
 19 21  1  0
 21 22  2  0
 22 23  1  0
 22 24  1  0
 24 25  2  0
 25 26  1  0
 25 27  1  0
 27 28  1  0
 27 29  2  0
 29 30  1  0
 29 31  1  0
 31 32  1  0
 31 33  2  0
 17 34  2  0
 34  2  1  0
 13  5  1  0
 33 18  1  0
 33 24  1  0
M  END
>  <cnnaffinity>  (1) 
-5.29532

>  <filename>  (1) 
c1cncc(-c2cc(-c3cncc4ccccc34)ncn2)c1

$$$$
