
     RDKit          3D

 33 36  0  0  0  0  0  0  0  0999 V2000
    4.9943    1.8446   16.9215 H   0  0  0  0  0  0  0  0  0  0  0  0
    5.3880    1.3086   17.7834 C   0  0  0  0  0  0  0  0  0  0  0  0
    6.5412    0.6469   17.5956 N   0  0  0  0  0  0  0  0  0  0  0  0
    7.0669    0.0232   18.6590 C   0  0  0  0  0  0  0  0  0  0  0  0
    8.0067   -0.4962   18.4748 H   0  0  0  0  0  0  0  0  0  0  0  0
    6.4828   -0.0099   19.9454 C   0  0  0  0  0  0  0  0  0  0  0  0
    7.2362   -0.6275   21.0589 C   0  0  0  0  0  0  0  0  0  0  0  0
    8.5923   -0.5767   21.2917 C   0  0  0  0  0  0  0  0  0  0  0  0
    8.8047   -1.1798   22.5210 C   0  0  0  0  0  0  0  0  0  0  0  0
    7.6910   -1.6339   23.0642 N   0  0  0  0  0  0  0  0  0  0  0  0
    6.7377   -1.2801   22.1603 N   0  0  0  0  0  0  0  0  0  0  0  0
    5.7783   -1.5170   22.3737 H   0  0  0  0  0  0  0  0  0  0  0  0
   10.2357   -1.1286   22.9569 C   0  0  0  0  0  0  0  0  0  0  0  0
   10.3580   -0.6492   23.9339 H   0  0  0  0  0  0  0  0  0  0  0  0
   10.6470   -2.1379   23.0484 H   0  0  0  0  0  0  0  0  0  0  0  0
   10.9357   -0.3125   21.8123 C   0  0  2  0  0  0  0  0  0  0  0  0
   11.7249   -0.9421   21.3960 H   0  0  0  0  0  0  0  0  0  0  0  0
   11.5738    0.9715   22.3076 C   0  0  0  0  0  0  0  0  0  0  0  0
   10.7786    2.0040   22.8473 C   0  0  0  0  0  0  0  0  0  0  0  0
    9.7037    1.8892   22.9151 H   0  0  0  0  0  0  0  0  0  0  0  0
   11.2615    3.1658   23.3079 N   0  0  0  0  0  0  0  0  0  0  0  0
   12.5750    3.4032   23.2531 N   0  0  0  0  0  0  0  0  0  0  0  0
   13.3887    2.4660   22.7550 C   0  0  0  0  0  0  0  0  0  0  0  0
   14.4402    2.7221   22.7121 H   0  0  0  0  0  0  0  0  0  0  0  0
   12.9402    1.2240   22.2901 C   0  0  0  0  0  0  0  0  0  0  0  0
   13.6579    0.4922   21.9242 H   0  0  0  0  0  0  0  0  0  0  0  0
    9.8592   -0.0734   20.6961 C   0  0  0  0  0  0  0  0  0  0  0  0
    9.7818    0.9748   20.3842 H   0  0  0  0  0  0  0  0  0  0  0  0
   10.1184   -0.6418   19.8014 H   0  0  0  0  0  0  0  0  0  0  0  0
    5.2581    0.6656   20.1077 C   0  0  0  0  0  0  0  0  0  0  0  0
    4.7615    0.7083   21.0805 H   0  0  0  0  0  0  0  0  0  0  0  0
    4.7163    1.3375   19.0115 C   0  0  0  0  0  0  0  0  0  0  0  0
    3.8012    1.9130   19.0957 H   0  0  0  0  0  0  0  0  0  0  0  0
  1  2  1  0
  2  3  2  0
  3  4  1  0
  4  5  1  0
  4  6  2  0
  6  7  1  0
  7  8  2  0
  8  9  1  0
  9 10  2  0
 10 11  1  0
 11 12  1  0
  9 13  1  0
 13 14  1  0
 13 15  1  0
 13 16  1  0
 16 17  1  6
 16 18  1  0
 18 19  2  0
 19 20  1  0
 19 21  1  0
 21 22  2  0
 22 23  1  0
 23 24  1  0
 23 25  2  0
 25 26  1  0
 16 27  1  0
 27 28  1  0
 27 29  1  0
  6 30  1  0
 30 31  1  0
 30 32  2  0
 32 33  1  0
 32  2  1  0
 11  7  1  0
 25 18  1  0
 27  8  1  0
M  END
>  <cnnaffinity>  (1) 
-5.64137

>  <filename>  (1) 
c1cncc(-c2[nH]nc3c2C[C@@H](c2ccnnc2)C3)c1

$$$$
