
     RDKit          3D

 28 31  0  0  0  0  0  0  0  0999 V2000
    4.9497    1.7765   16.9792 H   0  0  0  0  0  0  0  0  0  0  0  0
    5.4099    1.2893   17.8372 C   0  0  0  0  0  0  0  0  0  0  0  0
    6.5725    0.6592   17.6055 N   0  0  0  0  0  0  0  0  0  0  0  0
    7.1612    0.0786   18.6538 C   0  0  0  0  0  0  0  0  0  0  0  0
    8.1073   -0.4143   18.4359 H   0  0  0  0  0  0  0  0  0  0  0  0
    6.6572    0.0891   19.9708 C   0  0  0  0  0  0  0  0  0  0  0  0
    7.4373   -0.6008   21.0222 C   0  0  0  0  0  0  0  0  0  0  0  0
    8.3112   -1.6127   20.8583 C   0  0  0  0  0  0  0  0  0  0  0  0
    8.7373   -1.9648   19.9376 H   0  0  0  0  0  0  0  0  0  0  0  0
    8.8838   -2.2921   22.3543 S   0  0  0  0  0  0  0  0  0  0  0  0
    8.0777   -1.0276   23.2265 C   0  0  0  0  0  0  0  0  0  0  0  0
    8.0944   -0.5130   24.4392 N   0  0  0  0  0  0  0  0  0  0  0  0
    7.3292    0.6013   24.2586 C   0  0  0  0  0  0  0  0  0  0  0  0
    7.0558    1.5813   25.3277 C   0  0  0  0  0  0  0  0  0  0  0  0
    7.5848    1.3764   26.6149 C   0  0  0  0  0  0  0  0  0  0  0  0
    8.2027    0.5165   26.8403 H   0  0  0  0  0  0  0  0  0  0  0  0
    7.3652    2.2144   27.6325 N   0  0  0  0  0  0  0  0  0  0  0  0
    6.6168    3.3097   27.4555 N   0  0  0  0  0  0  0  0  0  0  0  0
    6.0929    3.5656   26.2494 C   0  0  0  0  0  0  0  0  0  0  0  0
    5.4981    4.4677   26.1714 H   0  0  0  0  0  0  0  0  0  0  0  0
    6.2884    2.7303   25.1403 C   0  0  0  0  0  0  0  0  0  0  0  0
    5.8627    2.9687   24.1669 H   0  0  0  0  0  0  0  0  0  0  0  0
    6.8498    0.7924   23.0384 N   0  0  0  0  0  0  0  0  0  0  0  0
    7.3326   -0.2857   22.3803 N   0  0  0  0  0  0  0  0  0  0  0  0
    5.4249    0.7369   20.1889 C   0  0  0  0  0  0  0  0  0  0  0  0
    4.9889    0.7813   21.1915 H   0  0  0  0  0  0  0  0  0  0  0  0
    4.7969    1.3313   19.0952 C   0  0  0  0  0  0  0  0  0  0  0  0
    3.8448    1.8421   19.2016 H   0  0  0  0  0  0  0  0  0  0  0  0
  1  2  1  0
  2  3  2  0
  3  4  1  0
  4  5  1  0
  4  6  2  0
  6  7  1  0
  7  8  2  0
  8  9  1  0
  8 10  1  0
 10 11  1  0
 11 12  2  0
 12 13  1  0
 13 14  1  0
 14 15  2  0
 15 16  1  0
 15 17  1  0
 17 18  2  0
 18 19  1  0
 19 20  1  0
 19 21  2  0
 21 22  1  0
 13 23  2  0
 23 24  1  0
  6 25  1  0
 25 26  1  0
 25 27  2  0
 27 28  1  0
 27  2  1  0
 24  7  1  0
 24 11  1  0
 21 14  1  0
M  END
>  <cnnaffinity>  (1) 
-5.2086

>  <filename>  (1) 
c1cncc(-c2csc3nc(-c4ccnnc4)nn23)c1

$$$$
