
     RDKit          3D

 29 32  0  0  0  0  0  0  0  0999 V2000
    4.9655    1.8380   16.9419 H   0  0  0  0  0  0  0  0  0  0  0  0
    5.4094    1.3031   17.7750 C   0  0  0  0  0  0  0  0  0  0  0  0
    6.5604    0.6644   17.5192 N   0  0  0  0  0  0  0  0  0  0  0  0
    7.1431    0.0075   18.5274 C   0  0  0  0  0  0  0  0  0  0  0  0
    8.0962   -0.4680   18.2982 H   0  0  0  0  0  0  0  0  0  0  0  0
    6.6118   -0.0499   19.8300 C   0  0  0  0  0  0  0  0  0  0  0  0
    7.3707   -0.6797   20.9288 C   0  0  0  0  0  0  0  0  0  0  0  0
    8.4867   -1.3904   20.6995 N   0  0  0  0  0  0  0  0  0  0  0  0
    8.9150   -1.6787   21.9450 N   0  0  0  0  0  0  0  0  0  0  0  0
   10.0700   -2.2490   22.4588 C   0  0  0  0  0  0  0  0  0  0  0  0
   10.8078   -2.6431   21.7851 H   0  0  0  0  0  0  0  0  0  0  0  0
   10.0013   -2.0815   23.8082 C   0  0  0  0  0  0  0  0  0  0  0  0
   10.6833   -2.3907   24.5829 H   0  0  0  0  0  0  0  0  0  0  0  0
    8.8017   -1.4300   24.1289 N   0  0  0  0  0  0  0  0  0  0  0  0
    8.3546   -0.9714   25.3910 C   0  0  0  0  0  0  0  0  0  0  0  0
    7.0306   -0.7977   25.6886 C   0  0  0  0  0  0  0  0  0  0  0  0
    6.2024   -1.0168   25.0277 H   0  0  0  0  0  0  0  0  0  0  0  0
    6.7979   -0.0895   27.2307 S   0  0  0  0  0  0  0  0  0  0  0  0
    8.4951   -0.0418   27.5144 C   0  0  0  0  0  0  0  0  0  0  0  0
    8.8712    0.3672   28.4452 H   0  0  0  0  0  0  0  0  0  0  0  0
    9.2074   -0.5298   26.4615 C   0  0  0  0  0  0  0  0  0  0  0  0
   10.2935   -0.5203   26.4037 H   0  0  0  0  0  0  0  0  0  0  0  0
    8.1386   -1.1849   22.9283 C   0  0  0  0  0  0  0  0  0  0  0  0
    7.0791   -0.5371   22.3083 C   0  0  0  0  0  0  0  0  0  0  0  0
    6.2604    0.0146   22.7377 H   0  0  0  0  0  0  0  0  0  0  0  0
    5.3969    0.6192   20.0704 C   0  0  0  0  0  0  0  0  0  0  0  0
    4.9508    0.6451   21.0658 H   0  0  0  0  0  0  0  0  0  0  0  0
    4.7884    1.3045   19.0261 C   0  0  0  0  0  0  0  0  0  0  0  0
    3.8694    1.8582   19.1782 H   0  0  0  0  0  0  0  0  0  0  0  0
  1  2  1  0
  2  3  2  0
  3  4  1  0
  4  5  1  0
  4  6  2  0
  6  7  1  0
  7  8  2  0
  8  9  1  0
  9 10  1  0
 10 11  1  0
 10 12  2  0
 12 13  1  0
 12 14  1  0
 14 15  1  0
 15 16  2  0
 16 17  1  0
 16 18  1  0
 18 19  1  0
 19 20  1  0
 19 21  2  0
 21 22  1  0
 14 23  1  0
 23 24  2  0
 24 25  1  0
  6 26  1  0
 26 27  1  0
 26 28  2  0
 28 29  1  0
 28  2  1  0
 24  7  1  0
 23  9  1  0
 21 15  1  0
M  END
>  <cnnaffinity>  (1) 
-5.38112

>  <filename>  (1) 
c1cncc(-c2cc3n(-c4ccsc4)ccn3n2)c1

$$$$
