
     RDKit          3D

 31 33  0  0  0  0  0  0  0  0999 V2000
    4.9107    1.7814   16.9950 H   0  0  0  0  0  0  0  0  0  0  0  0
    5.3985    1.2957   17.8358 C   0  0  0  0  0  0  0  0  0  0  0  0
    6.5617    0.6794   17.5705 N   0  0  0  0  0  0  0  0  0  0  0  0
    7.1706    0.0694   18.5930 C   0  0  0  0  0  0  0  0  0  0  0  0
    8.1133   -0.4285   18.3690 H   0  0  0  0  0  0  0  0  0  0  0  0
    6.6599    0.0071   19.9041 C   0  0  0  0  0  0  0  0  0  0  0  0
    7.3726   -0.7186   20.9877 C   0  0  0  0  0  0  0  0  0  0  0  0
    8.7669   -0.5870   21.1594 C   0  0  0  0  0  0  0  0  0  0  0  0
    9.3305    0.0606   20.4914 H   0  0  0  0  0  0  0  0  0  0  0  0
    9.4511   -1.2004   22.1320 N   0  0  0  0  0  0  0  0  0  0  0  0
    8.7580   -1.9872   22.9660 C   0  0  0  0  0  0  0  0  0  0  0  0
    9.3198   -2.4686   23.7551 H   0  0  0  0  0  0  0  0  0  0  0  0
    7.3583   -2.2195   22.8902 C   0  0  0  0  0  0  0  0  0  0  0  0
    6.6648   -3.0651   23.7806 N   0  0  0  0  0  0  0  0  0  0  0  0
    5.7164   -2.8025   24.0096 H   0  0  0  0  0  0  0  0  0  0  0  0
    7.1471   -4.1973   24.4121 C   0  0  0  0  0  0  0  0  0  0  0  0
    6.6745   -4.5644   25.6735 C   0  0  0  0  0  0  0  0  0  0  0  0
    5.9389   -3.9657   26.1951 H   0  0  0  0  0  0  0  0  0  0  0  0
    7.2063   -5.7041   26.2653 C   0  0  0  0  0  0  0  0  0  0  0  0
    6.8633   -6.0194   27.2462 H   0  0  0  0  0  0  0  0  0  0  0  0
    8.1351   -6.4812   25.6990 N   0  0  0  0  0  0  0  0  0  0  0  0
    8.5569   -6.1217   24.4827 C   0  0  0  0  0  0  0  0  0  0  0  0
    9.2919   -6.7700   24.0179 H   0  0  0  0  0  0  0  0  0  0  0  0
    8.1030   -5.0077   23.7990 C   0  0  0  0  0  0  0  0  0  0  0  0
    8.4720   -4.7727   22.8111 H   0  0  0  0  0  0  0  0  0  0  0  0
    6.6676   -1.5420   21.8807 C   0  0  0  0  0  0  0  0  0  0  0  0
    5.5938   -1.6739   21.7549 H   0  0  0  0  0  0  0  0  0  0  0  0
    5.4370    0.6498   20.1509 C   0  0  0  0  0  0  0  0  0  0  0  0
    5.0128    0.6348   21.1583 H   0  0  0  0  0  0  0  0  0  0  0  0
    4.8041    1.3165   19.1031 C   0  0  0  0  0  0  0  0  0  0  0  0
    3.8702    1.8466   19.2591 H   0  0  0  0  0  0  0  0  0  0  0  0
  1  2  1  0
  2  3  2  0
  3  4  1  0
  4  5  1  0
  4  6  2  0
  6  7  1  0
  7  8  2  0
  8  9  1  0
  8 10  1  0
 10 11  2  0
 11 12  1  0
 11 13  1  0
 13 14  1  0
 14 15  1  0
 14 16  1  0
 16 17  2  0
 17 18  1  0
 17 19  1  0
 19 20  1  0
 19 21  2  0
 21 22  1  0
 22 23  1  0
 22 24  2  0
 24 25  1  0
 13 26  2  0
 26 27  1  0
  6 28  1  0
 28 29  1  0
 28 30  2  0
 30 31  1  0
 30  2  1  0
 26  7  1  0
 24 16  1  0
M  END
>  <cnnaffinity>  (1) 
-5.34077

>  <filename>  (1) 
c1cncc(-c2cncc(Nc3ccncc3)c2)c1

$$$$
