
     RDKit          3D

 29 31  0  0  0  0  0  0  0  0999 V2000
    4.9220    1.9417   16.6411 H   0  0  0  0  0  0  0  0  0  0  0  0
    5.3637    1.3950   17.4719 C   0  0  0  0  0  0  0  0  0  0  0  0
    6.4824    0.7018   17.2028 N   0  0  0  0  0  0  0  0  0  0  0  0
    7.0692    0.0602   18.2234 C   0  0  0  0  0  0  0  0  0  0  0  0
    7.9659   -0.5028   17.9669 H   0  0  0  0  0  0  0  0  0  0  0  0
    6.5997    0.0737   19.5580 C   0  0  0  0  0  0  0  0  0  0  0  0
    7.3701   -0.5015   20.6851 C   0  0  0  0  0  0  0  0  0  0  0  0
    6.9605   -0.6300   22.0456 C   0  0  0  0  0  0  0  0  0  0  0  0
    5.9808   -0.4318   22.4552 H   0  0  0  0  0  0  0  0  0  0  0  0
    7.9370   -1.0627   22.8243 N   0  0  0  0  0  0  0  0  0  0  0  0
    8.9785   -1.1894   22.0115 N   0  0  0  0  0  0  0  0  0  0  0  0
   10.1229   -1.7202   22.5733 N   0  0  0  0  0  0  0  0  0  0  0  0
    9.8293   -1.8123   23.5406 H   0  0  0  0  0  0  0  0  0  0  0  0
   11.3214   -0.9614   22.4685 C   0  0  0  0  0  0  0  0  0  0  0  0
   12.5228   -1.6118   22.2205 C   0  0  0  0  0  0  0  0  0  0  0  0
   12.5402   -2.6877   22.1466 H   0  0  0  0  0  0  0  0  0  0  0  0
   13.6837   -0.8538   22.1552 C   0  0  0  0  0  0  0  0  0  0  0  0
   14.6305   -1.3563   21.9593 H   0  0  0  0  0  0  0  0  0  0  0  0
   13.7219    0.4672   22.3714 N   0  0  0  0  0  0  0  0  0  0  0  0
   12.5582    1.0748   22.6453 C   0  0  0  0  0  0  0  0  0  0  0  0
   12.6304    2.1358   22.8745 H   0  0  0  0  0  0  0  0  0  0  0  0
   11.3286    0.4171   22.6790 C   0  0  0  0  0  0  0  0  0  0  0  0
   10.4054    0.9373   22.8893 H   0  0  0  0  0  0  0  0  0  0  0  0
    8.6976   -0.9166   20.7205 C   0  0  0  0  0  0  0  0  0  0  0  0
    9.5016   -1.0304   20.0076 H   0  0  0  0  0  0  0  0  0  0  0  0
    5.3896    0.7520   19.7868 C   0  0  0  0  0  0  0  0  0  0  0  0
    4.9594    0.7709   20.7872 H   0  0  0  0  0  0  0  0  0  0  0  0
    4.7701    1.4273   18.7376 C   0  0  0  0  0  0  0  0  0  0  0  0
    3.8570    1.9904   18.8965 H   0  0  0  0  0  0  0  0  0  0  0  0
  1  2  1  0
  2  3  2  0
  3  4  1  0
  4  5  1  0
  4  6  2  0
  6  7  1  0
  7  8  1  0
  8  9  1  0
  8 10  2  0
 10 11  1  0
 11 12  1  0
 12 13  1  0
 12 14  1  0
 14 15  2  0
 15 16  1  0
 15 17  1  0
 17 18  1  0
 17 19  2  0
 19 20  1  0
 20 21  1  0
 20 22  2  0
 22 23  1  0
 11 24  1  0
 24 25  1  0
  6 26  1  0
 26 27  1  0
 26 28  2  0
 28 29  1  0
 28  2  1  0
 24  7  2  0
 22 14  1  0
M  END
>  <cnnaffinity>  (1) 
-4.76721

>  <filename>  (1) 
c1cncc(-c2cnn(Nc3ccncc3)c2)c1

$$$$
