
     RDKit          3D

 30 33  0  0  0  0  0  0  0  0999 V2000
    4.8090    1.3003   19.1079 C   0  0  0  0  0  0  0  0  0  0  0  0
    5.4075    1.2903   17.8442 C   0  0  0  0  0  0  0  0  0  0  0  0
    6.5761    0.6723   17.5959 N   0  0  0  0  0  0  0  0  0  0  0  0
    7.1773    0.0401   18.6070 C   0  0  0  0  0  0  0  0  0  0  0  0
    6.6511   -0.0116   19.9079 C   0  0  0  0  0  0  0  0  0  0  0  0
    7.3607   -0.6953   20.9347 N   0  0  0  0  0  0  0  0  0  0  0  0
    7.8590   -1.9288   20.7115 N   0  0  0  0  0  0  0  0  0  0  0  0
    8.3414   -2.3229   21.8796 C   0  0  0  0  0  0  0  0  0  0  0  0
    8.1768   -1.3510   22.8782 C   0  0  0  0  0  0  0  0  0  0  0  0
    7.5565   -0.2995   22.2402 C   0  0  0  0  0  0  0  0  0  0  0  0
    7.2439    1.0297   22.7854 C   0  0  0  0  0  0  0  0  0  0  0  0
    7.5244    2.2141   22.0442 C   0  0  0  0  0  0  0  0  0  0  0  0
    7.2589    3.4577   22.5772 C   0  0  0  0  0  0  0  0  0  0  0  0
    6.7161    3.5335   23.8779 C   0  0  0  0  0  0  0  0  0  0  0  0
    6.3567    4.6972   24.6496 C   0  0  0  0  0  0  0  0  0  0  0  0
    5.8866    4.4930   25.8386 N   0  0  0  0  0  0  0  0  0  0  0  0
    5.8161    2.8342   26.1789 S   0  0  0  0  0  0  0  0  0  0  0  0
    6.4556    2.3680   24.6272 C   0  0  0  0  0  0  0  0  0  0  0  0
    6.7278    1.1113   24.0808 C   0  0  0  0  0  0  0  0  0  0  0  0
    6.5329    0.2051   24.6422 H   0  0  0  0  0  0  0  0  0  0  0  0
    6.4657    5.7150   24.2806 H   0  0  0  0  0  0  0  0  0  0  0  0
    7.4553    4.3679   22.0063 H   0  0  0  0  0  0  0  0  0  0  0  0
    7.9422    2.1242   21.0437 H   0  0  0  0  0  0  0  0  0  0  0  0
    8.5070   -1.3684   23.9062 H   0  0  0  0  0  0  0  0  0  0  0  0
    8.7986   -3.2979   21.9801 H   0  0  0  0  0  0  0  0  0  0  0  0
    5.4309    0.6324   20.1637 C   0  0  0  0  0  0  0  0  0  0  0  0
    5.0113    0.6373   21.1723 H   0  0  0  0  0  0  0  0  0  0  0  0
    8.1248   -0.4406   18.3801 H   0  0  0  0  0  0  0  0  0  0  0  0
    4.9240    1.7797   16.9987 H   0  0  0  0  0  0  0  0  0  0  0  0
    3.8796    1.8385   19.2604 H   0  0  0  0  0  0  0  0  0  0  0  0
  1  2  2  0
  2  3  1  0
  3  4  2  0
  4  5  1  0
  5  6  1  0
  6  7  1  0
  7  8  2  0
  8  9  1  0
  9 10  2  0
 10 11  1  0
 11 12  2  0
 12 13  1  0
 13 14  2  0
 14 15  1  0
 15 16  2  0
 16 17  1  0
 17 18  1  0
 18 19  2  0
 19 20  1  0
 15 21  1  0
 13 22  1  0
 12 23  1  0
  9 24  1  0
  8 25  1  0
  5 26  2  0
 26 27  1  0
  4 28  1  0
  2 29  1  0
  1 30  1  0
 26  1  1  0
 10  6  1  0
 19 11  1  0
 18 14  1  0
M  END
>  <cnnaffinity>  (1) 
-5.26322

>  <filename>  (1) 
c1cncc(-n2nccc2-c2ccc3cnsc3c2)c1

$$$$
