
     RDKit          3D

 27 29  0  0  0  0  0  0  0  0999 V2000
    7.4242   -5.7327   24.6920 H   0  0  0  0  0  0  0  0  0  0  0  0
    7.8068   -4.9044   24.1067 C   0  0  0  0  0  0  0  0  0  0  0  0
    7.0008   -4.4156   23.1492 N   0  0  0  0  0  0  0  0  0  0  0  0
    7.4995   -3.3796   22.4462 C   0  0  0  0  0  0  0  0  0  0  0  0
    6.8812   -2.9590   21.6649 H   0  0  0  0  0  0  0  0  0  0  0  0
    8.7916   -2.8446   22.6797 C   0  0  0  0  0  0  0  0  0  0  0  0
    9.2915   -1.7142   21.8897 C   0  0  0  0  0  0  0  0  0  0  0  0
    8.6460   -0.7740   21.0992 C   0  0  0  0  0  0  0  0  0  0  0  0
    7.2831   -0.7026   20.9437 O   0  0  0  0  0  0  0  0  0  0  0  0
    6.6866    0.0103   19.9167 C   0  0  0  0  0  0  0  0  0  0  0  0
    7.1870    0.0536   18.6012 C   0  0  0  0  0  0  0  0  0  0  0  0
    8.1278   -0.4363   18.3655 H   0  0  0  0  0  0  0  0  0  0  0  0
    6.5642    0.6708   17.5876 N   0  0  0  0  0  0  0  0  0  0  0  0
    5.4034    1.2903   17.8427 C   0  0  0  0  0  0  0  0  0  0  0  0
    4.9159    1.7797   16.9996 H   0  0  0  0  0  0  0  0  0  0  0  0
    4.8206    1.3019   19.1157 C   0  0  0  0  0  0  0  0  0  0  0  0
    3.8862    1.8321   19.2674 H   0  0  0  0  0  0  0  0  0  0  0  0
    5.4622    0.6421   20.1719 C   0  0  0  0  0  0  0  0  0  0  0  0
    5.0296    0.6141   21.1724 H   0  0  0  0  0  0  0  0  0  0  0  0
    9.6591    0.0828   20.6317 C   0  0  0  0  0  0  0  0  0  0  0  0
    9.5524    0.9506   20.0018 H   0  0  0  0  0  0  0  0  0  0  0  0
   10.8484   -0.2993   21.0821 N   0  0  0  0  0  0  0  0  0  0  0  0
   10.6102   -1.3753   21.8214 N   0  0  0  0  0  0  0  0  0  0  0  0
   11.3714   -1.8444   22.2925 H   0  0  0  0  0  0  0  0  0  0  0  0
    9.6081   -3.3760   23.6273 N   0  0  0  0  0  0  0  0  0  0  0  0
    9.0974   -4.3893   24.3434 C   0  0  0  0  0  0  0  0  0  0  0  0
    9.7296   -4.8162   25.1160 H   0  0  0  0  0  0  0  0  0  0  0  0
  1  2  1  0
  2  3  2  0
  3  4  1  0
  4  5  1  0
  4  6  2  0
  6  7  1  0
  7  8  2  0
  8  9  1  0
  9 10  1  0
 10 11  2  0
 11 12  1  0
 11 13  1  0
 13 14  2  0
 14 15  1  0
 14 16  1  0
 16 17  1  0
 16 18  2  0
 18 19  1  0
  8 20  1  0
 20 21  1  0
 20 22  2  0
 22 23  1  0
 23 24  1  0
  6 25  1  0
 25 26  2  0
 26 27  1  0
 26  2  1  0
 23  7  1  0
 18 10  1  0
M  END
>  <cnnaffinity>  (1) 
-5.458

>  <filename>  (1) 
c1cncc(Oc2cn[nH]c2-c2cnccn2)c1

$$$$
