
     RDKit          3D

 38 40  0  0  0  0  0  0  0  0999 V2000
    4.8913    1.8794   16.8086 H   0  0  0  0  0  0  0  0  0  0  0  0
    5.3357    1.3821   17.6682 C   0  0  0  0  0  0  0  0  0  0  0  0
    6.5149    0.7727   17.4581 N   0  0  0  0  0  0  0  0  0  0  0  0
    7.1001    0.1757   18.5086 C   0  0  0  0  0  0  0  0  0  0  0  0
    8.0478   -0.3215   18.3044 H   0  0  0  0  0  0  0  0  0  0  0  0
    6.5600    0.1336   19.8253 C   0  0  0  0  0  0  0  0  0  0  0  0
    7.2362   -0.4555   20.9209 N   0  0  0  0  0  0  0  0  0  0  0  0
    6.5614   -1.3337   21.8702 C   0  0  0  0  0  0  0  0  0  0  0  0
    5.5653   -1.5689   21.4759 H   0  0  0  0  0  0  0  0  0  0  0  0
    6.4269   -0.8282   22.8425 H   0  0  0  0  0  0  0  0  0  0  0  0
    7.2762   -2.6759   22.1478 C   0  0  0  0  0  0  0  0  0  0  0  0
    6.5711   -3.2775   22.7347 H   0  0  0  0  0  0  0  0  0  0  0  0
    7.4176   -3.2055   21.1880 H   0  0  0  0  0  0  0  0  0  0  0  0
    8.5308   -2.5505   22.9074 N   0  0  0  0  0  0  0  0  0  0  0  0
    8.7488   -3.6509   23.8637 C   0  0  0  0  0  0  0  0  0  0  0  0
    9.7716   -3.5811   24.2660 H   0  0  0  0  0  0  0  0  0  0  0  0
    8.6725   -4.6533   23.3944 H   0  0  0  0  0  0  0  0  0  0  0  0
    7.7801   -3.5752   25.0287 C   0  0  0  0  0  0  0  0  0  0  0  0
    7.8079   -2.1546   26.0190 S   0  0  0  0  0  0  0  0  0  0  0  0
    6.4820   -2.7112   26.9590 C   0  0  0  0  0  0  0  0  0  0  0  0
    6.0785   -2.0818   27.7468 H   0  0  0  0  0  0  0  0  0  0  0  0
    6.0565   -3.9378   26.5591 C   0  0  0  0  0  0  0  0  0  0  0  0
    5.2225   -4.4647   27.0199 H   0  0  0  0  0  0  0  0  0  0  0  0
    6.8198   -4.4492   25.4605 C   0  0  0  0  0  0  0  0  0  0  0  0
    6.6350   -5.4299   25.0219 H   0  0  0  0  0  0  0  0  0  0  0  0
    9.7109   -2.2467   22.1036 C   0  0  0  0  0  0  0  0  0  0  0  0
   10.0100   -3.1139   21.5020 H   0  0  0  0  0  0  0  0  0  0  0  0
   10.5327   -2.0619   22.8032 H   0  0  0  0  0  0  0  0  0  0  0  0
    9.6278   -1.0764   21.1089 C   0  0  0  0  0  0  0  0  0  0  0  0
   10.6257   -0.6144   21.0650 H   0  0  0  0  0  0  0  0  0  0  0  0
    9.4188   -1.5010   20.1210 H   0  0  0  0  0  0  0  0  0  0  0  0
    8.5640   -0.0025   21.3291 C   0  0  0  0  0  0  0  0  0  0  0  0
    8.5316    0.3194   22.3838 H   0  0  0  0  0  0  0  0  0  0  0  0
    8.8360    0.8708   20.7215 H   0  0  0  0  0  0  0  0  0  0  0  0
    5.2987    0.7403   19.9940 C   0  0  0  0  0  0  0  0  0  0  0  0
    4.8396    0.7157   20.9799 H   0  0  0  0  0  0  0  0  0  0  0  0
    4.6890    1.3800   18.9096 C   0  0  0  0  0  0  0  0  0  0  0  0
    3.7339    1.8853   19.0210 H   0  0  0  0  0  0  0  0  0  0  0  0
  1  2  1  0
  2  3  2  0
  3  4  1  0
  4  5  1  0
  4  6  2  0
  6  7  1  0
  7  8  1  0
  8  9  1  0
  8 10  1  0
  8 11  1  0
 11 12  1  0
 11 13  1  0
 11 14  1  0
 14 15  1  0
 15 16  1  0
 15 17  1  0
 15 18  1  0
 18 19  1  0
 19 20  1  0
 20 21  1  0
 20 22  2  0
 22 23  1  0
 22 24  1  0
 24 25  1  0
 14 26  1  0
 26 27  1  0
 26 28  1  0
 26 29  1  0
 29 30  1  0
 29 31  1  0
 29 32  1  0
 32 33  1  0
 32 34  1  0
  6 35  1  0
 35 36  1  0
 35 37  2  0
 37 38  1  0
 37  2  1  0
 32  7  1  0
 24 18  2  0
M  END
>  <cnnaffinity>  (1) 
-5.08669

>  <filename>  (1) 
c1cncc(N2CCCN(Cc3cccs3)CC2)c1

$$$$
