
     RDKit          3D

 39 42  0  0  0  0  0  0  0  0999 V2000
    4.9098    1.8875   16.9104 H   0  0  0  0  0  0  0  0  0  0  0  0
    5.3741    1.3283   17.7207 C   0  0  0  0  0  0  0  0  0  0  0  0
    6.5118    0.6822   17.4177 N   0  0  0  0  0  0  0  0  0  0  0  0
    7.1253    0.0177   18.4028 C   0  0  0  0  0  0  0  0  0  0  0  0
    8.0552   -0.4765   18.1238 H   0  0  0  0  0  0  0  0  0  0  0  0
    6.6564   -0.0436   19.7288 C   0  0  0  0  0  0  0  0  0  0  0  0
    7.4493   -0.6325   20.8242 C   0  0  0  0  0  0  0  0  0  0  0  0
    7.6306   -0.1645   22.1046 C   0  0  0  0  0  0  0  0  0  0  0  0
    8.5389   -1.0357   22.7046 C   0  0  0  0  0  0  0  0  0  0  0  0
    8.9135   -2.0143   21.9052 N   0  0  0  0  0  0  0  0  0  0  0  0
    8.2467   -1.7408   20.7537 N   0  0  0  0  0  0  0  0  0  0  0  0
    8.2915   -2.4099   19.9968 H   0  0  0  0  0  0  0  0  0  0  0  0
    8.8622   -0.6434   24.1148 C   0  0  0  0  0  0  0  0  0  0  0  0
    9.9365   -0.6446   24.3202 H   0  0  0  0  0  0  0  0  0  0  0  0
    8.3631   -1.3042   24.8353 H   0  0  0  0  0  0  0  0  0  0  0  0
    8.2329    0.7771   24.2237 C   0  0  2  0  0  0  0  0  0  0  0  0
    9.0292    1.5210   24.0331 H   0  0  0  0  0  0  0  0  0  0  0  0
    7.5986    0.9755   25.5149 N   0  0  0  0  0  0  0  0  0  0  0  0
    6.8245    1.6259   25.4403 H   0  0  0  0  0  0  0  0  0  0  0  0
    8.4293    1.3411   26.6614 C   0  0  0  0  0  0  0  0  0  0  0  0
    9.1752    0.5487   26.8210 H   0  0  0  0  0  0  0  0  0  0  0  0
    8.9959    2.2807   26.5260 H   0  0  0  0  0  0  0  0  0  0  0  0
    7.5594    1.4269   27.9035 C   0  0  0  0  0  0  0  0  0  0  0  0
    6.9748    0.2576   28.4184 C   0  0  0  0  0  0  0  0  0  0  0  0
    7.1175   -0.6992   27.9240 H   0  0  0  0  0  0  0  0  0  0  0  0
    6.2199    0.3292   29.5870 C   0  0  0  0  0  0  0  0  0  0  0  0
    5.8112   -0.5848   30.0177 H   0  0  0  0  0  0  0  0  0  0  0  0
    5.9760    1.4723   30.2426 N   0  0  0  0  0  0  0  0  0  0  0  0
    6.4897    2.5953   29.7239 C   0  0  0  0  0  0  0  0  0  0  0  0
    6.2500    3.5221   30.2448 H   0  0  0  0  0  0  0  0  0  0  0  0
    7.2872    2.6293   28.5745 C   0  0  0  0  0  0  0  0  0  0  0  0
    7.6644    3.5822   28.2053 H   0  0  0  0  0  0  0  0  0  0  0  0
    7.1853    0.8869   23.0751 C   0  0  0  0  0  0  0  0  0  0  0  0
    7.1261    1.8978   22.6521 H   0  0  0  0  0  0  0  0  0  0  0  0
    6.1982    0.6319   23.4940 H   0  0  0  0  0  0  0  0  0  0  0  0
    5.4384    0.5981   20.0082 C   0  0  0  0  0  0  0  0  0  0  0  0
    5.0019    0.5416   21.0057 H   0  0  0  0  0  0  0  0  0  0  0  0
    4.7922    1.2981   18.9912 C   0  0  0  0  0  0  0  0  0  0  0  0
    3.8704    1.8379   19.1706 H   0  0  0  0  0  0  0  0  0  0  0  0
  1  2  1  0
  2  3  2  0
  3  4  1  0
  4  5  1  0
  4  6  2  0
  6  7  1  0
  7  8  2  0
  8  9  1  0
  9 10  2  0
 10 11  1  0
 11 12  1  0
  9 13  1  0
 13 14  1  0
 13 15  1  0
 13 16  1  0
 16 17  1  6
 16 18  1  0
 18 19  1  0
 18 20  1  0
 20 21  1  0
 20 22  1  0
 20 23  1  0
 23 24  2  0
 24 25  1  0
 24 26  1  0
 26 27  1  0
 26 28  2  0
 28 29  1  0
 29 30  1  0
 29 31  2  0
 31 32  1  0
 16 33  1  0
 33 34  1  0
 33 35  1  0
  6 36  1  0
 36 37  1  0
 36 38  2  0
 38 39  1  0
 38  2  1  0
 11  7  1  0
 31 23  1  0
 33  8  1  0
M  END
>  <cnnaffinity>  (1) 
-4.91708

>  <filename>  (1) 
c1cncc(-c2[nH]nc3c2C[C@@H](NCc2ccncc2)C3)c1

$$$$
