
     RDKit          3D

 28 31  0  0  0  0  0  0  0  0999 V2000
    4.9229    1.7719   17.0040 H   0  0  0  0  0  0  0  0  0  0  0  0
    5.4100    1.2856   17.8472 C   0  0  0  0  0  0  0  0  0  0  0  0
    6.5749    0.6682   17.5953 N   0  0  0  0  0  0  0  0  0  0  0  0
    7.1815    0.0536   18.6154 C   0  0  0  0  0  0  0  0  0  0  0  0
    8.1267   -0.4330   18.3841 H   0  0  0  0  0  0  0  0  0  0  0  0
    6.6471    0.0154   19.9109 C   0  0  0  0  0  0  0  0  0  0  0  0
    7.3615   -0.6885   20.9674 C   0  0  0  0  0  0  0  0  0  0  0  0
    8.5465   -1.3255   20.7544 N   0  0  0  0  0  0  0  0  0  0  0  0
    8.8013   -1.8162   21.9515 C   0  0  0  0  0  0  0  0  0  0  0  0
    9.9967   -2.8197   22.7239 S   0  0  0  0  0  0  0  0  0  0  0  0
    9.0835   -2.7684   24.2003 C   0  0  0  0  0  0  0  0  0  0  0  0
    9.4619   -3.2862   25.0731 H   0  0  0  0  0  0  0  0  0  0  0  0
    7.9660   -2.0193   24.1102 C   0  0  0  0  0  0  0  0  0  0  0  0
    6.9804   -1.7467   25.1770 C   0  0  0  0  0  0  0  0  0  0  0  0
    6.7601   -2.6975   26.2012 C   0  0  0  0  0  0  0  0  0  0  0  0
    7.2902   -3.6450   26.2130 H   0  0  0  0  0  0  0  0  0  0  0  0
    5.8869   -2.5146   27.1972 N   0  0  0  0  0  0  0  0  0  0  0  0
    5.1768   -1.3843   27.2579 N   0  0  0  0  0  0  0  0  0  0  0  0
    5.3458   -0.4419   26.3191 C   0  0  0  0  0  0  0  0  0  0  0  0
    4.7415    0.4500   26.4245 H   0  0  0  0  0  0  0  0  0  0  0  0
    6.2410   -0.5692   25.2534 C   0  0  0  0  0  0  0  0  0  0  0  0
    6.3475    0.2153   24.5080 H   0  0  0  0  0  0  0  0  0  0  0  0
    7.8369   -1.4802   22.8296 N   0  0  0  0  0  0  0  0  0  0  0  0
    6.8809   -0.7500   22.2057 N   0  0  0  0  0  0  0  0  0  0  0  0
    5.4276    0.6580   20.1676 C   0  0  0  0  0  0  0  0  0  0  0  0
    5.0001    0.6331   21.1746 H   0  0  0  0  0  0  0  0  0  0  0  0
    4.8045    1.3101   19.1101 C   0  0  0  0  0  0  0  0  0  0  0  0
    3.8738    1.8435   19.2606 H   0  0  0  0  0  0  0  0  0  0  0  0
  1  2  1  0
  2  3  2  0
  3  4  1  0
  4  5  1  0
  4  6  2  0
  6  7  1  0
  7  8  1  0
  8  9  2  0
  9 10  1  0
 10 11  1  0
 11 12  1  0
 11 13  2  0
 13 14  1  0
 14 15  2  0
 15 16  1  0
 15 17  1  0
 17 18  2  0
 18 19  1  0
 19 20  1  0
 19 21  2  0
 21 22  1  0
 13 23  1  0
 23 24  1  0
  6 25  1  0
 25 26  1  0
 25 27  2  0
 27 28  1  0
 27  2  1  0
 24  7  2  0
 23  9  1  0
 21 14  1  0
M  END
>  <cnnaffinity>  (1) 
-5.39857

>  <filename>  (1) 
c1cncc(-c2nc3scc(-c4ccnnc4)n3n2)c1

$$$$
