
     RDKit          3D

 39 42  0  0  0  0  0  0  0  0999 V2000
    4.9558    1.8126   16.9741 H   0  0  0  0  0  0  0  0  0  0  0  0
    5.4005    1.2946   17.8203 C   0  0  0  0  0  0  0  0  0  0  0  0
    6.5550    0.6545   17.5693 N   0  0  0  0  0  0  0  0  0  0  0  0
    7.1429    0.0204   18.5867 C   0  0  0  0  0  0  0  0  0  0  0  0
    8.0904   -0.4694   18.3664 H   0  0  0  0  0  0  0  0  0  0  0  0
    6.6315   -0.0037   19.8915 C   0  0  0  0  0  0  0  0  0  0  0  0
    7.3901   -0.6908   20.9330 C   0  0  0  0  0  0  0  0  0  0  0  0
    7.9023   -1.9486   20.7447 N   0  0  0  0  0  0  0  0  0  0  0  0
    8.3813   -2.2649   21.9104 C   0  0  0  0  0  0  0  0  0  0  0  0
    8.2960   -1.2758   22.8376 N   0  0  0  0  0  0  0  0  0  0  0  0
    7.6664   -0.2238   22.2124 C   0  0  0  0  0  0  0  0  0  0  0  0
    7.4394    1.1080   22.8355 C   0  0  0  0  0  0  0  0  0  0  0  0
    7.0566    1.7674   22.0397 H   0  0  0  0  0  0  0  0  0  0  0  0
    8.7399    1.7861   23.3280 C   0  0  0  0  0  0  0  0  0  0  0  0
    9.4980    1.7374   22.5361 H   0  0  0  0  0  0  0  0  0  0  0  0
    9.1442    1.2242   24.1819 H   0  0  0  0  0  0  0  0  0  0  0  0
    8.4700    3.2549   23.7506 C   0  0  0  0  0  0  0  0  0  0  0  0
    9.2522    3.5570   24.4591 H   0  0  0  0  0  0  0  0  0  0  0  0
    8.5795    3.9241   22.8856 H   0  0  0  0  0  0  0  0  0  0  0  0
    7.0574    3.4693   24.3719 C   0  0  0  0  0  0  0  0  0  0  0  0
    7.0906    4.2756   25.1166 H   0  0  0  0  0  0  0  0  0  0  0  0
    6.3610    3.8207   23.5942 H   0  0  0  0  0  0  0  0  0  0  0  0
    6.4957    2.1775   24.9991 C   0  0  0  0  0  0  0  0  0  0  0  0
    7.1727    1.8519   25.8043 H   0  0  0  0  0  0  0  0  0  0  0  0
    5.5295    2.3662   25.4838 H   0  0  0  0  0  0  0  0  0  0  0  0
    6.3592    1.0414   23.9562 C   0  0  0  0  0  0  0  0  0  0  0  0
    6.3982    0.0659   24.4603 H   0  0  0  0  0  0  0  0  0  0  0  0
    5.3766    1.0773   23.4632 H   0  0  0  0  0  0  0  0  0  0  0  0
    8.9646   -1.4775   24.1157 C   0  0  0  0  0  0  0  0  0  0  0  0
    9.8999   -0.9044   24.1422 H   0  0  0  0  0  0  0  0  0  0  0  0
    8.3338   -1.1139   24.9359 H   0  0  0  0  0  0  0  0  0  0  0  0
    9.2247   -3.0045   24.2283 C   0  0  0  0  0  0  0  0  0  0  0  0
   10.2307   -3.2221   24.5942 H   0  0  0  0  0  0  0  0  0  0  0  0
    8.5160   -3.4833   24.9062 H   0  0  0  0  0  0  0  0  0  0  0  0
    9.0243   -3.7508   22.5629 S   0  0  0  0  0  0  0  0  0  0  0  0
    5.4149    0.6575   20.1359 C   0  0  0  0  0  0  0  0  0  0  0  0
    4.9678    0.6627   21.1342 H   0  0  0  0  0  0  0  0  0  0  0  0
    4.7888    1.3129   19.0796 C   0  0  0  0  0  0  0  0  0  0  0  0
    3.8571    1.8516   19.2211 H   0  0  0  0  0  0  0  0  0  0  0  0
  1  2  1  0
  2  3  2  0
  3  4  1  0
  4  5  1  0
  4  6  2  0
  6  7  1  0
  7  8  1  0
  8  9  2  0
  9 10  1  0
 10 11  1  0
 11 12  1  0
 12 13  1  0
 12 14  1  0
 14 15  1  0
 14 16  1  0
 14 17  1  0
 17 18  1  0
 17 19  1  0
 17 20  1  0
 20 21  1  0
 20 22  1  0
 20 23  1  0
 23 24  1  0
 23 25  1  0
 23 26  1  0
 26 27  1  0
 26 28  1  0
 10 29  1  0
 29 30  1  0
 29 31  1  0
 29 32  1  0
 32 33  1  0
 32 34  1  0
 32 35  1  0
  6 36  1  0
 36 37  1  0
 36 38  2  0
 38 39  1  0
 38  2  1  0
 11  7  2  0
 26 12  1  0
 35  9  1  0
M  END
>  <cnnaffinity>  (1) 
-5.69518

>  <filename>  (1) 
c1cncc(-c2nc3n(c2C2CCCCC2)CCS3)c1

$$$$
