
     RDKit          3D

 34 36  0  0  0  0  0  0  0  0999 V2000
    4.9114    1.7824   16.9938 H   0  0  0  0  0  0  0  0  0  0  0  0
    5.3987    1.2958   17.8350 C   0  0  0  0  0  0  0  0  0  0  0  0
    6.5612    0.6789   17.5702 N   0  0  0  0  0  0  0  0  0  0  0  0
    7.1695    0.0697   18.5933 C   0  0  0  0  0  0  0  0  0  0  0  0
    8.1120   -0.4275   18.3672 H   0  0  0  0  0  0  0  0  0  0  0  0
    6.6607    0.0071   19.9055 C   0  0  0  0  0  0  0  0  0  0  0  0
    7.3716   -0.7213   20.9903 C   0  0  0  0  0  0  0  0  0  0  0  0
    8.7675   -0.5904   21.1637 C   0  0  0  0  0  0  0  0  0  0  0  0
    9.3296    0.0590   20.4972 H   0  0  0  0  0  0  0  0  0  0  0  0
    9.4488   -1.2153   22.1307 N   0  0  0  0  0  0  0  0  0  0  0  0
    8.7533   -2.0041   22.9629 C   0  0  0  0  0  0  0  0  0  0  0  0
    9.3317   -2.4978   23.7320 H   0  0  0  0  0  0  0  0  0  0  0  0
    7.3452   -2.2292   22.8973 C   0  0  0  0  0  0  0  0  0  0  0  0
    6.6473   -3.0639   23.7592 N   0  0  0  0  0  0  0  0  0  0  0  0
    5.6460   -3.1180   23.6486 H   0  0  0  0  0  0  0  0  0  0  0  0
    7.2501   -3.7885   24.8594 C   0  0  0  0  0  0  0  0  0  0  0  0
    7.7633   -3.0873   25.5349 H   0  0  0  0  0  0  0  0  0  0  0  0
    8.0267   -4.4591   24.4654 H   0  0  0  0  0  0  0  0  0  0  0  0
    6.2089   -4.5589   25.6304 C   0  0  0  0  0  0  0  0  0  0  0  0
    5.8636   -5.8660   25.2711 C   0  0  0  0  0  0  0  0  0  0  0  0
    6.3607   -6.3398   24.4322 H   0  0  0  0  0  0  0  0  0  0  0  0
    4.9387   -6.6066   25.8992 N   0  0  0  0  0  0  0  0  0  0  0  0
    4.3087   -6.0414   26.9377 C   0  0  0  0  0  0  0  0  0  0  0  0
    3.5573   -6.6460   27.4374 H   0  0  0  0  0  0  0  0  0  0  0  0
    4.5685   -4.7410   27.3794 C   0  0  0  0  0  0  0  0  0  0  0  0
    4.0229   -4.3257   28.2190 H   0  0  0  0  0  0  0  0  0  0  0  0
    5.5376   -3.9890   26.7170 C   0  0  0  0  0  0  0  0  0  0  0  0
    5.7650   -2.9712   27.0300 H   0  0  0  0  0  0  0  0  0  0  0  0
    6.6630   -1.5490   21.8716 C   0  0  0  0  0  0  0  0  0  0  0  0
    5.5893   -1.6748   21.7420 H   0  0  0  0  0  0  0  0  0  0  0  0
    5.4371    0.6498   20.1511 C   0  0  0  0  0  0  0  0  0  0  0  0
    5.0130    0.6348   21.1589 H   0  0  0  0  0  0  0  0  0  0  0  0
    4.8045    1.3163   19.1028 C   0  0  0  0  0  0  0  0  0  0  0  0
    3.8704    1.8463   19.2583 H   0  0  0  0  0  0  0  0  0  0  0  0
  1  2  1  0
  2  3  2  0
  3  4  1  0
  4  5  1  0
  4  6  2  0
  6  7  1  0
  7  8  2  0
  8  9  1  0
  8 10  1  0
 10 11  2  0
 11 12  1  0
 11 13  1  0
 13 14  1  0
 14 15  1  0
 14 16  1  0
 16 17  1  0
 16 18  1  0
 16 19  1  0
 19 20  2  0
 20 21  1  0
 20 22  1  0
 22 23  2  0
 23 24  1  0
 23 25  1  0
 25 26  1  0
 25 27  2  0
 27 28  1  0
 13 29  2  0
 29 30  1  0
  6 31  1  0
 31 32  1  0
 31 33  2  0
 33 34  1  0
 33  2  1  0
 29  7  1  0
 27 19  1  0
M  END
>  <cnnaffinity>  (1) 
-5.12277

>  <filename>  (1) 
c1cncc(CNc2cncc(-c3cccnc3)c2)c1

$$$$
