
     RDKit          3D

 33 36  0  0  0  0  0  0  0  0999 V2000
    4.9248    1.8130   16.9755 H   0  0  0  0  0  0  0  0  0  0  0  0
    5.3836    1.2994   17.8199 C   0  0  0  0  0  0  0  0  0  0  0  0
    6.5478    0.6822   17.5717 N   0  0  0  0  0  0  0  0  0  0  0  0
    7.1611    0.0635   18.5890 C   0  0  0  0  0  0  0  0  0  0  0  0
    8.1173   -0.4108   18.3579 H   0  0  0  0  0  0  0  0  0  0  0  0
    6.6416    0.0028   19.8948 C   0  0  0  0  0  0  0  0  0  0  0  0
    7.3851   -0.7463   20.9843 C   0  0  0  0  0  0  0  0  0  0  0  0
    7.5084   -1.8068   20.7358 H   0  0  0  0  0  0  0  0  0  0  0  0
    6.8417   -0.6792   21.9363 H   0  0  0  0  0  0  0  0  0  0  0  0
    8.7384   -0.2466   21.2008 N   0  0  0  0  0  0  0  0  0  0  0  0
    9.7914   -0.8224   20.5989 N   0  0  0  0  0  0  0  0  0  0  0  0
   10.8429   -0.2251   21.0342 N   0  0  0  0  0  0  0  0  0  0  0  0
   10.5187    0.7308   21.9209 N   0  0  0  0  0  0  0  0  0  0  0  0
    9.2034    0.7184   22.0179 C   0  0  0  0  0  0  0  0  0  0  0  0
    8.3804    1.5187   22.9335 C   0  0  0  0  0  0  0  0  0  0  0  0
    7.2989    2.3130   22.5284 C   0  0  0  0  0  0  0  0  0  0  0  0
    7.0474    2.3880   21.4741 H   0  0  0  0  0  0  0  0  0  0  0  0
    6.5468    3.0434   23.4705 C   0  0  0  0  0  0  0  0  0  0  0  0
    5.7230    3.6628   23.1084 H   0  0  0  0  0  0  0  0  0  0  0  0
    6.8492    2.9888   24.8319 C   0  0  0  0  0  0  0  0  0  0  0  0
    6.2470    3.5603   25.5351 H   0  0  0  0  0  0  0  0  0  0  0  0
    7.9298    2.1779   25.2413 C   0  0  0  0  0  0  0  0  0  0  0  0
    8.7061    1.4496   24.3067 C   0  0  0  0  0  0  0  0  0  0  0  0
    9.6527    0.6641   25.0558 C   0  0  0  0  0  0  0  0  0  0  0  0
   10.4181    0.0353   24.6210 H   0  0  0  0  0  0  0  0  0  0  0  0
    9.4173    0.9052   26.3704 C   0  0  0  0  0  0  0  0  0  0  0  0
    9.8452    0.4110   27.2289 H   0  0  0  0  0  0  0  0  0  0  0  0
    8.4033    1.8386   26.4946 N   0  0  0  0  0  0  0  0  0  0  0  0
    8.1043    2.2747   27.3512 H   0  0  0  0  0  0  0  0  0  0  0  0
    5.4278    0.6545   20.1314 C   0  0  0  0  0  0  0  0  0  0  0  0
    5.0082    0.6613   21.1375 H   0  0  0  0  0  0  0  0  0  0  0  0
    4.7846    1.3153   19.0802 C   0  0  0  0  0  0  0  0  0  0  0  0
    3.8570    1.8532   19.2245 H   0  0  0  0  0  0  0  0  0  0  0  0
  1  2  1  0
  2  3  2  0
  3  4  1  0
  4  5  1  0
  4  6  2  0
  6  7  1  0
  7  8  1  0
  7  9  1  0
  7 10  1  0
 10 11  1  0
 11 12  2  0
 12 13  1  0
 13 14  2  0
 14 15  1  0
 15 16  2  0
 16 17  1  0
 16 18  1  0
 18 19  1  0
 18 20  2  0
 20 21  1  0
 20 22  1  0
 22 23  2  0
 23 24  1  0
 24 25  1  0
 24 26  2  0
 26 27  1  0
 26 28  1  0
 28 29  1  0
  6 30  1  0
 30 31  1  0
 30 32  2  0
 32 33  1  0
 32  2  1  0
 14 10  1  0
 23 15  1  0
 28 22  1  0
M  END
>  <cnnaffinity>  (1) 
-4.92634

>  <filename>  (1) 
c1cncc(Cn2nnnc2-c2cccc3[nH]ccc23)c1

$$$$
