
     RDKit          3D

 32 35  0  0  0  0  0  0  0  0999 V2000
    4.9167    1.7759   17.0014 H   0  0  0  0  0  0  0  0  0  0  0  0
    5.4051    1.2901   17.8415 C   0  0  0  0  0  0  0  0  0  0  0  0
    6.5703    0.6780   17.5753 N   0  0  0  0  0  0  0  0  0  0  0  0
    7.1743    0.0568   18.5891 C   0  0  0  0  0  0  0  0  0  0  0  0
    8.1241   -0.4343   18.3737 H   0  0  0  0  0  0  0  0  0  0  0  0
    6.6467    0.0105   19.8892 C   0  0  0  0  0  0  0  0  0  0  0  0
    7.4037   -0.7023   20.9151 C   0  0  0  0  0  0  0  0  0  0  0  0
    8.3277   -1.6050   20.6952 N   0  0  0  0  0  0  0  0  0  0  0  0
    8.8310   -2.0375   21.9018 N   0  0  0  0  0  0  0  0  0  0  0  0
    8.2007   -1.3482   22.8162 C   0  0  0  0  0  0  0  0  0  0  0  0
    8.2762   -1.0706   24.5318 S   0  0  0  0  0  0  0  0  0  0  0  0
    7.0523    0.2030   24.3015 C   0  0  0  0  0  0  0  0  0  0  0  0
    6.5961    1.0254   25.4636 C   0  0  0  0  0  0  0  0  0  0  0  0
    5.8065    1.6826   25.0819 H   0  0  0  0  0  0  0  0  0  0  0  0
    7.7100    1.8945   26.0831 C   0  0  0  0  0  0  0  0  0  0  0  0
    7.8610    2.8152   25.5090 H   0  0  0  0  0  0  0  0  0  0  0  0
    8.6613    1.3502   26.0825 H   0  0  0  0  0  0  0  0  0  0  0  0
    7.2622    2.1708   27.5249 C   0  0  0  0  0  0  0  0  0  0  0  0
    8.1124    2.1140   28.2104 H   0  0  0  0  0  0  0  0  0  0  0  0
    6.8484    3.1798   27.6152 H   0  0  0  0  0  0  0  0  0  0  0  0
    6.1860    1.1179   27.8712 C   0  0  0  0  0  0  0  0  0  0  0  0
    6.4621    0.5357   28.7555 H   0  0  0  0  0  0  0  0  0  0  0  0
    5.2358    1.6106   28.1004 H   0  0  0  0  0  0  0  0  0  0  0  0
    6.0396    0.2086   26.6443 C   0  0  0  0  0  0  0  0  0  0  0  0
    4.9999   -0.0898   26.4698 H   0  0  0  0  0  0  0  0  0  0  0  0
    6.6269   -0.7069   26.7802 H   0  0  0  0  0  0  0  0  0  0  0  0
    6.6352    0.3750   23.0960 N   0  0  0  0  0  0  0  0  0  0  0  0
    7.2721   -0.5178   22.2730 N   0  0  0  0  0  0  0  0  0  0  0  0
    5.4319    0.6513   20.1597 C   0  0  0  0  0  0  0  0  0  0  0  0
    5.0064    0.6354   21.1660 H   0  0  0  0  0  0  0  0  0  0  0  0
    4.8042    1.3086   19.1071 C   0  0  0  0  0  0  0  0  0  0  0  0
    3.8736    1.8437   19.2614 H   0  0  0  0  0  0  0  0  0  0  0  0
  1  2  1  0
  2  3  2  0
  3  4  1  0
  4  5  1  0
  4  6  2  0
  6  7  1  0
  7  8  2  0
  8  9  1  0
  9 10  2  0
 10 11  1  0
 11 12  1  0
 12 13  1  0
 13 14  1  0
 13 15  1  0
 15 16  1  0
 15 17  1  0
 15 18  1  0
 18 19  1  0
 18 20  1  0
 18 21  1  0
 21 22  1  0
 21 23  1  0
 21 24  1  0
 24 25  1  0
 24 26  1  0
 12 27  2  0
 27 28  1  0
  6 29  1  0
 29 30  1  0
 29 31  2  0
 31 32  1  0
 31  2  1  0
 28  7  1  0
 28 10  1  0
 24 13  1  0
M  END
>  <cnnaffinity>  (1) 
-5.22611

>  <filename>  (1) 
c1cncc(-c2nnc3sc(C4CCCC4)nn23)c1

$$$$
