
     RDKit          3D

 36 38  0  0  0  0  0  0  0  0999 V2000
    4.9129    1.7849   16.9953 H   0  0  0  0  0  0  0  0  0  0  0  0
    5.3969    1.2965   17.8381 C   0  0  0  0  0  0  0  0  0  0  0  0
    6.5608    0.6814   17.5733 N   0  0  0  0  0  0  0  0  0  0  0  0
    7.1733    0.0590   18.5915 C   0  0  0  0  0  0  0  0  0  0  0  0
    8.1215   -0.4292   18.3740 H   0  0  0  0  0  0  0  0  0  0  0  0
    6.6657   -0.0120   19.9128 C   0  0  0  0  0  0  0  0  0  0  0  0
    7.3283   -0.7102   20.9329 N   0  0  0  0  0  0  0  0  0  0  0  0
    6.7612   -1.0978   21.6745 H   0  0  0  0  0  0  0  0  0  0  0  0
    8.7182   -0.7445   21.1179 C   0  0  0  0  0  0  0  0  0  0  0  0
    9.6855    0.1796   20.6668 C   0  0  0  0  0  0  0  0  0  0  0  0
    9.4964    1.0553   20.0694 H   0  0  0  0  0  0  0  0  0  0  0  0
   10.9133   -0.1357   21.0655 N   0  0  0  0  0  0  0  0  0  0  0  0
   10.7366   -1.2686   21.7556 N   0  0  0  0  0  0  0  0  0  0  0  0
   11.5355   -1.7104   22.1790 H   0  0  0  0  0  0  0  0  0  0  0  0
    9.4451   -1.6827   21.8288 C   0  0  0  0  0  0  0  0  0  0  0  0
    8.9932   -2.8864   22.5755 C   0  0  0  0  0  0  0  0  0  0  0  0
    9.8884   -3.4345   22.9113 H   0  0  0  0  0  0  0  0  0  0  0  0
    8.1866   -2.4826   23.8452 C   0  0  0  0  0  0  0  0  0  0  0  0
    7.7271   -1.4933   23.7233 H   0  0  0  0  0  0  0  0  0  0  0  0
    8.9006   -2.3687   24.6702 H   0  0  0  0  0  0  0  0  0  0  0  0
    7.1013   -3.5088   24.2250 C   0  0  0  0  0  0  0  0  0  0  0  0
    6.8539   -3.4090   25.2869 H   0  0  0  0  0  0  0  0  0  0  0  0
    6.1776   -3.2860   23.6722 H   0  0  0  0  0  0  0  0  0  0  0  0
    7.5464   -4.9427   23.9032 C   0  0  0  0  0  0  0  0  0  0  0  0
    6.7891   -5.6563   24.2418 H   0  0  0  0  0  0  0  0  0  0  0  0
    8.4550   -5.1653   24.4795 H   0  0  0  0  0  0  0  0  0  0  0  0
    7.8278   -5.1478   22.3926 C   0  0  0  0  0  0  0  0  0  0  0  0
    6.9472   -5.5770   21.9016 H   0  0  0  0  0  0  0  0  0  0  0  0
    8.6369   -5.8803   22.2766 H   0  0  0  0  0  0  0  0  0  0  0  0
    8.1958   -3.8394   21.6645 C   0  0  0  0  0  0  0  0  0  0  0  0
    8.7619   -4.0426   20.7573 H   0  0  0  0  0  0  0  0  0  0  0  0
    7.2953   -3.3273   21.3094 H   0  0  0  0  0  0  0  0  0  0  0  0
    5.4432    0.6322   20.1631 C   0  0  0  0  0  0  0  0  0  0  0  0
    5.0185    0.6229   21.1672 H   0  0  0  0  0  0  0  0  0  0  0  0
    4.8119    1.3055   19.1095 C   0  0  0  0  0  0  0  0  0  0  0  0
    3.8810    1.8382   19.2642 H   0  0  0  0  0  0  0  0  0  0  0  0
  1  2  1  0
  2  3  2  0
  3  4  1  0
  4  5  1  0
  4  6  2  0
  6  7  1  0
  7  8  1  0
  7  9  1  0
  9 10  1  0
 10 11  1  0
 10 12  2  0
 12 13  1  0
 13 14  1  0
 13 15  1  0
 15 16  1  0
 16 17  1  0
 16 18  1  0
 18 19  1  0
 18 20  1  0
 18 21  1  0
 21 22  1  0
 21 23  1  0
 21 24  1  0
 24 25  1  0
 24 26  1  0
 24 27  1  0
 27 28  1  0
 27 29  1  0
 27 30  1  0
 30 31  1  0
 30 32  1  0
  6 33  1  0
 33 34  1  0
 33 35  2  0
 35 36  1  0
 35  2  1  0
 15  9  2  0
 30 16  1  0
M  END
>  <cnnaffinity>  (1) 
-5.53197

>  <filename>  (1) 
c1cncc(Nc2cn[nH]c2C2CCCCC2)c1

$$$$
