
     RDKit          3D

 31 34  0  0  0  0  0  0  0  0999 V2000
    7.0311    4.4202   23.6209 H   0  0  0  0  0  0  0  0  0  0  0  0
    7.1132    3.3364   23.5932 C   0  0  0  0  0  0  0  0  0  0  0  0
    7.0160    2.5676   24.6360 N   0  0  0  0  0  0  0  0  0  0  0  0
    7.1418    1.2550   24.2570 C   0  0  0  0  0  0  0  0  0  0  0  0
    7.0989    0.4634   25.0009 H   0  0  0  0  0  0  0  0  0  0  0  0
    7.3124    1.0264   22.9191 C   0  0  0  0  0  0  0  0  0  0  0  0
    7.5235   -0.2441   22.2976 C   0  0  0  0  0  0  0  0  0  0  0  0
    7.3301   -0.7095   20.9444 C   0  0  0  0  0  0  0  0  0  0  0  0
    6.6086   -0.0433   19.8643 C   0  0  0  0  0  0  0  0  0  0  0  0
    7.1473    0.0160   18.5673 C   0  0  0  0  0  0  0  0  0  0  0  0
    8.1050   -0.4512   18.3350 H   0  0  0  0  0  0  0  0  0  0  0  0
    6.5634    0.6709   17.5602 N   0  0  0  0  0  0  0  0  0  0  0  0
    5.3999    1.2937   17.8126 C   0  0  0  0  0  0  0  0  0  0  0  0
    4.9498    1.8219   16.9742 H   0  0  0  0  0  0  0  0  0  0  0  0
    4.7783    1.2884   19.0654 C   0  0  0  0  0  0  0  0  0  0  0  0
    3.8610    1.8459   19.2226 H   0  0  0  0  0  0  0  0  0  0  0  0
    5.3920    0.6066   20.1118 C   0  0  0  0  0  0  0  0  0  0  0  0
    4.9667    0.6077   21.1168 H   0  0  0  0  0  0  0  0  0  0  0  0
    7.9420   -1.8690   20.7560 N   0  0  0  0  0  0  0  0  0  0  0  0
    8.4295   -2.1693   21.9625 N   0  0  0  0  0  0  0  0  0  0  0  0
    8.2402   -1.2624   22.9130 C   0  0  0  0  0  0  0  0  0  0  0  0
    9.1264   -1.5339   24.1076 C   0  0  0  0  0  0  0  0  0  0  0  0
    8.5522   -1.6707   25.0303 H   0  0  0  0  0  0  0  0  0  0  0  0
    9.8019   -0.6830   24.2611 H   0  0  0  0  0  0  0  0  0  0  0  0
    9.8862   -2.8275   23.6892 C   0  0  0  0  0  0  0  0  0  0  0  0
    9.6559   -3.6691   24.3450 H   0  0  0  0  0  0  0  0  0  0  0  0
   10.9663   -2.6943   23.7082 H   0  0  0  0  0  0  0  0  0  0  0  0
    9.4470   -3.1400   22.2352 C   0  0  0  0  0  0  0  0  0  0  0  0
    9.0197   -4.1366   22.1149 H   0  0  0  0  0  0  0  0  0  0  0  0
   10.2524   -2.9573   21.5173 H   0  0  0  0  0  0  0  0  0  0  0  0
    7.3788    2.5347   22.0835 S   0  0  0  0  0  0  0  0  0  0  0  0
  1  2  1  0
  2  3  2  0
  3  4  1  0
  4  5  1  0
  4  6  2  0
  6  7  1  0
  7  8  1  0
  8  9  1  0
  9 10  2  0
 10 11  1  0
 10 12  1  0
 12 13  2  0
 13 14  1  0
 13 15  1  0
 15 16  1  0
 15 17  2  0
 17 18  1  0
  8 19  2  0
 19 20  1  0
 20 21  1  0
 21 22  1  0
 22 23  1  0
 22 24  1  0
 22 25  1  0
 25 26  1  0
 25 27  1  0
 25 28  1  0
 28 29  1  0
 28 30  1  0
  6 31  1  0
 31  2  1  0
 21  7  2  0
 17  9  1  0
 28 20  1  0
M  END
>  <cnnaffinity>  (1) 
-5.34027

>  <filename>  (1) 
c1cncc(-c2nn3c(c2-c2cncs2)CCC3)c1

$$$$
