
     RDKit          3D

 29 31  0  0  0  0  0  0  0  0999 V2000
    4.9110    1.7943   16.9835 H   0  0  0  0  0  0  0  0  0  0  0  0
    5.3897    1.3034   17.8241 C   0  0  0  0  0  0  0  0  0  0  0  0
    6.5555    0.6906   17.5547 N   0  0  0  0  0  0  0  0  0  0  0  0
    7.1600    0.0642   18.5692 C   0  0  0  0  0  0  0  0  0  0  0  0
    8.1177   -0.4043   18.3399 H   0  0  0  0  0  0  0  0  0  0  0  0
    6.6505    0.0106   19.8821 C   0  0  0  0  0  0  0  0  0  0  0  0
    7.3667   -0.6610   20.9688 C   0  0  0  0  0  0  0  0  0  0  0  0
    7.5108   -0.3196   22.3075 C   0  0  0  0  0  0  0  0  0  0  0  0
    7.0361    0.8495   22.9143 N   0  0  0  0  0  0  0  0  0  0  0  0
    6.9903    1.6584   22.3091 H   0  0  0  0  0  0  0  0  0  0  0  0
    6.8181    1.0478   24.2826 C   0  0  0  0  0  0  0  0  0  0  0  0
    6.3623    0.0145   25.1398 C   0  0  0  0  0  0  0  0  0  0  0  0
    6.1762   -0.9705   24.7184 H   0  0  0  0  0  0  0  0  0  0  0  0
    6.1391    0.1585   26.4511 N   0  0  0  0  0  0  0  0  0  0  0  0
    6.3582    1.3656   26.9825 C   0  0  0  0  0  0  0  0  0  0  0  0
    6.1627    1.4507   28.0485 H   0  0  0  0  0  0  0  0  0  0  0  0
    6.7971    2.4614   26.2322 C   0  0  0  0  0  0  0  0  0  0  0  0
    6.9451    3.4146   26.7211 H   0  0  0  0  0  0  0  0  0  0  0  0
    7.0261    2.3106   24.8609 C   0  0  0  0  0  0  0  0  0  0  0  0
    7.3763    3.1415   24.2460 H   0  0  0  0  0  0  0  0  0  0  0  0
    8.2831   -1.3725   22.8590 C   0  0  0  0  0  0  0  0  0  0  0  0
    8.6181   -1.4542   23.8817 H   0  0  0  0  0  0  0  0  0  0  0  0
    8.6026   -2.2881   21.9505 N   0  0  0  0  0  0  0  0  0  0  0  0
    8.0487   -1.8267   20.8197 N   0  0  0  0  0  0  0  0  0  0  0  0
    8.1367   -2.3629   19.9708 H   0  0  0  0  0  0  0  0  0  0  0  0
    5.4332    0.6612   20.1426 C   0  0  0  0  0  0  0  0  0  0  0  0
    5.0161    0.6258   21.1525 H   0  0  0  0  0  0  0  0  0  0  0  0
    4.7955    1.3184   19.0912 C   0  0  0  0  0  0  0  0  0  0  0  0
    3.8656    1.8481   19.2491 H   0  0  0  0  0  0  0  0  0  0  0  0
  1  2  1  0
  2  3  2  0
  3  4  1  0
  4  5  1  0
  4  6  2  0
  6  7  1  0
  7  8  2  0
  8  9  1  0
  9 10  1  0
  9 11  1  0
 11 12  2  0
 12 13  1  0
 12 14  1  0
 14 15  2  0
 15 16  1  0
 15 17  1  0
 17 18  1  0
 17 19  2  0
 19 20  1  0
  8 21  1  0
 21 22  1  0
 21 23  2  0
 23 24  1  0
 24 25  1  0
  6 26  1  0
 26 27  1  0
 26 28  2  0
 28 29  1  0
 28  2  1  0
 24  7  1  0
 19 11  1  0
M  END
>  <cnnaffinity>  (1) 
-5.28972

>  <filename>  (1) 
c1cncc(Nc2cn[nH]c2-c2cccnc2)c1

$$$$
