
     RDKit          3D

 31 34  0  0  0  0  0  0  0  0999 V2000
    4.9261    1.7900   17.0095 H   0  0  0  0  0  0  0  0  0  0  0  0
    5.4047    1.2815   17.8427 C   0  0  0  0  0  0  0  0  0  0  0  0
    6.5608    0.6603   17.5710 N   0  0  0  0  0  0  0  0  0  0  0  0
    7.2044    0.0535   18.5766 C   0  0  0  0  0  0  0  0  0  0  0  0
    8.1576   -0.4108   18.3363 H   0  0  0  0  0  0  0  0  0  0  0  0
    6.7036    0.0178   19.8947 C   0  0  0  0  0  0  0  0  0  0  0  0
    7.2887   -0.6810   20.9591 O   0  0  0  0  0  0  0  0  0  0  0  0
    8.6165   -0.7862   21.0992 C   0  0  0  0  0  0  0  0  0  0  0  0
    9.5497   -0.1158   20.4748 N   0  0  0  0  0  0  0  0  0  0  0  0
   10.7174   -0.5773   20.9855 N   0  0  0  0  0  0  0  0  0  0  0  0
   10.5273   -1.4809   21.8668 N   0  0  0  0  0  0  0  0  0  0  0  0
    9.1781   -1.6521   21.9675 N   0  0  0  0  0  0  0  0  0  0  0  0
    8.6095   -2.6328   22.8295 C   0  0  0  0  0  0  0  0  0  0  0  0
    9.0702   -2.7397   24.1374 C   0  0  0  0  0  0  0  0  0  0  0  0
    9.9015   -2.1142   24.4492 H   0  0  0  0  0  0  0  0  0  0  0  0
    8.4670   -3.6474   25.0310 C   0  0  0  0  0  0  0  0  0  0  0  0
    8.8324   -3.7032   26.0548 H   0  0  0  0  0  0  0  0  0  0  0  0
    7.4220   -4.4725   24.6206 C   0  0  0  0  0  0  0  0  0  0  0  0
    6.9591   -5.1629   25.3178 H   0  0  0  0  0  0  0  0  0  0  0  0
    7.0002   -4.3882   23.2809 C   0  0  0  0  0  0  0  0  0  0  0  0
    7.5737   -3.4779   22.3596 C   0  0  0  0  0  0  0  0  0  0  0  0
    6.8976   -3.6810   21.1039 C   0  0  0  0  0  0  0  0  0  0  0  0
    7.0220   -3.0730   20.2212 H   0  0  0  0  0  0  0  0  0  0  0  0
    5.9900   -4.6792   21.2912 C   0  0  0  0  0  0  0  0  0  0  0  0
    5.3115   -5.1481   20.5914 H   0  0  0  0  0  0  0  0  0  0  0  0
    6.0375   -5.0979   22.6043 N   0  0  0  0  0  0  0  0  0  0  0  0
    5.4533   -5.7999   23.0301 H   0  0  0  0  0  0  0  0  0  0  0  0
    5.4851    0.6425   20.1668 C   0  0  0  0  0  0  0  0  0  0  0  0
    5.0805    0.5978   21.1770 H   0  0  0  0  0  0  0  0  0  0  0  0
    4.8307    1.2982   19.1190 C   0  0  0  0  0  0  0  0  0  0  0  0
    3.8923    1.8202   19.2757 H   0  0  0  0  0  0  0  0  0  0  0  0
  1  2  1  0
  2  3  2  0
  3  4  1  0
  4  5  1  0
  4  6  2  0
  6  7  1  0
  7  8  1  0
  8  9  2  0
  9 10  1  0
 10 11  2  0
 11 12  1  0
 12 13  1  0
 13 14  2  0
 14 15  1  0
 14 16  1  0
 16 17  1  0
 16 18  2  0
 18 19  1  0
 18 20  1  0
 20 21  2  0
 21 22  1  0
 22 23  1  0
 22 24  2  0
 24 25  1  0
 24 26  1  0
 26 27  1  0
  6 28  1  0
 28 29  1  0
 28 30  2  0
 30 31  1  0
 30  2  1  0
 12  8  1  0
 21 13  1  0
 26 20  1  0
M  END
>  <cnnaffinity>  (1) 
-5.27215

>  <filename>  (1) 
c1cncc(Oc2nnnn2-c2cccc3[nH]ccc23)c1

$$$$
