
     RDKit          3D

 37 39  0  0  0  0  0  0  0  0999 V2000
    4.9766    1.8350   16.9695 H   0  0  0  0  0  0  0  0  0  0  0  0
    5.4226    1.2953   17.8014 C   0  0  0  0  0  0  0  0  0  0  0  0
    6.5779    0.6599   17.5454 N   0  0  0  0  0  0  0  0  0  0  0  0
    7.1697    0.0195   18.5588 C   0  0  0  0  0  0  0  0  0  0  0  0
    8.1075   -0.4898   18.3356 H   0  0  0  0  0  0  0  0  0  0  0  0
    6.6549   -0.0051   19.8653 C   0  0  0  0  0  0  0  0  0  0  0  0
    7.4034   -0.6932   20.9468 C   0  0  0  0  0  0  0  0  0  0  0  0
    8.0840   -1.8033   20.6180 N   0  0  0  0  0  0  0  0  0  0  0  0
    8.7170   -2.5154   21.5548 N   0  0  0  0  0  0  0  0  0  0  0  0
    8.7084   -2.1048   22.8301 C   0  0  0  0  0  0  0  0  0  0  0  0
    9.2336   -2.7565   23.5165 H   0  0  0  0  0  0  0  0  0  0  0  0
    8.0764   -0.9183   23.2592 C   0  0  0  0  0  0  0  0  0  0  0  0
    8.0999   -0.5427   24.7315 C   0  0  0  0  0  0  0  0  0  0  0  0
    7.9923    0.5531   24.8329 H   0  0  0  0  0  0  0  0  0  0  0  0
    9.0873   -0.7836   25.1495 H   0  0  0  0  0  0  0  0  0  0  0  0
    7.1029   -1.3148   25.4776 N   0  0  0  0  0  0  0  0  0  0  0  0
    6.1955   -1.2268   25.0200 H   0  0  0  0  0  0  0  0  0  0  0  0
    6.9607   -0.9773   26.8958 C   0  0  0  0  0  0  0  0  0  0  0  0
    7.9233   -1.1846   27.3923 H   0  0  0  0  0  0  0  0  0  0  0  0
    5.8663   -1.8125   27.5562 C   0  0  0  0  0  0  0  0  0  0  0  0
    5.0287   -1.8600   26.8536 H   0  0  0  0  0  0  0  0  0  0  0  0
    6.1976   -2.8391   27.7444 H   0  0  0  0  0  0  0  0  0  0  0  0
    5.3948   -1.0449   28.8099 C   0  0  0  0  0  0  0  0  0  0  0  0
    4.3121   -1.1439   28.9391 H   0  0  0  0  0  0  0  0  0  0  0  0
    5.8490   -1.4449   29.7197 H   0  0  0  0  0  0  0  0  0  0  0  0
    5.8170    0.4312   28.5844 C   0  0  0  0  0  0  0  0  0  0  0  0
    6.4855    0.7600   29.3865 H   0  0  0  0  0  0  0  0  0  0  0  0
    4.9638    1.1198   28.5925 H   0  0  0  0  0  0  0  0  0  0  0  0
    6.5365    0.4676   27.2190 C   0  0  0  0  0  0  0  0  0  0  0  0
    7.3920    1.1492   27.2186 H   0  0  0  0  0  0  0  0  0  0  0  0
    5.8449    0.8037   26.4363 H   0  0  0  0  0  0  0  0  0  0  0  0
    7.4074   -0.2035   22.2701 C   0  0  0  0  0  0  0  0  0  0  0  0
    6.8849    0.7304   22.4671 H   0  0  0  0  0  0  0  0  0  0  0  0
    5.4308    0.6383   20.1085 C   0  0  0  0  0  0  0  0  0  0  0  0
    4.9796    0.6230   21.1017 H   0  0  0  0  0  0  0  0  0  0  0  0
    4.8019    1.2960   19.0537 C   0  0  0  0  0  0  0  0  0  0  0  0
    3.8706    1.8338   19.2014 H   0  0  0  0  0  0  0  0  0  0  0  0
  1  2  1  0
  2  3  2  0
  3  4  1  0
  4  5  1  0
  4  6  2  0
  6  7  1  0
  7  8  2  0
  8  9  1  0
  9 10  2  0
 10 11  1  0
 10 12  1  0
 12 13  1  0
 13 14  1  0
 13 15  1  0
 13 16  1  0
 16 17  1  0
 16 18  1  0
 18 19  1  0
 18 20  1  0
 20 21  1  0
 20 22  1  0
 20 23  1  0
 23 24  1  0
 23 25  1  0
 23 26  1  0
 26 27  1  0
 26 28  1  0
 26 29  1  0
 29 30  1  0
 29 31  1  0
 12 32  2  0
 32 33  1  0
  6 34  1  0
 34 35  1  0
 34 36  2  0
 36 37  1  0
 36  2  1  0
 32  7  1  0
 29 18  1  0
M  END
>  <cnnaffinity>  (1) 
-4.96975

>  <filename>  (1) 
c1cncc(-c2cc(CNC3CCCC3)cnn2)c1

$$$$
