
     RDKit          3D

 27 30  0  0  0  0  0  0  0  0999 V2000
    4.9351    1.7735   17.0006 H   0  0  0  0  0  0  0  0  0  0  0  0
    5.4121    1.2840   17.8461 C   0  0  0  0  0  0  0  0  0  0  0  0
    6.5759    0.6622   17.5985 N   0  0  0  0  0  0  0  0  0  0  0  0
    7.1775    0.0506   18.6239 C   0  0  0  0  0  0  0  0  0  0  0  0
    8.1238   -0.4316   18.3878 H   0  0  0  0  0  0  0  0  0  0  0  0
    6.6414    0.0145   19.9218 C   0  0  0  0  0  0  0  0  0  0  0  0
    7.3586   -0.6924   20.9834 C   0  0  0  0  0  0  0  0  0  0  0  0
    8.5422   -1.3275   20.7618 N   0  0  0  0  0  0  0  0  0  0  0  0
    8.8167   -1.8088   21.9559 C   0  0  0  0  0  0  0  0  0  0  0  0
   10.0583   -2.7454   22.7553 S   0  0  0  0  0  0  0  0  0  0  0  0
    9.1783   -2.6456   24.2465 C   0  0  0  0  0  0  0  0  0  0  0  0
    9.5792   -3.1221   25.1327 H   0  0  0  0  0  0  0  0  0  0  0  0
    8.0191   -1.9433   24.1547 C   0  0  0  0  0  0  0  0  0  0  0  0
    7.0271   -1.6377   25.1772 C   0  0  0  0  0  0  0  0  0  0  0  0
    7.2510   -2.1164   26.4383 O   0  0  0  0  0  0  0  0  0  0  0  0
    6.2116   -1.7177   27.2139 C   0  0  0  0  0  0  0  0  0  0  0  0
    6.2400   -2.0158   28.2523 H   0  0  0  0  0  0  0  0  0  0  0  0
    5.3209   -0.9948   26.4878 C   0  0  0  0  0  0  0  0  0  0  0  0
    4.4001   -0.5545   26.8467 H   0  0  0  0  0  0  0  0  0  0  0  0
    5.8567   -0.9348   25.1655 C   0  0  0  0  0  0  0  0  0  0  0  0
    5.4943   -0.4233   24.2917 H   0  0  0  0  0  0  0  0  0  0  0  0
    7.8507   -1.4865   22.8424 N   0  0  0  0  0  0  0  0  0  0  0  0
    6.8902   -0.7579   22.2301 N   0  0  0  0  0  0  0  0  0  0  0  0
    5.4211    0.6597   20.1706 C   0  0  0  0  0  0  0  0  0  0  0  0
    4.9914    0.6405   21.1758 H   0  0  0  0  0  0  0  0  0  0  0  0
    4.8045    1.3092   19.1070 C   0  0  0  0  0  0  0  0  0  0  0  0
    3.8738    1.8431   19.2537 H   0  0  0  0  0  0  0  0  0  0  0  0
  1  2  1  0
  2  3  2  0
  3  4  1  0
  4  5  1  0
  4  6  2  0
  6  7  1  0
  7  8  1  0
  8  9  2  0
  9 10  1  0
 10 11  1  0
 11 12  1  0
 11 13  2  0
 13 14  1  0
 14 15  1  0
 15 16  1  0
 16 17  1  0
 16 18  2  0
 18 19  1  0
 18 20  1  0
 20 21  1  0
 13 22  1  0
 22 23  1  0
  6 24  1  0
 24 25  1  0
 24 26  2  0
 26 27  1  0
 26  2  1  0
 23  7  2  0
 22  9  1  0
 20 14  2  0
M  END
>  <cnnaffinity>  (1) 
-5.2274

>  <filename>  (1) 
c1cncc(-c2nc3scc(-c4ccco4)n3n2)c1

$$$$
