
     RDKit          3D

 30 33  0  0  0  0  0  0  0  0999 V2000
    4.9241    1.7830   16.9947 H   0  0  0  0  0  0  0  0  0  0  0  0
    5.4028    1.2907   17.8381 C   0  0  0  0  0  0  0  0  0  0  0  0
    6.5700    0.6722   17.5847 N   0  0  0  0  0  0  0  0  0  0  0  0
    7.1788    0.0521   18.5989 C   0  0  0  0  0  0  0  0  0  0  0  0
    8.1248   -0.4360   18.3741 H   0  0  0  0  0  0  0  0  0  0  0  0
    6.6518    0.0217   19.9075 C   0  0  0  0  0  0  0  0  0  0  0  0
    7.3503   -0.6381   20.9693 N   0  0  0  0  0  0  0  0  0  0  0  0
    8.1068   -1.7431   20.7298 N   0  0  0  0  0  0  0  0  0  0  0  0
    8.5961   -2.1171   21.8472 N   0  0  0  0  0  0  0  0  0  0  0  0
    8.2141   -1.3012   22.8593 N   0  0  0  0  0  0  0  0  0  0  0  0
    7.4453   -0.3995   22.3038 C   0  0  0  0  0  0  0  0  0  0  0  0
    6.8032    0.6347   22.8572 O   0  0  0  0  0  0  0  0  0  0  0  0
    7.0846    1.0792   24.1645 C   0  0  0  0  0  0  0  0  0  0  0  0
    8.3974    1.0074   24.7178 C   0  0  0  0  0  0  0  0  0  0  0  0
    9.1931    0.5551   24.1275 H   0  0  0  0  0  0  0  0  0  0  0  0
    8.6475    1.4833   25.9955 C   0  0  0  0  0  0  0  0  0  0  0  0
    9.6333    1.4030   26.4479 H   0  0  0  0  0  0  0  0  0  0  0  0
    7.5696    2.0527   26.7062 C   0  0  0  0  0  0  0  0  0  0  0  0
    6.2804    2.1638   26.1515 C   0  0  0  0  0  0  0  0  0  0  0  0
    5.5228    2.8060   27.1779 C   0  0  0  0  0  0  0  0  0  0  0  0
    4.4787    3.0771   27.1432 H   0  0  0  0  0  0  0  0  0  0  0  0
    6.2520    3.0579   28.2443 N   0  0  0  0  0  0  0  0  0  0  0  0
    7.4880    2.5946   27.9494 N   0  0  0  0  0  0  0  0  0  0  0  0
    8.2405    2.6619   28.6110 H   0  0  0  0  0  0  0  0  0  0  0  0
    6.0314    1.6709   24.8430 C   0  0  0  0  0  0  0  0  0  0  0  0
    5.0531    1.7614   24.3824 H   0  0  0  0  0  0  0  0  0  0  0  0
    5.4317    0.6504   20.1678 C   0  0  0  0  0  0  0  0  0  0  0  0
    5.0081    0.6378   21.1718 H   0  0  0  0  0  0  0  0  0  0  0  0
    4.8054    1.3025   19.1022 C   0  0  0  0  0  0  0  0  0  0  0  0
    3.8779    1.8380   19.2567 H   0  0  0  0  0  0  0  0  0  0  0  0
  1  2  1  0
  2  3  2  0
  3  4  1  0
  4  5  1  0
  4  6  2  0
  6  7  1  0
  7  8  1  0
  8  9  2  0
  9 10  1  0
 10 11  2  0
 11 12  1  0
 12 13  1  0
 13 14  2  0
 14 15  1  0
 14 16  1  0
 16 17  1  0
 16 18  2  0
 18 19  1  0
 19 20  1  0
 20 21  1  0
 20 22  2  0
 22 23  1  0
 23 24  1  0
 19 25  2  0
 25 26  1  0
  6 27  1  0
 27 28  1  0
 27 29  2  0
 29 30  1  0
 29  2  1  0
 11  7  1  0
 25 13  1  0
 23 18  1  0
M  END
>  <cnnaffinity>  (1) 
-5.1964

>  <filename>  (1) 
c1cncc(-n2nnnc2Oc2ccc3[nH]ncc3c2)c1

$$$$
