
     RDKit          3D

 36 39  0  0  0  0  0  0  0  0999 V2000
    4.9207    1.7775   17.0021 H   0  0  0  0  0  0  0  0  0  0  0  0
    5.4060    1.2918   17.8430 C   0  0  0  0  0  0  0  0  0  0  0  0
    6.5696    0.6760   17.5801 N   0  0  0  0  0  0  0  0  0  0  0  0
    7.1714    0.0459   18.5912 C   0  0  0  0  0  0  0  0  0  0  0  0
    8.1213   -0.4351   18.3709 H   0  0  0  0  0  0  0  0  0  0  0  0
    6.6505    0.0060   19.8927 C   0  0  0  0  0  0  0  0  0  0  0  0
    7.3725   -0.6794   20.9492 C   0  0  0  0  0  0  0  0  0  0  0  0
    8.1076   -1.8171   20.7204 N   0  0  0  0  0  0  0  0  0  0  0  0
    8.5362   -2.1395   21.9066 C   0  0  0  0  0  0  0  0  0  0  0  0
    9.5693   -3.3702   22.5681 S   0  0  0  0  0  0  0  0  0  0  0  0
    9.4986   -2.6425   24.1488 C   0  0  0  0  0  0  0  0  0  0  0  0
   10.0594   -3.1049   24.9494 H   0  0  0  0  0  0  0  0  0  0  0  0
    8.7141   -1.5530   24.1658 C   0  0  0  0  0  0  0  0  0  0  0  0
    8.5085   -0.9055   25.0078 H   0  0  0  0  0  0  0  0  0  0  0  0
    8.1516   -1.2898   22.9137 N   0  0  0  0  0  0  0  0  0  0  0  0
    7.4032   -0.2994   22.2952 C   0  0  0  0  0  0  0  0  0  0  0  0
    6.9416    0.8389   22.9145 N   0  0  0  0  0  0  0  0  0  0  0  0
    6.2977    0.7830   24.2221 C   0  0  0  0  0  0  0  0  0  0  0  0
    5.8690   -0.2144   24.3494 H   0  0  0  0  0  0  0  0  0  0  0  0
    7.0200    0.9403   25.0414 H   0  0  0  0  0  0  0  0  0  0  0  0
    5.2059    1.8511   24.3126 C   0  0  0  0  0  0  0  0  0  0  0  0
    4.4025    1.5912   23.6146 H   0  0  0  0  0  0  0  0  0  0  0  0
    4.7673    1.8451   25.3145 H   0  0  0  0  0  0  0  0  0  0  0  0
    5.7556    3.2374   23.9680 C   0  0  0  0  0  0  0  0  0  0  0  0
    6.4947    3.5333   24.7258 H   0  0  0  0  0  0  0  0  0  0  0  0
    4.9581    3.9867   24.0004 H   0  0  0  0  0  0  0  0  0  0  0  0
    6.4172    3.2291   22.5879 C   0  0  0  0  0  0  0  0  0  0  0  0
    6.8665    4.2017   22.3651 H   0  0  0  0  0  0  0  0  0  0  0  0
    5.6650    3.0410   21.8108 H   0  0  0  0  0  0  0  0  0  0  0  0
    7.4833    2.1417   22.4965 C   0  0  0  0  0  0  0  0  0  0  0  0
    7.8416    2.0424   21.4686 H   0  0  0  0  0  0  0  0  0  0  0  0
    8.3583    2.4140   23.1113 H   0  0  0  0  0  0  0  0  0  0  0  0
    5.4379    0.6627   20.1563 C   0  0  0  0  0  0  0  0  0  0  0  0
    5.0073    0.6364   21.1611 H   0  0  0  0  0  0  0  0  0  0  0  0
    4.8041    1.3141   19.1074 C   0  0  0  0  0  0  0  0  0  0  0  0
    3.8714    1.8442   19.2596 H   0  0  0  0  0  0  0  0  0  0  0  0
  1  2  1  0
  2  3  2  0
  3  4  1  0
  4  5  1  0
  4  6  2  0
  6  7  1  0
  7  8  1  0
  8  9  2  0
  9 10  1  0
 10 11  1  0
 11 12  1  0
 11 13  2  0
 13 14  1  0
 13 15  1  0
 15 16  1  0
 16 17  1  0
 17 18  1  0
 18 19  1  0
 18 20  1  0
 18 21  1  0
 21 22  1  0
 21 23  1  0
 21 24  1  0
 24 25  1  0
 24 26  1  0
 24 27  1  0
 27 28  1  0
 27 29  1  0
 27 30  1  0
 30 31  1  0
 30 32  1  0
  6 33  1  0
 33 34  1  0
 33 35  2  0
 35 36  1  0
 35  2  1  0
 16  7  2  0
 30 17  1  0
 15  9  1  0
M  END
>  <cnnaffinity>  (1) 
-5.509

>  <filename>  (1) 
c1cncc(-c2nc3sccn3c2N2CCCCC2)c1

$$$$
