
     RDKit          3D

 42 46  0  0  0  0  0  0  0  0999 V2000
    5.0633    1.7463   16.6968 H   0  0  0  0  0  0  0  0  0  0  0  0
    5.3627    1.2515   17.6192 C   0  0  0  0  0  0  0  0  0  0  0  0
    6.3580    0.3590   17.5126 N   0  0  0  0  0  0  0  0  0  0  0  0
    6.7504   -0.2526   18.6375 C   0  0  0  0  0  0  0  0  0  0  0  0
    7.5682   -0.9646   18.5304 H   0  0  0  0  0  0  0  0  0  0  0  0
    6.2025   -0.0164   19.9153 C   0  0  0  0  0  0  0  0  0  0  0  0
    6.7593   -0.6697   21.1651 C   0  0  0  0  0  0  0  0  0  0  0  0
    7.4209    0.2683   22.1222 C   0  0  0  0  0  0  0  0  0  0  0  0
    6.8744    1.0981   22.9417 N   0  0  0  0  0  0  0  0  0  0  0  0
    7.9160    1.7632   23.5985 N   0  0  0  0  0  0  0  0  0  0  0  0
    9.0081    1.2587   23.1049 C   0  0  0  0  0  0  0  0  0  0  0  0
   10.3002    1.5404   23.3921 N   0  0  0  0  0  0  0  0  0  0  0  0
   11.3893    0.7120   22.8204 C   0  0  0  0  0  0  0  0  0  0  0  0
   11.4798   -0.2073   23.4344 H   0  0  0  0  0  0  0  0  0  0  0  0
   11.0907    0.4140   21.8045 H   0  0  0  0  0  0  0  0  0  0  0  0
   12.6587    1.5307   22.7872 C   0  0  0  0  0  0  0  0  0  0  0  0
   13.9040    0.9307   22.5770 C   0  0  0  0  0  0  0  0  0  0  0  0
   14.1221    0.0111   21.8216 H   0  0  0  0  0  0  0  0  0  0  0  0
   13.9988    0.8688   22.7460 C   0  0  0  0  0  0  0  0  0  0  0  0
   15.0540    1.2497   23.1317 H   0  0  0  0  0  0  0  0  0  0  0  0
   13.7305    3.8108   22.4654 C   0  0  0  0  0  0  0  0  0  0  0  0
   15.0414    3.7197   22.5014 H   0  0  0  0  0  0  0  0  0  0  0  0
   13.8550    3.8557   22.5912 C   0  0  0  0  0  0  0  0  0  0  0  0
   13.4706    4.8642   21.9147 H   0  0  0  0  0  0  0  0  0  0  0  0
   12.6347    3.0545   22.9531 C   0  0  0  0  0  0  0  0  0  0  0  0
   11.4657    3.6947   23.7220 C   0  0  0  0  0  0  0  0  0  0  0  0
   11.8422    4.3386   24.5302 H   0  0  0  0  0  0  0  0  0  0  0  0
   10.8066    4.2783   23.0659 H   0  0  0  0  0  0  0  0  0  0  0  0
   10.6238    2.5852   24.3733 C   0  0  0  0  0  0  0  0  0  0  0  0
   11.1851    2.1240   25.2040 H   0  0  0  0  0  0  0  0  0  0  0  0
    9.6830    2.9731   24.8059 H   0  0  0  0  0  0  0  0  0  0  0  0
    8.7804    0.3056   22.1733 O   0  0  0  0  0  0  0  0  0  0  0  0
    7.2904   -2.0800   21.0348 C   0  0  0  0  0  0  0  0  0  0  0  0
    7.1183   -2.5523   20.0775 H   0  0  0  0  0  0  0  0  0  0  0  0
    8.2194   -2.3515   21.5272 H   0  0  0  0  0  0  0  0  0  0  0  0
    6.0560   -1.8497   21.8294 C   0  0  0  0  0  0  0  0  0  0  0  0
    5.1071   -2.1795   21.4212 H   0  0  0  0  0  0  0  0  0  0  0  0
    6.1239   -1.9019   22.9142 H   0  0  0  0  0  0  0  0  0  0  0  0
    5.1656    0.9250   19.9974 C   0  0  0  0  0  0  0  0  0  0  0  0
    4.7278    1.1612   20.9699 H   0  0  0  0  0  0  0  0  0  0  0  0
    4.7319    1.5579   18.8287 C   0  0  0  0  0  0  0  0  0  0  0  0
    3.9403    2.2990   18.8427 H   0  0  0  0  0  0  0  0  0  0  0  0
  1  2  1  0
  2  3  2  0
  3  4  1  0
  4  5  1  0
  4  6  2  0
  6  7  1  0
  7  8  1  0
  8  9  2  0
  9 10  1  0
 10 11  2  0
 11 12  1  0
 12 13  1  0
 13 14  1  0
 13 15  1  0
 13 16  1  0
 16 17  2  0
 17 18  1  0
 17 19  1  0
 19 20  1  0
 19 21  2  0
 21 22  1  0
 21 23  1  0
 23 24  1  0
 23 25  2  0
 25 26  1  0
 26 27  1  0
 26 28  1  0
 26 29  1  0
 29 30  1  0
 29 31  1  0
 11 32  1  0
  7 33  1  0
 33 34  1  0
 33 35  1  0
 33 36  1  0
 36 37  1  0
 36 38  1  0
  6 39  1  0
 39 40  1  0
 39 41  2  0
 41 42  1  0
 41  2  1  0
 36  7  1  0
 32  8  1  0
 29 12  1  0
 25 16  1  0
M  END
>  <cnnaffinity>  (1) 
-5.63275

>  <filename>  (1) 
c1cncc(C2(c3nnc(N4CCc5ccccc5C4)o3)CC2)c1

$$$$
