
     RDKit          3D

 37 41  0  0  0  0  0  0  0  0999 V2000
    5.0327    1.8047   16.8569 H   0  0  0  0  0  0  0  0  0  0  0  0
    5.4179    1.3167   17.7512 C   0  0  0  0  0  0  0  0  0  0  0  0
    6.5251    0.5748   17.5963 N   0  0  0  0  0  0  0  0  0  0  0  0
    7.0152   -0.0287   18.6892 C   0  0  0  0  0  0  0  0  0  0  0  0
    7.9297   -0.6043   18.5359 H   0  0  0  0  0  0  0  0  0  0  0  0
    6.4394    0.0581   19.9727 C   0  0  0  0  0  0  0  0  0  0  0  0
    7.0600   -0.5833   21.1913 C   0  0  0  0  0  0  0  0  0  0  0  0
    7.9414    0.3293   22.0033 C   0  0  0  0  0  0  0  0  0  0  0  0
    7.6474    0.8538   23.1559 N   0  0  0  0  0  0  0  0  0  0  0  0
    8.6522    1.6391   23.6583 N   0  0  0  0  0  0  0  0  0  0  0  0
    9.7081    1.6502   22.8963 C   0  0  0  0  0  0  0  0  0  0  0  0
   10.9822    2.3410   23.1913 C   0  0  0  0  0  0  0  0  0  0  0  0
   11.0194    3.6605   23.6627 C   0  0  0  0  0  0  0  0  0  0  0  0
   10.0885    4.1548   23.9341 H   0  0  0  0  0  0  0  0  0  0  0  0
   12.2468    4.3536   23.7538 C   0  0  0  0  0  0  0  0  0  0  0  0
   12.2385    5.3972   24.0626 H   0  0  0  0  0  0  0  0  0  0  0  0
   13.4508    3.7353   23.4274 C   0  0  0  0  0  0  0  0  0  0  0  0
   14.3908    4.2842   23.4540 H   0  0  0  0  0  0  0  0  0  0  0  0
   13.4110    2.3793   23.0640 C   0  0  0  0  0  0  0  0  0  0  0  0
   12.2031    1.6511   22.9584 C   0  0  0  0  0  0  0  0  0  0  0  0
   12.5686    0.2870   22.6883 C   0  0  0  0  0  0  0  0  0  0  0  0
   11.8855   -0.5367   22.5409 H   0  0  0  0  0  0  0  0  0  0  0  0
   13.9278    0.2341   22.6154 C   0  0  0  0  0  0  0  0  0  0  0  0
   14.5783   -0.6150   22.4662 H   0  0  0  0  0  0  0  0  0  0  0  0
   14.4367    1.4924   22.8466 N   0  0  0  0  0  0  0  0  0  0  0  0
   15.3754    1.7894   22.6554 H   0  0  0  0  0  0  0  0  0  0  0  0
    9.4977    0.7823   21.4055 S   0  0  0  0  0  0  0  0  0  0  0  0
    7.4655   -2.0384   21.0837 C   0  0  0  0  0  0  0  0  0  0  0  0
    7.1804   -2.5262   20.1564 H   0  0  0  0  0  0  0  0  0  0  0  0
    8.4160   -2.3520   21.5091 H   0  0  0  0  0  0  0  0  0  0  0  0
    6.3240   -1.6535   21.9698 C   0  0  0  0  0  0  0  0  0  0  0  0
    5.3317   -1.9373   21.6285 H   0  0  0  0  0  0  0  0  0  0  0  0
    6.4635   -1.6524   23.0523 H   0  0  0  0  0  0  0  0  0  0  0  0
    5.2887    0.8398   20.1064 C   0  0  0  0  0  0  0  0  0  0  0  0
    4.8142    0.9344   21.0842 H   0  0  0  0  0  0  0  0  0  0  0  0
    4.7664    1.4757   18.9781 C   0  0  0  0  0  0  0  0  0  0  0  0
    3.8838    2.1008   19.0396 H   0  0  0  0  0  0  0  0  0  0  0  0
  1  2  1  0
  2  3  2  0
  3  4  1  0
  4  5  1  0
  4  6  2  0
  6  7  1  0
  7  8  1  0
  8  9  2  0
  9 10  1  0
 10 11  2  0
 11 12  1  0
 12 13  2  0
 13 14  1  0
 13 15  1  0
 15 16  1  0
 15 17  2  0
 17 18  1  0
 17 19  1  0
 19 20  2  0
 20 21  1  0
 21 22  1  0
 21 23  2  0
 23 24  1  0
 23 25  1  0
 25 26  1  0
 11 27  1  0
  7 28  1  0
 28 29  1  0
 28 30  1  0
 28 31  1  0
 31 32  1  0
 31 33  1  0
  6 34  1  0
 34 35  1  0
 34 36  2  0
 36 37  1  0
 36  2  1  0
 31  7  1  0
 27  8  1  0
 20 12  1  0
 25 19  1  0
M  END
>  <cnnaffinity>  (1) 
-6.15431

>  <filename>  (1) 
c1cncc(C2(c3nnc(-c4cccc5[nH]ccc45)s3)CC2)c1

$$$$
