
     RDKit          3D

 30 33  0  0  0  0  0  0  0  0999 V2000
    4.9455    1.8135   16.9744 H   0  0  0  0  0  0  0  0  0  0  0  0
    5.3971    1.2893   17.8155 C   0  0  0  0  0  0  0  0  0  0  0  0
    6.5598    0.6636   17.5684 N   0  0  0  0  0  0  0  0  0  0  0  0
    7.1523    0.0287   18.5836 C   0  0  0  0  0  0  0  0  0  0  0  0
    8.1024   -0.4570   18.3549 H   0  0  0  0  0  0  0  0  0  0  0  0
    6.6262   -0.0037   19.8844 C   0  0  0  0  0  0  0  0  0  0  0  0
    7.3418   -0.6924   20.9575 C   0  0  0  0  0  0  0  0  0  0  0  0
    7.9274   -1.8687   20.7631 N   0  0  0  0  0  0  0  0  0  0  0  0
    8.4248   -2.1841   21.9619 N   0  0  0  0  0  0  0  0  0  0  0  0
    8.2767   -1.2618   22.9070 C   0  0  0  0  0  0  0  0  0  0  0  0
    7.5583   -0.2528   22.2932 C   0  0  0  0  0  0  0  0  0  0  0  0
    7.3671    1.0516   22.8444 C   0  0  0  0  0  0  0  0  0  0  0  0
    7.5481    1.3137   24.1654 N   0  0  0  0  0  0  0  0  0  0  0  0
    7.3243    2.5827   24.3324 N   0  0  0  0  0  0  0  0  0  0  0  0
    7.0336    3.0457   23.1390 N   0  0  0  0  0  0  0  0  0  0  0  0
    6.8271    4.0212   22.9741 H   0  0  0  0  0  0  0  0  0  0  0  0
    7.0450    2.1516   22.1689 N   0  0  0  0  0  0  0  0  0  0  0  0
    9.1895   -1.5072   24.0823 C   0  0  0  0  0  0  0  0  0  0  0  0
    8.6138   -1.5649   25.0118 H   0  0  0  0  0  0  0  0  0  0  0  0
    9.8824   -0.6606   24.1870 H   0  0  0  0  0  0  0  0  0  0  0  0
    9.8957   -2.8383   23.6788 C   0  0  0  0  0  0  0  0  0  0  0  0
    9.6243   -3.6569   24.3471 H   0  0  0  0  0  0  0  0  0  0  0  0
   10.9814   -2.7551   23.6892 H   0  0  0  0  0  0  0  0  0  0  0  0
    9.4416   -3.1603   22.2261 C   0  0  0  0  0  0  0  0  0  0  0  0
    9.0095   -4.1545   22.1081 H   0  0  0  0  0  0  0  0  0  0  0  0
   10.2404   -2.9872   21.4993 H   0  0  0  0  0  0  0  0  0  0  0  0
    5.4062    0.6400   20.1223 C   0  0  0  0  0  0  0  0  0  0  0  0
    4.9887    0.6626   21.1294 H   0  0  0  0  0  0  0  0  0  0  0  0
    4.7788    1.2980   19.0681 C   0  0  0  0  0  0  0  0  0  0  0  0
    3.8550    1.8440   19.2225 H   0  0  0  0  0  0  0  0  0  0  0  0
  1  2  1  0
  2  3  2  0
  3  4  1  0
  4  5  1  0
  4  6  2  0
  6  7  1  0
  7  8  2  0
  8  9  1  0
  9 10  1  0
 10 11  2  0
 11 12  1  0
 12 13  1  0
 13 14  2  0
 14 15  1  0
 15 16  1  0
 15 17  1  0
 10 18  1  0
 18 19  1  0
 18 20  1  0
 18 21  1  0
 21 22  1  0
 21 23  1  0
 21 24  1  0
 24 25  1  0
 24 26  1  0
  6 27  1  0
 27 28  1  0
 27 29  2  0
 29 30  1  0
 29  2  1  0
 11  7  1  0
 17 12  2  0
 24  9  1  0
M  END
>  <cnnaffinity>  (1) 
-4.97889

>  <filename>  (1) 
c1cncc(-c2nn3c(c2-c2nn[nH]n2)CCC3)c1

$$$$
