
     RDKit          3D

 37 40  0  0  0  0  0  0  0  0999 V2000
    5.3359    1.6234   17.0657 H   0  0  0  0  0  0  0  0  0  0  0  0
    5.9006    1.2412   17.9141 C   0  0  0  0  0  0  0  0  0  0  0  0
    7.1008    0.7080   17.6295 N   0  0  0  0  0  0  0  0  0  0  0  0
    7.8025    0.1862   18.6408 C   0  0  0  0  0  0  0  0  0  0  0  0
    8.7803   -0.2253   18.3882 H   0  0  0  0  0  0  0  0  0  0  0  0
    7.3367    0.1243   19.9647 C   0  0  0  0  0  0  0  0  0  0  0  0
    8.0955   -0.6204   20.9811 C   0  0  0  0  0  0  0  0  0  0  0  0
    9.4276   -0.5548   21.0293 N   0  0  0  0  0  0  0  0  0  0  0  0
    9.7291   -1.3534   22.0514 N   0  0  0  0  0  0  0  0  0  0  0  0
    8.6850   -1.9703   22.6201 C   0  0  0  0  0  0  0  0  0  0  0  0
    7.5665   -1.5321   21.9524 C   0  0  0  0  0  0  0  0  0  0  0  0
    6.1665   -2.0651   22.0917 C   0  0  0  0  0  0  0  0  0  0  0  0
    5.9371   -2.2868   23.1390 H   0  0  0  0  0  0  0  0  0  0  0  0
    5.4806   -1.2868   21.7576 H   0  0  0  0  0  0  0  0  0  0  0  0
    5.8719   -3.2411   21.2000 C   0  0  0  0  0  0  0  0  0  0  0  0
    5.6730   -4.5517   21.6312 C   0  0  0  0  0  0  0  0  0  0  0  0
    5.6831   -4.7962   22.6879 H   0  0  0  0  0  0  0  0  0  0  0  0
    5.4381   -5.5441   20.6744 C   0  0  0  0  0  0  0  0  0  0  0  0
    5.2717   -6.5757   20.9824 H   0  0  0  0  0  0  0  0  0  0  0  0
    5.3720   -5.2984   19.3589 N   0  0  0  0  0  0  0  0  0  0  0  0
    5.5339   -4.0239   18.9643 C   0  0  0  0  0  0  0  0  0  0  0  0
    5.4431   -3.7935   17.9075 H   0  0  0  0  0  0  0  0  0  0  0  0
    5.7854   -2.9839   19.8340 C   0  0  0  0  0  0  0  0  0  0  0  0
    5.9192   -1.9744   19.4612 H   0  0  0  0  0  0  0  0  0  0  0  0
    9.1576   -2.9415   23.6568 C   0  0  0  0  0  0  0  0  0  0  0  0
    8.9949   -3.9782   23.3444 H   0  0  0  0  0  0  0  0  0  0  0  0
    8.6277   -2.8061   24.6008 H   0  0  0  0  0  0  0  0  0  0  0  0
   10.6575   -2.5836   23.7792 C   0  0  0  0  0  0  0  0  0  0  0  0
   11.2993   -3.4571   23.8888 H   0  0  0  0  0  0  0  0  0  0  0  0
   10.7859   -1.9488   24.6560 H   0  0  0  0  0  0  0  0  0  0  0  0
   11.0289   -1.7710   22.5096 C   0  0  0  0  0  0  0  0  0  0  0  0
   11.5091   -2.3744   21.7355 H   0  0  0  0  0  0  0  0  0  0  0  0
   11.6652   -0.9066   22.7068 H   0  0  0  0  0  0  0  0  0  0  0  0
    6.1121    0.7484   20.2557 C   0  0  0  0  0  0  0  0  0  0  0  0
    5.7507    0.7952   21.2847 H   0  0  0  0  0  0  0  0  0  0  0  0
    5.3831    1.3082   19.2108 C   0  0  0  0  0  0  0  0  0  0  0  0
    4.4236    1.7800   19.3852 H   0  0  0  0  0  0  0  0  0  0  0  0
  1  2  1  0
  2  3  2  0
  3  4  1  0
  4  5  1  0
  4  6  2  0
  6  7  1  0
  7  8  2  0
  8  9  1  0
  9 10  1  0
 10 11  2  0
 11 12  1  0
 12 13  1  0
 12 14  1  0
 12 15  1  0
 15 16  2  0
 16 17  1  0
 16 18  1  0
 18 19  1  0
 18 20  2  0
 20 21  1  0
 21 22  1  0
 21 23  2  0
 23 24  1  0
 10 25  1  0
 25 26  1  0
 25 27  1  0
 25 28  1  0
 28 29  1  0
 28 30  1  0
 28 31  1  0
 31 32  1  0
 31 33  1  0
  6 34  1  0
 34 35  1  0
 34 36  2  0
 36 37  1  0
 36  2  1  0
 11  7  1  0
 23 15  1  0
 31  9  1  0
M  END
>  <cnnaffinity>  (1) 
-5.61364

>  <filename>  (1) 
c1cncc(-c2nn3c(c2Cc2ccncc2)CCC3)c1

$$$$
