
     RDKit          3D

 25 28  0  0  0  0  0  0  0  0999 V2000
    5.9276    2.3112   28.5907 H   0  0  0  0  0  0  0  0  0  0  0  0
    6.0009    2.0014   27.5552 C   0  0  0  0  0  0  0  0  0  0  0  0
    5.3075    2.5350   26.5964 N   0  0  0  0  0  0  0  0  0  0  0  0
    5.6162    1.9369   25.4043 C   0  0  0  0  0  0  0  0  0  0  0  0
    5.1281    2.2606   24.4931 H   0  0  0  0  0  0  0  0  0  0  0  0
    6.5474    0.9427   25.4594 C   0  0  0  0  0  0  0  0  0  0  0  0
    7.0342    0.1683   24.3324 C   0  0  0  0  0  0  0  0  0  0  0  0
    6.6142    0.3626   23.1187 N   0  0  0  0  0  0  0  0  0  0  0  0
    7.2651   -0.5102   22.2853 N   0  0  0  0  0  0  0  0  0  0  0  0
    7.4016   -0.6988   20.9199 C   0  0  0  0  0  0  0  0  0  0  0  0
    6.6473    0.0109   19.8917 C   0  0  0  0  0  0  0  0  0  0  0  0
    7.1743    0.0564   18.5903 C   0  0  0  0  0  0  0  0  0  0  0  0
    8.1240   -0.4343   18.3737 H   0  0  0  0  0  0  0  0  0  0  0  0
    6.5697    0.6777   17.5769 N   0  0  0  0  0  0  0  0  0  0  0  0
    5.4045    1.2900   17.8425 C   0  0  0  0  0  0  0  0  0  0  0  0
    4.9170    1.7760   17.0015 H   0  0  0  0  0  0  0  0  0  0  0  0
    4.8047    1.3083   19.1087 C   0  0  0  0  0  0  0  0  0  0  0  0
    3.8740    1.8436   19.2612 H   0  0  0  0  0  0  0  0  0  0  0  0
    5.4326    0.6524   20.1620 C   0  0  0  0  0  0  0  0  0  0  0  0
    5.0092    0.6375   21.1703 H   0  0  0  0  0  0  0  0  0  0  0  0
    8.3266   -1.6014   20.7039 N   0  0  0  0  0  0  0  0  0  0  0  0
    8.8239   -2.0329   21.9134 N   0  0  0  0  0  0  0  0  0  0  0  0
    8.1904   -1.3472   22.8270 C   0  0  0  0  0  0  0  0  0  0  0  0
    8.2584   -1.0956   24.5533 S   0  0  0  0  0  0  0  0  0  0  0  0
    7.0832    0.7304   27.0897 S   0  0  0  0  0  0  0  0  0  0  0  0
  1  2  1  0
  2  3  2  0
  3  4  1  0
  4  5  1  0
  4  6  2  0
  6  7  1  0
  7  8  2  0
  8  9  1  0
  9 10  1  0
 10 11  1  0
 11 12  2  0
 12 13  1  0
 12 14  1  0
 14 15  2  0
 15 16  1  0
 15 17  1  0
 17 18  1  0
 17 19  2  0
 19 20  1  0
 10 21  2  0
 21 22  1  0
 22 23  2  0
 23 24  1  0
  6 25  1  0
 25  2  1  0
 24  7  1  0
 23  9  1  0
 19 11  1  0
M  END
>  <cnnaffinity>  (1) 
-5.09769

>  <filename>  (1) 
c1cncc(-c2nnc3sc(-c4cncs4)nn23)c1

$$$$
