
     RDKit          3D

 40 43  0  0  0  0  0  0  0  0999 V2000
    4.9222    1.8114   16.9661 H   0  0  0  0  0  0  0  0  0  0  0  0
    5.3891    1.3067   17.8090 C   0  0  0  0  0  0  0  0  0  0  0  0
    6.5503    0.6818   17.5528 N   0  0  0  0  0  0  0  0  0  0  0  0
    7.1620    0.0688   18.5775 C   0  0  0  0  0  0  0  0  0  0  0  0
    8.1061   -0.4229   18.3443 H   0  0  0  0  0  0  0  0  0  0  0  0
    6.6650    0.0405   19.9080 C   0  0  0  0  0  0  0  0  0  0  0  0
    7.2763   -0.6406   20.9765 N   0  0  0  0  0  0  0  0  0  0  0  0
    7.7534    0.0706   22.1544 C   0  0  0  0  0  0  0  0  0  0  0  0
    7.2021    1.0159   22.2423 H   0  0  0  0  0  0  0  0  0  0  0  0
    8.8260    0.3313   22.0547 H   0  0  0  0  0  0  0  0  0  0  0  0
    7.5501   -0.8044   23.3954 C   0  0  0  0  0  0  0  0  0  0  0  0
    7.9288   -0.2985   24.2917 H   0  0  0  0  0  0  0  0  0  0  0  0
    6.4728   -0.9636   23.5426 H   0  0  0  0  0  0  0  0  0  0  0  0
    8.2276   -2.1855   23.2258 C   0  0  0  0  0  0  0  0  0  0  0  0
    9.3124   -2.0223   23.1002 H   0  0  0  0  0  0  0  0  0  0  0  0
    8.0175   -3.0701   24.4427 C   0  0  0  0  0  0  0  0  0  0  0  0
    9.1410   -3.5127   25.1877 C   0  0  0  0  0  0  0  0  0  0  0  0
   10.1278   -3.2032   24.8494 H   0  0  0  0  0  0  0  0  0  0  0  0
    9.0020   -4.3138   26.3131 C   0  0  0  0  0  0  0  0  0  0  0  0
    9.8822   -4.6343   26.8627 H   0  0  0  0  0  0  0  0  0  0  0  0
    7.7044   -4.7005   26.7234 C   0  0  0  0  0  0  0  0  0  0  0  0
    7.1821   -5.4985   27.8030 C   0  0  0  0  0  0  0  0  0  0  0  0
    7.7633   -6.0014   28.5658 H   0  0  0  0  0  0  0  0  0  0  0  0
    5.8250   -5.5107   27.6680 C   0  0  0  0  0  0  0  0  0  0  0  0
    5.0614   -5.9932   28.2665 H   0  0  0  0  0  0  0  0  0  0  0  0
    5.4619   -4.7672   26.5645 N   0  0  0  0  0  0  0  0  0  0  0  0
    4.5234   -4.6054   26.2396 H   0  0  0  0  0  0  0  0  0  0  0  0
    6.5879   -4.2582   25.9665 C   0  0  0  0  0  0  0  0  0  0  0  0
    6.7320   -3.4472   24.8292 C   0  0  0  0  0  0  0  0  0  0  0  0
    5.8754   -3.1057   24.2519 H   0  0  0  0  0  0  0  0  0  0  0  0
    7.7006   -2.8619   21.9450 C   0  0  0  0  0  0  0  0  0  0  0  0
    8.2214   -3.8106   21.7663 H   0  0  0  0  0  0  0  0  0  0  0  0
    6.6361   -3.0997   22.0656 H   0  0  0  0  0  0  0  0  0  0  0  0
    7.8490   -1.9475   20.7329 C   0  0  0  0  0  0  0  0  0  0  0  0
    7.2664   -2.3633   19.9069 H   0  0  0  0  0  0  0  0  0  0  0  0
    8.9158   -1.8852   20.4431 H   0  0  0  0  0  0  0  0  0  0  0  0
    5.4432    0.6911   20.1378 C   0  0  0  0  0  0  0  0  0  0  0  0
    5.0358    0.6457   21.1469 H   0  0  0  0  0  0  0  0  0  0  0  0
    4.7949    1.3288   19.0775 C   0  0  0  0  0  0  0  0  0  0  0  0
    3.8578    1.8531   19.2320 H   0  0  0  0  0  0  0  0  0  0  0  0
  1  2  1  0
  2  3  2  0
  3  4  1  0
  4  5  1  0
  4  6  2  0
  6  7  1  0
  7  8  1  0
  8  9  1  0
  8 10  1  0
  8 11  1  0
 11 12  1  0
 11 13  1  0
 11 14  1  0
 14 15  1  0
 14 16  1  0
 16 17  2  0
 17 18  1  0
 17 19  1  0
 19 20  1  0
 19 21  2  0
 21 22  1  0
 22 23  1  0
 22 24  2  0
 24 25  1  0
 24 26  1  0
 26 27  1  0
 26 28  1  0
 28 29  2  0
 29 30  1  0
 14 31  1  0
 31 32  1  0
 31 33  1  0
 31 34  1  0
 34 35  1  0
 34 36  1  0
  6 37  1  0
 37 38  1  0
 37 39  2  0
 39 40  1  0
 39  2  1  0
 34  7  1  0
 29 16  1  0
 28 21  1  0
M  END
>  <cnnaffinity>  (1) 
-5.27403

>  <filename>  (1) 
c1cncc(N2CCC(c3ccc4cc[nH]c4c3)CC2)c1

$$$$
