
     RDKit          3D

 33 36  0  0  0  0  0  0  0  0999 V2000
    4.9523    1.7800   16.9942 H   0  0  0  0  0  0  0  0  0  0  0  0
    5.4114    1.2857   17.8476 C   0  0  0  0  0  0  0  0  0  0  0  0
    6.5772    0.6655   17.6100 N   0  0  0  0  0  0  0  0  0  0  0  0
    7.1689    0.0494   18.6369 C   0  0  0  0  0  0  0  0  0  0  0  0
    8.1099   -0.4492   18.4092 H   0  0  0  0  0  0  0  0  0  0  0  0
    6.6408    0.0312   19.9318 C   0  0  0  0  0  0  0  0  0  0  0  0
    7.3874   -0.7045   20.9635 C   0  0  0  0  0  0  0  0  0  0  0  0
    8.0188   -1.7835   20.6951 N   0  0  0  0  0  0  0  0  0  0  0  0
    8.5200   -2.3356   21.9525 C   0  0  0  0  0  0  0  0  0  0  0  0
    8.1362   -3.3555   22.0991 H   0  0  0  0  0  0  0  0  0  0  0  0
    9.6155   -2.4064   21.9107 H   0  0  0  0  0  0  0  0  0  0  0  0
    8.0427   -1.3768   23.0703 C   0  0  0  0  0  0  0  0  0  0  0  0
    8.8671   -0.9668   23.6688 H   0  0  0  0  0  0  0  0  0  0  0  0
    7.3472   -1.8568   23.7759 H   0  0  0  0  0  0  0  0  0  0  0  0
    7.3874   -0.3187   22.2977 N   0  0  0  0  0  0  0  0  0  0  0  0
    7.1635    0.9729   22.8404 C   0  0  0  0  0  0  0  0  0  0  0  0
    7.5717    2.1392   22.1198 C   0  0  0  0  0  0  0  0  0  0  0  0
    8.0232    1.9893   21.1436 H   0  0  0  0  0  0  0  0  0  0  0  0
    7.3732    3.4125   22.6292 C   0  0  0  0  0  0  0  0  0  0  0  0
    7.6743    4.2959   22.0740 H   0  0  0  0  0  0  0  0  0  0  0  0
    6.7538    3.5206   23.8987 C   0  0  0  0  0  0  0  0  0  0  0  0
    6.3487    2.3820   24.6331 C   0  0  0  0  0  0  0  0  0  0  0  0
    5.7980    2.9273   25.8387 C   0  0  0  0  0  0  0  0  0  0  0  0
    5.3728    2.4057   26.6885 H   0  0  0  0  0  0  0  0  0  0  0  0
    5.8532    4.2444   25.8406 N   0  0  0  0  0  0  0  0  0  0  0  0
    6.4290    4.5971   24.6681 N   0  0  0  0  0  0  0  0  0  0  0  0
    6.5659    5.5733   24.4514 H   0  0  0  0  0  0  0  0  0  0  0  0
    6.5622    1.0879   24.0889 C   0  0  0  0  0  0  0  0  0  0  0  0
    6.2705    0.1816   24.6077 H   0  0  0  0  0  0  0  0  0  0  0  0
    5.4124    0.6643   20.1689 C   0  0  0  0  0  0  0  0  0  0  0  0
    4.9775    0.6709   21.1714 H   0  0  0  0  0  0  0  0  0  0  0  0
    4.7942    1.3085   19.1033 C   0  0  0  0  0  0  0  0  0  0  0  0
    3.8629    1.8441   19.2354 H   0  0  0  0  0  0  0  0  0  0  0  0
  1  2  1  0
  2  3  2  0
  3  4  1  0
  4  5  1  0
  4  6  2  0
  6  7  1  0
  7  8  2  0
  8  9  1  0
  9 10  1  0
  9 11  1  0
  9 12  1  0
 12 13  1  0
 12 14  1  0
 12 15  1  0
 15 16  1  0
 16 17  2  0
 17 18  1  0
 17 19  1  0
 19 20  1  0
 19 21  2  0
 21 22  1  0
 22 23  1  0
 23 24  1  0
 23 25  2  0
 25 26  1  0
 26 27  1  0
 22 28  2  0
 28 29  1  0
  6 30  1  0
 30 31  1  0
 30 32  2  0
 32 33  1  0
 32  2  1  0
 15  7  1  0
 28 16  1  0
 26 21  1  0
M  END
>  <cnnaffinity>  (1) 
-5.05354

>  <filename>  (1) 
c1cncc(C2=NCCN2c2ccc3[nH]ncc3c2)c1

$$$$
