
     RDKit          3D

 34 37  0  0  0  0  0  0  0  0999 V2000
    4.8546    1.7563   17.1949 H   0  0  0  0  0  0  0  0  0  0  0  0
    5.3704    1.3562   18.0635 C   0  0  0  0  0  0  0  0  0  0  0  0
    6.5806    0.8244   17.8374 N   0  0  0  0  0  0  0  0  0  0  0  0
    7.2349    0.3311   18.8946 C   0  0  0  0  0  0  0  0  0  0  0  0
    8.2196   -0.0746   18.6714 H   0  0  0  0  0  0  0  0  0  0  0  0
    6.7411    0.3118   20.2251 C   0  0  0  0  0  0  0  0  0  0  0  0
    7.5361   -0.3166   21.3484 C   0  0  0  0  0  0  0  0  0  0  0  0
    7.0165   -0.2505   22.7509 C   0  0  0  0  0  0  0  0  0  0  0  0
    7.0851    0.7300   23.5833 N   0  0  0  0  0  0  0  0  0  0  0  0
    6.5827    0.2652   24.8076 N   0  0  0  0  0  0  0  0  0  0  0  0
    6.2461   -0.9589   24.5853 C   0  0  0  0  0  0  0  0  0  0  0  0
    5.6522   -1.9316   25.3377 N   0  0  0  0  0  0  0  0  0  0  0  0
    5.1051   -2.4701   24.6878 H   0  0  0  0  0  0  0  0  0  0  0  0
    5.0647   -1.6875   26.5716 C   0  0  0  0  0  0  0  0  0  0  0  0
    5.8293   -1.1982   27.6260 C   0  0  0  0  0  0  0  0  0  0  0  0
    6.8938   -1.0330   27.4956 H   0  0  0  0  0  0  0  0  0  0  0  0
    5.1642   -0.9135   28.8158 C   0  0  0  0  0  0  0  0  0  0  0  0
    5.7083   -0.5368   29.6802 H   0  0  0  0  0  0  0  0  0  0  0  0
    3.8448   -1.0898   28.9905 N   0  0  0  0  0  0  0  0  0  0  0  0
    3.1492   -1.6048   27.9709 C   0  0  0  0  0  0  0  0  0  0  0  0
    2.0877   -1.7668   28.1614 H   0  0  0  0  0  0  0  0  0  0  0  0
    3.7095   -1.9529   26.7473 C   0  0  0  0  0  0  0  0  0  0  0  0
    3.1135   -2.4180   25.9683 H   0  0  0  0  0  0  0  0  0  0  0  0
    6.4939   -1.3801   23.3297 O   0  0  0  0  0  0  0  0  0  0  0  0
    9.0661   -0.3071   21.2841 C   0  0  0  0  0  0  0  0  0  0  0  0
    9.5423    0.1972   20.4445 H   0  0  0  0  0  0  0  0  0  0  0  0
    9.5943   -0.1995   22.2326 H   0  0  0  0  0  0  0  0  0  0  0  0
    8.3296   -1.5682   21.0280 C   0  0  0  0  0  0  0  0  0  0  0  0
    8.2583   -1.9045   20.0056 H   0  0  0  0  0  0  0  0  0  0  0  0
    8.3520   -2.3559   21.7779 H   0  0  0  0  0  0  0  0  0  0  0  0
    5.4696    0.8715   20.4241 C   0  0  0  0  0  0  0  0  0  0  0  0
    5.0280    0.9005   21.4227 H   0  0  0  0  0  0  0  0  0  0  0  0
    4.7812    1.4001   19.3290 C   0  0  0  0  0  0  0  0  0  0  0  0
    3.8037    1.8541   19.4376 H   0  0  0  0  0  0  0  0  0  0  0  0
  1  2  1  0
  2  3  2  0
  3  4  1  0
  4  5  1  0
  4  6  2  0
  6  7  1  0
  7  8  1  0
  8  9  2  0
  9 10  1  0
 10 11  2  0
 11 12  1  0
 12 13  1  0
 12 14  1  0
 14 15  2  0
 15 16  1  0
 15 17  1  0
 17 18  1  0
 17 19  2  0
 19 20  1  0
 20 21  1  0
 20 22  2  0
 22 23  1  0
 11 24  1  0
  7 25  1  0
 25 26  1  0
 25 27  1  0
 25 28  1  0
 28 29  1  0
 28 30  1  0
  6 31  1  0
 31 32  1  0
 31 33  2  0
 33 34  1  0
 33  2  1  0
 28  7  1  0
 24  8  1  0
 22 14  1  0
M  END
>  <cnnaffinity>  (1) 
-5.153

>  <filename>  (1) 
c1cncc(C2(c3nnc(Nc4ccncc4)o3)CC2)c1

$$$$
