
     RDKit          3D

 35 38  0  0  0  0  0  0  0  0999 V2000
    4.9503    1.8125   16.9708 H   0  0  0  0  0  0  0  0  0  0  0  0
    5.4028    1.2943   17.8164 C   0  0  0  0  0  0  0  0  0  0  0  0
    6.5567    0.6571   17.5675 N   0  0  0  0  0  0  0  0  0  0  0  0
    7.1589    0.0273   18.5820 C   0  0  0  0  0  0  0  0  0  0  0  0
    8.1025   -0.4583   18.3465 H   0  0  0  0  0  0  0  0  0  0  0  0
    6.6507   -0.0001   19.8923 C   0  0  0  0  0  0  0  0  0  0  0  0
    7.3917   -0.6657   20.9618 C   0  0  0  0  0  0  0  0  0  0  0  0
    8.1421   -1.8012   20.7439 N   0  0  0  0  0  0  0  0  0  0  0  0
    8.5243   -2.1420   21.9451 C   0  0  0  0  0  0  0  0  0  0  0  0
    9.5112   -3.4027   22.6236 S   0  0  0  0  0  0  0  0  0  0  0  0
    9.4303   -2.6611   24.2036 C   0  0  0  0  0  0  0  0  0  0  0  0
    9.9966   -3.1165   25.0050 H   0  0  0  0  0  0  0  0  0  0  0  0
    8.6538   -1.5677   24.2131 C   0  0  0  0  0  0  0  0  0  0  0  0
    8.4140   -0.8991   25.0331 H   0  0  0  0  0  0  0  0  0  0  0  0
    8.1152   -1.3070   22.9468 N   0  0  0  0  0  0  0  0  0  0  0  0
    7.3987   -0.3033   22.3174 C   0  0  0  0  0  0  0  0  0  0  0  0
    7.0057    0.8172   22.9883 N   0  0  0  0  0  0  0  0  0  0  0  0
    7.5168    2.1187   22.5346 C   0  0  0  0  0  0  0  0  0  0  0  0
    7.3244    2.1948   21.4539 H   0  0  0  0  0  0  0  0  0  0  0  0
    8.6069    2.1431   22.6769 H   0  0  0  0  0  0  0  0  0  0  0  0
    6.8360    3.2716   23.2988 C   0  0  0  0  0  0  0  0  0  0  0  0
    7.2535    3.3399   24.3159 H   0  0  0  0  0  0  0  0  0  0  0  0
    7.0363    4.2286   22.7982 H   0  0  0  0  0  0  0  0  0  0  0  0
    5.3879    3.0841   23.4451 N   0  0  0  0  0  0  0  0  0  0  0  0
    4.9830    3.0130   22.5095 H   0  0  0  0  0  0  0  0  0  0  0  0
    5.0812    1.8480   24.1972 C   0  0  0  0  0  0  0  0  0  0  0  0
    4.1493    1.4548   23.7861 H   0  0  0  0  0  0  0  0  0  0  0  0
    4.8829    2.0993   25.2488 H   0  0  0  0  0  0  0  0  0  0  0  0
    6.1866    0.7443   24.1939 C   0  0  0  0  0  0  0  0  0  0  0  0
    6.8043    0.8723   25.0971 H   0  0  0  0  0  0  0  0  0  0  0  0
    5.7429   -0.2535   24.2342 H   0  0  0  0  0  0  0  0  0  0  0  0
    5.4323    0.6564   20.1302 C   0  0  0  0  0  0  0  0  0  0  0  0
    4.9980    0.6574   21.1311 H   0  0  0  0  0  0  0  0  0  0  0  0
    4.7940    1.3121   19.0784 C   0  0  0  0  0  0  0  0  0  0  0  0
    3.8588    1.8485   19.2153 H   0  0  0  0  0  0  0  0  0  0  0  0
  1  2  1  0
  2  3  2  0
  3  4  1  0
  4  5  1  0
  4  6  2  0
  6  7  1  0
  7  8  1  0
  8  9  2  0
  9 10  1  0
 10 11  1  0
 11 12  1  0
 11 13  2  0
 13 14  1  0
 13 15  1  0
 15 16  1  0
 16 17  1  0
 17 18  1  0
 18 19  1  0
 18 20  1  0
 18 21  1  0
 21 22  1  0
 21 23  1  0
 21 24  1  0
 24 25  1  0
 24 26  1  0
 26 27  1  0
 26 28  1  0
 26 29  1  0
 29 30  1  0
 29 31  1  0
  6 32  1  0
 32 33  1  0
 32 34  2  0
 34 35  1  0
 34  2  1  0
 16  7  2  0
 29 17  1  0
 15  9  1  0
M  END
>  <cnnaffinity>  (1) 
-5.2885

>  <filename>  (1) 
c1cncc(-c2nc3sccn3c2N2CCNCC2)c1

$$$$
