
     RDKit          3D

 40 42  0  0  0  0  0  0  0  0999 V2000
    4.9166    1.7897   16.9906 H   0  0  0  0  0  0  0  0  0  0  0  0
    5.4003    1.3010   17.8326 C   0  0  0  0  0  0  0  0  0  0  0  0
    6.5581    0.6826   17.5658 N   0  0  0  0  0  0  0  0  0  0  0  0
    7.1641    0.0676   18.5923 C   0  0  0  0  0  0  0  0  0  0  0  0
    8.1091   -0.4226   18.3600 H   0  0  0  0  0  0  0  0  0  0  0  0
    6.6613    0.0048   19.9056 C   0  0  0  0  0  0  0  0  0  0  0  0
    7.4019   -0.7203   20.9987 C   0  0  0  0  0  0  0  0  0  0  0  0
    7.9519   -1.5713   20.5682 H   0  0  0  0  0  0  0  0  0  0  0  0
    6.6617   -1.1514   21.6918 H   0  0  0  0  0  0  0  0  0  0  0  0
    8.4114    0.1328   21.8363 C   0  0  1  0  0  0  0  0  0  0  0  0
    9.2309   -0.8003   22.7557 C   0  0  0  0  0  0  0  0  0  0  0  0
    9.8436   -0.1789   23.4243 H   0  0  0  0  0  0  0  0  0  0  0  0
    9.9464   -1.3816   22.1549 H   0  0  0  0  0  0  0  0  0  0  0  0
    8.4375   -1.7706   23.6201 C   0  0  1  0  0  0  0  0  0  0  0  0
    7.8595   -2.4484   22.9696 H   0  0  0  0  0  0  0  0  0  0  0  0
    9.3643   -2.5466   24.3713 O   0  0  0  0  0  0  0  0  0  0  0  0
    8.8076   -2.9285   25.6218 C   0  0  0  0  0  0  0  0  0  0  0  0
    9.5140   -2.6326   26.4065 H   0  0  0  0  0  0  0  0  0  0  0  0
    8.6898   -4.0220   25.6756 H   0  0  0  0  0  0  0  0  0  0  0  0
    7.4555   -2.2040   25.7599 C   0  0  0  0  0  0  0  0  0  0  0  0
    6.6215   -2.8922   25.5914 H   0  0  0  0  0  0  0  0  0  0  0  0
    7.3265   -1.7756   26.7571 H   0  0  0  0  0  0  0  0  0  0  0  0
    7.5147   -1.1390   24.6624 C   0  0  0  0  0  0  0  0  0  0  0  0
    7.9627   -0.2164   25.0476 H   0  0  0  0  0  0  0  0  0  0  0  0
    6.5371   -0.8778   24.2498 H   0  0  0  0  0  0  0  0  0  0  0  0
    9.3852    0.9318   20.9468 C   0  0  0  0  0  0  0  0  0  0  0  0
    9.6203    0.3804   20.0283 H   0  0  0  0  0  0  0  0  0  0  0  0
   10.3405    1.0927   21.4820 H   0  0  0  0  0  0  0  0  0  0  0  0
    8.7054    2.1812   20.6411 N   0  0  0  0  0  0  0  0  0  0  0  0
    9.3598    2.9340   20.4543 H   0  0  0  0  0  0  0  0  0  0  0  0
    7.7972    2.5440   21.7188 C   0  0  0  0  0  0  0  0  0  0  0  0
    6.8235    2.8551   21.3089 H   0  0  0  0  0  0  0  0  0  0  0  0
    8.1839    3.3963   22.3008 H   0  0  0  0  0  0  0  0  0  0  0  0
    7.6950    1.2809   22.5953 C   0  0  0  0  0  0  0  0  0  0  0  0
    6.6537    1.0538   22.8267 H   0  0  0  0  0  0  0  0  0  0  0  0
    8.1851    1.4654   23.5564 H   0  0  0  0  0  0  0  0  0  0  0  0
    5.4429    0.6517   20.1504 C   0  0  0  0  0  0  0  0  0  0  0  0
    5.0042    0.6357   21.1535 H   0  0  0  0  0  0  0  0  0  0  0  0
    4.8053    1.3175   19.0999 C   0  0  0  0  0  0  0  0  0  0  0  0
    3.8727    1.8447   19.2527 H   0  0  0  0  0  0  0  0  0  0  0  0
  1  2  1  0
  2  3  2  0
  3  4  1  0
  4  5  1  0
  4  6  2  0
  6  7  1  0
  7  8  1  0
  7  9  1  0
 10  7  1  6
 10 11  1  0
 11 12  1  0
 11 13  1  0
 11 14  1  0
 14 15  1  6
 14 16  1  0
 16 17  1  0
 17 18  1  0
 17 19  1  0
 17 20  1  0
 20 21  1  0
 20 22  1  0
 20 23  1  0
 23 24  1  0
 23 25  1  0
 10 26  1  0
 26 27  1  0
 26 28  1  0
 26 29  1  0
 29 30  1  0
 29 31  1  0
 31 32  1  0
 31 33  1  0
 31 34  1  0
 34 35  1  0
 34 36  1  0
  6 37  1  0
 37 38  1  0
 37 39  2  0
 39 40  1  0
 39  2  1  0
 34 10  1  0
 23 14  1  0
M  END
>  <cnnaffinity>  (1) 
-4.85455

>  <filename>  (1) 
c1cncc(C[C@]2(C[C@@H]3CCCO3)CCNC2)c1

$$$$
