
     RDKit          3D

 32 36  0  0  0  0  0  0  0  0999 V2000
    4.9181    1.7776   17.0002 H   0  0  0  0  0  0  0  0  0  0  0  0
    5.4039    1.2905   17.8413 C   0  0  0  0  0  0  0  0  0  0  0  0
    6.5687    0.6775   17.5749 N   0  0  0  0  0  0  0  0  0  0  0  0
    7.1737    0.0553   18.5886 C   0  0  0  0  0  0  0  0  0  0  0  0
    8.1227   -0.4339   18.3719 H   0  0  0  0  0  0  0  0  0  0  0  0
    6.6482    0.0096   19.8912 C   0  0  0  0  0  0  0  0  0  0  0  0
    7.4051   -0.7011   20.9155 C   0  0  0  0  0  0  0  0  0  0  0  0
    8.3252   -1.6091   20.7009 N   0  0  0  0  0  0  0  0  0  0  0  0
    8.8347   -2.0320   21.9091 N   0  0  0  0  0  0  0  0  0  0  0  0
    8.2171   -1.3336   22.8207 C   0  0  0  0  0  0  0  0  0  0  0  0
    8.3183   -1.0308   24.5251 S   0  0  0  0  0  0  0  0  0  0  0  0
    7.1069    0.2613   24.2980 C   0  0  0  0  0  0  0  0  0  0  0  0
    6.7136    1.0818   25.4429 C   0  0  0  0  0  0  0  0  0  0  0  0
    7.4146    1.1651   26.6095 C   0  0  0  0  0  0  0  0  0  0  0  0
    8.3280    0.6428   26.8748 H   0  0  0  0  0  0  0  0  0  0  0  0
    6.7401    2.2576   27.7549 S   0  0  0  0  0  0  0  0  0  0  0  0
    5.4283    2.6447   26.6722 C   0  0  0  0  0  0  0  0  0  0  0  0
    4.3637    3.5361   26.9042 C   0  0  0  0  0  0  0  0  0  0  0  0
    4.2964    4.0839   27.8401 H   0  0  0  0  0  0  0  0  0  0  0  0
    3.3981    3.6919   25.9131 C   0  0  0  0  0  0  0  0  0  0  0  0
    2.5657    4.3750   26.0704 H   0  0  0  0  0  0  0  0  0  0  0  0
    3.4790    2.9683   24.7014 C   0  0  0  0  0  0  0  0  0  0  0  0
    2.7170    3.0999   23.9377 H   0  0  0  0  0  0  0  0  0  0  0  0
    4.5260    2.0889   24.4714 C   0  0  0  0  0  0  0  0  0  0  0  0
    4.6116    1.5198   23.5481 H   0  0  0  0  0  0  0  0  0  0  0  0
    5.5284    1.9282   25.4595 C   0  0  0  0  0  0  0  0  0  0  0  0
    6.6592    0.3949   23.0815 N   0  0  0  0  0  0  0  0  0  0  0  0
    7.2852   -0.5051   22.2759 N   0  0  0  0  0  0  0  0  0  0  0  0
    5.4333    0.6519   20.1600 C   0  0  0  0  0  0  0  0  0  0  0  0
    5.0101    0.6347   21.1669 H   0  0  0  0  0  0  0  0  0  0  0  0
    4.8043    1.3079   19.1073 C   0  0  0  0  0  0  0  0  0  0  0  0
    3.8735    1.8430   19.2602 H   0  0  0  0  0  0  0  0  0  0  0  0
  1  2  1  0
  2  3  2  0
  3  4  1  0
  4  5  1  0
  4  6  2  0
  6  7  1  0
  7  8  2  0
  8  9  1  0
  9 10  2  0
 10 11  1  0
 11 12  1  0
 12 13  1  0
 13 14  2  0
 14 15  1  0
 14 16  1  0
 16 17  1  0
 17 18  2  0
 18 19  1  0
 18 20  1  0
 20 21  1  0
 20 22  2  0
 22 23  1  0
 22 24  1  0
 24 25  1  0
 24 26  2  0
 12 27  2  0
 27 28  1  0
  6 29  1  0
 29 30  1  0
 29 31  2  0
 31 32  1  0
 31  2  1  0
 28  7  1  0
 28 10  1  0
 26 13  1  0
 26 17  1  0
M  END
>  <cnnaffinity>  (1) 
-5.62359

>  <filename>  (1) 
c1cncc(-c2nnc3sc(-c4csc5ccccc45)nn23)c1

$$$$
