
     RDKit          3D

 33 36  0  0  0  0  0  0  0  0999 V2000
    4.9895    2.2950   16.1272 H   0  0  0  0  0  0  0  0  0  0  0  0
    5.2437    1.8273   17.0768 C   0  0  0  0  0  0  0  0  0  0  0  0
    6.3716    1.0989   17.0980 N   0  0  0  0  0  0  0  0  0  0  0  0
    6.7073    0.5376   18.2660 C   0  0  0  0  0  0  0  0  0  0  0  0
    7.6509   -0.0075   18.2823 H   0  0  0  0  0  0  0  0  0  0  0  0
    5.9483    0.6316   19.4467 C   0  0  0  0  0  0  0  0  0  0  0  0
    6.4245   -0.0429   20.6698 C   0  0  0  0  0  0  0  0  0  0  0  0
    5.9411    0.5198   22.2369 S   0  0  0  0  0  0  0  0  0  0  0  0
    6.9354   -0.6332   23.0289 C   0  0  0  0  0  0  0  0  0  0  0  0
    7.0251   -0.6831   24.1034 H   0  0  0  0  0  0  0  0  0  0  0  0
    7.6282   -1.4106   22.1466 C   0  0  0  0  0  0  0  0  0  0  0  0
    8.7597   -2.2796   22.5135 C   0  0  0  0  0  0  0  0  0  0  0  0
    9.9876   -1.9950   21.9423 C   0  0  0  0  0  0  0  0  0  0  0  0
   10.0417   -1.2713   21.1248 H   0  0  0  0  0  0  0  0  0  0  0  0
   11.1752   -2.4975   22.3626 N   0  0  0  0  0  0  0  0  0  0  0  0
   11.1386   -3.3638   23.3551 C   0  0  0  0  0  0  0  0  0  0  0  0
   12.0884   -3.7680   23.7073 H   0  0  0  0  0  0  0  0  0  0  0  0
    9.9419   -3.8475   23.9566 C   0  0  0  0  0  0  0  0  0  0  0  0
    9.9702   -4.8360   24.9853 C   0  0  0  0  0  0  0  0  0  0  0  0
   10.9356   -5.1870   25.3453 H   0  0  0  0  0  0  0  0  0  0  0  0
    8.7968   -5.3242   25.5077 C   0  0  0  0  0  0  0  0  0  0  0  0
    8.8176   -6.0885   26.2817 H   0  0  0  0  0  0  0  0  0  0  0  0
    7.5450   -4.8538   25.0225 C   0  0  0  0  0  0  0  0  0  0  0  0
    6.6266   -5.2471   25.4508 H   0  0  0  0  0  0  0  0  0  0  0  0
    7.4938   -3.8840   24.0356 C   0  0  0  0  0  0  0  0  0  0  0  0
    6.5446   -3.5433   23.6340 H   0  0  0  0  0  0  0  0  0  0  0  0
    8.6966   -3.3220   23.5017 C   0  0  0  0  0  0  0  0  0  0  0  0
    7.3229   -1.0643   20.7915 C   0  0  0  0  0  0  0  0  0  0  0  0
    7.7546   -1.6189   19.9649 H   0  0  0  0  0  0  0  0  0  0  0  0
    4.7705    1.4055   19.4023 C   0  0  0  0  0  0  0  0  0  0  0  0
    4.1572    1.5451   20.2937 H   0  0  0  0  0  0  0  0  0  0  0  0
    4.4182    2.0046   18.1936 C   0  0  0  0  0  0  0  0  0  0  0  0
    3.5267    2.6179   18.1097 H   0  0  0  0  0  0  0  0  0  0  0  0
  1  2  1  0
  2  3  2  0
  3  4  1  0
  4  5  1  0
  4  6  2  0
  6  7  1  0
  7  8  1  0
  8  9  1  0
  9 10  1  0
  9 11  2  0
 11 12  1  0
 12 13  2  0
 13 14  1  0
 13 15  1  0
 15 16  2  0
 16 17  1  0
 16 18  1  0
 18 19  2  0
 19 20  1  0
 19 21  1  0
 21 22  1  0
 21 23  2  0
 23 24  1  0
 23 25  1  0
 25 26  1  0
 25 27  2  0
 11 28  1  0
 28 29  1  0
  6 30  1  0
 30 31  1  0
 30 32  2  0
 32 33  1  0
 32  2  1  0
 28  7  2  0
 27 12  1  0
 27 18  1  0
M  END
>  <cnnaffinity>  (1) 
-5.65707

>  <filename>  (1) 
c1cncc(-c2cc(-c3cncc4ccccc34)cs2)c1

$$$$
