
     RDKit          3D

 32 36  0  0  0  0  0  0  0  0999 V2000
    4.9184    1.7769   17.0006 H   0  0  0  0  0  0  0  0  0  0  0  0
    5.4050    1.2901   17.8413 C   0  0  0  0  0  0  0  0  0  0  0  0
    6.5700    0.6772   17.5739 N   0  0  0  0  0  0  0  0  0  0  0  0
    7.1731    0.0564   18.5890 C   0  0  0  0  0  0  0  0  0  0  0  0
    8.1228   -0.4337   18.3725 H   0  0  0  0  0  0  0  0  0  0  0  0
    6.6466    0.0105   19.8915 C   0  0  0  0  0  0  0  0  0  0  0  0
    7.4046   -0.7014   20.9170 C   0  0  0  0  0  0  0  0  0  0  0  0
    8.3301   -1.6039   20.7011 N   0  0  0  0  0  0  0  0  0  0  0  0
    8.8291   -2.0384   21.9090 N   0  0  0  0  0  0  0  0  0  0  0  0
    8.2008   -1.3554   22.8289 C   0  0  0  0  0  0  0  0  0  0  0  0
    8.2649   -1.1051   24.5556 S   0  0  0  0  0  0  0  0  0  0  0  0
    7.0495    0.1458   24.3164 C   0  0  0  0  0  0  0  0  0  0  0  0
    6.5355    0.9415   25.4085 C   0  0  0  0  0  0  0  0  0  0  0  0
    7.0054    0.7230   26.6892 O   0  0  0  0  0  0  0  0  0  0  0  0
    6.3392    1.6194   27.4772 C   0  0  0  0  0  0  0  0  0  0  0  0
    6.4538    1.8071   28.8597 C   0  0  0  0  0  0  0  0  0  0  0  0
    7.1384    1.1987   29.4451 H   0  0  0  0  0  0  0  0  0  0  0  0
    5.6508    2.8012   29.4348 C   0  0  0  0  0  0  0  0  0  0  0  0
    5.7062    2.9793   30.5061 H   0  0  0  0  0  0  0  0  0  0  0  0
    4.7603    3.5871   28.6599 C   0  0  0  0  0  0  0  0  0  0  0  0
    4.1485    4.3521   29.1343 H   0  0  0  0  0  0  0  0  0  0  0  0
    4.6576    3.3898   27.2882 C   0  0  0  0  0  0  0  0  0  0  0  0
    3.9873    3.9715   26.6579 H   0  0  0  0  0  0  0  0  0  0  0  0
    5.4571    2.3947   26.6969 C   0  0  0  0  0  0  0  0  0  0  0  0
    5.6103    1.9290   25.3598 C   0  0  0  0  0  0  0  0  0  0  0  0
    5.0955    2.2896   24.4783 H   0  0  0  0  0  0  0  0  0  0  0  0
    6.6245    0.3437   23.1009 N   0  0  0  0  0  0  0  0  0  0  0  0
    7.2743   -0.5197   22.2798 N   0  0  0  0  0  0  0  0  0  0  0  0
    5.4315    0.6523   20.1633 C   0  0  0  0  0  0  0  0  0  0  0  0
    5.0092    0.6385   21.1727 H   0  0  0  0  0  0  0  0  0  0  0  0
    4.8049    1.3075   19.1082 C   0  0  0  0  0  0  0  0  0  0  0  0
    3.8740    1.8433   19.2604 H   0  0  0  0  0  0  0  0  0  0  0  0
  1  2  1  0
  2  3  2  0
  3  4  1  0
  4  5  1  0
  4  6  2  0
  6  7  1  0
  7  8  2  0
  8  9  1  0
  9 10  2  0
 10 11  1  0
 11 12  1  0
 12 13  1  0
 13 14  1  0
 14 15  1  0
 15 16  2  0
 16 17  1  0
 16 18  1  0
 18 19  1  0
 18 20  2  0
 20 21  1  0
 20 22  1  0
 22 23  1  0
 22 24  2  0
 24 25  1  0
 25 26  1  0
 12 27  2  0
 27 28  1  0
  6 29  1  0
 29 30  1  0
 29 31  2  0
 31 32  1  0
 31  2  1  0
 28  7  1  0
 28 10  1  0
 25 13  2  0
 24 15  1  0
M  END
>  <cnnaffinity>  (1) 
-5.47099

>  <filename>  (1) 
c1cncc(-c2nnc3sc(-c4cc5ccccc5o4)nn23)c1

$$$$
