
     RDKit          3D

 34 38  0  0  0  0  0  0  0  0999 V2000
    4.9124    1.8116   16.9709 H   0  0  0  0  0  0  0  0  0  0  0  0
    5.3776    1.3048   17.8176 C   0  0  0  0  0  0  0  0  0  0  0  0
    6.5405    0.6857   17.5623 N   0  0  0  0  0  0  0  0  0  0  0  0
    7.1515    0.0761   18.5817 C   0  0  0  0  0  0  0  0  0  0  0  0
    8.1025   -0.3919   18.3360 H   0  0  0  0  0  0  0  0  0  0  0  0
    6.6606    0.0264   19.9066 C   0  0  0  0  0  0  0  0  0  0  0  0
    7.4146   -0.6804   20.9586 C   0  0  0  0  0  0  0  0  0  0  0  0
    8.3276   -1.7094   20.8973 C   0  0  0  0  0  0  0  0  0  0  0  0
    8.7342   -2.1206   19.9947 H   0  0  0  0  0  0  0  0  0  0  0  0
    8.7839   -2.1235   22.1187 N   0  0  0  0  0  0  0  0  0  0  0  0
    8.1735   -1.3102   22.9400 C   0  0  0  0  0  0  0  0  0  0  0  0
    8.2510   -0.9613   24.6230 S   0  0  0  0  0  0  0  0  0  0  0  0
    7.1343    0.3745   24.3076 C   0  0  0  0  0  0  0  0  0  0  0  0
    6.6797    1.2658   25.3881 C   0  0  0  0  0  0  0  0  0  0  0  0
    5.7735    2.3230   25.0782 C   0  0  0  0  0  0  0  0  0  0  0  0
    5.4444    2.4543   24.0484 H   0  0  0  0  0  0  0  0  0  0  0  0
    5.3205    3.1748   26.0710 C   0  0  0  0  0  0  0  0  0  0  0  0
    4.6314    3.9776   25.8321 H   0  0  0  0  0  0  0  0  0  0  0  0
    5.7646    2.9938   27.4008 C   0  0  0  0  0  0  0  0  0  0  0  0
    5.5174    3.6589   28.6476 C   0  0  0  0  0  0  0  0  0  0  0  0
    4.8685    4.5127   28.7918 H   0  0  0  0  0  0  0  0  0  0  0  0
    6.2466    3.0133   29.6026 C   0  0  0  0  0  0  0  0  0  0  0  0
    6.3299    3.1973   30.6656 H   0  0  0  0  0  0  0  0  0  0  0  0
    6.9459    1.9746   29.0251 N   0  0  0  0  0  0  0  0  0  0  0  0
    7.5585    1.3245   29.4891 H   0  0  0  0  0  0  0  0  0  0  0  0
    6.6682    1.9392   27.6838 C   0  0  0  0  0  0  0  0  0  0  0  0
    7.1346    1.0694   26.6963 C   0  0  0  0  0  0  0  0  0  0  0  0
    7.8284    0.2669   26.9326 H   0  0  0  0  0  0  0  0  0  0  0  0
    6.7530    0.5205   23.0763 N   0  0  0  0  0  0  0  0  0  0  0  0
    7.3345   -0.4327   22.3224 N   0  0  0  0  0  0  0  0  0  0  0  0
    5.4304    0.6658   20.1455 C   0  0  0  0  0  0  0  0  0  0  0  0
    5.0175    0.6535   21.1523 H   0  0  0  0  0  0  0  0  0  0  0  0
    4.7891    1.3152   19.0859 C   0  0  0  0  0  0  0  0  0  0  0  0
    3.8579    1.8492   19.2305 H   0  0  0  0  0  0  0  0  0  0  0  0
  1  2  1  0
  2  3  2  0
  3  4  1  0
  4  5  1  0
  4  6  2  0
  6  7  1  0
  7  8  2  0
  8  9  1  0
  8 10  1  0
 10 11  2  0
 11 12  1  0
 12 13  1  0
 13 14  1  0
 14 15  2  0
 15 16  1  0
 15 17  1  0
 17 18  1  0
 17 19  2  0
 19 20  1  0
 20 21  1  0
 20 22  2  0
 22 23  1  0
 22 24  1  0
 24 25  1  0
 24 26  1  0
 26 27  2  0
 27 28  1  0
 13 29  2  0
 29 30  1  0
  6 31  1  0
 31 32  1  0
 31 33  2  0
 33 34  1  0
 33  2  1  0
 30  7  1  0
 30 11  1  0
 27 14  1  0
 26 19  1  0
M  END
>  <cnnaffinity>  (1) 
-5.34546

>  <filename>  (1) 
c1cncc(-c2cnc3sc(-c4ccc5cc[nH]c5c4)nn23)c1

$$$$
