
     RDKit          3D

 31 33  0  0  0  0  0  0  0  0999 V2000
    4.9510    1.7970   16.9847 H   0  0  0  0  0  0  0  0  0  0  0  0
    5.4044    1.2885   17.8298 C   0  0  0  0  0  0  0  0  0  0  0  0
    6.5685    0.6631   17.5903 N   0  0  0  0  0  0  0  0  0  0  0  0
    7.1757    0.0599   18.6172 C   0  0  0  0  0  0  0  0  0  0  0  0
    8.1234   -0.4312   18.3913 H   0  0  0  0  0  0  0  0  0  0  0  0
    6.6524    0.0521   19.9258 C   0  0  0  0  0  0  0  0  0  0  0  0
    7.3273   -0.6339   20.9770 N   0  0  0  0  0  0  0  0  0  0  0  0
    7.6877   -1.9667   20.8990 C   0  0  0  0  0  0  0  0  0  0  0  0
    7.3114   -2.5443   20.0727 H   0  0  0  0  0  0  0  0  0  0  0  0
    8.3377   -2.3283   22.0485 C   0  0  0  0  0  0  0  0  0  0  0  0
    8.7706   -3.2964   22.2723 H   0  0  0  0  0  0  0  0  0  0  0  0
    8.3230   -1.1923   22.9028 C   0  0  0  0  0  0  0  0  0  0  0  0
    8.6868   -1.0885   23.9109 H   0  0  0  0  0  0  0  0  0  0  0  0
    7.6831   -0.1713   22.2385 C   0  0  0  0  0  0  0  0  0  0  0  0
    7.3077    1.0798   22.6984 N   0  0  0  0  0  0  0  0  0  0  0  0
    7.3338    1.7617   21.9532 H   0  0  0  0  0  0  0  0  0  0  0  0
    7.7825    1.5636   23.9933 C   0  0  0  0  0  0  0  0  0  0  0  0
    7.4421    0.8804   24.7859 H   0  0  0  0  0  0  0  0  0  0  0  0
    7.2687    2.5137   24.1819 H   0  0  0  0  0  0  0  0  0  0  0  0
    9.2804    1.7196   24.1295 C   0  0  0  0  0  0  0  0  0  0  0  0
   10.2033    2.6969   23.0450 S   0  0  0  0  0  0  0  0  0  0  0  0
   11.6810    2.2556   23.8109 C   0  0  0  0  0  0  0  0  0  0  0  0
   12.6101    2.6995   23.4762 H   0  0  0  0  0  0  0  0  0  0  0  0
   11.4807    1.3829   24.8372 C   0  0  0  0  0  0  0  0  0  0  0  0
   12.2799    0.9342   25.4178 H   0  0  0  0  0  0  0  0  0  0  0  0
   10.0940    1.1000   25.0384 C   0  0  0  0  0  0  0  0  0  0  0  0
    9.7060    0.4823   25.8452 H   0  0  0  0  0  0  0  0  0  0  0  0
    5.4247    0.6899   20.1596 C   0  0  0  0  0  0  0  0  0  0  0  0
    4.9895    0.6669   21.1594 H   0  0  0  0  0  0  0  0  0  0  0  0
    4.7900    1.3165   19.0868 C   0  0  0  0  0  0  0  0  0  0  0  0
    3.8501    1.8420   19.2212 H   0  0  0  0  0  0  0  0  0  0  0  0
  1  2  1  0
  2  3  2  0
  3  4  1  0
  4  5  1  0
  4  6  2  0
  6  7  1  0
  7  8  1  0
  8  9  1  0
  8 10  2  0
 10 11  1  0
 10 12  1  0
 12 13  1  0
 12 14  2  0
 14 15  1  0
 15 16  1  0
 15 17  1  0
 17 18  1  0
 17 19  1  0
 17 20  1  0
 20 21  1  0
 21 22  1  0
 22 23  1  0
 22 24  2  0
 24 25  1  0
 24 26  1  0
 26 27  1  0
  6 28  1  0
 28 29  1  0
 28 30  2  0
 30 31  1  0
 30  2  1  0
 14  7  1  0
 26 20  2  0
M  END
>  <cnnaffinity>  (1) 
-5.11758

>  <filename>  (1) 
c1cncc(-n2cccc2NCc2cccs2)c1

$$$$
