
     RDKit          3D

 27 30  0  0  0  0  0  0  0  0999 V2000
    4.9351    1.7741   16.9997 H   0  0  0  0  0  0  0  0  0  0  0  0
    5.4122    1.2846   17.8443 C   0  0  0  0  0  0  0  0  0  0  0  0
    6.5754    0.6633   17.5938 N   0  0  0  0  0  0  0  0  0  0  0  0
    7.1774    0.0520   18.6181 C   0  0  0  0  0  0  0  0  0  0  0  0
    8.1238   -0.4311   18.3861 H   0  0  0  0  0  0  0  0  0  0  0  0
    6.6413    0.0169   19.9134 C   0  0  0  0  0  0  0  0  0  0  0  0
    7.3613   -0.6892   20.9681 C   0  0  0  0  0  0  0  0  0  0  0  0
    8.5414   -1.3335   20.7538 N   0  0  0  0  0  0  0  0  0  0  0  0
    8.8109   -1.8076   21.9495 C   0  0  0  0  0  0  0  0  0  0  0  0
   10.0520   -2.7458   22.7458 S   0  0  0  0  0  0  0  0  0  0  0  0
    9.1780   -2.6345   24.2402 C   0  0  0  0  0  0  0  0  0  0  0  0
    9.5787   -3.1070   25.1256 H   0  0  0  0  0  0  0  0  0  0  0  0
    8.0309   -1.9299   24.1400 C   0  0  0  0  0  0  0  0  0  0  0  0
    7.0906   -1.6545   25.2132 C   0  0  0  0  0  0  0  0  0  0  0  0
    7.2174   -2.0698   26.5092 C   0  0  0  0  0  0  0  0  0  0  0  0
    7.9598   -2.6469   27.0508 H   0  0  0  0  0  0  0  0  0  0  0  0
    6.1686   -1.6463   27.2448 O   0  0  0  0  0  0  0  0  0  0  0  0
    5.3482   -0.9429   26.4214 C   0  0  0  0  0  0  0  0  0  0  0  0
    4.4562   -0.5391   26.8815 H   0  0  0  0  0  0  0  0  0  0  0  0
    5.8535   -0.9012   25.1725 C   0  0  0  0  0  0  0  0  0  0  0  0
    5.4553   -0.3842   24.3182 H   0  0  0  0  0  0  0  0  0  0  0  0
    7.8456   -1.4732   22.8322 N   0  0  0  0  0  0  0  0  0  0  0  0
    6.8888   -0.7412   22.2099 N   0  0  0  0  0  0  0  0  0  0  0  0
    5.4208    0.6606   20.1680 C   0  0  0  0  0  0  0  0  0  0  0  0
    4.9916    0.6410   21.1745 H   0  0  0  0  0  0  0  0  0  0  0  0
    4.8040    1.3096   19.1054 C   0  0  0  0  0  0  0  0  0  0  0  0
    3.8734    1.8433   19.2534 H   0  0  0  0  0  0  0  0  0  0  0  0
  1  2  1  0
  2  3  2  0
  3  4  1  0
  4  5  1  0
  4  6  2  0
  6  7  1  0
  7  8  1  0
  8  9  2  0
  9 10  1  0
 10 11  1  0
 11 12  1  0
 11 13  2  0
 13 14  1  0
 14 15  2  0
 15 16  1  0
 15 17  1  0
 17 18  1  0
 18 19  1  0
 18 20  2  0
 20 21  1  0
 13 22  1  0
 22 23  1  0
  6 24  1  0
 24 25  1  0
 24 26  2  0
 26 27  1  0
 26  2  1  0
 23  7  2  0
 22  9  1  0
 20 14  1  0
M  END
>  <cnnaffinity>  (1) 
-5.2164

>  <filename>  (1) 
c1cncc(-c2nc3scc(-c4ccoc4)n3n2)c1

$$$$
