
     RDKit          3D

 35 38  0  0  0  0  0  0  0  0999 V2000
    4.9359    1.8041   16.9767 H   0  0  0  0  0  0  0  0  0  0  0  0
    5.3954    1.2981   17.8238 C   0  0  0  0  0  0  0  0  0  0  0  0
    6.5537    0.6680   17.5699 N   0  0  0  0  0  0  0  0  0  0  0  0
    7.1488    0.0359   18.5853 C   0  0  0  0  0  0  0  0  0  0  0  0
    8.0984   -0.4489   18.3662 H   0  0  0  0  0  0  0  0  0  0  0  0
    6.6345    0.0084   19.8897 C   0  0  0  0  0  0  0  0  0  0  0  0
    7.3745   -0.6728   20.9403 C   0  0  0  0  0  0  0  0  0  0  0  0
    7.9244   -1.9186   20.7535 N   0  0  0  0  0  0  0  0  0  0  0  0
    8.4152   -2.2071   21.9261 C   0  0  0  0  0  0  0  0  0  0  0  0
    9.1719   -3.6088   22.6117 S   0  0  0  0  0  0  0  0  0  0  0  0
    9.4250   -2.7595   24.1214 C   0  0  0  0  0  0  0  0  0  0  0  0
    9.9669   -3.2771   24.9037 H   0  0  0  0  0  0  0  0  0  0  0  0
    8.8846   -1.5315   24.1092 C   0  0  0  0  0  0  0  0  0  0  0  0
    8.8231   -0.8242   24.9284 H   0  0  0  0  0  0  0  0  0  0  0  0
    8.3065   -1.2061   22.8730 N   0  0  0  0  0  0  0  0  0  0  0  0
    7.6159   -0.1892   22.2359 C   0  0  0  0  0  0  0  0  0  0  0  0
    7.2864    1.0038   22.8312 N   0  0  0  0  0  0  0  0  0  0  0  0
    6.8894    1.6617   22.1691 H   0  0  0  0  0  0  0  0  0  0  0  0
    8.0958    1.6288   23.8773 C   0  0  0  0  0  0  0  0  0  0  0  0
    7.9234    1.1001   24.8204 H   0  0  0  0  0  0  0  0  0  0  0  0
    7.6815    2.6346   24.0007 H   0  0  0  0  0  0  0  0  0  0  0  0
    9.6118    1.7126   23.6408 C   0  0  0  0  0  0  0  0  0  0  0  0
   10.1528    2.0937   22.4023 C   0  0  0  0  0  0  0  0  0  0  0  0
    9.5136    2.3495   21.5640 H   0  0  0  0  0  0  0  0  0  0  0  0
   11.5400    2.1465   22.2345 C   0  0  0  0  0  0  0  0  0  0  0  0
   11.9688    2.4353   21.2745 H   0  0  0  0  0  0  0  0  0  0  0  0
   12.4150    1.8528   23.2051 N   0  0  0  0  0  0  0  0  0  0  0  0
   11.9118    1.4994   24.3928 C   0  0  0  0  0  0  0  0  0  0  0  0
   12.6448    1.2619   25.1639 H   0  0  0  0  0  0  0  0  0  0  0  0
   10.5389    1.4234   24.6604 C   0  0  0  0  0  0  0  0  0  0  0  0
   10.2212    1.1359   25.6585 H   0  0  0  0  0  0  0  0  0  0  0  0
    5.4171    0.6650   20.1408 C   0  0  0  0  0  0  0  0  0  0  0  0
    4.9869    0.6461   21.1448 H   0  0  0  0  0  0  0  0  0  0  0  0
    4.7873    1.3182   19.0847 C   0  0  0  0  0  0  0  0  0  0  0  0
    3.8565    1.8550   19.2277 H   0  0  0  0  0  0  0  0  0  0  0  0
  1  2  1  0
  2  3  2  0
  3  4  1  0
  4  5  1  0
  4  6  2  0
  6  7  1  0
  7  8  1  0
  8  9  2  0
  9 10  1  0
 10 11  1  0
 11 12  1  0
 11 13  2  0
 13 14  1  0
 13 15  1  0
 15 16  1  0
 16 17  1  0
 17 18  1  0
 17 19  1  0
 19 20  1  0
 19 21  1  0
 19 22  1  0
 22 23  2  0
 23 24  1  0
 23 25  1  0
 25 26  1  0
 25 27  2  0
 27 28  1  0
 28 29  1  0
 28 30  2  0
 30 31  1  0
  6 32  1  0
 32 33  1  0
 32 34  2  0
 34 35  1  0
 34  2  1  0
 16  7  2  0
 30 22  1  0
 15  9  1  0
M  END
>  <cnnaffinity>  (1) 
-5.94705

>  <filename>  (1) 
c1cncc(-c2nc3sccn3c2NCc2ccncc2)c1

$$$$
