
     RDKit          3D

 40 42  0  0  0  0  0  0  0  0999 V2000
    4.9296    1.7959   16.9091 H   0  0  0  0  0  0  0  0  0  0  0  0
    5.3856    1.3444   17.7935 C   0  0  0  0  0  0  0  0  0  0  0  0
    6.5615    0.7233   17.6137 N   0  0  0  0  0  0  0  0  0  0  0  0
    7.1253    0.1543   18.6880 C   0  0  0  0  0  0  0  0  0  0  0  0
    8.0686   -0.3549   18.4990 H   0  0  0  0  0  0  0  0  0  0  0  0
    6.5916    0.1774   19.9964 C   0  0  0  0  0  0  0  0  0  0  0  0
    7.2927   -0.5154   21.1241 C   0  0  0  0  0  0  0  0  0  0  0  0
    7.5431    0.0599   22.3816 C   0  0  0  0  0  0  0  0  0  0  0  0
    7.1732    1.0575   22.6118 H   0  0  0  0  0  0  0  0  0  0  0  0
    8.2454   -0.6544   23.3643 C   0  0  0  0  0  0  0  0  0  0  0  0
    8.3768   -0.2095   24.3523 H   0  0  0  0  0  0  0  0  0  0  0  0
    8.7421   -1.9499   23.1037 C   0  0  0  0  0  0  0  0  0  0  0  0
    9.4627   -2.7725   24.1547 C   0  0  0  0  0  0  0  0  0  0  0  0
    9.8300   -2.1234   24.9654 H   0  0  0  0  0  0  0  0  0  0  0  0
   10.3447   -3.2464   23.6946 H   0  0  0  0  0  0  0  0  0  0  0  0
    8.5769   -3.8877   24.7712 C   0  0  0  0  0  0  0  0  0  0  0  0
    8.2215   -4.5368   23.9498 H   0  0  0  0  0  0  0  0  0  0  0  0
    9.3744   -4.7818   25.7443 C   0  0  0  0  0  0  0  0  0  0  0  0
   10.2238   -5.2439   25.2206 H   0  0  0  0  0  0  0  0  0  0  0  0
    9.8034   -4.1485   26.5392 H   0  0  0  0  0  0  0  0  0  0  0  0
    8.4928   -5.8683   26.3815 C   0  0  0  0  0  0  0  0  0  0  0  0
    8.1486   -6.5593   25.5957 H   0  0  0  0  0  0  0  0  0  0  0  0
    9.0797   -6.4595   27.0870 H   0  0  0  0  0  0  0  0  0  0  0  0
    7.2749   -5.2618   27.0918 C   0  0  0  0  0  0  0  0  0  0  0  0
    6.6503   -6.0567   27.5185 H   0  0  0  0  0  0  0  0  0  0  0  0
    7.6204   -4.6440   27.9371 H   0  0  0  0  0  0  0  0  0  0  0  0
    6.4565   -4.3920   26.1277 C   0  0  0  0  0  0  0  0  0  0  0  0
    5.6126   -3.9265   26.6545 H   0  0  0  0  0  0  0  0  0  0  0  0
    6.0273   -5.0339   25.3414 H   0  0  0  0  0  0  0  0  0  0  0  0
    7.3285   -3.3092   25.4735 C   0  0  0  0  0  0  0  0  0  0  0  0
    7.6619   -2.6038   26.2527 H   0  0  0  0  0  0  0  0  0  0  0  0
    6.7310   -2.7256   24.7602 H   0  0  0  0  0  0  0  0  0  0  0  0
    8.4723   -2.5291   21.8521 C   0  0  0  0  0  0  0  0  0  0  0  0
    8.8423   -3.5264   21.6069 H   0  0  0  0  0  0  0  0  0  0  0  0
    7.7217   -1.8354   20.9077 C   0  0  0  0  0  0  0  0  0  0  0  0
    7.3568   -2.3342   20.0211 H   0  0  0  0  0  0  0  0  0  0  0  0
    5.3572    0.8205   20.1512 C   0  0  0  0  0  0  0  0  0  0  0  0
    4.8781    0.8331   21.1283 H   0  0  0  0  0  0  0  0  0  0  0  0
    4.7431    1.3998   19.0337 C   0  0  0  0  0  0  0  0  0  0  0  0
    3.7805    1.8882   19.1114 H   0  0  0  0  0  0  0  0  0  0  0  0
  1  2  1  0
  2  3  2  0
  3  4  1  0
  4  5  1  0
  4  6  2  0
  6  7  1  0
  7  8  2  0
  8  9  1  0
  8 10  1  0
 10 11  1  0
 10 12  2  0
 12 13  1  0
 13 14  1  0
 13 15  1  0
 13 16  1  0
 16 17  1  0
 16 18  1  0
 18 19  1  0
 18 20  1  0
 18 21  1  0
 21 22  1  0
 21 23  1  0
 21 24  1  0
 24 25  1  0
 24 26  1  0
 24 27  1  0
 27 28  1  0
 27 29  1  0
 27 30  1  0
 30 31  1  0
 30 32  1  0
 12 33  1  0
 33 34  1  0
 33 35  2  0
 35 36  1  0
  6 37  1  0
 37 38  1  0
 37 39  2  0
 39 40  1  0
 39  2  1  0
 35  7  1  0
 30 16  1  0
M  END
>  <cnnaffinity>  (1) 
-4.88449

>  <filename>  (1) 
c1cncc(-c2ccc(CC3CCCCC3)cc2)c1

$$$$
