
     RDKit          3D

 38 42  0  0  0  0  0  0  0  0999 V2000
    4.9446    1.8149   16.9807 H   0  0  0  0  0  0  0  0  0  0  0  0
    5.4022    1.2947   17.8196 C   0  0  0  0  0  0  0  0  0  0  0  0
    6.5635    0.6724   17.5640 N   0  0  0  0  0  0  0  0  0  0  0  0
    7.1526    0.0181   18.5682 C   0  0  0  0  0  0  0  0  0  0  0  0
    8.1076   -0.4509   18.3342 H   0  0  0  0  0  0  0  0  0  0  0  0
    6.6223   -0.0417   19.8689 C   0  0  0  0  0  0  0  0  0  0  0  0
    7.3474   -0.7217   20.9387 C   0  0  0  0  0  0  0  0  0  0  0  0
    7.9944   -1.8632   20.7392 N   0  0  0  0  0  0  0  0  0  0  0  0
    8.4640   -2.1702   21.9515 N   0  0  0  0  0  0  0  0  0  0  0  0
    8.2243   -1.2882   22.9131 C   0  0  0  0  0  0  0  0  0  0  0  0
    7.4938   -0.2821   22.3000 C   0  0  0  0  0  0  0  0  0  0  0  0
    7.2054    0.9938   22.9002 C   0  0  0  0  0  0  0  0  0  0  0  0
    6.9342    1.1151   24.6184 S   0  0  0  0  0  0  0  0  0  0  0  0
    6.7896    2.8481   24.5106 C   0  0  0  0  0  0  0  0  0  0  0  0
    6.5281    3.7499   25.5531 C   0  0  0  0  0  0  0  0  0  0  0  0
    6.3906    3.4029   26.5741 H   0  0  0  0  0  0  0  0  0  0  0  0
    6.4496    5.1016   25.2397 C   0  0  0  0  0  0  0  0  0  0  0  0
    6.2465    5.8155   26.0290 H   0  0  0  0  0  0  0  0  0  0  0  0
    6.6278    5.5591   23.9183 C   0  0  0  0  0  0  0  0  0  0  0  0
    6.5580    6.6208   23.7025 H   0  0  0  0  0  0  0  0  0  0  0  0
    6.8893    4.6672   22.8937 C   0  0  0  0  0  0  0  0  0  0  0  0
    7.0231    5.0012   21.8710 H   0  0  0  0  0  0  0  0  0  0  0  0
    6.9741    3.2934   23.1828 C   0  0  0  0  0  0  0  0  0  0  0  0
    7.2235    2.2046   22.2929 C   0  0  0  0  0  0  0  0  0  0  0  0
    7.4115    2.3043   21.2347 H   0  0  0  0  0  0  0  0  0  0  0  0
    9.0786   -1.5472   24.1269 C   0  0  0  0  0  0  0  0  0  0  0  0
    8.4797   -1.6770   25.0329 H   0  0  0  0  0  0  0  0  0  0  0  0
    9.7377   -0.6877   24.2979 H   0  0  0  0  0  0  0  0  0  0  0  0
    9.8665   -2.8296   23.7264 C   0  0  0  0  0  0  0  0  0  0  0  0
    9.6226   -3.6817   24.3648 H   0  0  0  0  0  0  0  0  0  0  0  0
   10.9454   -2.6875   23.7813 H   0  0  0  0  0  0  0  0  0  0  0  0
    9.4769   -3.1395   22.2562 C   0  0  0  0  0  0  0  0  0  0  0  0
   10.3053   -2.9529   21.5656 H   0  0  0  0  0  0  0  0  0  0  0  0
    9.0523   -4.1375   22.1306 H   0  0  0  0  0  0  0  0  0  0  0  0
    5.4118    0.6209   20.1246 C   0  0  0  0  0  0  0  0  0  0  0  0
    5.0042    0.6499   21.1353 H   0  0  0  0  0  0  0  0  0  0  0  0
    4.7922    1.2962   19.0770 C   0  0  0  0  0  0  0  0  0  0  0  0
    3.8706    1.8421   19.2310 H   0  0  0  0  0  0  0  0  0  0  0  0
  1  2  1  0
  2  3  2  0
  3  4  1  0
  4  5  1  0
  4  6  2  0
  6  7  1  0
  7  8  2  0
  8  9  1  0
  9 10  1  0
 10 11  2  0
 11 12  1  0
 12 13  1  0
 13 14  1  0
 14 15  2  0
 15 16  1  0
 15 17  1  0
 17 18  1  0
 17 19  2  0
 19 20  1  0
 19 21  1  0
 21 22  1  0
 21 23  2  0
 23 24  1  0
 24 25  1  0
 10 26  1  0
 26 27  1  0
 26 28  1  0
 26 29  1  0
 29 30  1  0
 29 31  1  0
 29 32  1  0
 32 33  1  0
 32 34  1  0
  6 35  1  0
 35 36  1  0
 35 37  2  0
 37 38  1  0
 37  2  1  0
 11  7  1  0
 24 12  2  0
 32  9  1  0
 23 14  1  0
M  END
>  <cnnaffinity>  (1) 
-5.72745

>  <filename>  (1) 
c1cncc(-c2nn3c(c2-c2cc4ccccc4s2)CCC3)c1

$$$$
