
     RDKit          3D

 28 30  0  0  0  0  0  0  0  0999 V2000
    4.9244    1.7840   16.9931 H   0  0  0  0  0  0  0  0  0  0  0  0
    5.4026    1.2912   17.8363 C   0  0  0  0  0  0  0  0  0  0  0  0
    6.5692    0.6732   17.5837 N   0  0  0  0  0  0  0  0  0  0  0  0
    7.1794    0.0513   18.5959 C   0  0  0  0  0  0  0  0  0  0  0  0
    8.1262   -0.4360   18.3726 H   0  0  0  0  0  0  0  0  0  0  0  0
    6.6522    0.0163   19.9032 C   0  0  0  0  0  0  0  0  0  0  0  0
    7.3556   -0.6424   20.9637 N   0  0  0  0  0  0  0  0  0  0  0  0
    8.1366   -1.7325   20.7372 N   0  0  0  0  0  0  0  0  0  0  0  0
    8.6230   -2.0917   21.8612 N   0  0  0  0  0  0  0  0  0  0  0  0
    8.2102   -1.2784   22.8709 N   0  0  0  0  0  0  0  0  0  0  0  0
    7.4276   -0.3972   22.3016 C   0  0  0  0  0  0  0  0  0  0  0  0
    6.7578    0.6163   22.8432 O   0  0  0  0  0  0  0  0  0  0  0  0
    6.9154    0.8818   24.2607 C   0  0  2  0  0  0  0  0  0  0  0  0
    6.7771   -0.0539   24.8084 H   0  0  0  0  0  0  0  0  0  0  0  0
    5.8994    1.9439   24.6747 C   0  0  0  0  0  0  0  0  0  0  0  0
    5.0006    1.9334   24.0493 H   0  0  0  0  0  0  0  0  0  0  0  0
    5.5900    1.7757   25.7150 H   0  0  0  0  0  0  0  0  0  0  0  0
    6.5250    3.2132   24.5703 O   0  0  0  0  0  0  0  0  0  0  0  0
    7.9286    3.0718   24.4102 C   0  0  0  0  0  0  0  0  0  0  0  0
    8.2189    3.4558   23.4224 H   0  0  0  0  0  0  0  0  0  0  0  0
    8.4368    3.6862   25.1675 H   0  0  0  0  0  0  0  0  0  0  0  0
    8.2463    1.5731   24.5570 C   0  0  0  0  0  0  0  0  0  0  0  0
    9.0438    1.2434   23.8899 H   0  0  0  0  0  0  0  0  0  0  0  0
    8.5512    1.3389   25.5823 H   0  0  0  0  0  0  0  0  0  0  0  0
    5.4321    0.6471   20.1612 C   0  0  0  0  0  0  0  0  0  0  0  0
    5.0074    0.6316   21.1639 H   0  0  0  0  0  0  0  0  0  0  0  0
    4.8050    1.3025   19.1003 C   0  0  0  0  0  0  0  0  0  0  0  0
    3.8777    1.8385   19.2563 H   0  0  0  0  0  0  0  0  0  0  0  0
  1  2  1  0
  2  3  2  0
  3  4  1  0
  4  5  1  0
  4  6  2  0
  6  7  1  0
  7  8  1  0
  8  9  2  0
  9 10  1  0
 10 11  2  0
 11 12  1  0
 12 13  1  0
 13 14  1  1
 13 15  1  0
 15 16  1  0
 15 17  1  0
 15 18  1  0
 18 19  1  0
 19 20  1  0
 19 21  1  0
 19 22  1  0
 22 23  1  0
 22 24  1  0
  6 25  1  0
 25 26  1  0
 25 27  2  0
 27 28  1  0
 27  2  1  0
 11  7  1  0
 22 13  1  0
M  END
>  <cnnaffinity>  (1) 
-4.50734

>  <filename>  (1) 
c1cncc(-n2nnnc2O[C@H]2CCOC2)c1

$$$$
