
     RDKit          3D

 45 48  0  0  0  0  0  0  0  0999 V2000
    4.9861    1.7778   16.8578 H   0  0  0  0  0  0  0  0  0  0  0  0
    5.4163    1.2822   17.7261 C   0  0  0  0  0  0  0  0  0  0  0  0
    6.5627    0.6148   17.5116 N   0  0  0  0  0  0  0  0  0  0  0  0
    7.1304    0.0086   18.5589 C   0  0  0  0  0  0  0  0  0  0  0  0
    8.0428   -0.5509   18.3534 H   0  0  0  0  0  0  0  0  0  0  0  0
    6.6182    0.0689   19.8706 C   0  0  0  0  0  0  0  0  0  0  0  0
    7.3830   -0.5189   20.9833 C   0  0  0  0  0  0  0  0  0  0  0  0
    8.2238   -1.5412   20.7697 N   0  0  0  0  0  0  0  0  0  0  0  0
    8.7154   -1.8184   21.9668 N   0  0  0  0  0  0  0  0  0  0  0  0
    8.3020   -1.0135   22.9570 C   0  0  0  0  0  0  0  0  0  0  0  0
    7.3912   -0.1559   22.3714 C   0  0  0  0  0  0  0  0  0  0  0  0
    6.6574    0.8504   22.9244 O   0  0  0  0  0  0  0  0  0  0  0  0
    6.5805    0.9176   24.3508 C   0  0  0  0  0  0  0  0  0  0  0  0
    6.3336    1.9610   24.5643 H   0  0  0  0  0  0  0  0  0  0  0  0
    7.5453    0.6845   24.8206 H   0  0  0  0  0  0  0  0  0  0  0  0
    5.4739    0.0027   24.9085 C   0  0  0  0  0  0  0  0  0  0  0  0
    5.6728   -1.0431   24.6378 H   0  0  0  0  0  0  0  0  0  0  0  0
    4.5389    0.2770   24.4041 H   0  0  0  0  0  0  0  0  0  0  0  0
    5.1955    0.0799   26.3309 N   0  0  0  0  0  0  0  0  0  0  0  0
    4.7137    1.3740   26.8020 C   0  0  0  0  0  0  0  0  0  0  0  0
    3.9155    1.7182   26.1326 H   0  0  0  0  0  0  0  0  0  0  0  0
    5.4927    2.1603   26.8027 H   0  0  0  0  0  0  0  0  0  0  0  0
    4.1203    1.2361   28.2084 C   0  0  0  0  0  0  0  0  0  0  0  0
    3.1781    0.6689   28.1294 H   0  0  0  0  0  0  0  0  0  0  0  0
    3.8985    2.2213   28.6237 H   0  0  0  0  0  0  0  0  0  0  0  0
    5.0122    0.6093   29.1214 O   0  0  0  0  0  0  0  0  0  0  0  0
    5.4285   -0.6608   28.6302 C   0  0  0  0  0  0  0  0  0  0  0  0
    4.5621   -1.3319   28.5244 H   0  0  0  0  0  0  0  0  0  0  0  0
    6.1035   -1.0803   29.3758 H   0  0  0  0  0  0  0  0  0  0  0  0
    6.1270   -0.5345   27.2767 C   0  0  0  0  0  0  0  0  0  0  0  0
    6.4185   -1.5370   26.9319 H   0  0  0  0  0  0  0  0  0  0  0  0
    7.0484    0.0546   27.4331 H   0  0  0  0  0  0  0  0  0  0  0  0
    8.9341   -1.4341   24.2457 C   0  0  0  0  0  0  0  0  0  0  0  0
    8.1528   -1.7294   24.9509 H   0  0  0  0  0  0  0  0  0  0  0  0
    9.4962   -0.6181   24.7094 H   0  0  0  0  0  0  0  0  0  0  0  0
    9.8463   -2.6229   23.8464 C   0  0  0  0  0  0  0  0  0  0  0  0
    9.6757   -3.5002   24.4695 H   0  0  0  0  0  0  0  0  0  0  0  0
   10.8908   -2.3524   23.9512 H   0  0  0  0  0  0  0  0  0  0  0  0
    9.5681   -2.9170   22.3524 C   0  0  0  0  0  0  0  0  0  0  0  0
    9.0436   -3.8651   22.1996 H   0  0  0  0  0  0  0  0  0  0  0  0
   10.4801   -2.9011   21.7523 H   0  0  0  0  0  0  0  0  0  0  0  0
    5.3855    0.7231   20.0631 C   0  0  0  0  0  0  0  0  0  0  0  0
    4.9230    0.7438   21.0492 H   0  0  0  0  0  0  0  0  0  0  0  0
    4.7812    1.3393   18.9692 C   0  0  0  0  0  0  0  0  0  0  0  0
    3.8364    1.8674   19.0612 H   0  0  0  0  0  0  0  0  0  0  0  0
  1  2  1  0
  2  3  2  0
  3  4  1  0
  4  5  1  0
  4  6  2  0
  6  7  1  0
  7  8  2  0
  8  9  1  0
  9 10  1  0
 10 11  2  0
 11 12  1  0
 12 13  1  0
 13 14  1  0
 13 15  1  0
 13 16  1  0
 16 17  1  0
 16 18  1  0
 16 19  1  0
 19 20  1  0
 20 21  1  0
 20 22  1  0
 20 23  1  0
 23 24  1  0
 23 25  1  0
 23 26  1  0
 26 27  1  0
 27 28  1  0
 27 29  1  0
 27 30  1  0
 30 31  1  0
 30 32  1  0
 10 33  1  0
 33 34  1  0
 33 35  1  0
 33 36  1  0
 36 37  1  0
 36 38  1  0
 36 39  1  0
 39 40  1  0
 39 41  1  0
  6 42  1  0
 42 43  1  0
 42 44  2  0
 44 45  1  0
 44  2  1  0
 11  7  1  0
 30 19  1  0
 39  9  1  0
M  END
>  <cnnaffinity>  (1) 
-4.91913

>  <filename>  (1) 
c1cncc(-c2nn3c(c2OCCN2CCOCC2)CCC3)c1

$$$$
