
     RDKit          3D

 32 35  0  0  0  0  0  0  0  0999 V2000
    9.1345   -3.0810   22.7889 H   0  0  0  0  0  0  0  0  0  0  0  0
    8.5903   -2.2255   22.4156 C   0  0  0  0  0  0  0  0  0  0  0  0
    8.2385   -1.1898   23.1082 N   0  0  0  0  0  0  0  0  0  0  0  0
    7.5598   -0.2898   22.3114 C   0  0  0  0  0  0  0  0  0  0  0  0
    7.1521    0.9897   22.8607 C   0  0  0  0  0  0  0  0  0  0  0  0
    7.5848    2.1519   22.2594 C   0  0  0  0  0  0  0  0  0  0  0  0
    8.2149    2.1221   21.3693 H   0  0  0  0  0  0  0  0  0  0  0  0
    7.2821    3.3951   22.6978 N   0  0  0  0  0  0  0  0  0  0  0  0
    6.5122    3.4960   23.7582 C   0  0  0  0  0  0  0  0  0  0  0  0
    6.2861    4.5016   24.1086 H   0  0  0  0  0  0  0  0  0  0  0  0
    5.9669    2.3887   24.4692 C   0  0  0  0  0  0  0  0  0  0  0  0
    5.1289    2.5332   25.6182 C   0  0  0  0  0  0  0  0  0  0  0  0
    4.9008    3.5310   25.9888 H   0  0  0  0  0  0  0  0  0  0  0  0
    4.6169    1.4239   26.2452 C   0  0  0  0  0  0  0  0  0  0  0  0
    3.9793    1.5281   27.1224 H   0  0  0  0  0  0  0  0  0  0  0  0
    4.9079    0.1175   25.7604 C   0  0  0  0  0  0  0  0  0  0  0  0
    4.4933   -0.7586   26.2555 H   0  0  0  0  0  0  0  0  0  0  0  0
    5.7243   -0.0464   24.6640 C   0  0  0  0  0  0  0  0  0  0  0  0
    5.9552   -1.0302   24.2652 H   0  0  0  0  0  0  0  0  0  0  0  0
    6.2895    1.0828   24.0004 C   0  0  0  0  0  0  0  0  0  0  0  0
    7.3888   -0.6673   20.9904 C   0  0  0  0  0  0  0  0  0  0  0  0
    6.6630    0.0074   19.9027 C   0  0  0  0  0  0  0  0  0  0  0  0
    7.1654    0.0537   18.5812 C   0  0  0  0  0  0  0  0  0  0  0  0
    8.1170   -0.4202   18.3556 H   0  0  0  0  0  0  0  0  0  0  0  0
    6.5574    0.6775   17.5689 N   0  0  0  0  0  0  0  0  0  0  0  0
    5.3952    1.2953   17.8347 C   0  0  0  0  0  0  0  0  0  0  0  0
    4.9185    1.7905   16.9918 H   0  0  0  0  0  0  0  0  0  0  0  0
    4.8019    1.3071   19.1003 C   0  0  0  0  0  0  0  0  0  0  0  0
    3.8762    1.8417   19.2504 H   0  0  0  0  0  0  0  0  0  0  0  0
    5.4379    0.6491   20.1549 C   0  0  0  0  0  0  0  0  0  0  0  0
    5.0292    0.6376   21.1705 H   0  0  0  0  0  0  0  0  0  0  0  0
    8.1233   -2.2018   20.7799 S   0  0  0  0  0  0  0  0  0  0  0  0
  1  2  1  0
  2  3  2  0
  3  4  1  0
  4  5  1  0
  5  6  2  0
  6  7  1  0
  6  8  1  0
  8  9  2  0
  9 10  1  0
  9 11  1  0
 11 12  2  0
 12 13  1  0
 12 14  1  0
 14 15  1  0
 14 16  2  0
 16 17  1  0
 16 18  1  0
 18 19  1  0
 18 20  2  0
  4 21  2  0
 21 22  1  0
 22 23  2  0
 23 24  1  0
 23 25  1  0
 25 26  2  0
 26 27  1  0
 26 28  1  0
 28 29  1  0
 28 30  2  0
 30 31  1  0
 21 32  1  0
 32  2  1  0
 20  5  1  0
 30 22  1  0
 20 11  1  0
M  END
>  <cnnaffinity>  (1) 
-4.80119

>  <filename>  (1) 
c1cncc(-c2scnc2-c2cncc3ccccc23)c1

$$$$
