
     RDKit          3D

 39 42  0  0  0  0  0  0  0  0999 V2000
    5.0087    1.7679   17.1099 H   0  0  0  0  0  0  0  0  0  0  0  0
    5.5193    1.2346   17.9095 C   0  0  0  0  0  0  0  0  0  0  0  0
    6.6945    0.6653   17.5922 N   0  0  0  0  0  0  0  0  0  0  0  0
    7.3369   -0.0034   18.5604 C   0  0  0  0  0  0  0  0  0  0  0  0
    8.2914   -0.4405   18.2722 H   0  0  0  0  0  0  0  0  0  0  0  0
    6.8592   -0.1813   19.8931 C   0  0  0  0  0  0  0  0  0  0  0  0
    7.5508   -0.9756   20.8082 N   0  0  0  0  0  0  0  0  0  0  0  0
    9.0067   -1.1362   20.8854 C   0  0  0  0  0  0  0  0  0  0  0  0
    9.3940   -1.9984   20.3289 H   0  0  0  0  0  0  0  0  0  0  0  0
    9.5626   -0.2360   20.5811 H   0  0  0  0  0  0  0  0  0  0  0  0
    8.8730   -1.3438   22.4089 C   0  0  0  0  0  0  0  0  0  0  0  0
    9.3952   -0.6055   23.0182 H   0  0  0  0  0  0  0  0  0  0  0  0
    9.1208   -2.3435   22.7787 H   0  0  0  0  0  0  0  0  0  0  0  0
    7.3522   -1.1288   22.2590 C   0  0  2  0  0  0  0  0  0  0  0  0
    6.9823   -0.2143   22.7518 H   0  0  0  0  0  0  0  0  0  0  0  0
    6.4730   -2.3347   22.5997 C   0  0  0  0  0  0  0  0  0  0  0  0
    5.5299   -2.1750   22.0690 H   0  0  0  0  0  0  0  0  0  0  0  0
    6.9102   -3.2210   22.1204 H   0  0  0  0  0  0  0  0  0  0  0  0
    6.2269   -2.6178   24.0786 C   0  0  0  0  0  0  0  0  0  0  0  0
    5.7131   -1.6187   24.9699 C   0  0  0  0  0  0  0  0  0  0  0  0
    5.5352   -0.6118   24.5940 H   0  0  0  0  0  0  0  0  0  0  0  0
    5.4290   -1.9151   26.2877 C   0  0  0  0  0  0  0  0  0  0  0  0
    5.0517   -1.1472   26.9591 H   0  0  0  0  0  0  0  0  0  0  0  0
    5.6579   -3.2222   26.8143 C   0  0  0  0  0  0  0  0  0  0  0  0
    5.3537   -3.5782   28.1670 C   0  0  0  0  0  0  0  0  0  0  0  0
    4.8305   -2.8595   28.7986 H   0  0  0  0  0  0  0  0  0  0  0  0
    5.7107   -4.8124   28.6628 C   0  0  0  0  0  0  0  0  0  0  0  0
    5.5016   -5.0766   29.6960 H   0  0  0  0  0  0  0  0  0  0  0  0
    6.3652   -5.7643   27.8244 C   0  0  0  0  0  0  0  0  0  0  0  0
    6.6841   -6.7187   28.2384 H   0  0  0  0  0  0  0  0  0  0  0  0
    6.5906   -5.4778   26.4991 C   0  0  0  0  0  0  0  0  0  0  0  0
    7.0678   -6.2040   25.8459 H   0  0  0  0  0  0  0  0  0  0  0  0
    6.2345   -4.2099   25.9515 C   0  0  0  0  0  0  0  0  0  0  0  0
    6.4513   -3.8851   24.5764 C   0  0  0  0  0  0  0  0  0  0  0  0
    6.7831   -4.6861   23.9185 H   0  0  0  0  0  0  0  0  0  0  0  0
    5.6262    0.4414   20.1942 C   0  0  0  0  0  0  0  0  0  0  0  0
    5.2113    0.3761   21.1999 H   0  0  0  0  0  0  0  0  0  0  0  0
    4.9595    1.1555   19.1894 C   0  0  0  0  0  0  0  0  0  0  0  0
    4.0201    1.6638   19.3888 H   0  0  0  0  0  0  0  0  0  0  0  0
  1  2  1  0
  2  3  2  0
  3  4  1  0
  4  5  1  0
  4  6  2  0
  6  7  1  0
  7  8  1  0
  8  9  1  0
  8 10  1  0
  8 11  1  0
 11 12  1  0
 11 13  1  0
 11 14  1  0
 14 15  1  1
 14 16  1  0
 16 17  1  0
 16 18  1  0
 16 19  1  0
 19 20  2  0
 20 21  1  0
 20 22  1  0
 22 23  1  0
 22 24  2  0
 24 25  1  0
 25 26  1  0
 25 27  2  0
 27 28  1  0
 27 29  1  0
 29 30  1  0
 29 31  2  0
 31 32  1  0
 31 33  1  0
 33 34  2  0
 34 35  1  0
  6 36  1  0
 36 37  1  0
 36 38  2  0
 38 39  1  0
 38  2  1  0
 14  7  1  0
 34 19  1  0
 33 24  1  0
M  END
>  <cnnaffinity>  (1) 
-4.86938

>  <filename>  (1) 
c1cncc(N2CC[C@@H]2Cc2ccc3ccccc3c2)c1

$$$$
