
     RDKit          3D

 32 36  0  0  0  0  0  0  0  0999 V2000
    4.9167    1.7759   17.0018 H   0  0  0  0  0  0  0  0  0  0  0  0
    5.4044    1.2899   17.8426 C   0  0  0  0  0  0  0  0  0  0  0  0
    6.5700    0.6777   17.5771 N   0  0  0  0  0  0  0  0  0  0  0  0
    7.1747    0.0562   18.5909 C   0  0  0  0  0  0  0  0  0  0  0  0
    8.1245   -0.4346   18.3737 H   0  0  0  0  0  0  0  0  0  0  0  0
    6.6479    0.0105   19.8923 C   0  0  0  0  0  0  0  0  0  0  0  0
    7.4018   -0.7001   20.9179 C   0  0  0  0  0  0  0  0  0  0  0  0
    8.3277   -1.6015   20.7015 N   0  0  0  0  0  0  0  0  0  0  0  0
    8.8266   -2.0343   21.9099 N   0  0  0  0  0  0  0  0  0  0  0  0
    8.1919   -1.3513   22.8211 C   0  0  0  0  0  0  0  0  0  0  0  0
    8.2607   -1.1042   24.5375 S   0  0  0  0  0  0  0  0  0  0  0  0
    7.0339    0.1621   24.3246 C   0  0  0  0  0  0  0  0  0  0  0  0
    6.5649    0.9205   25.4756 C   0  0  0  0  0  0  0  0  0  0  0  0
    5.3631    2.1701   25.2490 S   0  0  0  0  0  0  0  0  0  0  0  0
    5.3822    2.5270   26.9605 C   0  0  0  0  0  0  0  0  0  0  0  0
    4.6301    3.4928   27.6554 C   0  0  0  0  0  0  0  0  0  0  0  0
    3.9312    4.1304   27.1211 H   0  0  0  0  0  0  0  0  0  0  0  0
    4.7991    3.6137   29.0340 C   0  0  0  0  0  0  0  0  0  0  0  0
    4.2244    4.3552   29.5863 H   0  0  0  0  0  0  0  0  0  0  0  0
    5.7097    2.7838   29.7315 C   0  0  0  0  0  0  0  0  0  0  0  0
    5.8266    2.8917   30.8074 H   0  0  0  0  0  0  0  0  0  0  0  0
    6.4540    1.8303   29.0520 C   0  0  0  0  0  0  0  0  0  0  0  0
    7.1588    1.1811   29.5699 H   0  0  0  0  0  0  0  0  0  0  0  0
    6.2935    1.6955   27.6543 C   0  0  0  0  0  0  0  0  0  0  0  0
    6.9586    0.7824   26.7735 C   0  0  0  0  0  0  0  0  0  0  0  0
    7.6957    0.0682   27.1372 H   0  0  0  0  0  0  0  0  0  0  0  0
    6.6127    0.3597   23.1134 N   0  0  0  0  0  0  0  0  0  0  0  0
    7.2649   -0.5120   22.2827 N   0  0  0  0  0  0  0  0  0  0  0  0
    5.4326    0.6520   20.1619 C   0  0  0  0  0  0  0  0  0  0  0  0
    5.0094    0.6368   21.1697 H   0  0  0  0  0  0  0  0  0  0  0  0
    4.8051    1.3081   19.1086 C   0  0  0  0  0  0  0  0  0  0  0  0
    3.8745    1.8432   19.2616 H   0  0  0  0  0  0  0  0  0  0  0  0
  1  2  1  0
  2  3  2  0
  3  4  1  0
  4  5  1  0
  4  6  2  0
  6  7  1  0
  7  8  2  0
  8  9  1  0
  9 10  2  0
 10 11  1  0
 11 12  1  0
 12 13  1  0
 13 14  1  0
 14 15  1  0
 15 16  2  0
 16 17  1  0
 16 18  1  0
 18 19  1  0
 18 20  2  0
 20 21  1  0
 20 22  1  0
 22 23  1  0
 22 24  2  0
 24 25  1  0
 25 26  1  0
 12 27  2  0
 27 28  1  0
  6 29  1  0
 29 30  1  0
 29 31  2  0
 31 32  1  0
 31  2  1  0
 28  7  1  0
 28 10  1  0
 25 13  2  0
 24 15  1  0
M  END
>  <cnnaffinity>  (1) 
-5.60486

>  <filename>  (1) 
c1cncc(-c2nnc3sc(-c4cc5ccccc5s4)nn23)c1

$$$$
