
     RDKit          3D

 32 34  0  0  0  0  0  0  0  0999 V2000
    4.9467    1.8647   16.9694 H   0  0  0  0  0  0  0  0  0  0  0  0
    5.3957    1.3153   17.7968 C   0  0  0  0  0  0  0  0  0  0  0  0
    6.5450    0.6773   17.5315 N   0  0  0  0  0  0  0  0  0  0  0  0
    7.1457    0.0327   18.5464 C   0  0  0  0  0  0  0  0  0  0  0  0
    8.0777   -0.4764   18.3042 H   0  0  0  0  0  0  0  0  0  0  0  0
    6.6368   -0.0199   19.8725 C   0  0  0  0  0  0  0  0  0  0  0  0
    7.2761   -0.6656   20.9447 N   0  0  0  0  0  0  0  0  0  0  0  0
    6.6672   -1.0555   21.6515 H   0  0  0  0  0  0  0  0  0  0  0  0
    8.6440   -0.6270   21.2892 C   0  0  0  0  0  0  0  0  0  0  0  0
    9.6690    0.1829   20.7357 C   0  0  0  0  0  0  0  0  0  0  0  0
    9.5354    1.0195   20.0644 H   0  0  0  0  0  0  0  0  0  0  0  0
   10.8805   -0.1372   21.1710 N   0  0  0  0  0  0  0  0  0  0  0  0
   10.6497   -1.1563   22.0183 N   0  0  0  0  0  0  0  0  0  0  0  0
   11.3797   -1.5409   22.6007 H   0  0  0  0  0  0  0  0  0  0  0  0
    9.3277   -1.4338   22.1962 C   0  0  0  0  0  0  0  0  0  0  0  0
    8.9888   -2.3557   23.1641 N   0  0  0  0  0  0  0  0  0  0  0  0
    9.4064   -3.7274   23.0061 C   0  0  0  0  0  0  0  0  0  0  0  0
   10.4805   -3.7346   22.7975 H   0  0  0  0  0  0  0  0  0  0  0  0
    8.8802   -4.2007   22.1593 H   0  0  0  0  0  0  0  0  0  0  0  0
    9.0557   -4.3544   24.3461 C   0  0  0  0  0  0  0  0  0  0  0  0
    9.9033   -4.2465   25.0316 H   0  0  0  0  0  0  0  0  0  0  0  0
    8.8234   -5.4183   24.2546 H   0  0  0  0  0  0  0  0  0  0  0  0
    7.8406   -3.5437   24.8129 C   0  0  0  0  0  0  0  0  0  0  0  0
    6.9261   -3.9732   24.3932 H   0  0  0  0  0  0  0  0  0  0  0  0
    7.7269   -3.5426   25.8997 H   0  0  0  0  0  0  0  0  0  0  0  0
    8.0459   -2.1333   24.2384 C   0  0  0  0  0  0  0  0  0  0  0  0
    8.4517   -1.4224   24.9742 H   0  0  0  0  0  0  0  0  0  0  0  0
    7.1032   -1.7053   23.8729 H   0  0  0  0  0  0  0  0  0  0  0  0
    5.4061    0.6105   20.1049 C   0  0  0  0  0  0  0  0  0  0  0  0
    4.9771    0.6053   21.1088 H   0  0  0  0  0  0  0  0  0  0  0  0
    4.7863    1.2949   19.0561 C   0  0  0  0  0  0  0  0  0  0  0  0
    3.8537    1.8278   19.2067 H   0  0  0  0  0  0  0  0  0  0  0  0
  1  2  1  0
  2  3  2  0
  3  4  1  0
  4  5  1  0
  4  6  2  0
  6  7  1  0
  7  8  1  0
  7  9  1  0
  9 10  1  0
 10 11  1  0
 10 12  2  0
 12 13  1  0
 13 14  1  0
 13 15  1  0
 15 16  1  0
 16 17  1  0
 17 18  1  0
 17 19  1  0
 17 20  1  0
 20 21  1  0
 20 22  1  0
 20 23  1  0
 23 24  1  0
 23 25  1  0
 23 26  1  0
 26 27  1  0
 26 28  1  0
  6 29  1  0
 29 30  1  0
 29 31  2  0
 31 32  1  0
 31  2  1  0
 15  9  2  0
 26 16  1  0
M  END
>  <cnnaffinity>  (1) 
-5.02188

>  <filename>  (1) 
c1cncc(Nc2cn[nH]c2N2CCCC2)c1

$$$$
