
     RDKit          3D

 34 37  0  0  0  0  0  0  0  0999 V2000
    4.9299    1.8113   16.9714 H   0  0  0  0  0  0  0  0  0  0  0  0
    5.3837    1.3010   17.8208 C   0  0  0  0  0  0  0  0  0  0  0  0
    6.5443    0.6834   17.5703 N   0  0  0  0  0  0  0  0  0  0  0  0
    7.1496    0.0649   18.5885 C   0  0  0  0  0  0  0  0  0  0  0  0
    8.1057   -0.4012   18.3513 H   0  0  0  0  0  0  0  0  0  0  0  0
    6.6358    0.0007   19.8948 C   0  0  0  0  0  0  0  0  0  0  0  0
    7.3949   -0.7327   20.9869 C   0  0  0  0  0  0  0  0  0  0  0  0
    6.8934   -0.6109   21.9505 H   0  0  0  0  0  0  0  0  0  0  0  0
    7.4429   -1.8114   20.7884 H   0  0  0  0  0  0  0  0  0  0  0  0
    8.7783   -0.2958   21.1324 N   0  0  0  0  0  0  0  0  0  0  0  0
    9.8826   -0.9988   20.7674 C   0  0  0  0  0  0  0  0  0  0  0  0
    9.7935   -1.9678   20.2913 H   0  0  0  0  0  0  0  0  0  0  0  0
   10.9993   -0.3443   20.9775 N   0  0  0  0  0  0  0  0  0  0  0  0
   10.6082    0.8512   21.4940 C   0  0  0  0  0  0  0  0  0  0  0  0
   11.3212    1.6329   21.7380 H   0  0  0  0  0  0  0  0  0  0  0  0
    9.2390    0.9213   21.6197 C   0  0  0  0  0  0  0  0  0  0  0  0
    8.4741    2.0148   22.1684 C   0  0  0  0  0  0  0  0  0  0  0  0
    7.1107    1.8989   22.3734 O   0  0  0  0  0  0  0  0  0  0  0  0
    6.7017    3.0828   22.9155 C   0  0  0  0  0  0  0  0  0  0  0  0
    5.3987    3.4358   23.2766 C   0  0  0  0  0  0  0  0  0  0  0  0
    4.5690    2.7518   23.1407 H   0  0  0  0  0  0  0  0  0  0  0  0
    5.2200    4.7172   23.8066 C   0  0  0  0  0  0  0  0  0  0  0  0
    4.2227    5.0409   24.0977 H   0  0  0  0  0  0  0  0  0  0  0  0
    6.3015    5.6102   23.9665 C   0  0  0  0  0  0  0  0  0  0  0  0
    6.1242    6.6030   24.3766 H   0  0  0  0  0  0  0  0  0  0  0  0
    7.5901    5.2397   23.5968 C   0  0  0  0  0  0  0  0  0  0  0  0
    8.4343    5.9124   23.7018 H   0  0  0  0  0  0  0  0  0  0  0  0
    7.7913    3.9544   23.0629 C   0  0  0  0  0  0  0  0  0  0  0  0
    8.9247    3.2323   22.5694 C   0  0  0  0  0  0  0  0  0  0  0  0
    9.9461    3.5787   22.5012 H   0  0  0  0  0  0  0  0  0  0  0  0
    5.4153    0.6429   20.1348 C   0  0  0  0  0  0  0  0  0  0  0  0
    4.9895    0.6466   21.1404 H   0  0  0  0  0  0  0  0  0  0  0  0
    4.7844    1.3093   19.0818 C   0  0  0  0  0  0  0  0  0  0  0  0
    3.8606    1.8500   19.2217 H   0  0  0  0  0  0  0  0  0  0  0  0
  1  2  1  0
  2  3  2  0
  3  4  1  0
  4  5  1  0
  4  6  2  0
  6  7  1  0
  7  8  1  0
  7  9  1  0
  7 10  1  0
 10 11  1  0
 11 12  1  0
 11 13  2  0
 13 14  1  0
 14 15  1  0
 14 16  2  0
 16 17  1  0
 17 18  1  0
 18 19  1  0
 19 20  2  0
 20 21  1  0
 20 22  1  0
 22 23  1  0
 22 24  2  0
 24 25  1  0
 24 26  1  0
 26 27  1  0
 26 28  2  0
 28 29  1  0
 29 30  1  0
  6 31  1  0
 31 32  1  0
 31 33  2  0
 33 34  1  0
 33  2  1  0
 16 10  1  0
 29 17  2  0
 28 19  1  0
M  END
>  <cnnaffinity>  (1) 
-5.27319

>  <filename>  (1) 
c1cncc(Cn2cncc2-c2cc3ccccc3o2)c1

$$$$
