
     RDKit          3D

 30 33  0  0  0  0  0  0  0  0999 V2000
    4.9572    1.8205   16.9540 H   0  0  0  0  0  0  0  0  0  0  0  0
    5.4100    1.3048   17.7971 C   0  0  0  0  0  0  0  0  0  0  0  0
    6.5695    0.6739   17.5547 N   0  0  0  0  0  0  0  0  0  0  0  0
    7.1628    0.0534   18.5794 C   0  0  0  0  0  0  0  0  0  0  0  0
    8.1109   -0.4236   18.3273 H   0  0  0  0  0  0  0  0  0  0  0  0
    6.6427    0.0100   19.8819 C   0  0  0  0  0  0  0  0  0  0  0  0
    7.3464   -0.6891   20.9743 C   0  0  0  0  0  0  0  0  0  0  0  0
    6.9354   -0.7452   22.2221 N   0  0  0  0  0  0  0  0  0  0  0  0
    7.8728   -1.4879   22.8839 C   0  0  0  0  0  0  0  0  0  0  0  0
    7.8444   -1.8104   24.3344 C   0  0  0  0  0  0  0  0  0  0  0  0
    8.7733   -2.5695   24.9831 C   0  0  0  0  0  0  0  0  0  0  0  0
    9.6702   -2.9895   24.5447 H   0  0  0  0  0  0  0  0  0  0  0  0
    8.4475   -2.8323   26.6577 S   0  0  0  0  0  0  0  0  0  0  0  0
    6.9817   -1.8984   26.5635 C   0  0  0  0  0  0  0  0  0  0  0  0
    6.0422   -1.6441   27.5874 C   0  0  0  0  0  0  0  0  0  0  0  0
    6.1619   -1.9604   28.6101 H   0  0  0  0  0  0  0  0  0  0  0  0
    4.9090   -0.9017   27.2865 C   0  0  0  0  0  0  0  0  0  0  0  0
    4.1550   -0.7175   28.0503 H   0  0  0  0  0  0  0  0  0  0  0  0
    4.7417   -0.3571   26.0017 C   0  0  0  0  0  0  0  0  0  0  0  0
    3.8371    0.1901   25.7707 H   0  0  0  0  0  0  0  0  0  0  0  0
    5.6994   -0.5319   25.0179 C   0  0  0  0  0  0  0  0  0  0  0  0
    5.6139   -0.0321   24.0609 H   0  0  0  0  0  0  0  0  0  0  0  0
    6.8060   -1.3723   25.2618 C   0  0  0  0  0  0  0  0  0  0  0  0
    8.8512   -1.9013   22.0828 N   0  0  0  0  0  0  0  0  0  0  0  0
    8.5003   -1.3817   20.8852 N   0  0  0  0  0  0  0  0  0  0  0  0
    9.1005   -1.5098   20.0856 H   0  0  0  0  0  0  0  0  0  0  0  0
    5.4179    0.6706   20.1103 C   0  0  0  0  0  0  0  0  0  0  0  0
    4.9658    0.6826   21.1020 H   0  0  0  0  0  0  0  0  0  0  0  0
    4.7935    1.3237   19.0515 C   0  0  0  0  0  0  0  0  0  0  0  0
    3.8578    1.8571   19.1861 H   0  0  0  0  0  0  0  0  0  0  0  0
  1  2  1  0
  2  3  2  0
  3  4  1  0
  4  5  1  0
  4  6  2  0
  6  7  1  0
  7  8  2  0
  8  9  1  0
  9 10  1  0
 10 11  2  0
 11 12  1  0
 11 13  1  0
 13 14  1  0
 14 15  2  0
 15 16  1  0
 15 17  1  0
 17 18  1  0
 17 19  2  0
 19 20  1  0
 19 21  1  0
 21 22  1  0
 21 23  2  0
  9 24  2  0
 24 25  1  0
 25 26  1  0
  6 27  1  0
 27 28  1  0
 27 29  2  0
 29 30  1  0
 29  2  1  0
 25  7  1  0
 23 10  1  0
 23 14  1  0
M  END
>  <cnnaffinity>  (1) 
-5.23161

>  <filename>  (1) 
c1cncc(-c2nc(-c3csc4ccccc34)n[nH]2)c1

$$$$
