
     RDKit          3D

 30 33  0  0  0  0  0  0  0  0999 V2000
    4.9070    1.7729   17.0048 H   0  0  0  0  0  0  0  0  0  0  0  0
    5.4017    1.2923   17.8466 C   0  0  0  0  0  0  0  0  0  0  0  0
    6.5723    0.6812   17.5920 N   0  0  0  0  0  0  0  0  0  0  0  0
    7.1836    0.0541   18.5999 C   0  0  0  0  0  0  0  0  0  0  0  0
    8.1323   -0.4402   18.3840 H   0  0  0  0  0  0  0  0  0  0  0  0
    6.6586    0.0006   19.9028 C   0  0  0  0  0  0  0  0  0  0  0  0
    7.3625   -0.6920   20.9303 N   0  0  0  0  0  0  0  0  0  0  0  0
    7.9301   -1.8947   20.7187 N   0  0  0  0  0  0  0  0  0  0  0  0
    8.4441   -2.3036   21.8334 N   0  0  0  0  0  0  0  0  0  0  0  0
    8.2160   -1.3717   22.7887 C   0  0  0  0  0  0  0  0  0  0  0  0
    8.5740   -1.4340   23.8042 H   0  0  0  0  0  0  0  0  0  0  0  0
    7.5282   -0.3218   22.2328 C   0  0  0  0  0  0  0  0  0  0  0  0
    7.1929    0.9659   22.7874 C   0  0  0  0  0  0  0  0  0  0  0  0
    7.4539    2.1601   22.1991 C   0  0  0  0  0  0  0  0  0  0  0  0
    7.8938    2.3010   21.2201 H   0  0  0  0  0  0  0  0  0  0  0  0
    7.0120    3.5156   23.1734 S   0  0  0  0  0  0  0  0  0  0  0  0
    6.4583    2.4612   24.4499 C   0  0  0  0  0  0  0  0  0  0  0  0
    5.9015    2.8410   25.6851 C   0  0  0  0  0  0  0  0  0  0  0  0
    5.7867    3.8954   25.9297 H   0  0  0  0  0  0  0  0  0  0  0  0
    5.5016    1.8424   26.5660 C   0  0  0  0  0  0  0  0  0  0  0  0
    5.0683    2.1116   27.5226 H   0  0  0  0  0  0  0  0  0  0  0  0
    5.6465    0.4809   26.2276 C   0  0  0  0  0  0  0  0  0  0  0  0
    5.3230   -0.2883   26.9176 H   0  0  0  0  0  0  0  0  0  0  0  0
    6.1929    0.1064   25.0103 C   0  0  0  0  0  0  0  0  0  0  0  0
    6.2911   -0.9382   24.7261 H   0  0  0  0  0  0  0  0  0  0  0  0
    6.6219    1.1035   24.1053 C   0  0  0  0  0  0  0  0  0  0  0  0
    5.4413    0.6427   20.1619 C   0  0  0  0  0  0  0  0  0  0  0  0
    5.0073    0.6284   21.1598 H   0  0  0  0  0  0  0  0  0  0  0  0
    4.8073    1.3081   19.1111 C   0  0  0  0  0  0  0  0  0  0  0  0
    3.8729    1.8445   19.2677 H   0  0  0  0  0  0  0  0  0  0  0  0
  1  2  1  0
  2  3  2  0
  3  4  1  0
  4  5  1  0
  4  6  2  0
  6  7  1  0
  7  8  1  0
  8  9  2  0
  9 10  1  0
 10 11  1  0
 10 12  2  0
 12 13  1  0
 13 14  2  0
 14 15  1  0
 14 16  1  0
 16 17  1  0
 17 18  2  0
 18 19  1  0
 18 20  1  0
 20 21  1  0
 20 22  2  0
 22 23  1  0
 22 24  1  0
 24 25  1  0
 24 26  2  0
  6 27  1  0
 27 28  1  0
 27 29  2  0
 29 30  1  0
 29  2  1  0
 12  7  1  0
 26 13  1  0
 26 17  1  0
M  END
>  <cnnaffinity>  (1) 
-5.40267

>  <filename>  (1) 
c1cncc(-n2nncc2-c2csc3ccccc23)c1

$$$$
