
     RDKit          3D

 33 36  0  0  0  0  0  0  0  0999 V2000
    6.7015    0.8304   22.4303 H   0  0  0  0  0  0  0  0  0  0  0  0
    7.2190   -0.0946   22.1986 C   0  0  0  0  0  0  0  0  0  0  0  0
    7.7723   -0.7617   23.2177 N   0  0  0  0  0  0  0  0  0  0  0  0
    8.5073   -1.8602   22.9024 C   0  0  0  0  0  0  0  0  0  0  0  0
    9.1170   -2.6814   23.9745 C   0  0  0  0  0  0  0  0  0  0  0  0
   10.3490   -3.3217   23.7647 C   0  0  0  0  0  0  0  0  0  0  0  0
   10.9441   -3.1027   22.8796 H   0  0  0  0  0  0  0  0  0  0  0  0
   10.8740   -4.2245   24.7068 C   0  0  0  0  0  0  0  0  0  0  0  0
   11.7988   -4.7422   24.4974 H   0  0  0  0  0  0  0  0  0  0  0  0
   10.2228   -4.4957   25.9010 C   0  0  0  0  0  0  0  0  0  0  0  0
   10.6272   -5.2046   26.6164 H   0  0  0  0  0  0  0  0  0  0  0  0
    9.0173   -3.8240   26.1350 C   0  0  0  0  0  0  0  0  0  0  0  0
    8.4487   -2.9111   25.2086 C   0  0  0  0  0  0  0  0  0  0  0  0
    7.2265   -2.4475   25.8172 C   0  0  0  0  0  0  0  0  0  0  0  0
    6.5224   -1.7600   25.3717 H   0  0  0  0  0  0  0  0  0  0  0  0
    7.1051   -3.0628   27.0267 C   0  0  0  0  0  0  0  0  0  0  0  0
    6.3161   -2.9938   27.7635 H   0  0  0  0  0  0  0  0  0  0  0  0
    8.1846   -3.9020   27.2171 N   0  0  0  0  0  0  0  0  0  0  0  0
    8.4398   -4.3808   28.0649 H   0  0  0  0  0  0  0  0  0  0  0  0
    8.6871   -2.2167   21.5400 C   0  0  0  0  0  0  0  0  0  0  0  0
    9.2753   -3.0851   21.2739 H   0  0  0  0  0  0  0  0  0  0  0  0
    8.1186   -1.5623   20.5218 N   0  0  0  0  0  0  0  0  0  0  0  0
    7.3238   -0.5205   20.8484 C   0  0  0  0  0  0  0  0  0  0  0  0
    6.5896    0.1337   19.7537 C   0  0  0  0  0  0  0  0  0  0  0  0
    7.0922    0.0907   18.4422 C   0  0  0  0  0  0  0  0  0  0  0  0
    7.9949   -0.4742   18.2163 H   0  0  0  0  0  0  0  0  0  0  0  0
    6.5122    0.7151   17.4144 N   0  0  0  0  0  0  0  0  0  0  0  0
    5.3705    1.3819   17.6467 C   0  0  0  0  0  0  0  0  0  0  0  0
    4.9237    1.8848   16.7916 H   0  0  0  0  0  0  0  0  0  0  0  0
    4.7523    1.4297   18.8982 C   0  0  0  0  0  0  0  0  0  0  0  0
    3.8177    1.9649   19.0205 H   0  0  0  0  0  0  0  0  0  0  0  0
    5.3725    0.7963   19.9714 C   0  0  0  0  0  0  0  0  0  0  0  0
    4.8999    0.7899   20.9521 H   0  0  0  0  0  0  0  0  0  0  0  0
  1  2  1  0
  2  3  2  0
  3  4  1  0
  4  5  1  0
  5  6  2  0
  6  7  1  0
  6  8  1  0
  8  9  1  0
  8 10  2  0
 10 11  1  0
 10 12  1  0
 12 13  2  0
 13 14  1  0
 14 15  1  0
 14 16  2  0
 16 17  1  0
 16 18  1  0
 18 19  1  0
  4 20  2  0
 20 21  1  0
 20 22  1  0
 22 23  2  0
 23 24  1  0
 24 25  2  0
 25 26  1  0
 25 27  1  0
 27 28  2  0
 28 29  1  0
 28 30  1  0
 30 31  1  0
 30 32  2  0
 32 33  1  0
 23  2  1  0
 32 24  1  0
 13  5  1  0
 18 12  1  0
M  END
>  <cnnaffinity>  (1) 
-5.24852

>  <filename>  (1) 
c1cncc(-c2cnc(-c3cccc4[nH]ccc34)cn2)c1

$$$$
