
     RDKit          3D

 33 37  0  0  0  0  0  0  0  0999 V2000
    4.9473    1.7893   16.9589 H   0  0  0  0  0  0  0  0  0  0  0  0
    5.4030    1.2939   17.8140 C   0  0  0  0  0  0  0  0  0  0  0  0
    6.5633    0.6623   17.5826 N   0  0  0  0  0  0  0  0  0  0  0  0
    7.1527    0.0814   18.6294 C   0  0  0  0  0  0  0  0  0  0  0  0
    8.0993   -0.4106   18.4100 H   0  0  0  0  0  0  0  0  0  0  0  0
    6.6467    0.0952   19.9463 C   0  0  0  0  0  0  0  0  0  0  0  0
    7.4210   -0.5936   20.9945 C   0  0  0  0  0  0  0  0  0  0  0  0
    8.2912   -1.6122   20.8229 C   0  0  0  0  0  0  0  0  0  0  0  0
    8.7190   -1.9484   19.8946 H   0  0  0  0  0  0  0  0  0  0  0  0
    8.8626   -2.3046   22.3105 S   0  0  0  0  0  0  0  0  0  0  0  0
    8.0721   -1.0385   23.1857 C   0  0  0  0  0  0  0  0  0  0  0  0
    8.1138   -0.5448   24.3949 N   0  0  0  0  0  0  0  0  0  0  0  0
    7.3477    0.5787   24.2452 C   0  0  0  0  0  0  0  0  0  0  0  0
    7.1500    1.4730   25.3745 C   0  0  0  0  0  0  0  0  0  0  0  0
    6.3943    2.6068   25.2044 O   0  0  0  0  0  0  0  0  0  0  0  0
    6.3709    3.2270   26.4147 C   0  0  0  0  0  0  0  0  0  0  0  0
    5.7103    4.4211   26.7045 C   0  0  0  0  0  0  0  0  0  0  0  0
    5.1639    4.9322   25.9153 H   0  0  0  0  0  0  0  0  0  0  0  0
    5.7968    4.8840   28.0195 C   0  0  0  0  0  0  0  0  0  0  0  0
    5.2924    5.8096   28.2874 H   0  0  0  0  0  0  0  0  0  0  0  0
    6.5203    4.1726   29.0084 C   0  0  0  0  0  0  0  0  0  0  0  0
    6.5597    4.5626   30.0243 H   0  0  0  0  0  0  0  0  0  0  0  0
    7.1743    2.9807   28.6951 C   0  0  0  0  0  0  0  0  0  0  0  0
    7.7239    2.4178   29.4482 H   0  0  0  0  0  0  0  0  0  0  0  0
    7.1076    2.4964   27.3681 C   0  0  0  0  0  0  0  0  0  0  0  0
    7.6141    1.3567   26.6480 C   0  0  0  0  0  0  0  0  0  0  0  0
    8.2447    0.5442   26.9931 H   0  0  0  0  0  0  0  0  0  0  0  0
    6.8429    0.7919   23.0323 N   0  0  0  0  0  0  0  0  0  0  0  0
    7.3178   -0.2840   22.3557 N   0  0  0  0  0  0  0  0  0  0  0  0
    5.4112    0.7380   20.1643 C   0  0  0  0  0  0  0  0  0  0  0  0
    4.9808    0.7768   21.1672 H   0  0  0  0  0  0  0  0  0  0  0  0
    4.7846    1.3370   19.0699 C   0  0  0  0  0  0  0  0  0  0  0  0
    3.8364    1.8512   19.1787 H   0  0  0  0  0  0  0  0  0  0  0  0
  1  2  1  0
  2  3  2  0
  3  4  1  0
  4  5  1  0
  4  6  2  0
  6  7  1  0
  7  8  2  0
  8  9  1  0
  8 10  1  0
 10 11  1  0
 11 12  2  0
 12 13  1  0
 13 14  1  0
 14 15  1  0
 15 16  1  0
 16 17  2  0
 17 18  1  0
 17 19  1  0
 19 20  1  0
 19 21  2  0
 21 22  1  0
 21 23  1  0
 23 24  1  0
 23 25  2  0
 25 26  1  0
 26 27  1  0
 13 28  2  0
 28 29  1  0
  6 30  1  0
 30 31  1  0
 30 32  2  0
 32 33  1  0
 32  2  1  0
 29  7  1  0
 29 11  1  0
 26 14  2  0
 25 16  1  0
M  END
>  <cnnaffinity>  (1) 
-5.21927

>  <filename>  (1) 
c1cncc(-c2csc3nc(-c4cc5ccccc5o4)nn23)c1

$$$$
