
     RDKit          3D

 28 31  0  0  0  0  0  0  0  0999 V2000
    4.5084   -1.2124   28.0027 H   0  0  0  0  0  0  0  0  0  0  0  0
    5.2192   -1.3708   27.1976 C   0  0  0  0  0  0  0  0  0  0  0  0
    5.8967   -2.5190   27.2074 N   0  0  0  0  0  0  0  0  0  0  0  0
    6.7646   -2.6976   26.2138 C   0  0  0  0  0  0  0  0  0  0  0  0
    7.3118   -3.6405   26.2132 H   0  0  0  0  0  0  0  0  0  0  0  0
    6.9788   -1.7640   25.1942 C   0  0  0  0  0  0  0  0  0  0  0  0
    7.9568   -2.0158   24.1207 C   0  0  0  0  0  0  0  0  0  0  0  0
    9.0740   -2.7635   24.2064 C   0  0  0  0  0  0  0  0  0  0  0  0
    9.4557   -3.2852   25.0746 H   0  0  0  0  0  0  0  0  0  0  0  0
    9.9866   -2.8189   22.7254 S   0  0  0  0  0  0  0  0  0  0  0  0
    8.7963   -1.8144   21.9574 C   0  0  0  0  0  0  0  0  0  0  0  0
    8.5487   -1.3286   20.7582 N   0  0  0  0  0  0  0  0  0  0  0  0
    7.3641   -0.6899   20.9649 C   0  0  0  0  0  0  0  0  0  0  0  0
    6.6494    0.0146   19.9088 C   0  0  0  0  0  0  0  0  0  0  0  0
    7.1827    0.0540   18.6135 C   0  0  0  0  0  0  0  0  0  0  0  0
    8.1284   -0.4342   18.3839 H   0  0  0  0  0  0  0  0  0  0  0  0
    6.5741    0.6706   17.5955 N   0  0  0  0  0  0  0  0  0  0  0  0
    5.4080    1.2863   17.8478 C   0  0  0  0  0  0  0  0  0  0  0  0
    4.9193    1.7714   17.0051 H   0  0  0  0  0  0  0  0  0  0  0  0
    4.8047    1.3105   19.1108 C   0  0  0  0  0  0  0  0  0  0  0  0
    3.8739    1.8436   19.2624 H   0  0  0  0  0  0  0  0  0  0  0  0
    5.4298    0.6574   20.1656 C   0  0  0  0  0  0  0  0  0  0  0  0
    5.0022    0.6321   21.1714 H   0  0  0  0  0  0  0  0  0  0  0  0
    6.8787   -0.7508   22.2001 N   0  0  0  0  0  0  0  0  0  0  0  0
    7.8302   -1.4788   22.8337 N   0  0  0  0  0  0  0  0  0  0  0  0
    6.2033   -0.6013   25.3053 C   0  0  0  0  0  0  0  0  0  0  0  0
    6.3092    0.1871   24.5637 H   0  0  0  0  0  0  0  0  0  0  0  0
    5.3333   -0.3985   26.2941 N   0  0  0  0  0  0  0  0  0  0  0  0
  1  2  1  0
  2  3  2  0
  3  4  1  0
  4  5  1  0
  4  6  2  0
  6  7  1  0
  7  8  2  0
  8  9  1  0
  8 10  1  0
 10 11  1  0
 11 12  2  0
 12 13  1  0
 13 14  1  0
 14 15  2  0
 15 16  1  0
 15 17  1  0
 17 18  2  0
 18 19  1  0
 18 20  1  0
 20 21  1  0
 20 22  2  0
 22 23  1  0
 13 24  2  0
 24 25  1  0
  6 26  1  0
 26 27  1  0
 26 28  2  0
 28  2  1  0
 25  7  1  0
 25 11  1  0
 22 14  1  0
M  END
>  <cnnaffinity>  (1) 
-5.45464

>  <filename>  (1) 
c1cncc(-c2nc3scc(-c4cncnc4)n3n2)c1

$$$$
