
     RDKit          3D

 32 35  0  0  0  0  0  0  0  0999 V2000
    4.9283    1.8018   16.9877 H   0  0  0  0  0  0  0  0  0  0  0  0
    5.3961    1.2945   17.8280 C   0  0  0  0  0  0  0  0  0  0  0  0
    6.5557    0.6776   17.5553 N   0  0  0  0  0  0  0  0  0  0  0  0
    7.1772    0.0629   18.5666 C   0  0  0  0  0  0  0  0  0  0  0  0
    8.1215   -0.4179   18.3206 H   0  0  0  0  0  0  0  0  0  0  0  0
    6.6881    0.0075   19.8882 C   0  0  0  0  0  0  0  0  0  0  0  0
    7.4361   -0.6947   20.9504 C   0  0  0  0  0  0  0  0  0  0  0  0
    9.1333   -1.0616   20.8695 S   0  0  0  0  0  0  0  0  0  0  0  0
    9.1105   -1.7994   22.4199 C   0  0  0  0  0  0  0  0  0  0  0  0
   10.0115   -2.2310   22.8351 H   0  0  0  0  0  0  0  0  0  0  0  0
    7.8636   -1.8046   22.9863 C   0  0  0  0  0  0  0  0  0  0  0  0
    7.5429   -2.3850   24.2949 C   0  0  0  0  0  0  0  0  0  0  0  0
    8.3569   -2.3911   25.3971 C   0  0  0  0  0  0  0  0  0  0  0  0
    9.3571   -1.9847   25.5058 H   0  0  0  0  0  0  0  0  0  0  0  0
    7.7163   -2.9756   26.4648 N   0  0  0  0  0  0  0  0  0  0  0  0
    8.1076   -3.1286   27.3785 H   0  0  0  0  0  0  0  0  0  0  0  0
    6.4621   -3.3889   26.0747 C   0  0  0  0  0  0  0  0  0  0  0  0
    5.4497   -4.0506   26.7965 C   0  0  0  0  0  0  0  0  0  0  0  0
    5.5827   -4.3175   27.8426 H   0  0  0  0  0  0  0  0  0  0  0  0
    4.2698   -4.3666   26.1286 C   0  0  0  0  0  0  0  0  0  0  0  0
    3.4692   -4.8827   26.6555 H   0  0  0  0  0  0  0  0  0  0  0  0
    4.0986   -4.0325   24.7632 C   0  0  0  0  0  0  0  0  0  0  0  0
    3.1711   -4.2911   24.2590 H   0  0  0  0  0  0  0  0  0  0  0  0
    5.1042   -3.3826   24.0580 C   0  0  0  0  0  0  0  0  0  0  0  0
    4.9735   -3.1424   23.0057 H   0  0  0  0  0  0  0  0  0  0  0  0
    6.3090   -3.0392   24.7114 C   0  0  0  0  0  0  0  0  0  0  0  0
    6.9239   -1.1574   22.1211 C   0  0  0  0  0  0  0  0  0  0  0  0
    5.8845   -1.0329   22.3606 H   0  0  0  0  0  0  0  0  0  0  0  0
    5.4592    0.6457   20.1452 C   0  0  0  0  0  0  0  0  0  0  0  0
    5.0297    0.6502   21.1475 H   0  0  0  0  0  0  0  0  0  0  0  0
    4.8095    1.3035   19.0981 C   0  0  0  0  0  0  0  0  0  0  0  0
    3.8770    1.8348   19.2489 H   0  0  0  0  0  0  0  0  0  0  0  0
  1  2  1  0
  2  3  2  0
  3  4  1  0
  4  5  1  0
  4  6  2  0
  6  7  1  0
  7  8  1  0
  8  9  1  0
  9 10  1  0
  9 11  2  0
 11 12  1  0
 12 13  2  0
 13 14  1  0
 13 15  1  0
 15 16  1  0
 15 17  1  0
 17 18  2  0
 18 19  1  0
 18 20  1  0
 20 21  1  0
 20 22  2  0
 22 23  1  0
 22 24  1  0
 24 25  1  0
 24 26  2  0
 11 27  1  0
 27 28  1  0
  6 29  1  0
 29 30  1  0
 29 31  2  0
 31 32  1  0
 31  2  1  0
 27  7  2  0
 26 12  1  0
 26 17  1  0
M  END
>  <cnnaffinity>  (1) 
-5.3284

>  <filename>  (1) 
c1cncc(-c2cc(-c3c[nH]c4ccccc34)cs2)c1

$$$$
