
     RDKit          3D

 32 35  0  0  0  0  0  0  0  0999 V2000
    4.9209    1.7845   16.9896 H   0  0  0  0  0  0  0  0  0  0  0  0
    5.4008    1.2943   17.8342 C   0  0  0  0  0  0  0  0  0  0  0  0
    6.5639    0.6733   17.5811 N   0  0  0  0  0  0  0  0  0  0  0  0
    7.1758    0.0624   18.6003 C   0  0  0  0  0  0  0  0  0  0  0  0
    8.1127   -0.4327   18.3641 H   0  0  0  0  0  0  0  0  0  0  0  0
    6.6644    0.0089   19.9094 C   0  0  0  0  0  0  0  0  0  0  0  0
    7.3713   -0.6778   20.9292 N   0  0  0  0  0  0  0  0  0  0  0  0
    8.7494   -0.7943   21.0516 C   0  0  0  0  0  0  0  0  0  0  0  0
    9.3958   -0.3142   20.3287 H   0  0  0  0  0  0  0  0  0  0  0  0
    9.0254   -1.5130   22.1772 C   0  0  0  0  0  0  0  0  0  0  0  0
   10.0105   -1.7831   22.5391 H   0  0  0  0  0  0  0  0  0  0  0  0
    7.7793   -1.8794   22.7925 C   0  0  0  0  0  0  0  0  0  0  0  0
    7.5831   -2.6671   24.0222 C   0  0  0  0  0  0  0  0  0  0  0  0
    8.6798   -2.8727   24.9289 C   0  0  0  0  0  0  0  0  0  0  0  0
    9.6428   -2.4255   24.6838 H   0  0  0  0  0  0  0  0  0  0  0  0
    8.5488   -3.6060   26.0923 C   0  0  0  0  0  0  0  0  0  0  0  0
    9.3827   -3.7640   26.7749 H   0  0  0  0  0  0  0  0  0  0  0  0
    7.2664   -4.1500   26.3522 C   0  0  0  0  0  0  0  0  0  0  0  0
    6.1714   -3.9648   25.4838 C   0  0  0  0  0  0  0  0  0  0  0  0
    5.0992   -4.6609   26.1129 C   0  0  0  0  0  0  0  0  0  0  0  0
    4.0879   -4.7494   25.7486 H   0  0  0  0  0  0  0  0  0  0  0  0
    5.4805   -5.2183   27.2417 N   0  0  0  0  0  0  0  0  0  0  0  0
    6.7884   -4.9013   27.3724 N   0  0  0  0  0  0  0  0  0  0  0  0
    7.3134   -5.2237   28.1630 H   0  0  0  0  0  0  0  0  0  0  0  0
    6.3349   -3.2156   24.3066 C   0  0  0  0  0  0  0  0  0  0  0  0
    5.5000   -3.0713   23.6254 H   0  0  0  0  0  0  0  0  0  0  0  0
    6.8012   -1.3490   21.9858 C   0  0  0  0  0  0  0  0  0  0  0  0
    5.7240   -1.3923   22.0570 H   0  0  0  0  0  0  0  0  0  0  0  0
    5.4382    0.6488   20.1634 C   0  0  0  0  0  0  0  0  0  0  0  0
    5.0078    0.6475   21.1680 H   0  0  0  0  0  0  0  0  0  0  0  0
    4.8097    1.3093   19.1035 C   0  0  0  0  0  0  0  0  0  0  0  0
    3.8768    1.8403   19.2580 H   0  0  0  0  0  0  0  0  0  0  0  0
  1  2  1  0
  2  3  2  0
  3  4  1  0
  4  5  1  0
  4  6  2  0
  6  7  1  0
  7  8  1  0
  8  9  1  0
  8 10  2  0
 10 11  1  0
 10 12  1  0
 12 13  1  0
 13 14  2  0
 14 15  1  0
 14 16  1  0
 16 17  1  0
 16 18  2  0
 18 19  1  0
 19 20  1  0
 20 21  1  0
 20 22  2  0
 22 23  1  0
 23 24  1  0
 19 25  2  0
 25 26  1  0
 12 27  2  0
 27 28  1  0
  6 29  1  0
 29 30  1  0
 29 31  2  0
 31 32  1  0
 31  2  1  0
 27  7  1  0
 25 13  1  0
 23 18  1  0
M  END
>  <cnnaffinity>  (1) 
-5.33538

>  <filename>  (1) 
c1cncc(-n2ccc(-c3ccc4[nH]ncc4c3)c2)c1

$$$$
