
     RDKit          3D

 26 28  0  0  0  0  0  0  0  0999 V2000
    3.2617   -5.8554   22.4266 H   0  0  0  0  0  0  0  0  0  0  0  0
    4.2243   -5.3931   22.2157 C   0  0  0  0  0  0  0  0  0  0  0  0
    4.2991   -4.0321   22.0114 N   0  0  0  0  0  0  0  0  0  0  0  0
    5.5207   -3.6907   21.7635 C   0  0  0  0  0  0  0  0  0  0  0  0
    5.7557   -2.3484   21.5585 N   0  0  0  0  0  0  0  0  0  0  0  0
    4.9470   -1.8574   21.9235 H   0  0  0  0  0  0  0  0  0  0  0  0
    6.9813   -1.7105   21.7260 N   0  0  0  0  0  0  0  0  0  0  0  0
    7.9556   -1.9474   22.6696 C   0  0  0  0  0  0  0  0  0  0  0  0
    7.8001   -2.6461   23.4815 H   0  0  0  0  0  0  0  0  0  0  0  0
    9.0225   -1.2214   22.4628 N   0  0  0  0  0  0  0  0  0  0  0  0
    8.7304   -0.4658   21.3530 C   0  0  0  0  0  0  0  0  0  0  0  0
    9.4482    0.2470   20.9676 H   0  0  0  0  0  0  0  0  0  0  0  0
    7.4706   -0.7243   20.8796 C   0  0  0  0  0  0  0  0  0  0  0  0
    6.6693   -0.0653   19.8200 C   0  0  0  0  0  0  0  0  0  0  0  0
    7.1382    0.0130   18.4933 C   0  0  0  0  0  0  0  0  0  0  0  0
    8.0620   -0.4923   18.2215 H   0  0  0  0  0  0  0  0  0  0  0  0
    6.5196    0.6716   17.5027 N   0  0  0  0  0  0  0  0  0  0  0  0
    5.3755    1.3035   17.8050 C   0  0  0  0  0  0  0  0  0  0  0  0
    4.9073    1.8707   16.9991 H   0  0  0  0  0  0  0  0  0  0  0  0
    4.7970    1.2658   19.0771 C   0  0  0  0  0  0  0  0  0  0  0  0
    3.8762    1.8044   19.2609 H   0  0  0  0  0  0  0  0  0  0  0  0
    5.4429    0.5630   20.0977 C   0  0  0  0  0  0  0  0  0  0  0  0
    5.0172    0.5095   21.1019 H   0  0  0  0  0  0  0  0  0  0  0  0
    6.6861   -4.9881   21.7163 S   0  0  0  0  0  0  0  0  0  0  0  0
    5.3895   -6.0766   22.1266 C   0  0  0  0  0  0  0  0  0  0  0  0
    5.5630   -7.1302   22.2964 H   0  0  0  0  0  0  0  0  0  0  0  0
  1  2  1  0
  2  3  1  0
  3  4  2  0
  4  5  1  0
  5  6  1  0
  5  7  1  0
  7  8  1  0
  8  9  1  0
  8 10  2  0
 10 11  1  0
 11 12  1  0
 11 13  2  0
 13 14  1  0
 14 15  2  0
 15 16  1  0
 15 17  1  0
 17 18  2  0
 18 19  1  0
 18 20  1  0
 20 21  1  0
 20 22  2  0
 22 23  1  0
  4 24  1  0
 24 25  1  0
 25 26  1  0
 25  2  2  0
 13  7  1  0
 22 14  1  0
M  END
>  <cnnaffinity>  (1) 
-5.27568

>  <filename>  (1) 
c1cncc(-c2cncn2Nc2nccs2)c1

$$$$
