
     RDKit          3D

 31 34  0  0  0  0  0  0  0  0999 V2000
    6.7668    4.1816   22.5302 H   0  0  0  0  0  0  0  0  0  0  0  0
    6.9576    3.2168   22.9809 C   0  0  0  0  0  0  0  0  0  0  0  0
    7.0947    2.1359   22.1565 N   0  0  0  0  0  0  0  0  0  0  0  0
    7.3084    1.0621   22.8573 C   0  0  0  0  0  0  0  0  0  0  0  0
    7.5563   -0.2375   22.3054 C   0  0  0  0  0  0  0  0  0  0  0  0
    7.3494   -0.6737   20.9626 C   0  0  0  0  0  0  0  0  0  0  0  0
    6.6266   -0.0036   19.8847 C   0  0  0  0  0  0  0  0  0  0  0  0
    7.1531    0.0309   18.5829 C   0  0  0  0  0  0  0  0  0  0  0  0
    8.1057   -0.4512   18.3539 H   0  0  0  0  0  0  0  0  0  0  0  0
    6.5618    0.6669   17.5683 N   0  0  0  0  0  0  0  0  0  0  0  0
    5.3963    1.2895   17.8149 C   0  0  0  0  0  0  0  0  0  0  0  0
    4.9465    1.8165   16.9755 H   0  0  0  0  0  0  0  0  0  0  0  0
    4.7754    1.2912   19.0670 C   0  0  0  0  0  0  0  0  0  0  0  0
    3.8547    1.8431   19.2241 H   0  0  0  0  0  0  0  0  0  0  0  0
    5.3995    0.6284   20.1185 C   0  0  0  0  0  0  0  0  0  0  0  0
    4.9847    0.6512   21.1264 H   0  0  0  0  0  0  0  0  0  0  0  0
    7.9437   -1.8437   20.7664 N   0  0  0  0  0  0  0  0  0  0  0  0
    8.4381   -2.1616   21.9646 N   0  0  0  0  0  0  0  0  0  0  0  0
    8.2773   -1.2472   22.9185 C   0  0  0  0  0  0  0  0  0  0  0  0
    9.1811   -1.5111   24.0938 C   0  0  0  0  0  0  0  0  0  0  0  0
    9.8888   -0.6793   24.2128 H   0  0  0  0  0  0  0  0  0  0  0  0
    8.6045   -1.5937   25.0216 H   0  0  0  0  0  0  0  0  0  0  0  0
    9.8958   -2.8325   23.6836 C   0  0  0  0  0  0  0  0  0  0  0  0
   10.9794   -2.7312   23.7003 H   0  0  0  0  0  0  0  0  0  0  0  0
    9.6337   -3.6590   24.3459 H   0  0  0  0  0  0  0  0  0  0  0  0
    9.4491   -3.1433   22.2287 C   0  0  0  0  0  0  0  0  0  0  0  0
    9.0148   -4.1364   22.1072 H   0  0  0  0  0  0  0  0  0  0  0  0
   10.2542   -2.9700   21.5079 H   0  0  0  0  0  0  0  0  0  0  0  0
    7.3560    1.3086   24.5794 S   0  0  0  0  0  0  0  0  0  0  0  0
    7.0653    2.9754   24.3157 C   0  0  0  0  0  0  0  0  0  0  0  0
    6.9915    3.6704   25.1372 H   0  0  0  0  0  0  0  0  0  0  0  0
  1  2  1  0
  2  3  1  0
  3  4  2  0
  4  5  1  0
  5  6  1  0
  6  7  1  0
  7  8  2  0
  8  9  1  0
  8 10  1  0
 10 11  2  0
 11 12  1  0
 11 13  1  0
 13 14  1  0
 13 15  2  0
 15 16  1  0
  6 17  2  0
 17 18  1  0
 18 19  1  0
 19 20  1  0
 20 21  1  0
 20 22  1  0
 20 23  1  0
 23 24  1  0
 23 25  1  0
 23 26  1  0
 26 27  1  0
 26 28  1  0
  4 29  1  0
 29 30  1  0
 30 31  1  0
 30  2  2  0
 19  5  2  0
 15  7  1  0
 26 18  1  0
M  END
>  <cnnaffinity>  (1) 
-5.26647

>  <filename>  (1) 
c1cncc(-c2nn3c(c2-c2nccs2)CCC3)c1

$$$$
