
     RDKit          3D

 34 38  0  0  0  0  0  0  0  0999 V2000
    4.9195    1.7731   17.0033 H   0  0  0  0  0  0  0  0  0  0  0  0
    5.4061    1.2880   17.8471 C   0  0  0  0  0  0  0  0  0  0  0  0
    6.5715    0.6719   17.5926 N   0  0  0  0  0  0  0  0  0  0  0  0
    7.1776    0.0573   18.6112 C   0  0  0  0  0  0  0  0  0  0  0  0
    8.1247   -0.4293   18.3741 H   0  0  0  0  0  0  0  0  0  0  0  0
    6.6507    0.0116   19.9125 C   0  0  0  0  0  0  0  0  0  0  0  0
    7.3474   -0.6887   20.9921 C   0  0  0  0  0  0  0  0  0  0  0  0
    6.8704   -0.7423   22.1962 N   0  0  0  0  0  0  0  0  0  0  0  0
    7.7297   -1.4457   22.9826 N   0  0  0  0  0  0  0  0  0  0  0  0
    7.7706   -1.8644   24.2937 C   0  0  0  0  0  0  0  0  0  0  0  0
    6.7982   -1.5258   25.3294 C   0  0  0  0  0  0  0  0  0  0  0  0
    6.2893   -0.2442   25.3999 C   0  0  0  0  0  0  0  0  0  0  0  0
    6.5737    0.4978   24.6629 H   0  0  0  0  0  0  0  0  0  0  0  0
    5.4388    0.1913   26.3642 N   0  0  0  0  0  0  0  0  0  0  0  0
    5.0723   -0.6761   27.2861 C   0  0  0  0  0  0  0  0  0  0  0  0
    4.3935   -0.3304   28.0638 H   0  0  0  0  0  0  0  0  0  0  0  0
    5.4969   -2.0364   27.3285 C   0  0  0  0  0  0  0  0  0  0  0  0
    5.0577   -2.9445   28.3419 C   0  0  0  0  0  0  0  0  0  0  0  0
    4.3905   -2.5903   29.1270 H   0  0  0  0  0  0  0  0  0  0  0  0
    5.4732   -4.2540   28.3158 C   0  0  0  0  0  0  0  0  0  0  0  0
    5.1447   -4.9505   29.0825 H   0  0  0  0  0  0  0  0  0  0  0  0
    6.3306   -4.7170   27.2805 C   0  0  0  0  0  0  0  0  0  0  0  0
    6.6439   -5.7562   27.2645 H   0  0  0  0  0  0  0  0  0  0  0  0
    6.7683   -3.8629   26.2921 C   0  0  0  0  0  0  0  0  0  0  0  0
    7.4151   -4.2073   25.4914 H   0  0  0  0  0  0  0  0  0  0  0  0
    6.3820   -2.4880   26.3040 C   0  0  0  0  0  0  0  0  0  0  0  0
    8.8594   -2.5817   24.4603 N   0  0  0  0  0  0  0  0  0  0  0  0
    9.5602   -2.6318   23.2753 N   0  0  0  0  0  0  0  0  0  0  0  0
    8.8544   -1.9557   22.4145 C   0  0  0  0  0  0  0  0  0  0  0  0
    8.9029   -1.5152   20.7354 S   0  0  0  0  0  0  0  0  0  0  0  0
    5.4295    0.6573   20.1652 C   0  0  0  0  0  0  0  0  0  0  0  0
    5.0029    0.6321   21.1706 H   0  0  0  0  0  0  0  0  0  0  0  0
    4.8033    1.3115   19.1097 C   0  0  0  0  0  0  0  0  0  0  0  0
    3.8719    1.8452   19.2610 H   0  0  0  0  0  0  0  0  0  0  0  0
  1  2  1  0
  2  3  2  0
  3  4  1  0
  4  5  1  0
  4  6  2  0
  6  7  1  0
  7  8  2  0
  8  9  1  0
  9 10  1  0
 10 11  1  0
 11 12  2  0
 12 13  1  0
 12 14  1  0
 14 15  2  0
 15 16  1  0
 15 17  1  0
 17 18  2  0
 18 19  1  0
 18 20  1  0
 20 21  1  0
 20 22  2  0
 22 23  1  0
 22 24  1  0
 24 25  1  0
 24 26  2  0
 10 27  2  0
 27 28  1  0
 28 29  2  0
 29 30  1  0
  6 31  1  0
 31 32  1  0
 31 33  2  0
 33 34  1  0
 33  2  1  0
 30  7  1  0
 29  9  1  0
 26 11  1  0
 26 17  1  0
M  END
>  <cnnaffinity>  (1) 
-5.44832

>  <filename>  (1) 
c1cncc(-c2nn3c(-c4cncc5ccccc45)nnc3s2)c1

$$$$
