
     RDKit          3D

 39 42  0  0  0  0  0  0  0  0999 V2000
    4.9981    1.7930   17.0083 H   0  0  0  0  0  0  0  0  0  0  0  0
    5.4621    1.3021   17.8590 C   0  0  0  0  0  0  0  0  0  0  0  0
    6.6240    0.6730   17.6216 N   0  0  0  0  0  0  0  0  0  0  0  0
    7.2206    0.0652   18.6580 C   0  0  0  0  0  0  0  0  0  0  0  0
    8.1584   -0.4466   18.4454 H   0  0  0  0  0  0  0  0  0  0  0  0
    6.7135    0.0548   19.9788 C   0  0  0  0  0  0  0  0  0  0  0  0
    7.4223   -0.5731   21.0428 N   0  0  0  0  0  0  0  0  0  0  0  0
    7.2901   -0.3038   22.4150 C   0  0  0  0  0  0  0  0  0  0  0  0
    6.8887    0.9518   22.8180 N   0  0  0  0  0  0  0  0  0  0  0  0
    7.4495    2.1342   22.1441 C   0  0  0  0  0  0  0  0  0  0  0  0
    6.6695    2.6714   21.5775 H   0  0  0  0  0  0  0  0  0  0  0  0
    8.1670    1.8092   21.3792 H   0  0  0  0  0  0  0  0  0  0  0  0
    8.1560    3.1123   23.0820 C   0  0  0  0  0  0  0  0  0  0  0  0
    8.6916    4.2920   22.5479 C   0  0  0  0  0  0  0  0  0  0  0  0
    8.4957    4.5361   21.5054 H   0  0  0  0  0  0  0  0  0  0  0  0
    9.4820    5.1442   23.3254 C   0  0  0  0  0  0  0  0  0  0  0  0
    9.9282    6.0298   22.8726 H   0  0  0  0  0  0  0  0  0  0  0  0
    9.7067    4.8337   24.6738 C   0  0  0  0  0  0  0  0  0  0  0  0
   10.3537    5.4635   25.2805 H   0  0  0  0  0  0  0  0  0  0  0  0
    9.1091    3.6982   25.2323 C   0  0  0  0  0  0  0  0  0  0  0  0
    9.2263    3.4807   26.2947 H   0  0  0  0  0  0  0  0  0  0  0  0
    8.3279    2.8335   24.4519 C   0  0  0  0  0  0  0  0  0  0  0  0
    7.6969    1.5895   25.0546 C   0  0  0  0  0  0  0  0  0  0  0  0
    7.3838    1.7909   26.0856 H   0  0  0  0  0  0  0  0  0  0  0  0
    8.4477    0.7891   25.0952 H   0  0  0  0  0  0  0  0  0  0  0  0
    6.5042    1.1136   24.2225 C   0  0  0  0  0  0  0  0  0  0  0  0
    5.6872    1.8520   24.2863 H   0  0  0  0  0  0  0  0  0  0  0  0
    6.1221    0.1640   24.6075 H   0  0  0  0  0  0  0  0  0  0  0  0
    7.5534   -1.2745   23.2074 N   0  0  0  0  0  0  0  0  0  0  0  0
    7.9155   -2.4275   22.3939 C   0  0  0  0  0  0  0  0  0  0  0  0
    8.9105   -2.7994   22.6725 H   0  0  0  0  0  0  0  0  0  0  0  0
    7.2017   -3.2445   22.5667 H   0  0  0  0  0  0  0  0  0  0  0  0
    7.8724   -1.9618   20.9218 C   0  0  0  0  0  0  0  0  0  0  0  0
    8.8494   -2.0352   20.4196 H   0  0  0  0  0  0  0  0  0  0  0  0
    7.1448   -2.5347   20.3329 H   0  0  0  0  0  0  0  0  0  0  0  0
    5.4853    0.7022   20.1940 C   0  0  0  0  0  0  0  0  0  0  0  0
    5.0689    0.7328   21.1982 H   0  0  0  0  0  0  0  0  0  0  0  0
    4.8541    1.3331   19.1178 C   0  0  0  0  0  0  0  0  0  0  0  0
    3.9107    1.8530   19.2486 H   0  0  0  0  0  0  0  0  0  0  0  0
  1  2  1  0
  2  3  2  0
  3  4  1  0
  4  5  1  0
  4  6  2  0
  6  7  1  0
  7  8  1  0
  8  9  1  0
  9 10  1  0
 10 11  1  0
 10 12  1  0
 10 13  1  0
 13 14  2  0
 14 15  1  0
 14 16  1  0
 16 17  1  0
 16 18  2  0
 18 19  1  0
 18 20  1  0
 20 21  1  0
 20 22  2  0
 22 23  1  0
 23 24  1  0
 23 25  1  0
 23 26  1  0
 26 27  1  0
 26 28  1  0
  8 29  2  0
 29 30  1  0
 30 31  1  0
 30 32  1  0
 30 33  1  0
 33 34  1  0
 33 35  1  0
  6 36  1  0
 36 37  1  0
 36 38  2  0
 38 39  1  0
 38  2  1  0
 33  7  1  0
 26  9  1  0
 22 13  1  0
M  END
>  <cnnaffinity>  (1) 
-4.9537

>  <filename>  (1) 
c1cncc(N2CCN=C2N2CCc3ccccc3C2)c1

$$$$
