
     RDKit          3D

 45 48  0  0  0  0  0  0  0  0999 V2000
    4.9912    1.8495   16.9656 H   0  0  0  0  0  0  0  0  0  0  0  0
    5.4219    1.3047   17.8060 C   0  0  0  0  0  0  0  0  0  0  0  0
    6.5686    0.6508   17.5778 N   0  0  0  0  0  0  0  0  0  0  0  0
    7.1232   -0.0027   18.6137 C   0  0  0  0  0  0  0  0  0  0  0  0
    8.0565   -0.5107   18.3736 H   0  0  0  0  0  0  0  0  0  0  0  0
    6.5820   -0.0591   19.9175 C   0  0  0  0  0  0  0  0  0  0  0  0
    7.2567   -0.7582   21.0891 C   0  0  0  0  0  0  0  0  0  0  0  0
    6.5469   -0.8060   21.9252 H   0  0  0  0  0  0  0  0  0  0  0  0
    7.4732   -1.8026   20.8202 H   0  0  0  0  0  0  0  0  0  0  0  0
    8.5847   -0.1038   21.5890 C   0  0  1  0  0  0  0  0  0  0  0  0
    8.4359    1.4347   21.8200 C   0  0  0  0  0  0  0  0  0  0  0  0
    8.4201    1.9104   20.8321 H   0  0  0  0  0  0  0  0  0  0  0  0
    9.3546    1.8155   22.2904 H   0  0  0  0  0  0  0  0  0  0  0  0
    7.2351    1.9608   22.5930 C   0  0  0  0  0  0  0  0  0  0  0  0
    6.6891    1.3387   23.7541 C   0  0  0  0  0  0  0  0  0  0  0  0
    7.1806    0.4730   24.1974 H   0  0  0  0  0  0  0  0  0  0  0  0
    5.5308    1.8129   24.3396 C   0  0  0  0  0  0  0  0  0  0  0  0
    5.1182    1.2990   25.1976 H   0  0  0  0  0  0  0  0  0  0  0  0
    4.8389    2.9538   23.8221 C   0  0  0  0  0  0  0  0  0  0  0  0
    3.5887    3.4365   24.3359 C   0  0  0  0  0  0  0  0  0  0  0  0
    3.1295    2.9333   25.1850 H   0  0  0  0  0  0  0  0  0  0  0  0
    2.9545    4.5048   23.7401 C   0  0  0  0  0  0  0  0  0  0  0  0
    1.9804    4.8373   24.0931 H   0  0  0  0  0  0  0  0  0  0  0  0
    3.5460    5.1788   22.6337 C   0  0  0  0  0  0  0  0  0  0  0  0
    3.0241    6.0090   22.1633 H   0  0  0  0  0  0  0  0  0  0  0  0
    4.7636    4.7669   22.1485 C   0  0  0  0  0  0  0  0  0  0  0  0
    5.2557    5.2824   21.3264 H   0  0  0  0  0  0  0  0  0  0  0  0
    5.4230    3.6324   22.7089 C   0  0  0  0  0  0  0  0  0  0  0  0
    6.6225    3.1167   22.1413 C   0  0  0  0  0  0  0  0  0  0  0  0
    7.0265    3.6602   21.2967 H   0  0  0  0  0  0  0  0  0  0  0  0
    9.2025   -0.7932   22.8597 C   0  0  0  0  0  0  0  0  0  0  0  0
    8.5735   -1.5859   23.2873 H   0  0  0  0  0  0  0  0  0  0  0  0
    9.3612   -0.0538   23.6628 H   0  0  0  0  0  0  0  0  0  0  0  0
   10.5165   -1.3527   22.5036 N   0  0  0  0  0  0  0  0  0  0  0  0
   10.3734   -2.3017   22.1629 H   0  0  0  0  0  0  0  0  0  0  0  0
   10.9709   -0.5699   21.3530 C   0  0  0  0  0  0  0  0  0  0  0  0
   11.4015    0.3862   21.6816 H   0  0  0  0  0  0  0  0  0  0  0  0
   11.7497   -1.1009   20.7951 H   0  0  0  0  0  0  0  0  0  0  0  0
    9.7003   -0.3477   20.5414 C   0  0  0  0  0  0  0  0  0  0  0  0
    9.7200    0.4731   19.8250 H   0  0  0  0  0  0  0  0  0  0  0  0
    9.4955   -1.2710   19.9845 H   0  0  0  0  0  0  0  0  0  0  0  0
    5.3669    0.6088   20.1097 C   0  0  0  0  0  0  0  0  0  0  0  0
    4.9071    0.6041   21.1005 H   0  0  0  0  0  0  0  0  0  0  0  0
    4.7813    1.3017   19.0476 C   0  0  0  0  0  0  0  0  0  0  0  0
    3.8482    1.8346   19.1685 H   0  0  0  0  0  0  0  0  0  0  0  0
  1  2  1  0
  2  3  2  0
  3  4  1  0
  4  5  1  0
  4  6  2  0
  6  7  1  0
  7  8  1  0
  7  9  1  0
 10  7  1  6
 10 11  1  0
 11 12  1  0
 11 13  1  0
 11 14  1  0
 14 15  2  0
 15 16  1  0
 15 17  1  0
 17 18  1  0
 17 19  2  0
 19 20  1  0
 20 21  1  0
 20 22  2  0
 22 23  1  0
 22 24  1  0
 24 25  1  0
 24 26  2  0
 26 27  1  0
 26 28  1  0
 28 29  2  0
 29 30  1  0
 10 31  1  0
 31 32  1  0
 31 33  1  0
 31 34  1  0
 34 35  1  0
 34 36  1  0
 36 37  1  0
 36 38  1  0
 36 39  1  0
 39 40  1  0
 39 41  1  0
  6 42  1  0
 42 43  1  0
 42 44  2  0
 44 45  1  0
 44  2  1  0
 39 10  1  0
 29 14  1  0
 28 19  1  0
M  END
>  <cnnaffinity>  (1) 
-5.30912

>  <filename>  (1) 
c1cncc(C[C@]2(Cc3ccc4ccccc4c3)CCNC2)c1

$$$$
