
     RDKit          3D

 36 38  0  0  0  0  0  0  0  0999 V2000
    4.9113    1.7947   16.9889 H   0  0  0  0  0  0  0  0  0  0  0  0
    5.3939    1.3016   17.8300 C   0  0  0  0  0  0  0  0  0  0  0  0
    6.5527    0.6817   17.5605 N   0  0  0  0  0  0  0  0  0  0  0  0
    7.1710    0.0680   18.5766 C   0  0  0  0  0  0  0  0  0  0  0  0
    8.1124   -0.4296   18.3542 H   0  0  0  0  0  0  0  0  0  0  0  0
    6.6626    0.0158   19.8932 C   0  0  0  0  0  0  0  0  0  0  0  0
    7.3402   -0.6782   20.9439 N   0  0  0  0  0  0  0  0  0  0  0  0
    6.8277   -1.6830   21.7339 C   0  0  0  0  0  0  0  0  0  0  0  0
    5.8236   -2.0584   21.6090 H   0  0  0  0  0  0  0  0  0  0  0  0
    7.7198   -2.1197   22.5788 N   0  0  0  0  0  0  0  0  0  0  0  0
    8.8615   -1.3833   22.3797 N   0  0  0  0  0  0  0  0  0  0  0  0
    8.6251   -0.5186   21.4259 C   0  0  0  0  0  0  0  0  0  0  0  0
    9.5783    0.5434   20.9866 C   0  0  0  0  0  0  0  0  0  0  0  0
   10.5854    0.1233   21.0609 H   0  0  0  0  0  0  0  0  0  0  0  0
    9.4090    0.7739   19.9317 H   0  0  0  0  0  0  0  0  0  0  0  0
    9.4946    1.8461   21.8171 C   0  0  0  0  0  0  0  0  0  0  0  0
   10.2324    2.5436   21.3847 H   0  0  0  0  0  0  0  0  0  0  0  0
    9.8575    1.6287   23.2925 C   0  0  0  0  0  0  0  0  0  0  0  0
    9.1488    0.9115   23.7265 H   0  0  0  0  0  0  0  0  0  0  0  0
   10.8407    1.1493   23.3600 H   0  0  0  0  0  0  0  0  0  0  0  0
    9.8197    2.9412   24.0825 C   0  0  0  0  0  0  0  0  0  0  0  0
   10.0494    2.7484   25.1353 H   0  0  0  0  0  0  0  0  0  0  0  0
   10.6100    3.6046   23.7048 H   0  0  0  0  0  0  0  0  0  0  0  0
    8.4602    3.6466   23.9469 C   0  0  0  0  0  0  0  0  0  0  0  0
    8.4700    4.6040   24.4826 H   0  0  0  0  0  0  0  0  0  0  0  0
    7.6915    3.0304   24.4335 H   0  0  0  0  0  0  0  0  0  0  0  0
    8.0681    3.8488   22.4720 C   0  0  0  0  0  0  0  0  0  0  0  0
    8.7637    4.5650   22.0149 H   0  0  0  0  0  0  0  0  0  0  0  0
    7.0749    4.3073   22.3975 H   0  0  0  0  0  0  0  0  0  0  0  0
    8.1150    2.5129   21.7094 C   0  0  0  0  0  0  0  0  0  0  0  0
    7.3349    1.8517   22.1098 H   0  0  0  0  0  0  0  0  0  0  0  0
    7.8648    2.5963   20.6526 H   0  0  0  0  0  0  0  0  0  0  0  0
    5.4420    0.6473   20.1569 C   0  0  0  0  0  0  0  0  0  0  0  0
    5.0275    0.6219   21.1699 H   0  0  0  0  0  0  0  0  0  0  0  0
    4.8076    1.3107   19.1010 C   0  0  0  0  0  0  0  0  0  0  0  0
    3.8775    1.8401   19.2562 H   0  0  0  0  0  0  0  0  0  0  0  0
  1  2  1  0
  2  3  2  0
  3  4  1  0
  4  5  1  0
  4  6  2  0
  6  7  1  0
  7  8  1  0
  8  9  1  0
  8 10  2  0
 10 11  1  0
 11 12  2  0
 12 13  1  0
 13 14  1  0
 13 15  1  0
 13 16  1  0
 16 17  1  0
 16 18  1  0
 18 19  1  0
 18 20  1  0
 18 21  1  0
 21 22  1  0
 21 23  1  0
 21 24  1  0
 24 25  1  0
 24 26  1  0
 24 27  1  0
 27 28  1  0
 27 29  1  0
 27 30  1  0
 30 31  1  0
 30 32  1  0
  6 33  1  0
 33 34  1  0
 33 35  2  0
 35 36  1  0
 35  2  1  0
 12  7  1  0
 30 16  1  0
M  END
>  <cnnaffinity>  (1) 
-5.27958

>  <filename>  (1) 
c1cncc(-n2cnnc2CC2CCCCC2)c1

$$$$
