
     RDKit          3D

 26 28  0  0  0  0  0  0  0  0999 V2000
    8.4678   -5.1003   27.5499 H   0  0  0  0  0  0  0  0  0  0  0  0
    8.5123   -4.8036   26.5021 C   0  0  0  0  0  0  0  0  0  0  0  0
    7.8489   -3.6690   26.0875 N   0  0  0  0  0  0  0  0  0  0  0  0
    8.0850   -3.4725   24.8242 C   0  0  0  0  0  0  0  0  0  0  0  0
    7.5108   -2.3987   24.2279 N   0  0  0  0  0  0  0  0  0  0  0  0
    6.8234   -2.0337   24.8678 H   0  0  0  0  0  0  0  0  0  0  0  0
    7.8473   -1.8281   23.0026 C   0  0  0  0  0  0  0  0  0  0  0  0
    9.0980   -1.8321   22.4655 C   0  0  0  0  0  0  0  0  0  0  0  0
    9.9841   -2.2408   22.9354 H   0  0  0  0  0  0  0  0  0  0  0  0
    9.1222   -1.0723   20.9207 S   0  0  0  0  0  0  0  0  0  0  0  0
    7.4177   -0.7116   20.9918 C   0  0  0  0  0  0  0  0  0  0  0  0
    6.6825   -0.0051   19.9119 C   0  0  0  0  0  0  0  0  0  0  0  0
    7.1798    0.0504   18.5910 C   0  0  0  0  0  0  0  0  0  0  0  0
    8.1246   -0.4260   18.3390 H   0  0  0  0  0  0  0  0  0  0  0  0
    6.5649    0.6671   17.5758 N   0  0  0  0  0  0  0  0  0  0  0  0
    5.4048    1.2875   17.8387 C   0  0  0  0  0  0  0  0  0  0  0  0
    4.9400    1.7947   16.9961 H   0  0  0  0  0  0  0  0  0  0  0  0
    4.8120    1.3011   19.1045 C   0  0  0  0  0  0  0  0  0  0  0  0
    3.8787    1.8348   19.2499 H   0  0  0  0  0  0  0  0  0  0  0  0
    5.4556    0.6445   20.1565 C   0  0  0  0  0  0  0  0  0  0  0  0
    5.0198    0.6586   21.1556 H   0  0  0  0  0  0  0  0  0  0  0  0
    6.9039   -1.1833   22.1626 C   0  0  0  0  0  0  0  0  0  0  0  0
    5.8719   -1.0970   22.4330 H   0  0  0  0  0  0  0  0  0  0  0  0
    9.0363   -4.6892   24.0223 S   0  0  0  0  0  0  0  0  0  0  0  0
    9.1974   -5.4845   25.5513 C   0  0  0  0  0  0  0  0  0  0  0  0
    9.7775   -6.3916   25.6403 H   0  0  0  0  0  0  0  0  0  0  0  0
  1  2  1  0
  2  3  1  0
  3  4  2  0
  4  5  1  0
  5  6  1  0
  5  7  1  0
  7  8  2  0
  8  9  1  0
  8 10  1  0
 10 11  1  0
 11 12  1  0
 12 13  2  0
 13 14  1  0
 13 15  1  0
 15 16  2  0
 16 17  1  0
 16 18  1  0
 18 19  1  0
 18 20  2  0
 20 21  1  0
 11 22  2  0
 22 23  1  0
  4 24  1  0
 24 25  1  0
 25 26  1  0
 25  2  2  0
 22  7  1  0
 20 12  1  0
M  END
>  <cnnaffinity>  (1) 
-5.336

>  <filename>  (1) 
c1cncc(-c2cc(Nc3nccs3)cs2)c1

$$$$
