
     RDKit          3D

 44 46  0  0  0  0  0  0  0  0999 V2000
    5.0075    1.9081   16.9560 H   0  0  0  0  0  0  0  0  0  0  0  0
    5.4433    1.3561   17.7879 C   0  0  0  0  0  0  0  0  0  0  0  0
    6.5855    0.7004   17.5333 N   0  0  0  0  0  0  0  0  0  0  0  0
    7.1456    0.0287   18.5488 C   0  0  0  0  0  0  0  0  0  0  0  0
    8.0623   -0.5133   18.3030 H   0  0  0  0  0  0  0  0  0  0  0  0
    6.6425   -0.0106   19.8625 C   0  0  0  0  0  0  0  0  0  0  0  0
    7.3809   -0.7264   20.9723 C   0  0  0  0  0  0  0  0  0  0  0  0
    6.6298   -1.1993   21.6214 H   0  0  0  0  0  0  0  0  0  0  0  0
    7.9648   -1.5465   20.5296 H   0  0  0  0  0  0  0  0  0  0  0  0
    8.3507    0.1333   21.8562 C   0  0  1  0  0  0  0  0  0  0  0  0
    9.1713   -0.7817   22.7881 C   0  0  0  0  0  0  0  0  0  0  0  0
    9.7531   -1.5013   22.1756 H   0  0  0  0  0  0  0  0  0  0  0  0
    9.9063   -0.1554   23.3193 H   0  0  0  0  0  0  0  0  0  0  0  0
    8.3247   -1.4166   23.7808 N   0  0  0  0  0  0  0  0  0  0  0  0
    7.6700   -2.0465   23.3303 H   0  0  0  0  0  0  0  0  0  0  0  0
    8.9684   -2.1179   24.8695 C   0  0  0  0  0  0  0  0  0  0  0  0
    9.5771   -1.3922   25.4461 H   0  0  0  0  0  0  0  0  0  0  0  0
    7.9129   -2.7175   25.7958 C   0  0  0  0  0  0  0  0  0  0  0  0
    7.3875   -1.9448   26.3704 H   0  0  0  0  0  0  0  0  0  0  0  0
    7.1651   -3.2471   25.1839 H   0  0  0  0  0  0  0  0  0  0  0  0
    8.7008   -3.7186   26.6389 C   0  0  0  0  0  0  0  0  0  0  0  0
    9.2637   -3.1659   27.3992 H   0  0  0  0  0  0  0  0  0  0  0  0
    8.0625   -4.4413   27.1575 H   0  0  0  0  0  0  0  0  0  0  0  0
    9.6875   -4.3678   25.6391 C   0  0  0  0  0  0  0  0  0  0  0  0
   10.6390   -4.6081   26.1312 H   0  0  0  0  0  0  0  0  0  0  0  0
    9.2926   -5.3081   25.2361 H   0  0  0  0  0  0  0  0  0  0  0  0
    9.8601   -3.3309   24.4947 C   0  0  0  0  0  0  0  0  0  0  0  0
    9.5362   -3.7570   23.5324 H   0  0  0  0  0  0  0  0  0  0  0  0
   10.9009   -3.0253   24.3582 H   0  0  0  0  0  0  0  0  0  0  0  0
    9.3124    0.9721   20.9846 C   0  0  0  0  0  0  0  0  0  0  0  0
   10.2449    1.1656   21.5390 H   0  0  0  0  0  0  0  0  0  0  0  0
    9.5937    0.4530   20.0584 H   0  0  0  0  0  0  0  0  0  0  0  0
    8.6503    2.2401   20.6999 N   0  0  0  0  0  0  0  0  0  0  0  0
    8.1453    2.2048   19.8210 H   0  0  0  0  0  0  0  0  0  0  0  0
    7.7124    2.5289   21.7889 C   0  0  0  0  0  0  0  0  0  0  0  0
    8.0730    3.3697   22.3965 H   0  0  0  0  0  0  0  0  0  0  0  0
    6.7379    2.8330   21.3819 H   0  0  0  0  0  0  0  0  0  0  0  0
    7.6152    1.2507   22.6525 C   0  0  0  0  0  0  0  0  0  0  0  0
    6.5789    0.9893   22.9008 H   0  0  0  0  0  0  0  0  0  0  0  0
    8.1316    1.4112   23.6096 H   0  0  0  0  0  0  0  0  0  0  0  0
    5.4311    0.6595   20.0917 C   0  0  0  0  0  0  0  0  0  0  0  0
    4.9741    0.6502   21.0853 H   0  0  0  0  0  0  0  0  0  0  0  0
    4.8214    1.3507   19.0403 C   0  0  0  0  0  0  0  0  0  0  0  0
    3.8853    1.8817   19.1763 H   0  0  0  0  0  0  0  0  0  0  0  0
  1  2  1  0
  2  3  2  0
  3  4  1  0
  4  5  1  0
  4  6  2  0
  6  7  1  0
  7  8  1  0
  7  9  1  0
 10  7  1  6
 10 11  1  0
 11 12  1  0
 11 13  1  0
 11 14  1  0
 14 15  1  0
 14 16  1  0
 16 17  1  0
 16 18  1  0
 18 19  1  0
 18 20  1  0
 18 21  1  0
 21 22  1  0
 21 23  1  0
 21 24  1  0
 24 25  1  0
 24 26  1  0
 24 27  1  0
 27 28  1  0
 27 29  1  0
 10 30  1  0
 30 31  1  0
 30 32  1  0
 30 33  1  0
 33 34  1  0
 33 35  1  0
 35 36  1  0
 35 37  1  0
 35 38  1  0
 38 39  1  0
 38 40  1  0
  6 41  1  0
 41 42  1  0
 41 43  2  0
 43 44  1  0
 43  2  1  0
 38 10  1  0
 27 16  1  0
M  END
>  <cnnaffinity>  (1) 
-4.59808

>  <filename>  (1) 
c1cncc(C[C@]2(CNC3CCCC3)CCNC2)c1

$$$$
