
     RDKit          3D

 36 40  0  0  0  0  0  0  0  0999 V2000
    4.9220    1.7731   17.0027 H   0  0  0  0  0  0  0  0  0  0  0  0
    5.4078    1.2870   17.8475 C   0  0  0  0  0  0  0  0  0  0  0  0
    6.5725    0.6693   17.5959 N   0  0  0  0  0  0  0  0  0  0  0  0
    7.1782    0.0554   18.6154 C   0  0  0  0  0  0  0  0  0  0  0  0
    8.1239   -0.4288   18.3747 H   0  0  0  0  0  0  0  0  0  0  0  0
    6.6535    0.0083   19.9190 C   0  0  0  0  0  0  0  0  0  0  0  0
    7.3521   -0.6934   21.0022 C   0  0  0  0  0  0  0  0  0  0  0  0
    6.8761   -0.7493   22.2052 N   0  0  0  0  0  0  0  0  0  0  0  0
    7.7343   -1.4512   22.9797 N   0  0  0  0  0  0  0  0  0  0  0  0
    7.7390   -1.8217   24.3092 C   0  0  0  0  0  0  0  0  0  0  0  0
    6.7621   -1.3971   25.3061 C   0  0  0  0  0  0  0  0  0  0  0  0
    6.3780   -0.0635   25.3717 C   0  0  0  0  0  0  0  0  0  0  0  0
    6.7689    0.6304   24.6333 H   0  0  0  0  0  0  0  0  0  0  0  0
    5.4984    0.3965   26.3785 C   0  0  0  0  0  0  0  0  0  0  0  0
    5.2224    1.4471   26.3986 H   0  0  0  0  0  0  0  0  0  0  0  0
    5.0032   -0.4770   27.3191 C   0  0  0  0  0  0  0  0  0  0  0  0
    4.3304   -0.1309   28.1015 H   0  0  0  0  0  0  0  0  0  0  0  0
    5.3559   -1.8581   27.2862 C   0  0  0  0  0  0  0  0  0  0  0  0
    4.8316   -2.7722   28.2510 C   0  0  0  0  0  0  0  0  0  0  0  0
    4.1710   -2.3831   29.0242 H   0  0  0  0  0  0  0  0  0  0  0  0
    5.1426   -4.1096   28.1987 C   0  0  0  0  0  0  0  0  0  0  0  0
    4.7360   -4.7986   28.9355 H   0  0  0  0  0  0  0  0  0  0  0  0
    5.9902   -4.6065   27.1727 C   0  0  0  0  0  0  0  0  0  0  0  0
    6.2194   -5.6683   27.1302 H   0  0  0  0  0  0  0  0  0  0  0  0
    6.5142   -3.7544   26.2247 C   0  0  0  0  0  0  0  0  0  0  0  0
    7.1373   -4.1445   25.4225 H   0  0  0  0  0  0  0  0  0  0  0  0
    6.2366   -2.3451   26.2607 C   0  0  0  0  0  0  0  0  0  0  0  0
    8.9273   -2.5102   24.4362 C   0  0  0  0  0  0  0  0  0  0  0  0
    9.3279   -2.9362   25.3456 H   0  0  0  0  0  0  0  0  0  0  0  0
    9.6228   -2.5975   23.2581 N   0  0  0  0  0  0  0  0  0  0  0  0
    8.8663   -1.9483   22.4132 C   0  0  0  0  0  0  0  0  0  0  0  0
    8.9066   -1.5119   20.7397 S   0  0  0  0  0  0  0  0  0  0  0  0
    5.4311    0.6559   20.1676 C   0  0  0  0  0  0  0  0  0  0  0  0
    5.0014    0.6329   21.1719 H   0  0  0  0  0  0  0  0  0  0  0  0
    4.8044    1.3102   19.1104 C   0  0  0  0  0  0  0  0  0  0  0  0
    3.8721    1.8448   19.2603 H   0  0  0  0  0  0  0  0  0  0  0  0
  1  2  1  0
  2  3  2  0
  3  4  1  0
  4  5  1  0
  4  6  2  0
  6  7  1  0
  7  8  2  0
  8  9  1  0
  9 10  1  0
 10 11  1  0
 11 12  2  0
 12 13  1  0
 12 14  1  0
 14 15  1  0
 14 16  2  0
 16 17  1  0
 16 18  1  0
 18 19  2  0
 19 20  1  0
 19 21  1  0
 21 22  1  0
 21 23  2  0
 23 24  1  0
 23 25  1  0
 25 26  1  0
 25 27  2  0
 10 28  2  0
 28 29  1  0
 28 30  1  0
 30 31  2  0
 31 32  1  0
  6 33  1  0
 33 34  1  0
 33 35  2  0
 35 36  1  0
 35  2  1  0
 32  7  1  0
 31  9  1  0
 27 11  1  0
 27 18  1  0
M  END
>  <cnnaffinity>  (1) 
-5.48692

>  <filename>  (1) 
c1cncc(-c2nn3c(-c4cccc5ccccc45)cnc3s2)c1

$$$$
