
     RDKit          3D

 41 44  0  0  0  0  0  0  0  0999 V2000
    4.9220    1.7808   16.9981 H   0  0  0  0  0  0  0  0  0  0  0  0
    5.4029    1.2900   17.8404 C   0  0  0  0  0  0  0  0  0  0  0  0
    6.5666    0.6748   17.5767 N   0  0  0  0  0  0  0  0  0  0  0  0
    7.1715    0.0528   18.5903 C   0  0  0  0  0  0  0  0  0  0  0  0
    8.1197   -0.4328   18.3692 H   0  0  0  0  0  0  0  0  0  0  0  0
    6.6473    0.0128   19.8961 C   0  0  0  0  0  0  0  0  0  0  0  0
    7.4105   -0.6849   20.9289 C   0  0  0  0  0  0  0  0  0  0  0  0
    8.3509   -1.5740   20.7233 N   0  0  0  0  0  0  0  0  0  0  0  0
    8.8551   -1.9890   21.9376 N   0  0  0  0  0  0  0  0  0  0  0  0
    8.2094   -1.3096   22.8457 C   0  0  0  0  0  0  0  0  0  0  0  0
    8.2473   -1.0238   24.5697 S   0  0  0  0  0  0  0  0  0  0  0  0
    7.0066    0.1898   24.3111 C   0  0  0  0  0  0  0  0  0  0  0  0
    6.6037    0.8553   25.3873 O   0  0  0  0  0  0  0  0  0  0  0  0
    5.6101    1.8971   25.2562 C   0  0  0  0  0  0  0  0  0  0  0  0
    5.2499    2.0707   26.2729 H   0  0  0  0  0  0  0  0  0  0  0  0
    4.7658    1.5574   24.6517 H   0  0  0  0  0  0  0  0  0  0  0  0
    6.1963    3.1866   24.6876 C   0  0  0  0  0  0  0  0  0  0  0  0
    7.0203    3.5239   25.3394 H   0  0  0  0  0  0  0  0  0  0  0  0
    6.6430    2.9344   23.7192 H   0  0  0  0  0  0  0  0  0  0  0  0
    5.1539    4.2068   24.5227 N   0  0  0  0  0  0  0  0  0  0  0  0
    4.9998    5.1002   25.6847 C   0  0  0  0  0  0  0  0  0  0  0  0
    4.0218    5.5955   25.6080 H   0  0  0  0  0  0  0  0  0  0  0  0
    4.9576    4.4940   26.5975 H   0  0  0  0  0  0  0  0  0  0  0  0
    6.0996    6.1741   25.8084 C   0  0  0  0  0  0  0  0  0  0  0  0
    5.8666    6.8524   26.6381 H   0  0  0  0  0  0  0  0  0  0  0  0
    7.0466    5.6821   26.0668 H   0  0  0  0  0  0  0  0  0  0  0  0
    6.2659    6.9585   24.4976 C   0  0  0  0  0  0  0  0  0  0  0  0
    5.3740    7.5803   24.3345 H   0  0  0  0  0  0  0  0  0  0  0  0
    7.1195    7.6418   24.5629 H   0  0  0  0  0  0  0  0  0  0  0  0
    6.4270    6.0013   23.3080 C   0  0  0  0  0  0  0  0  0  0  0  0
    6.4728    6.5519   22.3611 H   0  0  0  0  0  0  0  0  0  0  0  0
    7.3737    5.4507   23.3969 H   0  0  0  0  0  0  0  0  0  0  0  0
    5.2760    4.9834   23.2786 C   0  0  0  0  0  0  0  0  0  0  0  0
    4.3281    5.5107   23.1024 H   0  0  0  0  0  0  0  0  0  0  0  0
    5.3909    4.2861   22.4400 H   0  0  0  0  0  0  0  0  0  0  0  0
    6.5869    0.3754   23.0993 N   0  0  0  0  0  0  0  0  0  0  0  0
    7.2682   -0.4957   22.2864 N   0  0  0  0  0  0  0  0  0  0  0  0
    5.4293    0.6542   20.1651 C   0  0  0  0  0  0  0  0  0  0  0  0
    5.0101    0.6416   21.1736 H   0  0  0  0  0  0  0  0  0  0  0  0
    4.8053    1.3068   19.1062 C   0  0  0  0  0  0  0  0  0  0  0  0
    3.8753    1.8414   19.2550 H   0  0  0  0  0  0  0  0  0  0  0  0
  1  2  1  0
  2  3  2  0
  3  4  1  0
  4  5  1  0
  4  6  2  0
  6  7  1  0
  7  8  2  0
  8  9  1  0
  9 10  2  0
 10 11  1  0
 11 12  1  0
 12 13  1  0
 13 14  1  0
 14 15  1  0
 14 16  1  0
 14 17  1  0
 17 18  1  0
 17 19  1  0
 17 20  1  0
 20 21  1  0
 21 22  1  0
 21 23  1  0
 21 24  1  0
 24 25  1  0
 24 26  1  0
 24 27  1  0
 27 28  1  0
 27 29  1  0
 27 30  1  0
 30 31  1  0
 30 32  1  0
 30 33  1  0
 33 34  1  0
 33 35  1  0
 12 36  2  0
 36 37  1  0
  6 38  1  0
 38 39  1  0
 38 40  2  0
 40 41  1  0
 40  2  1  0
 37  7  1  0
 37 10  1  0
 33 20  1  0
M  END
>  <cnnaffinity>  (1) 
-5.05729

>  <filename>  (1) 
c1cncc(-c2nnc3sc(OCCN4CCCCC4)nn23)c1

$$$$
