
     RDKit          3D

 43 46  0  0  0  0  0  0  0  0999 V2000
    4.9921    1.8660   17.1007 H   0  0  0  0  0  0  0  0  0  0  0  0
    5.4735    1.2686   17.8736 C   0  0  0  0  0  0  0  0  0  0  0  0
    6.6042    0.6397   17.5121 N   0  0  0  0  0  0  0  0  0  0  0  0
    7.2244   -0.0990   18.4453 C   0  0  0  0  0  0  0  0  0  0  0  0
    8.1722   -0.5512   18.1531 H   0  0  0  0  0  0  0  0  0  0  0  0
    6.7464   -0.2997   19.7640 C   0  0  0  0  0  0  0  0  0  0  0  0
    7.5410   -1.0459   20.7110 N   0  0  0  0  0  0  0  0  0  0  0  0
    8.4040   -0.1076   21.4567 C   0  0  0  0  0  0  0  0  0  0  0  0
    8.9135    0.5408   20.7394 H   0  0  0  0  0  0  0  0  0  0  0  0
    7.8164    0.5432   22.1302 H   0  0  0  0  0  0  0  0  0  0  0  0
    9.4247   -0.8705   22.2866 C   0  0  0  0  0  0  0  0  0  0  0  0
   10.0578   -1.4861   21.6253 H   0  0  0  0  0  0  0  0  0  0  0  0
   10.0722   -0.1859   22.8442 H   0  0  0  0  0  0  0  0  0  0  0  0
    8.7583   -1.6792   23.2414 O   0  0  0  0  0  0  0  0  0  0  0  0
    7.9194   -2.6242   22.5978 C   0  0  0  0  0  0  0  0  0  0  0  0
    7.4016   -3.1670   23.3947 H   0  0  0  0  0  0  0  0  0  0  0  0
    8.5397   -3.3415   22.0364 H   0  0  0  0  0  0  0  0  0  0  0  0
    6.8746   -2.0143   21.6272 C   0  0  2  0  0  0  0  0  0  0  0  0
    6.1270   -1.4938   22.2480 H   0  0  0  0  0  0  0  0  0  0  0  0
    6.1798   -3.1556   20.8495 C   0  0  0  0  0  0  0  0  0  0  0  0
    6.9131   -3.6526   20.2127 H   0  0  0  0  0  0  0  0  0  0  0  0
    5.4458   -2.6995   20.1753 H   0  0  0  0  0  0  0  0  0  0  0  0
    5.5083   -4.2152   21.7178 C   0  0  0  0  0  0  0  0  0  0  0  0
    5.8955   -5.5871   21.6728 C   0  0  0  0  0  0  0  0  0  0  0  0
    6.7500   -5.8467   21.0533 H   0  0  0  0  0  0  0  0  0  0  0  0
    5.2123   -6.5593   22.3793 C   0  0  0  0  0  0  0  0  0  0  0  0
    5.5579   -7.5893   22.3421 H   0  0  0  0  0  0  0  0  0  0  0  0
    4.0733   -6.2199   23.1875 C   0  0  0  0  0  0  0  0  0  0  0  0
    3.2255   -7.1680   23.8529 C   0  0  0  0  0  0  0  0  0  0  0  0
    3.4491   -8.2285   23.7846 H   0  0  0  0  0  0  0  0  0  0  0  0
    2.1375   -6.7537   24.5962 C   0  0  0  0  0  0  0  0  0  0  0  0
    1.4690   -7.4696   25.0639 H   0  0  0  0  0  0  0  0  0  0  0  0
    1.8579   -5.3651   24.7647 C   0  0  0  0  0  0  0  0  0  0  0  0
    1.0134   -5.0397   25.3697 H   0  0  0  0  0  0  0  0  0  0  0  0
    2.6545   -4.4354   24.1494 C   0  0  0  0  0  0  0  0  0  0  0  0
    2.4784   -3.3714   24.2934 H   0  0  0  0  0  0  0  0  0  0  0  0
    3.7400   -4.8359   23.3129 C   0  0  0  0  0  0  0  0  0  0  0  0
    4.4833   -3.8794   22.5666 C   0  0  0  0  0  0  0  0  0  0  0  0
    4.2163   -2.8482   22.6667 H   0  0  0  0  0  0  0  0  0  0  0  0
    5.5793    0.3963   20.1239 C   0  0  0  0  0  0  0  0  0  0  0  0
    5.2201    0.3393   21.1523 H   0  0  0  0  0  0  0  0  0  0  0  0
    4.9320    1.1863   19.1613 C   0  0  0  0  0  0  0  0  0  0  0  0
    4.0345    1.7499   19.3958 H   0  0  0  0  0  0  0  0  0  0  0  0
  1  2  1  0
  2  3  2  0
  3  4  1  0
  4  5  1  0
  4  6  2  0
  6  7  1  0
  7  8  1  0
  8  9  1  0
  8 10  1  0
  8 11  1  0
 11 12  1  0
 11 13  1  0
 11 14  1  0
 14 15  1  0
 15 16  1  0
 15 17  1  0
 15 18  1  0
 18 19  1  1
 18 20  1  0
 20 21  1  0
 20 22  1  0
 20 23  1  0
 23 24  2  0
 24 25  1  0
 24 26  1  0
 26 27  1  0
 26 28  2  0
 28 29  1  0
 29 30  1  0
 29 31  2  0
 31 32  1  0
 31 33  1  0
 33 34  1  0
 33 35  2  0
 35 36  1  0
 35 37  1  0
 37 38  2  0
 38 39  1  0
  6 40  1  0
 40 41  1  0
 40 42  2  0
 42 43  1  0
 42  2  1  0
 18  7  1  0
 38 23  1  0
 37 28  1  0
M  END
>  <cnnaffinity>  (1) 
-5.57542

>  <filename>  (1) 
c1cncc(N2CCOC[C@@H]2Cc2ccc3ccccc3c2)c1

$$$$
