
     RDKit          3D

 33 36  0  0  0  0  0  0  0  0999 V2000
    4.9774    1.8432   16.9533 H   0  0  0  0  0  0  0  0  0  0  0  0
    5.4470    1.3162   17.7808 C   0  0  0  0  0  0  0  0  0  0  0  0
    6.5912    0.6716   17.5066 N   0  0  0  0  0  0  0  0  0  0  0  0
    7.1961    0.0100   18.5060 C   0  0  0  0  0  0  0  0  0  0  0  0
    8.1135   -0.5137   18.2401 H   0  0  0  0  0  0  0  0  0  0  0  0
    6.6904   -0.0338   19.8204 C   0  0  0  0  0  0  0  0  0  0  0  0
    7.2360   -0.7904   20.8407 O   0  0  0  0  0  0  0  0  0  0  0  0
    8.5866   -0.8074   21.1109 C   0  0  0  0  0  0  0  0  0  0  0  0
    9.6120    0.0847   20.7516 C   0  0  0  0  0  0  0  0  0  0  0  0
    9.5287    0.9953   20.1788 H   0  0  0  0  0  0  0  0  0  0  0  0
   10.7882   -0.3290   21.2085 N   0  0  0  0  0  0  0  0  0  0  0  0
   10.5145   -1.4478   21.8939 N   0  0  0  0  0  0  0  0  0  0  0  0
   11.2724   -2.0547   22.1768 H   0  0  0  0  0  0  0  0  0  0  0  0
    9.1863   -1.7903   21.8871 C   0  0  0  0  0  0  0  0  0  0  0  0
    8.5968   -2.9246   22.5519 C   0  0  0  0  0  0  0  0  0  0  0  0
    7.4015   -3.4966   22.1794 C   0  0  0  0  0  0  0  0  0  0  0  0
    6.7908   -3.2197   21.3304 H   0  0  0  0  0  0  0  0  0  0  0  0
    7.0877   -4.5181   23.0307 N   0  0  0  0  0  0  0  0  0  0  0  0
    6.3044   -5.1440   22.9596 H   0  0  0  0  0  0  0  0  0  0  0  0
    8.0768   -4.6389   23.9792 C   0  0  0  0  0  0  0  0  0  0  0  0
    8.1748   -5.5303   25.0590 C   0  0  0  0  0  0  0  0  0  0  0  0
    7.3539   -6.1969   25.3076 H   0  0  0  0  0  0  0  0  0  0  0  0
    9.3308   -5.4810   25.8295 C   0  0  0  0  0  0  0  0  0  0  0  0
    9.4753   -6.1934   26.6353 H   0  0  0  0  0  0  0  0  0  0  0  0
   10.3334   -4.5140   25.5857 C   0  0  0  0  0  0  0  0  0  0  0  0
   11.2123   -4.4980   26.2221 H   0  0  0  0  0  0  0  0  0  0  0  0
   10.1923   -3.5940   24.5536 C   0  0  0  0  0  0  0  0  0  0  0  0
   10.9383   -2.8211   24.4217 H   0  0  0  0  0  0  0  0  0  0  0  0
    9.0608   -3.6619   23.7133 C   0  0  0  0  0  0  0  0  0  0  0  0
    5.4961    0.6453   20.0963 C   0  0  0  0  0  0  0  0  0  0  0  0
    5.0881    0.6305   21.1064 H   0  0  0  0  0  0  0  0  0  0  0  0
    4.8607    1.3247   19.0524 C   0  0  0  0  0  0  0  0  0  0  0  0
    3.9291    1.8608   19.2146 H   0  0  0  0  0  0  0  0  0  0  0  0
  1  2  1  0
  2  3  2  0
  3  4  1  0
  4  5  1  0
  4  6  2  0
  6  7  1  0
  7  8  1  0
  8  9  1  0
  9 10  1  0
  9 11  2  0
 11 12  1  0
 12 13  1  0
 12 14  1  0
 14 15  1  0
 15 16  2  0
 16 17  1  0
 16 18  1  0
 18 19  1  0
 18 20  1  0
 20 21  2  0
 21 22  1  0
 21 23  1  0
 23 24  1  0
 23 25  2  0
 25 26  1  0
 25 27  1  0
 27 28  1  0
 27 29  2  0
  6 30  1  0
 30 31  1  0
 30 32  2  0
 32 33  1  0
 32  2  1  0
 14  8  2  0
 29 15  1  0
 29 20  1  0
M  END
>  <cnnaffinity>  (1) 
-5.80147

>  <filename>  (1) 
c1cncc(Oc2cn[nH]c2-c2c[nH]c3ccccc23)c1

$$$$
