
     RDKit          3D

 32 35  0  0  0  0  0  0  0  0999 V2000
    4.9171    1.7772   17.0018 H   0  0  0  0  0  0  0  0  0  0  0  0
    5.4052    1.2909   17.8430 C   0  0  0  0  0  0  0  0  0  0  0  0
    6.5697    0.6803   17.5791 N   0  0  0  0  0  0  0  0  0  0  0  0
    7.1738    0.0537   18.5897 C   0  0  0  0  0  0  0  0  0  0  0  0
    8.1208   -0.4325   18.3685 H   0  0  0  0  0  0  0  0  0  0  0  0
    6.6540   -0.0046   19.8884 C   0  0  0  0  0  0  0  0  0  0  0  0
    7.4028   -0.7288   20.9247 C   0  0  0  0  0  0  0  0  0  0  0  0
    8.0847   -1.8212   20.6805 N   0  0  0  0  0  0  0  0  0  0  0  0
    8.6011   -2.2307   21.8914 O   0  0  0  0  0  0  0  0  0  0  0  0
    8.2298   -1.3666   22.8337 C   0  0  0  0  0  0  0  0  0  0  0  0
    8.5886   -1.5304   23.8441 H   0  0  0  0  0  0  0  0  0  0  0  0
    7.4733   -0.3689   22.3109 C   0  0  0  0  0  0  0  0  0  0  0  0
    6.9935    0.8446   22.9882 C   0  0  0  0  0  0  0  0  0  0  0  0
    7.3366    2.1061   22.5105 C   0  0  0  0  0  0  0  0  0  0  0  0
    7.9297    2.1676   21.6046 H   0  0  0  0  0  0  0  0  0  0  0  0
    6.9945    3.2832   23.0929 N   0  0  0  0  0  0  0  0  0  0  0  0
    6.2720    3.2083   24.1909 C   0  0  0  0  0  0  0  0  0  0  0  0
    5.9991    4.1457   24.6664 H   0  0  0  0  0  0  0  0  0  0  0  0
    5.8282    1.9966   24.7975 C   0  0  0  0  0  0  0  0  0  0  0  0
    5.0408    1.9742   25.9911 C   0  0  0  0  0  0  0  0  0  0  0  0
    4.7751    2.9168   26.4700 H   0  0  0  0  0  0  0  0  0  0  0  0
    4.6198    0.7798   26.5224 C   0  0  0  0  0  0  0  0  0  0  0  0
    4.0179    0.7596   27.4281 H   0  0  0  0  0  0  0  0  0  0  0  0
    4.9620   -0.4496   25.8971 C   0  0  0  0  0  0  0  0  0  0  0  0
    4.6111   -1.3898   26.3115 H   0  0  0  0  0  0  0  0  0  0  0  0
    5.7367   -0.4557   24.7582 C   0  0  0  0  0  0  0  0  0  0  0  0
    5.9621   -1.3886   24.2455 H   0  0  0  0  0  0  0  0  0  0  0  0
    6.1948    0.7657   24.1749 C   0  0  0  0  0  0  0  0  0  0  0  0
    5.4376    0.6434   20.1579 C   0  0  0  0  0  0  0  0  0  0  0  0
    5.0048    0.6339   21.1653 H   0  0  0  0  0  0  0  0  0  0  0  0
    4.8061    1.3060   19.1096 C   0  0  0  0  0  0  0  0  0  0  0  0
    3.8747    1.8435   19.2607 H   0  0  0  0  0  0  0  0  0  0  0  0
  1  2  1  0
  2  3  2  0
  3  4  1  0
  4  5  1  0
  4  6  2  0
  6  7  1  0
  7  8  2  0
  8  9  1  0
  9 10  1  0
 10 11  1  0
 10 12  2  0
 12 13  1  0
 13 14  2  0
 14 15  1  0
 14 16  1  0
 16 17  2  0
 17 18  1  0
 17 19  1  0
 19 20  2  0
 20 21  1  0
 20 22  1  0
 22 23  1  0
 22 24  2  0
 24 25  1  0
 24 26  1  0
 26 27  1  0
 26 28  2  0
  6 29  1  0
 29 30  1  0
 29 31  2  0
 31 32  1  0
 31  2  1  0
 12  7  1  0
 28 13  1  0
 28 19  1  0
M  END
>  <cnnaffinity>  (1) 
-4.85137

>  <filename>  (1) 
c1cncc(-c2nocc2-c2cncc3ccccc23)c1

$$$$
