
     RDKit          3D

 37 40  0  0  0  0  0  0  0  0999 V2000
    4.9260    1.7830   16.9942 H   0  0  0  0  0  0  0  0  0  0  0  0
    5.4061    1.2904   17.8374 C   0  0  0  0  0  0  0  0  0  0  0  0
    6.5655    0.6672   17.5813 N   0  0  0  0  0  0  0  0  0  0  0  0
    7.1540    0.0327   18.6039 C   0  0  0  0  0  0  0  0  0  0  0  0
    8.1133   -0.4241   18.3730 H   0  0  0  0  0  0  0  0  0  0  0  0
    6.6423   -0.0337   19.9070 C   0  0  0  0  0  0  0  0  0  0  0  0
    7.3466   -0.8258   20.9900 C   0  0  0  0  0  0  0  0  0  0  0  0
    6.8553   -2.1869   20.9477 N   0  0  0  0  0  0  0  0  0  0  0  0
    6.4203   -2.4508   20.0817 H   0  0  0  0  0  0  0  0  0  0  0  0
    6.6599   -3.0473   22.0432 C   0  0  0  0  0  0  0  0  0  0  0  0
    7.7390   -3.4124   22.9009 C   0  0  0  0  0  0  0  0  0  0  0  0
    8.7305   -3.0274   22.6731 H   0  0  0  0  0  0  0  0  0  0  0  0
    7.5494   -4.2403   24.0070 C   0  0  0  0  0  0  0  0  0  0  0  0
    8.3697   -4.5220   24.6664 H   0  0  0  0  0  0  0  0  0  0  0  0
    6.2454   -4.7173   24.2489 C   0  0  0  0  0  0  0  0  0  0  0  0
    5.1583   -4.3778   23.4071 C   0  0  0  0  0  0  0  0  0  0  0  0
    5.3769   -3.5434   22.2949 C   0  0  0  0  0  0  0  0  0  0  0  0
    4.5473   -3.2579   21.6552 H   0  0  0  0  0  0  0  0  0  0  0  0
    3.9997   -5.0428   23.9392 C   0  0  0  0  0  0  0  0  0  0  0  0
    3.0031   -4.9898   23.5255 H   0  0  0  0  0  0  0  0  0  0  0  0
    4.3935   -5.7425   25.0450 C   0  0  0  0  0  0  0  0  0  0  0  0
    3.8183   -6.3709   25.7264 H   0  0  0  0  0  0  0  0  0  0  0  0
    5.7519   -5.5443   25.2309 N   0  0  0  0  0  0  0  0  0  0  0  0
    6.3142   -5.9335   25.9664 H   0  0  0  0  0  0  0  0  0  0  0  0
    7.3290   -0.1443   22.3907 C   0  0  0  0  0  0  0  0  0  0  0  0
    6.8852    0.8516   22.3719 H   0  0  0  0  0  0  0  0  0  0  0  0
    6.8301   -0.7321   23.1672 H   0  0  0  0  0  0  0  0  0  0  0  0
    8.8747   -0.1215   22.4117 C   0  0  0  0  0  0  0  0  0  0  0  0
    9.3191   -0.7509   23.1883 H   0  0  0  0  0  0  0  0  0  0  0  0
    9.3179    0.8756   22.4859 H   0  0  0  0  0  0  0  0  0  0  0  0
    8.9007   -0.7340   20.9926 C   0  0  0  0  0  0  0  0  0  0  0  0
    9.3042   -0.0637   20.2336 H   0  0  0  0  0  0  0  0  0  0  0  0
    9.3950   -1.7040   20.8877 H   0  0  0  0  0  0  0  0  0  0  0  0
    5.4317    0.6361   20.1519 C   0  0  0  0  0  0  0  0  0  0  0  0
    5.0049    0.6354   21.1590 H   0  0  0  0  0  0  0  0  0  0  0  0
    4.8058    1.3064   19.1018 C   0  0  0  0  0  0  0  0  0  0  0  0
    3.8776    1.8454   19.2564 H   0  0  0  0  0  0  0  0  0  0  0  0
  1  2  1  0
  2  3  2  0
  3  4  1  0
  4  5  1  0
  4  6  2  0
  6  7  1  0
  7  8  1  0
  8  9  1  0
  8 10  1  0
 10 11  2  0
 11 12  1  0
 11 13  1  0
 13 14  1  0
 13 15  2  0
 15 16  1  0
 16 17  2  0
 17 18  1  0
 16 19  1  0
 19 20  1  0
 19 21  2  0
 21 22  1  0
 21 23  1  0
 23 24  1  0
  7 25  1  0
 25 26  1  0
 25 27  1  0
 25 28  1  0
 28 29  1  0
 28 30  1  0
 28 31  1  0
 31 32  1  0
 31 33  1  0
  6 34  1  0
 34 35  1  0
 34 36  2  0
 36 37  1  0
 36  2  1  0
 31  7  1  0
 17 10  1  0
 23 15  1  0
M  END
>  <cnnaffinity>  (1) 
-5.15462

>  <filename>  (1) 
c1cncc(C2(Nc3ccc4[nH]ccc4c3)CCC2)c1

$$$$
