
     RDKit          3D

 37 39  0  0  0  0  0  0  0  0999 V2000
    4.9285    1.7906   16.9831 H   0  0  0  0  0  0  0  0  0  0  0  0
    5.3975    1.2951   17.8305 C   0  0  0  0  0  0  0  0  0  0  0  0
    6.5585    0.6757   17.5740 N   0  0  0  0  0  0  0  0  0  0  0  0
    7.1603    0.0605   18.5983 C   0  0  0  0  0  0  0  0  0  0  0  0
    8.1127   -0.4031   18.3541 H   0  0  0  0  0  0  0  0  0  0  0  0
    6.6551    0.0074   19.9182 C   0  0  0  0  0  0  0  0  0  0  0  0
    7.3832   -0.7015   20.9843 C   0  0  0  0  0  0  0  0  0  0  0  0
    7.1003   -0.3842   22.6705 S   0  0  0  0  0  0  0  0  0  0  0  0
    8.2710   -1.5677   23.1566 C   0  0  0  0  0  0  0  0  0  0  0  0
    8.5462   -1.9074   24.5846 C   0  0  0  0  0  0  0  0  0  0  0  0
    8.1808   -1.1113   25.2401 H   0  0  0  0  0  0  0  0  0  0  0  0
    9.6345   -1.9476   24.7180 H   0  0  0  0  0  0  0  0  0  0  0  0
    7.9335   -3.2540   25.0087 C   0  0  0  0  0  0  0  0  0  0  0  0
    8.2486   -4.0197   24.2827 H   0  0  0  0  0  0  0  0  0  0  0  0
    8.4724   -3.6870   26.3926 C   0  0  0  0  0  0  0  0  0  0  0  0
    8.6406   -2.8005   27.0193 H   0  0  0  0  0  0  0  0  0  0  0  0
    9.4645   -4.1345   26.2471 H   0  0  0  0  0  0  0  0  0  0  0  0
    7.5494   -4.6747   27.1503 C   0  0  0  0  0  0  0  0  0  0  0  0
    8.1438   -5.3231   27.8039 H   0  0  0  0  0  0  0  0  0  0  0  0
    6.8827   -4.1122   27.8165 H   0  0  0  0  0  0  0  0  0  0  0  0
    6.6889   -5.5078   26.1878 C   0  0  0  0  0  0  0  0  0  0  0  0
    6.0850   -6.2388   26.7384 H   0  0  0  0  0  0  0  0  0  0  0  0
    7.3522   -6.0996   25.5438 H   0  0  0  0  0  0  0  0  0  0  0  0
    5.7814   -4.6136   25.3053 C   0  0  0  0  0  0  0  0  0  0  0  0
    4.8127   -4.4606   25.7954 H   0  0  0  0  0  0  0  0  0  0  0  0
    5.5598   -5.1445   24.3719 H   0  0  0  0  0  0  0  0  0  0  0  0
    6.3986   -3.2285   24.9899 C   0  0  0  0  0  0  0  0  0  0  0  0
    6.0617   -2.4931   25.7335 H   0  0  0  0  0  0  0  0  0  0  0  0
    6.0325   -2.8503   24.0288 H   0  0  0  0  0  0  0  0  0  0  0  0
    8.8311   -2.1806   22.0731 C   0  0  0  0  0  0  0  0  0  0  0  0
    9.5734   -2.9734   22.1455 H   0  0  0  0  0  0  0  0  0  0  0  0
    8.3443   -1.6558   20.8434 C   0  0  0  0  0  0  0  0  0  0  0  0
    8.7422   -1.9092   19.8769 H   0  0  0  0  0  0  0  0  0  0  0  0
    5.4306    0.6586   20.1590 C   0  0  0  0  0  0  0  0  0  0  0  0
    5.0016    0.6379   21.1618 H   0  0  0  0  0  0  0  0  0  0  0  0
    4.8048    1.3120   19.0974 C   0  0  0  0  0  0  0  0  0  0  0  0
    3.8764    1.8404   19.2467 H   0  0  0  0  0  0  0  0  0  0  0  0
  1  2  1  0
  2  3  2  0
  3  4  1  0
  4  5  1  0
  4  6  2  0
  6  7  1  0
  7  8  1  0
  8  9  1  0
  9 10  1  0
 10 11  1  0
 10 12  1  0
 10 13  1  0
 13 14  1  0
 13 15  1  0
 15 16  1  0
 15 17  1  0
 15 18  1  0
 18 19  1  0
 18 20  1  0
 18 21  1  0
 21 22  1  0
 21 23  1  0
 21 24  1  0
 24 25  1  0
 24 26  1  0
 24 27  1  0
 27 28  1  0
 27 29  1  0
  9 30  2  0
 30 31  1  0
 30 32  1  0
 32 33  1  0
  6 34  1  0
 34 35  1  0
 34 36  2  0
 36 37  1  0
 36  2  1  0
 32  7  2  0
 27 13  1  0
M  END
>  <cnnaffinity>  (1) 
-5.13547

>  <filename>  (1) 
c1cncc(-c2ccc(CC3CCCCC3)s2)c1

$$$$
