
     RDKit          3D

 31 34  0  0  0  0  0  0  0  0999 V2000
    4.9166    1.7771   17.0012 H   0  0  0  0  0  0  0  0  0  0  0  0
    5.4047    1.2906   17.8403 C   0  0  0  0  0  0  0  0  0  0  0  0
    6.5686    0.6779   17.5701 N   0  0  0  0  0  0  0  0  0  0  0  0
    7.1824    0.0624   18.5844 C   0  0  0  0  0  0  0  0  0  0  0  0
    8.1283   -0.4283   18.3638 H   0  0  0  0  0  0  0  0  0  0  0  0
    6.6618    0.0154   19.8878 C   0  0  0  0  0  0  0  0  0  0  0  0
    7.3556   -0.6848   20.9630 C   0  0  0  0  0  0  0  0  0  0  0  0
    8.5512   -1.2540   20.7410 O   0  0  0  0  0  0  0  0  0  0  0  0
    8.9857   -1.8721   21.8961 N   0  0  0  0  0  0  0  0  0  0  0  0
    8.0591   -1.6509   22.8036 C   0  0  0  0  0  0  0  0  0  0  0  0
    8.1661   -2.1865   24.1776 C   0  0  0  0  0  0  0  0  0  0  0  0
    8.7811   -3.4184   24.4192 C   0  0  0  0  0  0  0  0  0  0  0  0
    9.2161   -3.9570   23.5812 H   0  0  0  0  0  0  0  0  0  0  0  0
    8.8458   -3.9566   25.7220 C   0  0  0  0  0  0  0  0  0  0  0  0
    9.3414   -4.9103   25.8713 H   0  0  0  0  0  0  0  0  0  0  0  0
    8.3013   -3.2860   26.8169 C   0  0  0  0  0  0  0  0  0  0  0  0
    8.3511   -3.6894   27.8259 H   0  0  0  0  0  0  0  0  0  0  0  0
    7.6889   -2.0491   26.5690 C   0  0  0  0  0  0  0  0  0  0  0  0
    7.6070   -1.4764   25.2772 C   0  0  0  0  0  0  0  0  0  0  0  0
    6.9637   -0.2013   25.4471 C   0  0  0  0  0  0  0  0  0  0  0  0
    6.7947    0.5114   24.6529 H   0  0  0  0  0  0  0  0  0  0  0  0
    6.6823   -0.0440   26.7741 C   0  0  0  0  0  0  0  0  0  0  0  0
    6.2193    0.7941   27.2929 H   0  0  0  0  0  0  0  0  0  0  0  0
    7.1117   -1.1666   27.4493 N   0  0  0  0  0  0  0  0  0  0  0  0
    7.0581   -1.3280   28.4389 H   0  0  0  0  0  0  0  0  0  0  0  0
    6.9915   -0.8989   22.2516 C   0  0  0  0  0  0  0  0  0  0  0  0
    6.0834   -0.6005   22.7399 H   0  0  0  0  0  0  0  0  0  0  0  0
    5.4415    0.6540   20.1535 C   0  0  0  0  0  0  0  0  0  0  0  0
    5.0072    0.6360   21.1593 H   0  0  0  0  0  0  0  0  0  0  0  0
    4.8052    1.3106   19.1068 C   0  0  0  0  0  0  0  0  0  0  0  0
    3.8723    1.8440   19.2616 H   0  0  0  0  0  0  0  0  0  0  0  0
  1  2  1  0
  2  3  2  0
  3  4  1  0
  4  5  1  0
  4  6  2  0
  6  7  1  0
  7  8  1  0
  8  9  1  0
  9 10  2  0
 10 11  1  0
 11 12  2  0
 12 13  1  0
 12 14  1  0
 14 15  1  0
 14 16  2  0
 16 17  1  0
 16 18  1  0
 18 19  2  0
 19 20  1  0
 20 21  1  0
 20 22  2  0
 22 23  1  0
 22 24  1  0
 24 25  1  0
 10 26  1  0
 26 27  1  0
  6 28  1  0
 28 29  1  0
 28 30  2  0
 30 31  1  0
 30  2  1  0
 26  7  2  0
 19 11  1  0
 24 18  1  0
M  END
>  <cnnaffinity>  (1) 
-5.05965

>  <filename>  (1) 
c1cncc(-c2cc(-c3cccc4[nH]ccc34)no2)c1

$$$$
