
     RDKit          3D

 42 45  0  0  0  0  0  0  0  0999 V2000
    5.0027    1.8847   17.0519 H   0  0  0  0  0  0  0  0  0  0  0  0
    5.5097    1.2955   17.8113 C   0  0  0  0  0  0  0  0  0  0  0  0
    6.6508    0.6952   17.4391 N   0  0  0  0  0  0  0  0  0  0  0  0
    7.3010   -0.0194   18.3684 C   0  0  0  0  0  0  0  0  0  0  0  0
    8.2066   -0.5162   18.0237 H   0  0  0  0  0  0  0  0  0  0  0  0
    6.8541   -0.1836   19.6923 C   0  0  0  0  0  0  0  0  0  0  0  0
    7.6622   -0.8904   20.7086 C   0  0  0  0  0  0  0  0  0  0  0  0
    8.9537   -0.6902   21.0456 C   0  0  0  0  0  0  0  0  0  0  0  0
    9.6559   -0.0322   20.5577 H   0  0  0  0  0  0  0  0  0  0  0  0
    9.4243   -1.5448   22.4962 S   0  0  0  0  0  0  0  0  0  0  0  0
    7.8054   -2.1737   22.6490 C   0  0  0  0  0  0  0  0  0  0  0  0
    7.0930   -2.8981   23.4918 N   0  0  0  0  0  0  0  0  0  0  0  0
    5.8831   -2.9065   22.8554 C   0  0  0  0  0  0  0  0  0  0  0  0
    4.8090   -3.5233   23.3295 O   0  0  0  0  0  0  0  0  0  0  0  0
    4.8218   -3.9861   24.6861 C   0  0  0  0  0  0  0  0  0  0  0  0
    3.8308   -3.7483   25.0877 H   0  0  0  0  0  0  0  0  0  0  0  0
    5.5809   -3.4621   25.2778 H   0  0  0  0  0  0  0  0  0  0  0  0
    5.0912   -5.4953   24.6990 C   0  0  0  0  0  0  0  0  0  0  0  0
    4.2751   -5.9811   24.1457 H   0  0  0  0  0  0  0  0  0  0  0  0
    6.0059   -5.6659   24.1161 H   0  0  0  0  0  0  0  0  0  0  0  0
    5.2281   -6.1145   26.0056 N   0  0  0  0  0  0  0  0  0  0  0  0
    4.1084   -5.9321   26.9234 C   0  0  0  0  0  0  0  0  0  0  0  0
    4.1447   -4.9510   27.4434 H   0  0  0  0  0  0  0  0  0  0  0  0
    3.1712   -5.9506   26.3541 H   0  0  0  0  0  0  0  0  0  0  0  0
    4.0984   -7.0640   27.9744 C   0  0  0  0  0  0  0  0  0  0  0  0
    3.5062   -7.9045   27.5995 H   0  0  0  0  0  0  0  0  0  0  0  0
    3.5814   -6.6874   28.8660 H   0  0  0  0  0  0  0  0  0  0  0  0
    5.5227   -7.5608   28.3353 C   0  0  0  0  0  0  0  0  0  0  0  0
    5.7690   -8.4408   27.7262 H   0  0  0  0  0  0  0  0  0  0  0  0
    5.5556   -7.9043   29.3740 H   0  0  0  0  0  0  0  0  0  0  0  0
    6.5537   -6.4446   28.1002 C   0  0  0  0  0  0  0  0  0  0  0  0
    6.3232   -5.6045   28.7697 H   0  0  0  0  0  0  0  0  0  0  0  0
    7.5724   -6.7568   28.3536 H   0  0  0  0  0  0  0  0  0  0  0  0
    6.5367   -5.9283   26.6456 C   0  0  0  0  0  0  0  0  0  0  0  0
    7.2761   -6.4695   26.0422 H   0  0  0  0  0  0  0  0  0  0  0  0
    6.8664   -4.8697   26.6553 H   0  0  0  0  0  0  0  0  0  0  0  0
    5.7949   -2.2708   21.6987 N   0  0  0  0  0  0  0  0  0  0  0  0
    7.0542   -1.7560   21.6131 N   0  0  0  0  0  0  0  0  0  0  0  0
    5.6261    0.4106   20.0392 C   0  0  0  0  0  0  0  0  0  0  0  0
    5.2068    0.2451   21.0307 H   0  0  0  0  0  0  0  0  0  0  0  0
    4.9607    1.1796   19.0927 C   0  0  0  0  0  0  0  0  0  0  0  0
    4.0301    1.6779   19.3402 H   0  0  0  0  0  0  0  0  0  0  0  0
  1  2  1  0
  2  3  2  0
  3  4  1  0
  4  5  1  0
  4  6  2  0
  6  7  1  0
  7  8  2  0
  8  9  1  0
  8 10  1  0
 10 11  1  0
 11 12  2  0
 12 13  1  0
 13 14  1  0
 14 15  1  0
 15 16  1  0
 15 17  1  0
 15 18  1  0
 18 19  1  0
 18 20  1  0
 18 21  1  0
 21 22  1  0
 22 23  1  0
 22 24  1  0
 22 25  1  0
 25 26  1  0
 25 27  1  0
 25 28  1  0
 28 29  1  0
 28 30  1  0
 28 31  1  0
 31 32  1  0
 31 33  1  0
 31 34  1  0
 34 35  1  0
 34 36  1  0
 13 37  2  0
 37 38  1  0
  6 39  1  0
 39 40  1  0
 39 41  2  0
 41 42  1  0
 41  2  1  0
 38  7  1  0
 38 11  1  0
 34 21  1  0
M  END
>  <cnnaffinity>  (1) 
-5.20061

>  <filename>  (1) 
c1cncc(-c2csc3nc(OCCN4CCCCC4)nn23)c1

$$$$
