
     RDKit          3D

 22 23  0  0  0  0  0  0  0  0999 V2000
    4.9901    1.7849   16.9895 H   0  0  0  0  0  0  0  0  0  0  0  0
    5.4637    1.2731   17.8206 C   0  0  0  0  0  0  0  0  0  0  0  0
    6.6252    0.6512   17.5468 N   0  0  0  0  0  0  0  0  0  0  0  0
    7.2321    0.0168   18.5571 C   0  0  0  0  0  0  0  0  0  0  0  0
    8.1704   -0.4930   18.3547 H   0  0  0  0  0  0  0  0  0  0  0  0
    6.7106   -0.0218   19.8568 C   0  0  0  0  0  0  0  0  0  0  0  0
    7.2970   -0.6520   20.9706 N   0  0  0  0  0  0  0  0  0  0  0  0
    8.3804   -1.2369   20.7694 N   0  0  0  0  0  0  0  0  0  0  0  0
    8.8488   -1.8257   21.9800 C   0  0  0  0  0  0  0  0  0  0  0  0
    8.4486   -1.6537   23.1799 N   0  0  0  0  0  0  0  0  0  0  0  0
    9.3352   -2.4356   24.0193 C   0  0  0  0  0  0  0  0  0  0  0  0
    8.7848   -3.2720   24.4729 H   0  0  0  0  0  0  0  0  0  0  0  0
    9.7391   -1.8353   24.8486 H   0  0  0  0  0  0  0  0  0  0  0  0
   10.4556   -2.9629   23.0766 C   0  0  0  0  0  0  0  0  0  0  0  0
   10.6231   -4.0263   23.2639 H   0  0  0  0  0  0  0  0  0  0  0  0
   11.4014   -2.4401   23.2284 H   0  0  0  0  0  0  0  0  0  0  0  0
    9.9069   -2.6770   21.7585 N   0  0  0  0  0  0  0  0  0  0  0  0
   10.5193   -2.3040   21.0554 H   0  0  0  0  0  0  0  0  0  0  0  0
    5.4992    0.6184   20.1356 C   0  0  0  0  0  0  0  0  0  0  0  0
    5.1096    0.5810   21.1548 H   0  0  0  0  0  0  0  0  0  0  0  0
    4.8654    1.2784   19.0899 C   0  0  0  0  0  0  0  0  0  0  0  0
    3.9317    1.8025   19.2556 H   0  0  0  0  0  0  0  0  0  0  0  0
  1  2  1  0
  2  3  2  0
  3  4  1  0
  4  5  1  0
  4  6  2  0
  6  7  1  0
  7  8  2  3
  8  9  1  0
  9 10  2  0
 10 11  1  0
 11 12  1  0
 11 13  1  0
 11 14  1  0
 14 15  1  0
 14 16  1  0
 14 17  1  0
 17 18  1  0
  6 19  1  0
 19 20  1  0
 19 21  2  0
 21 22  1  0
 21  2  1  0
 17  9  1  0
M  END
>  <cnnaffinity>  (1) 
-4.29279

>  <filename>  (1) 
c1cncc(N=NC2=NCCN2)c1

$$$$
