
     RDKit          3D

 34 36  0  0  0  0  0  0  0  0999 V2000
    5.0075    1.8468   16.9628 H   0  0  0  0  0  0  0  0  0  0  0  0
    5.4404    1.3126   17.8037 C   0  0  0  0  0  0  0  0  0  0  0  0
    6.5786    0.6458   17.5557 N   0  0  0  0  0  0  0  0  0  0  0  0
    7.1171   -0.0385   18.5729 C   0  0  0  0  0  0  0  0  0  0  0  0
    8.0324   -0.5921   18.3471 H   0  0  0  0  0  0  0  0  0  0  0  0
    6.5741   -0.1032   19.8653 C   0  0  0  0  0  0  0  0  0  0  0  0
    7.2172   -0.9456   20.9422 C   0  0  0  0  0  0  0  0  0  0  0  0
    6.4422   -1.5153   21.4757 H   0  0  0  0  0  0  0  0  0  0  0  0
    7.9040   -1.6801   20.5007 H   0  0  0  0  0  0  0  0  0  0  0  0
    8.0733   -0.0123   22.2701 S   0  0  0  0  0  0  0  0  0  0  0  0
    9.5144    0.6489   21.3713 C   0  0  0  0  0  0  0  0  0  0  0  0
   10.1418   -0.1617   21.0028 H   0  0  0  0  0  0  0  0  0  0  0  0
    9.1269    1.1898   20.5001 H   0  0  0  0  0  0  0  0  0  0  0  0
   10.3268    1.6165   22.2029 C   0  0  0  0  0  0  0  0  0  0  0  0
   11.6088    1.3153   22.7689 C   0  0  0  0  0  0  0  0  0  0  0  0
   11.9902    0.2975   22.7168 H   0  0  0  0  0  0  0  0  0  0  0  0
   12.3795    2.3013   23.3583 C   0  0  0  0  0  0  0  0  0  0  0  0
   13.3507    2.0564   23.7850 H   0  0  0  0  0  0  0  0  0  0  0  0
   11.9312    3.6635   23.3964 C   0  0  0  0  0  0  0  0  0  0  0  0
   12.7067    4.7682   23.8837 C   0  0  0  0  0  0  0  0  0  0  0  0
   13.7214    4.5950   24.2385 H   0  0  0  0  0  0  0  0  0  0  0  0
   12.1806    6.0419   23.8947 C   0  0  0  0  0  0  0  0  0  0  0  0
   12.7686    6.8715   24.2749 H   0  0  0  0  0  0  0  0  0  0  0  0
   10.8620    6.2917   23.4167 C   0  0  0  0  0  0  0  0  0  0  0  0
   10.4386    7.2861   23.4359 H   0  0  0  0  0  0  0  0  0  0  0  0
   10.1079    5.2623   22.9222 C   0  0  0  0  0  0  0  0  0  0  0  0
    9.1146    5.4258   22.5096 H   0  0  0  0  0  0  0  0  0  0  0  0
   10.6207    3.9391   22.8935 C   0  0  0  0  0  0  0  0  0  0  0  0
    9.8487    2.8960   22.3211 C   0  0  0  0  0  0  0  0  0  0  0  0
    8.8639    3.1474   21.9310 H   0  0  0  0  0  0  0  0  0  0  0  0
    5.3919    0.6184   20.1032 C   0  0  0  0  0  0  0  0  0  0  0  0
    4.9437    0.6151   21.0987 H   0  0  0  0  0  0  0  0  0  0  0  0
    4.8127    1.3302   19.0537 C   0  0  0  0  0  0  0  0  0  0  0  0
    3.8891    1.8863   19.1887 H   0  0  0  0  0  0  0  0  0  0  0  0
  1  2  1  0
  2  3  2  0
  3  4  1  0
  4  5  1  0
  4  6  2  0
  6  7  1  0
  7  8  1  0
  7  9  1  0
  7 10  1  0
 10 11  1  0
 11 12  1  0
 11 13  1  0
 11 14  1  0
 14 15  2  0
 15 16  1  0
 15 17  1  0
 17 18  1  0
 17 19  2  0
 19 20  1  0
 20 21  1  0
 20 22  2  0
 22 23  1  0
 22 24  1  0
 24 25  1  0
 24 26  2  0
 26 27  1  0
 26 28  1  0
 28 29  2  0
 29 30  1  0
  6 31  1  0
 31 32  1  0
 31 33  2  0
 33 34  1  0
 33  2  1  0
 29 14  1  0
 28 19  1  0
M  END
>  <cnnaffinity>  (1) 
-4.65641

>  <filename>  (1) 
c1cncc(CSCc2ccc3ccccc3c2)c1

$$$$
