
     RDKit          3D

 29 32  0  0  0  0  0  0  0  0999 V2000
    4.9615    1.8359   16.9462 H   0  0  0  0  0  0  0  0  0  0  0  0
    5.4084    1.3020   17.7790 C   0  0  0  0  0  0  0  0  0  0  0  0
    6.5601    0.6656   17.5215 N   0  0  0  0  0  0  0  0  0  0  0  0
    7.1464    0.0090   18.5278 C   0  0  0  0  0  0  0  0  0  0  0  0
    8.1002   -0.4629   18.2967 H   0  0  0  0  0  0  0  0  0  0  0  0
    6.6165   -0.0517   19.8312 C   0  0  0  0  0  0  0  0  0  0  0  0
    7.3759   -0.6858   20.9281 C   0  0  0  0  0  0  0  0  0  0  0  0
    8.4896   -1.3997   20.7038 N   0  0  0  0  0  0  0  0  0  0  0  0
    8.9175   -1.6839   21.9497 N   0  0  0  0  0  0  0  0  0  0  0  0
   10.0753   -2.2424   22.4701 C   0  0  0  0  0  0  0  0  0  0  0  0
   10.8112   -2.6469   21.7931 H   0  0  0  0  0  0  0  0  0  0  0  0
    9.9926   -2.0770   23.8155 C   0  0  0  0  0  0  0  0  0  0  0  0
   10.6781   -2.3523   24.6024 H   0  0  0  0  0  0  0  0  0  0  0  0
    8.7887   -1.4454   24.1349 N   0  0  0  0  0  0  0  0  0  0  0  0
    8.3686   -1.0057   25.4022 C   0  0  0  0  0  0  0  0  0  0  0  0
    7.0519   -0.6350   25.7779 C   0  0  0  0  0  0  0  0  0  0  0  0
    6.1603   -0.7157   25.1787 H   0  0  0  0  0  0  0  0  0  0  0  0
    7.0170   -0.1263   27.0005 N   0  0  0  0  0  0  0  0  0  0  0  0
    8.2871   -0.1754   27.4195 N   0  0  0  0  0  0  0  0  0  0  0  0
    8.5215    0.1945   28.3301 H   0  0  0  0  0  0  0  0  0  0  0  0
    9.1355   -0.6980   26.5058 C   0  0  0  0  0  0  0  0  0  0  0  0
   10.2003   -0.7459   26.6738 H   0  0  0  0  0  0  0  0  0  0  0  0
    8.1357   -1.1881   22.9331 C   0  0  0  0  0  0  0  0  0  0  0  0
    7.0876   -0.5331   22.3052 C   0  0  0  0  0  0  0  0  0  0  0  0
    6.2638    0.0316   22.7045 H   0  0  0  0  0  0  0  0  0  0  0  0
    5.4028    0.6189   20.0749 C   0  0  0  0  0  0  0  0  0  0  0  0
    4.9604    0.6445   21.0720 H   0  0  0  0  0  0  0  0  0  0  0  0
    4.7907    1.3037   19.0327 C   0  0  0  0  0  0  0  0  0  0  0  0
    3.8712    1.8559   19.1868 H   0  0  0  0  0  0  0  0  0  0  0  0
  1  2  1  0
  2  3  2  0
  3  4  1  0
  4  5  1  0
  4  6  2  0
  6  7  1  0
  7  8  2  0
  8  9  1  0
  9 10  1  0
 10 11  1  0
 10 12  2  0
 12 13  1  0
 12 14  1  0
 14 15  1  0
 15 16  1  0
 16 17  1  0
 16 18  2  0
 18 19  1  0
 19 20  1  0
 19 21  1  0
 21 22  1  0
 14 23  1  0
 23 24  2  0
 24 25  1  0
  6 26  1  0
 26 27  1  0
 26 28  2  0
 28 29  1  0
 28  2  1  0
 24  7  1  0
 23  9  1  0
 21 15  2  0
M  END
>  <cnnaffinity>  (1) 
-5.40294

>  <filename>  (1) 
c1cncc(-c2cc3n(-c4cn[nH]c4)ccn3n2)c1

$$$$
