
     RDKit          3D

 41 45  0  0  0  0  0  0  0  0999 V2000
    4.9217    1.8431   16.9118 H   0  0  0  0  0  0  0  0  0  0  0  0
    5.4119    1.3354   17.7412 C   0  0  0  0  0  0  0  0  0  0  0  0
    6.5663    0.7190   17.4525 N   0  0  0  0  0  0  0  0  0  0  0  0
    7.2023    0.1076   18.4594 C   0  0  0  0  0  0  0  0  0  0  0  0
    8.1343   -0.3948   18.1994 H   0  0  0  0  0  0  0  0  0  0  0  0
    6.7446    0.0690   19.7880 C   0  0  0  0  0  0  0  0  0  0  0  0
    7.5207   -0.6297   20.8841 C   0  0  1  0  0  0  0  0  0  0  0  0
    8.4621   -1.0046   20.4679 H   0  0  0  0  0  0  0  0  0  0  0  0
    7.8880    0.3216   22.0739 C   0  0  0  0  0  0  0  0  0  0  0  0
    7.3862    1.2931   22.0103 H   0  0  0  0  0  0  0  0  0  0  0  0
    8.9532    0.5574   22.1032 H   0  0  0  0  0  0  0  0  0  0  0  0
    7.4289   -0.4448   23.2726 C   0  0  0  0  0  0  0  0  0  0  0  0
    7.3925   -0.1752   24.5620 N   0  0  0  0  0  0  0  0  0  0  0  0
    6.7697   -1.2606   25.0862 N   0  0  0  0  0  0  0  0  0  0  0  0
    6.4094   -1.1943   26.0290 H   0  0  0  0  0  0  0  0  0  0  0  0
    6.3871   -2.1806   24.1542 C   0  0  0  0  0  0  0  0  0  0  0  0
    5.6768   -3.4292   24.4546 C   0  0  0  0  0  0  0  0  0  0  0  0
    4.7765   -3.9427   23.5024 C   0  0  0  0  0  0  0  0  0  0  0  0
    4.5692   -3.3774   22.5978 H   0  0  0  0  0  0  0  0  0  0  0  0
    4.1183   -5.1529   23.7221 C   0  0  0  0  0  0  0  0  0  0  0  0
    3.4335   -5.5923   23.0042 H   0  0  0  0  0  0  0  0  0  0  0  0
    4.3515   -5.8635   24.8982 C   0  0  0  0  0  0  0  0  0  0  0  0
    5.2499   -5.3413   25.8642 C   0  0  0  0  0  0  0  0  0  0  0  0
    5.8941   -4.1350   25.6524 C   0  0  0  0  0  0  0  0  0  0  0  0
    6.5690   -3.7917   26.4311 H   0  0  0  0  0  0  0  0  0  0  0  0
    5.4989   -5.9959   27.0424 O   0  0  0  0  0  0  0  0  0  0  0  0
    5.2248   -7.3929   26.9649 C   0  0  0  0  0  0  0  0  0  0  0  0
    5.3240   -7.8036   27.9663 H   0  0  0  0  0  0  0  0  0  0  0  0
    5.9788   -7.8421   26.3150 H   0  0  0  0  0  0  0  0  0  0  0  0
    3.8221   -7.6014   26.4035 C   0  0  0  0  0  0  0  0  0  0  0  0
    3.5482   -8.6506   26.2986 H   0  0  0  0  0  0  0  0  0  0  0  0
    3.1051   -7.0825   27.0544 H   0  0  0  0  0  0  0  0  0  0  0  0
    3.7340   -7.0716   25.0768 O   0  0  0  0  0  0  0  0  0  0  0  0
    6.8322   -1.6619   22.9530 C   0  0  0  0  0  0  0  0  0  0  0  0
    6.7444   -1.8580   21.4736 C   0  0  0  0  0  0  0  0  0  0  0  0
    5.7004   -1.8668   21.1345 H   0  0  0  0  0  0  0  0  0  0  0  0
    7.1592   -2.8067   21.1182 H   0  0  0  0  0  0  0  0  0  0  0  0
    5.5182    0.6961   20.0556 C   0  0  0  0  0  0  0  0  0  0  0  0
    5.1020    0.6777   21.0659 H   0  0  0  0  0  0  0  0  0  0  0  0
    4.8416    1.3428   19.0192 C   0  0  0  0  0  0  0  0  0  0  0  0
    3.9003    1.8534   19.1883 H   0  0  0  0  0  0  0  0  0  0  0  0
  1  2  1  0
  2  3  2  0
  3  4  1  0
  4  5  1  0
  4  6  2  0
  6  7  1  0
  7  8  1  6
  7  9  1  0
  9 10  1  0
  9 11  1  0
  9 12  1  0
 12 13  2  0
 13 14  1  0
 14 15  1  0
 14 16  1  0
 16 17  1  0
 17 18  2  0
 18 19  1  0
 18 20  1  0
 20 21  1  0
 20 22  2  0
 22 23  1  0
 23 24  2  0
 24 25  1  0
 23 26  1  0
 26 27  1  0
 27 28  1  0
 27 29  1  0
 27 30  1  0
 30 31  1  0
 30 32  1  0
 30 33  1  0
 16 34  2  0
 34 35  1  0
 35 36  1  0
 35 37  1  0
  6 38  1  0
 38 39  1  0
 38 40  2  0
 40 41  1  0
 40  2  1  0
 35  7  1  0
 34 12  1  0
 24 17  1  0
 33 22  1  0
M  END
>  <cnnaffinity>  (1) 
-5.44464

>  <filename>  (1) 
c1cncc([C@H]2Cc3n[nH]c(-c4ccc5c(c4)OCCO5)c3C2)c1

$$$$
