
     RDKit          3D

 34 38  0  0  0  0  0  0  0  0999 V2000
    4.9570    1.7889   16.9842 H   0  0  0  0  0  0  0  0  0  0  0  0
    5.4044    1.2848   17.8353 C   0  0  0  0  0  0  0  0  0  0  0  0
    6.5684    0.6596   17.6016 N   0  0  0  0  0  0  0  0  0  0  0  0
    7.1672    0.0767   18.6435 C   0  0  0  0  0  0  0  0  0  0  0  0
    8.1156   -0.4136   18.4122 H   0  0  0  0  0  0  0  0  0  0  0  0
    6.6559    0.0879   19.9598 C   0  0  0  0  0  0  0  0  0  0  0  0
    7.4235   -0.5965   21.0218 C   0  0  0  0  0  0  0  0  0  0  0  0
    8.2791   -1.6267   20.8615 C   0  0  0  0  0  0  0  0  0  0  0  0
    8.6866   -1.9933   19.9421 H   0  0  0  0  0  0  0  0  0  0  0  0
    8.8685   -2.3088   22.3479 S   0  0  0  0  0  0  0  0  0  0  0  0
    8.0892   -1.0259   23.2113 C   0  0  0  0  0  0  0  0  0  0  0  0
    8.1189   -0.5134   24.4139 N   0  0  0  0  0  0  0  0  0  0  0  0
    7.3426    0.6004   24.2600 C   0  0  0  0  0  0  0  0  0  0  0  0
    7.0971    1.5299   25.3657 C   0  0  0  0  0  0  0  0  0  0  0  0
    7.7157    1.3303   26.6042 C   0  0  0  0  0  0  0  0  0  0  0  0
    8.3881    0.4851   26.7362 H   0  0  0  0  0  0  0  0  0  0  0  0
    7.4830    2.2074   27.6756 C   0  0  0  0  0  0  0  0  0  0  0  0
    7.9781    2.0177   28.6234 H   0  0  0  0  0  0  0  0  0  0  0  0
    6.6321    3.3039   27.5490 C   0  0  0  0  0  0  0  0  0  0  0  0
    6.4552    3.9761   28.3829 H   0  0  0  0  0  0  0  0  0  0  0  0
    6.0127    3.5086   26.3099 C   0  0  0  0  0  0  0  0  0  0  0  0
    6.2351    2.6487   25.2058 C   0  0  0  0  0  0  0  0  0  0  0  0
    5.4688    3.1734   24.1121 C   0  0  0  0  0  0  0  0  0  0  0  0
    5.4401    2.7732   23.1117 H   0  0  0  0  0  0  0  0  0  0  0  0
    4.8214    4.2752   24.5666 C   0  0  0  0  0  0  0  0  0  0  0  0
    4.1499    4.9335   24.0352 H   0  0  0  0  0  0  0  0  0  0  0  0
    5.1376    4.4856   25.8887 N   0  0  0  0  0  0  0  0  0  0  0  0
    4.8033    5.2566   26.4420 H   0  0  0  0  0  0  0  0  0  0  0  0
    6.8479    0.7884   23.0348 N   0  0  0  0  0  0  0  0  0  0  0  0
    7.3333   -0.2798   22.3756 N   0  0  0  0  0  0  0  0  0  0  0  0
    5.4091    0.7092   20.1668 C   0  0  0  0  0  0  0  0  0  0  0  0
    4.9507    0.7075   21.1562 H   0  0  0  0  0  0  0  0  0  0  0  0
    4.7801    1.3195   19.0836 C   0  0  0  0  0  0  0  0  0  0  0  0
    3.8314    1.8353   19.1929 H   0  0  0  0  0  0  0  0  0  0  0  0
  1  2  1  0
  2  3  2  0
  3  4  1  0
  4  5  1  0
  4  6  2  0
  6  7  1  0
  7  8  2  0
  8  9  1  0
  8 10  1  0
 10 11  1  0
 11 12  2  0
 12 13  1  0
 13 14  1  0
 14 15  2  0
 15 16  1  0
 15 17  1  0
 17 18  1  0
 17 19  2  0
 19 20  1  0
 19 21  1  0
 21 22  2  0
 22 23  1  0
 23 24  1  0
 23 25  2  0
 25 26  1  0
 25 27  1  0
 27 28  1  0
 13 29  2  0
 29 30  1  0
  6 31  1  0
 31 32  1  0
 31 33  2  0
 33 34  1  0
 33  2  1  0
 30  7  1  0
 30 11  1  0
 22 14  1  0
 27 21  1  0
M  END
>  <cnnaffinity>  (1) 
-5.36301

>  <filename>  (1) 
c1cncc(-c2csc3nc(-c4cccc5[nH]ccc45)nn23)c1

$$$$
