
     RDKit          3D

 31 34  0  0  0  0  0  0  0  0999 V2000
    4.9171    1.7789   16.9992 H   0  0  0  0  0  0  0  0  0  0  0  0
    5.4061    1.2926   17.8428 C   0  0  0  0  0  0  0  0  0  0  0  0
    6.5752    0.6780   17.5900 N   0  0  0  0  0  0  0  0  0  0  0  0
    7.1798    0.0474   18.5982 C   0  0  0  0  0  0  0  0  0  0  0  0
    8.1269   -0.4402   18.3818 H   0  0  0  0  0  0  0  0  0  0  0  0
    6.6521   -0.0072   19.8991 C   0  0  0  0  0  0  0  0  0  0  0  0
    7.3599   -0.6940   20.9280 N   0  0  0  0  0  0  0  0  0  0  0  0
    7.8736   -1.9240   20.7271 N   0  0  0  0  0  0  0  0  0  0  0  0
    8.3829   -2.3388   21.8404 N   0  0  0  0  0  0  0  0  0  0  0  0
    8.2065   -1.3811   22.7814 C   0  0  0  0  0  0  0  0  0  0  0  0
    8.5780   -1.4643   23.7901 H   0  0  0  0  0  0  0  0  0  0  0  0
    7.5654   -0.3005   22.2205 C   0  0  0  0  0  0  0  0  0  0  0  0
    7.2749    1.0030   22.7544 C   0  0  0  0  0  0  0  0  0  0  0  0
    7.3937    2.2186   22.1317 C   0  0  0  0  0  0  0  0  0  0  0  0
    7.6835    2.4158   21.1011 H   0  0  0  0  0  0  0  0  0  0  0  0
    7.0945    3.2068   23.0347 N   0  0  0  0  0  0  0  0  0  0  0  0
    7.0983    4.1934   22.8540 H   0  0  0  0  0  0  0  0  0  0  0  0
    6.7818    2.6457   24.2480 C   0  0  0  0  0  0  0  0  0  0  0  0
    6.4141    3.2538   25.4568 C   0  0  0  0  0  0  0  0  0  0  0  0
    6.3475    4.3383   25.5158 H   0  0  0  0  0  0  0  0  0  0  0  0
    6.1430    2.4170   26.5353 C   0  0  0  0  0  0  0  0  0  0  0  0
    5.8537    2.8579   27.4844 H   0  0  0  0  0  0  0  0  0  0  0  0
    6.2317    1.0024   26.4181 C   0  0  0  0  0  0  0  0  0  0  0  0
    6.0076    0.3757   27.2774 H   0  0  0  0  0  0  0  0  0  0  0  0
    6.5947    0.4118   25.2137 C   0  0  0  0  0  0  0  0  0  0  0  0
    6.6487   -0.6706   25.1044 H   0  0  0  0  0  0  0  0  0  0  0  0
    6.8842    1.2492   24.1126 C   0  0  0  0  0  0  0  0  0  0  0  0
    5.4350    0.6356   20.1626 C   0  0  0  0  0  0  0  0  0  0  0  0
    5.0020    0.6307   21.1663 H   0  0  0  0  0  0  0  0  0  0  0  0
    4.8080    1.3027   19.1077 C   0  0  0  0  0  0  0  0  0  0  0  0
    3.8767    1.8403   19.2629 H   0  0  0  0  0  0  0  0  0  0  0  0
  1  2  1  0
  2  3  2  0
  3  4  1  0
  4  5  1  0
  4  6  2  0
  6  7  1  0
  7  8  1  0
  8  9  2  0
  9 10  1  0
 10 11  1  0
 10 12  2  0
 12 13  1  0
 13 14  2  0
 14 15  1  0
 14 16  1  0
 16 17  1  0
 16 18  1  0
 18 19  2  0
 19 20  1  0
 19 21  1  0
 21 22  1  0
 21 23  2  0
 23 24  1  0
 23 25  1  0
 25 26  1  0
 25 27  2  0
  6 28  1  0
 28 29  1  0
 28 30  2  0
 30 31  1  0
 30  2  1  0
 12  7  1  0
 27 13  1  0
 27 18  1  0
M  END
>  <cnnaffinity>  (1) 
-5.37085

>  <filename>  (1) 
c1cncc(-n2nncc2-c2c[nH]c3ccccc23)c1

$$$$
