
     RDKit          3D

 37 40  0  0  0  0  0  0  0  0999 V2000
    4.9646    1.7806   16.9605 H   0  0  0  0  0  0  0  0  0  0  0  0
    5.4150    1.3514   17.8527 C   0  0  0  0  0  0  0  0  0  0  0  0
    6.6179    0.7829   17.6843 N   0  0  0  0  0  0  0  0  0  0  0  0
    7.1872    0.2345   18.7636 C   0  0  0  0  0  0  0  0  0  0  0  0
    8.1496   -0.2444   18.5792 H   0  0  0  0  0  0  0  0  0  0  0  0
    6.6202    0.2035   20.0562 C   0  0  0  0  0  0  0  0  0  0  0  0
    7.3552   -0.5049   21.2040 C   0  0  0  0  0  0  0  0  0  0  0  0
    8.3066    0.4130   21.9893 C   0  0  0  0  0  0  0  0  0  0  0  0
    9.2605   -0.1549   22.9056 C   0  0  0  0  0  0  0  0  0  0  0  0
    9.2553   -1.2260   23.0913 H   0  0  0  0  0  0  0  0  0  0  0  0
   10.1720    0.6251   23.5768 C   0  0  0  0  0  0  0  0  0  0  0  0
   10.8832    0.1850   24.2731 H   0  0  0  0  0  0  0  0  0  0  0  0
   10.1872    2.0427   23.4099 C   0  0  0  0  0  0  0  0  0  0  0  0
   11.1868    2.8858   23.9982 C   0  0  0  0  0  0  0  0  0  0  0  0
   12.0251    2.4213   24.5133 H   0  0  0  0  0  0  0  0  0  0  0  0
   11.0943    4.2572   23.8902 C   0  0  0  0  0  0  0  0  0  0  0  0
   11.8559    4.9092   24.3128 H   0  0  0  0  0  0  0  0  0  0  0  0
   10.0111    4.8463   23.1765 C   0  0  0  0  0  0  0  0  0  0  0  0
    9.9125    5.9278   23.1581 H   0  0  0  0  0  0  0  0  0  0  0  0
    9.0814    4.0581   22.5399 C   0  0  0  0  0  0  0  0  0  0  0  0
    8.2665    4.5107   21.9815 H   0  0  0  0  0  0  0  0  0  0  0  0
    9.1634    2.6355   22.6075 C   0  0  0  0  0  0  0  0  0  0  0  0
    8.2657    1.7936   21.8856 C   0  0  0  0  0  0  0  0  0  0  0  0
    7.5346    2.2728   21.2401 H   0  0  0  0  0  0  0  0  0  0  0  0
    6.4283   -1.4072   22.0994 C   0  0  0  0  0  0  0  0  0  0  0  0
    5.4439   -1.5029   21.6313 H   0  0  0  0  0  0  0  0  0  0  0  0
    6.3065   -1.1016   23.1443 H   0  0  0  0  0  0  0  0  0  0  0  0
    7.2824   -2.6632   21.8000 C   0  0  0  0  0  0  0  0  0  0  0  0
    6.7258   -3.5347   21.4350 H   0  0  0  0  0  0  0  0  0  0  0  0
    7.9262   -2.9906   22.6234 H   0  0  0  0  0  0  0  0  0  0  0  0
    7.9891   -1.8462   20.7021 C   0  0  0  0  0  0  0  0  0  0  0  0
    9.0799   -1.8913   20.5847 H   0  0  0  0  0  0  0  0  0  0  0  0
    7.4939   -2.0673   19.7597 H   0  0  0  0  0  0  0  0  0  0  0  0
    5.3680    0.8192   20.2031 C   0  0  0  0  0  0  0  0  0  0  0  0
    4.8799    0.8381   21.1793 H   0  0  0  0  0  0  0  0  0  0  0  0
    4.7532    1.3944   19.0843 C   0  0  0  0  0  0  0  0  0  0  0  0
    3.7837    1.8763   19.1538 H   0  0  0  0  0  0  0  0  0  0  0  0
  1  2  1  0
  2  3  2  0
  3  4  1  0
  4  5  1  0
  4  6  2  0
  6  7  1  0
  7  8  1  0
  8  9  2  0
  9 10  1  0
  9 11  1  0
 11 12  1  0
 11 13  2  0
 13 14  1  0
 14 15  1  0
 14 16  2  0
 16 17  1  0
 16 18  1  0
 18 19  1  0
 18 20  2  0
 20 21  1  0
 20 22  1  0
 22 23  2  0
 23 24  1  0
  7 25  1  0
 25 26  1  0
 25 27  1  0
 25 28  1  0
 28 29  1  0
 28 30  1  0
 28 31  1  0
 31 32  1  0
 31 33  1  0
  6 34  1  0
 34 35  1  0
 34 36  2  0
 36 37  1  0
 36  2  1  0
 31  7  1  0
 23  8  1  0
 22 13  1  0
M  END
>  <cnnaffinity>  (1) 
-5.13287

>  <filename>  (1) 
c1cncc(C2(c3ccc4ccccc4c3)CCC2)c1

$$$$
