
     RDKit          3D

 28 30  0  0  0  0  0  0  0  0999 V2000
    4.9747    1.8402   16.9744 H   0  0  0  0  0  0  0  0  0  0  0  0
    5.4312    1.3018   17.8011 C   0  0  0  0  0  0  0  0  0  0  0  0
    6.5862    0.6685   17.5331 N   0  0  0  0  0  0  0  0  0  0  0  0
    7.1736    0.0171   18.5470 C   0  0  0  0  0  0  0  0  0  0  0  0
    8.0986   -0.5069   18.3138 H   0  0  0  0  0  0  0  0  0  0  0  0
    6.6601   -0.0301   19.8665 C   0  0  0  0  0  0  0  0  0  0  0  0
    7.2605   -0.7321   20.9179 N   0  0  0  0  0  0  0  0  0  0  0  0
    6.9350   -0.4388   21.8425 H   0  0  0  0  0  0  0  0  0  0  0  0
    8.6234   -0.9827   20.8057 N   0  0  0  0  0  0  0  0  0  0  0  0
    9.1916   -0.1407   20.7601 H   0  0  0  0  0  0  0  0  0  0  0  0
    9.2089   -1.9027   21.6853 C   0  0  0  0  0  0  0  0  0  0  0  0
   10.6241   -1.7726   21.8220 C   0  0  0  0  0  0  0  0  0  0  0  0
   11.1217   -1.0077   21.2298 H   0  0  0  0  0  0  0  0  0  0  0  0
   11.3390   -2.5831   22.6712 C   0  0  0  0  0  0  0  0  0  0  0  0
   12.4183   -2.5431   22.7048 H   0  0  0  0  0  0  0  0  0  0  0  0
   10.6188   -3.5165   23.4469 C   0  0  0  0  0  0  0  0  0  0  0  0
    9.2309   -3.7127   23.2771 C   0  0  0  0  0  0  0  0  0  0  0  0
    8.9354   -4.7954   24.1683 C   0  0  0  0  0  0  0  0  0  0  0  0
    7.9787   -5.2794   24.3349 H   0  0  0  0  0  0  0  0  0  0  0  0
   10.0130   -5.1968   24.8150 N   0  0  0  0  0  0  0  0  0  0  0  0
   11.0282   -4.4086   24.3878 N   0  0  0  0  0  0  0  0  0  0  0  0
   11.9648   -4.5309   24.7534 H   0  0  0  0  0  0  0  0  0  0  0  0
    8.5073   -2.8857   22.3711 C   0  0  0  0  0  0  0  0  0  0  0  0
    7.4354   -2.9765   22.2146 H   0  0  0  0  0  0  0  0  0  0  0  0
    5.4447    0.6234   20.1178 C   0  0  0  0  0  0  0  0  0  0  0  0
    5.0243    0.6048   21.1285 H   0  0  0  0  0  0  0  0  0  0  0  0
    4.8217    1.2929   19.0648 C   0  0  0  0  0  0  0  0  0  0  0  0
    3.8830    1.8144   19.2207 H   0  0  0  0  0  0  0  0  0  0  0  0
  1  2  1  0
  2  3  2  0
  3  4  1  0
  4  5  1  0
  4  6  2  0
  6  7  1  0
  7  8  1  0
  7  9  1  0
  9 10  1  0
  9 11  1  0
 11 12  2  0
 12 13  1  0
 12 14  1  0
 14 15  1  0
 14 16  2  0
 16 17  1  0
 17 18  1  0
 18 19  1  0
 18 20  2  0
 20 21  1  0
 21 22  1  0
 17 23  2  0
 23 24  1  0
  6 25  1  0
 25 26  1  0
 25 27  2  0
 27 28  1  0
 27  2  1  0
 23 11  1  0
 21 16  1  0
M  END
>  <cnnaffinity>  (1) 
-4.98026

>  <filename>  (1) 
c1cncc(NNc2ccc3[nH]ncc3c2)c1

$$$$
