
     RDKit          3D

 45 47  0  0  0  0  0  0  0  0999 V2000
    4.9183    1.7931   16.9875 H   0  0  0  0  0  0  0  0  0  0  0  0
    5.3985    1.3019   17.8303 C   0  0  0  0  0  0  0  0  0  0  0  0
    6.5564    0.6830   17.5646 N   0  0  0  0  0  0  0  0  0  0  0  0
    7.1625    0.0674   18.5925 C   0  0  0  0  0  0  0  0  0  0  0  0
    8.1081   -0.4201   18.3563 H   0  0  0  0  0  0  0  0  0  0  0  0
    6.6605    0.0046   19.9076 C   0  0  0  0  0  0  0  0  0  0  0  0
    7.4019   -0.7218   21.0020 C   0  0  0  0  0  0  0  0  0  0  0  0
    6.6724   -1.1517   21.7052 H   0  0  0  0  0  0  0  0  0  0  0  0
    7.9514   -1.5716   20.5643 H   0  0  0  0  0  0  0  0  0  0  0  0
    8.4104    0.1350   21.8357 C   0  0  1  0  0  0  0  0  0  0  0  0
    9.1658   -0.7677   22.8359 C   0  0  0  0  0  0  0  0  0  0  0  0
    9.9170   -0.1273   23.3223 H   0  0  0  0  0  0  0  0  0  0  0  0
    9.7499   -1.5098   22.2683 H   0  0  0  0  0  0  0  0  0  0  0  0
    8.2901   -1.4621   23.8949 C   0  0  0  0  0  0  0  0  0  0  0  0
    7.2941   -0.9894   23.8955 H   0  0  0  0  0  0  0  0  0  0  0  0
    8.8498   -1.2793   25.3197 C   0  0  0  0  0  0  0  0  0  0  0  0
    9.8693   -1.6863   25.3471 H   0  0  0  0  0  0  0  0  0  0  0  0
    8.9442   -0.2080   25.5470 H   0  0  0  0  0  0  0  0  0  0  0  0
    7.9875   -1.9725   26.3803 C   0  0  0  0  0  0  0  0  0  0  0  0
    7.0101   -1.4714   26.4267 H   0  0  0  0  0  0  0  0  0  0  0  0
    8.4365   -1.8561   27.3736 H   0  0  0  0  0  0  0  0  0  0  0  0
    7.7747   -3.4582   26.0519 C   0  0  0  0  0  0  0  0  0  0  0  0
    7.1186   -3.9262   26.7953 H   0  0  0  0  0  0  0  0  0  0  0  0
    8.7400   -3.9785   26.1253 H   0  0  0  0  0  0  0  0  0  0  0  0
    7.2110   -3.6543   24.6350 C   0  0  0  0  0  0  0  0  0  0  0  0
    7.1145   -4.7214   24.4051 H   0  0  0  0  0  0  0  0  0  0  0  0
    6.1947   -3.2375   24.5918 H   0  0  0  0  0  0  0  0  0  0  0  0
    8.0798   -2.9572   23.5823 C   0  0  0  0  0  0  0  0  0  0  0  0
    9.0676   -3.4410   23.5468 H   0  0  0  0  0  0  0  0  0  0  0  0
    7.6545   -3.0817   22.5781 H   0  0  0  0  0  0  0  0  0  0  0  0
    9.4264    0.8693   20.9412 C   0  0  0  0  0  0  0  0  0  0  0  0
   10.3943    0.9973   21.4669 H   0  0  0  0  0  0  0  0  0  0  0  0
    9.6425    0.2982   20.0289 H   0  0  0  0  0  0  0  0  0  0  0  0
    8.7872    2.1348   20.6178 N   0  0  0  0  0  0  0  0  0  0  0  0
    9.4540    2.8631   20.3859 H   0  0  0  0  0  0  0  0  0  0  0  0
    7.8819    2.5710   21.6572 C   0  0  0  0  0  0  0  0  0  0  0  0
    8.2928    3.4280   22.2204 H   0  0  0  0  0  0  0  0  0  0  0  0
    6.9311    2.9128   21.2156 H   0  0  0  0  0  0  0  0  0  0  0  0
    7.7136    1.3299   22.5504 C   0  0  0  0  0  0  0  0  0  0  0  0
    6.6597    1.1372   22.7564 H   0  0  0  0  0  0  0  0  0  0  0  0
    8.1907    1.5103   23.5207 H   0  0  0  0  0  0  0  0  0  0  0  0
    5.4432    0.6544   20.1493 C   0  0  0  0  0  0  0  0  0  0  0  0
    5.0020    0.6368   21.1514 H   0  0  0  0  0  0  0  0  0  0  0  0
    4.8053    1.3184   19.0978 C   0  0  0  0  0  0  0  0  0  0  0  0
    3.8741    1.8443   19.2499 H   0  0  0  0  0  0  0  0  0  0  0  0
  1  2  1  0
  2  3  2  0
  3  4  1  0
  4  5  1  0
  4  6  2  0
  6  7  1  0
  7  8  1  0
  7  9  1  0
 10  7  1  6
 10 11  1  0
 11 12  1  0
 11 13  1  0
 11 14  1  0
 14 15  1  0
 14 16  1  0
 16 17  1  0
 16 18  1  0
 16 19  1  0
 19 20  1  0
 19 21  1  0
 19 22  1  0
 22 23  1  0
 22 24  1  0
 22 25  1  0
 25 26  1  0
 25 27  1  0
 25 28  1  0
 28 29  1  0
 28 30  1  0
 10 31  1  0
 31 32  1  0
 31 33  1  0
 31 34  1  0
 34 35  1  0
 34 36  1  0
 36 37  1  0
 36 38  1  0
 36 39  1  0
 39 40  1  0
 39 41  1  0
  6 42  1  0
 42 43  1  0
 42 44  2  0
 44 45  1  0
 44  2  1  0
 39 10  1  0
 28 14  1  0
M  END
>  <cnnaffinity>  (1) 
-5.3191

>  <filename>  (1) 
c1cncc(C[C@]2(CC3CCCCC3)CCNC2)c1

$$$$
