
     RDKit          3D

 31 34  0  0  0  0  0  0  0  0999 V2000
    4.9231    1.8104   16.9577 H   0  0  0  0  0  0  0  0  0  0  0  0
    5.3841    1.3145   17.8053 C   0  0  0  0  0  0  0  0  0  0  0  0
    6.5512    0.7002   17.5556 N   0  0  0  0  0  0  0  0  0  0  0  0
    7.1551    0.1126   18.5964 C   0  0  0  0  0  0  0  0  0  0  0  0
    8.1042   -0.3827   18.3852 H   0  0  0  0  0  0  0  0  0  0  0  0
    6.6559    0.1006   19.9213 C   0  0  0  0  0  0  0  0  0  0  0  0
    7.3791   -0.6021   21.0230 C   0  0  0  0  0  0  0  0  0  0  0  0
    7.7498   -1.9848   20.9823 C   0  0  0  0  0  0  0  0  0  0  0  0
    7.4575   -2.6405   20.1770 H   0  0  0  0  0  0  0  0  0  0  0  0
    8.3683   -2.4898   22.0110 N   0  0  0  0  0  0  0  0  0  0  0  0
    8.5397   -1.3103   23.1679 S   0  0  0  0  0  0  0  0  0  0  0  0
    7.6853   -0.1078   22.2765 C   0  0  0  0  0  0  0  0  0  0  0  0
    7.3253    1.1892   22.8319 C   0  0  0  0  0  0  0  0  0  0  0  0
    7.5928    2.3341   22.0737 C   0  0  0  0  0  0  0  0  0  0  0  0
    8.0004    2.2081   21.0717 H   0  0  0  0  0  0  0  0  0  0  0  0
    7.3059    3.6152   22.5769 C   0  0  0  0  0  0  0  0  0  0  0  0
    7.5275    4.4819   21.9591 H   0  0  0  0  0  0  0  0  0  0  0  0
    6.7263    3.7840   23.8333 C   0  0  0  0  0  0  0  0  0  0  0  0
    6.5057    4.7815   24.2122 H   0  0  0  0  0  0  0  0  0  0  0  0
    6.4342    2.6302   24.5832 C   0  0  0  0  0  0  0  0  0  0  0  0
    6.7083    1.3219   24.1106 C   0  0  0  0  0  0  0  0  0  0  0  0
    6.2131    0.4157   25.1149 C   0  0  0  0  0  0  0  0  0  0  0  0
    6.2011   -0.6630   25.0873 H   0  0  0  0  0  0  0  0  0  0  0  0
    5.7071    1.1652   26.1332 C   0  0  0  0  0  0  0  0  0  0  0  0
    5.2786    0.8438   27.0749 H   0  0  0  0  0  0  0  0  0  0  0  0
    5.8355    2.4990   25.8163 N   0  0  0  0  0  0  0  0  0  0  0  0
    5.5593    3.2684   26.3978 H   0  0  0  0  0  0  0  0  0  0  0  0
    5.4139    0.7260   20.1380 C   0  0  0  0  0  0  0  0  0  0  0  0
    4.9770    0.7193   21.1401 H   0  0  0  0  0  0  0  0  0  0  0  0
    4.7716    1.3438   19.0624 C   0  0  0  0  0  0  0  0  0  0  0  0
    3.8172    1.8455   19.1844 H   0  0  0  0  0  0  0  0  0  0  0  0
  1  2  1  0
  2  3  2  0
  3  4  1  0
  4  5  1  0
  4  6  2  0
  6  7  1  0
  7  8  1  0
  8  9  1  0
  8 10  2  0
 10 11  1  0
 11 12  1  0
 12 13  1  0
 13 14  2  0
 14 15  1  0
 14 16  1  0
 16 17  1  0
 16 18  2  0
 18 19  1  0
 18 20  1  0
 20 21  2  0
 21 22  1  0
 22 23  1  0
 22 24  2  0
 24 25  1  0
 24 26  1  0
 26 27  1  0
  6 28  1  0
 28 29  1  0
 28 30  2  0
 30 31  1  0
 30  2  1  0
 12  7  2  0
 21 13  1  0
 26 20  1  0
M  END
>  <cnnaffinity>  (1) 
-5.15446

>  <filename>  (1) 
c1cncc(-c2cnsc2-c2cccc3[nH]ccc23)c1

$$$$
