
     RDKit          3D

 39 42  0  0  0  0  0  0  0  0999 V2000
    5.4414    1.4345   16.3178 H   0  0  0  0  0  0  0  0  0  0  0  0
    5.6550    1.2141   17.3592 C   0  0  0  0  0  0  0  0  0  0  0  0
    6.8234    0.6017   17.6018 N   0  0  0  0  0  0  0  0  0  0  0  0
    7.1238    0.3407   18.8780 C   0  0  0  0  0  0  0  0  0  0  0  0
    8.0682   -0.1712   19.0625 H   0  0  0  0  0  0  0  0  0  0  0  0
    6.2859    0.6742   19.9494 C   0  0  0  0  0  0  0  0  0  0  0  0
    6.7363    0.3278   21.2910 C   0  0  0  0  0  0  0  0  0  0  0  0
    6.0068    0.5237   22.4210 N   0  0  0  0  0  0  0  0  0  0  0  0
    6.7866   -0.0149   23.3372 C   0  0  0  0  0  0  0  0  0  0  0  0
    6.7452   -0.4363   25.0311 S   0  0  0  0  0  0  0  0  0  0  0  0
    8.2530   -1.3276   24.8447 C   0  0  0  0  0  0  0  0  0  0  0  0
    8.6793   -1.8644   25.6844 H   0  0  0  0  0  0  0  0  0  0  0  0
    8.7388   -1.2748   23.5889 C   0  0  0  0  0  0  0  0  0  0  0  0
    9.9476   -1.8961   22.9769 C   0  0  0  0  0  0  0  0  0  0  0  0
   10.1771   -2.8109   23.5400 H   0  0  0  0  0  0  0  0  0  0  0  0
    9.7078   -2.2058   21.9511 H   0  0  0  0  0  0  0  0  0  0  0  0
   11.1927   -0.9861   22.9541 C   0  0  0  0  0  0  0  0  0  0  0  0
   11.4240   -0.7341   24.0066 H   0  0  0  0  0  0  0  0  0  0  0  0
   12.3436   -1.7571   22.2667 C   0  0  0  0  0  0  0  0  0  0  0  0
   12.4292   -2.7526   22.7219 H   0  0  0  0  0  0  0  0  0  0  0  0
   12.0213   -1.9695   21.2347 H   0  0  0  0  0  0  0  0  0  0  0  0
   13.6924   -0.9807   22.2211 C   0  0  0  0  0  0  0  0  0  0  0  0
   14.4877   -1.5038   22.7704 H   0  0  0  0  0  0  0  0  0  0  0  0
   14.0405   -0.9368   21.1818 H   0  0  0  0  0  0  0  0  0  0  0  0
   13.5715    0.4508   22.7820 C   0  0  0  0  0  0  0  0  0  0  0  0
   14.4853    1.0191   22.5634 H   0  0  0  0  0  0  0  0  0  0  0  0
   13.5198    0.3924   23.8786 H   0  0  0  0  0  0  0  0  0  0  0  0
   12.3215    1.2156   22.2792 C   0  0  0  0  0  0  0  0  0  0  0  0
   12.4979    1.6410   21.2837 H   0  0  0  0  0  0  0  0  0  0  0  0
   12.1661    2.0784   22.9412 H   0  0  0  0  0  0  0  0  0  0  0  0
   11.0196    0.3605   22.2337 C   0  0  0  0  0  0  0  0  0  0  0  0
   10.7184    0.1740   21.1912 H   0  0  0  0  0  0  0  0  0  0  0  0
   10.2009    0.9313   22.6845 H   0  0  0  0  0  0  0  0  0  0  0  0
    7.9206   -0.4859   22.7874 N   0  0  0  0  0  0  0  0  0  0  0  0
    7.9131   -0.2715   21.4532 N   0  0  0  0  0  0  0  0  0  0  0  0
    5.0546    1.2897   19.6891 C   0  0  0  0  0  0  0  0  0  0  0  0
    4.3699    1.5393   20.5037 H   0  0  0  0  0  0  0  0  0  0  0  0
    4.7421    1.5655   18.3602 C   0  0  0  0  0  0  0  0  0  0  0  0
    3.8168    2.0590   18.0874 H   0  0  0  0  0  0  0  0  0  0  0  0
  1  2  1  0
  2  3  2  0
  3  4  1  0
  4  5  1  0
  4  6  2  0
  6  7  1  0
  7  8  1  0
  8  9  2  0
  9 10  1  0
 10 11  1  0
 11 12  1  0
 11 13  2  0
 13 14  1  0
 14 15  1  0
 14 16  1  0
 14 17  1  0
 17 18  1  0
 17 19  1  0
 19 20  1  0
 19 21  1  0
 19 22  1  0
 22 23  1  0
 22 24  1  0
 22 25  1  0
 25 26  1  0
 25 27  1  0
 25 28  1  0
 28 29  1  0
 28 30  1  0
 28 31  1  0
 31 32  1  0
 31 33  1  0
 13 34  1  0
 34 35  1  0
  6 36  1  0
 36 37  1  0
 36 38  2  0
 38 39  1  0
 38  2  1  0
 35  7  2  0
 34  9  1  0
 31 17  1  0
M  END
>  <cnnaffinity>  (1) 
-5.83779

>  <filename>  (1) 
c1cncc(-c2nc3scc(CC4CCCCC4)n3n2)c1

$$$$
