
     RDKit          3D

 35 38  0  0  0  0  0  0  0  0999 V2000
    4.9271    1.7746   17.0010 H   0  0  0  0  0  0  0  0  0  0  0  0
    5.4102    1.2883   17.8466 C   0  0  0  0  0  0  0  0  0  0  0  0
    6.5764    0.6694   17.6018 N   0  0  0  0  0  0  0  0  0  0  0  0
    7.1760    0.0537   18.6245 C   0  0  0  0  0  0  0  0  0  0  0  0
    8.1168   -0.4391   18.3900 H   0  0  0  0  0  0  0  0  0  0  0  0
    6.6547    0.0314   19.9212 C   0  0  0  0  0  0  0  0  0  0  0  0
    7.3890   -0.7143   20.9533 C   0  0  0  0  0  0  0  0  0  0  0  0
    8.0140   -1.7985   20.6935 N   0  0  0  0  0  0  0  0  0  0  0  0
    8.5190   -2.3328   21.9555 C   0  0  0  0  0  0  0  0  0  0  0  0
    8.1437   -3.3490   22.1185 H   0  0  0  0  0  0  0  0  0  0  0  0
    9.6109   -2.3979   21.9099 H   0  0  0  0  0  0  0  0  0  0  0  0
    8.0520   -1.3728   23.0670 C   0  0  0  0  0  0  0  0  0  0  0  0
    8.8883   -0.9572   23.6421 H   0  0  0  0  0  0  0  0  0  0  0  0
    7.3642   -1.8506   23.7777 H   0  0  0  0  0  0  0  0  0  0  0  0
    7.3798   -0.3208   22.2971 N   0  0  0  0  0  0  0  0  0  0  0  0
    7.1700    0.9843   22.8293 C   0  0  0  0  0  0  0  0  0  0  0  0
    6.5661    1.1939   24.1341 C   0  0  0  0  0  0  0  0  0  0  0  0
    6.2708    0.3143   24.7053 H   0  0  0  0  0  0  0  0  0  0  0  0
    6.3307    2.3628   24.6961 N   0  0  0  0  0  0  0  0  0  0  0  0
    6.6947    3.4872   23.9833 C   0  0  0  0  0  0  0  0  0  0  0  0
    6.4678    4.7803   24.5435 C   0  0  0  0  0  0  0  0  0  0  0  0
    6.0070    4.8190   25.5229 H   0  0  0  0  0  0  0  0  0  0  0  0
    6.8207    5.9262   23.8586 C   0  0  0  0  0  0  0  0  0  0  0  0
    6.6460    6.9129   24.2838 H   0  0  0  0  0  0  0  0  0  0  0  0
    7.4282    5.8373   22.5764 C   0  0  0  0  0  0  0  0  0  0  0  0
    7.7078    6.7399   22.0317 H   0  0  0  0  0  0  0  0  0  0  0  0
    7.6752    4.6063   22.0215 C   0  0  0  0  0  0  0  0  0  0  0  0
    8.2095    4.5623   21.0841 H   0  0  0  0  0  0  0  0  0  0  0  0
    7.3101    3.4006   22.6905 C   0  0  0  0  0  0  0  0  0  0  0  0
    7.5521    2.1116   22.1273 C   0  0  0  0  0  0  0  0  0  0  0  0
    8.0092    2.0182   21.1421 H   0  0  0  0  0  0  0  0  0  0  0  0
    5.4238    0.6574   20.1633 C   0  0  0  0  0  0  0  0  0  0  0  0
    4.9912    0.6466   21.1676 H   0  0  0  0  0  0  0  0  0  0  0  0
    4.7997    1.3075   19.1056 C   0  0  0  0  0  0  0  0  0  0  0  0
    3.8703    1.8438   19.2556 H   0  0  0  0  0  0  0  0  0  0  0  0
  1  2  1  0
  2  3  2  0
  3  4  1  0
  4  5  1  0
  4  6  2  0
  6  7  1  0
  7  8  2  0
  8  9  1  0
  9 10  1  0
  9 11  1  0
  9 12  1  0
 12 13  1  0
 12 14  1  0
 12 15  1  0
 15 16  1  0
 16 17  2  0
 17 18  1  0
 17 19  1  0
 19 20  2  0
 20 21  1  0
 21 22  1  0
 21 23  2  0
 23 24  1  0
 23 25  1  0
 25 26  1  0
 25 27  2  0
 27 28  1  0
 27 29  1  0
 29 30  2  0
 30 31  1  0
  6 32  1  0
 32 33  1  0
 32 34  2  0
 34 35  1  0
 34  2  1  0
 15  7  1  0
 30 16  1  0
 29 20  1  0
M  END
>  <cnnaffinity>  (1) 
-5.23725

>  <filename>  (1) 
c1cncc(C2=NCCN2c2cnc3ccccc3c2)c1

$$$$
