
     RDKit          3D

 36 40  0  0  0  0  0  0  0  0999 V2000
    4.9255    1.7675   17.0452 H   0  0  0  0  0  0  0  0  0  0  0  0
    5.3996    1.3600   17.9348 C   0  0  0  0  0  0  0  0  0  0  0  0
    6.6210    0.8417   17.7499 N   0  0  0  0  0  0  0  0  0  0  0  0
    7.2288    0.3195   18.8175 C   0  0  0  0  0  0  0  0  0  0  0  0
    8.2097   -0.1056   18.6134 H   0  0  0  0  0  0  0  0  0  0  0  0
    6.6854    0.2593   20.1248 C   0  0  0  0  0  0  0  0  0  0  0  0
    7.4624   -0.4325   21.2230 C   0  0  0  0  0  0  0  0  0  0  0  0
    6.8790   -0.5333   22.6070 C   0  0  0  0  0  0  0  0  0  0  0  0
    6.8083   -1.6401   23.2892 N   0  0  0  0  0  0  0  0  0  0  0  0
    6.3538   -1.4632   24.5622 N   0  0  0  0  0  0  0  0  0  0  0  0
    6.1420   -0.2129   24.8612 C   0  0  0  0  0  0  0  0  0  0  0  0
    5.7649    0.2793   26.2066 C   0  0  0  0  0  0  0  0  0  0  0  0
    6.4084    1.2836   26.8613 C   0  0  0  0  0  0  0  0  0  0  0  0
    7.2717    1.8478   26.5162 H   0  0  0  0  0  0  0  0  0  0  0  0
    5.7487    1.6353   28.4180 S   0  0  0  0  0  0  0  0  0  0  0  0
    4.5318    0.4005   28.2267 C   0  0  0  0  0  0  0  0  0  0  0  0
    3.5014    0.0693   29.1254 C   0  0  0  0  0  0  0  0  0  0  0  0
    3.4139    0.5720   30.0860 H   0  0  0  0  0  0  0  0  0  0  0  0
    2.5821   -0.9050   28.7466 C   0  0  0  0  0  0  0  0  0  0  0  0
    1.7801   -1.1689   29.4286 H   0  0  0  0  0  0  0  0  0  0  0  0
    2.6910   -1.5712   27.5067 C   0  0  0  0  0  0  0  0  0  0  0  0
    1.9410   -2.3098   27.2299 H   0  0  0  0  0  0  0  0  0  0  0  0
    3.7271   -1.2677   26.6329 C   0  0  0  0  0  0  0  0  0  0  0  0
    3.8402   -1.7848   25.6807 H   0  0  0  0  0  0  0  0  0  0  0  0
    4.6577   -0.2593   26.9820 C   0  0  0  0  0  0  0  0  0  0  0  0
    6.4116    0.8693   23.5227 S   0  0  0  0  0  0  0  0  0  0  0  0
    8.3165   -1.6062   20.7753 C   0  0  0  0  0  0  0  0  0  0  0  0
    8.3654   -2.4701   21.4380 H   0  0  0  0  0  0  0  0  0  0  0  0
    8.2796   -1.7981   19.7186 H   0  0  0  0  0  0  0  0  0  0  0  0
    9.0004   -0.3575   21.1773 C   0  0  0  0  0  0  0  0  0  0  0  0
    9.5349   -0.4001   22.1231 H   0  0  0  0  0  0  0  0  0  0  0  0
    9.4316    0.2877   20.4101 H   0  0  0  0  0  0  0  0  0  0  0  0
    5.4070    0.8138   20.2888 C   0  0  0  0  0  0  0  0  0  0  0  0
    4.9155    0.8243   21.2628 H   0  0  0  0  0  0  0  0  0  0  0  0
    4.7581    1.3681   19.1777 C   0  0  0  0  0  0  0  0  0  0  0  0
    3.7728    1.8120   19.2550 H   0  0  0  0  0  0  0  0  0  0  0  0
  1  2  1  0
  2  3  2  0
  3  4  1  0
  4  5  1  0
  4  6  2  0
  6  7  1  0
  7  8  1  0
  8  9  2  0
  9 10  1  0
 10 11  2  0
 11 12  1  0
 12 13  2  0
 13 14  1  0
 13 15  1  0
 15 16  1  0
 16 17  2  0
 17 18  1  0
 17 19  1  0
 19 20  1  0
 19 21  2  0
 21 22  1  0
 21 23  1  0
 23 24  1  0
 23 25  2  0
 11 26  1  0
  7 27  1  0
 27 28  1  0
 27 29  1  0
 27 30  1  0
 30 31  1  0
 30 32  1  0
  6 33  1  0
 33 34  1  0
 33 35  2  0
 35 36  1  0
 35  2  1  0
 30  7  1  0
 26  8  1  0
 25 12  1  0
 25 16  1  0
M  END
>  <cnnaffinity>  (1) 
-5.33136

>  <filename>  (1) 
c1cncc(C2(c3nnc(-c4csc5ccccc45)s3)CC2)c1

$$$$
