
     RDKit          3D

 33 37  0  0  0  0  0  0  0  0999 V2000
    4.9232    1.7719   17.0037 H   0  0  0  0  0  0  0  0  0  0  0  0
    5.4095    1.2857   17.8470 C   0  0  0  0  0  0  0  0  0  0  0  0
    6.5746    0.6685   17.5951 N   0  0  0  0  0  0  0  0  0  0  0  0
    7.1808    0.0535   18.6158 C   0  0  0  0  0  0  0  0  0  0  0  0
    8.1268   -0.4332   18.3844 H   0  0  0  0  0  0  0  0  0  0  0  0
    6.6465    0.0147   19.9119 C   0  0  0  0  0  0  0  0  0  0  0  0
    7.3620   -0.6893   20.9684 C   0  0  0  0  0  0  0  0  0  0  0  0
    8.5479   -1.3251   20.7530 N   0  0  0  0  0  0  0  0  0  0  0  0
    8.8124   -1.8036   21.9508 C   0  0  0  0  0  0  0  0  0  0  0  0
   10.0478   -2.7409   22.7460 S   0  0  0  0  0  0  0  0  0  0  0  0
    9.1528   -2.6488   24.2350 C   0  0  0  0  0  0  0  0  0  0  0  0
    9.5593   -3.0897   25.1340 H   0  0  0  0  0  0  0  0  0  0  0  0
    8.0017   -1.9467   24.1273 C   0  0  0  0  0  0  0  0  0  0  0  0
    7.0455   -1.6063   25.1813 C   0  0  0  0  0  0  0  0  0  0  0  0
    6.4723   -0.3856   25.3648 C   0  0  0  0  0  0  0  0  0  0  0  0
    6.6106    0.4715   24.7190 H   0  0  0  0  0  0  0  0  0  0  0  0
    5.4574   -0.2883   26.7547 S   0  0  0  0  0  0  0  0  0  0  0  0
    5.7734   -1.9620   27.1470 C   0  0  0  0  0  0  0  0  0  0  0  0
    5.2496   -2.7018   28.2228 C   0  0  0  0  0  0  0  0  0  0  0  0
    4.5873   -2.2316   28.9444 H   0  0  0  0  0  0  0  0  0  0  0  0
    5.5990   -4.0454   28.3411 C   0  0  0  0  0  0  0  0  0  0  0  0
    5.2112   -4.6337   29.1698 H   0  0  0  0  0  0  0  0  0  0  0  0
    6.4570   -4.6563   27.3988 C   0  0  0  0  0  0  0  0  0  0  0  0
    6.7129   -5.7087   27.4963 H   0  0  0  0  0  0  0  0  0  0  0  0
    6.9700   -3.9280   26.3340 C   0  0  0  0  0  0  0  0  0  0  0  0
    7.5960   -4.4128   25.5890 H   0  0  0  0  0  0  0  0  0  0  0  0
    6.6469   -2.5551   26.2073 C   0  0  0  0  0  0  0  0  0  0  0  0
    7.8470   -1.4719   22.8283 N   0  0  0  0  0  0  0  0  0  0  0  0
    6.8873   -0.7447   22.2089 N   0  0  0  0  0  0  0  0  0  0  0  0
    5.4271    0.6584   20.1670 C   0  0  0  0  0  0  0  0  0  0  0  0
    4.9988    0.6343   21.1740 H   0  0  0  0  0  0  0  0  0  0  0  0
    4.8042    1.3104   19.1098 C   0  0  0  0  0  0  0  0  0  0  0  0
    3.8735    1.8436   19.2602 H   0  0  0  0  0  0  0  0  0  0  0  0
  1  2  1  0
  2  3  2  0
  3  4  1  0
  4  5  1  0
  4  6  2  0
  6  7  1  0
  7  8  1  0
  8  9  2  0
  9 10  1  0
 10 11  1  0
 11 12  1  0
 11 13  2  0
 13 14  1  0
 14 15  2  0
 15 16  1  0
 15 17  1  0
 17 18  1  0
 18 19  2  0
 19 20  1  0
 19 21  1  0
 21 22  1  0
 21 23  2  0
 23 24  1  0
 23 25  1  0
 25 26  1  0
 25 27  2  0
 13 28  1  0
 28 29  1  0
  6 30  1  0
 30 31  1  0
 30 32  2  0
 32 33  1  0
 32  2  1  0
 29  7  2  0
 28  9  1  0
 27 14  1  0
 27 18  1  0
M  END
>  <cnnaffinity>  (1) 
-5.86519

>  <filename>  (1) 
c1cncc(-c2nc3scc(-c4csc5ccccc45)n3n2)c1

$$$$
