
     RDKit          3D

 30 33  0  0  0  0  0  0  0  0999 V2000
    4.9211    1.8056   16.9885 H   0  0  0  0  0  0  0  0  0  0  0  0
    5.3864    1.2949   17.8298 C   0  0  0  0  0  0  0  0  0  0  0  0
    6.5436    0.6723   17.5633 N   0  0  0  0  0  0  0  0  0  0  0  0
    7.1483    0.0322   18.5662 C   0  0  0  0  0  0  0  0  0  0  0  0
    8.1164   -0.4194   18.3514 H   0  0  0  0  0  0  0  0  0  0  0  0
    6.6262   -0.0394   19.8694 C   0  0  0  0  0  0  0  0  0  0  0  0
    7.5852   -0.8460   21.1563 S   0  0  0  0  0  0  0  0  0  0  0  0
    8.5221    0.5660   21.6716 C   0  0  0  0  0  0  0  0  0  0  0  0
    9.6274    0.9348   21.0664 N   0  0  0  0  0  0  0  0  0  0  0  0
    9.9873    2.1115   21.6300 N   0  0  0  0  0  0  0  0  0  0  0  0
    9.1725    2.4759   22.5361 N   0  0  0  0  0  0  0  0  0  0  0  0
    8.2149    1.4969   22.6017 N   0  0  0  0  0  0  0  0  0  0  0  0
    7.1056    1.5148   23.4494 C   0  0  0  0  0  0  0  0  0  0  0  0
    6.2333    0.5570   23.5592 N   0  0  0  0  0  0  0  0  0  0  0  0
    5.3556    0.9937   24.5486 C   0  0  0  0  0  0  0  0  0  0  0  0
    4.2369    0.3755   25.1423 C   0  0  0  0  0  0  0  0  0  0  0  0
    3.9389   -0.6414   24.9125 H   0  0  0  0  0  0  0  0  0  0  0  0
    3.5107    1.0810   26.0952 C   0  0  0  0  0  0  0  0  0  0  0  0
    2.6363    0.6026   26.5222 H   0  0  0  0  0  0  0  0  0  0  0  0
    3.8978    2.3702   26.5073 C   0  0  0  0  0  0  0  0  0  0  0  0
    3.3140    2.8767   27.2729 H   0  0  0  0  0  0  0  0  0  0  0  0
    5.0209    2.9872   25.9633 C   0  0  0  0  0  0  0  0  0  0  0  0
    5.3309    3.9741   26.2861 H   0  0  0  0  0  0  0  0  0  0  0  0
    5.7379    2.2882   24.9850 C   0  0  0  0  0  0  0  0  0  0  0  0
    6.8734    2.5861   24.2536 N   0  0  0  0  0  0  0  0  0  0  0  0
    7.4503    3.4129   24.2614 H   0  0  0  0  0  0  0  0  0  0  0  0
    5.4228    0.6217   20.1449 C   0  0  0  0  0  0  0  0  0  0  0  0
    5.0170    0.6255   21.1574 H   0  0  0  0  0  0  0  0  0  0  0  0
    4.7962    1.3024   19.0964 C   0  0  0  0  0  0  0  0  0  0  0  0
    3.8741    1.8494   19.2436 H   0  0  0  0  0  0  0  0  0  0  0  0
  1  2  1  0
  2  3  2  0
  3  4  1  0
  4  5  1  0
  4  6  2  0
  6  7  1  0
  7  8  1  0
  8  9  2  0
  9 10  1  0
 10 11  2  0
 11 12  1  0
 12 13  1  0
 13 14  2  0
 14 15  1  0
 15 16  2  0
 16 17  1  0
 16 18  1  0
 18 19  1  0
 18 20  2  0
 20 21  1  0
 20 22  1  0
 22 23  1  0
 22 24  2  0
 24 25  1  0
 25 26  1  0
  6 27  1  0
 27 28  1  0
 27 29  2  0
 29 30  1  0
 29  2  1  0
 12  8  1  0
 25 13  1  0
 24 15  1  0
M  END
>  <cnnaffinity>  (1) 
-4.82455

>  <filename>  (1) 
c1cncc(Sc2nnnn2-c2nc3ccccc3[nH]2)c1

$$$$
