
     RDKit          3D

 34 37  0  0  0  0  0  0  0  0999 V2000
    4.9137    1.7741   17.0043 H   0  0  0  0  0  0  0  0  0  0  0  0
    5.4047    1.2891   17.8462 C   0  0  0  0  0  0  0  0  0  0  0  0
    6.5674    0.6726   17.5805 N   0  0  0  0  0  0  0  0  0  0  0  0
    7.1851    0.0650   18.5991 C   0  0  0  0  0  0  0  0  0  0  0  0
    8.1278   -0.4280   18.3773 H   0  0  0  0  0  0  0  0  0  0  0  0
    6.6742    0.0139   19.9050 C   0  0  0  0  0  0  0  0  0  0  0  0
    7.4188   -0.7105   20.9654 C   0  0  0  0  0  0  0  0  0  0  0  0
    8.7641   -0.7065   20.9221 N   0  0  0  0  0  0  0  0  0  0  0  0
    9.4783   -1.3197   21.8759 N   0  0  0  0  0  0  0  0  0  0  0  0
    8.8542   -1.9710   22.8617 C   0  0  0  0  0  0  0  0  0  0  0  0
    9.4770   -2.4543   23.6033 H   0  0  0  0  0  0  0  0  0  0  0  0
    7.4510   -2.0344   22.9741 C   0  0  0  0  0  0  0  0  0  0  0  0
    6.7821   -2.7760   24.0657 C   0  0  0  0  0  0  0  0  0  0  0  0
    6.9910   -4.1323   24.2178 C   0  0  0  0  0  0  0  0  0  0  0  0
    7.6792   -4.6377   23.5425 H   0  0  0  0  0  0  0  0  0  0  0  0
    6.3855   -4.9201   25.1417 N   0  0  0  0  0  0  0  0  0  0  0  0
    5.5435   -4.3272   25.9634 C   0  0  0  0  0  0  0  0  0  0  0  0
    5.0502   -4.9448   26.7101 H   0  0  0  0  0  0  0  0  0  0  0  0
    5.2346   -2.9331   25.9447 C   0  0  0  0  0  0  0  0  0  0  0  0
    4.3152   -2.3374   26.8648 C   0  0  0  0  0  0  0  0  0  0  0  0
    3.8198   -2.9628   27.6047 H   0  0  0  0  0  0  0  0  0  0  0  0
    4.0726   -0.9847   26.8176 C   0  0  0  0  0  0  0  0  0  0  0  0
    3.3791   -0.5265   27.5170 H   0  0  0  0  0  0  0  0  0  0  0  0
    4.7354   -0.1656   25.8660 C   0  0  0  0  0  0  0  0  0  0  0  0
    4.5443    0.9017   25.8401 H   0  0  0  0  0  0  0  0  0  0  0  0
    5.6340   -0.7144   24.9806 C   0  0  0  0  0  0  0  0  0  0  0  0
    6.1419   -0.0928   24.2509 H   0  0  0  0  0  0  0  0  0  0  0  0
    5.8873   -2.1222   24.9747 C   0  0  0  0  0  0  0  0  0  0  0  0
    6.7293   -1.3891   21.9810 C   0  0  0  0  0  0  0  0  0  0  0  0
    5.6476   -1.4309   21.9670 H   0  0  0  0  0  0  0  0  0  0  0  0
    5.4475    0.6472   20.1609 C   0  0  0  0  0  0  0  0  0  0  0  0
    5.0056    0.6369   21.1609 H   0  0  0  0  0  0  0  0  0  0  0  0
    4.8088    1.3105   19.1133 C   0  0  0  0  0  0  0  0  0  0  0  0
    3.8733    1.8433   19.2644 H   0  0  0  0  0  0  0  0  0  0  0  0
  1  2  1  0
  2  3  2  0
  3  4  1  0
  4  5  1  0
  4  6  2  0
  6  7  1  0
  7  8  2  0
  8  9  1  0
  9 10  2  0
 10 11  1  0
 10 12  1  0
 12 13  1  0
 13 14  2  0
 14 15  1  0
 14 16  1  0
 16 17  2  0
 17 18  1  0
 17 19  1  0
 19 20  2  0
 20 21  1  0
 20 22  1  0
 22 23  1  0
 22 24  2  0
 24 25  1  0
 24 26  1  0
 26 27  1  0
 26 28  2  0
 12 29  2  0
 29 30  1  0
  6 31  1  0
 31 32  1  0
 31 33  2  0
 33 34  1  0
 33  2  1  0
 29  7  1  0
 28 13  1  0
 28 19  1  0
M  END
>  <cnnaffinity>  (1) 
-5.3433

>  <filename>  (1) 
c1cncc(-c2cc(-c3cncc4ccccc34)cnn2)c1

$$$$
