
     RDKit          3D

 39 42  0  0  0  0  0  0  0  0999 V2000
    4.9260    1.7726   17.0020 H   0  0  0  0  0  0  0  0  0  0  0  0
    5.4107    1.2855   17.8455 C   0  0  0  0  0  0  0  0  0  0  0  0
    6.5748    0.6669   17.5955 N   0  0  0  0  0  0  0  0  0  0  0  0
    7.1800    0.0532   18.6174 C   0  0  0  0  0  0  0  0  0  0  0  0
    8.1255   -0.4322   18.3846 H   0  0  0  0  0  0  0  0  0  0  0  0
    6.6445    0.0161   19.9138 C   0  0  0  0  0  0  0  0  0  0  0  0
    7.3584   -0.6908   20.9746 C   0  0  0  0  0  0  0  0  0  0  0  0
    8.5408   -1.3338   20.7516 N   0  0  0  0  0  0  0  0  0  0  0  0
    8.8055   -1.8229   21.9472 C   0  0  0  0  0  0  0  0  0  0  0  0
   10.0140   -2.8061   22.7334 S   0  0  0  0  0  0  0  0  0  0  0  0
    9.1126   -2.7060   24.2269 C   0  0  0  0  0  0  0  0  0  0  0  0
    9.4786   -3.2360   25.0981 H   0  0  0  0  0  0  0  0  0  0  0  0
    8.0013   -1.9556   24.1316 C   0  0  0  0  0  0  0  0  0  0  0  0
    6.9603   -1.7430   25.1832 C   0  0  0  0  0  0  0  0  0  0  0  0
    7.4451   -1.7890   26.1655 H   0  0  0  0  0  0  0  0  0  0  0  0
    6.5082   -0.7541   25.0833 H   0  0  0  0  0  0  0  0  0  0  0  0
    5.8586   -2.8039   25.1087 C   0  0  0  0  0  0  0  0  0  0  0  0
    6.2928   -3.8142   25.2460 H   0  0  0  0  0  0  0  0  0  0  0  0
    5.4469   -2.7926   24.0933 H   0  0  0  0  0  0  0  0  0  0  0  0
    4.7931   -2.5466   26.0735 N   0  0  0  0  0  0  0  0  0  0  0  0
    5.1456   -3.0087   27.4276 C   0  0  0  0  0  0  0  0  0  0  0  0
    6.0305   -2.4753   27.7900 H   0  0  0  0  0  0  0  0  0  0  0  0
    5.3870   -4.0880   27.4375 H   0  0  0  0  0  0  0  0  0  0  0  0
    3.9942   -2.7730   28.4065 C   0  0  0  0  0  0  0  0  0  0  0  0
    3.8196   -1.6926   28.5148 H   0  0  0  0  0  0  0  0  0  0  0  0
    4.2423   -3.1787   29.3914 H   0  0  0  0  0  0  0  0  0  0  0  0
    2.7949   -3.4094   27.9804 O   0  0  0  0  0  0  0  0  0  0  0  0
    2.4291   -2.9324   26.6913 C   0  0  0  0  0  0  0  0  0  0  0  0
    2.2073   -1.8567   26.7447 H   0  0  0  0  0  0  0  0  0  0  0  0
    1.5150   -3.4573   26.4010 H   0  0  0  0  0  0  0  0  0  0  0  0
    3.5299   -3.1747   25.6586 C   0  0  0  0  0  0  0  0  0  0  0  0
    3.6400   -4.2667   25.5196 H   0  0  0  0  0  0  0  0  0  0  0  0
    3.2138   -2.7488   24.6978 H   0  0  0  0  0  0  0  0  0  0  0  0
    7.8451   -1.4875   22.8288 N   0  0  0  0  0  0  0  0  0  0  0  0
    6.8886   -0.7538   22.2159 N   0  0  0  0  0  0  0  0  0  0  0  0
    5.4237    0.6606   20.1655 C   0  0  0  0  0  0  0  0  0  0  0  0
    4.9940    0.6381   21.1727 H   0  0  0  0  0  0  0  0  0  0  0  0
    4.8032    1.3112   19.1069 C   0  0  0  0  0  0  0  0  0  0  0  0
    3.8729    1.8443   19.2576 H   0  0  0  0  0  0  0  0  0  0  0  0
  1  2  1  0
  2  3  2  0
  3  4  1  0
  4  5  1  0
  4  6  2  0
  6  7  1  0
  7  8  1  0
  8  9  2  0
  9 10  1  0
 10 11  1  0
 11 12  1  0
 11 13  2  0
 13 14  1  0
 14 15  1  0
 14 16  1  0
 14 17  1  0
 17 18  1  0
 17 19  1  0
 17 20  1  0
 20 21  1  0
 21 22  1  0
 21 23  1  0
 21 24  1  0
 24 25  1  0
 24 26  1  0
 24 27  1  0
 27 28  1  0
 28 29  1  0
 28 30  1  0
 28 31  1  0
 31 32  1  0
 31 33  1  0
 13 34  1  0
 34 35  1  0
  6 36  1  0
 36 37  1  0
 36 38  2  0
 38 39  1  0
 38  2  1  0
 35  7  2  0
 34  9  1  0
 31 20  1  0
M  END
>  <cnnaffinity>  (1) 
-5.40404

>  <filename>  (1) 
c1cncc(-c2nc3scc(CCN4CCOCC4)n3n2)c1

$$$$
