
     RDKit          3D

 39 42  0  0  0  0  0  0  0  0999 V2000
    4.9692    1.8239   16.9697 H   0  0  0  0  0  0  0  0  0  0  0  0
    5.4142    1.2901   17.8062 C   0  0  0  0  0  0  0  0  0  0  0  0
    6.5597    0.6345   17.5634 N   0  0  0  0  0  0  0  0  0  0  0  0
    7.1481    0.0067   18.5874 C   0  0  0  0  0  0  0  0  0  0  0  0
    8.0741   -0.5180   18.3545 H   0  0  0  0  0  0  0  0  0  0  0  0
    6.6540    0.0284   19.9022 C   0  0  0  0  0  0  0  0  0  0  0  0
    7.4307   -0.6168   20.9660 C   0  0  0  0  0  0  0  0  0  0  0  0
    7.9780   -1.8701   20.7887 N   0  0  0  0  0  0  0  0  0  0  0  0
    8.4673   -2.1698   21.9616 C   0  0  0  0  0  0  0  0  0  0  0  0
    9.2397   -3.5491   22.7142 S   0  0  0  0  0  0  0  0  0  0  0  0
    9.5103   -2.6150   24.1771 C   0  0  0  0  0  0  0  0  0  0  0  0
   10.1402   -3.0105   24.9624 H   0  0  0  0  0  0  0  0  0  0  0  0
    8.9385   -1.3999   24.1122 C   0  0  0  0  0  0  0  0  0  0  0  0
    8.8880   -0.6321   24.8725 H   0  0  0  0  0  0  0  0  0  0  0  0
    8.3422   -1.1608   22.8809 N   0  0  0  0  0  0  0  0  0  0  0  0
    7.6841   -0.1285   22.2407 C   0  0  0  0  0  0  0  0  0  0  0  0
    7.3080    1.1271   22.9497 C   0  0  0  0  0  0  0  0  0  0  0  0
    6.9824    1.8613   22.2064 H   0  0  0  0  0  0  0  0  0  0  0  0
    8.1794    1.5642   23.4537 H   0  0  0  0  0  0  0  0  0  0  0  0
    6.1971    0.9006   23.9832 C   0  0  0  0  0  0  0  0  0  0  0  0
    5.3521    0.3910   23.4842 H   0  0  0  0  0  0  0  0  0  0  0  0
    6.5563    0.2029   24.7496 H   0  0  0  0  0  0  0  0  0  0  0  0
    5.7519    2.1339   24.6084 N   0  0  0  0  0  0  0  0  0  0  0  0
    4.9001    1.9000   25.7673 C   0  0  0  0  0  0  0  0  0  0  0  0
    4.1662    1.0895   25.5870 H   0  0  0  0  0  0  0  0  0  0  0  0
    5.5160    1.6124   26.6288 H   0  0  0  0  0  0  0  0  0  0  0  0
    4.1793    3.2277   25.9884 C   0  0  0  0  0  0  0  0  0  0  0  0
    4.7605    3.8549   26.6680 H   0  0  0  0  0  0  0  0  0  0  0  0
    3.1926    3.0773   26.4337 H   0  0  0  0  0  0  0  0  0  0  0  0
    4.1061    3.8692   24.5907 C   0  0  0  0  0  0  0  0  0  0  0  0
    3.0889    3.8740   24.1905 H   0  0  0  0  0  0  0  0  0  0  0  0
    4.4529    4.9036   24.6193 H   0  0  0  0  0  0  0  0  0  0  0  0
    5.0179    3.0143   23.6991 C   0  0  0  0  0  0  0  0  0  0  0  0
    5.7170    3.6245   23.1156 H   0  0  0  0  0  0  0  0  0  0  0  0
    4.4113    2.4341   22.9758 H   0  0  0  0  0  0  0  0  0  0  0  0
    5.4226    0.6746   20.1227 C   0  0  0  0  0  0  0  0  0  0  0  0
    4.9488    0.6664   21.1064 H   0  0  0  0  0  0  0  0  0  0  0  0
    4.7953    1.3143   19.0575 C   0  0  0  0  0  0  0  0  0  0  0  0
    3.8624    1.8475   19.1940 H   0  0  0  0  0  0  0  0  0  0  0  0
  1  2  1  0
  2  3  2  0
  3  4  1  0
  4  5  1  0
  4  6  2  0
  6  7  1  0
  7  8  1  0
  8  9  2  0
  9 10  1  0
 10 11  1  0
 11 12  1  0
 11 13  2  0
 13 14  1  0
 13 15  1  0
 15 16  1  0
 16 17  1  0
 17 18  1  0
 17 19  1  0
 17 20  1  0
 20 21  1  0
 20 22  1  0
 20 23  1  0
 23 24  1  0
 24 25  1  0
 24 26  1  0
 24 27  1  0
 27 28  1  0
 27 29  1  0
 27 30  1  0
 30 31  1  0
 30 32  1  0
 30 33  1  0
 33 34  1  0
 33 35  1  0
  6 36  1  0
 36 37  1  0
 36 38  2  0
 38 39  1  0
 38  2  1  0
 16  7  2  0
 33 23  1  0
 15  9  1  0
M  END
>  <cnnaffinity>  (1) 
-5.5293

>  <filename>  (1) 
c1cncc(-c2nc3sccn3c2CCN2CCCC2)c1

$$$$
