
     RDKit          3D

 44 47  0  0  0  0  0  0  0  0999 V2000
    4.9398    1.8576   16.9328 H   0  0  0  0  0  0  0  0  0  0  0  0
    5.3780    1.3143   17.7680 C   0  0  0  0  0  0  0  0  0  0  0  0
    6.5162    0.6498   17.5066 N   0  0  0  0  0  0  0  0  0  0  0  0
    7.1059    0.0205   18.5272 C   0  0  0  0  0  0  0  0  0  0  0  0
    8.0121   -0.5324   18.2835 H   0  0  0  0  0  0  0  0  0  0  0  0
    6.6260    0.0517   19.8506 C   0  0  0  0  0  0  0  0  0  0  0  0
    7.4176   -0.5438   20.9338 C   0  0  0  0  0  0  0  0  0  0  0  0
    8.0070   -1.7255   20.7531 N   0  0  0  0  0  0  0  0  0  0  0  0
    8.6413   -1.9301   21.9075 N   0  0  0  0  0  0  0  0  0  0  0  0
    8.5759   -0.9236   22.7820 C   0  0  0  0  0  0  0  0  0  0  0  0
    7.7347    0.0169   22.2189 C   0  0  0  0  0  0  0  0  0  0  0  0
    7.2675    1.2836   22.8790 C   0  0  0  0  0  0  0  0  0  0  0  0
    6.9658    1.9963   22.1014 H   0  0  0  0  0  0  0  0  0  0  0  0
    8.1058    1.7625   23.4150 H   0  0  0  0  0  0  0  0  0  0  0  0
    6.1011    1.1285   23.8828 C   0  0  0  0  0  0  0  0  0  0  0  0
    5.2634    0.6279   23.3641 H   0  0  0  0  0  0  0  0  0  0  0  0
    5.6239    2.5312   24.3102 C   0  0  0  0  0  0  0  0  0  0  0  0
    5.3215    3.1038   23.4218 H   0  0  0  0  0  0  0  0  0  0  0  0
    6.4793    3.0691   24.7571 H   0  0  0  0  0  0  0  0  0  0  0  0
    4.4697    2.4751   25.3167 C   0  0  0  0  0  0  0  0  0  0  0  0
    3.5951    2.0148   24.8297 H   0  0  0  0  0  0  0  0  0  0  0  0
    4.1776    3.4910   25.6077 H   0  0  0  0  0  0  0  0  0  0  0  0
    4.8568    1.6477   26.5509 C   0  0  0  0  0  0  0  0  0  0  0  0
    5.6880    2.1491   27.0730 H   0  0  0  0  0  0  0  0  0  0  0  0
    4.0182    1.6019   27.2565 H   0  0  0  0  0  0  0  0  0  0  0  0
    5.3066    0.2330   26.1533 C   0  0  0  0  0  0  0  0  0  0  0  0
    5.6283   -0.3223   27.0443 H   0  0  0  0  0  0  0  0  0  0  0  0
    4.4509   -0.3180   25.7296 H   0  0  0  0  0  0  0  0  0  0  0  0
    6.4514    0.2754   25.1245 C   0  0  0  0  0  0  0  0  0  0  0  0
    7.3429    0.7110   25.6125 H   0  0  0  0  0  0  0  0  0  0  0  0
    6.7119   -0.7494   24.8260 H   0  0  0  0  0  0  0  0  0  0  0  0
    9.5005   -1.1898   23.9394 C   0  0  0  0  0  0  0  0  0  0  0  0
   10.1483   -0.3333   24.1437 H   0  0  0  0  0  0  0  0  0  0  0  0
    8.9362   -1.4202   24.8512 H   0  0  0  0  0  0  0  0  0  0  0  0
   10.3304   -2.4111   23.4511 C   0  0  0  0  0  0  0  0  0  0  0  0
   11.3245   -2.0881   23.1352 H   0  0  0  0  0  0  0  0  0  0  0  0
   10.4552   -3.1623   24.2322 H   0  0  0  0  0  0  0  0  0  0  0  0
    9.6006   -2.9582   22.1953 C   0  0  0  0  0  0  0  0  0  0  0  0
    9.1047   -3.9244   22.3337 H   0  0  0  0  0  0  0  0  0  0  0  0
   10.2640   -2.9834   21.3388 H   0  0  0  0  0  0  0  0  0  0  0  0
    5.3967    0.6849   20.0869 C   0  0  0  0  0  0  0  0  0  0  0  0
    4.9389    0.6582   21.0788 H   0  0  0  0  0  0  0  0  0  0  0  0
    4.7665    1.3289   19.0232 C   0  0  0  0  0  0  0  0  0  0  0  0
    3.8284    1.8524   19.1585 H   0  0  0  0  0  0  0  0  0  0  0  0
  1  2  1  0
  2  3  2  0
  3  4  1  0
  4  5  1  0
  4  6  2  0
  6  7  1  0
  7  8  2  0
  8  9  1  0
  9 10  1  0
 10 11  2  0
 11 12  1  0
 12 13  1  0
 12 14  1  0
 12 15  1  0
 15 16  1  0
 15 17  1  0
 17 18  1  0
 17 19  1  0
 17 20  1  0
 20 21  1  0
 20 22  1  0
 20 23  1  0
 23 24  1  0
 23 25  1  0
 23 26  1  0
 26 27  1  0
 26 28  1  0
 26 29  1  0
 29 30  1  0
 29 31  1  0
 10 32  1  0
 32 33  1  0
 32 34  1  0
 32 35  1  0
 35 36  1  0
 35 37  1  0
 35 38  1  0
 38 39  1  0
 38 40  1  0
  6 41  1  0
 41 42  1  0
 41 43  2  0
 43 44  1  0
 43  2  1  0
 11  7  1  0
 29 15  1  0
 38  9  1  0
M  END
>  <cnnaffinity>  (1) 
-5.69838

>  <filename>  (1) 
c1cncc(-c2nn3c(c2CC2CCCCC2)CCC3)c1

$$$$
