
     RDKit          3D

 25 28  0  0  0  0  0  0  0  0999 V2000
    6.3928    1.7558   28.4323 H   0  0  0  0  0  0  0  0  0  0  0  0
    6.3050    1.6134   27.3611 C   0  0  0  0  0  0  0  0  0  0  0  0
    5.4547    2.3620   26.5929 N   0  0  0  0  0  0  0  0  0  0  0  0
    5.6473    1.8888   25.3929 C   0  0  0  0  0  0  0  0  0  0  0  0
    5.1534    2.2222   24.4875 H   0  0  0  0  0  0  0  0  0  0  0  0
    6.5727    0.8933   25.4239 N   0  0  0  0  0  0  0  0  0  0  0  0
    7.0353    0.1562   24.3322 C   0  0  0  0  0  0  0  0  0  0  0  0
    6.6056    0.3683   23.1272 N   0  0  0  0  0  0  0  0  0  0  0  0
    7.2669   -0.5013   22.2965 N   0  0  0  0  0  0  0  0  0  0  0  0
    7.4001   -0.6906   20.9324 C   0  0  0  0  0  0  0  0  0  0  0  0
    6.6467    0.0116   19.8962 C   0  0  0  0  0  0  0  0  0  0  0  0
    7.1731    0.0538   18.5918 C   0  0  0  0  0  0  0  0  0  0  0  0
    8.1217   -0.4336   18.3708 H   0  0  0  0  0  0  0  0  0  0  0  0
    6.5681    0.6761   17.5781 N   0  0  0  0  0  0  0  0  0  0  0  0
    5.4037    1.2900   17.8416 C   0  0  0  0  0  0  0  0  0  0  0  0
    4.9205    1.7786   16.9995 H   0  0  0  0  0  0  0  0  0  0  0  0
    4.8047    1.3076   19.1068 C   0  0  0  0  0  0  0  0  0  0  0  0
    3.8749    1.8430   19.2575 H   0  0  0  0  0  0  0  0  0  0  0  0
    5.4296    0.6532   20.1633 C   0  0  0  0  0  0  0  0  0  0  0  0
    5.0091    0.6414   21.1726 H   0  0  0  0  0  0  0  0  0  0  0  0
    8.3216   -1.5975   20.7173 N   0  0  0  0  0  0  0  0  0  0  0  0
    8.8197   -2.0310   21.9258 N   0  0  0  0  0  0  0  0  0  0  0  0
    8.1907   -1.3440   22.8420 C   0  0  0  0  0  0  0  0  0  0  0  0
    8.2399   -1.0858   24.5719 S   0  0  0  0  0  0  0  0  0  0  0  0
    7.0025    0.7139   26.7095 N   0  0  0  0  0  0  0  0  0  0  0  0
  1  2  1  0
  2  3  1  0
  3  4  2  0
  4  5  1  0
  4  6  1  0
  6  7  1  0
  7  8  2  0
  8  9  1  0
  9 10  1  0
 10 11  1  0
 11 12  2  0
 12 13  1  0
 12 14  1  0
 14 15  2  0
 15 16  1  0
 15 17  1  0
 17 18  1  0
 17 19  2  0
 19 20  1  0
 10 21  2  0
 21 22  1  0
 22 23  2  0
 23 24  1  0
  6 25  1  0
 25  2  2  0
 24  7  1  0
 23  9  1  0
 19 11  1  0
M  END
>  <cnnaffinity>  (1) 
-4.90012

>  <filename>  (1) 
c1cncc(-c2nnc3sc(-n4cncn4)nn23)c1

$$$$
