
     RDKit          3D

 34 37  0  0  0  0  0  0  0  0999 V2000
    5.0637    1.8806   17.1259 H   0  0  0  0  0  0  0  0  0  0  0  0
    5.5342    1.2568   17.8842 C   0  0  0  0  0  0  0  0  0  0  0  0
    6.6578    0.6213   17.5196 N   0  0  0  0  0  0  0  0  0  0  0  0
    7.2732   -0.1316   18.4412 C   0  0  0  0  0  0  0  0  0  0  0  0
    8.1817   -0.6340   18.1077 H   0  0  0  0  0  0  0  0  0  0  0  0
    6.7996   -0.3026   19.7552 C   0  0  0  0  0  0  0  0  0  0  0  0
    7.6048   -1.0006   20.7752 C   0  0  0  0  0  0  0  0  0  0  0  0
    8.8880   -0.7554   21.1042 C   0  0  0  0  0  0  0  0  0  0  0  0
    9.5623   -0.0743   20.5954 H   0  0  0  0  0  0  0  0  0  0  0  0
    9.3682   -1.5709   22.5751 S   0  0  0  0  0  0  0  0  0  0  0  0
    7.7623   -2.2157   22.7483 C   0  0  0  0  0  0  0  0  0  0  0  0
    7.0715   -2.9136   23.6306 N   0  0  0  0  0  0  0  0  0  0  0  0
    5.8507   -2.9332   23.0205 C   0  0  0  0  0  0  0  0  0  0  0  0
    4.7710   -3.4679   23.5521 O   0  0  0  0  0  0  0  0  0  0  0  0
    4.8736   -4.1120   24.8314 C   0  0  0  0  0  0  0  0  0  0  0  0
    5.5547   -3.5575   25.4914 H   0  0  0  0  0  0  0  0  0  0  0  0
    3.4737   -4.2054   25.4204 C   0  0  0  0  0  0  0  0  0  0  0  0
    3.1797   -3.2802   25.9301 H   0  0  0  0  0  0  0  0  0  0  0  0
    2.7771   -4.3622   24.5871 H   0  0  0  0  0  0  0  0  0  0  0  0
    3.4977   -5.4407   26.3387 C   0  0  0  0  0  0  0  0  0  0  0  0
    3.7506   -5.1675   27.3711 H   0  0  0  0  0  0  0  0  0  0  0  0
    2.5165   -5.9280   26.3830 H   0  0  0  0  0  0  0  0  0  0  0  0
    4.5951   -6.3724   25.7472 C   0  0  0  0  0  0  0  0  0  0  0  0
    4.1569   -7.2814   25.3217 H   0  0  0  0  0  0  0  0  0  0  0  0
    5.2896   -6.6926   26.5297 H   0  0  0  0  0  0  0  0  0  0  0  0
    5.3305   -5.5571   24.6567 C   0  0  0  0  0  0  0  0  0  0  0  0
    5.0376   -5.8870   23.6536 H   0  0  0  0  0  0  0  0  0  0  0  0
    6.4210   -5.6200   24.7183 H   0  0  0  0  0  0  0  0  0  0  0  0
    5.7418   -2.3490   21.8350 N   0  0  0  0  0  0  0  0  0  0  0  0
    7.0110   -1.8728   21.6870 N   0  0  0  0  0  0  0  0  0  0  0  0
    5.5806    0.3100   20.0919 C   0  0  0  0  0  0  0  0  0  0  0  0
    5.1491    0.1349   21.0776 H   0  0  0  0  0  0  0  0  0  0  0  0
    4.9573    1.1271   19.1542 C   0  0  0  0  0  0  0  0  0  0  0  0
    4.0443    1.6581   19.3923 H   0  0  0  0  0  0  0  0  0  0  0  0
  1  2  1  0
  2  3  2  0
  3  4  1  0
  4  5  1  0
  4  6  2  0
  6  7  1  0
  7  8  2  0
  8  9  1  0
  8 10  1  0
 10 11  1  0
 11 12  2  0
 12 13  1  0
 13 14  1  0
 14 15  1  0
 15 16  1  0
 15 17  1  0
 17 18  1  0
 17 19  1  0
 17 20  1  0
 20 21  1  0
 20 22  1  0
 20 23  1  0
 23 24  1  0
 23 25  1  0
 23 26  1  0
 26 27  1  0
 26 28  1  0
 13 29  2  0
 29 30  1  0
  6 31  1  0
 31 32  1  0
 31 33  2  0
 33 34  1  0
 33  2  1  0
 30  7  1  0
 30 11  1  0
 26 15  1  0
M  END
>  <cnnaffinity>  (1) 
-5.43428

>  <filename>  (1) 
c1cncc(-c2csc3nc(OC4CCCC4)nn23)c1

$$$$
