
     RDKit          3D

 39 43  0  0  0  0  0  0  0  0999 V2000
    4.9968    1.8436   16.9135 H   0  0  0  0  0  0  0  0  0  0  0  0
    5.3877    1.3098   17.7811 C   0  0  0  0  0  0  0  0  0  0  0  0
    6.5395    0.6470   17.5987 N   0  0  0  0  0  0  0  0  0  0  0  0
    7.0634    0.0233   18.6635 C   0  0  0  0  0  0  0  0  0  0  0  0
    8.0018   -0.4980   18.4807 H   0  0  0  0  0  0  0  0  0  0  0  0
    6.4791   -0.0094   19.9483 C   0  0  0  0  0  0  0  0  0  0  0  0
    7.2308   -0.6228   21.0650 C   0  0  0  0  0  0  0  0  0  0  0  0
    8.5868   -0.5687   21.2957 C   0  0  0  0  0  0  0  0  0  0  0  0
    8.8011   -1.1680   22.5267 C   0  0  0  0  0  0  0  0  0  0  0  0
    7.6884   -1.6166   23.0740 N   0  0  0  0  0  0  0  0  0  0  0  0
    6.7348   -1.2722   22.1664 N   0  0  0  0  0  0  0  0  0  0  0  0
    5.7750   -1.5189   22.3717 H   0  0  0  0  0  0  0  0  0  0  0  0
   10.2410   -1.1354   22.9504 C   0  0  0  0  0  0  0  0  0  0  0  0
   10.6563   -2.1487   22.9867 H   0  0  0  0  0  0  0  0  0  0  0  0
   10.3756   -0.6976   23.9452 H   0  0  0  0  0  0  0  0  0  0  0  0
   10.9251   -0.2686   21.8296 C   0  0  2  0  0  0  0  0  0  0  0  0
   11.7626   -0.8445   21.4232 H   0  0  0  0  0  0  0  0  0  0  0  0
   11.4579    1.0582   22.3494 C   0  0  0  0  0  0  0  0  0  0  0  0
   12.8558    1.3445   22.3098 C   0  0  0  0  0  0  0  0  0  0  0  0
   13.5540    0.6008   21.9227 H   0  0  0  0  0  0  0  0  0  0  0  0
   13.3544    2.5628   22.7568 C   0  0  0  0  0  0  0  0  0  0  0  0
   14.4155    2.7901   22.6865 H   0  0  0  0  0  0  0  0  0  0  0  0
   12.4679    3.5254   23.2844 C   0  0  0  0  0  0  0  0  0  0  0  0
   12.6087    4.8481   23.8392 C   0  0  0  0  0  0  0  0  0  0  0  0
   13.5255    5.4118   23.9404 H   0  0  0  0  0  0  0  0  0  0  0  0
   11.3655    5.2747   24.2036 C   0  0  0  0  0  0  0  0  0  0  0  0
   11.0509    6.2083   24.6577 H   0  0  0  0  0  0  0  0  0  0  0  0
   10.4440    4.2880   23.9070 N   0  0  0  0  0  0  0  0  0  0  0  0
    9.4462    4.3343   24.0130 H   0  0  0  0  0  0  0  0  0  0  0  0
   11.0865    3.2183   23.3408 C   0  0  0  0  0  0  0  0  0  0  0  0
   10.5689    2.0024   22.8701 C   0  0  0  0  0  0  0  0  0  0  0  0
    9.4987    1.8125   22.9144 H   0  0  0  0  0  0  0  0  0  0  0  0
    9.8562   -0.0724   20.6970 C   0  0  0  0  0  0  0  0  0  0  0  0
    9.7722    0.9659   20.3564 H   0  0  0  0  0  0  0  0  0  0  0  0
   10.1185   -0.6712   19.8232 H   0  0  0  0  0  0  0  0  0  0  0  0
    5.2559    0.6669   20.1071 C   0  0  0  0  0  0  0  0  0  0  0  0
    4.7546    0.7037   21.0757 H   0  0  0  0  0  0  0  0  0  0  0  0
    4.7149    1.3373   19.0076 C   0  0  0  0  0  0  0  0  0  0  0  0
    3.7997    1.9101   19.0880 H   0  0  0  0  0  0  0  0  0  0  0  0
  1  2  1  0
  2  3  2  0
  3  4  1  0
  4  5  1  0
  4  6  2  0
  6  7  1  0
  7  8  2  0
  8  9  1  0
  9 10  2  0
 10 11  1  0
 11 12  1  0
  9 13  1  0
 13 14  1  0
 13 15  1  0
 13 16  1  0
 16 17  1  6
 16 18  1  0
 18 19  2  0
 19 20  1  0
 19 21  1  0
 21 22  1  0
 21 23  2  0
 23 24  1  0
 24 25  1  0
 24 26  2  0
 26 27  1  0
 26 28  1  0
 28 29  1  0
 28 30  1  0
 30 31  2  0
 31 32  1  0
 16 33  1  0
 33 34  1  0
 33 35  1  0
  6 36  1  0
 36 37  1  0
 36 38  2  0
 38 39  1  0
 38  2  1  0
 11  7  1  0
 31 18  1  0
 33  8  1  0
 30 23  1  0
M  END
>  <cnnaffinity>  (1) 
-6.06228

>  <filename>  (1) 
c1cncc(-c2[nH]nc3c2C[C@@H](c2ccc4cc[nH]c4c2)C3)c1

$$$$
