
     RDKit          3D

 30 33  0  0  0  0  0  0  0  0999 V2000
    4.9736    1.8428   16.9370 H   0  0  0  0  0  0  0  0  0  0  0  0
    5.3863    1.3082   17.7894 C   0  0  0  0  0  0  0  0  0  0  0  0
    6.5419    0.6572   17.5880 N   0  0  0  0  0  0  0  0  0  0  0  0
    7.0859    0.0278   18.6405 C   0  0  0  0  0  0  0  0  0  0  0  0
    8.0346   -0.4693   18.4318 H   0  0  0  0  0  0  0  0  0  0  0  0
    6.5050   -0.0191   19.9287 C   0  0  0  0  0  0  0  0  0  0  0  0
    7.2493   -0.6480   21.0457 C   0  0  0  0  0  0  0  0  0  0  0  0
    8.6020   -0.6072   21.2833 C   0  0  0  0  0  0  0  0  0  0  0  0
    8.8092   -1.2068   22.5206 C   0  0  0  0  0  0  0  0  0  0  0  0
    7.6913   -1.6675   23.0498 N   0  0  0  0  0  0  0  0  0  0  0  0
    6.7456   -1.3057   22.1402 N   0  0  0  0  0  0  0  0  0  0  0  0
    5.7799   -1.4847   22.3769 H   0  0  0  0  0  0  0  0  0  0  0  0
   10.2369   -1.1157   22.9719 C   0  0  0  0  0  0  0  0  0  0  0  0
   10.3499   -0.6019   23.9347 H   0  0  0  0  0  0  0  0  0  0  0  0
   10.6727   -2.1073   23.1034 H   0  0  0  0  0  0  0  0  0  0  0  0
   10.9319   -0.3381   21.7898 C   0  0  2  0  0  0  0  0  0  0  0  0
   11.7247   -0.9627   21.3809 H   0  0  0  0  0  0  0  0  0  0  0  0
   11.6269    0.9079   22.2346 C   0  0  0  0  0  0  0  0  0  0  0  0
   12.9137    1.1661   22.2190 N   0  0  0  0  0  0  0  0  0  0  0  0
   13.0619    2.4010   22.7503 N   0  0  0  0  0  0  0  0  0  0  0  0
   11.9303    2.9020   23.0890 N   0  0  0  0  0  0  0  0  0  0  0  0
   11.0105    1.9768   22.7695 N   0  0  0  0  0  0  0  0  0  0  0  0
   10.0292    2.1206   22.9515 H   0  0  0  0  0  0  0  0  0  0  0  0
    9.8562   -0.0820   20.6798 C   0  0  0  0  0  0  0  0  0  0  0  0
   10.1229   -0.6319   19.7757 H   0  0  0  0  0  0  0  0  0  0  0  0
    9.7697    0.9688   20.3722 H   0  0  0  0  0  0  0  0  0  0  0  0
    5.2867    0.6635   20.1031 C   0  0  0  0  0  0  0  0  0  0  0  0
    4.8190    0.7164   21.0867 H   0  0  0  0  0  0  0  0  0  0  0  0
    4.7232    1.3378   19.0197 C   0  0  0  0  0  0  0  0  0  0  0  0
    3.8077    1.9110   19.1275 H   0  0  0  0  0  0  0  0  0  0  0  0
  1  2  1  0
  2  3  2  0
  3  4  1  0
  4  5  1  0
  4  6  2  0
  6  7  1  0
  7  8  2  0
  8  9  1  0
  9 10  2  0
 10 11  1  0
 11 12  1  0
  9 13  1  0
 13 14  1  0
 13 15  1  0
 13 16  1  0
 16 17  1  6
 16 18  1  0
 18 19  2  0
 19 20  1  0
 20 21  2  0
 21 22  1  0
 22 23  1  0
 16 24  1  0
 24 25  1  0
 24 26  1  0
  6 27  1  0
 27 28  1  0
 27 29  2  0
 29 30  1  0
 29  2  1  0
 11  7  1  0
 22 18  1  0
 24  8  1  0
M  END
>  <cnnaffinity>  (1) 
-5.29797

>  <filename>  (1) 
c1cncc(-c2[nH]nc3c2C[C@@H](c2nnn[nH]2)C3)c1

$$$$
