
     RDKit          3D

 32 34  0  0  0  0  0  0  0  0999 V2000
    4.9152    1.7880   16.9880 H   0  0  0  0  0  0  0  0  0  0  0  0
    5.3958    1.2976   17.8316 C   0  0  0  0  0  0  0  0  0  0  0  0
    6.5578    0.6778   17.5695 N   0  0  0  0  0  0  0  0  0  0  0  0
    7.1662    0.0683   18.5945 C   0  0  0  0  0  0  0  0  0  0  0  0
    8.1078   -0.4251   18.3609 H   0  0  0  0  0  0  0  0  0  0  0  0
    6.6584    0.0061   19.9064 C   0  0  0  0  0  0  0  0  0  0  0  0
    7.3702   -0.7229   20.9915 C   0  0  0  0  0  0  0  0  0  0  0  0
    8.7629   -0.5961   21.1720 C   0  0  0  0  0  0  0  0  0  0  0  0
    9.3315    0.0534   20.5083 H   0  0  0  0  0  0  0  0  0  0  0  0
    9.4471   -1.2166   22.1361 N   0  0  0  0  0  0  0  0  0  0  0  0
    8.7536   -2.0060   22.9679 C   0  0  0  0  0  0  0  0  0  0  0  0
    9.3398   -2.4983   23.7365 H   0  0  0  0  0  0  0  0  0  0  0  0
    7.3452   -2.2330   22.8971 C   0  0  0  0  0  0  0  0  0  0  0  0
    6.6414   -3.0870   23.7329 N   0  0  0  0  0  0  0  0  0  0  0  0
    5.6431   -3.1211   23.5918 H   0  0  0  0  0  0  0  0  0  0  0  0
    7.1766   -3.6567   24.9548 C   0  0  0  0  0  0  0  0  0  0  0  0
    6.4426   -4.3758   25.3309 H   0  0  0  0  0  0  0  0  0  0  0  0
    8.0670   -4.2466   24.7030 H   0  0  0  0  0  0  0  0  0  0  0  0
    7.5553   -2.6714   26.0324 C   0  0  0  0  0  0  0  0  0  0  0  0
    6.4258   -1.4998   26.6002 S   0  0  0  0  0  0  0  0  0  0  0  0
    7.5882   -0.8277   27.6687 C   0  0  0  0  0  0  0  0  0  0  0  0
    7.3071   -0.0228   28.3319 H   0  0  0  0  0  0  0  0  0  0  0  0
    8.7871   -1.4683   27.6002 C   0  0  0  0  0  0  0  0  0  0  0  0
    9.6445   -1.2121   28.2179 H   0  0  0  0  0  0  0  0  0  0  0  0
    8.7638   -2.5393   26.6555 C   0  0  0  0  0  0  0  0  0  0  0  0
    9.6150   -3.1801   26.4445 H   0  0  0  0  0  0  0  0  0  0  0  0
    6.6632   -1.5519   21.8724 C   0  0  0  0  0  0  0  0  0  0  0  0
    5.5887   -1.6840   21.7457 H   0  0  0  0  0  0  0  0  0  0  0  0
    5.4353    0.6502   20.1500 C   0  0  0  0  0  0  0  0  0  0  0  0
    5.0131    0.6385   21.1574 H   0  0  0  0  0  0  0  0  0  0  0  0
    4.8042    1.3169   19.0993 C   0  0  0  0  0  0  0  0  0  0  0  0
    3.8724    1.8455   19.2525 H   0  0  0  0  0  0  0  0  0  0  0  0
  1  2  1  0
  2  3  2  0
  3  4  1  0
  4  5  1  0
  4  6  2  0
  6  7  1  0
  7  8  2  0
  8  9  1  0
  8 10  1  0
 10 11  2  0
 11 12  1  0
 11 13  1  0
 13 14  1  0
 14 15  1  0
 14 16  1  0
 16 17  1  0
 16 18  1  0
 16 19  1  0
 19 20  1  0
 20 21  1  0
 21 22  1  0
 21 23  2  0
 23 24  1  0
 23 25  1  0
 25 26  1  0
 13 27  2  0
 27 28  1  0
  6 29  1  0
 29 30  1  0
 29 31  2  0
 31 32  1  0
 31  2  1  0
 27  7  1  0
 25 19  2  0
M  END
>  <cnnaffinity>  (1) 
-5.29939

>  <filename>  (1) 
c1cncc(-c2cncc(NCc3cccs3)c2)c1

$$$$
