
     RDKit          3D

 31 34  0  0  0  0  0  0  0  0999 V2000
   14.2928    2.6347   22.7100 H   0  0  0  0  0  0  0  0  0  0  0  0
   13.2472    2.3543   22.7116 C   0  0  0  0  0  0  0  0  0  0  0  0
   12.9004    1.1154   22.2322 N   0  0  0  0  0  0  0  0  0  0  0  0
   11.6147    0.9410   22.2864 C   0  0  0  0  0  0  0  0  0  0  0  0
   10.9271   -0.3194   21.8299 C   0  0  1  0  0  0  0  0  0  0  0  0
   11.7477   -0.9174   21.4240 H   0  0  0  0  0  0  0  0  0  0  0  0
   10.2271   -1.1344   22.9867 C   0  0  0  0  0  0  0  0  0  0  0  0
   10.6453   -2.1463   23.0591 H   0  0  0  0  0  0  0  0  0  0  0  0
   10.3474   -0.6653   23.9693 H   0  0  0  0  0  0  0  0  0  0  0  0
    8.7905   -1.1524   22.5493 C   0  0  0  0  0  0  0  0  0  0  0  0
    7.6751   -1.6234   23.0757 N   0  0  0  0  0  0  0  0  0  0  0  0
    6.7351   -1.2734   22.1627 N   0  0  0  0  0  0  0  0  0  0  0  0
    5.7785   -1.5527   22.3317 H   0  0  0  0  0  0  0  0  0  0  0  0
    7.2301   -0.6053   21.0776 C   0  0  0  0  0  0  0  0  0  0  0  0
    6.4700   -0.0026   19.9639 C   0  0  0  0  0  0  0  0  0  0  0  0
    7.0565    0.0198   18.6832 C   0  0  0  0  0  0  0  0  0  0  0  0
    7.9902   -0.5126   18.5196 H   0  0  0  0  0  0  0  0  0  0  0  0
    6.5440    0.6374   17.6106 N   0  0  0  0  0  0  0  0  0  0  0  0
    5.3946    1.3061   17.7828 C   0  0  0  0  0  0  0  0  0  0  0  0
    5.0102    1.8296   16.9043 H   0  0  0  0  0  0  0  0  0  0  0  0
    4.7132    1.3386   19.0056 C   0  0  0  0  0  0  0  0  0  0  0  0
    3.7947    1.9060   19.0751 H   0  0  0  0  0  0  0  0  0  0  0  0
    5.2461    0.6730   20.1137 C   0  0  0  0  0  0  0  0  0  0  0  0
    4.7402    0.7006   21.0813 H   0  0  0  0  0  0  0  0  0  0  0  0
    8.5858   -0.5348   21.3257 C   0  0  0  0  0  0  0  0  0  0  0  0
    9.8563   -0.0639   20.7106 C   0  0  0  0  0  0  0  0  0  0  0  0
   10.0810   -0.6691   19.8294 H   0  0  0  0  0  0  0  0  0  0  0  0
    9.8081    0.9791   20.3753 H   0  0  0  0  0  0  0  0  0  0  0  0
   10.7354    2.2969   22.9345 S   0  0  0  0  0  0  0  0  0  0  0  0
   12.2234    3.1349   23.1417 C   0  0  0  0  0  0  0  0  0  0  0  0
   12.2657    4.1365   23.5436 H   0  0  0  0  0  0  0  0  0  0  0  0
  1  2  1  0
  2  3  1  0
  3  4  2  0
  4  5  1  0
  5  6  1  6
  5  7  1  0
  7  8  1  0
  7  9  1  0
  7 10  1  0
 10 11  2  0
 11 12  1  0
 12 13  1  0
 12 14  1  0
 14 15  1  0
 15 16  2  0
 16 17  1  0
 16 18  1  0
 18 19  2  0
 19 20  1  0
 19 21  1  0
 21 22  1  0
 21 23  2  0
 23 24  1  0
 14 25  2  0
 25 26  1  0
 26 27  1  0
 26 28  1  0
  4 29  1  0
 29 30  1  0
 30 31  1  0
 30  2  2  0
 26  5  1  0
 25 10  1  0
 23 15  1  0
M  END
>  <cnnaffinity>  (1) 
-5.82404

>  <filename>  (1) 
c1cncc(-c2[nH]nc3c2C[C@@H](c2nccs2)C3)c1

$$$$
