
     RDKit          3D

 34 37  0  0  0  0  0  0  0  0999 V2000
    4.9878    1.7584   16.9940 H   0  0  0  0  0  0  0  0  0  0  0  0
    5.4151    1.2803   17.8684 C   0  0  0  0  0  0  0  0  0  0  0  0
    6.5897    0.6682   17.6642 N   0  0  0  0  0  0  0  0  0  0  0  0
    7.1662    0.1076   18.7243 C   0  0  0  0  0  0  0  0  0  0  0  0
    8.1235   -0.3717   18.5294 H   0  0  0  0  0  0  0  0  0  0  0  0
    6.6232    0.1158   20.0161 C   0  0  0  0  0  0  0  0  0  0  0  0
    7.3805   -0.5605   21.0925 C   0  0  0  0  0  0  0  0  0  0  0  0
    7.1851   -0.1292   22.3341 N   0  0  0  0  0  0  0  0  0  0  0  0
    7.8217   -0.7562   23.3436 C   0  0  0  0  0  0  0  0  0  0  0  0
    7.6772   -0.2163   24.7051 C   0  0  0  0  0  0  0  0  0  0  0  0
    8.0453   -0.7998   25.8972 C   0  0  0  0  0  0  0  0  0  0  0  0
    8.5004   -1.7656   26.0989 H   0  0  0  0  0  0  0  0  0  0  0  0
    7.7154    0.0280   26.9400 N   0  0  0  0  0  0  0  0  0  0  0  0
    7.9155   -0.1476   27.9109 H   0  0  0  0  0  0  0  0  0  0  0  0
    7.1411    1.1775   26.4508 C   0  0  0  0  0  0  0  0  0  0  0  0
    6.6393    2.3087   27.1186 C   0  0  0  0  0  0  0  0  0  0  0  0
    6.6686    2.3745   28.2021 H   0  0  0  0  0  0  0  0  0  0  0  0
    6.1057    3.3339   26.3435 C   0  0  0  0  0  0  0  0  0  0  0  0
    5.7074    4.2184   26.8328 H   0  0  0  0  0  0  0  0  0  0  0  0
    6.0719    3.2533   24.9292 C   0  0  0  0  0  0  0  0  0  0  0  0
    5.6502    4.0746   24.3543 H   0  0  0  0  0  0  0  0  0  0  0  0
    6.5742    2.1365   24.2745 C   0  0  0  0  0  0  0  0  0  0  0  0
    6.5681    2.0784   23.1912 H   0  0  0  0  0  0  0  0  0  0  0  0
    7.1040    1.0711   25.0442 C   0  0  0  0  0  0  0  0  0  0  0  0
    8.6120   -1.9038   23.1186 C   0  0  0  0  0  0  0  0  0  0  0  0
    9.0995   -2.4077   23.9408 H   0  0  0  0  0  0  0  0  0  0  0  0
    8.8101   -2.3667   21.8210 C   0  0  0  0  0  0  0  0  0  0  0  0
    9.3910   -3.2678   21.6196 H   0  0  0  0  0  0  0  0  0  0  0  0
    8.2379   -1.6278   20.7950 C   0  0  0  0  0  0  0  0  0  0  0  0
    8.4381   -1.8281   19.7632 H   0  0  0  0  0  0  0  0  0  0  0  0
    5.3810    0.7412   20.2133 C   0  0  0  0  0  0  0  0  0  0  0  0
    4.9177    0.7524   21.2071 H   0  0  0  0  0  0  0  0  0  0  0  0
    4.7675    1.3298   19.1086 C   0  0  0  0  0  0  0  0  0  0  0  0
    3.8142    1.8387   19.1917 H   0  0  0  0  0  0  0  0  0  0  0  0
  1  2  1  0
  2  3  2  0
  3  4  1  0
  4  5  1  0
  4  6  2  0
  6  7  1  0
  7  8  2  0
  8  9  1  0
  9 10  1  0
 10 11  2  0
 11 12  1  0
 11 13  1  0
 13 14  1  0
 13 15  1  0
 15 16  2  0
 16 17  1  0
 16 18  1  0
 18 19  1  0
 18 20  2  0
 20 21  1  0
 20 22  1  0
 22 23  1  0
 22 24  2  0
  9 25  2  0
 25 26  1  0
 25 27  1  0
 27 28  1  0
 27 29  2  0
 29 30  1  0
  6 31  1  0
 31 32  1  0
 31 33  2  0
 33 34  1  0
 33  2  1  0
 29  7  1  0
 24 10  1  0
 24 15  1  0
M  END
>  <cnnaffinity>  (1) 
-5.08429

>  <filename>  (1) 
c1cncc(-c2cccc(-c3c[nH]c4ccccc34)n2)c1

$$$$
