
     RDKit          3D

 37 39  0  0  0  0  0  0  0  0999 V2000
    9.2712   -3.3353   21.3172 H   0  0  0  0  0  0  0  0  0  0  0  0
    8.7219   -2.4517   21.6043 C   0  0  0  0  0  0  0  0  0  0  0  0
    8.1007   -1.8084   20.6173 N   0  0  0  0  0  0  0  0  0  0  0  0
    7.4020   -0.7261   20.9704 C   0  0  0  0  0  0  0  0  0  0  0  0
    6.6641   -0.0086   19.9111 C   0  0  0  0  0  0  0  0  0  0  0  0
    7.1777    0.0482   18.6070 C   0  0  0  0  0  0  0  0  0  0  0  0
    8.1237   -0.4315   18.3708 H   0  0  0  0  0  0  0  0  0  0  0  0
    6.5740    0.6761   17.5938 N   0  0  0  0  0  0  0  0  0  0  0  0
    5.4070    1.2874   17.8485 C   0  0  0  0  0  0  0  0  0  0  0  0
    4.9189    1.7740   17.0049 H   0  0  0  0  0  0  0  0  0  0  0  0
    4.8095    1.3037   19.1135 C   0  0  0  0  0  0  0  0  0  0  0  0
    3.8768    1.8412   19.2642 H   0  0  0  0  0  0  0  0  0  0  0  0
    5.4484    0.6481   20.1638 C   0  0  0  0  0  0  0  0  0  0  0  0
    4.9961    0.6326   21.1586 H   0  0  0  0  0  0  0  0  0  0  0  0
    7.3771   -0.2843   22.2871 C   0  0  0  0  0  0  0  0  0  0  0  0
    6.8437    0.6147   22.5566 H   0  0  0  0  0  0  0  0  0  0  0  0
    8.0782   -1.0176   23.2320 C   0  0  0  0  0  0  0  0  0  0  0  0
    8.0556   -0.6067   24.6677 C   0  0  0  0  0  0  0  0  0  0  0  0
    8.9259   -1.0175   25.1800 H   0  0  0  0  0  0  0  0  0  0  0  0
    8.1260    0.4839   24.7533 H   0  0  0  0  0  0  0  0  0  0  0  0
    6.7738   -1.0632   25.3613 C   0  0  0  0  0  0  0  0  0  0  0  0
    6.7717   -0.7069   26.4145 H   0  0  0  0  0  0  0  0  0  0  0  0
    5.9155   -0.5682   24.8839 H   0  0  0  0  0  0  0  0  0  0  0  0
    6.5886   -2.5077   25.3083 N   0  0  0  0  0  0  0  0  0  0  0  0
    7.5349   -3.2491   26.1480 C   0  0  0  0  0  0  0  0  0  0  0  0
    8.4786   -3.4169   25.6133 H   0  0  0  0  0  0  0  0  0  0  0  0
    7.7699   -2.6852   27.0690 H   0  0  0  0  0  0  0  0  0  0  0  0
    6.8406   -4.5687   26.5212 C   0  0  0  0  0  0  0  0  0  0  0  0
    7.2756   -5.4078   25.9735 H   0  0  0  0  0  0  0  0  0  0  0  0
    6.9662   -4.7813   27.5875 H   0  0  0  0  0  0  0  0  0  0  0  0
    5.3626   -4.3799   26.1463 C   0  0  0  0  0  0  0  0  0  0  0  0
    4.6951   -4.5887   26.9874 H   0  0  0  0  0  0  0  0  0  0  0  0
    5.0826   -5.0536   25.3327 H   0  0  0  0  0  0  0  0  0  0  0  0
    5.2438   -2.9185   25.7082 C   0  0  0  0  0  0  0  0  0  0  0  0
    4.5400   -2.8027   24.8742 H   0  0  0  0  0  0  0  0  0  0  0  0
    4.8725   -2.3054   26.5492 H   0  0  0  0  0  0  0  0  0  0  0  0
    8.7559   -2.1214   22.8924 N   0  0  0  0  0  0  0  0  0  0  0  0
  1  2  1  0
  2  3  2  0
  3  4  1  0
  4  5  1  0
  5  6  2  0
  6  7  1  0
  6  8  1  0
  8  9  2  0
  9 10  1  0
  9 11  1  0
 11 12  1  0
 11 13  2  0
 13 14  1  0
  4 15  2  0
 15 16  1  0
 15 17  1  0
 17 18  1  0
 18 19  1  0
 18 20  1  0
 18 21  1  0
 21 22  1  0
 21 23  1  0
 21 24  1  0
 24 25  1  0
 25 26  1  0
 25 27  1  0
 25 28  1  0
 28 29  1  0
 28 30  1  0
 28 31  1  0
 31 32  1  0
 31 33  1  0
 31 34  1  0
 34 35  1  0
 34 36  1  0
 17 37  2  0
 37  2  1  0
 13  5  1  0
 34 24  1  0
M  END
>  <cnnaffinity>  (1) 
-4.87325

>  <filename>  (1) 
c1cncc(-c2cc(CCN3CCCC3)ncn2)c1

$$$$
