
     RDKit          3D

 33 36  0  0  0  0  0  0  0  0999 V2000
    4.9095    1.8174   16.9868 H   0  0  0  0  0  0  0  0  0  0  0  0
    5.4135    1.3109   17.8061 C   0  0  0  0  0  0  0  0  0  0  0  0
    6.5720    0.7084   17.4965 N   0  0  0  0  0  0  0  0  0  0  0  0
    7.2245    0.0744   18.4834 C   0  0  0  0  0  0  0  0  0  0  0  0
    8.1408   -0.4418   18.2025 H   0  0  0  0  0  0  0  0  0  0  0  0
    6.7663    0.0022   19.8230 C   0  0  0  0  0  0  0  0  0  0  0  0
    7.4621   -0.6612   20.8507 N   0  0  0  0  0  0  0  0  0  0  0  0
    7.0051   -1.4344   21.3328 H   0  0  0  0  0  0  0  0  0  0  0  0
    8.8374   -0.5994   21.0637 C   0  0  0  0  0  0  0  0  0  0  0  0
    9.7561    0.4550   20.8525 C   0  0  0  0  0  0  0  0  0  0  0  0
    9.5439    1.4490   20.4876 H   0  0  0  0  0  0  0  0  0  0  0  0
   10.9849    0.1010   21.2145 N   0  0  0  0  0  0  0  0  0  0  0  0
   10.8718   -1.1424   21.6987 N   0  0  0  0  0  0  0  0  0  0  0  0
   11.7357   -1.6249   21.9247 H   0  0  0  0  0  0  0  0  0  0  0  0
    9.5864   -1.6125   21.6494 C   0  0  0  0  0  0  0  0  0  0  0  0
    9.0381   -2.7993   22.2850 C   0  0  0  0  0  0  0  0  0  0  0  0
    7.7836   -3.1806   22.1916 N   0  0  0  0  0  0  0  0  0  0  0  0
    7.6271   -4.1988   23.1111 C   0  0  0  0  0  0  0  0  0  0  0  0
    6.4617   -4.8808   23.5252 C   0  0  0  0  0  0  0  0  0  0  0  0
    5.5126   -4.6691   23.0385 H   0  0  0  0  0  0  0  0  0  0  0  0
    6.5609   -5.7744   24.5916 C   0  0  0  0  0  0  0  0  0  0  0  0
    5.6660   -6.2773   24.9570 H   0  0  0  0  0  0  0  0  0  0  0  0
    7.8070   -6.0207   25.2245 C   0  0  0  0  0  0  0  0  0  0  0  0
    7.8705   -6.7558   26.0287 H   0  0  0  0  0  0  0  0  0  0  0  0
    8.9653   -5.3628   24.8177 C   0  0  0  0  0  0  0  0  0  0  0  0
    9.9096   -5.5399   25.3235 H   0  0  0  0  0  0  0  0  0  0  0  0
    8.8555   -4.4516   23.7573 C   0  0  0  0  0  0  0  0  0  0  0  0
    9.7400   -3.5640   23.1817 N   0  0  0  0  0  0  0  0  0  0  0  0
   10.6963   -3.4280   23.4567 H   0  0  0  0  0  0  0  0  0  0  0  0
    5.5355    0.6115   20.1125 C   0  0  0  0  0  0  0  0  0  0  0  0
    5.1476    0.5618   21.1317 H   0  0  0  0  0  0  0  0  0  0  0  0
    4.8531    1.2826   19.0904 C   0  0  0  0  0  0  0  0  0  0  0  0
    3.9003    1.7733   19.2704 H   0  0  0  0  0  0  0  0  0  0  0  0
  1  2  1  0
  2  3  2  0
  3  4  1  0
  4  5  1  0
  4  6  2  0
  6  7  1  0
  7  8  1  0
  7  9  1  0
  9 10  1  0
 10 11  1  0
 10 12  2  0
 12 13  1  0
 13 14  1  0
 13 15  1  0
 15 16  1  0
 16 17  2  0
 17 18  1  0
 18 19  2  0
 19 20  1  0
 19 21  1  0
 21 22  1  0
 21 23  2  0
 23 24  1  0
 23 25  1  0
 25 26  1  0
 25 27  2  0
 27 28  1  0
 28 29  1  0
  6 30  1  0
 30 31  1  0
 30 32  2  0
 32 33  1  0
 32  2  1  0
 15  9  2  0
 28 16  1  0
 27 18  1  0
M  END
>  <cnnaffinity>  (1) 
-6.005

>  <filename>  (1) 
c1cncc(Nc2cn[nH]c2-c2nc3ccccc3[nH]2)c1

$$$$
