
     RDKit          3D

 33 36  0  0  0  0  0  0  0  0999 V2000
    4.9371    1.7800   16.9910 H   0  0  0  0  0  0  0  0  0  0  0  0
    5.4069    1.2904   17.8428 C   0  0  0  0  0  0  0  0  0  0  0  0
    6.5739    0.6779   17.5963 N   0  0  0  0  0  0  0  0  0  0  0  0
    7.1864    0.0831   18.6294 C   0  0  0  0  0  0  0  0  0  0  0  0
    8.1255   -0.4145   18.3889 H   0  0  0  0  0  0  0  0  0  0  0  0
    6.6777    0.0409   19.9376 C   0  0  0  0  0  0  0  0  0  0  0  0
    7.4352   -0.6898   21.0045 C   0  0  0  0  0  0  0  0  0  0  0  0
    8.5747   -0.0405   21.5598 N   0  0  0  0  0  0  0  0  0  0  0  0
    9.4618   -0.0523   21.0918 H   0  0  0  0  0  0  0  0  0  0  0  0
    8.5475    0.9903   22.4414 C   0  0  0  0  0  0  0  0  0  0  0  0
    9.6051    1.6798   22.7683 N   0  0  0  0  0  0  0  0  0  0  0  0
    9.1390    2.5618   23.7401 C   0  0  0  0  0  0  0  0  0  0  0  0
    9.8208    3.5440   24.4752 C   0  0  0  0  0  0  0  0  0  0  0  0
   10.8828    3.7006   24.3112 H   0  0  0  0  0  0  0  0  0  0  0  0
    9.1004    4.2996   25.4027 C   0  0  0  0  0  0  0  0  0  0  0  0
    9.6063    5.0667   25.9766 H   0  0  0  0  0  0  0  0  0  0  0  0
    7.7208    4.0879   25.6050 C   0  0  0  0  0  0  0  0  0  0  0  0
    7.1843    4.6928   26.3288 H   0  0  0  0  0  0  0  0  0  0  0  0
    7.0292    3.1148   24.8868 C   0  0  0  0  0  0  0  0  0  0  0  0
    5.9691    2.9489   25.0366 H   0  0  0  0  0  0  0  0  0  0  0  0
    7.7526    2.3649   23.9639 C   0  0  0  0  0  0  0  0  0  0  0  0
    7.4084    1.3400   23.0945 N   0  0  0  0  0  0  0  0  0  0  0  0
    6.5382    0.8728   22.9297 H   0  0  0  0  0  0  0  0  0  0  0  0
    6.7098   -1.6082   21.9467 C   0  0  0  0  0  0  0  0  0  0  0  0
    7.0843   -1.6340   22.9655 H   0  0  0  0  0  0  0  0  0  0  0  0
    5.6346   -1.7155   21.8267 H   0  0  0  0  0  0  0  0  0  0  0  0
    7.5786   -2.1748   20.8610 C   0  0  0  0  0  0  0  0  0  0  0  0
    7.0394   -2.6253   20.0345 H   0  0  0  0  0  0  0  0  0  0  0  0
    8.5428   -2.6172   21.1015 H   0  0  0  0  0  0  0  0  0  0  0  0
    5.4496    0.6775   20.1686 C   0  0  0  0  0  0  0  0  0  0  0  0
    5.0103    0.6475   21.1692 H   0  0  0  0  0  0  0  0  0  0  0  0
    4.8057    1.3185   19.1070 C   0  0  0  0  0  0  0  0  0  0  0  0
    3.8650    1.8417   19.2420 H   0  0  0  0  0  0  0  0  0  0  0  0
  1  2  1  0
  2  3  2  0
  3  4  1  0
  4  5  1  0
  4  6  2  0
  6  7  1  0
  7  8  1  0
  8  9  1  0
  8 10  1  0
 10 11  2  0
 11 12  1  0
 12 13  2  0
 13 14  1  0
 13 15  1  0
 15 16  1  0
 15 17  2  0
 17 18  1  0
 17 19  1  0
 19 20  1  0
 19 21  2  0
 21 22  1  0
 22 23  1  0
  7 24  1  0
 24 25  1  0
 24 26  1  0
 24 27  1  0
 27 28  1  0
 27 29  1  0
  6 30  1  0
 30 31  1  0
 30 32  2  0
 32 33  1  0
 32  2  1  0
 27  7  1  0
 22 10  1  0
 21 12  1  0
M  END
>  <cnnaffinity>  (1) 
-4.847

>  <filename>  (1) 
c1cncc(C2(Nc3nc4ccccc4[nH]3)CC2)c1

$$$$
