
     RDKit          3D

 29 31  0  0  0  0  0  0  0  0999 V2000
    4.9703    1.8380   17.0569 H   0  0  0  0  0  0  0  0  0  0  0  0
    5.4446    1.3016   17.8782 C   0  0  0  0  0  0  0  0  0  0  0  0
    6.6090    0.6960   17.5913 N   0  0  0  0  0  0  0  0  0  0  0  0
    7.2106    0.0315   18.5802 C   0  0  0  0  0  0  0  0  0  0  0  0
    8.1650   -0.4382   18.3564 H   0  0  0  0  0  0  0  0  0  0  0  0
    6.6903   -0.0990   19.8807 C   0  0  0  0  0  0  0  0  0  0  0  0
    7.5098   -0.7857   20.7882 O   0  0  0  0  0  0  0  0  0  0  0  0
    7.0460   -1.5505   21.7869 C   0  0  0  0  0  0  0  0  0  0  0  0
    5.9544   -2.2721   21.8204 N   0  0  0  0  0  0  0  0  0  0  0  0
    6.0173   -2.9600   22.9913 N   0  0  0  0  0  0  0  0  0  0  0  0
    7.0833   -2.6879   23.6435 N   0  0  0  0  0  0  0  0  0  0  0  0
    7.7749   -1.7858   22.9181 N   0  0  0  0  0  0  0  0  0  0  0  0
    9.0438   -1.4459   23.4352 N   0  0  0  0  0  0  0  0  0  0  0  0
    8.9225   -1.2316   24.4219 H   0  0  0  0  0  0  0  0  0  0  0  0
    9.8427   -0.4573   22.7279 C   0  0  0  0  0  0  0  0  0  0  0  0
   10.8305   -0.4901   23.1994 H   0  0  0  0  0  0  0  0  0  0  0  0
    9.9683   -0.7987   21.6956 H   0  0  0  0  0  0  0  0  0  0  0  0
    9.3290    0.9628   22.6937 C   0  0  0  0  0  0  0  0  0  0  0  0
    8.7648    1.8024   24.0955 S   0  0  0  0  0  0  0  0  0  0  0  0
    8.3722    3.2027   23.1755 C   0  0  0  0  0  0  0  0  0  0  0  0
    7.8786    4.0453   23.6414 H   0  0  0  0  0  0  0  0  0  0  0  0
    8.7095    3.0555   21.8673 C   0  0  0  0  0  0  0  0  0  0  0  0
    8.5468    3.8357   21.1360 H   0  0  0  0  0  0  0  0  0  0  0  0
    9.2741    1.7742   21.5954 C   0  0  0  0  0  0  0  0  0  0  0  0
    9.6000    1.4414   20.6176 H   0  0  0  0  0  0  0  0  0  0  0  0
    5.4881    0.5401   20.1907 C   0  0  0  0  0  0  0  0  0  0  0  0
    5.0662    0.5034   21.1993 H   0  0  0  0  0  0  0  0  0  0  0  0
    4.8636    1.2511   19.1498 C   0  0  0  0  0  0  0  0  0  0  0  0
    3.9346    1.7841   19.3117 H   0  0  0  0  0  0  0  0  0  0  0  0
  1  2  1  0
  2  3  2  0
  3  4  1  0
  4  5  1  0
  4  6  2  0
  6  7  1  0
  7  8  1  0
  8  9  2  0
  9 10  1  0
 10 11  2  0
 11 12  1  0
 12 13  1  0
 13 14  1  0
 13 15  1  0
 15 16  1  0
 15 17  1  0
 15 18  1  0
 18 19  1  0
 19 20  1  0
 20 21  1  0
 20 22  2  0
 22 23  1  0
 22 24  1  0
 24 25  1  0
  6 26  1  0
 26 27  1  0
 26 28  2  0
 28 29  1  0
 28  2  1  0
 12  8  1  0
 24 18  2  0
M  END
>  <cnnaffinity>  (1) 
-4.97963

>  <filename>  (1) 
c1cncc(Oc2nnnn2NCc2cccs2)c1

$$$$
