
     RDKit          3D

 33 35  0  0  0  0  0  0  0  0999 V2000
    4.9167    1.7844   16.9892 H   0  0  0  0  0  0  0  0  0  0  0  0
    5.3990    1.2973   17.8300 C   0  0  0  0  0  0  0  0  0  0  0  0
    6.5606    0.6778   17.5639 N   0  0  0  0  0  0  0  0  0  0  0  0
    7.1684    0.0762   18.5904 C   0  0  0  0  0  0  0  0  0  0  0  0
    8.1090   -0.4239   18.3672 H   0  0  0  0  0  0  0  0  0  0  0  0
    6.6545    0.0216   19.8938 C   0  0  0  0  0  0  0  0  0  0  0  0
    7.3782   -0.6953   20.9581 C   0  0  0  0  0  0  0  0  0  0  0  0
    8.7576   -0.5579   21.1204 C   0  0  0  0  0  0  0  0  0  0  0  0
    9.3237    0.0957   20.4691 H   0  0  0  0  0  0  0  0  0  0  0  0
    9.3688   -1.2434   22.1620 C   0  0  0  0  0  0  0  0  0  0  0  0
   10.4358   -1.1444   22.3067 H   0  0  0  0  0  0  0  0  0  0  0  0
    8.7280   -2.0509   23.0194 N   0  0  0  0  0  0  0  0  0  0  0  0
    7.4009   -2.1935   22.8584 C   0  0  0  0  0  0  0  0  0  0  0  0
    6.6521   -3.0897   23.8287 C   0  0  0  0  0  0  0  0  0  0  0  0
    5.6175   -3.1415   23.4782 H   0  0  0  0  0  0  0  0  0  0  0  0
    7.2574   -4.5046   23.9232 C   0  0  0  0  0  0  0  0  0  0  0  0
    6.4681   -5.2406   24.1144 H   0  0  0  0  0  0  0  0  0  0  0  0
    7.7338   -4.8009   22.9822 H   0  0  0  0  0  0  0  0  0  0  0  0
    8.2603   -4.4620   25.0950 C   0  0  0  0  0  0  0  0  0  0  0  0
    8.1927   -5.3773   25.6916 H   0  0  0  0  0  0  0  0  0  0  0  0
    9.2855   -4.4083   24.7196 H   0  0  0  0  0  0  0  0  0  0  0  0
    7.9287   -3.2029   25.9260 C   0  0  0  0  0  0  0  0  0  0  0  0
    7.7349   -3.4411   26.9767 H   0  0  0  0  0  0  0  0  0  0  0  0
    8.7730   -2.5087   25.9123 H   0  0  0  0  0  0  0  0  0  0  0  0
    6.6936   -2.5529   25.2744 C   0  0  0  0  0  0  0  0  0  0  0  0
    6.7351   -1.4582   25.3035 H   0  0  0  0  0  0  0  0  0  0  0  0
    5.7788   -2.8372   25.8083 H   0  0  0  0  0  0  0  0  0  0  0  0
    6.7043   -1.5314   21.8447 C   0  0  0  0  0  0  0  0  0  0  0  0
    5.6375   -1.6719   21.7337 H   0  0  0  0  0  0  0  0  0  0  0  0
    5.4278    0.6551   20.1474 C   0  0  0  0  0  0  0  0  0  0  0  0
    5.0104    0.6362   21.1603 H   0  0  0  0  0  0  0  0  0  0  0  0
    4.8013    1.3187   19.0971 C   0  0  0  0  0  0  0  0  0  0  0  0
    3.8682    1.8478   19.2537 H   0  0  0  0  0  0  0  0  0  0  0  0
  1  2  1  0
  2  3  2  0
  3  4  1  0
  4  5  1  0
  4  6  2  0
  6  7  1  0
  7  8  2  0
  8  9  1  0
  8 10  1  0
 10 11  1  0
 10 12  2  0
 12 13  1  0
 13 14  1  0
 14 15  1  0
 14 16  1  0
 16 17  1  0
 16 18  1  0
 16 19  1  0
 19 20  1  0
 19 21  1  0
 19 22  1  0
 22 23  1  0
 22 24  1  0
 22 25  1  0
 25 26  1  0
 25 27  1  0
 13 28  2  0
 28 29  1  0
  6 30  1  0
 30 31  1  0
 30 32  2  0
 32 33  1  0
 32  2  1  0
 28  7  1  0
 25 14  1  0
M  END
>  <cnnaffinity>  (1) 
-5.02719

>  <filename>  (1) 
c1cncc(-c2ccnc(C3CCCC3)c2)c1

$$$$
