
     RDKit          3D

 33 36  0  0  0  0  0  0  0  0999 V2000
    4.9148    1.7882   16.9871 H   0  0  0  0  0  0  0  0  0  0  0  0
    5.3937    1.2984   17.8284 C   0  0  0  0  0  0  0  0  0  0  0  0
    6.5563    0.6835   17.5606 N   0  0  0  0  0  0  0  0  0  0  0  0
    7.1690    0.0746   18.5830 C   0  0  0  0  0  0  0  0  0  0  0  0
    8.1089   -0.4240   18.3537 H   0  0  0  0  0  0  0  0  0  0  0  0
    6.6639    0.0205   19.8939 C   0  0  0  0  0  0  0  0  0  0  0  0
    7.3996   -0.6859   20.9532 C   0  0  0  0  0  0  0  0  0  0  0  0
    8.7541   -0.7704   21.0585 C   0  0  0  0  0  0  0  0  0  0  0  0
    9.4756   -0.3052   20.4056 H   0  0  0  0  0  0  0  0  0  0  0  0
    9.2569   -1.6433   22.4516 S   0  0  0  0  0  0  0  0  0  0  0  0
    7.6111   -1.9646   22.9174 C   0  0  0  0  0  0  0  0  0  0  0  0
    7.2444   -2.6982   24.1440 C   0  0  0  0  0  0  0  0  0  0  0  0
    7.7962   -2.3364   25.3571 C   0  0  0  0  0  0  0  0  0  0  0  0
    8.5392   -1.5417   25.3930 H   0  0  0  0  0  0  0  0  0  0  0  0
    7.4789   -2.8900   26.5558 N   0  0  0  0  0  0  0  0  0  0  0  0
    6.5768   -3.8449   26.5559 C   0  0  0  0  0  0  0  0  0  0  0  0
    6.3260   -4.2792   27.5237 H   0  0  0  0  0  0  0  0  0  0  0  0
    5.9244   -4.3440   25.3919 C   0  0  0  0  0  0  0  0  0  0  0  0
    4.9569   -5.3972   25.4437 C   0  0  0  0  0  0  0  0  0  0  0  0
    4.6926   -5.8275   26.4094 H   0  0  0  0  0  0  0  0  0  0  0  0
    4.3806   -5.8663   24.2892 C   0  0  0  0  0  0  0  0  0  0  0  0
    3.6471   -6.6711   24.3244 H   0  0  0  0  0  0  0  0  0  0  0  0
    4.7433   -5.3153   23.0262 C   0  0  0  0  0  0  0  0  0  0  0  0
    4.2910   -5.7051   22.1165 H   0  0  0  0  0  0  0  0  0  0  0  0
    5.6715   -4.2984   22.9484 C   0  0  0  0  0  0  0  0  0  0  0  0
    5.9743   -3.8892   21.9889 H   0  0  0  0  0  0  0  0  0  0  0  0
    6.2768   -3.7639   24.1332 C   0  0  0  0  0  0  0  0  0  0  0  0
    6.7629   -1.3794   22.0225 C   0  0  0  0  0  0  0  0  0  0  0  0
    5.6907   -1.4767   22.0650 H   0  0  0  0  0  0  0  0  0  0  0  0
    5.4355    0.6542   20.1457 C   0  0  0  0  0  0  0  0  0  0  0  0
    5.0223    0.6376   21.1585 H   0  0  0  0  0  0  0  0  0  0  0  0
    4.8003    1.3158   19.0965 C   0  0  0  0  0  0  0  0  0  0  0  0
    3.8707    1.8453   19.2522 H   0  0  0  0  0  0  0  0  0  0  0  0
  1  2  1  0
  2  3  2  0
  3  4  1  0
  4  5  1  0
  4  6  2  0
  6  7  1  0
  7  8  2  0
  8  9  1  0
  8 10  1  0
 10 11  1  0
 11 12  1  0
 12 13  2  0
 13 14  1  0
 13 15  1  0
 15 16  2  0
 16 17  1  0
 16 18  1  0
 18 19  2  0
 19 20  1  0
 19 21  1  0
 21 22  1  0
 21 23  2  0
 23 24  1  0
 23 25  1  0
 25 26  1  0
 25 27  2  0
 11 28  2  0
 28 29  1  0
  6 30  1  0
 30 31  1  0
 30 32  2  0
 32 33  1  0
 32  2  1  0
 28  7  1  0
 27 12  1  0
 27 18  1  0
M  END
>  <cnnaffinity>  (1) 
-5.48921

>  <filename>  (1) 
c1cncc(-c2csc(-c3cncc4ccccc34)c2)c1

$$$$
