
     RDKit          3D

 34 37  0  0  0  0  0  0  0  0999 V2000
    4.9139    1.8189   16.9711 H   0  0  0  0  0  0  0  0  0  0  0  0
    5.3824    1.3089   17.8132 C   0  0  0  0  0  0  0  0  0  0  0  0
    6.5425    0.6883   17.5476 N   0  0  0  0  0  0  0  0  0  0  0  0
    7.1534    0.0628   18.5598 C   0  0  0  0  0  0  0  0  0  0  0  0
    8.1105   -0.3925   18.3109 H   0  0  0  0  0  0  0  0  0  0  0  0
    6.6593   -0.0007   19.8785 C   0  0  0  0  0  0  0  0  0  0  0  0
    7.4139   -0.6863   20.9502 C   0  0  0  0  0  0  0  0  0  0  0  0
    7.7056   -0.2844   22.2406 C   0  0  0  0  0  0  0  0  0  0  0  0
    7.3323    1.0181   22.8996 C   0  0  0  0  0  0  0  0  0  0  0  0
    8.1463    1.3588   23.5522 H   0  0  0  0  0  0  0  0  0  0  0  0
    7.1970    1.8028   22.1487 H   0  0  0  0  0  0  0  0  0  0  0  0
    6.0657    0.9704   23.7117 C   0  0  0  0  0  0  0  0  0  0  0  0
    5.9309   -0.0399   24.6281 O   0  0  0  0  0  0  0  0  0  0  0  0
    4.7220    0.1406   25.2463 C   0  0  0  0  0  0  0  0  0  0  0  0
    4.1422   -0.6693   26.2301 C   0  0  0  0  0  0  0  0  0  0  0  0
    4.6437   -1.5587   26.6011 H   0  0  0  0  0  0  0  0  0  0  0  0
    2.8884   -0.2722   26.6997 C   0  0  0  0  0  0  0  0  0  0  0  0
    2.3949   -0.8570   27.4709 H   0  0  0  0  0  0  0  0  0  0  0  0
    2.2400    0.8789   26.2025 C   0  0  0  0  0  0  0  0  0  0  0  0
    1.2682    1.1576   26.5958 H   0  0  0  0  0  0  0  0  0  0  0  0
    2.8320    1.6628   25.2187 C   0  0  0  0  0  0  0  0  0  0  0  0
    2.3503    2.5496   24.8190 H   0  0  0  0  0  0  0  0  0  0  0  0
    4.0943    1.2867   24.7295 C   0  0  0  0  0  0  0  0  0  0  0  0
    4.9946    1.8013   23.7323 C   0  0  0  0  0  0  0  0  0  0  0  0
    4.8596    2.6855   23.1219 H   0  0  0  0  0  0  0  0  0  0  0  0
    8.3939   -1.3792   22.8112 C   0  0  0  0  0  0  0  0  0  0  0  0
    8.7680   -1.4810   23.8235 H   0  0  0  0  0  0  0  0  0  0  0  0
    8.5421   -2.3786   21.9486 N   0  0  0  0  0  0  0  0  0  0  0  0
    7.9538   -1.9288   20.8287 N   0  0  0  0  0  0  0  0  0  0  0  0
    7.9057   -2.5228   20.0129 H   0  0  0  0  0  0  0  0  0  0  0  0
    5.4376    0.6487   20.1302 C   0  0  0  0  0  0  0  0  0  0  0  0
    5.0103    0.6285   21.1336 H   0  0  0  0  0  0  0  0  0  0  0  0
    4.7924    1.3134   19.0822 C   0  0  0  0  0  0  0  0  0  0  0  0
    3.8611    1.8479   19.2335 H   0  0  0  0  0  0  0  0  0  0  0  0
  1  2  1  0
  2  3  2  0
  3  4  1  0
  4  5  1  0
  4  6  2  0
  6  7  1  0
  7  8  2  0
  8  9  1  0
  9 10  1  0
  9 11  1  0
  9 12  1  0
 12 13  1  0
 13 14  1  0
 14 15  2  0
 15 16  1  0
 15 17  1  0
 17 18  1  0
 17 19  2  0
 19 20  1  0
 19 21  1  0
 21 22  1  0
 21 23  2  0
 23 24  1  0
 24 25  1  0
  8 26  1  0
 26 27  1  0
 26 28  2  0
 28 29  1  0
 29 30  1  0
  6 31  1  0
 31 32  1  0
 31 33  2  0
 33 34  1  0
 33  2  1  0
 29  7  1  0
 24 12  2  0
 23 14  1  0
M  END
>  <cnnaffinity>  (1) 
-5.13526

>  <filename>  (1) 
c1cncc(-c2[nH]ncc2Cc2cc3ccccc3o2)c1

$$$$
