
     RDKit          3D

 37 39  0  0  0  0  0  0  0  0999 V2000
    4.9278    1.8226   16.9654 H   0  0  0  0  0  0  0  0  0  0  0  0
    5.3894    1.3093   17.8052 C   0  0  0  0  0  0  0  0  0  0  0  0
    6.5478    0.6797   17.5570 N   0  0  0  0  0  0  0  0  0  0  0  0
    7.1520    0.0681   18.5889 C   0  0  0  0  0  0  0  0  0  0  0  0
    8.0949   -0.4251   18.3541 H   0  0  0  0  0  0  0  0  0  0  0  0
    6.6376    0.0187   19.9000 C   0  0  0  0  0  0  0  0  0  0  0  0
    7.3816   -0.6684   20.9861 C   0  0  0  0  0  0  0  0  0  0  0  0
    8.7013   -0.5586   21.4021 C   0  0  0  0  0  0  0  0  0  0  0  0
    9.7213    0.4396   20.9220 C   0  0  0  0  0  0  0  0  0  0  0  0
   10.7327    0.0267   21.0383 H   0  0  0  0  0  0  0  0  0  0  0  0
    9.5729    0.5881   19.8467 H   0  0  0  0  0  0  0  0  0  0  0  0
    9.6589    1.8356   21.5904 C   0  0  0  0  0  0  0  0  0  0  0  0
   10.4060    2.4585   21.0709 H   0  0  0  0  0  0  0  0  0  0  0  0
    8.2893    2.5110   21.3964 C   0  0  0  0  0  0  0  0  0  0  0  0
    7.5417    1.9310   21.9541 H   0  0  0  0  0  0  0  0  0  0  0  0
    7.9960    2.4280   20.3449 H   0  0  0  0  0  0  0  0  0  0  0  0
    8.2351    3.9704   21.9344 C   0  0  0  0  0  0  0  0  0  0  0  0
    7.2356    4.1373   22.3550 H   0  0  0  0  0  0  0  0  0  0  0  0
    8.3466    4.7242   21.1458 H   0  0  0  0  0  0  0  0  0  0  0  0
    9.2987    4.2507   23.0211 C   0  0  0  0  0  0  0  0  0  0  0  0
    9.0080    5.1216   23.6213 H   0  0  0  0  0  0  0  0  0  0  0  0
   10.2502    4.5208   22.5426 H   0  0  0  0  0  0  0  0  0  0  0  0
    9.5051    3.0127   23.9015 C   0  0  0  0  0  0  0  0  0  0  0  0
    8.5355    2.7442   24.3464 H   0  0  0  0  0  0  0  0  0  0  0  0
   10.1759    3.2333   24.7370 H   0  0  0  0  0  0  0  0  0  0  0  0
   10.0440    1.8065   23.0926 C   0  0  0  0  0  0  0  0  0  0  0  0
   11.1373    1.7507   23.1656 H   0  0  0  0  0  0  0  0  0  0  0  0
    9.6664    0.8853   23.5524 H   0  0  0  0  0  0  0  0  0  0  0  0
    8.8099   -1.5027   22.4549 C   0  0  0  0  0  0  0  0  0  0  0  0
    9.6758   -1.7477   23.0550 H   0  0  0  0  0  0  0  0  0  0  0  0
    7.6666   -2.1397   22.6903 N   0  0  0  0  0  0  0  0  0  0  0  0
    6.8178   -1.6025   21.7983 N   0  0  0  0  0  0  0  0  0  0  0  0
    5.8600   -1.9124   21.7705 H   0  0  0  0  0  0  0  0  0  0  0  0
    5.4090    0.6677   20.1230 C   0  0  0  0  0  0  0  0  0  0  0  0
    4.9663    0.6769   21.1192 H   0  0  0  0  0  0  0  0  0  0  0  0
    4.7788    1.3255   19.0635 C   0  0  0  0  0  0  0  0  0  0  0  0
    3.8443    1.8637   19.2007 H   0  0  0  0  0  0  0  0  0  0  0  0
  1  2  1  0
  2  3  2  0
  3  4  1  0
  4  5  1  0
  4  6  2  0
  6  7  1  0
  7  8  2  0
  8  9  1  0
  9 10  1  0
  9 11  1  0
  9 12  1  0
 12 13  1  0
 12 14  1  0
 14 15  1  0
 14 16  1  0
 14 17  1  0
 17 18  1  0
 17 19  1  0
 17 20  1  0
 20 21  1  0
 20 22  1  0
 20 23  1  0
 23 24  1  0
 23 25  1  0
 23 26  1  0
 26 27  1  0
 26 28  1  0
  8 29  1  0
 29 30  1  0
 29 31  2  0
 31 32  1  0
 32 33  1  0
  6 34  1  0
 34 35  1  0
 34 36  2  0
 36 37  1  0
 36  2  1  0
 32  7  1  0
 26 12  1  0
M  END
>  <cnnaffinity>  (1) 
-5.53206

>  <filename>  (1) 
c1cncc(-c2[nH]ncc2CC2CCCCC2)c1

$$$$
