
     RDKit          3D

 44 48  0  0  0  0  0  0  0  0999 V2000
    4.9521    1.8514   16.9336 H   0  0  0  0  0  0  0  0  0  0  0  0
    5.4021    1.3157   17.7663 C   0  0  0  0  0  0  0  0  0  0  0  0
    6.5400    0.6568   17.5022 N   0  0  0  0  0  0  0  0  0  0  0  0
    7.1258    0.0116   18.5141 C   0  0  0  0  0  0  0  0  0  0  0  0
    8.0429   -0.5246   18.2770 H   0  0  0  0  0  0  0  0  0  0  0  0
    6.6296    0.0008   19.8302 C   0  0  0  0  0  0  0  0  0  0  0  0
    7.3791   -0.6603   20.9066 C   0  0  0  0  0  0  0  0  0  0  0  0
    8.1923   -1.7050   20.7263 N   0  0  0  0  0  0  0  0  0  0  0  0
    8.6742   -1.9260   21.9503 N   0  0  0  0  0  0  0  0  0  0  0  0
    8.2563   -1.0963   22.9102 C   0  0  0  0  0  0  0  0  0  0  0  0
    7.3727   -0.2424   22.2839 C   0  0  0  0  0  0  0  0  0  0  0  0
    6.7710    0.9214   22.7748 N   0  0  0  0  0  0  0  0  0  0  0  0
    6.3707    0.8940   24.1782 C   0  0  0  0  0  0  0  0  0  0  0  0
    7.2440    0.7843   24.8475 H   0  0  0  0  0  0  0  0  0  0  0  0
    5.7316    0.0233   24.3596 H   0  0  0  0  0  0  0  0  0  0  0  0
    5.6077    2.1536   24.5524 C   0  0  0  0  0  0  0  0  0  0  0  0
    4.8225    2.1829   25.7136 C   0  0  0  0  0  0  0  0  0  0  0  0
    4.7529    1.2946   26.3422 H   0  0  0  0  0  0  0  0  0  0  0  0
    4.1287    3.3415   26.0690 C   0  0  0  0  0  0  0  0  0  0  0  0
    3.5162    3.3530   26.9651 H   0  0  0  0  0  0  0  0  0  0  0  0
    4.2180    4.4838   25.2656 C   0  0  0  0  0  0  0  0  0  0  0  0
    3.6730    5.3847   25.5298 H   0  0  0  0  0  0  0  0  0  0  0  0
    5.0067    4.4633   24.1141 C   0  0  0  0  0  0  0  0  0  0  0  0
    5.0748    5.3444   23.4779 H   0  0  0  0  0  0  0  0  0  0  0  0
    5.7077    3.3094   23.7478 C   0  0  0  0  0  0  0  0  0  0  0  0
    6.5146    3.2899   22.4619 C   0  0  0  0  0  0  0  0  0  0  0  0
    5.8257    3.1379   21.6178 H   0  0  0  0  0  0  0  0  0  0  0  0
    7.0275    4.2421   22.2951 H   0  0  0  0  0  0  0  0  0  0  0  0
    7.5099    2.1444   22.4390 C   0  0  0  0  0  0  0  0  0  0  0  0
    7.9489    2.0399   21.4415 H   0  0  0  0  0  0  0  0  0  0  0  0
    8.3438    2.2973   23.1498 H   0  0  0  0  0  0  0  0  0  0  0  0
    9.0152   -1.3275   24.1856 C   0  0  0  0  0  0  0  0  0  0  0  0
    8.3478   -1.6435   24.9963 H   0  0  0  0  0  0  0  0  0  0  0  0
    9.5361   -0.4187   24.5116 H   0  0  0  0  0  0  0  0  0  0  0  0
   10.0352   -2.4288   23.7806 C   0  0  0  0  0  0  0  0  0  0  0  0
   10.0718   -3.2386   24.5097 H   0  0  0  0  0  0  0  0  0  0  0  0
   11.0261   -1.9947   23.7027 H   0  0  0  0  0  0  0  0  0  0  0  0
    9.6441   -2.9054   22.3555 C   0  0  0  0  0  0  0  0  0  0  0  0
   10.4904   -2.8559   21.6699 H   0  0  0  0  0  0  0  0  0  0  0  0
    9.1958   -3.9033   22.3262 H   0  0  0  0  0  0  0  0  0  0  0  0
    5.4264    0.6860   20.0862 C   0  0  0  0  0  0  0  0  0  0  0  0
    4.9906    0.7074   21.0869 H   0  0  0  0  0  0  0  0  0  0  0  0
    4.7987    1.3382   19.0296 C   0  0  0  0  0  0  0  0  0  0  0  0
    3.8646    1.8726   19.1671 H   0  0  0  0  0  0  0  0  0  0  0  0
  1  2  1  0
  2  3  2  0
  3  4  1  0
  4  5  1  0
  4  6  2  0
  6  7  1  0
  7  8  2  0
  8  9  1  0
  9 10  1  0
 10 11  2  0
 11 12  1  0
 12 13  1  0
 13 14  1  0
 13 15  1  0
 13 16  1  0
 16 17  2  0
 17 18  1  0
 17 19  1  0
 19 20  1  0
 19 21  2  0
 21 22  1  0
 21 23  1  0
 23 24  1  0
 23 25  2  0
 25 26  1  0
 26 27  1  0
 26 28  1  0
 26 29  1  0
 29 30  1  0
 29 31  1  0
 10 32  1  0
 32 33  1  0
 32 34  1  0
 32 35  1  0
 35 36  1  0
 35 37  1  0
 35 38  1  0
 38 39  1  0
 38 40  1  0
  6 41  1  0
 41 42  1  0
 41 43  2  0
 43 44  1  0
 43  2  1  0
 11  7  1  0
 29 12  1  0
 38  9  1  0
 25 16  1  0
M  END
>  <cnnaffinity>  (1) 
-5.73945

>  <filename>  (1) 
c1cncc(-c2nn3c(c2N2CCc4ccccc4C2)CCC3)c1

$$$$
