
     RDKit          3D

 40 42  0  0  0  0  0  0  0  0999 V2000
    4.8059    1.3099   19.1100 C   0  0  0  0  0  0  0  0  0  0  0  0
    5.4059    1.2887   17.8443 C   0  0  0  0  0  0  0  0  0  0  0  0
    6.5718    0.6755   17.5825 N   0  0  0  0  0  0  0  0  0  0  0  0
    7.1844    0.0587   18.5993 C   0  0  0  0  0  0  0  0  0  0  0  0
    6.6643    0.0079   19.9035 C   0  0  0  0  0  0  0  0  0  0  0  0
    7.3802   -0.7006   20.9623 C   0  0  0  0  0  0  0  0  0  0  0  0
    6.9611   -0.8906   22.2489 C   0  0  0  0  0  0  0  0  0  0  0  0
    7.9581   -1.5911   22.8817 N   0  0  0  0  0  0  0  0  0  0  0  0
    7.9030   -2.1256   24.2318 C   0  0  0  0  0  0  0  0  0  0  0  0
    7.2634   -3.5136   24.2796 C   0  0  0  0  0  0  0  0  0  0  0  0
    7.0389   -4.0567   25.6937 C   0  0  0  0  0  0  0  0  0  0  0  0
    8.3600   -4.3526   26.4292 C   0  0  0  0  0  0  0  0  0  0  0  0
    8.1296   -4.9523   27.8174 C   0  0  0  0  0  0  0  0  0  0  0  0
    7.2263   -6.1800   27.7673 C   0  0  0  0  0  0  0  0  0  0  0  0
    5.9059   -5.8959   27.0497 C   0  0  0  0  0  0  0  0  0  0  0  0
    6.1420   -5.3070   25.6565 C   0  0  0  0  0  0  0  0  0  0  0  0
    5.1798   -5.0657   25.1851 H   0  0  0  0  0  0  0  0  0  0  0  0
    6.6209   -6.0628   25.0169 H   0  0  0  0  0  0  0  0  0  0  0  0
    5.3278   -5.1771   27.6460 H   0  0  0  0  0  0  0  0  0  0  0  0
    5.3033   -6.8082   26.9758 H   0  0  0  0  0  0  0  0  0  0  0  0
    7.0411   -6.5711   28.7735 H   0  0  0  0  0  0  0  0  0  0  0  0
    7.7720   -6.9434   27.2155 H   0  0  0  0  0  0  0  0  0  0  0  0
    9.0884   -5.2009   28.2848 H   0  0  0  0  0  0  0  0  0  0  0  0
    7.6503   -4.2042   28.4482 H   0  0  0  0  0  0  0  0  0  0  0  0
    8.9505   -5.0600   25.8270 H   0  0  0  0  0  0  0  0  0  0  0  0
    8.9669   -3.4435   26.5246 H   0  0  0  0  0  0  0  0  0  0  0  0
    6.4983   -3.2876   26.2725 H   0  0  0  0  0  0  0  0  0  0  0  0
    7.8916   -4.2126   23.7131 H   0  0  0  0  0  0  0  0  0  0  0  0
    6.3043   -3.4650   23.7501 H   0  0  0  0  0  0  0  0  0  0  0  0
    8.9184   -2.1415   24.6361 H   0  0  0  0  0  0  0  0  0  0  0  0
    7.3303   -1.4268   24.8528 H   0  0  0  0  0  0  0  0  0  0  0  0
    8.9120   -1.8180   21.9349 C   0  0  0  0  0  0  0  0  0  0  0  0
    8.6079   -1.2917   20.7742 N   0  0  0  0  0  0  0  0  0  0  0  0
    9.8130   -2.3813   22.1538 H   0  0  0  0  0  0  0  0  0  0  0  0
    6.0469   -0.5945   22.7438 H   0  0  0  0  0  0  0  0  0  0  0  0
    5.4416    0.6524   20.1574 C   0  0  0  0  0  0  0  0  0  0  0  0
    4.9994    0.6383   21.1552 H   0  0  0  0  0  0  0  0  0  0  0  0
    8.1283   -0.4328   18.3808 H   0  0  0  0  0  0  0  0  0  0  0  0
    4.9137    1.7734   17.0041 H   0  0  0  0  0  0  0  0  0  0  0  0
    3.8728    1.8435   19.2654 H   0  0  0  0  0  0  0  0  0  0  0  0
  1  2  2  0
  2  3  1  0
  3  4  2  0
  4  5  1  0
  5  6  1  0
  6  7  2  0
  7  8  1  0
  8  9  1  0
  9 10  1  0
 10 11  1  0
 11 12  1  0
 12 13  1  0
 13 14  1  0
 14 15  1  0
 15 16  1  0
 16 17  1  0
 16 18  1  0
 15 19  1  0
 15 20  1  0
 14 21  1  0
 14 22  1  0
 13 23  1  0
 13 24  1  0
 12 25  1  0
 12 26  1  0
 11 27  1  0
 10 28  1  0
 10 29  1  0
  9 30  1  0
  9 31  1  0
  8 32  1  0
 32 33  2  0
 32 34  1  0
  7 35  1  0
  5 36  2  0
 36 37  1  0
  4 38  1  0
  2 39  1  0
  1 40  1  0
 36  1  1  0
 33  6  1  0
 16 11  1  0
M  END
>  <cnnaffinity>  (1) 
-5.17192

>  <filename>  (1) 
c1cncc(-c2cn(CCC3CCCCC3)cn2)c1

$$$$
