
     RDKit          3D

 31 34  0  0  0  0  0  0  0  0999 V2000
    4.9413    1.8141   16.9672 H   0  0  0  0  0  0  0  0  0  0  0  0
    5.3987    1.3131   17.8141 C   0  0  0  0  0  0  0  0  0  0  0  0
    6.5660    0.6971   17.5715 N   0  0  0  0  0  0  0  0  0  0  0  0
    7.1564    0.0875   18.6076 C   0  0  0  0  0  0  0  0  0  0  0  0
    8.1099   -0.3926   18.3867 H   0  0  0  0  0  0  0  0  0  0  0  0
    6.6364    0.0473   19.9265 C   0  0  0  0  0  0  0  0  0  0  0  0
    7.3381   -0.6917   21.0216 C   0  0  0  0  0  0  0  0  0  0  0  0
    7.7948   -1.9893   21.0875 C   0  0  0  0  0  0  0  0  0  0  0  0
    7.7394   -2.7805   20.3734 H   0  0  0  0  0  0  0  0  0  0  0  0
    8.3020   -2.2469   22.3151 N   0  0  0  0  0  0  0  0  0  0  0  0
    8.1784   -1.1942   23.0454 N   0  0  0  0  0  0  0  0  0  0  0  0
    7.5806   -0.2409   22.3036 N   0  0  0  0  0  0  0  0  0  0  0  0
    7.2435    0.9931   22.9230 C   0  0  0  0  0  0  0  0  0  0  0  0
    6.6765    0.9803   24.2310 C   0  0  0  0  0  0  0  0  0  0  0  0
    6.5296    0.0184   24.7146 H   0  0  0  0  0  0  0  0  0  0  0  0
    6.3275    2.1665   24.8546 C   0  0  0  0  0  0  0  0  0  0  0  0
    5.8853    2.1405   25.8477 H   0  0  0  0  0  0  0  0  0  0  0  0
    6.5492    3.3900   24.1743 C   0  0  0  0  0  0  0  0  0  0  0  0
    6.3340    4.7804   24.4687 C   0  0  0  0  0  0  0  0  0  0  0  0
    5.9296    5.1762   25.3859 H   0  0  0  0  0  0  0  0  0  0  0  0
    6.7449    5.5027   23.3821 C   0  0  0  0  0  0  0  0  0  0  0  0
    6.7458    6.5717   23.2124 H   0  0  0  0  0  0  0  0  0  0  0  0
    7.2171    4.6376   22.4157 N   0  0  0  0  0  0  0  0  0  0  0  0
    7.5375    4.8827   21.4954 H   0  0  0  0  0  0  0  0  0  0  0  0
    7.1087    3.3520   22.8711 C   0  0  0  0  0  0  0  0  0  0  0  0
    7.4624    2.1677   22.2252 C   0  0  0  0  0  0  0  0  0  0  0  0
    7.8388    2.1516   21.2068 H   0  0  0  0  0  0  0  0  0  0  0  0
    5.3939    0.6817   20.1337 C   0  0  0  0  0  0  0  0  0  0  0  0
    4.9419    0.6841   21.1284 H   0  0  0  0  0  0  0  0  0  0  0  0
    4.7723    1.3265   19.0630 C   0  0  0  0  0  0  0  0  0  0  0  0
    3.8234    1.8398   19.1835 H   0  0  0  0  0  0  0  0  0  0  0  0
  1  2  1  0
  2  3  2  0
  3  4  1  0
  4  5  1  0
  4  6  2  0
  6  7  1  0
  7  8  2  0
  8  9  1  0
  8 10  1  0
 10 11  2  0
 11 12  1  0
 12 13  1  0
 13 14  2  0
 14 15  1  0
 14 16  1  0
 16 17  1  0
 16 18  2  0
 18 19  1  0
 19 20  1  0
 19 21  2  0
 21 22  1  0
 21 23  1  0
 23 24  1  0
 23 25  1  0
 25 26  2  0
 26 27  1  0
  6 28  1  0
 28 29  1  0
 28 30  2  0
 30 31  1  0
 30  2  1  0
 12  7  1  0
 26 13  1  0
 25 18  1  0
M  END
>  <cnnaffinity>  (1) 
-5.07458

>  <filename>  (1) 
c1cncc(-c2cnnn2-c2ccc3cc[nH]c3c2)c1

$$$$
