
     RDKit          3D

 41 44  0  0  0  0  0  0  0  0999 V2000
    4.9917    1.3093   16.6532 H   0  0  0  0  0  0  0  0  0  0  0  0
    5.3553    0.8613   17.5742 C   0  0  0  0  0  0  0  0  0  0  0  0
    6.3495   -0.0290   17.4399 N   0  0  0  0  0  0  0  0  0  0  0  0
    6.8340   -0.5869   18.5531 C   0  0  0  0  0  0  0  0  0  0  0  0
    7.6376   -1.3075   18.4195 H   0  0  0  0  0  0  0  0  0  0  0  0
    6.3910   -0.2649   19.8454 C   0  0  0  0  0  0  0  0  0  0  0  0
    7.1043   -0.8207   20.9914 C   0  0  0  0  0  0  0  0  0  0  0  0
    7.5107   -2.1313   21.0116 N   0  0  0  0  0  0  0  0  0  0  0  0
    8.1016   -2.2549   22.1636 C   0  0  0  0  0  0  0  0  0  0  0  0
    8.1937   -1.0941   22.8634 N   0  0  0  0  0  0  0  0  0  0  0  0
    7.5218   -0.1509   22.1296 C   0  0  0  0  0  0  0  0  0  0  0  0
    7.3276    1.2765   22.5475 C   0  0  0  0  0  0  0  0  0  0  0  0
    6.5824    1.3147   23.3520 H   0  0  0  0  0  0  0  0  0  0  0  0
    6.9018    1.8277   21.6888 H   0  0  0  0  0  0  0  0  0  0  0  0
    8.5069    2.0065   23.0284 N   0  0  0  0  0  0  0  0  0  0  0  0
    8.3428    2.9050   24.1703 C   0  0  0  0  0  0  0  0  0  0  0  0
    7.7113    2.4028   24.9093 H   0  0  0  0  0  0  0  0  0  0  0  0
    9.3313    3.0346   24.6438 H   0  0  0  0  0  0  0  0  0  0  0  0
    7.7541    4.3178   23.8268 C   0  0  0  0  0  0  0  0  0  0  0  0
    6.6968    4.2248   23.5418 H   0  0  0  0  0  0  0  0  0  0  0  0
    7.8013    4.9464   24.7217 H   0  0  0  0  0  0  0  0  0  0  0  0
    8.5820    4.9128   22.6662 C   0  0  0  0  0  0  0  0  0  0  0  0
    9.3514    5.6227   22.9885 H   0  0  0  0  0  0  0  0  0  0  0  0
    7.9827    5.3140   21.8377 H   0  0  0  0  0  0  0  0  0  0  0  0
    9.4548    2.4560   21.9737 C   0  0  0  0  0  0  0  0  0  0  0  0
    9.3208    3.6888   22.1363 H   0  0  0  0  0  0  0  0  0  0  0  0
    8.5237    2.5218   20.5673 H   0  0  0  0  0  0  0  0  0  0  0  0
    9.6209    2.4684   22.2096 C   0  0  0  0  0  0  0  0  0  0  0  0
    9.8490    1.3147   21.8366 H   0  0  0  0  0  0  0  0  0  0  0  0
   10.5524    2.6876   21.3515 H   0  0  0  0  0  0  0  0  0  0  0  0
    8.7509   -1.1696   24.2003 C   0  0  0  0  0  0  0  0  0  0  0  0
    7.9482   -1.2298   24.9462 H   0  0  0  0  0  0  0  0  0  0  0  0
    9.3538   -0.2826   24.4036 H   0  0  0  0  0  0  0  0  0  0  0  0
    9.5959   -2.4586   24.1989 C   0  0  0  0  0  0  0  0  0  0  0  0
   10.6180   -2.2688   23.8608 H   0  0  0  0  0  0  0  0  0  0  0  0
    9.6425   -2.9329   25.1817 H   0  0  0  0  0  0  0  0  0  0  0  0
    8.8006   -3.6163   23.0183 S   0  0  0  0  0  0  0  0  0  0  0  0
    5.3141    0.6302   19.9618 C   0  0  0  0  0  0  0  0  0  0  0  0
    4.8913    0.8673   20.9389 H   0  0  0  0  0  0  0  0  0  0  0  0
    4.7930    1.2069   18.8061 C   0  0  0  0  0  0  0  0  0  0  0  0
    3.9868    1.9291   18.8490 H   0  0  0  0  0  0  0  0  0  0  0  0
  1  2  1  0
  2  3  2  0
  3  4  1  0
  4  5  1  0
  4  6  2  0
  6  7  1  0
  7  8  1  0
  8  9  2  0
  9 10  1  0
 10 11  1  0
 11 12  1  0
 12 13  1  0
 12 14  1  0
 12 15  1  0
 15 16  1  0
 16 17  1  0
 16 18  1  0
 16 19  1  0
 19 20  1  0
 19 21  1  0
 19 22  1  0
 22 23  1  0
 22 24  1  0
 22 25  1  0
 25 26  1  0
 25 27  1  0
 25 28  1  0
 28 29  1  0
 28 30  1  0
 10 31  1  0
 31 32  1  0
 31 33  1  0
 31 34  1  0
 34 35  1  0
 34 36  1  0
 34 37  1  0
  6 38  1  0
 38 39  1  0
 38 40  2  0
 40 41  1  0
 40  2  1  0
 11  7  2  0
 28 15  1  0
 37  9  1  0
M  END
>  <cnnaffinity>  (1) 
-5.57762

>  <filename>  (1) 
c1cncc(-c2nc3n(c2CN2CCCCC2)CCS3)c1

$$$$
