
     RDKit          3D

 40 43  0  0  0  0  0  0  0  0999 V2000
    4.9796    1.7993   16.9389 H   0  0  0  0  0  0  0  0  0  0  0  0
    5.4137    1.2820   17.7914 C   0  0  0  0  0  0  0  0  0  0  0  0
    6.5661    0.6296   17.5737 N   0  0  0  0  0  0  0  0  0  0  0  0
    7.1426    0.0186   18.6137 C   0  0  0  0  0  0  0  0  0  0  0  0
    8.0816   -0.4899   18.4005 H   0  0  0  0  0  0  0  0  0  0  0  0
    6.6170    0.0429   19.9214 C   0  0  0  0  0  0  0  0  0  0  0  0
    7.3494   -0.5934   21.0232 C   0  0  0  0  0  0  0  0  0  0  0  0
    8.1955   -1.6707   20.8072 N   0  0  0  0  0  0  0  0  0  0  0  0
    8.6140   -1.9998   21.9922 C   0  0  0  0  0  0  0  0  0  0  0  0
    9.6444   -3.2500   22.6278 S   0  0  0  0  0  0  0  0  0  0  0  0
    9.4740   -2.6091   24.2396 C   0  0  0  0  0  0  0  0  0  0  0  0
   10.0244   -3.0902   25.0398 H   0  0  0  0  0  0  0  0  0  0  0  0
    8.6669   -1.5387   24.2780 C   0  0  0  0  0  0  0  0  0  0  0  0
    8.4215   -0.9707   25.1672 H   0  0  0  0  0  0  0  0  0  0  0  0
    8.1535   -1.1870   23.0161 N   0  0  0  0  0  0  0  0  0  0  0  0
    7.3304   -0.2636   22.3684 C   0  0  0  0  0  0  0  0  0  0  0  0
    6.6903    0.7755   22.9168 O   0  0  0  0  0  0  0  0  0  0  0  0
    6.6177    0.9578   24.3421 C   0  0  0  0  0  0  0  0  0  0  0  0
    6.3284    2.0018   24.4822 H   0  0  0  0  0  0  0  0  0  0  0  0
    7.6030    0.8469   24.7917 H   0  0  0  0  0  0  0  0  0  0  0  0
    5.5779    0.0102   24.9310 C   0  0  0  0  0  0  0  0  0  0  0  0
    5.8077   -1.0332   24.6365 H   0  0  0  0  0  0  0  0  0  0  0  0
    4.6405    0.2592   24.4212 H   0  0  0  0  0  0  0  0  0  0  0  0
    5.3479    0.1649   26.3613 N   0  0  0  0  0  0  0  0  0  0  0  0
    4.1602   -0.5603   26.7918 C   0  0  0  0  0  0  0  0  0  0  0  0
    3.2671   -0.0306   26.4373 H   0  0  0  0  0  0  0  0  0  0  0  0
    4.1272   -1.5891   26.3815 H   0  0  0  0  0  0  0  0  0  0  0  0
    4.2473   -0.6201   28.3183 C   0  0  0  0  0  0  0  0  0  0  0  0
    3.5997    0.1285   28.7781 H   0  0  0  0  0  0  0  0  0  0  0  0
    3.9284   -1.5986   28.6899 H   0  0  0  0  0  0  0  0  0  0  0  0
    5.7275   -0.3447   28.6398 C   0  0  0  0  0  0  0  0  0  0  0  0
    6.1572   -1.1555   29.2261 H   0  0  0  0  0  0  0  0  0  0  0  0
    5.8411    0.5645   29.2324 H   0  0  0  0  0  0  0  0  0  0  0  0
    6.4259   -0.1931   27.2798 C   0  0  0  0  0  0  0  0  0  0  0  0
    7.1842    0.5980   27.3005 H   0  0  0  0  0  0  0  0  0  0  0  0
    6.9438   -1.1345   27.0135 H   0  0  0  0  0  0  0  0  0  0  0  0
    5.3905    0.7077   20.1212 C   0  0  0  0  0  0  0  0  0  0  0  0
    4.9459    0.7482   21.1145 H   0  0  0  0  0  0  0  0  0  0  0  0
    4.7811    1.3247   19.0359 C   0  0  0  0  0  0  0  0  0  0  0  0
    3.8443    1.8582   19.1470 H   0  0  0  0  0  0  0  0  0  0  0  0
  1  2  1  0
  2  3  2  0
  3  4  1  0
  4  5  1  0
  4  6  2  0
  6  7  1  0
  7  8  1  0
  8  9  2  0
  9 10  1  0
 10 11  1  0
 11 12  1  0
 11 13  2  0
 13 14  1  0
 13 15  1  0
 15 16  1  0
 16 17  1  0
 17 18  1  0
 18 19  1  0
 18 20  1  0
 18 21  1  0
 21 22  1  0
 21 23  1  0
 21 24  1  0
 24 25  1  0
 25 26  1  0
 25 27  1  0
 25 28  1  0
 28 29  1  0
 28 30  1  0
 28 31  1  0
 31 32  1  0
 31 33  1  0
 31 34  1  0
 34 35  1  0
 34 36  1  0
  6 37  1  0
 37 38  1  0
 37 39  2  0
 39 40  1  0
 39  2  1  0
 16  7  2  0
 34 24  1  0
 15  9  1  0
M  END
>  <cnnaffinity>  (1) 
-4.81751

>  <filename>  (1) 
c1cncc(-c2nc3sccn3c2OCCN2CCCC2)c1

$$$$
