
     RDKit          3D

 36 38  0  0  0  0  0  0  0  0999 V2000
    4.9343    1.7776   16.9955 H   0  0  0  0  0  0  0  0  0  0  0  0
    5.4117    1.2858   17.8405 C   0  0  0  0  0  0  0  0  0  0  0  0
    6.5733    0.6667   17.5836 N   0  0  0  0  0  0  0  0  0  0  0  0
    7.1805    0.0527   18.6047 C   0  0  0  0  0  0  0  0  0  0  0  0
    8.1257   -0.4270   18.3672 H   0  0  0  0  0  0  0  0  0  0  0  0
    6.6525    0.0106   19.9036 C   0  0  0  0  0  0  0  0  0  0  0  0
    7.3494   -0.6831   20.9745 C   0  0  0  0  0  0  0  0  0  0  0  0
    6.9570   -0.7568   22.2067 N   0  0  0  0  0  0  0  0  0  0  0  0
    7.9233   -1.5036   22.8550 C   0  0  0  0  0  0  0  0  0  0  0  0
    7.8336   -1.8992   24.2913 C   0  0  0  0  0  0  0  0  0  0  0  0
    8.8550   -2.0134   24.6684 H   0  0  0  0  0  0  0  0  0  0  0  0
    7.3806   -1.0794   24.8580 H   0  0  0  0  0  0  0  0  0  0  0  0
    7.0578   -3.2125   24.5478 C   0  0  0  0  0  0  0  0  0  0  0  0
    7.1015   -3.3973   25.6317 H   0  0  0  0  0  0  0  0  0  0  0  0
    5.5724   -3.1060   24.1634 C   0  0  0  0  0  0  0  0  0  0  0  0
    5.1208   -2.2505   24.6778 H   0  0  0  0  0  0  0  0  0  0  0  0
    5.4922   -2.8811   23.0931 H   0  0  0  0  0  0  0  0  0  0  0  0
    4.8033   -4.3936   24.4747 C   0  0  0  0  0  0  0  0  0  0  0  0
    3.7567   -4.2956   24.1661 H   0  0  0  0  0  0  0  0  0  0  0  0
    4.7887   -4.5402   25.5621 H   0  0  0  0  0  0  0  0  0  0  0  0
    5.4571   -5.6114   23.8090 C   0  0  0  0  0  0  0  0  0  0  0  0
    5.3610   -5.5153   22.7206 H   0  0  0  0  0  0  0  0  0  0  0  0
    4.9257   -6.5310   24.0801 H   0  0  0  0  0  0  0  0  0  0  0  0
    6.9470   -5.7164   24.1627 C   0  0  0  0  0  0  0  0  0  0  0  0
    7.0456   -5.9475   25.2318 H   0  0  0  0  0  0  0  0  0  0  0  0
    7.4218   -6.5282   23.6053 H   0  0  0  0  0  0  0  0  0  0  0  0
    7.7037   -4.4233   23.8576 C   0  0  0  0  0  0  0  0  0  0  0  0
    8.7549   -4.5203   24.1565 H   0  0  0  0  0  0  0  0  0  0  0  0
    7.7101   -4.2767   22.7698 H   0  0  0  0  0  0  0  0  0  0  0  0
    8.8670   -1.8449   21.9489 C   0  0  0  0  0  0  0  0  0  0  0  0
    9.7810   -2.4153   22.0111 H   0  0  0  0  0  0  0  0  0  0  0  0
    8.5146   -1.3280   20.7338 O   0  0  0  0  0  0  0  0  0  0  0  0
    5.4293    0.6561   20.1617 C   0  0  0  0  0  0  0  0  0  0  0  0
    5.0063    0.6341   21.1721 H   0  0  0  0  0  0  0  0  0  0  0  0
    4.8045    1.3096   19.1035 C   0  0  0  0  0  0  0  0  0  0  0  0
    3.8732    1.8439   19.2511 H   0  0  0  0  0  0  0  0  0  0  0  0
  1  2  1  0
  2  3  2  0
  3  4  1  0
  4  5  1  0
  4  6  2  0
  6  7  1  0
  7  8  2  0
  8  9  1  0
  9 10  1  0
 10 11  1  0
 10 12  1  0
 10 13  1  0
 13 14  1  0
 13 15  1  0
 15 16  1  0
 15 17  1  0
 15 18  1  0
 18 19  1  0
 18 20  1  0
 18 21  1  0
 21 22  1  0
 21 23  1  0
 21 24  1  0
 24 25  1  0
 24 26  1  0
 24 27  1  0
 27 28  1  0
 27 29  1  0
  9 30  2  0
 30 31  1  0
 30 32  1  0
  6 33  1  0
 33 34  1  0
 33 35  2  0
 35 36  1  0
 35  2  1  0
 32  7  1  0
 27 13  1  0
M  END
>  <cnnaffinity>  (1) 
-5.22342

>  <filename>  (1) 
c1cncc(-c2nc(CC3CCCCC3)co2)c1

$$$$
