
     RDKit          3D

 34 37  0  0  0  0  0  0  0  0999 V2000
    4.9109    1.8058   16.9752 H   0  0  0  0  0  0  0  0  0  0  0  0
    5.3849    1.3068   17.8179 C   0  0  0  0  0  0  0  0  0  0  0  0
    6.5483    0.6901   17.5521 N   0  0  0  0  0  0  0  0  0  0  0  0
    7.1581    0.0669   18.5662 C   0  0  0  0  0  0  0  0  0  0  0  0
    8.1146   -0.3978   18.3261 H   0  0  0  0  0  0  0  0  0  0  0  0
    6.6550    0.0156   19.8829 C   0  0  0  0  0  0  0  0  0  0  0  0
    7.3762   -0.6556   20.9746 C   0  0  0  0  0  0  0  0  0  0  0  0
    7.5162   -0.3202   22.3176 C   0  0  0  0  0  0  0  0  0  0  0  0
    7.0331    0.8431   22.9233 N   0  0  0  0  0  0  0  0  0  0  0  0
    6.9873    1.6531   22.3247 H   0  0  0  0  0  0  0  0  0  0  0  0
    6.8161    1.0390   24.2901 C   0  0  0  0  0  0  0  0  0  0  0  0
    7.0321    2.3220   24.8628 C   0  0  0  0  0  0  0  0  0  0  0  0
    7.3849    3.1254   24.2166 H   0  0  0  0  0  0  0  0  0  0  0  0
    6.8207    2.5441   26.2221 C   0  0  0  0  0  0  0  0  0  0  0  0
    6.9913    3.5239   26.6611 H   0  0  0  0  0  0  0  0  0  0  0  0
    6.3695    1.4577   27.0067 C   0  0  0  0  0  0  0  0  0  0  0  0
    6.1355    0.1796   26.4436 C   0  0  0  0  0  0  0  0  0  0  0  0
    6.3557   -0.0181   25.0718 C   0  0  0  0  0  0  0  0  0  0  0  0
    6.1871   -0.9718   24.5853 H   0  0  0  0  0  0  0  0  0  0  0  0
    5.6864   -0.6713   27.5070 C   0  0  0  0  0  0  0  0  0  0  0  0
    5.4224   -1.7163   27.4059 H   0  0  0  0  0  0  0  0  0  0  0  0
    5.6553    0.0829   28.6404 C   0  0  0  0  0  0  0  0  0  0  0  0
    5.3677   -0.1877   29.6499 H   0  0  0  0  0  0  0  0  0  0  0  0
    6.0672    1.3684   28.3437 N   0  0  0  0  0  0  0  0  0  0  0  0
    6.1345    2.1305   28.9950 H   0  0  0  0  0  0  0  0  0  0  0  0
    8.2915   -1.3753   22.8692 C   0  0  0  0  0  0  0  0  0  0  0  0
    8.6310   -1.4749   23.8936 H   0  0  0  0  0  0  0  0  0  0  0  0
    8.6068   -2.2883   21.9546 N   0  0  0  0  0  0  0  0  0  0  0  0
    8.0521   -1.8268   20.8241 N   0  0  0  0  0  0  0  0  0  0  0  0
    8.1301   -2.3689   19.9734 H   0  0  0  0  0  0  0  0  0  0  0  0
    5.4342    0.6620   20.1362 C   0  0  0  0  0  0  0  0  0  0  0  0
    5.0177    0.6280   21.1434 H   0  0  0  0  0  0  0  0  0  0  0  0
    4.7922    1.3190   19.0856 C   0  0  0  0  0  0  0  0  0  0  0  0
    3.8614    1.8505   19.2386 H   0  0  0  0  0  0  0  0  0  0  0  0
  1  2  1  0
  2  3  2  0
  3  4  1  0
  4  5  1  0
  4  6  2  0
  6  7  1  0
  7  8  2  0
  8  9  1  0
  9 10  1  0
  9 11  1  0
 11 12  2  0
 12 13  1  0
 12 14  1  0
 14 15  1  0
 14 16  2  0
 16 17  1  0
 17 18  2  0
 18 19  1  0
 17 20  1  0
 20 21  1  0
 20 22  2  0
 22 23  1  0
 22 24  1  0
 24 25  1  0
  8 26  1  0
 26 27  1  0
 26 28  2  0
 28 29  1  0
 29 30  1  0
  6 31  1  0
 31 32  1  0
 31 33  2  0
 33 34  1  0
 33  2  1  0
 29  7  1  0
 18 11  1  0
 24 16  1  0
M  END
>  <cnnaffinity>  (1) 
-5.55225

>  <filename>  (1) 
c1cncc(-c2[nH]ncc2Nc2ccc3[nH]ccc3c2)c1

$$$$
