
     RDKit          3D

 32 35  0  0  0  0  0  0  0  0999 V2000
    4.9928    1.7929   16.9691 H   0  0  0  0  0  0  0  0  0  0  0  0
    5.4318    1.2884   17.8293 C   0  0  0  0  0  0  0  0  0  0  0  0
    6.5896    0.6535   17.6023 N   0  0  0  0  0  0  0  0  0  0  0  0
    7.1644    0.0373   18.6376 C   0  0  0  0  0  0  0  0  0  0  0  0
    8.1053   -0.4604   18.4148 H   0  0  0  0  0  0  0  0  0  0  0  0
    6.6283    0.0084   19.9368 C   0  0  0  0  0  0  0  0  0  0  0  0
    7.3422   -0.6917   21.0176 C   0  0  0  0  0  0  0  0  0  0  0  0
    6.8555   -0.7866   22.2139 N   0  0  0  0  0  0  0  0  0  0  0  0
    7.7232   -1.4961   22.9951 N   0  0  0  0  0  0  0  0  0  0  0  0
    7.7425   -1.9187   24.3254 C   0  0  0  0  0  0  0  0  0  0  0  0
    6.6954   -1.6581   25.1871 N   0  0  0  0  0  0  0  0  0  0  0  0
    6.0064   -1.0146   24.8120 H   0  0  0  0  0  0  0  0  0  0  0  0
    6.6592   -1.9885   26.6044 C   0  0  0  0  0  0  0  0  0  0  0  0
    7.5351   -1.5749   27.1340 H   0  0  0  0  0  0  0  0  0  0  0  0
    6.7169   -3.0830   26.7375 H   0  0  0  0  0  0  0  0  0  0  0  0
    5.3702   -1.4658   27.2005 C   0  0  0  0  0  0  0  0  0  0  0  0
    4.4896   -1.8597   26.6932 H   0  0  0  0  0  0  0  0  0  0  0  0
    5.1742   -1.2367   28.6756 C   0  0  0  0  0  0  0  0  0  0  0  0
    6.0038   -1.3600   29.3628 H   0  0  0  0  0  0  0  0  0  0  0  0
    4.2295   -1.5530   29.1150 H   0  0  0  0  0  0  0  0  0  0  0  0
    5.2219   -0.0648   27.7340 C   0  0  0  0  0  0  0  0  0  0  0  0
    4.2917    0.4492   27.5163 H   0  0  0  0  0  0  0  0  0  0  0  0
    6.0966    0.5865   27.7570 H   0  0  0  0  0  0  0  0  0  0  0  0
    8.9421   -2.6006   24.4286 C   0  0  0  0  0  0  0  0  0  0  0  0
    9.3284   -3.0827   25.3194 H   0  0  0  0  0  0  0  0  0  0  0  0
    9.6527   -2.6210   23.2371 N   0  0  0  0  0  0  0  0  0  0  0  0
    8.8797   -1.9485   22.4253 C   0  0  0  0  0  0  0  0  0  0  0  0
    8.9239   -1.4626   20.7649 S   0  0  0  0  0  0  0  0  0  0  0  0
    5.4028    0.6703   20.1609 C   0  0  0  0  0  0  0  0  0  0  0  0
    4.9438    0.6813   21.1518 H   0  0  0  0  0  0  0  0  0  0  0  0
    4.8044    1.3167   19.0792 C   0  0  0  0  0  0  0  0  0  0  0  0
    3.8698    1.8539   19.1884 H   0  0  0  0  0  0  0  0  0  0  0  0
  1  2  1  0
  2  3  2  0
  3  4  1  0
  4  5  1  0
  4  6  2  0
  6  7  1  0
  7  8  2  0
  8  9  1  0
  9 10  1  0
 10 11  1  0
 11 12  1  0
 11 13  1  0
 13 14  1  0
 13 15  1  0
 13 16  1  0
 16 17  1  0
 16 18  1  0
 18 19  1  0
 18 20  1  0
 18 21  1  0
 21 22  1  0
 21 23  1  0
 10 24  2  0
 24 25  1  0
 24 26  1  0
 26 27  2  0
 27 28  1  0
  6 29  1  0
 29 30  1  0
 29 31  2  0
 31 32  1  0
 31  2  1  0
 28  7  1  0
 27  9  1  0
 21 16  1  0
M  END
>  <cnnaffinity>  (1) 
-5.16771

>  <filename>  (1) 
c1cncc(-c2nn3c(NCC4CC4)cnc3s2)c1

$$$$
