
     RDKit          3D

 39 42  0  0  0  0  0  0  0  0999 V2000
    4.9110    1.7996   16.9769 H   0  0  0  0  0  0  0  0  0  0  0  0
    5.3864    1.3062   17.8176 C   0  0  0  0  0  0  0  0  0  0  0  0
    6.5523    0.6925   17.5483 N   0  0  0  0  0  0  0  0  0  0  0  0
    7.1571    0.0666   18.5642 C   0  0  0  0  0  0  0  0  0  0  0  0
    8.1154   -0.4002   18.3362 H   0  0  0  0  0  0  0  0  0  0  0  0
    6.6481    0.0136   19.8755 C   0  0  0  0  0  0  0  0  0  0  0  0
    7.3658   -0.6673   20.9619 C   0  0  0  0  0  0  0  0  0  0  0  0
    7.5802   -0.2951   22.2841 C   0  0  0  0  0  0  0  0  0  0  0  0
    7.1945    0.9120   22.8298 N   0  0  0  0  0  0  0  0  0  0  0  0
    6.9453    1.6533   22.1882 H   0  0  0  0  0  0  0  0  0  0  0  0
    7.2203    1.2449   24.1694 N   0  0  0  0  0  0  0  0  0  0  0  0
    6.3474    0.3797   24.9736 C   0  0  0  0  0  0  0  0  0  0  0  0
    6.6444   -0.6742   24.8477 H   0  0  0  0  0  0  0  0  0  0  0  0
    5.3378    0.4448   24.5614 H   0  0  0  0  0  0  0  0  0  0  0  0
    6.3467    0.7392   26.4468 C   0  0  0  0  0  0  0  0  0  0  0  0
    5.3333    0.2485   27.2824 C   0  0  0  0  0  0  0  0  0  0  0  0
    4.5354   -0.3540   26.8525 H   0  0  0  0  0  0  0  0  0  0  0  0
    5.3369    0.5234   28.6523 C   0  0  0  0  0  0  0  0  0  0  0  0
    4.5447    0.1373   29.2902 H   0  0  0  0  0  0  0  0  0  0  0  0
    6.3691    1.2926   29.2033 C   0  0  0  0  0  0  0  0  0  0  0  0
    6.3861    1.5157   30.2690 H   0  0  0  0  0  0  0  0  0  0  0  0
    7.3828    1.7778   28.3733 C   0  0  0  0  0  0  0  0  0  0  0  0
    8.1930    2.3704   28.7897 H   0  0  0  0  0  0  0  0  0  0  0  0
    7.3838    1.5117   26.9970 C   0  0  0  0  0  0  0  0  0  0  0  0
    8.4625    2.0847   26.0913 C   0  0  0  0  0  0  0  0  0  0  0  0
    8.2712    3.1536   25.9391 H   0  0  0  0  0  0  0  0  0  0  0  0
    9.4363    2.0203   26.5765 H   0  0  0  0  0  0  0  0  0  0  0  0
    8.5624    1.3741   24.7431 C   0  0  0  0  0  0  0  0  0  0  0  0
    9.1950    1.9446   24.0526 H   0  0  0  0  0  0  0  0  0  0  0  0
    9.0272    0.3801   24.8634 H   0  0  0  0  0  0  0  0  0  0  0  0
    8.2699   -1.3960   22.8596 C   0  0  0  0  0  0  0  0  0  0  0  0
    8.6122   -1.5251   23.8757 H   0  0  0  0  0  0  0  0  0  0  0  0
    8.4810   -2.3622   21.9702 N   0  0  0  0  0  0  0  0  0  0  0  0
    7.9374   -1.8888   20.8370 N   0  0  0  0  0  0  0  0  0  0  0  0
    7.9308   -2.4561   20.0060 H   0  0  0  0  0  0  0  0  0  0  0  0
    5.4305    0.6627   20.1365 C   0  0  0  0  0  0  0  0  0  0  0  0
    5.0204    0.6270   21.1494 H   0  0  0  0  0  0  0  0  0  0  0  0
    4.7911    1.3194   19.0848 C   0  0  0  0  0  0  0  0  0  0  0  0
    3.8626    1.8507   19.2438 H   0  0  0  0  0  0  0  0  0  0  0  0
  1  2  1  0
  2  3  2  0
  3  4  1  0
  4  5  1  0
  4  6  2  0
  6  7  1  0
  7  8  2  0
  8  9  1  0
  9 10  1  0
  9 11  1  0
 11 12  1  0
 12 13  1  0
 12 14  1  0
 12 15  1  0
 15 16  2  0
 16 17  1  0
 16 18  1  0
 18 19  1  0
 18 20  2  0
 20 21  1  0
 20 22  1  0
 22 23  1  0
 22 24  2  0
 24 25  1  0
 25 26  1  0
 25 27  1  0
 25 28  1  0
 28 29  1  0
 28 30  1  0
  8 31  1  0
 31 32  1  0
 31 33  2  0
 33 34  1  0
 34 35  1  0
  6 36  1  0
 36 37  1  0
 36 38  2  0
 38 39  1  0
 38  2  1  0
 34  7  1  0
 28 11  1  0
 24 15  1  0
M  END
>  <cnnaffinity>  (1) 
-5.24437

>  <filename>  (1) 
c1cncc(-c2[nH]ncc2NN2CCc3ccccc3C2)c1

$$$$
