
     RDKit          3D

 39 43  0  0  0  0  0  0  0  0999 V2000
    4.9865    1.8457   16.9250 H   0  0  0  0  0  0  0  0  0  0  0  0
    5.3858    1.3080   17.7843 C   0  0  0  0  0  0  0  0  0  0  0  0
    6.5391    0.6507   17.5894 N   0  0  0  0  0  0  0  0  0  0  0  0
    7.0716    0.0247   18.6500 C   0  0  0  0  0  0  0  0  0  0  0  0
    8.0138   -0.4873   18.4542 H   0  0  0  0  0  0  0  0  0  0  0  0
    6.4895   -0.0146   19.9381 C   0  0  0  0  0  0  0  0  0  0  0  0
    7.2383   -0.6401   21.0549 C   0  0  0  0  0  0  0  0  0  0  0  0
    8.5933   -0.5780   21.2867 C   0  0  0  0  0  0  0  0  0  0  0  0
    8.8110   -1.1579   22.5277 C   0  0  0  0  0  0  0  0  0  0  0  0
    7.7055   -1.6219   23.0720 N   0  0  0  0  0  0  0  0  0  0  0  0
    6.7463   -1.2846   22.1639 N   0  0  0  0  0  0  0  0  0  0  0  0
    5.7865   -1.5186   22.3897 H   0  0  0  0  0  0  0  0  0  0  0  0
   10.2373   -1.0409   22.9810 C   0  0  0  0  0  0  0  0  0  0  0  0
   10.6778   -2.0326   23.1059 H   0  0  0  0  0  0  0  0  0  0  0  0
   10.3378   -0.5292   23.9432 H   0  0  0  0  0  0  0  0  0  0  0  0
   10.9198   -0.2113   21.8291 C   0  0  2  0  0  0  0  0  0  0  0  0
   11.7419   -0.8154   21.4370 H   0  0  0  0  0  0  0  0  0  0  0  0
   11.4729    1.1070   22.2968 C   0  0  0  0  0  0  0  0  0  0  0  0
   12.7727    1.5227   22.3146 C   0  0  0  0  0  0  0  0  0  0  0  0
   13.6632    0.9897   22.0028 H   0  0  0  0  0  0  0  0  0  0  0  0
   12.8572    2.7997   22.8354 N   0  0  0  0  0  0  0  0  0  0  0  0
   13.6862    3.3637   22.8927 H   0  0  0  0  0  0  0  0  0  0  0  0
   11.5967    3.2347   23.1672 C   0  0  0  0  0  0  0  0  0  0  0  0
   11.1697    4.4487   23.7405 C   0  0  0  0  0  0  0  0  0  0  0  0
   11.8841    5.2383   23.9742 H   0  0  0  0  0  0  0  0  0  0  0  0
    9.8105    4.5953   23.9895 C   0  0  0  0  0  0  0  0  0  0  0  0
    9.4448    5.5194   24.4342 H   0  0  0  0  0  0  0  0  0  0  0  0
    8.8826    3.5664   23.6731 C   0  0  0  0  0  0  0  0  0  0  0  0
    7.8245    3.7109   23.8808 H   0  0  0  0  0  0  0  0  0  0  0  0
    9.3106    2.3755   23.0992 C   0  0  0  0  0  0  0  0  0  0  0  0
    8.6129    1.5766   22.8417 H   0  0  0  0  0  0  0  0  0  0  0  0
   10.6912    2.1957   22.8450 C   0  0  0  0  0  0  0  0  0  0  0  0
    9.8491   -0.0446   20.6946 C   0  0  0  0  0  0  0  0  0  0  0  0
    9.7484    0.9949   20.3657 H   0  0  0  0  0  0  0  0  0  0  0  0
   10.1276   -0.6277   19.8171 H   0  0  0  0  0  0  0  0  0  0  0  0
    5.2670    0.6626   20.1066 C   0  0  0  0  0  0  0  0  0  0  0  0
    4.7794    0.7082   21.0836 H   0  0  0  0  0  0  0  0  0  0  0  0
    4.7175    1.3365   19.0140 C   0  0  0  0  0  0  0  0  0  0  0  0
    3.8023    1.9119   19.1060 H   0  0  0  0  0  0  0  0  0  0  0  0
  1  2  1  0
  2  3  2  0
  3  4  1  0
  4  5  1  0
  4  6  2  0
  6  7  1  0
  7  8  2  0
  8  9  1  0
  9 10  2  0
 10 11  1  0
 11 12  1  0
  9 13  1  0
 13 14  1  0
 13 15  1  0
 13 16  1  0
 16 17  1  6
 16 18  1  0
 18 19  2  0
 19 20  1  0
 19 21  1  0
 21 22  1  0
 21 23  1  0
 23 24  2  0
 24 25  1  0
 24 26  1  0
 26 27  1  0
 26 28  2  0
 28 29  1  0
 28 30  1  0
 30 31  1  0
 30 32  2  0
 16 33  1  0
 33 34  1  0
 33 35  1  0
  6 36  1  0
 36 37  1  0
 36 38  2  0
 38 39  1  0
 38  2  1  0
 11  7  1  0
 32 18  1  0
 33  8  1  0
 32 23  1  0
M  END
>  <cnnaffinity>  (1) 
-5.97218

>  <filename>  (1) 
c1cncc(-c2[nH]nc3c2C[C@@H](c2c[nH]c4ccccc24)C3)c1

$$$$
