
     RDKit          3D

 33 36  0  0  0  0  0  0  0  0999 V2000
    8.5945   -1.9302   19.9758 H   0  0  0  0  0  0  0  0  0  0  0  0
    8.4015   -1.5177   20.9503 C   0  0  0  0  0  0  0  0  0  0  0  0
    8.9974   -2.1101   21.9830 N   0  0  0  0  0  0  0  0  0  0  0  0
    8.8067   -1.5933   23.2019 N   0  0  0  0  0  0  0  0  0  0  0  0
    7.9754   -0.5398   23.3704 C   0  0  0  0  0  0  0  0  0  0  0  0
    7.8710   -0.0146   24.7363 C   0  0  0  0  0  0  0  0  0  0  0  0
    9.0139   -0.0789   25.4991 C   0  0  0  0  0  0  0  0  0  0  0  0
    9.9225   -0.5138   25.0917 H   0  0  0  0  0  0  0  0  0  0  0  0
    9.1053    0.3634   26.7719 N   0  0  0  0  0  0  0  0  0  0  0  0
    8.0117    0.8246   27.3360 C   0  0  0  0  0  0  0  0  0  0  0  0
    8.0932    1.1539   28.3735 H   0  0  0  0  0  0  0  0  0  0  0  0
    6.7427    0.8875   26.6918 C   0  0  0  0  0  0  0  0  0  0  0  0
    5.5551    1.2564   27.3894 C   0  0  0  0  0  0  0  0  0  0  0  0
    5.6287    1.4917   28.4487 H   0  0  0  0  0  0  0  0  0  0  0  0
    4.3389    1.2480   26.7475 C   0  0  0  0  0  0  0  0  0  0  0  0
    3.4253    1.4500   27.3021 H   0  0  0  0  0  0  0  0  0  0  0  0
    4.2713    0.9420   25.3596 C   0  0  0  0  0  0  0  0  0  0  0  0
    3.3010    0.9814   24.8726 H   0  0  0  0  0  0  0  0  0  0  0  0
    5.4032    0.5931   24.6534 C   0  0  0  0  0  0  0  0  0  0  0  0
    5.3728    0.3753   23.5929 H   0  0  0  0  0  0  0  0  0  0  0  0
    6.6694    0.4995   25.3207 C   0  0  0  0  0  0  0  0  0  0  0  0
    7.2928    0.0381   22.3691 N   0  0  0  0  0  0  0  0  0  0  0  0
    7.5147   -0.4315   21.1403 C   0  0  0  0  0  0  0  0  0  0  0  0
    6.7578    0.1774   20.0247 C   0  0  0  0  0  0  0  0  0  0  0  0
    7.2787    0.1807   18.7205 C   0  0  0  0  0  0  0  0  0  0  0  0
    8.2660   -0.2298   18.5098 H   0  0  0  0  0  0  0  0  0  0  0  0
    6.6486    0.6957   17.6625 N   0  0  0  0  0  0  0  0  0  0  0  0
    5.4524    1.2656   17.8693 C   0  0  0  0  0  0  0  0  0  0  0  0
    4.9647    1.6953   16.9952 H   0  0  0  0  0  0  0  0  0  0  0  0
    4.8447    1.3225   19.1264 C   0  0  0  0  0  0  0  0  0  0  0  0
    3.8862    1.8108   19.2424 H   0  0  0  0  0  0  0  0  0  0  0  0
    5.5045    0.7765   20.2235 C   0  0  0  0  0  0  0  0  0  0  0  0
    5.0706    0.8308   21.2241 H   0  0  0  0  0  0  0  0  0  0  0  0
  1  2  1  0
  2  3  2  0
  3  4  1  0
  4  5  2  0
  5  6  1  0
  6  7  2  0
  7  8  1  0
  7  9  1  0
  9 10  2  0
 10 11  1  0
 10 12  1  0
 12 13  2  0
 13 14  1  0
 13 15  1  0
 15 16  1  0
 15 17  2  0
 17 18  1  0
 17 19  1  0
 19 20  1  0
 19 21  2  0
  5 22  1  0
 22 23  2  0
 23 24  1  0
 24 25  2  0
 25 26  1  0
 25 27  1  0
 27 28  2  0
 28 29  1  0
 28 30  1  0
 30 31  1  0
 30 32  2  0
 32 33  1  0
 23  2  1  0
 32 24  1  0
 21  6  1  0
 21 12  1  0
M  END
>  <cnnaffinity>  (1) 
-5.2627

>  <filename>  (1) 
c1cncc(-c2cnnc(-c3cncc4ccccc34)n2)c1

$$$$
