
     RDKit          3D

 34 37  0  0  0  0  0  0  0  0999 V2000
    4.9221    1.7790   16.9991 H   0  0  0  0  0  0  0  0  0  0  0  0
    5.4067    1.2928   17.8408 C   0  0  0  0  0  0  0  0  0  0  0  0
    6.5702    0.6731   17.5839 N   0  0  0  0  0  0  0  0  0  0  0  0
    7.1687    0.0463   18.6011 C   0  0  0  0  0  0  0  0  0  0  0  0
    8.1180   -0.4377   18.3767 H   0  0  0  0  0  0  0  0  0  0  0  0
    6.6506    0.0153   19.9029 C   0  0  0  0  0  0  0  0  0  0  0  0
    7.3625   -0.6929   20.9568 C   0  0  0  0  0  0  0  0  0  0  0  0
    7.7408   -1.9991   20.7793 N   0  0  0  0  0  0  0  0  0  0  0  0
    8.2161   -2.3430   21.9417 C   0  0  0  0  0  0  0  0  0  0  0  0
    8.8265   -3.8147   22.6583 S   0  0  0  0  0  0  0  0  0  0  0  0
    9.0753   -2.9704   24.1761 C   0  0  0  0  0  0  0  0  0  0  0  0
    9.4772   -3.5090   25.0210 H   0  0  0  0  0  0  0  0  0  0  0  0
    8.7037   -1.6804   24.1232 C   0  0  0  0  0  0  0  0  0  0  0  0
    8.7245   -0.9537   24.9284 H   0  0  0  0  0  0  0  0  0  0  0  0
    8.2252   -1.3250   22.8638 N   0  0  0  0  0  0  0  0  0  0  0  0
    7.6698   -0.2240   22.2291 C   0  0  0  0  0  0  0  0  0  0  0  0
    7.5145    1.1594   22.7650 C   0  0  0  0  0  0  0  0  0  0  0  0
    6.4471    1.3031   22.9895 H   0  0  0  0  0  0  0  0  0  0  0  0
    8.3037    1.4887   24.0380 C   0  0  0  0  0  0  0  0  0  0  0  0
    7.8243    1.0799   24.9351 H   0  0  0  0  0  0  0  0  0  0  0  0
    9.3047    1.0539   23.9603 H   0  0  0  0  0  0  0  0  0  0  0  0
    8.4021    3.0116   24.0696 C   0  0  0  0  0  0  0  0  0  0  0  0
    7.5242    3.4338   24.5702 H   0  0  0  0  0  0  0  0  0  0  0  0
    9.2805    3.3470   24.6294 H   0  0  0  0  0  0  0  0  0  0  0  0
    8.4495    3.4561   22.5953 C   0  0  0  0  0  0  0  0  0  0  0  0
    7.8386    4.3495   22.4366 H   0  0  0  0  0  0  0  0  0  0  0  0
    9.4707    3.7143   22.2969 H   0  0  0  0  0  0  0  0  0  0  0  0
    7.9346    2.2662   21.7590 C   0  0  0  0  0  0  0  0  0  0  0  0
    8.7223    1.8856   21.1035 H   0  0  0  0  0  0  0  0  0  0  0  0
    7.1033    2.5511   21.1068 H   0  0  0  0  0  0  0  0  0  0  0  0
    5.4289    0.6592   20.1546 C   0  0  0  0  0  0  0  0  0  0  0  0
    4.9905    0.6399   21.1581 H   0  0  0  0  0  0  0  0  0  0  0  0
    4.8027    1.3160   19.1026 C   0  0  0  0  0  0  0  0  0  0  0  0
    3.8717    1.8446   19.2588 H   0  0  0  0  0  0  0  0  0  0  0  0
  1  2  1  0
  2  3  2  0
  3  4  1  0
  4  5  1  0
  4  6  2  0
  6  7  1  0
  7  8  1  0
  8  9  2  0
  9 10  1  0
 10 11  1  0
 11 12  1  0
 11 13  2  0
 13 14  1  0
 13 15  1  0
 15 16  1  0
 16 17  1  0
 17 18  1  0
 17 19  1  0
 19 20  1  0
 19 21  1  0
 19 22  1  0
 22 23  1  0
 22 24  1  0
 22 25  1  0
 25 26  1  0
 25 27  1  0
 25 28  1  0
 28 29  1  0
 28 30  1  0
  6 31  1  0
 31 32  1  0
 31 33  2  0
 33 34  1  0
 33  2  1  0
 16  7  2  0
 28 17  1  0
 15  9  1  0
M  END
>  <cnnaffinity>  (1) 
-5.55285

>  <filename>  (1) 
c1cncc(-c2nc3sccn3c2C2CCCC2)c1

$$$$
