
     RDKit          3D

 40 43  0  0  0  0  0  0  0  0999 V2000
    4.9504    1.8118   16.9759 H   0  0  0  0  0  0  0  0  0  0  0  0
    5.3980    1.2936   17.8238 C   0  0  0  0  0  0  0  0  0  0  0  0
    6.5525    0.6555   17.5742 N   0  0  0  0  0  0  0  0  0  0  0  0
    7.1492    0.0259   18.5898 C   0  0  0  0  0  0  0  0  0  0  0  0
    8.0936   -0.4618   18.3610 H   0  0  0  0  0  0  0  0  0  0  0  0
    6.6486    0.0001   19.8995 C   0  0  0  0  0  0  0  0  0  0  0  0
    7.4278   -0.6699   20.9392 C   0  0  0  0  0  0  0  0  0  0  0  0
    8.0178   -1.8995   20.7390 N   0  0  0  0  0  0  0  0  0  0  0  0
    8.4909   -2.2042   21.9182 C   0  0  0  0  0  0  0  0  0  0  0  0
    9.3045   -3.5647   22.6346 S   0  0  0  0  0  0  0  0  0  0  0  0
    9.5531   -2.6629   24.1133 C   0  0  0  0  0  0  0  0  0  0  0  0
   10.1716   -3.1070   24.8844 H   0  0  0  0  0  0  0  0  0  0  0  0
    8.9370   -1.4669   24.0859 C   0  0  0  0  0  0  0  0  0  0  0  0
    8.8275   -0.7177   24.8636 H   0  0  0  0  0  0  0  0  0  0  0  0
    8.3252   -1.2223   22.8591 N   0  0  0  0  0  0  0  0  0  0  0  0
    7.6463   -0.1978   22.2245 C   0  0  0  0  0  0  0  0  0  0  0  0
    7.2776    1.0558   22.9382 C   0  0  0  0  0  0  0  0  0  0  0  0
    8.1743    1.4704   23.4250 H   0  0  0  0  0  0  0  0  0  0  0  0
    6.9267    1.8090   22.2268 H   0  0  0  0  0  0  0  0  0  0  0  0
    6.1719    0.8282   23.9768 C   0  0  0  0  0  0  0  0  0  0  0  0
    6.5301    0.1256   24.7567 H   0  0  0  0  0  0  0  0  0  0  0  0
    5.3321    0.3541   23.4705 H   0  0  0  0  0  0  0  0  0  0  0  0
    5.6478    2.0763   24.5142 N   0  0  0  0  0  0  0  0  0  0  0  0
    6.6694    2.8506   25.2505 C   0  0  0  0  0  0  0  0  0  0  0  0
    7.2698    3.4242   24.5284 H   0  0  0  0  0  0  0  0  0  0  0  0
    7.3590    2.1881   25.8125 H   0  0  0  0  0  0  0  0  0  0  0  0
    6.0290    3.8105   26.2590 C   0  0  0  0  0  0  0  0  0  0  0  0
    6.8064    4.3318   26.8274 H   0  0  0  0  0  0  0  0  0  0  0  0
    5.4304    4.5567   25.7080 H   0  0  0  0  0  0  0  0  0  0  0  0
    5.2151    3.1426   27.2293 O   0  0  0  0  0  0  0  0  0  0  0  0
    4.5988    1.9314   26.7796 C   0  0  0  0  0  0  0  0  0  0  0  0
    5.2295    1.0643   27.0422 H   0  0  0  0  0  0  0  0  0  0  0  0
    3.6594    1.8456   27.3354 H   0  0  0  0  0  0  0  0  0  0  0  0
    4.3759    1.9237   25.2589 C   0  0  0  0  0  0  0  0  0  0  0  0
    3.6901    2.7504   25.0084 H   0  0  0  0  0  0  0  0  0  0  0  0
    3.8799    0.9964   24.9484 H   0  0  0  0  0  0  0  0  0  0  0  0
    5.4262    0.6573   20.1416 C   0  0  0  0  0  0  0  0  0  0  0  0
    4.9742    0.6698   21.1357 H   0  0  0  0  0  0  0  0  0  0  0  0
    4.7921    1.3094   19.0856 C   0  0  0  0  0  0  0  0  0  0  0  0
    3.8591    1.8489   19.2249 H   0  0  0  0  0  0  0  0  0  0  0  0
  1  2  1  0
  2  3  2  0
  3  4  1  0
  4  5  1  0
  4  6  2  0
  6  7  1  0
  7  8  1  0
  8  9  2  0
  9 10  1  0
 10 11  1  0
 11 12  1  0
 11 13  2  0
 13 14  1  0
 13 15  1  0
 15 16  1  0
 16 17  1  0
 17 18  1  0
 17 19  1  0
 17 20  1  0
 20 21  1  0
 20 22  1  0
 20 23  1  0
 23 24  1  0
 24 25  1  0
 24 26  1  0
 24 27  1  0
 27 28  1  0
 27 29  1  0
 27 30  1  0
 30 31  1  0
 31 32  1  0
 31 33  1  0
 31 34  1  0
 34 35  1  0
 34 36  1  0
  6 37  1  0
 37 38  1  0
 37 39  2  0
 39 40  1  0
 39  2  1  0
 16  7  2  0
 34 23  1  0
 15  9  1  0
M  END
>  <cnnaffinity>  (1) 
-5.23834

>  <filename>  (1) 
c1cncc(-c2nc3sccn3c2CCN2CCOCC2)c1

$$$$
