
     RDKit          3D

 30 32  0  0  0  0  0  0  0  0999 V2000
    4.9834    1.8511   16.9416 H   0  0  0  0  0  0  0  0  0  0  0  0
    5.4253    1.3271   17.7867 C   0  0  0  0  0  0  0  0  0  0  0  0
    6.5837    0.6881   17.5554 N   0  0  0  0  0  0  0  0  0  0  0  0
    7.1332    0.0055   18.5665 C   0  0  0  0  0  0  0  0  0  0  0  0
    8.0904   -0.4764   18.3772 H   0  0  0  0  0  0  0  0  0  0  0  0
    6.5508   -0.0876   19.8400 C   0  0  0  0  0  0  0  0  0  0  0  0
    7.1872   -0.8300   20.8782 N   0  0  0  0  0  0  0  0  0  0  0  0
    7.4250   -2.1906   20.8903 C   0  0  0  0  0  0  0  0  0  0  0  0
    6.9819   -2.8150   20.1229 H   0  0  0  0  0  0  0  0  0  0  0  0
    8.1526   -2.4963   22.0143 C   0  0  0  0  0  0  0  0  0  0  0  0
    8.5226   -3.4777   22.2911 H   0  0  0  0  0  0  0  0  0  0  0  0
    8.3475   -1.2863   22.7321 C   0  0  0  0  0  0  0  0  0  0  0  0
    8.8075   -1.1464   23.6997 H   0  0  0  0  0  0  0  0  0  0  0  0
    7.7466   -0.2739   22.0133 C   0  0  0  0  0  0  0  0  0  0  0  0
    7.6398    1.0813   22.2807 N   0  0  0  0  0  0  0  0  0  0  0  0
    6.8077    1.5493   21.9628 H   0  0  0  0  0  0  0  0  0  0  0  0
    8.3230    1.7400   23.2779 C   0  0  0  0  0  0  0  0  0  0  0  0
    7.6571    2.6769   24.0578 C   0  0  0  0  0  0  0  0  0  0  0  0
    6.6162    2.9249   23.8882 H   0  0  0  0  0  0  0  0  0  0  0  0
    8.3658    3.2471   25.1040 C   0  0  0  0  0  0  0  0  0  0  0  0
    7.8827    3.9410   25.7895 H   0  0  0  0  0  0  0  0  0  0  0  0
    9.6509    2.9774   25.3601 N   0  0  0  0  0  0  0  0  0  0  0  0
   10.2836    2.1126   24.5595 C   0  0  0  0  0  0  0  0  0  0  0  0
   11.3272    1.9047   24.7905 H   0  0  0  0  0  0  0  0  0  0  0  0
    9.6698    1.4650   23.5021 C   0  0  0  0  0  0  0  0  0  0  0  0
   10.1864    0.7521   22.8743 H   0  0  0  0  0  0  0  0  0  0  0  0
    5.3753    0.6313   20.0903 C   0  0  0  0  0  0  0  0  0  0  0  0
    4.9477    0.6399   21.0936 H   0  0  0  0  0  0  0  0  0  0  0  0
    4.7865    1.3273   19.0325 C   0  0  0  0  0  0  0  0  0  0  0  0
    3.8608    1.8756   19.1739 H   0  0  0  0  0  0  0  0  0  0  0  0
  1  2  1  0
  2  3  2  0
  3  4  1  0
  4  5  1  0
  4  6  2  0
  6  7  1  0
  7  8  1  0
  8  9  1  0
  8 10  2  0
 10 11  1  0
 10 12  1  0
 12 13  1  0
 12 14  2  0
 14 15  1  0
 15 16  1  0
 15 17  1  0
 17 18  2  0
 18 19  1  0
 18 20  1  0
 20 21  1  0
 20 22  2  0
 22 23  1  0
 23 24  1  0
 23 25  2  0
 25 26  1  0
  6 27  1  0
 27 28  1  0
 27 29  2  0
 29 30  1  0
 29  2  1  0
 14  7  1  0
 25 17  1  0
M  END
>  <cnnaffinity>  (1) 
-4.9379

>  <filename>  (1) 
c1cncc(-n2cccc2Nc2ccncc2)c1

$$$$
