
     RDKit          3D

 25 27  0  0  0  0  0  0  0  0999 V2000
   12.1158   -5.0816   25.0346 H   0  0  0  0  0  0  0  0  0  0  0  0
   11.3236   -4.3703   24.8540 C   0  0  0  0  0  0  0  0  0  0  0  0
   11.2607   -3.7510   23.6314 N   0  0  0  0  0  0  0  0  0  0  0  0
   10.1878   -3.0487   23.5484 C   0  0  0  0  0  0  0  0  0  0  0  0
    9.9574   -2.5090   22.3136 N   0  0  0  0  0  0  0  0  0  0  0  0
   10.6515   -2.7890   21.6468 H   0  0  0  0  0  0  0  0  0  0  0  0
    8.8769   -1.8230   21.9233 C   0  0  0  0  0  0  0  0  0  0  0  0
    8.5922   -1.3748   20.7518 N   0  0  0  0  0  0  0  0  0  0  0  0
    7.3839   -0.7135   20.9806 C   0  0  0  0  0  0  0  0  0  0  0  0
    6.6824   -0.0189   19.9071 C   0  0  0  0  0  0  0  0  0  0  0  0
    7.2153    0.0198   18.6016 C   0  0  0  0  0  0  0  0  0  0  0  0
    8.1643   -0.4633   18.3737 H   0  0  0  0  0  0  0  0  0  0  0  0
    6.6116    0.6404   17.5815 N   0  0  0  0  0  0  0  0  0  0  0  0
    5.4507    1.2649   17.8390 C   0  0  0  0  0  0  0  0  0  0  0  0
    4.9815    1.7749   17.0029 H   0  0  0  0  0  0  0  0  0  0  0  0
    4.8397    1.2853   19.0979 C   0  0  0  0  0  0  0  0  0  0  0  0
    3.9057    1.8172   19.2467 H   0  0  0  0  0  0  0  0  0  0  0  0
    5.4639    0.6340   20.1532 C   0  0  0  0  0  0  0  0  0  0  0  0
    5.0140    0.6424   21.1484 H   0  0  0  0  0  0  0  0  0  0  0  0
    7.0299   -0.8285   22.2842 C   0  0  0  0  0  0  0  0  0  0  0  0
    6.2167   -0.4837   22.9108 H   0  0  0  0  0  0  0  0  0  0  0  0
    8.0029   -1.5646   22.9047 O   0  0  0  0  0  0  0  0  0  0  0  0
    9.2351   -2.9532   25.0041 S   0  0  0  0  0  0  0  0  0  0  0  0
   10.3644   -4.0383   25.7461 C   0  0  0  0  0  0  0  0  0  0  0  0
   10.3051   -4.3532   26.7812 H   0  0  0  0  0  0  0  0  0  0  0  0
  1  2  1  0
  2  3  1  0
  3  4  2  0
  4  5  1  0
  5  6  1  0
  5  7  1  0
  7  8  2  0
  8  9  1  0
  9 10  1  0
 10 11  2  0
 11 12  1  0
 11 13  1  0
 13 14  2  0
 14 15  1  0
 14 16  1  0
 16 17  1  0
 16 18  2  0
 18 19  1  0
  9 20  2  0
 20 21  1  0
 20 22  1  0
  4 23  1  0
 23 24  1  0
 24 25  1  0
 24  2  2  0
 22  7  1  0
 18 10  1  0
M  END
>  <cnnaffinity>  (1) 
-5.09928

>  <filename>  (1) 
c1cncc(-c2coc(Nc3nccs3)n2)c1

$$$$
