
     RDKit          3D

 34 38  0  0  0  0  0  0  0  0999 V2000
    4.9246    1.7723   17.0031 H   0  0  0  0  0  0  0  0  0  0  0  0
    5.4109    1.2854   17.8465 C   0  0  0  0  0  0  0  0  0  0  0  0
    6.5755    0.6674   17.5933 N   0  0  0  0  0  0  0  0  0  0  0  0
    7.1805    0.0539   18.6156 C   0  0  0  0  0  0  0  0  0  0  0  0
    8.1260   -0.4324   18.3842 H   0  0  0  0  0  0  0  0  0  0  0  0
    6.6464    0.0158   19.9111 C   0  0  0  0  0  0  0  0  0  0  0  0
    7.3622   -0.6882   20.9651 C   0  0  0  0  0  0  0  0  0  0  0  0
    8.5476   -1.3254   20.7533 N   0  0  0  0  0  0  0  0  0  0  0  0
    8.8011   -1.8170   21.9494 C   0  0  0  0  0  0  0  0  0  0  0  0
    9.9969   -2.8216   22.7259 S   0  0  0  0  0  0  0  0  0  0  0  0
    9.0788   -2.7688   24.2004 C   0  0  0  0  0  0  0  0  0  0  0  0
    9.4568   -3.2890   25.0686 H   0  0  0  0  0  0  0  0  0  0  0  0
    7.9584   -2.0153   24.1137 C   0  0  0  0  0  0  0  0  0  0  0  0
    6.9748   -1.7620   25.1848 C   0  0  0  0  0  0  0  0  0  0  0  0
    6.2400   -0.5354   25.2631 C   0  0  0  0  0  0  0  0  0  0  0  0
    6.4008    0.2238   24.5029 H   0  0  0  0  0  0  0  0  0  0  0  0
    5.3203   -0.3016   26.2775 C   0  0  0  0  0  0  0  0  0  0  0  0
    4.7488    0.6216   26.3450 H   0  0  0  0  0  0  0  0  0  0  0  0
    5.1394   -1.3177   27.2340 C   0  0  0  0  0  0  0  0  0  0  0  0
    5.8521   -2.5367   27.1864 C   0  0  0  0  0  0  0  0  0  0  0  0
    6.7774   -2.7512   26.1573 C   0  0  0  0  0  0  0  0  0  0  0  0
    7.3122   -3.6971   26.1273 H   0  0  0  0  0  0  0  0  0  0  0  0
    5.4161   -3.3264   28.2998 C   0  0  0  0  0  0  0  0  0  0  0  0
    5.7953   -4.3071   28.5487 H   0  0  0  0  0  0  0  0  0  0  0  0
    4.4927   -2.5894   28.9787 C   0  0  0  0  0  0  0  0  0  0  0  0
    3.9395   -2.8341   29.8824 H   0  0  0  0  0  0  0  0  0  0  0  0
    4.3220   -1.3787   28.3311 N   0  0  0  0  0  0  0  0  0  0  0  0
    3.7014   -0.6375   28.5966 H   0  0  0  0  0  0  0  0  0  0  0  0
    7.8360   -1.4806   22.8276 N   0  0  0  0  0  0  0  0  0  0  0  0
    6.8814   -0.7489   22.2017 N   0  0  0  0  0  0  0  0  0  0  0  0
    5.4266    0.6583   20.1683 C   0  0  0  0  0  0  0  0  0  0  0  0
    4.9997    0.6334   21.1761 H   0  0  0  0  0  0  0  0  0  0  0  0
    4.8043    1.3098   19.1097 C   0  0  0  0  0  0  0  0  0  0  0  0
    3.8732    1.8435   19.2600 H   0  0  0  0  0  0  0  0  0  0  0  0
  1  2  1  0
  2  3  2  0
  3  4  1  0
  4  5  1  0
  4  6  2  0
  6  7  1  0
  7  8  1  0
  8  9  2  0
  9 10  1  0
 10 11  1  0
 11 12  1  0
 11 13  2  0
 13 14  1  0
 14 15  2  0
 15 16  1  0
 15 17  1  0
 17 18  1  0
 17 19  2  0
 19 20  1  0
 20 21  2  0
 21 22  1  0
 20 23  1  0
 23 24  1  0
 23 25  2  0
 25 26  1  0
 25 27  1  0
 27 28  1  0
 13 29  1  0
 29 30  1  0
  6 31  1  0
 31 32  1  0
 31 33  2  0
 33 34  1  0
 33  2  1  0
 30  7  2  0
 29  9  1  0
 21 14  1  0
 27 19  1  0
M  END
>  <cnnaffinity>  (1) 
-5.71826

>  <filename>  (1) 
c1cncc(-c2nc3scc(-c4ccc5[nH]ccc5c4)n3n2)c1

$$$$
