
     RDKit          3D

 41 44  0  0  0  0  0  0  0  0999 V2000
    4.8850    1.5159   16.6982 H   0  0  0  0  0  0  0  0  0  0  0  0
    5.4273    1.1198   17.5531 C   0  0  0  0  0  0  0  0  0  0  0  0
    6.6290    0.5911   17.2870 N   0  0  0  0  0  0  0  0  0  0  0  0
    7.3548    0.1329   18.3137 C   0  0  0  0  0  0  0  0  0  0  0  0
    8.3350   -0.2644   18.0613 H   0  0  0  0  0  0  0  0  0  0  0  0
    6.9251    0.1810   19.6504 C   0  0  0  0  0  0  0  0  0  0  0  0
    7.7481   -0.2266   20.7206 N   0  0  0  0  0  0  0  0  0  0  0  0
    8.6431   -1.2927   20.7799 C   0  0  0  0  0  0  0  0  0  0  0  0
    8.7719   -1.9476   19.9425 H   0  0  0  0  0  0  0  0  0  0  0  0
    9.2071   -1.3571   22.0123 C   0  0  0  0  0  0  0  0  0  0  0  0
    9.9551   -1.9919   22.4547 H   0  0  0  0  0  0  0  0  0  0  0  0
    8.6525   -0.3033   22.7216 N   0  0  0  0  0  0  0  0  0  0  0  0
    8.7478    0.1661   23.9848 N   0  0  0  0  0  0  0  0  0  0  0  0
    7.8913    1.1925   23.9935 C   0  0  0  0  0  0  0  0  0  0  0  0
    7.6791    2.0061   25.2336 C   0  0  0  0  0  0  0  0  0  0  0  0
    7.8686    3.0573   24.9841 H   0  0  0  0  0  0  0  0  0  0  0  0
    8.4542    1.7224   25.9515 H   0  0  0  0  0  0  0  0  0  0  0  0
    6.2736    1.8954   25.8879 C   0  0  0  0  0  0  0  0  0  0  0  0
    5.5315    2.0681   25.0943 H   0  0  0  0  0  0  0  0  0  0  0  0
    6.0100    0.5079   26.5160 C   0  0  0  0  0  0  0  0  0  0  0  0
    4.9513    0.4767   26.8207 H   0  0  0  0  0  0  0  0  0  0  0  0
    6.1603   -0.2866   25.7727 H   0  0  0  0  0  0  0  0  0  0  0  0
    6.8851    0.2350   27.7602 C   0  0  0  0  0  0  0  0  0  0  0  0
    6.5735   -0.7025   28.2389 H   0  0  0  0  0  0  0  0  0  0  0  0
    7.9246    0.0718   27.4381 H   0  0  0  0  0  0  0  0  0  0  0  0
    6.8444    1.3736   28.7989 C   0  0  0  0  0  0  0  0  0  0  0  0
    5.8846    1.3455   29.3388 H   0  0  0  0  0  0  0  0  0  0  0  0
    7.6323    1.2147   29.5470 H   0  0  0  0  0  0  0  0  0  0  0  0
    7.0168    2.7600   28.1591 C   0  0  0  0  0  0  0  0  0  0  0  0
    6.8890    3.5511   28.9056 H   0  0  0  0  0  0  0  0  0  0  0  0
    8.0436    2.8639   27.7833 H   0  0  0  0  0  0  0  0  0  0  0  0
    6.0503    2.9619   26.9826 C   0  0  0  0  0  0  0  0  0  0  0  0
    6.1423    3.9723   26.5579 H   0  0  0  0  0  0  0  0  0  0  0  0
    5.0153    2.8631   27.3536 H   0  0  0  0  0  0  0  0  0  0  0  0
    7.2519    1.4003   22.7531 C   0  0  0  0  0  0  0  0  0  0  0  0
    6.5672    2.1988   22.5221 H   0  0  0  0  0  0  0  0  0  0  0  0
    7.7820    0.3850   21.9620 C   0  0  0  0  0  0  0  0  0  0  0  0
    5.6508    0.7076   19.9114 C   0  0  0  0  0  0  0  0  0  0  0  0
    5.2962    0.7565   20.9398 H   0  0  0  0  0  0  0  0  0  0  0  0
    4.8988    1.1958   18.8443 C   0  0  0  0  0  0  0  0  0  0  0  0
    3.9308    1.6522   19.0036 H   0  0  0  0  0  0  0  0  0  0  0  0
  1  2  1  0
  2  3  2  0
  3  4  1  0
  4  5  1  0
  4  6  2  0
  6  7  1  0
  7  8  1  0
  8  9  1  0
  8 10  2  0
 10 11  1  0
 10 12  1  0
 12 13  1  0
 13 14  2  0
 14 15  1  0
 15 16  1  0
 15 17  1  0
 15 18  1  0
 18 19  1  0
 18 20  1  0
 20 21  1  0
 20 22  1  0
 20 23  1  0
 23 24  1  0
 23 25  1  0
 23 26  1  0
 26 27  1  0
 26 28  1  0
 26 29  1  0
 29 30  1  0
 29 31  1  0
 29 32  1  0
 32 33  1  0
 32 34  1  0
 14 35  1  0
 35 36  1  0
 35 37  2  0
  6 38  1  0
 38 39  1  0
 38 40  2  0
 40 41  1  0
 40  2  1  0
 37  7  1  0
 37 12  1  0
 32 18  1  0
M  END
>  <cnnaffinity>  (1) 
-5.30898

>  <filename>  (1) 
c1cncc(-n2ccn3nc(CC4CCCCC4)cc23)c1

$$$$
