
     RDKit          3D

 33 36  0  0  0  0  0  0  0  0999 V2000
    6.5083    4.3441   24.5491 H   0  0  0  0  0  0  0  0  0  0  0  0
    6.7151    3.3842   24.0845 C   0  0  0  0  0  0  0  0  0  0  0  0
    6.7058    2.3017   24.8876 N   0  0  0  0  0  0  0  0  0  0  0  0
    6.9606    1.1234   24.2917 C   0  0  0  0  0  0  0  0  0  0  0  0
    6.9575    0.2257   24.9173 H   0  0  0  0  0  0  0  0  0  0  0  0
    7.2044    1.0241   22.9007 C   0  0  0  0  0  0  0  0  0  0  0  0
    7.5053   -0.2499   22.3067 C   0  0  0  0  0  0  0  0  0  0  0  0
    7.3610   -0.6664   20.9476 C   0  0  0  0  0  0  0  0  0  0  0  0
    6.6153   -0.0199   19.8712 C   0  0  0  0  0  0  0  0  0  0  0  0
    7.1482    0.0273   18.5724 C   0  0  0  0  0  0  0  0  0  0  0  0
    8.1036   -0.4460   18.3451 H   0  0  0  0  0  0  0  0  0  0  0  0
    6.5611    0.6692   17.5590 N   0  0  0  0  0  0  0  0  0  0  0  0
    5.3969    1.2916   17.8079 C   0  0  0  0  0  0  0  0  0  0  0  0
    4.9490    1.8205   16.9694 H   0  0  0  0  0  0  0  0  0  0  0  0
    4.7721    1.2853   19.0583 C   0  0  0  0  0  0  0  0  0  0  0  0
    3.8570    1.8433   19.2220 H   0  0  0  0  0  0  0  0  0  0  0  0
    5.3854    0.6086   20.1069 C   0  0  0  0  0  0  0  0  0  0  0  0
    4.9597    0.6349   21.1112 H   0  0  0  0  0  0  0  0  0  0  0  0
    8.0357   -1.7904   20.7412 N   0  0  0  0  0  0  0  0  0  0  0  0
    8.5278   -2.0934   21.9409 N   0  0  0  0  0  0  0  0  0  0  0  0
    8.2686   -1.2284   22.9136 C   0  0  0  0  0  0  0  0  0  0  0  0
    9.1611   -1.4673   24.1092 C   0  0  0  0  0  0  0  0  0  0  0  0
    8.5910   -1.6435   25.0278 H   0  0  0  0  0  0  0  0  0  0  0  0
    9.7828   -0.5791   24.2745 H   0  0  0  0  0  0  0  0  0  0  0  0
    9.9929   -2.7069   23.6694 C   0  0  0  0  0  0  0  0  0  0  0  0
    9.8348   -3.5635   24.3230 H   0  0  0  0  0  0  0  0  0  0  0  0
   11.0579   -2.4983   23.6562 H   0  0  0  0  0  0  0  0  0  0  0  0
    9.5453   -3.0570   22.2274 C   0  0  0  0  0  0  0  0  0  0  0  0
    9.1168   -4.0564   22.1455 H   0  0  0  0  0  0  0  0  0  0  0  0
   10.3431   -2.9013   21.4993 H   0  0  0  0  0  0  0  0  0  0  0  0
    7.2194    2.1198   22.1007 N   0  0  0  0  0  0  0  0  0  0  0  0
    6.9733    3.2873   22.7016 C   0  0  0  0  0  0  0  0  0  0  0  0
    6.9743    4.1636   22.0586 H   0  0  0  0  0  0  0  0  0  0  0  0
  1  2  1  0
  2  3  2  0
  3  4  1  0
  4  5  1  0
  4  6  2  0
  6  7  1  0
  7  8  1  0
  8  9  1  0
  9 10  2  0
 10 11  1  0
 10 12  1  0
 12 13  2  0
 13 14  1  0
 13 15  1  0
 15 16  1  0
 15 17  2  0
 17 18  1  0
  8 19  2  0
 19 20  1  0
 20 21  1  0
 21 22  1  0
 22 23  1  0
 22 24  1  0
 22 25  1  0
 25 26  1  0
 25 27  1  0
 25 28  1  0
 28 29  1  0
 28 30  1  0
  6 31  1  0
 31 32  2  0
 32 33  1  0
 32  2  1  0
 21  7  2  0
 17  9  1  0
 28 20  1  0
M  END
>  <cnnaffinity>  (1) 
-5.44336

>  <filename>  (1) 
c1cncc(-c2nn3c(c2-c2cnccn2)CCC3)c1

$$$$
