
     RDKit          3D

 31 34  0  0  0  0  0  0  0  0999 V2000
    5.0219    1.7969   17.0003 H   0  0  0  0  0  0  0  0  0  0  0  0
    5.4649    1.2878   17.8557 C   0  0  0  0  0  0  0  0  0  0  0  0
    6.6215    0.6446   17.6246 N   0  0  0  0  0  0  0  0  0  0  0  0
    7.2002    0.0354   18.6645 C   0  0  0  0  0  0  0  0  0  0  0  0
    8.1205   -0.5006   18.4431 H   0  0  0  0  0  0  0  0  0  0  0  0
    6.7051    0.0524   19.9920 C   0  0  0  0  0  0  0  0  0  0  0  0
    7.4477   -0.5872   21.1133 C   0  0  0  0  0  0  0  0  0  0  0  0
    8.3759   -2.0222   20.8907 S   0  0  0  0  0  0  0  0  0  0  0  0
    8.6892   -2.2867   22.4971 N   0  0  0  0  0  0  0  0  0  0  0  0
    8.1627   -1.3185   23.1940 C   0  0  0  0  0  0  0  0  0  0  0  0
    8.2785   -1.3348   24.2801 H   0  0  0  0  0  0  0  0  0  0  0  0
    7.4784   -0.2861   22.4660 C   0  0  0  0  0  0  0  0  0  0  0  0
    6.9542    0.9114   23.1403 C   0  0  0  0  0  0  0  0  0  0  0  0
    6.0926    0.7626   24.2374 C   0  0  0  0  0  0  0  0  0  0  0  0
    5.8025   -0.2415   24.5286 H   0  0  0  0  0  0  0  0  0  0  0  0
    5.5485    1.8686   24.9132 C   0  0  0  0  0  0  0  0  0  0  0  0
    4.8210    1.7114   25.7033 H   0  0  0  0  0  0  0  0  0  0  0  0
    5.8717    3.1664   24.5300 C   0  0  0  0  0  0  0  0  0  0  0  0
    5.4175    4.0387   24.9913 H   0  0  0  0  0  0  0  0  0  0  0  0
    6.7838    3.3139   23.4747 C   0  0  0  0  0  0  0  0  0  0  0  0
    7.3355    2.2265   22.7533 C   0  0  0  0  0  0  0  0  0  0  0  0
    8.1694    2.8160   21.7314 C   0  0  0  0  0  0  0  0  0  0  0  0
    8.7288    2.3128   20.9537 H   0  0  0  0  0  0  0  0  0  0  0  0
    8.0835    4.1718   21.8665 C   0  0  0  0  0  0  0  0  0  0  0  0
    8.5255    4.9565   21.2699 H   0  0  0  0  0  0  0  0  0  0  0  0
    7.2773    4.4733   22.9410 N   0  0  0  0  0  0  0  0  0  0  0  0
    6.8649    5.3707   23.1313 H   0  0  0  0  0  0  0  0  0  0  0  0
    5.4742    0.7036   20.1956 C   0  0  0  0  0  0  0  0  0  0  0  0
    5.0213    0.7201   21.1893 H   0  0  0  0  0  0  0  0  0  0  0  0
    4.8413    1.3162   19.1077 C   0  0  0  0  0  0  0  0  0  0  0  0
    3.8843    1.8197   19.2109 H   0  0  0  0  0  0  0  0  0  0  0  0
  1  2  1  0
  2  3  2  0
  3  4  1  0
  4  5  1  0
  4  6  2  0
  6  7  1  0
  7  8  1  0
  8  9  1  0
  9 10  2  0
 10 11  1  0
 10 12  1  0
 12 13  1  0
 13 14  2  0
 14 15  1  0
 14 16  1  0
 16 17  1  0
 16 18  2  0
 18 19  1  0
 18 20  1  0
 20 21  2  0
 21 22  1  0
 22 23  1  0
 22 24  2  0
 24 25  1  0
 24 26  1  0
 26 27  1  0
  6 28  1  0
 28 29  1  0
 28 30  2  0
 30 31  1  0
 30  2  1  0
 12  7  2  0
 21 13  1  0
 26 20  1  0
M  END
>  <cnnaffinity>  (1) 
-4.73123

>  <filename>  (1) 
c1cncc(-c2sncc2-c2cccc3[nH]ccc23)c1

$$$$
