
     RDKit          3D

 31 33  0  0  0  0  0  0  0  0999 V2000
   10.4935   -1.3115   21.8762 H   0  0  0  0  0  0  0  0  0  0  0  0
    9.4035   -1.3396   21.8911 C   0  0  0  0  0  0  0  0  0  0  0  0
    8.7723   -0.7116   20.8973 N   0  0  0  0  0  0  0  0  0  0  0  0
    7.4362   -0.7209   20.9500 C   0  0  0  0  0  0  0  0  0  0  0  0
    6.6864    0.0126   19.9101 C   0  0  0  0  0  0  0  0  0  0  0  0
    7.1973    0.0567   18.6062 C   0  0  0  0  0  0  0  0  0  0  0  0
    8.1462   -0.4173   18.3675 H   0  0  0  0  0  0  0  0  0  0  0  0
    6.5776    0.6551   17.5854 N   0  0  0  0  0  0  0  0  0  0  0  0
    5.4182    1.2778   17.8417 C   0  0  0  0  0  0  0  0  0  0  0  0
    4.9535    1.7831   16.9977 H   0  0  0  0  0  0  0  0  0  0  0  0
    4.8203    1.3052   19.1064 C   0  0  0  0  0  0  0  0  0  0  0  0
    3.8810    1.8315   19.2474 H   0  0  0  0  0  0  0  0  0  0  0  0
    5.4596    0.6562   20.1608 C   0  0  0  0  0  0  0  0  0  0  0  0
    5.0132    0.6676   21.1593 H   0  0  0  0  0  0  0  0  0  0  0  0
    6.7437   -1.4092   21.9394 C   0  0  0  0  0  0  0  0  0  0  0  0
    5.6680   -1.4843   21.8797 H   0  0  0  0  0  0  0  0  0  0  0  0
    7.4939   -2.0115   22.9377 C   0  0  0  0  0  0  0  0  0  0  0  0
    6.8190   -2.7043   24.1079 C   0  0  0  0  0  0  0  0  0  0  0  0
    5.8997   -3.1822   23.7475 H   0  0  0  0  0  0  0  0  0  0  0  0
    7.4952   -3.5020   24.4314 H   0  0  0  0  0  0  0  0  0  0  0  0
    6.4874   -1.7859   25.2897 C   0  0  0  0  0  0  0  0  0  0  0  0
    5.2189   -1.2018   25.4896 C   0  0  0  0  0  0  0  0  0  0  0  0
    4.3430   -1.5326   24.9296 H   0  0  0  0  0  0  0  0  0  0  0  0
    4.9697   -0.2449   26.3922 N   0  0  0  0  0  0  0  0  0  0  0  0
    5.9647    0.1128   27.2122 C   0  0  0  0  0  0  0  0  0  0  0  0
    5.7214    0.8858   27.9369 H   0  0  0  0  0  0  0  0  0  0  0  0
    7.2274   -0.4788   27.1918 C   0  0  0  0  0  0  0  0  0  0  0  0
    7.9530   -0.2177   27.9560 H   0  0  0  0  0  0  0  0  0  0  0  0
    7.4924   -1.4279   26.2010 C   0  0  0  0  0  0  0  0  0  0  0  0
    8.4663   -1.9069   26.1135 H   0  0  0  0  0  0  0  0  0  0  0  0
    8.8349   -1.9969   22.9015 N   0  0  0  0  0  0  0  0  0  0  0  0
  1  2  1  0
  2  3  2  0
  3  4  1  0
  4  5  1  0
  5  6  2  0
  6  7  1  0
  6  8  1  0
  8  9  2  0
  9 10  1  0
  9 11  1  0
 11 12  1  0
 11 13  2  0
 13 14  1  0
  4 15  2  0
 15 16  1  0
 15 17  1  0
 17 18  1  0
 18 19  1  0
 18 20  1  0
 18 21  1  0
 21 22  2  0
 22 23  1  0
 22 24  1  0
 24 25  2  0
 25 26  1  0
 25 27  1  0
 27 28  1  0
 27 29  2  0
 29 30  1  0
 17 31  2  0
 31  2  1  0
 13  5  1  0
 29 21  1  0
M  END
>  <cnnaffinity>  (1) 
-5.16038

>  <filename>  (1) 
c1cncc(Cc2cc(-c3cccnc3)ncn2)c1

$$$$
