
     RDKit          3D

 32 35  0  0  0  0  0  0  0  0999 V2000
    4.9574    1.8084   16.9831 H   0  0  0  0  0  0  0  0  0  0  0  0
    5.4043    1.2891   17.8258 C   0  0  0  0  0  0  0  0  0  0  0  0
    6.5726    0.6741   17.5847 N   0  0  0  0  0  0  0  0  0  0  0  0
    7.1872    0.0836   18.6160 C   0  0  0  0  0  0  0  0  0  0  0  0
    8.1428   -0.3919   18.3922 H   0  0  0  0  0  0  0  0  0  0  0  0
    6.6676    0.0578   19.9297 C   0  0  0  0  0  0  0  0  0  0  0  0
    7.3690   -0.6203   20.9837 N   0  0  0  0  0  0  0  0  0  0  0  0
    7.7357   -1.9420   20.9599 C   0  0  0  0  0  0  0  0  0  0  0  0
    7.4110   -2.5572   20.1449 H   0  0  0  0  0  0  0  0  0  0  0  0
    8.3241   -2.3472   22.0523 N   0  0  0  0  0  0  0  0  0  0  0  0
    8.2905   -1.2553   22.8734 C   0  0  0  0  0  0  0  0  0  0  0  0
    8.6449   -1.2940   23.8911 H   0  0  0  0  0  0  0  0  0  0  0  0
    7.6834   -0.1872   22.2729 C   0  0  0  0  0  0  0  0  0  0  0  0
    7.3156    1.1042   22.8292 C   0  0  0  0  0  0  0  0  0  0  0  0
    7.6011    2.2805   22.1269 C   0  0  0  0  0  0  0  0  0  0  0  0
    8.0401    2.1958   21.1367 H   0  0  0  0  0  0  0  0  0  0  0  0
    7.2992    3.5375   22.6698 C   0  0  0  0  0  0  0  0  0  0  0  0
    7.5460    4.4300   22.1016 H   0  0  0  0  0  0  0  0  0  0  0  0
    6.6895    3.6614   23.9155 C   0  0  0  0  0  0  0  0  0  0  0  0
    6.4668    4.6411   24.3261 H   0  0  0  0  0  0  0  0  0  0  0  0
    6.3740    2.4806   24.6096 C   0  0  0  0  0  0  0  0  0  0  0  0
    6.6611    1.1945   24.0860 C   0  0  0  0  0  0  0  0  0  0  0  0
    6.1355    0.2451   25.0349 C   0  0  0  0  0  0  0  0  0  0  0  0
    6.1151   -0.8300   24.9307 H   0  0  0  0  0  0  0  0  0  0  0  0
    5.6096    0.9535   26.0737 C   0  0  0  0  0  0  0  0  0  0  0  0
    5.1623    0.5930   26.9894 H   0  0  0  0  0  0  0  0  0  0  0  0
    5.7504    2.2983   25.8221 N   0  0  0  0  0  0  0  0  0  0  0  0
    5.4552    3.0345   26.4396 H   0  0  0  0  0  0  0  0  0  0  0  0
    5.4206    0.6665   20.1529 C   0  0  0  0  0  0  0  0  0  0  0  0
    4.9829    0.6587   21.1539 H   0  0  0  0  0  0  0  0  0  0  0  0
    4.7860    1.3003   19.0809 C   0  0  0  0  0  0  0  0  0  0  0  0
    3.8435    1.8228   19.2143 H   0  0  0  0  0  0  0  0  0  0  0  0
  1  2  1  0
  2  3  2  0
  3  4  1  0
  4  5  1  0
  4  6  2  0
  6  7  1  0
  7  8  1  0
  8  9  1  0
  8 10  2  0
 10 11  1  0
 11 12  1  0
 11 13  2  0
 13 14  1  0
 14 15  2  0
 15 16  1  0
 15 17  1  0
 17 18  1  0
 17 19  2  0
 19 20  1  0
 19 21  1  0
 21 22  2  0
 22 23  1  0
 23 24  1  0
 23 25  2  0
 25 26  1  0
 25 27  1  0
 27 28  1  0
  6 29  1  0
 29 30  1  0
 29 31  2  0
 31 32  1  0
 31  2  1  0
 13  7  1  0
 22 14  1  0
 27 21  1  0
M  END
>  <cnnaffinity>  (1) 
-5.25481

>  <filename>  (1) 
c1cncc(-n2cncc2-c2cccc3[nH]ccc23)c1

$$$$
