
     RDKit          3D

 40 43  0  0  0  0  0  0  0  0999 V2000
    5.0129    1.8556   17.0124 H   0  0  0  0  0  0  0  0  0  0  0  0
    5.5266    1.3219   17.8087 C   0  0  0  0  0  0  0  0  0  0  0  0
    6.6824    0.7300   17.4691 N   0  0  0  0  0  0  0  0  0  0  0  0
    7.3508    0.0539   18.4150 C   0  0  0  0  0  0  0  0  0  0  0  0
    8.2933   -0.4000   18.0991 H   0  0  0  0  0  0  0  0  0  0  0  0
    6.8767   -0.0906   19.7344 C   0  0  0  0  0  0  0  0  0  0  0  0
    7.5330   -0.9300   20.6767 N   0  0  0  0  0  0  0  0  0  0  0  0
    8.8654   -0.8433   21.0821 C   0  0  0  0  0  0  0  0  0  0  0  0
    9.5063   -0.0911   20.6525 H   0  0  0  0  0  0  0  0  0  0  0  0
    9.0919   -1.7311   22.0867 C   0  0  0  0  0  0  0  0  0  0  0  0
    9.9418   -1.9573   22.7078 H   0  0  0  0  0  0  0  0  0  0  0  0
    7.8866   -2.3753   22.3069 N   0  0  0  0  0  0  0  0  0  0  0  0
    7.4291   -3.2794   23.2122 N   0  0  0  0  0  0  0  0  0  0  0  0
    6.1284   -3.3417   22.9289 C   0  0  0  0  0  0  0  0  0  0  0  0
    5.1654   -4.1928   23.6961 C   0  0  0  0  0  0  0  0  0  0  0  0
    5.6800   -5.0848   24.0687 H   0  0  0  0  0  0  0  0  0  0  0  0
    4.3903   -4.5458   23.0066 H   0  0  0  0  0  0  0  0  0  0  0  0
    4.4318   -3.5054   24.8606 C   0  0  0  0  0  0  0  0  0  0  0  0
    3.9106   -2.6084   24.5044 H   0  0  0  0  0  0  0  0  0  0  0  0
    5.1564   -3.1596   25.6319 H   0  0  0  0  0  0  0  0  0  0  0  0
    3.4213   -4.4034   25.4145 N   0  0  0  0  0  0  0  0  0  0  0  0
    3.9553   -5.6428   25.9886 C   0  0  0  0  0  0  0  0  0  0  0  0
    4.9219   -5.4698   26.5016 H   0  0  0  0  0  0  0  0  0  0  0  0
    4.1475   -6.3819   25.2005 H   0  0  0  0  0  0  0  0  0  0  0  0
    2.8922   -6.1344   26.9878 C   0  0  0  0  0  0  0  0  0  0  0  0
    3.3593   -6.4101   27.9374 H   0  0  0  0  0  0  0  0  0  0  0  0
    2.3863   -7.0296   26.6162 H   0  0  0  0  0  0  0  0  0  0  0  0
    1.9021   -4.9630   27.1442 C   0  0  0  0  0  0  0  0  0  0  0  0
    1.6829   -4.7334   28.1907 H   0  0  0  0  0  0  0  0  0  0  0  0
    0.9483   -5.1961   26.6634 H   0  0  0  0  0  0  0  0  0  0  0  0
    2.5795   -3.7839   26.4381 C   0  0  0  0  0  0  0  0  0  0  0  0
    3.1726   -3.1864   27.1597 H   0  0  0  0  0  0  0  0  0  0  0  0
    1.8520   -3.0982   25.9829 H   0  0  0  0  0  0  0  0  0  0  0  0
    5.7563   -2.5303   21.8447 C   0  0  0  0  0  0  0  0  0  0  0  0
    4.7484   -2.4294   21.5216 H   0  0  0  0  0  0  0  0  0  0  0  0
    6.9379   -1.8999   21.4730 C   0  0  0  0  0  0  0  0  0  0  0  0
    5.6971    0.5828   20.0898 C   0  0  0  0  0  0  0  0  0  0  0  0
    5.3552    0.5702   21.1257 H   0  0  0  0  0  0  0  0  0  0  0  0
    5.0013    1.2872   19.1051 C   0  0  0  0  0  0  0  0  0  0  0  0
    4.0798    1.8141   19.3300 H   0  0  0  0  0  0  0  0  0  0  0  0
  1  2  1  0
  2  3  2  0
  3  4  1  0
  4  5  1  0
  4  6  2  0
  6  7  1  0
  7  8  1  0
  8  9  1  0
  8 10  2  0
 10 11  1  0
 10 12  1  0
 12 13  1  0
 13 14  2  0
 14 15  1  0
 15 16  1  0
 15 17  1  0
 15 18  1  0
 18 19  1  0
 18 20  1  0
 18 21  1  0
 21 22  1  0
 22 23  1  0
 22 24  1  0
 22 25  1  0
 25 26  1  0
 25 27  1  0
 25 28  1  0
 28 29  1  0
 28 30  1  0
 28 31  1  0
 31 32  1  0
 31 33  1  0
 14 34  1  0
 34 35  1  0
 34 36  2  0
  6 37  1  0
 37 38  1  0
 37 39  2  0
 39 40  1  0
 39  2  1  0
 36  7  1  0
 36 12  1  0
 31 21  1  0
M  END
>  <cnnaffinity>  (1) 
-5.26367

>  <filename>  (1) 
c1cncc(-n2ccn3nc(CCN4CCCC4)cc23)c1

$$$$
