
     RDKit          3D

 34 38  0  0  0  0  0  0  0  0999 V2000
    4.9461    1.8004   16.9820 H   0  0  0  0  0  0  0  0  0  0  0  0
    5.4037    1.2882   17.8275 C   0  0  0  0  0  0  0  0  0  0  0  0
    6.5631    0.6602   17.5777 N   0  0  0  0  0  0  0  0  0  0  0  0
    7.1577    0.0263   18.5918 C   0  0  0  0  0  0  0  0  0  0  0  0
    8.1063   -0.4543   18.3620 H   0  0  0  0  0  0  0  0  0  0  0  0
    6.6427   -0.0094   19.8961 C   0  0  0  0  0  0  0  0  0  0  0  0
    7.3889   -0.6871   20.9505 C   0  0  0  0  0  0  0  0  0  0  0  0
    8.0505   -1.8687   20.7282 N   0  0  0  0  0  0  0  0  0  0  0  0
    8.4673   -2.2162   21.9156 C   0  0  0  0  0  0  0  0  0  0  0  0
    9.3541   -3.5445   22.5979 S   0  0  0  0  0  0  0  0  0  0  0  0
    9.4280   -2.7448   24.1448 C   0  0  0  0  0  0  0  0  0  0  0  0
    9.9980   -3.2130   24.9383 H   0  0  0  0  0  0  0  0  0  0  0  0
    8.7437   -1.5889   24.1447 C   0  0  0  0  0  0  0  0  0  0  0  0
    8.5943   -0.8705   24.9423 H   0  0  0  0  0  0  0  0  0  0  0  0
    8.1729   -1.3185   22.9023 N   0  0  0  0  0  0  0  0  0  0  0  0
    7.4941   -0.2890   22.2822 C   0  0  0  0  0  0  0  0  0  0  0  0
    7.0922    0.9309   22.9667 C   0  0  0  0  0  0  0  0  0  0  0  0
    7.3145    2.1902   22.3306 C   0  0  0  0  0  0  0  0  0  0  0  0
    7.7712    2.1881   21.3461 H   0  0  0  0  0  0  0  0  0  0  0  0
    6.9330    3.3799   22.9186 C   0  0  0  0  0  0  0  0  0  0  0  0
    7.1029    4.3267   22.4166 H   0  0  0  0  0  0  0  0  0  0  0  0
    6.3073    3.2984   24.1865 C   0  0  0  0  0  0  0  0  0  0  0  0
    6.0683    2.0617   24.8378 C   0  0  0  0  0  0  0  0  0  0  0  0
    5.4389    2.4298   26.0700 C   0  0  0  0  0  0  0  0  0  0  0  0
    5.0879    1.7942   26.8794 H   0  0  0  0  0  0  0  0  0  0  0  0
    5.3012    3.7363   26.1646 N   0  0  0  0  0  0  0  0  0  0  0  0
    5.8242    4.2530   25.0281 N   0  0  0  0  0  0  0  0  0  0  0  0
    5.8196    5.2514   24.8775 H   0  0  0  0  0  0  0  0  0  0  0  0
    6.4636    0.8623   24.2053 C   0  0  0  0  0  0  0  0  0  0  0  0
    6.2727   -0.1181   24.6297 H   0  0  0  0  0  0  0  0  0  0  0  0
    5.4213    0.6447   20.1415 C   0  0  0  0  0  0  0  0  0  0  0  0
    4.9979    0.6660   21.1482 H   0  0  0  0  0  0  0  0  0  0  0  0
    4.7948    1.3031   19.0877 C   0  0  0  0  0  0  0  0  0  0  0  0
    3.8660    1.8454   19.2290 H   0  0  0  0  0  0  0  0  0  0  0  0
  1  2  1  0
  2  3  2  0
  3  4  1  0
  4  5  1  0
  4  6  2  0
  6  7  1  0
  7  8  1  0
  8  9  2  0
  9 10  1  0
 10 11  1  0
 11 12  1  0
 11 13  2  0
 13 14  1  0
 13 15  1  0
 15 16  1  0
 16 17  1  0
 17 18  2  0
 18 19  1  0
 18 20  1  0
 20 21  1  0
 20 22  2  0
 22 23  1  0
 23 24  1  0
 24 25  1  0
 24 26  2  0
 26 27  1  0
 27 28  1  0
 23 29  2  0
 29 30  1  0
  6 31  1  0
 31 32  1  0
 31 33  2  0
 33 34  1  0
 33  2  1  0
 16  7  2  0
 29 17  1  0
 15  9  1  0
 27 22  1  0
M  END
>  <cnnaffinity>  (1) 
-5.7403

>  <filename>  (1) 
c1cncc(-c2nc3sccn3c2-c2ccc3[nH]ncc3c2)c1

$$$$
