
     RDKit          3D

 32 35  0  0  0  0  0  0  0  0999 V2000
    9.3544   -3.2006   21.7681 H   0  0  0  0  0  0  0  0  0  0  0  0
    8.7507   -2.3010   21.8796 C   0  0  0  0  0  0  0  0  0  0  0  0
    8.5224   -1.9143   23.1297 N   0  0  0  0  0  0  0  0  0  0  0  0
    7.8029   -0.7967   23.2998 C   0  0  0  0  0  0  0  0  0  0  0  0
    7.6860   -0.3042   24.6926 C   0  0  0  0  0  0  0  0  0  0  0  0
    7.9465   -1.0572   25.7984 C   0  0  0  0  0  0  0  0  0  0  0  0
    8.3049   -2.0802   25.8127 H   0  0  0  0  0  0  0  0  0  0  0  0
    7.6524   -0.2473   27.2927 S   0  0  0  0  0  0  0  0  0  0  0  0
    7.1916    1.2037   26.4459 C   0  0  0  0  0  0  0  0  0  0  0  0
    6.7747    2.4175   27.0202 C   0  0  0  0  0  0  0  0  0  0  0  0
    6.6949    2.5158   28.0988 H   0  0  0  0  0  0  0  0  0  0  0  0
    6.4628    3.4822   26.1809 C   0  0  0  0  0  0  0  0  0  0  0  0
    6.1321    4.4278   26.6083 H   0  0  0  0  0  0  0  0  0  0  0  0
    6.5669    3.3502   24.7793 C   0  0  0  0  0  0  0  0  0  0  0  0
    6.3200    4.1945   24.1365 H   0  0  0  0  0  0  0  0  0  0  0  0
    6.9746    2.1524   24.2099 C   0  0  0  0  0  0  0  0  0  0  0  0
    7.0613    2.0503   23.1330 H   0  0  0  0  0  0  0  0  0  0  0  0
    7.2747    1.0455   25.0456 C   0  0  0  0  0  0  0  0  0  0  0  0
    7.1937   -0.1318   22.3115 N   0  0  0  0  0  0  0  0  0  0  0  0
    7.3864   -0.5604   21.0723 C   0  0  0  0  0  0  0  0  0  0  0  0
    6.6248    0.1036   20.0001 C   0  0  0  0  0  0  0  0  0  0  0  0
    7.1670    0.0933   18.7103 C   0  0  0  0  0  0  0  0  0  0  0  0
    8.1226   -0.3896   18.5080 H   0  0  0  0  0  0  0  0  0  0  0  0
    6.5871    0.6601   17.6544 N   0  0  0  0  0  0  0  0  0  0  0  0
    5.4160    1.2768   17.8648 C   0  0  0  0  0  0  0  0  0  0  0  0
    4.9840    1.7611   16.9968 H   0  0  0  0  0  0  0  0  0  0  0  0
    4.7700    1.3226   19.1057 C   0  0  0  0  0  0  0  0  0  0  0  0
    3.8225    1.8416   19.2007 H   0  0  0  0  0  0  0  0  0  0  0  0
    5.3823    0.7252   20.2036 C   0  0  0  0  0  0  0  0  0  0  0  0
    4.9230    0.7289   21.1969 H   0  0  0  0  0  0  0  0  0  0  0  0
    8.2475   -1.6111   20.7966 C   0  0  0  0  0  0  0  0  0  0  0  0
    8.4874   -1.8588   19.7862 H   0  0  0  0  0  0  0  0  0  0  0  0
  1  2  1  0
  2  3  2  0
  3  4  1  0
  4  5  1  0
  5  6  2  0
  6  7  1  0
  6  8  1  0
  8  9  1  0
  9 10  2  0
 10 11  1  0
 10 12  1  0
 12 13  1  0
 12 14  2  0
 14 15  1  0
 14 16  1  0
 16 17  1  0
 16 18  2  0
  4 19  2  0
 19 20  1  0
 20 21  1  0
 21 22  2  0
 22 23  1  0
 22 24  1  0
 24 25  2  0
 25 26  1  0
 25 27  1  0
 27 28  1  0
 27 29  2  0
 29 30  1  0
 20 31  2  0
 31 32  1  0
 31  2  1  0
 18  5  1  0
 29 21  1  0
 18  9  1  0
M  END
>  <cnnaffinity>  (1) 
-5.38264

>  <filename>  (1) 
c1cncc(-c2ccnc(-c3csc4ccccc34)n2)c1

$$$$
