
     RDKit          3D

 34 37  0  0  0  0  0  0  0  0999 V2000
    4.9308    1.8170   16.9113 H   0  0  0  0  0  0  0  0  0  0  0  0
    5.3837    1.3547   17.7845 C   0  0  0  0  0  0  0  0  0  0  0  0
    6.5678    0.7555   17.5831 N   0  0  0  0  0  0  0  0  0  0  0  0
    7.1358    0.1629   18.6399 C   0  0  0  0  0  0  0  0  0  0  0  0
    8.0960   -0.3197   18.4544 H   0  0  0  0  0  0  0  0  0  0  0  0
    6.5741    0.1289   19.9353 C   0  0  0  0  0  0  0  0  0  0  0  0
    7.2224   -0.6167   21.0531 C   0  0  0  0  0  0  0  0  0  0  0  0
    7.6046   -1.9663   20.9084 C   0  0  0  0  0  0  0  0  0  0  0  0
    7.3223   -2.5031   20.0188 H   0  0  0  0  0  0  0  0  0  0  0  0
    8.2249   -2.6728   21.8566 N   0  0  0  0  0  0  0  0  0  0  0  0
    8.4684   -2.1116   23.0476 N   0  0  0  0  0  0  0  0  0  0  0  0
    8.1140   -0.8344   23.2855 C   0  0  0  0  0  0  0  0  0  0  0  0
    8.3796   -0.3080   24.6474 C   0  0  0  0  0  0  0  0  0  0  0  0
    8.0069   -1.0354   25.7572 C   0  0  0  0  0  0  0  0  0  0  0  0
    7.7591   -2.0911   25.6735 H   0  0  0  0  0  0  0  0  0  0  0  0
    7.8859   -0.5093   27.0025 N   0  0  0  0  0  0  0  0  0  0  0  0
    8.1780    0.7643   27.1658 C   0  0  0  0  0  0  0  0  0  0  0  0
    8.0534    1.1680   28.1744 H   0  0  0  0  0  0  0  0  0  0  0  0
    8.6531    1.6165   26.1205 C   0  0  0  0  0  0  0  0  0  0  0  0
    8.8934    3.0141   26.2765 C   0  0  0  0  0  0  0  0  0  0  0  0
    8.6628    3.4980   27.2191 H   0  0  0  0  0  0  0  0  0  0  0  0
    9.4104    3.7525   25.2391 C   0  0  0  0  0  0  0  0  0  0  0  0
    9.5646    4.8228   25.3466 H   0  0  0  0  0  0  0  0  0  0  0  0
    9.7754    3.1248   24.0218 C   0  0  0  0  0  0  0  0  0  0  0  0
   10.1906    3.7235   23.2180 H   0  0  0  0  0  0  0  0  0  0  0  0
    9.5523    1.7761   23.8388 C   0  0  0  0  0  0  0  0  0  0  0  0
    9.8683    1.2628   22.9373 H   0  0  0  0  0  0  0  0  0  0  0  0
    8.8847    1.0176   24.8503 C   0  0  0  0  0  0  0  0  0  0  0  0
    7.4686   -0.0537   22.2953 C   0  0  0  0  0  0  0  0  0  0  0  0
    7.1866    0.9731   22.5144 H   0  0  0  0  0  0  0  0  0  0  0  0
    5.3551    0.7948   20.1235 C   0  0  0  0  0  0  0  0  0  0  0  0
    4.9006    0.8166   21.1159 H   0  0  0  0  0  0  0  0  0  0  0  0
    4.7400    1.3991   19.0253 C   0  0  0  0  0  0  0  0  0  0  0  0
    3.7863    1.9052   19.1198 H   0  0  0  0  0  0  0  0  0  0  0  0
  1  2  1  0
  2  3  2  0
  3  4  1  0
  4  5  1  0
  4  6  2  0
  6  7  1  0
  7  8  2  0
  8  9  1  0
  8 10  1  0
 10 11  2  0
 11 12  1  0
 12 13  1  0
 13 14  2  0
 14 15  1  0
 14 16  1  0
 16 17  2  0
 17 18  1  0
 17 19  1  0
 19 20  2  0
 20 21  1  0
 20 22  1  0
 22 23  1  0
 22 24  2  0
 24 25  1  0
 24 26  1  0
 26 27  1  0
 26 28  2  0
 12 29  2  0
 29 30  1  0
  6 31  1  0
 31 32  1  0
 31 33  2  0
 33 34  1  0
 33  2  1  0
 29  7  1  0
 28 13  1  0
 28 19  1  0
M  END
>  <cnnaffinity>  (1) 
-5.4326

>  <filename>  (1) 
c1cncc(-c2cnnc(-c3cncc4ccccc34)c2)c1

$$$$
