
     RDKit          3D

 31 34  0  0  0  0  0  0  0  0999 V2000
    8.8965   -3.0768   22.0474 H   0  0  0  0  0  0  0  0  0  0  0  0
    8.4045   -2.1158   21.9260 C   0  0  0  0  0  0  0  0  0  0  0  0
    8.0583   -1.3289   22.9722 N   0  0  0  0  0  0  0  0  0  0  0  0
    7.4907   -0.2889   22.3957 C   0  0  0  0  0  0  0  0  0  0  0  0
    6.9929    0.8892   23.1281 C   0  0  0  0  0  0  0  0  0  0  0  0
    6.1688    0.6838   24.2401 C   0  0  0  0  0  0  0  0  0  0  0  0
    5.9453   -0.3419   24.5456 H   0  0  0  0  0  0  0  0  0  0  0  0
    5.6506    1.7731   24.9639 C   0  0  0  0  0  0  0  0  0  0  0  0
    5.0131    1.5773   25.8231 H   0  0  0  0  0  0  0  0  0  0  0  0
    5.9531    3.0876   24.6187 C   0  0  0  0  0  0  0  0  0  0  0  0
    5.5978    3.9303   25.2093 H   0  0  0  0  0  0  0  0  0  0  0  0
    6.7709    3.2884   23.4939 C   0  0  0  0  0  0  0  0  0  0  0  0
    7.3238    2.2199   22.7430 C   0  0  0  0  0  0  0  0  0  0  0  0
    8.1302    2.8292   21.7168 C   0  0  0  0  0  0  0  0  0  0  0  0
    8.7282    2.2982   20.9933 H   0  0  0  0  0  0  0  0  0  0  0  0
    8.0276    4.1879   21.8622 C   0  0  0  0  0  0  0  0  0  0  0  0
    8.4541    4.9989   21.2872 H   0  0  0  0  0  0  0  0  0  0  0  0
    7.2060    4.4614   22.9296 N   0  0  0  0  0  0  0  0  0  0  0  0
    6.9659    5.3817   23.2542 H   0  0  0  0  0  0  0  0  0  0  0  0
    7.4409   -0.4893   21.0346 N   0  0  0  0  0  0  0  0  0  0  0  0
    6.7049    0.1406   19.9943 C   0  0  0  0  0  0  0  0  0  0  0  0
    7.1957    0.0323   18.6763 C   0  0  0  0  0  0  0  0  0  0  0  0
    8.0850   -0.5661   18.4898 H   0  0  0  0  0  0  0  0  0  0  0  0
    6.6123    0.6122   17.6266 N   0  0  0  0  0  0  0  0  0  0  0  0
    5.4673    1.2832   17.8402 C   0  0  0  0  0  0  0  0  0  0  0  0
    5.0138    1.7467   16.9659 H   0  0  0  0  0  0  0  0  0  0  0  0
    4.8634    1.3782   19.0985 C   0  0  0  0  0  0  0  0  0  0  0  0
    3.9199    1.9032   19.1969 H   0  0  0  0  0  0  0  0  0  0  0  0
    5.4886    0.7976   20.2086 C   0  0  0  0  0  0  0  0  0  0  0  0
    5.0464    0.8348   21.2065 H   0  0  0  0  0  0  0  0  0  0  0  0
    8.0695   -1.6570   20.7410 N   0  0  0  0  0  0  0  0  0  0  0  0
  1  2  1  0
  2  3  1  0
  3  4  2  0
  4  5  1  0
  5  6  2  0
  6  7  1  0
  6  8  1  0
  8  9  1  0
  8 10  2  0
 10 11  1  0
 10 12  1  0
 12 13  2  0
 13 14  1  0
 14 15  1  0
 14 16  2  0
 16 17  1  0
 16 18  1  0
 18 19  1  0
  4 20  1  0
 20 21  1  0
 21 22  2  0
 22 23  1  0
 22 24  1  0
 24 25  2  0
 25 26  1  0
 25 27  1  0
 27 28  1  0
 27 29  2  0
 29 30  1  0
 20 31  1  0
 31  2  2  0
 13  5  1  0
 29 21  1  0
 18 12  1  0
M  END
>  <cnnaffinity>  (1) 
-5.18284

>  <filename>  (1) 
c1cncc(-n2ncnc2-c2cccc3[nH]ccc23)c1

$$$$
