
     RDKit          3D

 33 34  0  0  0  0  0  0  0  0999 V2000
    4.9274    1.8549   17.0013 H   0  0  0  0  0  0  0  0  0  0  0  0
    5.4020    1.3288   17.8251 C   0  0  0  0  0  0  0  0  0  0  0  0
    6.5644    0.7159   17.5437 N   0  0  0  0  0  0  0  0  0  0  0  0
    7.1707    0.0424   18.5326 C   0  0  0  0  0  0  0  0  0  0  0  0
    8.1255   -0.4325   18.2911 H   0  0  0  0  0  0  0  0  0  0  0  0
    6.6465   -0.0747   19.8426 C   0  0  0  0  0  0  0  0  0  0  0  0
    7.2384   -0.8490   20.8577 N   0  0  0  0  0  0  0  0  0  0  0  0
    6.8777   -0.6894   21.7892 H   0  0  0  0  0  0  0  0  0  0  0  0
    8.8122   -1.4524   20.7642 S   0  0  0  0  0  0  0  0  0  0  0  0
    9.7947    0.0240   21.1375 C   0  0  0  0  0  0  0  0  0  0  0  0
   10.8015   -0.2448   20.8033 H   0  0  0  0  0  0  0  0  0  0  0  0
    9.4433    0.8357   20.4932 H   0  0  0  0  0  0  0  0  0  0  0  0
    9.8224    0.4274   22.6162 C   0  0  0  0  0  0  0  0  0  0  0  0
    8.7825    0.5038   22.9764 H   0  0  0  0  0  0  0  0  0  0  0  0
   10.5454   -0.6484   23.4416 C   0  0  0  0  0  0  0  0  0  0  0  0
   11.5684   -0.7694   23.0501 H   0  0  0  0  0  0  0  0  0  0  0  0
   10.0455   -1.6162   23.3021 H   0  0  0  0  0  0  0  0  0  0  0  0
   10.6035   -0.3000   24.9281 C   0  0  0  0  0  0  0  0  0  0  0  0
    9.6134   -0.4546   25.3743 H   0  0  0  0  0  0  0  0  0  0  0  0
   11.2784   -0.9867   25.4234 H   0  0  0  0  0  0  0  0  0  0  0  0
   11.1071    1.1168   25.2222 C   0  0  0  0  0  0  0  0  0  0  0  0
   10.9318    1.3297   26.2842 H   0  0  0  0  0  0  0  0  0  0  0  0
   12.1972    1.1383   25.0726 H   0  0  0  0  0  0  0  0  0  0  0  0
   10.4431    2.1881   24.3452 C   0  0  0  0  0  0  0  0  0  0  0  0
    9.4048    2.3395   24.6717 H   0  0  0  0  0  0  0  0  0  0  0  0
   10.9396    3.1514   24.4994 H   0  0  0  0  0  0  0  0  0  0  0  0
   10.4617    1.8100   22.8527 C   0  0  0  0  0  0  0  0  0  0  0  0
   11.4999    1.8080   22.4899 H   0  0  0  0  0  0  0  0  0  0  0  0
    9.9438    2.5769   22.2620 H   0  0  0  0  0  0  0  0  0  0  0  0
    5.4513    0.6073   20.1215 C   0  0  0  0  0  0  0  0  0  0  0  0
    5.0613    0.5925   21.1378 H   0  0  0  0  0  0  0  0  0  0  0  0
    4.8104    1.3061   19.0943 C   0  0  0  0  0  0  0  0  0  0  0  0
    3.8761    1.8322   19.2614 H   0  0  0  0  0  0  0  0  0  0  0  0
  1  2  1  0
  2  3  2  0
  3  4  1  0
  4  5  1  0
  4  6  2  0
  6  7  1  0
  7  8  1  0
  7  9  1  0
  9 10  1  0
 10 11  1  0
 10 12  1  0
 10 13  1  0
 13 14  1  0
 13 15  1  0
 15 16  1  0
 15 17  1  0
 15 18  1  0
 18 19  1  0
 18 20  1  0
 18 21  1  0
 21 22  1  0
 21 23  1  0
 21 24  1  0
 24 25  1  0
 24 26  1  0
 24 27  1  0
 27 28  1  0
 27 29  1  0
  6 30  1  0
 30 31  1  0
 30 32  2  0
 32 33  1  0
 32  2  1  0
 27 13  1  0
M  END
>  <cnnaffinity>  (1) 
-4.64737

>  <filename>  (1) 
c1cncc(NSCC2CCCCC2)c1

$$$$
