
     RDKit          3D

 37 39  0  0  0  0  0  0  0  0999 V2000
    4.9111    1.7861   16.9899 H   0  0  0  0  0  0  0  0  0  0  0  0
    5.3968    1.2982   17.8275 C   0  0  0  0  0  0  0  0  0  0  0  0
    6.5616    0.6842   17.5528 N   0  0  0  0  0  0  0  0  0  0  0  0
    7.1610    0.0607   18.5719 C   0  0  0  0  0  0  0  0  0  0  0  0
    8.1171   -0.4141   18.3574 H   0  0  0  0  0  0  0  0  0  0  0  0
    6.6497    0.0109   19.8840 C   0  0  0  0  0  0  0  0  0  0  0  0
    7.3711   -0.6630   20.9613 C   0  0  0  0  0  0  0  0  0  0  0  0
    7.7535   -0.2262   22.2093 C   0  0  0  0  0  0  0  0  0  0  0  0
    7.5709    1.1604   22.7408 C   0  0  0  0  0  0  0  0  0  0  0  0
    7.8188    1.1586   23.8046 H   0  0  0  0  0  0  0  0  0  0  0  0
    6.5129    1.4434   22.6790 H   0  0  0  0  0  0  0  0  0  0  0  0
    8.3993    2.2262   21.9748 C   0  0  0  0  0  0  0  0  0  0  0  0
    8.1261    2.1280   20.9117 H   0  0  0  0  0  0  0  0  0  0  0  0
    8.0473    3.6591   22.4269 C   0  0  0  0  0  0  0  0  0  0  0  0
    6.9612    3.8049   22.3940 H   0  0  0  0  0  0  0  0  0  0  0  0
    8.4642    4.3714   21.7028 H   0  0  0  0  0  0  0  0  0  0  0  0
    8.5931    4.0097   23.8194 C   0  0  0  0  0  0  0  0  0  0  0  0
    8.3653    5.0544   24.0625 H   0  0  0  0  0  0  0  0  0  0  0  0
    8.0797    3.4041   24.5766 H   0  0  0  0  0  0  0  0  0  0  0  0
   10.1021    3.7610   23.9069 C   0  0  0  0  0  0  0  0  0  0  0  0
   10.6202    4.4639   23.2428 H   0  0  0  0  0  0  0  0  0  0  0  0
   10.4580    3.9831   24.9140 H   0  0  0  0  0  0  0  0  0  0  0  0
   10.4712    2.3299   23.4993 C   0  0  0  0  0  0  0  0  0  0  0  0
   10.0719    1.6208   24.2361 H   0  0  0  0  0  0  0  0  0  0  0  0
   11.5598    2.1978   23.5178 H   0  0  0  0  0  0  0  0  0  0  0  0
    9.9196    1.9827   22.1063 C   0  0  0  0  0  0  0  0  0  0  0  0
   10.4379    2.6053   21.3666 H   0  0  0  0  0  0  0  0  0  0  0  0
   10.1564    0.9434   21.8529 H   0  0  0  0  0  0  0  0  0  0  0  0
    8.4709   -1.2121   22.8414 N   0  0  0  0  0  0  0  0  0  0  0  0
    8.5330   -2.2122   22.0035 C   0  0  0  0  0  0  0  0  0  0  0  0
    9.0233   -3.1615   22.1880 H   0  0  0  0  0  0  0  0  0  0  0  0
    7.8957   -1.9232   20.8377 N   0  0  0  0  0  0  0  0  0  0  0  0
    7.7742   -2.5266   20.0458 H   0  0  0  0  0  0  0  0  0  0  0  0
    5.4376    0.6662   20.1475 C   0  0  0  0  0  0  0  0  0  0  0  0
    5.0137    0.6268   21.1569 H   0  0  0  0  0  0  0  0  0  0  0  0
    4.7983    1.3170   19.0948 C   0  0  0  0  0  0  0  0  0  0  0  0
    3.8657    1.8480   19.2574 H   0  0  0  0  0  0  0  0  0  0  0  0
  1  2  1  0
  2  3  2  0
  3  4  1  0
  4  5  1  0
  4  6  2  0
  6  7  1  0
  7  8  2  0
  8  9  1  0
  9 10  1  0
  9 11  1  0
  9 12  1  0
 12 13  1  0
 12 14  1  0
 14 15  1  0
 14 16  1  0
 14 17  1  0
 17 18  1  0
 17 19  1  0
 17 20  1  0
 20 21  1  0
 20 22  1  0
 20 23  1  0
 23 24  1  0
 23 25  1  0
 23 26  1  0
 26 27  1  0
 26 28  1  0
  8 29  1  0
 29 30  2  0
 30 31  1  0
 30 32  1  0
 32 33  1  0
  6 34  1  0
 34 35  1  0
 34 36  2  0
 36 37  1  0
 36  2  1  0
 32  7  1  0
 26 12  1  0
M  END
>  <cnnaffinity>  (1) 
-5.27385

>  <filename>  (1) 
c1cncc(-c2[nH]cnc2CC2CCCCC2)c1

$$$$
