
     RDKit          3D

 30 32  0  0  0  0  0  0  0  0999 V2000
    4.9194    1.7750   17.0038 H   0  0  0  0  0  0  0  0  0  0  0  0
    5.4060    1.2864   17.8475 C   0  0  0  0  0  0  0  0  0  0  0  0
    6.5674    0.6678   17.5904 N   0  0  0  0  0  0  0  0  0  0  0  0
    7.1848    0.0601   18.6095 C   0  0  0  0  0  0  0  0  0  0  0  0
    8.1289   -0.4262   18.3775 H   0  0  0  0  0  0  0  0  0  0  0  0
    6.6697    0.0062   19.9151 C   0  0  0  0  0  0  0  0  0  0  0  0
    7.4078   -0.7214   20.9872 C   0  0  0  0  0  0  0  0  0  0  0  0
    8.7534   -0.7133   20.9251 N   0  0  0  0  0  0  0  0  0  0  0  0
    9.4708   -1.3130   21.8774 N   0  0  0  0  0  0  0  0  0  0  0  0
    8.8591   -1.9663   22.8663 C   0  0  0  0  0  0  0  0  0  0  0  0
    9.4928   -2.4348   23.6053 H   0  0  0  0  0  0  0  0  0  0  0  0
    7.4507   -2.0585   22.9840 C   0  0  0  0  0  0  0  0  0  0  0  0
    6.8137   -2.7538   24.0135 N   0  0  0  0  0  0  0  0  0  0  0  0
    5.9260   -2.3825   24.3177 H   0  0  0  0  0  0  0  0  0  0  0  0
    7.2613   -3.8828   24.6853 C   0  0  0  0  0  0  0  0  0  0  0  0
    6.9216   -4.0962   26.0211 C   0  0  0  0  0  0  0  0  0  0  0  0
    6.3180   -3.3866   26.5697 H   0  0  0  0  0  0  0  0  0  0  0  0
    7.4124   -5.2399   26.6421 C   0  0  0  0  0  0  0  0  0  0  0  0
    7.1743   -5.4380   27.6823 H   0  0  0  0  0  0  0  0  0  0  0  0
    8.1730   -6.1594   26.0393 N   0  0  0  0  0  0  0  0  0  0  0  0
    8.4756   -5.9359   24.7579 C   0  0  0  0  0  0  0  0  0  0  0  0
    9.0909   -6.6820   24.2692 H   0  0  0  0  0  0  0  0  0  0  0  0
    8.0493   -4.8332   24.0377 C   0  0  0  0  0  0  0  0  0  0  0  0
    8.3099   -4.7138   22.9973 H   0  0  0  0  0  0  0  0  0  0  0  0
    6.7220   -1.3905   22.0104 C   0  0  0  0  0  0  0  0  0  0  0  0
    5.6443   -1.4323   21.9791 H   0  0  0  0  0  0  0  0  0  0  0  0
    5.4456    0.6464   20.1633 C   0  0  0  0  0  0  0  0  0  0  0  0
    5.0019    0.6440   21.1612 H   0  0  0  0  0  0  0  0  0  0  0  0
    4.8118    1.3084   19.1130 C   0  0  0  0  0  0  0  0  0  0  0  0
    3.8786    1.8398   19.2623 H   0  0  0  0  0  0  0  0  0  0  0  0
  1  2  1  0
  2  3  2  0
  3  4  1  0
  4  5  1  0
  4  6  2  0
  6  7  1  0
  7  8  2  0
  8  9  1  0
  9 10  2  0
 10 11  1  0
 10 12  1  0
 12 13  1  0
 13 14  1  0
 13 15  1  0
 15 16  2  0
 16 17  1  0
 16 18  1  0
 18 19  1  0
 18 20  2  0
 20 21  1  0
 21 22  1  0
 21 23  2  0
 23 24  1  0
 12 25  2  0
 25 26  1  0
  6 27  1  0
 27 28  1  0
 27 29  2  0
 29 30  1  0
 29  2  1  0
 25  7  1  0
 23 15  1  0
M  END
>  <cnnaffinity>  (1) 
-5.30815

>  <filename>  (1) 
c1cncc(-c2cc(Nc3ccncc3)cnn2)c1

$$$$
