
     RDKit          3D

 41 44  0  0  0  0  0  0  0  0999 V2000
    4.9562    1.8002   16.9662 H   0  0  0  0  0  0  0  0  0  0  0  0
    5.4000    1.2863   17.8164 C   0  0  0  0  0  0  0  0  0  0  0  0
    6.5575    0.6529   17.5781 N   0  0  0  0  0  0  0  0  0  0  0  0
    7.1556    0.0368   18.6022 C   0  0  0  0  0  0  0  0  0  0  0  0
    8.1027   -0.4452   18.3755 H   0  0  0  0  0  0  0  0  0  0  0  0
    6.6347    0.0236   19.9085 C   0  0  0  0  0  0  0  0  0  0  0  0
    7.3676   -0.6245   20.9935 C   0  0  0  0  0  0  0  0  0  0  0  0
    8.2238   -1.6888   20.7605 N   0  0  0  0  0  0  0  0  0  0  0  0
    8.6386   -2.0216   21.9447 C   0  0  0  0  0  0  0  0  0  0  0  0
    9.6998   -3.2361   22.5595 S   0  0  0  0  0  0  0  0  0  0  0  0
    9.4964   -2.6481   24.1861 C   0  0  0  0  0  0  0  0  0  0  0  0
   10.0423   -3.1623   24.9664 H   0  0  0  0  0  0  0  0  0  0  0  0
    8.6613   -1.5990   24.2469 C   0  0  0  0  0  0  0  0  0  0  0  0
    8.3640   -1.0405   25.1298 H   0  0  0  0  0  0  0  0  0  0  0  0
    8.1608   -1.2410   22.9798 N   0  0  0  0  0  0  0  0  0  0  0  0
    7.3382   -0.3210   22.3399 C   0  0  0  0  0  0  0  0  0  0  0  0
    6.6771    0.6819   22.9135 O   0  0  0  0  0  0  0  0  0  0  0  0
    6.7653    0.8977   24.3265 C   0  0  0  0  0  0  0  0  0  0  0  0
    6.3908    0.0179   24.8627 H   0  0  0  0  0  0  0  0  0  0  0  0
    7.8105    1.0791   24.6109 H   0  0  0  0  0  0  0  0  0  0  0  0
    5.8871    2.1087   24.5938 C   0  0  0  0  0  0  0  0  0  0  0  0
    6.2558    2.9488   23.9763 H   0  0  0  0  0  0  0  0  0  0  0  0
    4.8800    1.8701   24.2297 H   0  0  0  0  0  0  0  0  0  0  0  0
    5.8268    2.4048   26.0285 N   0  0  0  0  0  0  0  0  0  0  0  0
    4.5437    2.9293   26.5158 C   0  0  0  0  0  0  0  0  0  0  0  0
    3.7278    2.3339   26.0862 H   0  0  0  0  0  0  0  0  0  0  0  0
    4.5197    2.7880   27.6064 H   0  0  0  0  0  0  0  0  0  0  0  0
    4.3539    4.4238   26.1943 C   0  0  0  0  0  0  0  0  0  0  0  0
    4.3058    4.5444   25.0975 H   0  0  0  0  0  0  0  0  0  0  0  0
    3.4315    4.8208   26.6293 H   0  0  0  0  0  0  0  0  0  0  0  0
    5.4146    5.2068   26.7289 O   0  0  0  0  0  0  0  0  0  0  0  0
    6.6790    4.7623   26.2525 C   0  0  0  0  0  0  0  0  0  0  0  0
    7.4272    5.3790   26.7598 H   0  0  0  0  0  0  0  0  0  0  0  0
    6.7569    4.9400   25.1650 H   0  0  0  0  0  0  0  0  0  0  0  0
    6.9138    3.2601   26.5314 C   0  0  0  0  0  0  0  0  0  0  0  0
    6.9890    3.0999   27.6169 H   0  0  0  0  0  0  0  0  0  0  0  0
    7.8617    2.9465   26.0780 H   0  0  0  0  0  0  0  0  0  0  0  0
    5.4080    0.6765   20.1380 C   0  0  0  0  0  0  0  0  0  0  0  0
    4.9790    0.6886   21.1423 H   0  0  0  0  0  0  0  0  0  0  0  0
    4.7836    1.3132   19.0717 C   0  0  0  0  0  0  0  0  0  0  0  0
    3.8525    1.8526   19.2040 H   0  0  0  0  0  0  0  0  0  0  0  0
  1  2  1  0
  2  3  2  0
  3  4  1  0
  4  5  1  0
  4  6  2  0
  6  7  1  0
  7  8  1  0
  8  9  2  0
  9 10  1  0
 10 11  1  0
 11 12  1  0
 11 13  2  0
 13 14  1  0
 13 15  1  0
 15 16  1  0
 16 17  1  0
 17 18  1  0
 18 19  1  0
 18 20  1  0
 18 21  1  0
 21 22  1  0
 21 23  1  0
 21 24  1  0
 24 25  1  0
 25 26  1  0
 25 27  1  0
 25 28  1  0
 28 29  1  0
 28 30  1  0
 28 31  1  0
 31 32  1  0
 32 33  1  0
 32 34  1  0
 32 35  1  0
 35 36  1  0
 35 37  1  0
  6 38  1  0
 38 39  1  0
 38 40  2  0
 40 41  1  0
 40  2  1  0
 16  7  2  0
 35 24  1  0
 15  9  1  0
M  END
>  <cnnaffinity>  (1) 
-5.41605

>  <filename>  (1) 
c1cncc(-c2nc3sccn3c2OCCN2CCOCC2)c1

$$$$
