
     RDKit          3D

 45 48  0  0  0  0  0  0  0  0999 V2000
    4.9101    1.7893   16.9865 H   0  0  0  0  0  0  0  0  0  0  0  0
    5.3937    1.2985   17.8259 C   0  0  0  0  0  0  0  0  0  0  0  0
    6.5596    0.6845   17.5655 N   0  0  0  0  0  0  0  0  0  0  0  0
    7.1690    0.0601   18.5848 C   0  0  0  0  0  0  0  0  0  0  0  0
    8.1181   -0.4264   18.3658 H   0  0  0  0  0  0  0  0  0  0  0  0
    6.6669    0.0144   19.9119 C   0  0  0  0  0  0  0  0  0  0  0  0
    7.2960   -0.6657   20.9694 N   0  0  0  0  0  0  0  0  0  0  0  0
    7.7464    0.0388   22.1539 C   0  0  0  0  0  0  0  0  0  0  0  0
    8.8156    0.3164   22.0789 H   0  0  0  0  0  0  0  0  0  0  0  0
    7.1856    0.9740   22.2349 H   0  0  0  0  0  0  0  0  0  0  0  0
    7.5210   -0.8385   23.3821 C   0  0  0  0  0  0  0  0  0  0  0  0
    6.4374   -0.9699   23.5089 H   0  0  0  0  0  0  0  0  0  0  0  0
    7.8907   -0.3209   24.2728 H   0  0  0  0  0  0  0  0  0  0  0  0
    8.2070   -2.2089   23.2211 C   0  0  0  0  0  0  0  0  0  0  0  0
    9.2847   -2.0219   23.0746 H   0  0  0  0  0  0  0  0  0  0  0  0
    8.0706   -3.1044   24.4677 C   0  0  0  0  0  0  0  0  0  0  0  0
    8.5340   -2.5839   25.3161 H   0  0  0  0  0  0  0  0  0  0  0  0
    8.6509   -4.0218   24.3063 H   0  0  0  0  0  0  0  0  0  0  0  0
    6.6461   -3.4698   24.8234 C   0  0  0  0  0  0  0  0  0  0  0  0
    6.0451   -4.6445   24.2719 C   0  0  0  0  0  0  0  0  0  0  0  0
    6.6388   -5.2716   23.6046 H   0  0  0  0  0  0  0  0  0  0  0  0
    4.7433   -4.9762   24.5548 C   0  0  0  0  0  0  0  0  0  0  0  0
    4.2933   -5.8749   24.1407 H   0  0  0  0  0  0  0  0  0  0  0  0
    3.9508   -4.1485   25.4083 C   0  0  0  0  0  0  0  0  0  0  0  0
    2.5962   -4.4652   25.7316 C   0  0  0  0  0  0  0  0  0  0  0  0
    2.1652   -5.3714   25.3072 H   0  0  0  0  0  0  0  0  0  0  0  0
    1.8639   -3.6467   26.5593 C   0  0  0  0  0  0  0  0  0  0  0  0
    0.8326   -3.8946   26.8031 H   0  0  0  0  0  0  0  0  0  0  0  0
    2.4470   -2.4646   27.1091 C   0  0  0  0  0  0  0  0  0  0  0  0
    1.8532   -1.8299   27.7629 H   0  0  0  0  0  0  0  0  0  0  0  0
    3.7496   -2.1318   26.8169 C   0  0  0  0  0  0  0  0  0  0  0  0
    4.2084   -1.2339   27.2317 H   0  0  0  0  0  0  0  0  0  0  0  0
    4.5360   -2.9637   25.9639 C   0  0  0  0  0  0  0  0  0  0  0  0
    5.8928   -2.6594   25.6499 C   0  0  0  0  0  0  0  0  0  0  0  0
    6.3249   -1.7462   26.0587 H   0  0  0  0  0  0  0  0  0  0  0  0
    7.6912   -2.8850   21.9458 C   0  0  0  0  0  0  0  0  0  0  0  0
    8.1902   -3.8473   21.7704 H   0  0  0  0  0  0  0  0  0  0  0  0
    6.6165   -3.0959   22.0210 H   0  0  0  0  0  0  0  0  0  0  0  0
    7.8899   -1.9670   20.7442 C   0  0  0  0  0  0  0  0  0  0  0  0
    8.9690   -1.9219   20.4810 H   0  0  0  0  0  0  0  0  0  0  0  0
    7.3085   -2.3632   19.9179 H   0  0  0  0  0  0  0  0  0  0  0  0
    5.4464    0.6681   20.1536 C   0  0  0  0  0  0  0  0  0  0  0  0
    5.0289    0.6243   21.1598 H   0  0  0  0  0  0  0  0  0  0  0  0
    4.8038    1.3140   19.0961 C   0  0  0  0  0  0  0  0  0  0  0  0
    3.8737    1.8432   19.2576 H   0  0  0  0  0  0  0  0  0  0  0  0
  1  2  1  0
  2  3  2  0
  3  4  1  0
  4  5  1  0
  4  6  2  0
  6  7  1  0
  7  8  1  0
  8  9  1  0
  8 10  1  0
  8 11  1  0
 11 12  1  0
 11 13  1  0
 11 14  1  0
 14 15  1  0
 14 16  1  0
 16 17  1  0
 16 18  1  0
 16 19  1  0
 19 20  2  0
 20 21  1  0
 20 22  1  0
 22 23  1  0
 22 24  2  0
 24 25  1  0
 25 26  1  0
 25 27  2  0
 27 28  1  0
 27 29  1  0
 29 30  1  0
 29 31  2  0
 31 32  1  0
 31 33  1  0
 33 34  2  0
 34 35  1  0
 14 36  1  0
 36 37  1  0
 36 38  1  0
 36 39  1  0
 39 40  1  0
 39 41  1  0
  6 42  1  0
 42 43  1  0
 42 44  2  0
 44 45  1  0
 44  2  1  0
 39  7  1  0
 34 19  1  0
 33 24  1  0
M  END
>  <cnnaffinity>  (1) 
-5.35737

>  <filename>  (1) 
c1cncc(N2CCC(Cc3ccc4ccccc4c3)CC2)c1

$$$$
