
     RDKit          3D

 31 34  0  0  0  0  0  0  0  0999 V2000
    4.9306    1.7793   16.9979 H   0  0  0  0  0  0  0  0  0  0  0  0
    5.4085    1.2860   17.8427 C   0  0  0  0  0  0  0  0  0  0  0  0
    6.5712    0.6613   17.5925 N   0  0  0  0  0  0  0  0  0  0  0  0
    7.1886    0.0527   18.6093 C   0  0  0  0  0  0  0  0  0  0  0  0
    8.1315   -0.4287   18.3760 H   0  0  0  0  0  0  0  0  0  0  0  0
    6.6717    0.0074   19.9156 C   0  0  0  0  0  0  0  0  0  0  0  0
    7.3788   -0.6827   20.9316 N   0  0  0  0  0  0  0  0  0  0  0  0
    8.6991   -0.9381   20.8382 N   0  0  0  0  0  0  0  0  0  0  0  0
    9.0004   -1.5803   21.9505 C   0  0  0  0  0  0  0  0  0  0  0  0
   10.0171   -1.9059   22.1189 H   0  0  0  0  0  0  0  0  0  0  0  0
    7.8747   -1.7832   22.7955 C   0  0  0  0  0  0  0  0  0  0  0  0
    7.7864   -2.4616   24.0995 C   0  0  0  0  0  0  0  0  0  0  0  0
    8.9804   -2.8300   24.8069 C   0  0  0  0  0  0  0  0  0  0  0  0
    9.9406   -2.5888   24.3547 H   0  0  0  0  0  0  0  0  0  0  0  0
    8.9439   -3.4720   26.0320 C   0  0  0  0  0  0  0  0  0  0  0  0
    9.8523   -3.7556   26.5620 H   0  0  0  0  0  0  0  0  0  0  0  0
    7.6569   -3.7488   26.5619 C   0  0  0  0  0  0  0  0  0  0  0  0
    6.4657   -3.3947   25.8941 C   0  0  0  0  0  0  0  0  0  0  0  0
    5.4267   -3.8439   26.7628 C   0  0  0  0  0  0  0  0  0  0  0  0
    4.3625   -3.7578   26.6043 H   0  0  0  0  0  0  0  0  0  0  0  0
    5.9125   -4.4143   27.8445 N   0  0  0  0  0  0  0  0  0  0  0  0
    7.2566   -4.3537   27.7078 N   0  0  0  0  0  0  0  0  0  0  0  0
    7.8529   -4.7264   28.4189 H   0  0  0  0  0  0  0  0  0  0  0  0
    6.5380   -2.7456   24.6480 C   0  0  0  0  0  0  0  0  0  0  0  0
    5.6317   -2.4692   24.1152 H   0  0  0  0  0  0  0  0  0  0  0  0
    6.8616   -1.1879   22.0755 C   0  0  0  0  0  0  0  0  0  0  0  0
    5.8132   -1.0788   22.2707 H   0  0  0  0  0  0  0  0  0  0  0  0
    5.4461    0.6456   20.1719 C   0  0  0  0  0  0  0  0  0  0  0  0
    5.0024    0.6527   21.1692 H   0  0  0  0  0  0  0  0  0  0  0  0
    4.8180    1.3019   19.1110 C   0  0  0  0  0  0  0  0  0  0  0  0
    3.8854    1.8330   19.2629 H   0  0  0  0  0  0  0  0  0  0  0  0
  1  2  1  0
  2  3  2  0
  3  4  1  0
  4  5  1  0
  4  6  2  0
  6  7  1  0
  7  8  1  0
  8  9  2  0
  9 10  1  0
  9 11  1  0
 11 12  1  0
 12 13  2  0
 13 14  1  0
 13 15  1  0
 15 16  1  0
 15 17  2  0
 17 18  1  0
 18 19  1  0
 19 20  1  0
 19 21  2  0
 21 22  1  0
 22 23  1  0
 18 24  2  0
 24 25  1  0
 11 26  2  0
 26 27  1  0
  6 28  1  0
 28 29  1  0
 28 30  2  0
 30 31  1  0
 30  2  1  0
 26  7  1  0
 24 12  1  0
 22 17  1  0
M  END
>  <cnnaffinity>  (1) 
-5.40809

>  <filename>  (1) 
c1cncc(-n2cc(-c3ccc4[nH]ncc4c3)cn2)c1

$$$$
