
     RDKit          3D

 35 39  0  0  0  0  0  0  0  0999 V2000
    4.9449    1.7843   16.9711 H   0  0  0  0  0  0  0  0  0  0  0  0
    5.4045    1.2884   17.8242 C   0  0  0  0  0  0  0  0  0  0  0  0
    6.5638    0.6568   17.5851 N   0  0  0  0  0  0  0  0  0  0  0  0
    7.1584    0.0712   18.6278 C   0  0  0  0  0  0  0  0  0  0  0  0
    8.1045   -0.4167   18.4053 H   0  0  0  0  0  0  0  0  0  0  0  0
    6.6587    0.0775   19.9462 C   0  0  0  0  0  0  0  0  0  0  0  0
    7.4351   -0.6168   20.9938 C   0  0  0  0  0  0  0  0  0  0  0  0
    8.3183   -1.6225   20.8377 C   0  0  0  0  0  0  0  0  0  0  0  0
    8.7678   -1.9631   19.9274 H   0  0  0  0  0  0  0  0  0  0  0  0
    8.8815   -2.2913   22.3428 S   0  0  0  0  0  0  0  0  0  0  0  0
    8.0643   -1.0269   23.2018 C   0  0  0  0  0  0  0  0  0  0  0  0
    8.0818   -0.4991   24.4001 N   0  0  0  0  0  0  0  0  0  0  0  0
    7.2993    0.6172   24.2268 C   0  0  0  0  0  0  0  0  0  0  0  0
    7.0470    1.5906   25.3461 C   0  0  0  0  0  0  0  0  0  0  0  0
    6.3093    2.6547   25.0946 N   0  0  0  0  0  0  0  0  0  0  0  0
    6.0691    3.5312   26.1069 C   0  0  0  0  0  0  0  0  0  0  0  0
    5.2702    4.6599   25.7730 C   0  0  0  0  0  0  0  0  0  0  0  0
    4.9501    4.7039   24.7348 H   0  0  0  0  0  0  0  0  0  0  0  0
    4.9569    5.5920   26.7328 C   0  0  0  0  0  0  0  0  0  0  0  0
    4.3417    6.4532   26.4776 H   0  0  0  0  0  0  0  0  0  0  0  0
    5.4372    5.4284   28.0683 C   0  0  0  0  0  0  0  0  0  0  0  0
    5.1715    6.1788   28.8109 H   0  0  0  0  0  0  0  0  0  0  0  0
    6.2201    4.3465   28.4170 C   0  0  0  0  0  0  0  0  0  0  0  0
    6.5796    4.2274   29.4386 H   0  0  0  0  0  0  0  0  0  0  0  0
    6.5650    3.3617   27.4407 C   0  0  0  0  0  0  0  0  0  0  0  0
    7.3724    2.2013   27.6805 C   0  0  0  0  0  0  0  0  0  0  0  0
    7.7872    2.0143   28.6733 H   0  0  0  0  0  0  0  0  0  0  0  0
    7.6162    1.3306   26.6498 C   0  0  0  0  0  0  0  0  0  0  0  0
    8.2289    0.4414   26.7802 H   0  0  0  0  0  0  0  0  0  0  0  0
    6.8104    0.7785   22.9980 N   0  0  0  0  0  0  0  0  0  0  0  0
    7.3076   -0.2993   22.3514 N   0  0  0  0  0  0  0  0  0  0  0  0
    5.4312    0.7324   20.1752 C   0  0  0  0  0  0  0  0  0  0  0  0
    5.0200    0.7876   21.1876 H   0  0  0  0  0  0  0  0  0  0  0  0
    4.7964    1.3300   19.0860 C   0  0  0  0  0  0  0  0  0  0  0  0
    3.8494    1.8459   19.2016 H   0  0  0  0  0  0  0  0  0  0  0  0
  1  2  1  0
  2  3  2  0
  3  4  1  0
  4  5  1  0
  4  6  2  0
  6  7  1  0
  7  8  2  0
  8  9  1  0
  8 10  1  0
 10 11  1  0
 11 12  2  0
 12 13  1  0
 13 14  1  0
 14 15  2  0
 15 16  1  0
 16 17  2  0
 17 18  1  0
 17 19  1  0
 19 20  1  0
 19 21  2  0
 21 22  1  0
 21 23  1  0
 23 24  1  0
 23 25  2  0
 25 26  1  0
 26 27  1  0
 26 28  2  0
 28 29  1  0
 13 30  2  0
 30 31  1  0
  6 32  1  0
 32 33  1  0
 32 34  2  0
 34 35  1  0
 34  2  1  0
 31  7  1  0
 31 11  1  0
 28 14  1  0
 25 16  1  0
M  END
>  <cnnaffinity>  (1) 
-5.39088

>  <filename>  (1) 
c1cncc(-c2csc3nc(-c4ccc5ccccc5n4)nn23)c1

$$$$
