
     RDKit          3D

 35 38  0  0  0  0  0  0  0  0999 V2000
    4.9153    1.7749   17.0024 H   0  0  0  0  0  0  0  0  0  0  0  0
    5.4043    1.2901   17.8428 C   0  0  0  0  0  0  0  0  0  0  0  0
    6.5700    0.6786   17.5777 N   0  0  0  0  0  0  0  0  0  0  0  0
    7.1756    0.0568   18.5900 C   0  0  0  0  0  0  0  0  0  0  0  0
    8.1252   -0.4349   18.3748 H   0  0  0  0  0  0  0  0  0  0  0  0
    6.6478    0.0104   19.8898 C   0  0  0  0  0  0  0  0  0  0  0  0
    7.4033   -0.7034   20.9148 C   0  0  0  0  0  0  0  0  0  0  0  0
    8.3276   -1.6060   20.6964 N   0  0  0  0  0  0  0  0  0  0  0  0
    8.8313   -2.0359   21.9029 N   0  0  0  0  0  0  0  0  0  0  0  0
    8.1993   -1.3477   22.8152 C   0  0  0  0  0  0  0  0  0  0  0  0
    8.2871   -1.0689   24.5273 S   0  0  0  0  0  0  0  0  0  0  0  0
    7.0640    0.2032   24.3046 C   0  0  0  0  0  0  0  0  0  0  0  0
    6.6179    1.0313   25.4727 C   0  0  0  0  0  0  0  0  0  0  0  0
    5.8169    1.6741   25.0865 H   0  0  0  0  0  0  0  0  0  0  0  0
    7.7556    1.9454   25.9877 C   0  0  0  0  0  0  0  0  0  0  0  0
    8.6028    1.3212   26.3054 H   0  0  0  0  0  0  0  0  0  0  0  0
    8.1197    2.5849   25.1737 H   0  0  0  0  0  0  0  0  0  0  0  0
    7.2905    2.8030   27.1665 C   0  0  0  0  0  0  0  0  0  0  0  0
    6.5264    3.5110   26.8161 H   0  0  0  0  0  0  0  0  0  0  0  0
    8.1266    3.4039   27.5377 H   0  0  0  0  0  0  0  0  0  0  0  0
    6.7062    1.9472   28.2955 C   0  0  0  0  0  0  0  0  0  0  0  0
    6.3423    2.5877   29.1070 H   0  0  0  0  0  0  0  0  0  0  0  0
    7.5049    1.3221   28.7210 H   0  0  0  0  0  0  0  0  0  0  0  0
    5.5779    1.0402   27.7906 C   0  0  0  0  0  0  0  0  0  0  0  0
    4.7301    1.6621   27.4700 H   0  0  0  0  0  0  0  0  0  0  0  0
    5.2113    0.4026   28.6030 H   0  0  0  0  0  0  0  0  0  0  0  0
    6.0336    0.1710   26.6159 C   0  0  0  0  0  0  0  0  0  0  0  0
    6.8011   -0.5346   26.9641 H   0  0  0  0  0  0  0  0  0  0  0  0
    5.1960   -0.4300   26.2400 H   0  0  0  0  0  0  0  0  0  0  0  0
    6.6408    0.3780   23.1006 N   0  0  0  0  0  0  0  0  0  0  0  0
    7.2696   -0.5178   22.2731 N   0  0  0  0  0  0  0  0  0  0  0  0
    5.4330    0.6517   20.1596 C   0  0  0  0  0  0  0  0  0  0  0  0
    5.0071    0.6346   21.1651 H   0  0  0  0  0  0  0  0  0  0  0  0
    4.8041    1.3092   19.1080 C   0  0  0  0  0  0  0  0  0  0  0  0
    3.8736    1.8440   19.2622 H   0  0  0  0  0  0  0  0  0  0  0  0
  1  2  1  0
  2  3  2  0
  3  4  1  0
  4  5  1  0
  4  6  2  0
  6  7  1  0
  7  8  2  0
  8  9  1  0
  9 10  2  0
 10 11  1  0
 11 12  1  0
 12 13  1  0
 13 14  1  0
 13 15  1  0
 15 16  1  0
 15 17  1  0
 15 18  1  0
 18 19  1  0
 18 20  1  0
 18 21  1  0
 21 22  1  0
 21 23  1  0
 21 24  1  0
 24 25  1  0
 24 26  1  0
 24 27  1  0
 27 28  1  0
 27 29  1  0
 12 30  2  0
 30 31  1  0
  6 32  1  0
 32 33  1  0
 32 34  2  0
 34 35  1  0
 34  2  1  0
 31  7  1  0
 31 10  1  0
 27 13  1  0
M  END
>  <cnnaffinity>  (1) 
-5.40657

>  <filename>  (1) 
c1cncc(-c2nnc3sc(C4CCCCC4)nn23)c1

$$$$
