
     RDKit          3D

 37 40  0  0  0  0  0  0  0  0999 V2000
    4.9128    1.7734   17.0052 H   0  0  0  0  0  0  0  0  0  0  0  0
    5.4062    1.2911   17.8466 C   0  0  0  0  0  0  0  0  0  0  0  0
    6.5739    0.6788   17.5855 N   0  0  0  0  0  0  0  0  0  0  0  0
    7.1777    0.0501   18.5993 C   0  0  0  0  0  0  0  0  0  0  0  0
    8.1258   -0.4362   18.3786 H   0  0  0  0  0  0  0  0  0  0  0  0
    6.6581   -0.0010   19.9012 C   0  0  0  0  0  0  0  0  0  0  0  0
    7.3730   -0.7093   20.9529 C   0  0  0  0  0  0  0  0  0  0  0  0
    8.0275   -1.8995   20.7617 N   0  0  0  0  0  0  0  0  0  0  0  0
    8.4635   -2.2522   21.9369 C   0  0  0  0  0  0  0  0  0  0  0  0
    9.0279   -3.1560   22.1363 H   0  0  0  0  0  0  0  0  0  0  0  0
    8.1409   -1.3466   22.8962 N   0  0  0  0  0  0  0  0  0  0  0  0
    8.4140   -1.3684   23.8616 H   0  0  0  0  0  0  0  0  0  0  0  0
    7.4588   -0.3262   22.2852 C   0  0  0  0  0  0  0  0  0  0  0  0
    7.0693    0.8234   22.9221 N   0  0  0  0  0  0  0  0  0  0  0  0
    7.3609    2.1301   22.3294 C   0  0  0  0  0  0  0  0  0  0  0  0
    7.9702    1.9986   21.4244 H   0  0  0  0  0  0  0  0  0  0  0  0
    6.4389    2.6276   21.9843 H   0  0  0  0  0  0  0  0  0  0  0  0
    8.0776    3.0617   23.2966 C   0  0  0  0  0  0  0  0  0  0  0  0
    8.6437    4.2542   22.8216 C   0  0  0  0  0  0  0  0  0  0  0  0
    8.5851    4.5042   21.7627 H   0  0  0  0  0  0  0  0  0  0  0  0
    9.2783    5.1365   23.6988 C   0  0  0  0  0  0  0  0  0  0  0  0
    9.7108    6.0591   23.3217 H   0  0  0  0  0  0  0  0  0  0  0  0
    9.3535    4.8318   25.0608 C   0  0  0  0  0  0  0  0  0  0  0  0
    9.8483    5.5106   25.7479 H   0  0  0  0  0  0  0  0  0  0  0  0
    8.7913    3.6471   25.5386 C   0  0  0  0  0  0  0  0  0  0  0  0
    8.8532    3.4004   26.5963 H   0  0  0  0  0  0  0  0  0  0  0  0
    8.1513    2.7551   24.6696 C   0  0  0  0  0  0  0  0  0  0  0  0
    7.5891    1.4519   25.2117 C   0  0  0  0  0  0  0  0  0  0  0  0
    8.4183    0.7460   25.3429 H   0  0  0  0  0  0  0  0  0  0  0  0
    7.1469    1.6089   26.2001 H   0  0  0  0  0  0  0  0  0  0  0  0
    6.5548    0.8372   24.2789 C   0  0  0  0  0  0  0  0  0  0  0  0
    6.2873   -0.1778   24.5890 H   0  0  0  0  0  0  0  0  0  0  0  0
    5.6311    1.4340   24.3094 H   0  0  0  0  0  0  0  0  0  0  0  0
    5.4418    0.6537   20.1592 C   0  0  0  0  0  0  0  0  0  0  0  0
    5.0097    0.6310   21.1601 H   0  0  0  0  0  0  0  0  0  0  0  0
    4.8039    1.3114   19.1112 C   0  0  0  0  0  0  0  0  0  0  0  0
    3.8702    1.8453   19.2652 H   0  0  0  0  0  0  0  0  0  0  0  0
  1  2  1  0
  2  3  2  0
  3  4  1  0
  4  5  1  0
  4  6  2  0
  6  7  1  0
  7  8  1  0
  8  9  2  0
  9 10  1  0
  9 11  1  0
 11 12  1  0
 11 13  1  0
 13 14  1  0
 14 15  1  0
 15 16  1  0
 15 17  1  0
 15 18  1  0
 18 19  2  0
 19 20  1  0
 19 21  1  0
 21 22  1  0
 21 23  2  0
 23 24  1  0
 23 25  1  0
 25 26  1  0
 25 27  2  0
 27 28  1  0
 28 29  1  0
 28 30  1  0
 28 31  1  0
 31 32  1  0
 31 33  1  0
  6 34  1  0
 34 35  1  0
 34 36  2  0
 36 37  1  0
 36  2  1  0
 13  7  2  0
 31 14  1  0
 27 18  1  0
M  END
>  <cnnaffinity>  (1) 
-5.22841

>  <filename>  (1) 
c1cncc(-c2nc[nH]c2N2CCc3ccccc3C2)c1

$$$$
