
     RDKit          3D

 33 36  0  0  0  0  0  0  0  0999 V2000
   13.1163    4.1832   23.5487 H   0  0  0  0  0  0  0  0  0  0  0  0
   12.6665    3.2494   23.2141 C   0  0  0  0  0  0  0  0  0  0  0  0
   11.3262    3.1607   23.2792 N   0  0  0  0  0  0  0  0  0  0  0  0
   10.7996    2.0049   22.8331 C   0  0  0  0  0  0  0  0  0  0  0  0
    9.7161    1.9079   22.8838 H   0  0  0  0  0  0  0  0  0  0  0  0
   11.5897    0.9420   22.3292 C   0  0  0  0  0  0  0  0  0  0  0  0
   10.9484   -0.3286   21.8283 C   0  0  1  0  0  0  0  0  0  0  0  0
   11.7720   -0.9208   21.4143 H   0  0  0  0  0  0  0  0  0  0  0  0
   10.2332   -1.1499   22.9727 C   0  0  0  0  0  0  0  0  0  0  0  0
   10.6314   -2.1680   23.0298 H   0  0  0  0  0  0  0  0  0  0  0  0
   10.3453   -0.7031   23.9657 H   0  0  0  0  0  0  0  0  0  0  0  0
    8.7958   -1.1398   22.5494 C   0  0  0  0  0  0  0  0  0  0  0  0
    7.6784   -1.6021   23.0809 N   0  0  0  0  0  0  0  0  0  0  0  0
    6.7381   -1.2277   22.1769 N   0  0  0  0  0  0  0  0  0  0  0  0
    5.7854   -1.5348   22.3189 H   0  0  0  0  0  0  0  0  0  0  0  0
    7.2394   -0.5686   21.0906 C   0  0  0  0  0  0  0  0  0  0  0  0
    6.4749    0.0194   19.9767 C   0  0  0  0  0  0  0  0  0  0  0  0
    7.0647    0.0222   18.6976 C   0  0  0  0  0  0  0  0  0  0  0  0
    7.9898   -0.5254   18.5373 H   0  0  0  0  0  0  0  0  0  0  0  0
    6.5539    0.6312   17.6210 N   0  0  0  0  0  0  0  0  0  0  0  0
    5.4038    1.3009   17.7879 C   0  0  0  0  0  0  0  0  0  0  0  0
    5.0155    1.8158   16.9103 H   0  0  0  0  0  0  0  0  0  0  0  0
    4.7134    1.3414   19.0065 C   0  0  0  0  0  0  0  0  0  0  0  0
    3.7890    1.9018   19.0726 H   0  0  0  0  0  0  0  0  0  0  0  0
    5.2440    0.6825   20.1169 C   0  0  0  0  0  0  0  0  0  0  0  0
    4.7300    0.6941   21.0798 H   0  0  0  0  0  0  0  0  0  0  0  0
    8.5954   -0.5178   21.3289 C   0  0  0  0  0  0  0  0  0  0  0  0
    9.8690   -0.0527   20.7160 C   0  0  0  0  0  0  0  0  0  0  0  0
    9.8231    0.9962   20.3917 H   0  0  0  0  0  0  0  0  0  0  0  0
   10.0915   -0.6453   19.8254 H   0  0  0  0  0  0  0  0  0  0  0  0
   12.9380    1.0327   22.2979 N   0  0  0  0  0  0  0  0  0  0  0  0
   13.4607    2.1885   22.7425 C   0  0  0  0  0  0  0  0  0  0  0  0
   14.5416    2.2816   22.7079 H   0  0  0  0  0  0  0  0  0  0  0  0
  1  2  1  0
  2  3  2  0
  3  4  1  0
  4  5  1  0
  4  6  2  0
  6  7  1  0
  7  8  1  6
  7  9  1  0
  9 10  1  0
  9 11  1  0
  9 12  1  0
 12 13  2  0
 13 14  1  0
 14 15  1  0
 14 16  1  0
 16 17  1  0
 17 18  2  0
 18 19  1  0
 18 20  1  0
 20 21  2  0
 21 22  1  0
 21 23  1  0
 23 24  1  0
 23 25  2  0
 25 26  1  0
 16 27  2  0
 27 28  1  0
 28 29  1  0
 28 30  1  0
  6 31  1  0
 31 32  2  0
 32 33  1  0
 32  2  1  0
 28  7  1  0
 27 12  1  0
 25 17  1  0
M  END
>  <cnnaffinity>  (1) 
-5.23427

>  <filename>  (1) 
c1cncc(-c2[nH]nc3c2C[C@@H](c2cnccn2)C3)c1

$$$$
