
     RDKit          3D

 36 39  0  0  0  0  0  0  0  0999 V2000
    4.9230    1.7934   16.9838 H   0  0  0  0  0  0  0  0  0  0  0  0
    5.3925    1.3006   17.8328 C   0  0  0  0  0  0  0  0  0  0  0  0
    6.5546    0.6825   17.5753 N   0  0  0  0  0  0  0  0  0  0  0  0
    7.1498    0.0589   18.5977 C   0  0  0  0  0  0  0  0  0  0  0  0
    8.1021   -0.4160   18.3660 H   0  0  0  0  0  0  0  0  0  0  0  0
    6.6287   -0.0162   19.9001 C   0  0  0  0  0  0  0  0  0  0  0  0
    7.4103   -0.7054   20.9953 C   0  0  0  0  0  0  0  0  0  0  0  0
    6.7571   -0.8947   21.8567 H   0  0  0  0  0  0  0  0  0  0  0  0
    7.7648   -1.6887   20.6637 H   0  0  0  0  0  0  0  0  0  0  0  0
    8.5968    0.1304   21.4012 C   0  0  0  0  0  0  0  0  0  0  0  0
    9.9438   -0.0469   21.0353 C   0  0  0  0  0  0  0  0  0  0  0  0
   10.3753   -0.8683   20.4789 H   0  0  0  0  0  0  0  0  0  0  0  0
   10.7038    0.9759   21.3984 N   0  0  0  0  0  0  0  0  0  0  0  0
    9.8602    1.8258   21.9914 N   0  0  0  0  0  0  0  0  0  0  0  0
   10.2108    2.7061   22.3452 H   0  0  0  0  0  0  0  0  0  0  0  0
    8.5729    1.3801   22.0162 C   0  0  0  0  0  0  0  0  0  0  0  0
    7.4600    2.1830   22.5949 C   0  0  0  0  0  0  0  0  0  0  0  0
    7.4149    3.4792   22.3364 N   0  0  0  0  0  0  0  0  0  0  0  0
    6.3370    4.1850   22.7916 C   0  0  0  0  0  0  0  0  0  0  0  0
    6.2523    5.5773   22.4585 C   0  0  0  0  0  0  0  0  0  0  0  0
    7.0446    5.9700   21.8278 H   0  0  0  0  0  0  0  0  0  0  0  0
    5.2051    6.3388   22.9278 C   0  0  0  0  0  0  0  0  0  0  0  0
    5.1394    7.3960   22.6743 H   0  0  0  0  0  0  0  0  0  0  0  0
    4.1908    5.7572   23.7465 C   0  0  0  0  0  0  0  0  0  0  0  0
    3.3722    6.3773   24.1037 H   0  0  0  0  0  0  0  0  0  0  0  0
    4.2398    4.4229   24.0792 C   0  0  0  0  0  0  0  0  0  0  0  0
    3.4785    3.9607   24.7051 H   0  0  0  0  0  0  0  0  0  0  0  0
    5.3065    3.6049   23.6075 C   0  0  0  0  0  0  0  0  0  0  0  0
    5.4229    2.2191   23.9280 C   0  0  0  0  0  0  0  0  0  0  0  0
    4.6726    1.7471   24.5679 H   0  0  0  0  0  0  0  0  0  0  0  0
    6.4923    1.5217   23.4210 C   0  0  0  0  0  0  0  0  0  0  0  0
    6.6404    0.4741   23.6481 H   0  0  0  0  0  0  0  0  0  0  0  0
    5.4237    0.6494   20.1503 C   0  0  0  0  0  0  0  0  0  0  0  0
    5.0208    0.6569   21.1676 H   0  0  0  0  0  0  0  0  0  0  0  0
    4.7957    1.3203   19.0972 C   0  0  0  0  0  0  0  0  0  0  0  0
    3.8667    1.8544   19.2411 H   0  0  0  0  0  0  0  0  0  0  0  0
  1  2  1  0
  2  3  2  0
  3  4  1  0
  4  5  1  0
  4  6  2  0
  6  7  1  0
  7  8  1  0
  7  9  1  0
  7 10  1  0
 10 11  1  0
 11 12  1  0
 11 13  2  0
 13 14  1  0
 14 15  1  0
 14 16  1  0
 16 17  1  0
 17 18  2  0
 18 19  1  0
 19 20  2  0
 20 21  1  0
 20 22  1  0
 22 23  1  0
 22 24  2  0
 24 25  1  0
 24 26  1  0
 26 27  1  0
 26 28  2  0
 28 29  1  0
 29 30  1  0
 29 31  2  0
 31 32  1  0
  6 33  1  0
 33 34  1  0
 33 35  2  0
 35 36  1  0
 35  2  1  0
 16 10  2  0
 31 17  1  0
 28 19  1  0
M  END
>  <cnnaffinity>  (1) 
-5.35311

>  <filename>  (1) 
c1cncc(Cc2cn[nH]c2-c2ccc3ccccc3n2)c1

$$$$
