
     RDKit          3D

 29 31  0  0  0  0  0  0  0  0999 V2000
    4.9700    1.8047   16.9493 H   0  0  0  0  0  0  0  0  0  0  0  0
    5.4203    1.2959   17.8009 C   0  0  0  0  0  0  0  0  0  0  0  0
    6.5811    0.6632   17.5743 N   0  0  0  0  0  0  0  0  0  0  0  0
    7.1654    0.0517   18.6147 C   0  0  0  0  0  0  0  0  0  0  0  0
    8.1115   -0.4383   18.3986 H   0  0  0  0  0  0  0  0  0  0  0  0
    6.6502    0.0247   19.9244 C   0  0  0  0  0  0  0  0  0  0  0  0
    7.3999   -0.6313   21.0256 C   0  0  0  0  0  0  0  0  0  0  0  0
    6.9104   -0.3566   22.6740 S   0  0  0  0  0  0  0  0  0  0  0  0
    8.1311   -1.3922   23.2743 C   0  0  0  0  0  0  0  0  0  0  0  0
    8.2691   -1.5362   24.3328 H   0  0  0  0  0  0  0  0  0  0  0  0
    8.8607   -1.9652   22.2760 C   0  0  0  0  0  0  0  0  0  0  0  0
    9.8530   -2.9078   22.5021 N   0  0  0  0  0  0  0  0  0  0  0  0
   10.5186   -3.0534   21.7630 H   0  0  0  0  0  0  0  0  0  0  0  0
    9.9572   -3.7689   23.5828 C   0  0  0  0  0  0  0  0  0  0  0  0
   11.2309   -4.0488   24.0695 C   0  0  0  0  0  0  0  0  0  0  0  0
   12.0851   -3.6189   23.5707 H   0  0  0  0  0  0  0  0  0  0  0  0
   11.3441   -4.9577   25.1131 C   0  0  0  0  0  0  0  0  0  0  0  0
   12.3206   -5.2072   25.5129 H   0  0  0  0  0  0  0  0  0  0  0  0
   10.3073   -5.5841   25.6774 N   0  0  0  0  0  0  0  0  0  0  0  0
    9.0982   -5.3270   25.1688 C   0  0  0  0  0  0  0  0  0  0  0  0
    8.2696   -5.9058   25.5696 H   0  0  0  0  0  0  0  0  0  0  0  0
    8.8592   -4.4118   24.1531 C   0  0  0  0  0  0  0  0  0  0  0  0
    7.8601   -4.2101   23.7937 H   0  0  0  0  0  0  0  0  0  0  0  0
    8.4684   -1.4891   20.9834 C   0  0  0  0  0  0  0  0  0  0  0  0
    8.9778   -1.7949   20.0736 H   0  0  0  0  0  0  0  0  0  0  0  0
    5.4120    0.6750   20.1276 C   0  0  0  0  0  0  0  0  0  0  0  0
    4.9457    0.6858   21.1121 H   0  0  0  0  0  0  0  0  0  0  0  0
    4.7983    1.3182   19.0531 C   0  0  0  0  0  0  0  0  0  0  0  0
    3.8647    1.8514   19.1823 H   0  0  0  0  0  0  0  0  0  0  0  0
  1  2  1  0
  2  3  2  0
  3  4  1  0
  4  5  1  0
  4  6  2  0
  6  7  1  0
  7  8  1  0
  8  9  1  0
  9 10  1  0
  9 11  2  0
 11 12  1  0
 12 13  1  0
 12 14  1  0
 14 15  2  0
 15 16  1  0
 15 17  1  0
 17 18  1  0
 17 19  2  0
 19 20  1  0
 20 21  1  0
 20 22  2  0
 22 23  1  0
 11 24  1  0
 24 25  1  0
  6 26  1  0
 26 27  1  0
 26 28  2  0
 28 29  1  0
 28  2  1  0
 24  7  2  0
 22 14  1  0
M  END
>  <cnnaffinity>  (1) 
-5.4843

>  <filename>  (1) 
c1cncc(-c2cc(Nc3ccncc3)cs2)c1

$$$$
