
     RDKit          3D

 40 43  0  0  0  0  0  0  0  0999 V2000
    5.0294    1.7737   16.8423 H   0  0  0  0  0  0  0  0  0  0  0  0
    5.4416    1.3242   17.7432 C   0  0  0  0  0  0  0  0  0  0  0  0
    6.6100    0.6854   17.6012 N   0  0  0  0  0  0  0  0  0  0  0  0
    7.1479    0.1301   18.7003 C   0  0  0  0  0  0  0  0  0  0  0  0
    8.0540   -0.4432   18.5199 H   0  0  0  0  0  0  0  0  0  0  0  0
    6.5963    0.2088   19.9942 C   0  0  0  0  0  0  0  0  0  0  0  0
    7.1934   -0.4070   21.2614 C   0  0  1  0  0  0  0  0  0  0  0  0
    6.3121   -0.6980   21.8546 H   0  0  0  0  0  0  0  0  0  0  0  0
    8.0218   -1.6888   21.0720 C   0  0  0  0  0  0  0  0  0  0  0  0
    7.4846   -2.3901   20.4308 H   0  0  0  0  0  0  0  0  0  0  0  0
    8.0934   -2.1525   22.0642 H   0  0  0  0  0  0  0  0  0  0  0  0
    9.4636   -1.4599   20.6155 C   0  0  0  0  0  0  0  0  0  0  0  0
    9.4774   -1.0772   19.5808 H   0  0  0  0  0  0  0  0  0  0  0  0
    9.9971   -2.4162   20.6274 H   0  0  0  0  0  0  0  0  0  0  0  0
   10.1250   -0.5622   21.5573 N   0  0  0  0  0  0  0  0  0  0  0  0
   11.1040   -0.4463   21.3138 H   0  0  0  0  0  0  0  0  0  0  0  0
    9.4606    0.7390   21.6438 C   0  0  0  0  0  0  0  0  0  0  0  0
   10.0178    1.3774   22.3418 H   0  0  0  0  0  0  0  0  0  0  0  0
    9.4166    1.2681   20.6707 H   0  0  0  0  0  0  0  0  0  0  0  0
    8.0229    0.5727   22.1647 C   0  0  2  0  0  0  0  0  0  0  0  0
    7.5552    1.5619   22.1062 H   0  0  0  0  0  0  0  0  0  0  0  0
    7.9678    0.1221   23.6090 C   0  0  0  0  0  0  0  0  0  0  0  0
    8.7021   -0.8342   24.2538 C   0  0  0  0  0  0  0  0  0  0  0  0
    9.5668   -1.3755   23.8920 H   0  0  0  0  0  0  0  0  0  0  0  0
    8.1909   -1.0325   25.5236 N   0  0  0  0  0  0  0  0  0  0  0  0
    8.4542   -1.7638   26.1577 H   0  0  0  0  0  0  0  0  0  0  0  0
    7.1100   -0.2087   25.7121 C   0  0  0  0  0  0  0  0  0  0  0  0
    6.2727   -0.0251   26.8226 C   0  0  0  0  0  0  0  0  0  0  0  0
    6.4088   -0.6215   27.7195 H   0  0  0  0  0  0  0  0  0  0  0  0
    5.2730    0.9336   26.7287 C   0  0  0  0  0  0  0  0  0  0  0  0
    4.6254    1.1163   27.5809 H   0  0  0  0  0  0  0  0  0  0  0  0
    5.0836    1.6815   25.5390 C   0  0  0  0  0  0  0  0  0  0  0  0
    4.2926    2.4203   25.4921 H   0  0  0  0  0  0  0  0  0  0  0  0
    5.9051    1.4799   24.4408 C   0  0  0  0  0  0  0  0  0  0  0  0
    5.7630    2.0357   23.5174 H   0  0  0  0  0  0  0  0  0  0  0  0
    6.9441    0.5359   24.5244 C   0  0  0  0  0  0  0  0  0  0  0  0
    5.3541    0.8682   20.0962 C   0  0  0  0  0  0  0  0  0  0  0  0
    4.8484    0.9156   21.0647 H   0  0  0  0  0  0  0  0  0  0  0  0
    4.7652    1.4276   18.9627 C   0  0  0  0  0  0  0  0  0  0  0  0
    3.8041    1.9296   19.0091 H   0  0  0  0  0  0  0  0  0  0  0  0
  1  2  1  0
  2  3  2  0
  3  4  1  0
  4  5  1  0
  4  6  2  0
  6  7  1  0
  7  8  1  1
  7  9  1  0
  9 10  1  0
  9 11  1  0
  9 12  1  0
 12 13  1  0
 12 14  1  0
 12 15  1  0
 15 16  1  0
 15 17  1  0
 17 18  1  0
 17 19  1  0
 17 20  1  0
 20 21  1  1
 20 22  1  0
 22 23  2  0
 23 24  1  0
 23 25  1  0
 25 26  1  0
 25 27  1  0
 27 28  2  0
 28 29  1  0
 28 30  1  0
 30 31  1  0
 30 32  2  0
 32 33  1  0
 32 34  1  0
 34 35  1  0
 34 36  2  0
  6 37  1  0
 37 38  1  0
 37 39  2  0
 39 40  1  0
 39  2  1  0
 20  7  1  0
 36 22  1  0
 36 27  1  0
M  END
>  <cnnaffinity>  (1) 
-4.81425

>  <filename>  (1) 
c1cncc([C@H]2CCNC[C@@H]2c2c[nH]c3ccccc23)c1

$$$$
