
     RDKit          3D

 31 33  0  0  0  0  0  0  0  0999 V2000
    6.8162   -2.6914   23.3755 H   0  0  0  0  0  0  0  0  0  0  0  0
    7.2370   -2.0294   22.6310 C   0  0  0  0  0  0  0  0  0  0  0  0
    8.4777   -1.7178   22.4426 N   0  0  0  0  0  0  0  0  0  0  0  0
    8.4367   -0.9039   21.3421 C   0  0  0  0  0  0  0  0  0  0  0  0
    9.5793   -0.3767   20.7665 N   0  0  0  0  0  0  0  0  0  0  0  0
    9.4446    0.6113   20.6138 H   0  0  0  0  0  0  0  0  0  0  0  0
   10.8566   -0.6052   21.4365 C   0  0  0  0  0  0  0  0  0  0  0  0
   10.9019   -1.6494   21.7505 H   0  0  0  0  0  0  0  0  0  0  0  0
   11.6477   -0.4687   20.6924 H   0  0  0  0  0  0  0  0  0  0  0  0
   11.1291    0.3235   22.6143 C   0  0  0  0  0  0  0  0  0  0  0  0
   11.4256    1.6816   22.4136 C   0  0  0  0  0  0  0  0  0  0  0  0
   11.3755    2.1299   21.4273 H   0  0  0  0  0  0  0  0  0  0  0  0
   11.7842    2.4787   23.5056 C   0  0  0  0  0  0  0  0  0  0  0  0
   12.0599    3.5216   23.3496 H   0  0  0  0  0  0  0  0  0  0  0  0
   11.8210    2.0307   24.7679 N   0  0  0  0  0  0  0  0  0  0  0  0
   11.4988    0.7472   24.9685 C   0  0  0  0  0  0  0  0  0  0  0  0
   11.5219    0.3867   25.9972 H   0  0  0  0  0  0  0  0  0  0  0  0
   11.1498   -0.1335   23.9405 C   0  0  0  0  0  0  0  0  0  0  0  0
   10.8718   -1.1547   24.1800 H   0  0  0  0  0  0  0  0  0  0  0  0
    7.1360   -0.7817   20.8905 C   0  0  0  0  0  0  0  0  0  0  0  0
    6.4771   -0.0719   19.8041 C   0  0  0  0  0  0  0  0  0  0  0  0
    7.0575   -0.0113   18.5233 C   0  0  0  0  0  0  0  0  0  0  0  0
    7.9864   -0.5494   18.3345 H   0  0  0  0  0  0  0  0  0  0  0  0
    6.5396    0.6710   17.4936 N   0  0  0  0  0  0  0  0  0  0  0  0
    5.4030    1.3468   17.7214 C   0  0  0  0  0  0  0  0  0  0  0  0
    4.9959    1.9102   16.8841 H   0  0  0  0  0  0  0  0  0  0  0  0
    4.7293    1.3378   18.9490 C   0  0  0  0  0  0  0  0  0  0  0  0
    3.8110    1.9022   19.0644 H   0  0  0  0  0  0  0  0  0  0  0  0
    5.2641    0.6073   20.0048 C   0  0  0  0  0  0  0  0  0  0  0  0
    4.7717    0.5687   20.9764 H   0  0  0  0  0  0  0  0  0  0  0  0
    6.3662   -1.5100   21.7611 O   0  0  0  0  0  0  0  0  0  0  0  0
  1  2  1  0
  2  3  2  0
  3  4  1  0
  4  5  1  0
  5  6  1  0
  5  7  1  0
  7  8  1  0
  7  9  1  0
  7 10  1  0
 10 11  2  0
 11 12  1  0
 11 13  1  0
 13 14  1  0
 13 15  2  0
 15 16  1  0
 16 17  1  0
 16 18  2  0
 18 19  1  0
  4 20  2  0
 20 21  1  0
 21 22  2  0
 22 23  1  0
 22 24  1  0
 24 25  2  0
 25 26  1  0
 25 27  1  0
 27 28  1  0
 27 29  2  0
 29 30  1  0
 20 31  1  0
 31  2  1  0
 18 10  1  0
 29 21  1  0
M  END
>  <cnnaffinity>  (1) 
-4.99913

>  <filename>  (1) 
c1cncc(-c2ocnc2NCc2ccncc2)c1

$$$$
