
     RDKit          3D

 37 39  0  0  0  0  0  0  0  0999 V2000
    9.3436   -0.2932   20.3456 H   0  0  0  0  0  0  0  0  0  0  0  0
    8.7576   -0.8064   21.0973 C   0  0  0  0  0  0  0  0  0  0  0  0
    9.4335   -1.4409   22.0716 N   0  0  0  0  0  0  0  0  0  0  0  0
    8.6825   -2.0554   22.9993 C   0  0  0  0  0  0  0  0  0  0  0  0
    9.2023   -2.5550   23.8070 H   0  0  0  0  0  0  0  0  0  0  0  0
    7.2460   -2.0363   22.9568 C   0  0  0  0  0  0  0  0  0  0  0  0
    6.3550   -2.6272   23.8009 N   0  0  0  0  0  0  0  0  0  0  0  0
    5.4577   -2.2110   23.5694 H   0  0  0  0  0  0  0  0  0  0  0  0
    6.6272   -3.3426   25.0349 C   0  0  0  0  0  0  0  0  0  0  0  0
    5.6481   -3.5820   25.4775 H   0  0  0  0  0  0  0  0  0  0  0  0
    7.4006   -2.4895   26.0587 C   0  0  0  0  0  0  0  0  0  0  0  0
    8.3228   -2.1096   25.6099 H   0  0  0  0  0  0  0  0  0  0  0  0
    6.8035   -1.6078   26.3178 H   0  0  0  0  0  0  0  0  0  0  0  0
    7.7581   -3.2914   27.3112 C   0  0  0  0  0  0  0  0  0  0  0  0
    8.3121   -2.6433   27.9858 H   0  0  0  0  0  0  0  0  0  0  0  0
    6.8230   -3.5698   27.8141 H   0  0  0  0  0  0  0  0  0  0  0  0
    8.5321   -4.5828   27.0155 C   0  0  0  0  0  0  0  0  0  0  0  0
    8.7115   -5.1314   27.9501 H   0  0  0  0  0  0  0  0  0  0  0  0
    9.5285   -4.3581   26.6050 H   0  0  0  0  0  0  0  0  0  0  0  0
    7.7320   -5.4492   26.0303 C   0  0  0  0  0  0  0  0  0  0  0  0
    8.2878   -6.3574   25.7712 H   0  0  0  0  0  0  0  0  0  0  0  0
    6.8132   -5.7853   26.5298 H   0  0  0  0  0  0  0  0  0  0  0  0
    7.3662   -4.6716   24.7535 C   0  0  0  0  0  0  0  0  0  0  0  0
    6.7623   -5.2798   24.0729 H   0  0  0  0  0  0  0  0  0  0  0  0
    8.2935   -4.4447   24.2168 H   0  0  0  0  0  0  0  0  0  0  0  0
    6.5905   -1.3654   21.9918 N   0  0  0  0  0  0  0  0  0  0  0  0
    7.3352   -0.7661   21.0546 C   0  0  0  0  0  0  0  0  0  0  0  0
    6.5995   -0.0489   19.9858 C   0  0  0  0  0  0  0  0  0  0  0  0
    7.1438   -0.0156   18.6953 C   0  0  0  0  0  0  0  0  0  0  0  0
    8.0823   -0.5285   18.4855 H   0  0  0  0  0  0  0  0  0  0  0  0
    6.5892    0.6123   17.6564 N   0  0  0  0  0  0  0  0  0  0  0  0
    5.4389    1.2677   17.8728 C   0  0  0  0  0  0  0  0  0  0  0  0
    5.0087    1.7892   17.0183 H   0  0  0  0  0  0  0  0  0  0  0  0
    4.8009    1.2972   19.1181 C   0  0  0  0  0  0  0  0  0  0  0  0
    3.8805    1.8580   19.2312 H   0  0  0  0  0  0  0  0  0  0  0  0
    5.3801    0.6201   20.1921 C   0  0  0  0  0  0  0  0  0  0  0  0
    4.9112    0.6220   21.1775 H   0  0  0  0  0  0  0  0  0  0  0  0
  1  2  1  0
  2  3  2  0
  3  4  1  0
  4  5  1  0
  4  6  2  0
  6  7  1  0
  7  8  1  0
  7  9  1  0
  9 10  1  0
  9 11  1  0
 11 12  1  0
 11 13  1  0
 11 14  1  0
 14 15  1  0
 14 16  1  0
 14 17  1  0
 17 18  1  0
 17 19  1  0
 17 20  1  0
 20 21  1  0
 20 22  1  0
 20 23  1  0
 23 24  1  0
 23 25  1  0
  6 26  1  0
 26 27  2  0
 27 28  1  0
 28 29  2  0
 29 30  1  0
 29 31  1  0
 31 32  2  0
 32 33  1  0
 32 34  1  0
 34 35  1  0
 34 36  2  0
 36 37  1  0
 27  2  1  0
 36 28  1  0
 23  9  1  0
M  END
>  <cnnaffinity>  (1) 
-5.39606

>  <filename>  (1) 
c1cncc(-c2cncc(NC3CCCCC3)n2)c1

$$$$
