
     RDKit          3D

 38 40  0  0  0  0  0  0  0  0999 V2000
    4.8063    1.3065   19.0811 C   0  0  0  0  0  0  0  0  0  0  0  0
    5.4203    1.2900   17.8218 C   0  0  0  0  0  0  0  0  0  0  0  0
    6.5750    0.6573   17.5677 N   0  0  0  0  0  0  0  0  0  0  0  0
    7.1828    0.0400   18.5801 C   0  0  0  0  0  0  0  0  0  0  0  0
    6.6645    0.0133   19.8808 C   0  0  0  0  0  0  0  0  0  0  0  0
    7.4141   -0.6711   20.9275 C   0  0  0  0  0  0  0  0  0  0  0  0
    8.5331   -1.3211   20.7210 N   0  0  0  0  0  0  0  0  0  0  0  0
    8.8322   -1.8432   21.9703 O   0  0  0  0  0  0  0  0  0  0  0  0
    7.8687   -1.4416   22.8011 C   0  0  0  0  0  0  0  0  0  0  0  0
    7.8787   -1.9218   24.2117 C   0  0  0  0  0  0  0  0  0  0  0  0
    7.1716   -3.2850   24.4077 C   0  0  0  0  0  0  0  0  0  0  0  0
    7.0368   -3.7521   25.8620 C   0  0  0  0  0  0  0  0  0  0  0  0
    8.3954   -4.1070   26.4801 C   0  0  0  0  0  0  0  0  0  0  0  0
    8.2483   -4.6523   27.8974 C   0  0  0  0  0  0  0  0  0  0  0  0
    7.2793   -5.8148   27.9563 N   0  0  0  0  0  4  0  0  0  0  0  0
    5.9183   -5.4389   27.4104 C   0  0  0  0  0  0  0  0  0  0  0  0
    6.0850   -4.9617   25.9664 C   0  0  0  0  0  0  0  0  0  0  0  0
    6.4907   -5.7853   25.3547 H   0  0  0  0  0  0  0  0  0  0  0  0
    5.1028   -4.7118   25.5535 H   0  0  0  0  0  0  0  0  0  0  0  0
    5.2297   -6.2843   27.4809 H   0  0  0  0  0  0  0  0  0  0  0  0
    5.4946   -4.6319   28.0178 H   0  0  0  0  0  0  0  0  0  0  0  0
    7.2247   -6.2350   28.8986 H   0  0  0  0  0  0  0  0  0  0  0  0
    7.6587   -6.5549   27.3125 H   0  0  0  0  0  0  0  0  0  0  0  0
    7.8683   -3.8426   28.5166 H   0  0  0  0  0  0  0  0  0  0  0  0
    9.2127   -4.9378   28.3169 H   0  0  0  0  0  0  0  0  0  0  0  0
    8.9153   -4.8277   25.8315 H   0  0  0  0  0  0  0  0  0  0  0  0
    9.0392   -3.2231   26.5325 H   0  0  0  0  0  0  0  0  0  0  0  0
    6.6003   -2.9348   26.4636 H   0  0  0  0  0  0  0  0  0  0  0  0
    6.1677   -3.2342   23.9651 H   0  0  0  0  0  0  0  0  0  0  0  0
    7.7099   -4.0659   23.8521 H   0  0  0  0  0  0  0  0  0  0  0  0
    7.3707   -1.1537   24.8023 H   0  0  0  0  0  0  0  0  0  0  0  0
    8.9225   -1.9577   24.5276 H   0  0  0  0  0  0  0  0  0  0  0  0
    6.9699   -0.7121   22.2264 N   0  0  0  0  0  0  0  0  0  0  0  0
    5.4419    0.6572   20.1364 C   0  0  0  0  0  0  0  0  0  0  0  0
    5.0166    0.6589   21.1411 H   0  0  0  0  0  0  0  0  0  0  0  0
    8.1324   -0.4433   18.3488 H   0  0  0  0  0  0  0  0  0  0  0  0
    4.9655    1.8149   16.9873 H   0  0  0  0  0  0  0  0  0  0  0  0
    3.8717    1.8418   19.2213 H   0  0  0  0  0  0  0  0  0  0  0  0
  1  2  2  0
  2  3  1  0
  3  4  2  0
  4  5  1  0
  5  6  1  0
  6  7  2  0
  7  8  1  0
  8  9  1  0
  9 10  1  0
 10 11  1  0
 11 12  1  0
 12 13  1  0
 13 14  1  0
 14 15  1  0
 15 16  1  0
 16 17  1  0
 17 18  1  0
 17 19  1  0
 16 20  1  0
 16 21  1  0
 15 22  1  0
 15 23  1  0
 14 24  1  0
 14 25  1  0
 13 26  1  0
 13 27  1  0
 12 28  1  0
 11 29  1  0
 11 30  1  0
 10 31  1  0
 10 32  1  0
  9 33  2  0
  5 34  2  0
 34 35  1  0
  4 36  1  0
  2 37  1  0
  1 38  1  0
 34  1  1  0
 33  6  1  0
 17 12  1  0
M  CHG  1  15   1
M  END
>  <cnnaffinity>  (1) 
-4.86049

>  <filename>  (1) 
c1cncc(-c2noc(CCC3CC[NH2+]CC3)n2)c1

$$$$
