
     RDKit          3D

 44 47  0  0  0  0  0  0  0  0999 V2000
    4.9546    1.8282   16.9672 H   0  0  0  0  0  0  0  0  0  0  0  0
    5.3987    1.2938   17.8064 C   0  0  0  0  0  0  0  0  0  0  0  0
    6.5461    0.6414   17.5610 N   0  0  0  0  0  0  0  0  0  0  0  0
    7.1364    0.0080   18.5784 C   0  0  0  0  0  0  0  0  0  0  0  0
    8.0723   -0.5010   18.3527 H   0  0  0  0  0  0  0  0  0  0  0  0
    6.6378    0.0059   19.8881 C   0  0  0  0  0  0  0  0  0  0  0  0
    7.4176   -0.6424   20.9415 C   0  0  0  0  0  0  0  0  0  0  0  0
    7.9828   -1.8909   20.7802 N   0  0  0  0  0  0  0  0  0  0  0  0
    8.4922   -2.1496   21.9483 C   0  0  0  0  0  0  0  0  0  0  0  0
    8.4058   -1.1150   22.8240 N   0  0  0  0  0  0  0  0  0  0  0  0
    7.6834   -0.1320   22.2009 C   0  0  0  0  0  0  0  0  0  0  0  0
    7.2999    1.1190   22.9120 C   0  0  0  0  0  0  0  0  0  0  0  0
    6.9489    1.8668   22.1967 H   0  0  0  0  0  0  0  0  0  0  0  0
    8.1960    1.5460   23.3796 H   0  0  0  0  0  0  0  0  0  0  0  0
    6.2174    0.9111   23.9799 C   0  0  0  0  0  0  0  0  0  0  0  0
    6.5735    0.2041   24.7529 H   0  0  0  0  0  0  0  0  0  0  0  0
    5.3673    0.4215   23.4951 H   0  0  0  0  0  0  0  0  0  0  0  0
    5.7706    2.1756   24.5463 N   0  0  0  0  0  0  0  0  0  0  0  0
    6.6900    2.7136   25.5537 C   0  0  0  0  0  0  0  0  0  0  0  0
    7.7031    2.7404   25.1345 H   0  0  0  0  0  0  0  0  0  0  0  0
    6.7396    2.0661   26.4555 H   0  0  0  0  0  0  0  0  0  0  0  0
    6.2801    4.1273   25.9671 C   0  0  0  0  0  0  0  0  0  0  0  0
    6.9739    4.4953   26.7329 H   0  0  0  0  0  0  0  0  0  0  0  0
    6.3846    4.7903   25.0988 H   0  0  0  0  0  0  0  0  0  0  0  0
    4.8279    4.1559   26.4652 C   0  0  0  0  0  0  0  0  0  0  0  0
    4.5142    5.1800   26.6941 H   0  0  0  0  0  0  0  0  0  0  0  0
    4.7531    3.5897   27.4053 H   0  0  0  0  0  0  0  0  0  0  0  0
    3.9009    3.5243   25.4167 C   0  0  0  0  0  0  0  0  0  0  0  0
    3.8779    4.1495   24.5144 H   0  0  0  0  0  0  0  0  0  0  0  0
    2.8691    3.4536   25.7824 H   0  0  0  0  0  0  0  0  0  0  0  0
    4.3894    2.1310   25.0239 C   0  0  0  0  0  0  0  0  0  0  0  0
    4.2655    1.4340   25.8803 H   0  0  0  0  0  0  0  0  0  0  0  0
    3.7638    1.7492   24.2079 H   0  0  0  0  0  0  0  0  0  0  0  0
    9.0279   -1.2738   24.1214 C   0  0  0  0  0  0  0  0  0  0  0  0
    9.5477   -0.3568   24.4141 H   0  0  0  0  0  0  0  0  0  0  0  0
    8.2732   -1.4944   24.8825 H   0  0  0  0  0  0  0  0  0  0  0  0
   10.0077   -2.4414   23.9254 C   0  0  0  0  0  0  0  0  0  0  0  0
   10.2257   -2.9895   24.8443 H   0  0  0  0  0  0  0  0  0  0  0  0
   10.9390   -2.0863   23.4771 H   0  0  0  0  0  0  0  0  0  0  0  0
    9.2169   -3.5576   22.7066 S   0  0  0  0  0  0  0  0  0  0  0  0
    5.4155    0.6634   20.1205 C   0  0  0  0  0  0  0  0  0  0  0  0
    4.9676    0.6743   21.1131 H   0  0  0  0  0  0  0  0  0  0  0  0
    4.7822    1.3127   19.0610 C   0  0  0  0  0  0  0  0  0  0  0  0
    3.8542    1.8572   19.2026 H   0  0  0  0  0  0  0  0  0  0  0  0
  1  2  1  0
  2  3  2  0
  3  4  1  0
  4  5  1  0
  4  6  2  0
  6  7  1  0
  7  8  1  0
  8  9  2  0
  9 10  1  0
 10 11  1  0
 11 12  1  0
 12 13  1  0
 12 14  1  0
 12 15  1  0
 15 16  1  0
 15 17  1  0
 15 18  1  0
 18 19  1  0
 19 20  1  0
 19 21  1  0
 19 22  1  0
 22 23  1  0
 22 24  1  0
 22 25  1  0
 25 26  1  0
 25 27  1  0
 25 28  1  0
 28 29  1  0
 28 30  1  0
 28 31  1  0
 31 32  1  0
 31 33  1  0
 10 34  1  0
 34 35  1  0
 34 36  1  0
 34 37  1  0
 37 38  1  0
 37 39  1  0
 37 40  1  0
  6 41  1  0
 41 42  1  0
 41 43  2  0
 43 44  1  0
 43  2  1  0
 11  7  2  0
 31 18  1  0
 40  9  1  0
M  END
>  <cnnaffinity>  (1) 
-5.39846

>  <filename>  (1) 
c1cncc(-c2nc3n(c2CCN2CCCCC2)CCS3)c1

$$$$
