
     RDKit          3D

 30 33  0  0  0  0  0  0  0  0999 V2000
    4.9957    1.8608   17.0102 H   0  0  0  0  0  0  0  0  0  0  0  0
    5.4241    1.3207   17.8555 C   0  0  0  0  0  0  0  0  0  0  0  0
    6.5574    0.6387   17.6195 N   0  0  0  0  0  0  0  0  0  0  0  0
    7.1166   -0.0149   18.6470 C   0  0  0  0  0  0  0  0  0  0  0  0
    8.0181   -0.5855   18.4335 H   0  0  0  0  0  0  0  0  0  0  0  0
    6.5830   -0.0020   19.9456 C   0  0  0  0  0  0  0  0  0  0  0  0
    7.1850   -0.7178   21.0178 N   0  0  0  0  0  0  0  0  0  0  0  0
    6.4447   -1.5715   21.7623 N   0  0  0  0  0  0  0  0  0  0  0  0
    7.2288   -2.0740   22.6348 N   0  0  0  0  0  0  0  0  0  0  0  0
    8.4875   -1.5846   22.5160 N   0  0  0  0  0  0  0  0  0  0  0  0
    8.4422   -0.7398   21.5150 C   0  0  0  0  0  0  0  0  0  0  0  0
    9.7689    0.2236   20.8740 S   0  0  0  0  0  0  0  0  0  0  0  0
    9.3642    1.7428   21.6814 C   0  0  0  0  0  0  0  0  0  0  0  0
    8.3211    2.4612   21.1842 O   0  0  0  0  0  0  0  0  0  0  0  0
    8.2080    3.5648   21.9998 C   0  0  0  0  0  0  0  0  0  0  0  0
    7.3184    4.6265   21.8265 C   0  0  0  0  0  0  0  0  0  0  0  0
    6.6315    4.6363   20.9841 H   0  0  0  0  0  0  0  0  0  0  0  0
    7.3682    5.6352   22.7911 C   0  0  0  0  0  0  0  0  0  0  0  0
    6.7075    6.4916   22.6940 H   0  0  0  0  0  0  0  0  0  0  0  0
    8.2509    5.5717   23.8945 C   0  0  0  0  0  0  0  0  0  0  0  0
    8.2363    6.3546   24.6505 H   0  0  0  0  0  0  0  0  0  0  0  0
    9.1444    4.5104   24.0275 C   0  0  0  0  0  0  0  0  0  0  0  0
    9.8300    4.4618   24.8678 H   0  0  0  0  0  0  0  0  0  0  0  0
    9.1430    3.4996   23.0424 C   0  0  0  0  0  0  0  0  0  0  0  0
    9.9056    2.3010   22.7876 C   0  0  0  0  0  0  0  0  0  0  0  0
   10.7580    1.9267   23.3311 H   0  0  0  0  0  0  0  0  0  0  0  0
    5.3821    0.6690   20.1782 C   0  0  0  0  0  0  0  0  0  0  0  0
    4.9252    0.6398   21.1698 H   0  0  0  0  0  0  0  0  0  0  0  0
    4.8012    1.3484   19.1069 C   0  0  0  0  0  0  0  0  0  0  0  0
    3.8694    1.8813   19.2325 H   0  0  0  0  0  0  0  0  0  0  0  0
  1  2  1  0
  2  3  2  0
  3  4  1  0
  4  5  1  0
  4  6  2  0
  6  7  1  0
  7  8  1  0
  8  9  2  0
  9 10  1  0
 10 11  2  0
 11 12  1  0
 12 13  1  0
 13 14  1  0
 14 15  1  0
 15 16  2  0
 16 17  1  0
 16 18  1  0
 18 19  1  0
 18 20  2  0
 20 21  1  0
 20 22  1  0
 22 23  1  0
 22 24  2  0
 24 25  1  0
 25 26  1  0
  6 27  1  0
 27 28  1  0
 27 29  2  0
 29 30  1  0
 29  2  1  0
 11  7  1  0
 25 13  2  0
 24 15  1  0
M  END
>  <cnnaffinity>  (1) 
-5.34676

>  <filename>  (1) 
c1cncc(-n2nnnc2Sc2cc3ccccc3o2)c1

$$$$
