
     RDKit          3D

 35 39  0  0  0  0  0  0  0  0999 V2000
    4.9264    1.7724   17.0032 H   0  0  0  0  0  0  0  0  0  0  0  0
    5.4096    1.2854   17.8469 C   0  0  0  0  0  0  0  0  0  0  0  0
    6.5744    0.6676   17.5941 N   0  0  0  0  0  0  0  0  0  0  0  0
    7.1801    0.0531   18.6154 C   0  0  0  0  0  0  0  0  0  0  0  0
    8.1264   -0.4330   18.3852 H   0  0  0  0  0  0  0  0  0  0  0  0
    6.6464    0.0152   19.9102 C   0  0  0  0  0  0  0  0  0  0  0  0
    7.3684   -0.6907   20.9636 C   0  0  0  0  0  0  0  0  0  0  0  0
    8.5498   -1.3340   20.7470 N   0  0  0  0  0  0  0  0  0  0  0  0
    8.8134   -1.8051   21.9462 C   0  0  0  0  0  0  0  0  0  0  0  0
   10.0376   -2.7372   22.7588 S   0  0  0  0  0  0  0  0  0  0  0  0
    9.1519   -2.6150   24.2491 C   0  0  0  0  0  0  0  0  0  0  0  0
    9.5858   -3.1006   25.1161 H   0  0  0  0  0  0  0  0  0  0  0  0
    7.9995   -1.9076   24.1425 C   0  0  0  0  0  0  0  0  0  0  0  0
    6.9836   -1.5799   25.1879 C   0  0  0  0  0  0  0  0  0  0  0  0
    5.9117   -0.8618   24.8866 N   0  0  0  0  0  0  0  0  0  0  0  0
    4.9918   -0.5839   25.8493 C   0  0  0  0  0  0  0  0  0  0  0  0
    3.8341    0.1803   25.5298 C   0  0  0  0  0  0  0  0  0  0  0  0
    3.7558    0.5042   24.5032 H   0  0  0  0  0  0  0  0  0  0  0  0
    2.8978    0.4764   26.4980 C   0  0  0  0  0  0  0  0  0  0  0  0
    2.0179    1.0594   26.2435 H   0  0  0  0  0  0  0  0  0  0  0  0
    3.0644    0.0301   27.8441 C   0  0  0  0  0  0  0  0  0  0  0  0
    2.3143    0.2779   28.5919 H   0  0  0  0  0  0  0  0  0  0  0  0
    4.1675   -0.7068   28.1923 C   0  0  0  0  0  0  0  0  0  0  0  0
    4.3218   -1.0613   29.2171 H   0  0  0  0  0  0  0  0  0  0  0  0
    5.1381   -1.0190   27.1933 C   0  0  0  0  0  0  0  0  0  0  0  0
    6.2932   -1.7677   27.4896 C   0  0  0  0  0  0  0  0  0  0  0  0
    6.3128   -2.0251   28.5245 H   0  0  0  0  0  0  0  0  0  0  0  0
    7.2210   -2.0681   26.5286 C   0  0  0  0  0  0  0  0  0  0  0  0
    8.1076   -2.6513   26.7769 H   0  0  0  0  0  0  0  0  0  0  0  0
    7.8462   -1.4690   22.8263 N   0  0  0  0  0  0  0  0  0  0  0  0
    6.8968   -0.7417   22.1994 N   0  0  0  0  0  0  0  0  0  0  0  0
    5.4257    0.6582   20.1688 C   0  0  0  0  0  0  0  0  0  0  0  0
    5.0008    0.6329   21.1783 H   0  0  0  0  0  0  0  0  0  0  0  0
    4.8043    1.3097   19.1099 C   0  0  0  0  0  0  0  0  0  0  0  0
    3.8734    1.8437   19.2584 H   0  0  0  0  0  0  0  0  0  0  0  0
  1  2  1  0
  2  3  2  0
  3  4  1  0
  4  5  1  0
  4  6  2  0
  6  7  1  0
  7  8  1  0
  8  9  2  0
  9 10  1  0
 10 11  1  0
 11 12  1  0
 11 13  2  0
 13 14  1  0
 14 15  2  0
 15 16  1  0
 16 17  2  0
 17 18  1  0
 17 19  1  0
 19 20  1  0
 19 21  2  0
 21 22  1  0
 21 23  1  0
 23 24  1  0
 23 25  2  0
 25 26  1  0
 26 27  1  0
 26 28  2  0
 28 29  1  0
 13 30  1  0
 30 31  1  0
  6 32  1  0
 32 33  1  0
 32 34  2  0
 34 35  1  0
 34  2  1  0
 31  7  2  0
 30  9  1  0
 28 14  1  0
 25 16  1  0
M  END
>  <cnnaffinity>  (1) 
-5.6992

>  <filename>  (1) 
c1cncc(-c2nc3scc(-c4ccc5ccccc5n4)n3n2)c1

$$$$
