
     RDKit          3D

 38 41  0  0  0  0  0  0  0  0999 V2000
    4.9748    1.7967   16.9228 H   0  0  0  0  0  0  0  0  0  0  0  0
    5.4192    1.2961   17.7827 C   0  0  0  0  0  0  0  0  0  0  0  0
    6.5649    0.6351   17.5557 N   0  0  0  0  0  0  0  0  0  0  0  0
    7.1352    0.0306   18.6026 C   0  0  0  0  0  0  0  0  0  0  0  0
    8.0390   -0.5322   18.3822 H   0  0  0  0  0  0  0  0  0  0  0  0
    6.6433    0.0873   19.9194 C   0  0  0  0  0  0  0  0  0  0  0  0
    7.4147   -0.5329   21.0017 C   0  0  0  0  0  0  0  0  0  0  0  0
    8.1240   -1.7015   20.7912 N   0  0  0  0  0  0  0  0  0  0  0  0
    8.5603   -2.0142   21.9754 C   0  0  0  0  0  0  0  0  0  0  0  0
    8.2728   -1.1028   22.9409 N   0  0  0  0  0  0  0  0  0  0  0  0
    7.5360   -0.1255   22.3235 C   0  0  0  0  0  0  0  0  0  0  0  0
    7.2129    1.1898   22.9394 C   0  0  0  0  0  0  0  0  0  0  0  0
    7.6891    1.2868   23.9403 H   0  0  0  0  0  0  0  0  0  0  0  0
    6.1319    1.2488   23.1325 H   0  0  0  0  0  0  0  0  0  0  0  0
    7.5904    2.2536   22.0080 N   0  0  0  0  0  0  0  0  0  0  0  0
    7.1233    3.5884   22.3824 C   0  0  0  0  0  0  0  0  0  0  0  0
    6.1255    3.5538   22.8313 H   0  0  0  0  0  0  0  0  0  0  0  0
    7.0426    4.1904   21.4662 H   0  0  0  0  0  0  0  0  0  0  0  0
    8.1865    4.1762   23.3299 C   0  0  0  0  0  0  0  0  0  0  0  0
    7.9254    3.9715   24.3736 H   0  0  0  0  0  0  0  0  0  0  0  0
    8.2616    5.2581   23.2079 H   0  0  0  0  0  0  0  0  0  0  0  0
    9.4877    3.4380   22.9455 C   0  0  0  0  0  0  0  0  0  0  0  0
    9.9181    2.9239   23.8118 H   0  0  0  0  0  0  0  0  0  0  0  0
   10.2533    4.1100   22.5527 H   0  0  0  0  0  0  0  0  0  0  0  0
    9.0491    2.4271   21.8642 C   0  0  0  0  0  0  0  0  0  0  0  0
    9.5808    1.4730   21.9441 H   0  0  0  0  0  0  0  0  0  0  0  0
    9.2450    2.8177   20.8562 H   0  0  0  0  0  0  0  0  0  0  0  0
    9.0594   -1.1282   24.1651 C   0  0  0  0  0  0  0  0  0  0  0  0
    8.4141   -0.9765   25.0373 H   0  0  0  0  0  0  0  0  0  0  0  0
    9.8143   -0.3235   24.1478 H   0  0  0  0  0  0  0  0  0  0  0  0
    9.7273   -2.5262   24.2271 C   0  0  0  0  0  0  0  0  0  0  0  0
    9.3579   -3.1316   25.0619 H   0  0  0  0  0  0  0  0  0  0  0  0
   10.8039   -2.4262   24.3459 H   0  0  0  0  0  0  0  0  0  0  0  0
    9.4032   -3.3937   22.6419 S   0  0  0  0  0  0  0  0  0  0  0  0
    5.4110    0.7327   20.1247 C   0  0  0  0  0  0  0  0  0  0  0  0
    4.9255    0.7506   21.1055 H   0  0  0  0  0  0  0  0  0  0  0  0
    4.7954    1.3390   19.0326 C   0  0  0  0  0  0  0  0  0  0  0  0
    3.8451    1.8463   19.1334 H   0  0  0  0  0  0  0  0  0  0  0  0
  1  2  1  0
  2  3  2  0
  3  4  1  0
  4  5  1  0
  4  6  2  0
  6  7  1  0
  7  8  1  0
  8  9  2  0
  9 10  1  0
 10 11  1  0
 11 12  1  0
 12 13  1  0
 12 14  1  0
 12 15  1  0
 15 16  1  0
 16 17  1  0
 16 18  1  0
 16 19  1  0
 19 20  1  0
 19 21  1  0
 19 22  1  0
 22 23  1  0
 22 24  1  0
 22 25  1  0
 25 26  1  0
 25 27  1  0
 10 28  1  0
 28 29  1  0
 28 30  1  0
 28 31  1  0
 31 32  1  0
 31 33  1  0
 31 34  1  0
  6 35  1  0
 35 36  1  0
 35 37  2  0
 37 38  1  0
 37  2  1  0
 11  7  2  0
 25 15  1  0
 34  9  1  0
M  END
>  <cnnaffinity>  (1) 
-5.33036

>  <filename>  (1) 
c1cncc(-c2nc3n(c2CN2CCCC2)CCS3)c1

$$$$
