
     RDKit          3D

 36 39  0  0  0  0  0  0  0  0999 V2000
    4.9240    1.7825   16.9979 H   0  0  0  0  0  0  0  0  0  0  0  0
    5.4054    1.2934   17.8410 C   0  0  0  0  0  0  0  0  0  0  0  0
    6.5682    0.6799   17.5767 N   0  0  0  0  0  0  0  0  0  0  0  0
    7.1653    0.0468   18.5886 C   0  0  0  0  0  0  0  0  0  0  0  0
    8.1139   -0.4328   18.3688 H   0  0  0  0  0  0  0  0  0  0  0  0
    6.6483   -0.0142   19.8860 C   0  0  0  0  0  0  0  0  0  0  0  0
    7.4158   -0.7257   20.9189 C   0  0  0  0  0  0  0  0  0  0  0  0
    7.8254   -1.9623   20.7746 N   0  0  0  0  0  0  0  0  0  0  0  0
    8.4555   -2.2961   21.9535 O   0  0  0  0  0  0  0  0  0  0  0  0
    8.4306   -1.2370   22.7662 C   0  0  0  0  0  0  0  0  0  0  0  0
    8.9263   -1.3587   23.7180 H   0  0  0  0  0  0  0  0  0  0  0  0
    7.8073   -0.1845   22.1827 C   0  0  0  0  0  0  0  0  0  0  0  0
    7.5917    1.1874   22.7599 C   0  0  0  0  0  0  0  0  0  0  0  0
    8.4620    1.4531   23.3748 H   0  0  0  0  0  0  0  0  0  0  0  0
    7.5523    1.9194   21.9463 H   0  0  0  0  0  0  0  0  0  0  0  0
    6.3434    1.3219   23.6200 C   0  0  0  0  0  0  0  0  0  0  0  0
    6.1829    0.4840   24.7662 C   0  0  0  0  0  0  0  0  0  0  0  0
    6.9627   -0.2362   25.0128 H   0  0  0  0  0  0  0  0  0  0  0  0
    5.0654    0.5796   25.5575 C   0  0  0  0  0  0  0  0  0  0  0  0
    4.9527   -0.0543   26.4354 H   0  0  0  0  0  0  0  0  0  0  0  0
    4.0358    1.5203   25.2524 C   0  0  0  0  0  0  0  0  0  0  0  0
    2.8627    1.6517   26.0561 C   0  0  0  0  0  0  0  0  0  0  0  0
    2.7636    1.0053   26.9286 H   0  0  0  0  0  0  0  0  0  0  0  0
    1.8936    2.5746   25.7304 C   0  0  0  0  0  0  0  0  0  0  0  0
    1.0029    2.6721   26.3485 H   0  0  0  0  0  0  0  0  0  0  0  0
    2.0453    3.4139   24.5840 C   0  0  0  0  0  0  0  0  0  0  0  0
    1.2711    4.1409   24.3433 H   0  0  0  0  0  0  0  0  0  0  0  0
    3.1633    3.3118   23.7891 C   0  0  0  0  0  0  0  0  0  0  0  0
    3.3051    3.9464   22.9123 H   0  0  0  0  0  0  0  0  0  0  0  0
    4.1856    2.3679   24.1049 C   0  0  0  0  0  0  0  0  0  0  0  0
    5.3638    2.2402   23.3132 C   0  0  0  0  0  0  0  0  0  0  0  0
    5.4702    2.8726   22.4306 H   0  0  0  0  0  0  0  0  0  0  0  0
    5.4398    0.6462   20.1567 C   0  0  0  0  0  0  0  0  0  0  0  0
    5.0055    0.6264   21.1600 H   0  0  0  0  0  0  0  0  0  0  0  0
    4.8060    1.3100   19.1068 C   0  0  0  0  0  0  0  0  0  0  0  0
    3.8726    1.8428   19.2572 H   0  0  0  0  0  0  0  0  0  0  0  0
  1  2  1  0
  2  3  2  0
  3  4  1  0
  4  5  1  0
  4  6  2  0
  6  7  1  0
  7  8  2  0
  8  9  1  0
  9 10  1  0
 10 11  1  0
 10 12  2  0
 12 13  1  0
 13 14  1  0
 13 15  1  0
 13 16  1  0
 16 17  2  0
 17 18  1  0
 17 19  1  0
 19 20  1  0
 19 21  2  0
 21 22  1  0
 22 23  1  0
 22 24  2  0
 24 25  1  0
 24 26  1  0
 26 27  1  0
 26 28  2  0
 28 29  1  0
 28 30  1  0
 30 31  2  0
 31 32  1  0
  6 33  1  0
 33 34  1  0
 33 35  2  0
 35 36  1  0
 35  2  1  0
 12  7  1  0
 31 16  1  0
 30 21  1  0
M  END
>  <cnnaffinity>  (1) 
-4.85821

>  <filename>  (1) 
c1cncc(-c2nocc2Cc2ccc3ccccc3c2)c1

$$$$
