
     RDKit          3D

 41 44  0  0  0  0  0  0  0  0999 V2000
    4.9835    1.8462   17.0051 H   0  0  0  0  0  0  0  0  0  0  0  0
    5.5048    1.3244   17.8024 C   0  0  0  0  0  0  0  0  0  0  0  0
    6.6651    0.7380   17.4614 N   0  0  0  0  0  0  0  0  0  0  0  0
    7.3387    0.0751   18.4100 C   0  0  0  0  0  0  0  0  0  0  0  0
    8.2764   -0.3881   18.0956 H   0  0  0  0  0  0  0  0  0  0  0  0
    6.8775   -0.0597   19.7352 C   0  0  0  0  0  0  0  0  0  0  0  0
    7.5519   -0.8792   20.6813 N   0  0  0  0  0  0  0  0  0  0  0  0
    8.8959   -0.8164   21.0566 C   0  0  0  0  0  0  0  0  0  0  0  0
    9.5515   -0.0973   20.5899 H   0  0  0  0  0  0  0  0  0  0  0  0
    9.1190   -1.6824   22.0814 C   0  0  0  0  0  0  0  0  0  0  0  0
    9.9821   -1.9154   22.6789 H   0  0  0  0  0  0  0  0  0  0  0  0
    7.9029   -2.2922   22.3415 N   0  0  0  0  0  0  0  0  0  0  0  0
    7.4385   -3.1762   23.2650 N   0  0  0  0  0  0  0  0  0  0  0  0
    6.1390   -3.2430   22.9739 C   0  0  0  0  0  0  0  0  0  0  0  0
    5.1736   -4.1096   23.7175 C   0  0  0  0  0  0  0  0  0  0  0  0
    4.4278   -4.4601   22.9967 H   0  0  0  0  0  0  0  0  0  0  0  0
    5.6898   -4.9982   24.0887 H   0  0  0  0  0  0  0  0  0  0  0  0
    4.3772   -3.4798   24.8823 C   0  0  0  0  0  0  0  0  0  0  0  0
    5.0493   -3.1736   25.6943 H   0  0  0  0  0  0  0  0  0  0  0  0
    3.8614   -2.5652   24.5680 H   0  0  0  0  0  0  0  0  0  0  0  0
    3.3713   -4.3653   25.4572 N   0  0  0  0  0  0  0  0  0  0  0  0
    3.8952   -5.5999   26.0468 C   0  0  0  0  0  0  0  0  0  0  0  0
    4.2808   -6.3057   25.2870 H   0  0  0  0  0  0  0  0  0  0  0  0
    4.7223   -5.3474   26.7245 H   0  0  0  0  0  0  0  0  0  0  0  0
    2.8014   -6.3128   26.8480 C   0  0  0  0  0  0  0  0  0  0  0  0
    3.1626   -7.2846   27.1900 H   0  0  0  0  0  0  0  0  0  0  0  0
    2.5404   -5.7122   27.7316 H   0  0  0  0  0  0  0  0  0  0  0  0
    1.6437   -6.5733   26.0652 O   0  0  0  0  0  0  0  0  0  0  0  0
    1.1281   -5.3774   25.4961 C   0  0  0  0  0  0  0  0  0  0  0  0
    0.7475   -4.7133   26.2858 H   0  0  0  0  0  0  0  0  0  0  0  0
    0.2845   -5.6814   24.8732 H   0  0  0  0  0  0  0  0  0  0  0  0
    2.1712   -4.6276   24.6549 C   0  0  0  0  0  0  0  0  0  0  0  0
    2.3775   -5.2257   23.7465 H   0  0  0  0  0  0  0  0  0  0  0  0
    1.7286   -3.6734   24.3378 H   0  0  0  0  0  0  0  0  0  0  0  0
    5.7725   -2.4467   21.8761 C   0  0  0  0  0  0  0  0  0  0  0  0
    4.7710   -2.3570   21.5273 H   0  0  0  0  0  0  0  0  0  0  0  0
    6.9552   -1.8201   21.5061 C   0  0  0  0  0  0  0  0  0  0  0  0
    5.6844    0.5991   20.0888 C   0  0  0  0  0  0  0  0  0  0  0  0
    5.3412    0.5821   21.1235 H   0  0  0  0  0  0  0  0  0  0  0  0
    4.9822    1.2897   19.1000 C   0  0  0  0  0  0  0  0  0  0  0  0
    4.0537    1.8096   19.3213 H   0  0  0  0  0  0  0  0  0  0  0  0
  1  2  1  0
  2  3  2  0
  3  4  1  0
  4  5  1  0
  4  6  2  0
  6  7  1  0
  7  8  1  0
  8  9  1  0
  8 10  2  0
 10 11  1  0
 10 12  1  0
 12 13  1  0
 13 14  2  0
 14 15  1  0
 15 16  1  0
 15 17  1  0
 15 18  1  0
 18 19  1  0
 18 20  1  0
 18 21  1  0
 21 22  1  0
 22 23  1  0
 22 24  1  0
 22 25  1  0
 25 26  1  0
 25 27  1  0
 25 28  1  0
 28 29  1  0
 29 30  1  0
 29 31  1  0
 29 32  1  0
 32 33  1  0
 32 34  1  0
 14 35  1  0
 35 36  1  0
 35 37  2  0
  6 38  1  0
 38 39  1  0
 38 40  2  0
 40 41  1  0
 40  2  1  0
 37  7  1  0
 37 12  1  0
 32 21  1  0
M  END
>  <cnnaffinity>  (1) 
-5.01659

>  <filename>  (1) 
c1cncc(-n2ccn3nc(CCN4CCOCC4)cc23)c1

$$$$
