
     RDKit          3D

 31 33  0  0  0  0  0  0  0  0999 V2000
    8.5198   -3.7550   21.4353 H   0  0  0  0  0  0  0  0  0  0  0  0
    8.2736   -2.7180   21.6549 C   0  0  0  0  0  0  0  0  0  0  0  0
    8.5804   -2.2670   22.8673 N   0  0  0  0  0  0  0  0  0  0  0  0
    8.2886   -0.9840   23.1157 C   0  0  0  0  0  0  0  0  0  0  0  0
    8.5519   -0.6239   24.1115 H   0  0  0  0  0  0  0  0  0  0  0  0
    7.6832   -0.1053   22.1925 C   0  0  0  0  0  0  0  0  0  0  0  0
    7.4177    1.2427   22.4677 N   0  0  0  0  0  0  0  0  0  0  0  0
    7.2800    1.8793   21.6923 H   0  0  0  0  0  0  0  0  0  0  0  0
    7.3725    1.8077   23.7968 C   0  0  0  0  0  0  0  0  0  0  0  0
    6.7210    1.1955   24.4342 H   0  0  0  0  0  0  0  0  0  0  0  0
    8.3703    1.7674   24.2605 H   0  0  0  0  0  0  0  0  0  0  0  0
    6.9051    3.2391   23.7751 C   0  0  0  0  0  0  0  0  0  0  0  0
    5.9074    3.3949   23.3713 H   0  0  0  0  0  0  0  0  0  0  0  0
    7.3081    4.1351   24.9125 C   0  0  0  0  0  0  0  0  0  0  0  0
    6.6110    4.8824   25.2777 H   0  0  0  0  0  0  0  0  0  0  0  0
    7.9402    3.7129   25.6894 H   0  0  0  0  0  0  0  0  0  0  0  0
    7.9073    4.3348   23.5522 C   0  0  0  0  0  0  0  0  0  0  0  0
    7.6129    5.2126   22.9856 H   0  0  0  0  0  0  0  0  0  0  0  0
    8.9414    4.0380   23.4051 H   0  0  0  0  0  0  0  0  0  0  0  0
    7.3744   -0.7507   20.9468 C   0  0  0  0  0  0  0  0  0  0  0  0
    6.6443   -0.0157   19.8956 C   0  0  0  0  0  0  0  0  0  0  0  0
    7.1705    0.0364   18.5999 C   0  0  0  0  0  0  0  0  0  0  0  0
    8.1216   -0.4401   18.3689 H   0  0  0  0  0  0  0  0  0  0  0  0
    6.5741    0.6775   17.5907 N   0  0  0  0  0  0  0  0  0  0  0  0
    5.4066    1.2898   17.8449 C   0  0  0  0  0  0  0  0  0  0  0  0
    4.9237    1.7779   17.0010 H   0  0  0  0  0  0  0  0  0  0  0  0
    4.8040    1.3061   19.1063 C   0  0  0  0  0  0  0  0  0  0  0  0
    3.8756    1.8421   19.2581 H   0  0  0  0  0  0  0  0  0  0  0  0
    5.4372    0.6474   20.1575 C   0  0  0  0  0  0  0  0  0  0  0  0
    5.0069    0.6386   21.1629 H   0  0  0  0  0  0  0  0  0  0  0  0
    7.7023   -2.0156   20.6789 N   0  0  0  0  0  0  0  0  0  0  0  0
  1  2  1  0
  2  3  2  0
  3  4  1  0
  4  5  1  0
  4  6  2  0
  6  7  1  0
  7  8  1  0
  7  9  1  0
  9 10  1  0
  9 11  1  0
  9 12  1  0
 12 13  1  0
 12 14  1  0
 14 15  1  0
 14 16  1  0
 14 17  1  0
 17 18  1  0
 17 19  1  0
  6 20  1  0
 20 21  1  0
 21 22  2  0
 22 23  1  0
 22 24  1  0
 24 25  2  0
 25 26  1  0
 25 27  1  0
 27 28  1  0
 27 29  2  0
 29 30  1  0
 20 31  2  0
 31  2  1  0
 17 12  1  0
 29 21  1  0
M  END
>  <cnnaffinity>  (1) 
-4.7267

>  <filename>  (1) 
c1cncc(-c2ncncc2NCC2CC2)c1

$$$$
