
     RDKit          3D

 33 35  0  0  0  0  0  0  0  0999 V2000
    5.0054    1.7771   16.6880 H   0  0  0  0  0  0  0  0  0  0  0  0
    5.4040    1.3937   17.6247 C   0  0  0  0  0  0  0  0  0  0  0  0
    6.6048    0.7983   17.5551 N   0  0  0  0  0  0  0  0  0  0  0  0
    7.1300    0.3304   18.6946 C   0  0  0  0  0  0  0  0  0  0  0  0
    8.1149   -0.1288   18.6271 H   0  0  0  0  0  0  0  0  0  0  0  0
    6.4865    0.4124   19.9408 C   0  0  0  0  0  0  0  0  0  0  0  0
    7.1280   -0.1137   21.1144 N   0  0  0  0  0  0  0  0  0  0  0  0
    7.9424    0.6335   21.9497 C   0  0  0  0  0  0  0  0  0  0  0  0
    8.1049    1.6792   21.7421 H   0  0  0  0  0  0  0  0  0  0  0  0
    8.4340   -0.1718   22.9421 C   0  0  0  0  0  0  0  0  0  0  0  0
    9.0876    0.1297   23.7518 H   0  0  0  0  0  0  0  0  0  0  0  0
    7.9261   -1.4826   22.7020 C   0  0  0  0  0  0  0  0  0  0  0  0
    8.0551   -2.3677   23.3124 H   0  0  0  0  0  0  0  0  0  0  0  0
    7.1340   -1.4233   21.5734 C   0  0  0  0  0  0  0  0  0  0  0  0
    6.4431   -2.4719   20.9908 N   0  0  0  0  0  0  0  0  0  0  0  0
    6.3938   -2.3463   19.9789 H   0  0  0  0  0  0  0  0  0  0  0  0
    7.7324   -4.5502   21.1188 C   0  0  0  0  0  0  0  0  0  0  0  0
    6.8593   -3.6078   21.2981 H   0  0  0  0  0  0  0  0  0  0  0  0
    8.5743   -3.6735   21.1213 H   0  0  0  0  0  0  0  0  0  0  0  0
    7.6912   -4.5428   20.9868 C   0  0  0  0  0  0  0  0  0  0  0  0
    5.5240   -5.8707   20.4984 C   0  0  0  0  0  0  0  0  0  0  0  0
    5.8163   -5.8553   19.4787 H   0  0  0  0  0  0  0  0  0  0  0  0
    5.1348   -6.0328   21.7049 C   0  0  0  0  0  0  0  0  0  0  0  0
    4.0847   -5.9398   22.0462 H   0  0  0  0  0  0  0  0  0  0  0  0
    5.9840   -6.3834   22.8541 N   0  0  0  0  0  0  0  0  0  0  0  0
    7.2146   -6.5404   22.6623 C   0  0  0  0  0  0  0  0  0  0  0  0
    7.8539   -7.1609   23.2951 H   0  0  0  0  0  0  0  0  0  0  0  0
    8.0396   -5.8484   21.5863 C   0  0  0  0  0  0  0  0  0  0  0  0
    9.0779   -6.1662   21.7174 H   0  0  0  0  0  0  0  0  0  0  0  0
    5.2359    1.0445   20.0065 C   0  0  0  0  0  0  0  0  0  0  0  0
    4.7183    1.1521   20.9601 H   0  0  0  0  0  0  0  0  0  0  0  0
    4.6867    1.5354   18.8179 C   0  0  0  0  0  0  0  0  0  0  0  0
    3.7276    2.0425   18.8076 H   0  0  0  0  0  0  0  0  0  0  0  0
  1  2  1  0
  2  3  2  0
  3  4  1  0
  4  5  1  0
  4  6  2  0
  6  7  1  0
  7  8  1  0
  8  9  1  0
  8 10  2  0
 10 11  1  0
 10 12  1  0
 12 13  1  0
 12 14  2  0
 14 15  1  0
 15 16  1  0
 15 17  1  0
 17 18  1  0
 17 19  1  0
 17 20  1  0
 20 21  2  0
 21 22  1  0
 21 23  1  0
 23 24  1  0
 23 25  2  0
 25 26  1  0
 26 27  1  0
 26 28  2  0
 28 29  1  0
  6 30  1  0
 30 31  1  0
 30 32  2  0
 32 33  1  0
 32  2  1  0
 14  7  1  0
 28 20  1  0
M  END
>  <cnnaffinity>  (1) 
-5.14356

>  <filename>  (1) 
c1cncc(-n2cccc2NCc2ccncc2)c1

$$$$
