
     RDKit          3D

 42 45  0  0  0  0  0  0  0  0999 V2000
    4.9700    1.8204   16.9695 H   0  0  0  0  0  0  0  0  0  0  0  0
    5.4170    1.2856   17.8046 C   0  0  0  0  0  0  0  0  0  0  0  0
    6.5615    0.6291   17.5604 N   0  0  0  0  0  0  0  0  0  0  0  0
    7.1522    0.0029   18.5847 C   0  0  0  0  0  0  0  0  0  0  0  0
    8.0754   -0.5275   18.3523 H   0  0  0  0  0  0  0  0  0  0  0  0
    6.6589    0.0312   19.8998 C   0  0  0  0  0  0  0  0  0  0  0  0
    7.4252   -0.6196   20.9651 C   0  0  0  0  0  0  0  0  0  0  0  0
    7.9682   -1.8751   20.7885 N   0  0  0  0  0  0  0  0  0  0  0  0
    8.4537   -2.1747   21.9651 C   0  0  0  0  0  0  0  0  0  0  0  0
    9.2132   -3.5605   22.7180 S   0  0  0  0  0  0  0  0  0  0  0  0
    9.4651   -2.6348   24.1905 C   0  0  0  0  0  0  0  0  0  0  0  0
   10.0846   -3.0297   24.9862 H   0  0  0  0  0  0  0  0  0  0  0  0
    8.9017   -1.4184   24.1224 C   0  0  0  0  0  0  0  0  0  0  0  0
    8.8389   -0.6517   24.8851 H   0  0  0  0  0  0  0  0  0  0  0  0
    8.3272   -1.1662   22.8831 N   0  0  0  0  0  0  0  0  0  0  0  0
    7.6691   -0.1334   22.2415 C   0  0  0  0  0  0  0  0  0  0  0  0
    7.2859    1.1163   22.9598 C   0  0  0  0  0  0  0  0  0  0  0  0
    8.1688    1.5294   23.4637 H   0  0  0  0  0  0  0  0  0  0  0  0
    6.9651    1.8713   22.2341 H   0  0  0  0  0  0  0  0  0  0  0  0
    6.1565    0.8678   23.9724 C   0  0  0  0  0  0  0  0  0  0  0  0
    5.3554    0.3926   23.3993 H   0  0  0  0  0  0  0  0  0  0  0  0
    6.4641    0.1112   24.7207 H   0  0  0  0  0  0  0  0  0  0  0  0
    5.6387    2.0928   24.5686 N   0  0  0  0  0  0  0  0  0  0  0  0
    4.2502    1.9540   25.0105 C   0  0  0  0  0  0  0  0  0  0  0  0
    4.1440    1.2630   25.8741 H   0  0  0  0  0  0  0  0  0  0  0  0
    3.6757    1.5099   24.1960 H   0  0  0  0  0  0  0  0  0  0  0  0
    3.6550    3.3137   25.3656 C   0  0  0  0  0  0  0  0  0  0  0  0
    2.6151    3.1873   25.6880 H   0  0  0  0  0  0  0  0  0  0  0  0
    3.6375    3.9343   24.4592 H   0  0  0  0  0  0  0  0  0  0  0  0
    4.4940    3.9957   26.4525 C   0  0  0  0  0  0  0  0  0  0  0  0
    4.1150    5.0008   26.6575 H   0  0  0  0  0  0  0  0  0  0  0  0
    4.4081    3.4306   27.3924 H   0  0  0  0  0  0  0  0  0  0  0  0
    5.9622    4.0528   26.0151 C   0  0  0  0  0  0  0  0  0  0  0  0
    6.0544    4.7112   25.1438 H   0  0  0  0  0  0  0  0  0  0  0  0
    6.5960    4.4844   26.7962 H   0  0  0  0  0  0  0  0  0  0  0  0
    6.4841    2.6693   25.6236 C   0  0  0  0  0  0  0  0  0  0  0  0
    7.5098    2.7642   25.2524 H   0  0  0  0  0  0  0  0  0  0  0  0
    6.5464    2.0250   26.5274 H   0  0  0  0  0  0  0  0  0  0  0  0
    5.4319    0.6813   20.1231 C   0  0  0  0  0  0  0  0  0  0  0  0
    4.9697    0.6863   21.1106 H   0  0  0  0  0  0  0  0  0  0  0  0
    4.7998    1.3139   19.0567 C   0  0  0  0  0  0  0  0  0  0  0  0
    3.8650    1.8436   19.1918 H   0  0  0  0  0  0  0  0  0  0  0  0
  1  2  1  0
  2  3  2  0
  3  4  1  0
  4  5  1  0
  4  6  2  0
  6  7  1  0
  7  8  1  0
  8  9  2  0
  9 10  1  0
 10 11  1  0
 11 12  1  0
 11 13  2  0
 13 14  1  0
 13 15  1  0
 15 16  1  0
 16 17  1  0
 17 18  1  0
 17 19  1  0
 17 20  1  0
 20 21  1  0
 20 22  1  0
 20 23  1  0
 23 24  1  0
 24 25  1  0
 24 26  1  0
 24 27  1  0
 27 28  1  0
 27 29  1  0
 27 30  1  0
 30 31  1  0
 30 32  1  0
 30 33  1  0
 33 34  1  0
 33 35  1  0
 33 36  1  0
 36 37  1  0
 36 38  1  0
  6 39  1  0
 39 40  1  0
 39 41  2  0
 41 42  1  0
 41  2  1  0
 16  7  2  0
 36 23  1  0
 15  9  1  0
M  END
>  <cnnaffinity>  (1) 
-5.34257

>  <filename>  (1) 
c1cncc(-c2nc3sccn3c2CCN2CCCCC2)c1

$$$$
