
     RDKit          3D

 44 48  0  0  0  0  0  0  0  0999 V2000
    4.9979    1.7588   16.9496 H   0  0  0  0  0  0  0  0  0  0  0  0
    5.4555    1.3077   17.8252 C   0  0  0  0  0  0  0  0  0  0  0  0
    6.6149    0.6752   17.6156 N   0  0  0  0  0  0  0  0  0  0  0  0
    7.1949    0.1053   18.6792 C   0  0  0  0  0  0  0  0  0  0  0  0
    8.1135   -0.4296   18.4462 H   0  0  0  0  0  0  0  0  0  0  0  0
    6.6914    0.1415   19.9978 C   0  0  0  0  0  0  0  0  0  0  0  0
    7.4916   -0.4395   21.1886 C   0  0  2  0  0  0  0  0  0  0  0  0
    8.3012    0.7223   21.8442 C   0  0  0  0  0  0  0  0  0  0  0  0
    7.9575    1.3780   23.0708 C   0  0  0  0  0  0  0  0  0  0  0  0
    7.0685    1.0598   23.6119 H   0  0  0  0  0  0  0  0  0  0  0  0
    8.7304    2.4012   23.5803 C   0  0  0  0  0  0  0  0  0  0  0  0
    8.4551    2.8808   24.5177 H   0  0  0  0  0  0  0  0  0  0  0  0
    9.9037    2.8561   22.8992 C   0  0  0  0  0  0  0  0  0  0  0  0
   10.7351    3.9157   23.3854 C   0  0  0  0  0  0  0  0  0  0  0  0
   10.4607    4.3964   24.3209 H   0  0  0  0  0  0  0  0  0  0  0  0
   11.8492    4.3158   22.6766 C   0  0  0  0  0  0  0  0  0  0  0  0
   12.4606    5.1386   23.0311 H   0  0  0  0  0  0  0  0  0  0  0  0
   12.2081    3.6631   21.4609 C   0  0  0  0  0  0  0  0  0  0  0  0
   13.0805    3.9927   20.9003 H   0  0  0  0  0  0  0  0  0  0  0  0
   11.4322    2.6348   20.9824 C   0  0  0  0  0  0  0  0  0  0  0  0
   11.6858    2.1328   20.0596 H   0  0  0  0  0  0  0  0  0  0  0  0
   10.2533    2.2202   21.6694 C   0  0  0  0  0  0  0  0  0  0  0  0
    9.4213    1.1783   21.1716 C   0  0  0  0  0  0  0  0  0  0  0  0
    9.6965    0.7285   20.2213 H   0  0  0  0  0  0  0  0  0  0  0  0
    8.4782   -1.6104   20.7717 C   0  0  0  0  0  0  0  0  0  0  0  0
    9.4994   -1.3645   21.0656 H   0  0  0  0  0  0  0  0  0  0  0  0
    8.4854   -1.7423   19.6970 H   0  0  0  0  0  0  0  0  0  0  0  0
    8.0718   -2.8597   21.5807 C   0  0  2  0  0  0  0  0  0  0  0  0
    8.8726   -3.5961   21.6871 H   0  0  0  0  0  0  0  0  0  0  0  0
    6.7375   -3.4603   21.1062 C   0  0  0  0  0  0  0  0  0  0  0  0
    6.6972   -3.7884   20.0629 H   0  0  0  0  0  0  0  0  0  0  0  0
    6.4937   -4.3357   21.7249 H   0  0  0  0  0  0  0  0  0  0  0  0
    5.7456   -2.3058   21.4031 C   0  0  0  0  0  0  0  0  0  0  0  0
    4.9023   -2.6688   21.9944 H   0  0  0  0  0  0  0  0  0  0  0  0
    5.3704   -1.8794   20.4668 H   0  0  0  0  0  0  0  0  0  0  0  0
    6.6099   -1.2677   22.1881 C   0  0  1  0  0  0  0  0  0  0  0  0
    6.0624   -0.6171   22.8688 H   0  0  0  0  0  0  0  0  0  0  0  0
    7.6189   -2.1924   22.8878 C   0  0  0  0  0  0  0  0  0  0  0  0
    7.1455   -2.8985   23.5826 H   0  0  0  0  0  0  0  0  0  0  0  0
    8.4071   -1.6484   23.4247 H   0  0  0  0  0  0  0  0  0  0  0  0
    5.4613    0.7994   20.1806 C   0  0  0  0  0  0  0  0  0  0  0  0
    4.9774    0.8271   21.1604 H   0  0  0  0  0  0  0  0  0  0  0  0
    4.8347    1.3860   19.0756 C   0  0  0  0  0  0  0  0  0  0  0  0
    3.8834    1.8974   19.1643 H   0  0  0  0  0  0  0  0  0  0  0  0
  1  2  1  0
  2  3  2  0
  3  4  1  0
  4  5  1  0
  4  6  2  0
  7  6  1  6
  7  8  1  0
  8  9  2  0
  9 10  1  0
  9 11  1  0
 11 12  1  0
 11 13  2  0
 13 14  1  0
 14 15  1  0
 14 16  2  0
 16 17  1  0
 16 18  1  0
 18 19  1  0
 18 20  2  0
 20 21  1  0
 20 22  1  0
 22 23  2  0
 23 24  1  0
  7 25  1  0
 25 26  1  0
 25 27  1  0
 25 28  1  0
 28 29  1  1
 28 30  1  0
 30 31  1  0
 30 32  1  0
 30 33  1  0
 33 34  1  0
 33 35  1  0
 33 36  1  0
 36 37  1  1
 36 38  1  0
 38 39  1  0
 38 40  1  0
  6 41  1  0
 41 42  1  0
 41 43  2  0
 43 44  1  0
 43  2  1  0
 36  7  1  0
 23  8  1  0
 38 28  1  0
 22 13  1  0
M  END
>  <cnnaffinity>  (1) 
-5.62532

>  <filename>  (1) 
c1cncc([C@]2(c3ccc4ccccc4c3)C[C@@H]3CC[C@H]2C3)c1

$$$$
