
     RDKit          3D

 32 35  0  0  0  0  0  0  0  0999 V2000
    4.9531    1.8144   16.9908 H   0  0  0  0  0  0  0  0  0  0  0  0
    5.4089    1.2957   17.8280 C   0  0  0  0  0  0  0  0  0  0  0  0
    6.5783    0.6824   17.5827 N   0  0  0  0  0  0  0  0  0  0  0  0
    7.1903    0.0702   18.6044 C   0  0  0  0  0  0  0  0  0  0  0  0
    8.1451   -0.4011   18.3640 H   0  0  0  0  0  0  0  0  0  0  0  0
    6.6628    0.0254   19.9136 C   0  0  0  0  0  0  0  0  0  0  0  0
    7.3265   -0.6955   20.9652 N   0  0  0  0  0  0  0  0  0  0  0  0
    7.6176   -2.0323   20.9353 C   0  0  0  0  0  0  0  0  0  0  0  0
    7.2757   -2.6421   20.1210 H   0  0  0  0  0  0  0  0  0  0  0  0
    8.1852   -2.4750   22.0234 N   0  0  0  0  0  0  0  0  0  0  0  0
    8.2219   -1.3903   22.8497 C   0  0  0  0  0  0  0  0  0  0  0  0
    8.6032   -1.4819   23.8568 H   0  0  0  0  0  0  0  0  0  0  0  0
    7.6923   -0.2737   22.2524 C   0  0  0  0  0  0  0  0  0  0  0  0
    7.4308    1.0196   22.8410 C   0  0  0  0  0  0  0  0  0  0  0  0
    7.1586    1.3149   24.1564 C   0  0  0  0  0  0  0  0  0  0  0  0
    7.0318    0.5877   24.9456 H   0  0  0  0  0  0  0  0  0  0  0  0
    7.0116    2.7304   24.2666 C   0  0  0  0  0  0  0  0  0  0  0  0
    6.7696    3.6143   25.3465 C   0  0  0  0  0  0  0  0  0  0  0  0
    6.6430    3.2205   26.3472 H   0  0  0  0  0  0  0  0  0  0  0  0
    6.7114    4.9819   25.1071 C   0  0  0  0  0  0  0  0  0  0  0  0
    6.5343    5.6770   25.9274 H   0  0  0  0  0  0  0  0  0  0  0  0
    6.8819    5.4903   23.7962 C   0  0  0  0  0  0  0  0  0  0  0  0
    6.8279    6.5657   23.6297 H   0  0  0  0  0  0  0  0  0  0  0  0
    7.1174    4.6460   22.7155 C   0  0  0  0  0  0  0  0  0  0  0  0
    7.2401    5.0512   21.7143 H   0  0  0  0  0  0  0  0  0  0  0  0
    7.1907    3.2623   22.9635 C   0  0  0  0  0  0  0  0  0  0  0  0
    7.4522    2.2000   22.1286 N   0  0  0  0  0  0  0  0  0  0  0  0
    7.4980    2.2250   21.1251 H   0  0  0  0  0  0  0  0  0  0  0  0
    5.4265    0.6448   20.1436 C   0  0  0  0  0  0  0  0  0  0  0  0
    4.9857    0.6290   21.1427 H   0  0  0  0  0  0  0  0  0  0  0  0
    4.7923    1.2977   19.0825 C   0  0  0  0  0  0  0  0  0  0  0  0
    3.8540    1.8243   19.2262 H   0  0  0  0  0  0  0  0  0  0  0  0
  1  2  1  0
  2  3  2  0
  3  4  1  0
  4  5  1  0
  4  6  2  0
  6  7  1  0
  7  8  1  0
  8  9  1  0
  8 10  2  0
 10 11  1  0
 11 12  1  0
 11 13  2  0
 13 14  1  0
 14 15  2  0
 15 16  1  0
 15 17  1  0
 17 18  2  0
 18 19  1  0
 18 20  1  0
 20 21  1  0
 20 22  2  0
 22 23  1  0
 22 24  1  0
 24 25  1  0
 24 26  2  0
 26 27  1  0
 27 28  1  0
  6 29  1  0
 29 30  1  0
 29 31  2  0
 31 32  1  0
 31  2  1  0
 13  7  1  0
 27 14  1  0
 26 17  1  0
M  END
>  <cnnaffinity>  (1) 
-5.32091

>  <filename>  (1) 
c1cncc(-n2cncc2-c2cc3ccccc3[nH]2)c1

$$$$
