
     RDKit          3D

 28 30  0  0  0  0  0  0  0  0999 V2000
    4.9073    1.8209   16.9723 H   0  0  0  0  0  0  0  0  0  0  0  0
    5.3804    1.3199   17.8126 C   0  0  0  0  0  0  0  0  0  0  0  0
    6.5438    0.7028   17.5529 N   0  0  0  0  0  0  0  0  0  0  0  0
    7.1594    0.0986   18.5793 C   0  0  0  0  0  0  0  0  0  0  0  0
    8.1046   -0.3844   18.3293 H   0  0  0  0  0  0  0  0  0  0  0  0
    6.6675    0.0651   19.9090 C   0  0  0  0  0  0  0  0  0  0  0  0
    7.3732   -0.6858   20.9831 C   0  0  0  0  0  0  0  0  0  0  0  0
    7.7136   -2.0157   21.0621 C   0  0  0  0  0  0  0  0  0  0  0  0
    7.4444   -2.8020   20.3766 H   0  0  0  0  0  0  0  0  0  0  0  0
    8.4056   -2.2982   22.2082 N   0  0  0  0  0  0  0  0  0  0  0  0
    8.4742   -1.1550   22.8407 C   0  0  0  0  0  0  0  0  0  0  0  0
    8.9340   -1.0027   23.8077 H   0  0  0  0  0  0  0  0  0  0  0  0
    7.8673   -0.1312   22.1606 N   0  0  0  0  0  0  0  0  0  0  0  0
    7.5193    1.1713   22.7271 C   0  0  0  0  0  0  0  0  0  0  0  0
    7.3508    1.8726   21.9115 H   0  0  0  0  0  0  0  0  0  0  0  0
    8.3668    1.5537   23.3101 H   0  0  0  0  0  0  0  0  0  0  0  0
    6.2741    1.1838   23.5826 C   0  0  0  0  0  0  0  0  0  0  0  0
    5.3670    2.1414   23.4309 N   0  0  0  0  0  0  0  0  0  0  0  0
    4.4407    1.8916   24.3671 N   0  0  0  0  0  0  0  0  0  0  0  0
    3.6833    2.5499   24.4781 H   0  0  0  0  0  0  0  0  0  0  0  0
    4.7303    0.8129   25.1250 C   0  0  0  0  0  0  0  0  0  0  0  0
    4.0799    0.4948   25.9290 H   0  0  0  0  0  0  0  0  0  0  0  0
    5.9181    0.3196   24.6396 C   0  0  0  0  0  0  0  0  0  0  0  0
    6.4711   -0.5483   24.9634 H   0  0  0  0  0  0  0  0  0  0  0  0
    5.4364    0.7112   20.1349 C   0  0  0  0  0  0  0  0  0  0  0  0
    5.0069    0.7079   21.1361 H   0  0  0  0  0  0  0  0  0  0  0  0
    4.7817    1.3431   19.0738 C   0  0  0  0  0  0  0  0  0  0  0  0
    3.8353    1.8560   19.2123 H   0  0  0  0  0  0  0  0  0  0  0  0
  1  2  1  0
  2  3  2  0
  3  4  1  0
  4  5  1  0
  4  6  2  0
  6  7  1  0
  7  8  2  0
  8  9  1  0
  8 10  1  0
 10 11  2  0
 11 12  1  0
 11 13  1  0
 13 14  1  0
 14 15  1  0
 14 16  1  0
 14 17  1  0
 17 18  2  0
 18 19  1  0
 19 20  1  0
 19 21  1  0
 21 22  1  0
 21 23  2  0
 23 24  1  0
  6 25  1  0
 25 26  1  0
 25 27  2  0
 27 28  1  0
 27  2  1  0
 13  7  1  0
 23 17  1  0
M  END
>  <cnnaffinity>  (1) 
-4.60013

>  <filename>  (1) 
c1cncc(-c2cncn2Cc2cc[nH]n2)c1

$$$$
