
     RDKit          3D

 34 37  0  0  0  0  0  0  0  0999 V2000
    4.9117    1.8044   16.9744 H   0  0  0  0  0  0  0  0  0  0  0  0
    5.3857    1.3066   17.8173 C   0  0  0  0  0  0  0  0  0  0  0  0
    6.5494    0.6908   17.5517 N   0  0  0  0  0  0  0  0  0  0  0  0
    7.1573    0.0663   18.5665 C   0  0  0  0  0  0  0  0  0  0  0  0
    8.1146   -0.3969   18.3296 H   0  0  0  0  0  0  0  0  0  0  0  0
    6.6536    0.0117   19.8832 C   0  0  0  0  0  0  0  0  0  0  0  0
    7.3764   -0.6678   20.9708 C   0  0  0  0  0  0  0  0  0  0  0  0
    7.5163   -0.3415   22.3132 C   0  0  0  0  0  0  0  0  0  0  0  0
    6.9960    0.8112   22.9001 N   0  0  0  0  0  0  0  0  0  0  0  0
    6.9866    1.6284   22.3092 H   0  0  0  0  0  0  0  0  0  0  0  0
    6.7794    1.0481   24.2370 C   0  0  0  0  0  0  0  0  0  0  0  0
    6.7424    2.2379   24.8980 C   0  0  0  0  0  0  0  0  0  0  0  0
    6.9517    3.2117   24.4745 H   0  0  0  0  0  0  0  0  0  0  0  0
    6.3971    1.9382   26.2549 C   0  0  0  0  0  0  0  0  0  0  0  0
    6.1947    2.7205   27.4069 C   0  0  0  0  0  0  0  0  0  0  0  0
    6.3221    3.7964   27.3472 H   0  0  0  0  0  0  0  0  0  0  0  0
    5.8297    2.0915   28.5926 C   0  0  0  0  0  0  0  0  0  0  0  0
    5.6671    2.6896   29.4852 H   0  0  0  0  0  0  0  0  0  0  0  0
    5.6640    0.6857   28.6496 C   0  0  0  0  0  0  0  0  0  0  0  0
    5.3772    0.2252   29.5944 H   0  0  0  0  0  0  0  0  0  0  0  0
    5.8603   -0.1172   27.5284 C   0  0  0  0  0  0  0  0  0  0  0  0
    5.7304   -1.1954   27.5788 H   0  0  0  0  0  0  0  0  0  0  0  0
    6.2317    0.5250   26.3403 C   0  0  0  0  0  0  0  0  0  0  0  0
    6.4960    0.0136   25.0855 N   0  0  0  0  0  0  0  0  0  0  0  0
    6.3809   -0.9294   24.7611 H   0  0  0  0  0  0  0  0  0  0  0  0
    8.2970   -1.3888   22.8657 C   0  0  0  0  0  0  0  0  0  0  0  0
    8.6537   -1.4734   23.8847 H   0  0  0  0  0  0  0  0  0  0  0  0
    8.6150   -2.2976   21.9502 N   0  0  0  0  0  0  0  0  0  0  0  0
    8.0561   -1.8345   20.8217 N   0  0  0  0  0  0  0  0  0  0  0  0
    8.1376   -2.3718   19.9685 H   0  0  0  0  0  0  0  0  0  0  0  0
    5.4328    0.6607   20.1359 C   0  0  0  0  0  0  0  0  0  0  0  0
    5.0144    0.6286   21.1433 H   0  0  0  0  0  0  0  0  0  0  0  0
    4.7926    1.3188   19.0847 C   0  0  0  0  0  0  0  0  0  0  0  0
    3.8628    1.8496   19.2401 H   0  0  0  0  0  0  0  0  0  0  0  0
  1  2  1  0
  2  3  2  0
  3  4  1  0
  4  5  1  0
  4  6  2  0
  6  7  1  0
  7  8  2  0
  8  9  1  0
  9 10  1  0
  9 11  1  0
 11 12  2  0
 12 13  1  0
 12 14  1  0
 14 15  2  0
 15 16  1  0
 15 17  1  0
 17 18  1  0
 17 19  2  0
 19 20  1  0
 19 21  1  0
 21 22  1  0
 21 23  2  0
 23 24  1  0
 24 25  1  0
  8 26  1  0
 26 27  1  0
 26 28  2  0
 28 29  1  0
 29 30  1  0
  6 31  1  0
 31 32  1  0
 31 33  2  0
 33 34  1  0
 33  2  1  0
 29  7  1  0
 24 11  1  0
 23 14  1  0
M  END
>  <cnnaffinity>  (1) 
-5.44797

>  <filename>  (1) 
c1cncc(-c2[nH]ncc2Nc2cc3ccccc3[nH]2)c1

$$$$
