
     RDKit          3D

 35 38  0  0  0  0  0  0  0  0999 V2000
    5.0807    1.8328   16.8724 H   0  0  0  0  0  0  0  0  0  0  0  0
    5.4777    1.3176   17.7443 C   0  0  0  0  0  0  0  0  0  0  0  0
    6.6248    0.6439   17.5630 N   0  0  0  0  0  0  0  0  0  0  0  0
    7.1277   -0.0291   18.6044 C   0  0  0  0  0  0  0  0  0  0  0  0
    8.0583   -0.5645   18.4179 H   0  0  0  0  0  0  0  0  0  0  0  0
    6.5267   -0.0495   19.8755 C   0  0  0  0  0  0  0  0  0  0  0  0
    7.1374   -0.7668   20.9988 C   0  0  0  0  0  0  0  0  0  0  0  0
    7.7235   -1.9564   20.8510 N   0  0  0  0  0  0  0  0  0  0  0  0
    8.0813   -2.2741   22.0938 N   0  0  0  0  0  0  0  0  0  0  0  0
    7.7686   -1.3655   23.0242 C   0  0  0  0  0  0  0  0  0  0  0  0
    7.1677   -0.3149   22.3498 C   0  0  0  0  0  0  0  0  0  0  0  0
    6.8765    1.0786   22.8778 C   0  0  0  0  0  0  0  0  0  0  0  0
    6.8108    1.7825   22.0381 H   0  0  0  0  0  0  0  0  0  0  0  0
    5.9190    1.1091   23.4235 H   0  0  0  0  0  0  0  0  0  0  0  0
    7.9333    1.5514   23.8317 C   0  0  0  0  0  0  0  0  0  0  0  0
    9.5255    1.9514   23.2948 S   0  0  0  0  0  0  0  0  0  0  0  0
   10.0880    2.1335   24.9115 C   0  0  0  0  0  0  0  0  0  0  0  0
   11.1376    2.3441   25.0725 H   0  0  0  0  0  0  0  0  0  0  0  0
    9.0899    1.9199   25.8173 C   0  0  0  0  0  0  0  0  0  0  0  0
    9.1985    1.9583   26.8917 H   0  0  0  0  0  0  0  0  0  0  0  0
    7.8544    1.5859   25.1908 C   0  0  0  0  0  0  0  0  0  0  0  0
    6.9395    1.3393   25.7248 H   0  0  0  0  0  0  0  0  0  0  0  0
    8.4140   -1.7605   24.3288 C   0  0  0  0  0  0  0  0  0  0  0  0
    9.2499   -1.0840   24.5259 H   0  0  0  0  0  0  0  0  0  0  0  0
    7.7380   -1.7151   25.1836 H   0  0  0  0  0  0  0  0  0  0  0  0
    8.8993   -3.2102   24.0602 C   0  0  0  0  0  0  0  0  0  0  0  0
    9.8762   -3.4211   24.5043 H   0  0  0  0  0  0  0  0  0  0  0  0
    8.1900   -3.9297   24.4757 H   0  0  0  0  0  0  0  0  0  0  0  0
    8.9257   -3.3675   22.5252 C   0  0  0  0  0  0  0  0  0  0  0  0
    9.9284   -3.2295   22.1119 H   0  0  0  0  0  0  0  0  0  0  0  0
    8.5096   -4.3204   22.1929 H   0  0  0  0  0  0  0  0  0  0  0  0
    5.3201    0.6521   20.0407 C   0  0  0  0  0  0  0  0  0  0  0  0
    4.8220    0.6702   21.0100 H   0  0  0  0  0  0  0  0  0  0  0  0
    4.7834    1.3411   18.9575 C   0  0  0  0  0  0  0  0  0  0  0  0
    3.8578    1.8991   19.0485 H   0  0  0  0  0  0  0  0  0  0  0  0
  1  2  1  0
  2  3  2  0
  3  4  1  0
  4  5  1  0
  4  6  2  0
  6  7  1  0
  7  8  2  0
  8  9  1  0
  9 10  1  0
 10 11  2  0
 11 12  1  0
 12 13  1  0
 12 14  1  0
 12 15  1  0
 15 16  1  0
 16 17  1  0
 17 18  1  0
 17 19  2  0
 19 20  1  0
 19 21  1  0
 21 22  1  0
 10 23  1  0
 23 24  1  0
 23 25  1  0
 23 26  1  0
 26 27  1  0
 26 28  1  0
 26 29  1  0
 29 30  1  0
 29 31  1  0
  6 32  1  0
 32 33  1  0
 32 34  2  0
 34 35  1  0
 34  2  1  0
 11  7  1  0
 21 15  2  0
 29  9  1  0
M  END
>  <cnnaffinity>  (1) 
-5.54437

>  <filename>  (1) 
c1cncc(-c2nn3c(c2Cc2cccs2)CCC3)c1

$$$$
