
     RDKit          3D

 28 31  0  0  0  0  0  0  0  0999 V2000
    4.5365   -1.3525   28.0948 H   0  0  0  0  0  0  0  0  0  0  0  0
    5.2286   -1.4708   27.2674 C   0  0  0  0  0  0  0  0  0  0  0  0
    5.1820   -0.5550   26.2839 N   0  0  0  0  0  0  0  0  0  0  0  0
    6.0508   -0.7282   25.2684 C   0  0  0  0  0  0  0  0  0  0  0  0
    6.0434    0.0013   24.4651 H   0  0  0  0  0  0  0  0  0  0  0  0
    6.9682   -1.8177   25.2284 C   0  0  0  0  0  0  0  0  0  0  0  0
    7.9491   -2.0359   24.1290 C   0  0  0  0  0  0  0  0  0  0  0  0
    9.0749   -2.7818   24.1979 C   0  0  0  0  0  0  0  0  0  0  0  0
    9.4320   -3.3319   25.0612 H   0  0  0  0  0  0  0  0  0  0  0  0
    9.9821   -2.8318   22.7179 S   0  0  0  0  0  0  0  0  0  0  0  0
    8.7942   -1.8174   21.9594 C   0  0  0  0  0  0  0  0  0  0  0  0
    8.5432   -1.3268   20.7616 N   0  0  0  0  0  0  0  0  0  0  0  0
    7.3590   -0.6899   20.9768 C   0  0  0  0  0  0  0  0  0  0  0  0
    6.6487    0.0138   19.9137 C   0  0  0  0  0  0  0  0  0  0  0  0
    7.1821    0.0537   18.6157 C   0  0  0  0  0  0  0  0  0  0  0  0
    8.1280   -0.4340   18.3839 H   0  0  0  0  0  0  0  0  0  0  0  0
    6.5744    0.6700   17.5960 N   0  0  0  0  0  0  0  0  0  0  0  0
    5.4084    1.2861   17.8478 C   0  0  0  0  0  0  0  0  0  0  0  0
    4.9198    1.7715   17.0048 H   0  0  0  0  0  0  0  0  0  0  0  0
    4.8046    1.3104   19.1106 C   0  0  0  0  0  0  0  0  0  0  0  0
    3.8738    1.8436   19.2619 H   0  0  0  0  0  0  0  0  0  0  0  0
    5.4296    0.6572   20.1664 C   0  0  0  0  0  0  0  0  0  0  0  0
    5.0010    0.6325   21.1716 H   0  0  0  0  0  0  0  0  0  0  0  0
    6.8791   -0.7561   22.2185 N   0  0  0  0  0  0  0  0  0  0  0  0
    7.8297   -1.4861   22.8448 N   0  0  0  0  0  0  0  0  0  0  0  0
    7.0143   -2.7162   26.2450 N   0  0  0  0  0  0  0  0  0  0  0  0
    6.1374   -2.5451   27.2457 C   0  0  0  0  0  0  0  0  0  0  0  0
    6.1535   -3.2722   28.0531 H   0  0  0  0  0  0  0  0  0  0  0  0
  1  2  1  0
  2  3  2  0
  3  4  1  0
  4  5  1  0
  4  6  2  0
  6  7  1  0
  7  8  2  0
  8  9  1  0
  8 10  1  0
 10 11  1  0
 11 12  2  0
 12 13  1  0
 13 14  1  0
 14 15  2  0
 15 16  1  0
 15 17  1  0
 17 18  2  0
 18 19  1  0
 18 20  1  0
 20 21  1  0
 20 22  2  0
 22 23  1  0
 13 24  2  0
 24 25  1  0
  6 26  1  0
 26 27  2  0
 27 28  1  0
 27  2  1  0
 25  7  1  0
 25 11  1  0
 22 14  1  0
M  END
>  <cnnaffinity>  (1) 
-5.37858

>  <filename>  (1) 
c1cncc(-c2nc3scc(-c4cnccn4)n3n2)c1

$$$$
