
     RDKit          3D

 42 45  0  0  0  0  0  0  0  0999 V2000
    4.9928    1.8581   16.9348 H   0  0  0  0  0  0  0  0  0  0  0  0
    5.4106    1.3148   17.7810 C   0  0  0  0  0  0  0  0  0  0  0  0
    6.5461    0.6398   17.5445 N   0  0  0  0  0  0  0  0  0  0  0  0
    7.1028   -0.0018   18.5762 C   0  0  0  0  0  0  0  0  0  0  0  0
    8.0085   -0.5623   18.3543 H   0  0  0  0  0  0  0  0  0  0  0  0
    6.5885    0.0202   19.8839 C   0  0  0  0  0  0  0  0  0  0  0  0
    7.3540   -0.6079   20.9651 C   0  0  0  0  0  0  0  0  0  0  0  0
    7.8467   -1.8363   20.8197 N   0  0  0  0  0  0  0  0  0  0  0  0
    8.4664   -2.0592   21.9851 N   0  0  0  0  0  0  0  0  0  0  0  0
    8.4613   -1.0294   22.8340 C   0  0  0  0  0  0  0  0  0  0  0  0
    7.7440   -0.0291   22.2070 C   0  0  0  0  0  0  0  0  0  0  0  0
    7.5979    1.3555   22.7637 C   0  0  0  0  0  0  0  0  0  0  0  0
    8.5602    1.8841   22.6740 H   0  0  0  0  0  0  0  0  0  0  0  0
    6.8903    1.9343   22.1414 H   0  0  0  0  0  0  0  0  0  0  0  0
    7.2405    1.2893   24.1922 N   0  0  0  0  0  0  0  0  0  0  0  0
    7.5423    2.4905   24.9832 C   0  0  0  0  0  0  0  0  0  0  0  0
    8.5843    2.7858   24.8107 H   0  0  0  0  0  0  0  0  0  0  0  0
    7.4672    2.1964   26.0417 H   0  0  0  0  0  0  0  0  0  0  0  0
    6.5904    3.6806   24.6968 C   0  0  0  0  0  0  0  0  0  0  0  0
    6.7686    4.0024   23.6591 H   0  0  0  0  0  0  0  0  0  0  0  0
    6.8409    4.5230   25.3536 H   0  0  0  0  0  0  0  0  0  0  0  0
    5.1530    3.3718   24.8347 N   0  0  0  0  0  0  0  0  0  0  0  0
    4.8931    3.3286   25.8154 H   0  0  0  0  0  0  0  0  0  0  0  0
    4.8314    2.1015   24.1597 C   0  0  0  0  0  0  0  0  0  0  0  0
    4.8169    2.2979   23.0766 H   0  0  0  0  0  0  0  0  0  0  0  0
    3.8156    1.7929   24.4331 H   0  0  0  0  0  0  0  0  0  0  0  0
    5.8254    0.9348   24.4258 C   0  0  0  0  0  0  0  0  0  0  0  0
    5.7305    0.5791   25.4658 H   0  0  0  0  0  0  0  0  0  0  0  0
    5.5781    0.0973   23.7724 H   0  0  0  0  0  0  0  0  0  0  0  0
    9.3489   -1.3014   24.0164 C   0  0  0  0  0  0  0  0  0  0  0  0
    8.7688   -1.3715   24.9402 H   0  0  0  0  0  0  0  0  0  0  0  0
   10.0752   -0.4946   24.1527 H   0  0  0  0  0  0  0  0  0  0  0  0
   10.0186   -2.6551   23.6396 C   0  0  0  0  0  0  0  0  0  0  0  0
    9.8093   -3.4260   24.3829 H   0  0  0  0  0  0  0  0  0  0  0  0
   11.0988   -2.5532   23.5714 H   0  0  0  0  0  0  0  0  0  0  0  0
    9.4652   -3.0565   22.2482 C   0  0  0  0  0  0  0  0  0  0  0  0
    9.0159   -4.0493   22.2208 H   0  0  0  0  0  0  0  0  0  0  0  0
   10.2306   -2.9494   21.4749 H   0  0  0  0  0  0  0  0  0  0  0  0
    5.3660    0.6728   20.0974 C   0  0  0  0  0  0  0  0  0  0  0  0
    4.8770    0.6373   21.0746 H   0  0  0  0  0  0  0  0  0  0  0  0
    4.7678    1.3329   19.0232 C   0  0  0  0  0  0  0  0  0  0  0  0
    3.8305    1.8668   19.1349 H   0  0  0  0  0  0  0  0  0  0  0  0
  1  2  1  0
  2  3  2  0
  3  4  1  0
  4  5  1  0
  4  6  2  0
  6  7  1  0
  7  8  2  0
  8  9  1  0
  9 10  1  0
 10 11  2  0
 11 12  1  0
 12 13  1  0
 12 14  1  0
 12 15  1  0
 15 16  1  0
 16 17  1  0
 16 18  1  0
 16 19  1  0
 19 20  1  0
 19 21  1  0
 19 22  1  0
 22 23  1  0
 22 24  1  0
 24 25  1  0
 24 26  1  0
 24 27  1  0
 27 28  1  0
 27 29  1  0
 10 30  1  0
 30 31  1  0
 30 32  1  0
 30 33  1  0
 33 34  1  0
 33 35  1  0
 33 36  1  0
 36 37  1  0
 36 38  1  0
  6 39  1  0
 39 40  1  0
 39 41  2  0
 41 42  1  0
 41  2  1  0
 11  7  1  0
 27 15  1  0
 36  9  1  0
M  END
>  <cnnaffinity>  (1) 
-5.20234

>  <filename>  (1) 
c1cncc(-c2nn3c(c2CN2CCNCC2)CCC3)c1

$$$$
