
     RDKit          3D

 35 37  0  0  0  0  0  0  0  0999 V2000
    4.9089    1.8449   16.9322 H   0  0  0  0  0  0  0  0  0  0  0  0
    5.3632    1.3246   17.7727 C   0  0  0  0  0  0  0  0  0  0  0  0
    6.5264    0.7002   17.5258 N   0  0  0  0  0  0  0  0  0  0  0  0
    7.1400    0.0888   18.5521 C   0  0  0  0  0  0  0  0  0  0  0  0
    8.1003   -0.3721   18.3156 H   0  0  0  0  0  0  0  0  0  0  0  0
    6.6204    0.0283   19.8759 C   0  0  0  0  0  0  0  0  0  0  0  0
    7.2902   -0.5512   20.9832 N   0  0  0  0  0  0  0  0  0  0  0  0
    6.6681   -1.5655   21.8256 C   0  0  0  0  0  0  0  0  0  0  0  0
    5.6391   -1.7041   21.4805 H   0  0  0  0  0  0  0  0  0  0  0  0
    6.6053   -1.2273   22.8746 H   0  0  0  0  0  0  0  0  0  0  0  0
    7.3498   -2.9554   21.7936 C   0  0  0  0  0  0  0  0  0  0  0  0
    6.6445   -3.6862   22.1975 H   0  0  0  0  0  0  0  0  0  0  0  0
    7.5176   -3.2449   20.7506 H   0  0  0  0  0  0  0  0  0  0  0  0
    8.6058   -3.0977   22.5278 N   0  0  0  0  0  0  0  0  0  0  0  0
    8.5702   -3.5243   23.8625 C   0  0  0  0  0  0  0  0  0  0  0  0
    7.4788   -3.4860   24.6844 C   0  0  0  0  0  0  0  0  0  0  0  0
    6.5043   -3.0939   24.4311 H   0  0  0  0  0  0  0  0  0  0  0  0
    7.8195   -4.1144   26.2514 S   0  0  0  0  0  0  0  0  0  0  0  0
    9.4523   -4.4512   25.8195 C   0  0  0  0  0  0  0  0  0  0  0  0
   10.1152   -4.9178   26.5453 H   0  0  0  0  0  0  0  0  0  0  0  0
    9.7164   -4.0725   24.5378 C   0  0  0  0  0  0  0  0  0  0  0  0
   10.6757   -4.1563   24.0349 H   0  0  0  0  0  0  0  0  0  0  0  0
    9.7971   -2.3448   22.1348 C   0  0  0  0  0  0  0  0  0  0  0  0
   10.6372   -3.0230   21.9423 H   0  0  0  0  0  0  0  0  0  0  0  0
   10.1373   -1.7602   23.0012 H   0  0  0  0  0  0  0  0  0  0  0  0
    9.6402   -1.3769   20.9699 C   0  0  0  0  0  0  0  0  0  0  0  0
    9.3002   -1.9210   20.0845 H   0  0  0  0  0  0  0  0  0  0  0  0
   10.6384   -0.9775   20.7514 H   0  0  0  0  0  0  0  0  0  0  0  0
    8.6767   -0.2194   21.2524 C   0  0  0  0  0  0  0  0  0  0  0  0
    8.9386    0.6397   20.6306 H   0  0  0  0  0  0  0  0  0  0  0  0
    8.7956    0.1408   22.2917 H   0  0  0  0  0  0  0  0  0  0  0  0
    5.3830    0.6604   20.0842 C   0  0  0  0  0  0  0  0  0  0  0  0
    4.9850    0.6531   21.0964 H   0  0  0  0  0  0  0  0  0  0  0  0
    4.7508    1.3292   19.0317 C   0  0  0  0  0  0  0  0  0  0  0  0
    3.8174    1.8653   19.1801 H   0  0  0  0  0  0  0  0  0  0  0  0
  1  2  1  0
  2  3  2  0
  3  4  1  0
  4  5  1  0
  4  6  2  0
  6  7  1  0
  7  8  1  0
  8  9  1  0
  8 10  1  0
  8 11  1  0
 11 12  1  0
 11 13  1  0
 11 14  1  0
 14 15  1  0
 15 16  2  0
 16 17  1  0
 16 18  1  0
 18 19  1  0
 19 20  1  0
 19 21  2  0
 21 22  1  0
 14 23  1  0
 23 24  1  0
 23 25  1  0
 23 26  1  0
 26 27  1  0
 26 28  1  0
 26 29  1  0
 29 30  1  0
 29 31  1  0
  6 32  1  0
 32 33  1  0
 32 34  2  0
 34 35  1  0
 34  2  1  0
 29  7  1  0
 21 15  1  0
M  END
>  <cnnaffinity>  (1) 
-5.15755

>  <filename>  (1) 
c1cncc(N2CCCN(c3ccsc3)CC2)c1

$$$$
