
     RDKit          3D

 32 35  0  0  0  0  0  0  0  0999 V2000
    4.9139    1.7837   16.9910 H   0  0  0  0  0  0  0  0  0  0  0  0
    5.3977    1.2966   17.8310 C   0  0  0  0  0  0  0  0  0  0  0  0
    6.5607    0.6815   17.5623 N   0  0  0  0  0  0  0  0  0  0  0  0
    7.1708    0.0745   18.5868 C   0  0  0  0  0  0  0  0  0  0  0  0
    8.1104   -0.4261   18.3608 H   0  0  0  0  0  0  0  0  0  0  0  0
    6.6626    0.0210   19.8947 C   0  0  0  0  0  0  0  0  0  0  0  0
    7.3910   -0.6926   20.9587 C   0  0  0  0  0  0  0  0  0  0  0  0
    8.7464   -0.7751   21.0676 C   0  0  0  0  0  0  0  0  0  0  0  0
    9.4634   -0.3084   20.4102 H   0  0  0  0  0  0  0  0  0  0  0  0
    9.2335   -1.6716   22.4514 S   0  0  0  0  0  0  0  0  0  0  0  0
    7.5818   -1.9586   22.9260 C   0  0  0  0  0  0  0  0  0  0  0  0
    7.1891   -2.6984   24.1382 C   0  0  0  0  0  0  0  0  0  0  0  0
    6.0440   -2.3256   24.8628 C   0  0  0  0  0  0  0  0  0  0  0  0
    5.4592   -1.4763   24.5257 H   0  0  0  0  0  0  0  0  0  0  0  0
    5.6562   -2.9990   26.0436 C   0  0  0  0  0  0  0  0  0  0  0  0
    4.7630   -2.6718   26.5752 H   0  0  0  0  0  0  0  0  0  0  0  0
    6.3955   -4.0718   26.5361 C   0  0  0  0  0  0  0  0  0  0  0  0
    6.1126   -4.6052   27.4442 H   0  0  0  0  0  0  0  0  0  0  0  0
    7.5315   -4.4547   25.8060 C   0  0  0  0  0  0  0  0  0  0  0  0
    7.9447   -3.8043   24.6153 C   0  0  0  0  0  0  0  0  0  0  0  0
    9.1024   -4.5110   24.1461 C   0  0  0  0  0  0  0  0  0  0  0  0
    9.6468   -4.2686   23.2484 H   0  0  0  0  0  0  0  0  0  0  0  0
    9.3650   -5.5184   25.0310 C   0  0  0  0  0  0  0  0  0  0  0  0
   10.1543   -6.2640   25.0203 H   0  0  0  0  0  0  0  0  0  0  0  0
    8.4175   -5.4794   26.0361 N   0  0  0  0  0  0  0  0  0  0  0  0
    8.3453   -6.1063   26.8170 H   0  0  0  0  0  0  0  0  0  0  0  0
    6.7407   -1.3841   22.0194 C   0  0  0  0  0  0  0  0  0  0  0  0
    5.6662   -1.4862   22.0390 H   0  0  0  0  0  0  0  0  0  0  0  0
    5.4349    0.6548   20.1477 C   0  0  0  0  0  0  0  0  0  0  0  0
    5.0187    0.6361   21.1591 H   0  0  0  0  0  0  0  0  0  0  0  0
    4.8011    1.3159   19.0990 C   0  0  0  0  0  0  0  0  0  0  0  0
    3.8689    1.8462   19.2561 H   0  0  0  0  0  0  0  0  0  0  0  0
  1  2  1  0
  2  3  2  0
  3  4  1  0
  4  5  1  0
  4  6  2  0
  6  7  1  0
  7  8  2  0
  8  9  1  0
  8 10  1  0
 10 11  1  0
 11 12  1  0
 12 13  2  0
 13 14  1  0
 13 15  1  0
 15 16  1  0
 15 17  2  0
 17 18  1  0
 17 19  1  0
 19 20  2  0
 20 21  1  0
 21 22  1  0
 21 23  2  0
 23 24  1  0
 23 25  1  0
 25 26  1  0
 11 27  2  0
 27 28  1  0
  6 29  1  0
 29 30  1  0
 29 31  2  0
 31 32  1  0
 31  2  1  0
 27  7  1  0
 20 12  1  0
 25 19  1  0
M  END
>  <cnnaffinity>  (1) 
-5.50482

>  <filename>  (1) 
c1cncc(-c2csc(-c3cccc4[nH]ccc34)c2)c1

$$$$
