
     RDKit          3D

 32 35  0  0  0  0  0  0  0  0999 V2000
    4.9086    1.7785   16.9980 H   0  0  0  0  0  0  0  0  0  0  0  0
    5.3996    1.2952   17.8370 C   0  0  0  0  0  0  0  0  0  0  0  0
    6.5634    0.6810   17.5668 N   0  0  0  0  0  0  0  0  0  0  0  0
    7.1724    0.0706   18.5898 C   0  0  0  0  0  0  0  0  0  0  0  0
    8.1158   -0.4307   18.3744 H   0  0  0  0  0  0  0  0  0  0  0  0
    6.6600    0.0133   19.8985 C   0  0  0  0  0  0  0  0  0  0  0  0
    7.3725   -0.7110   20.9800 C   0  0  0  0  0  0  0  0  0  0  0  0
    8.7621   -0.5923   21.1659 C   0  0  0  0  0  0  0  0  0  0  0  0
    9.3272    0.0577   20.4986 H   0  0  0  0  0  0  0  0  0  0  0  0
    9.4387   -1.2213   22.1344 N   0  0  0  0  0  0  0  0  0  0  0  0
    8.7431   -2.0066   22.9630 C   0  0  0  0  0  0  0  0  0  0  0  0
    9.3124   -2.5062   23.7372 H   0  0  0  0  0  0  0  0  0  0  0  0
    7.3590   -2.1986   22.8653 C   0  0  0  0  0  0  0  0  0  0  0  0
    6.6952   -3.0761   23.8293 C   0  0  0  0  0  0  0  0  0  0  0  0
    7.2681   -3.7237   24.7819 N   0  0  0  0  0  0  0  0  0  0  0  0
    6.2250   -4.4087   25.4018 C   0  0  0  0  0  0  0  0  0  0  0  0
    6.2135   -5.2800   26.5022 C   0  0  0  0  0  0  0  0  0  0  0  0
    7.1473   -5.5036   27.0084 H   0  0  0  0  0  0  0  0  0  0  0  0
    4.9857   -5.8237   26.8975 C   0  0  0  0  0  0  0  0  0  0  0  0
    4.9580   -6.5012   27.7492 H   0  0  0  0  0  0  0  0  0  0  0  0
    3.7946   -5.5036   26.2077 C   0  0  0  0  0  0  0  0  0  0  0  0
    2.8542   -5.9408   26.5381 H   0  0  0  0  0  0  0  0  0  0  0  0
    3.7957   -4.6342   25.1065 C   0  0  0  0  0  0  0  0  0  0  0  0
    2.8930   -4.3749   24.5641 H   0  0  0  0  0  0  0  0  0  0  0  0
    5.0342   -4.1085   24.7355 C   0  0  0  0  0  0  0  0  0  0  0  0
    5.3409   -3.2523   23.7153 O   0  0  0  0  0  0  0  0  0  0  0  0
    6.6641   -1.5327   21.8559 C   0  0  0  0  0  0  0  0  0  0  0  0
    5.5895   -1.6600   21.7272 H   0  0  0  0  0  0  0  0  0  0  0  0
    5.4384    0.6514   20.1508 C   0  0  0  0  0  0  0  0  0  0  0  0
    5.0158    0.6307   21.1586 H   0  0  0  0  0  0  0  0  0  0  0  0
    4.8030    1.3176   19.1044 C   0  0  0  0  0  0  0  0  0  0  0  0
    3.8684    1.8474   19.2622 H   0  0  0  0  0  0  0  0  0  0  0  0
  1  2  1  0
  2  3  2  0
  3  4  1  0
  4  5  1  0
  4  6  2  0
  6  7  1  0
  7  8  2  0
  8  9  1  0
  8 10  1  0
 10 11  2  0
 11 12  1  0
 11 13  1  0
 13 14  1  0
 14 15  2  0
 15 16  1  0
 16 17  2  0
 17 18  1  0
 17 19  1  0
 19 20  1  0
 19 21  2  0
 21 22  1  0
 21 23  1  0
 23 24  1  0
 23 25  2  0
 25 26  1  0
 13 27  2  0
 27 28  1  0
  6 29  1  0
 29 30  1  0
 29 31  2  0
 31 32  1  0
 31  2  1  0
 27  7  1  0
 26 14  1  0
 25 16  1  0
M  END
>  <cnnaffinity>  (1) 
-5.24868

>  <filename>  (1) 
c1cncc(-c2cncc(-c3nc4ccccc4o3)c2)c1

$$$$
