
     RDKit          3D

 31 34  0  0  0  0  0  0  0  0999 V2000
    9.0355   -3.0564   22.2134 H   0  0  0  0  0  0  0  0  0  0  0  0
    8.4671   -2.1754   21.9338 C   0  0  0  0  0  0  0  0  0  0  0  0
    8.1161   -1.7967   20.7544 N   0  0  0  0  0  0  0  0  0  0  0  0
    7.3859   -0.6365   20.9697 C   0  0  0  0  0  0  0  0  0  0  0  0
    6.6529    0.0273   19.8931 C   0  0  0  0  0  0  0  0  0  0  0  0
    7.1625    0.0146   18.5809 C   0  0  0  0  0  0  0  0  0  0  0  0
    8.0910   -0.5108   18.3585 H   0  0  0  0  0  0  0  0  0  0  0  0
    6.5759    0.6411   17.5568 N   0  0  0  0  0  0  0  0  0  0  0  0
    5.4277    1.2920   17.8055 C   0  0  0  0  0  0  0  0  0  0  0  0
    4.9820    1.8176   16.9642 H   0  0  0  0  0  0  0  0  0  0  0  0
    4.8087    1.3214   19.0592 C   0  0  0  0  0  0  0  0  0  0  0  0
    3.8705    1.8509   19.1854 H   0  0  0  0  0  0  0  0  0  0  0  0
    5.4312    0.6842   20.1290 C   0  0  0  0  0  0  0  0  0  0  0  0
    4.9985    0.6983   21.1322 H   0  0  0  0  0  0  0  0  0  0  0  0
    7.4231   -0.3395   22.3149 C   0  0  0  0  0  0  0  0  0  0  0  0
    6.9902    0.8029   23.1024 C   0  0  0  0  0  0  0  0  0  0  0  0
    6.2444    0.6409   24.2786 C   0  0  0  0  0  0  0  0  0  0  0  0
    6.0733   -0.3565   24.6728 H   0  0  0  0  0  0  0  0  0  0  0  0
    5.7188    1.7539   24.9604 C   0  0  0  0  0  0  0  0  0  0  0  0
    5.1466    1.6033   25.8712 H   0  0  0  0  0  0  0  0  0  0  0  0
    5.9505    3.0546   24.5226 C   0  0  0  0  0  0  0  0  0  0  0  0
    5.5148    3.9182   25.0204 H   0  0  0  0  0  0  0  0  0  0  0  0
    6.7704    3.2155   23.4001 C   0  0  0  0  0  0  0  0  0  0  0  0
    7.2831    2.1231   22.6557 C   0  0  0  0  0  0  0  0  0  0  0  0
    8.0573    2.7028   21.5874 C   0  0  0  0  0  0  0  0  0  0  0  0
    8.5358    2.1642   20.7807 H   0  0  0  0  0  0  0  0  0  0  0  0
    8.0148    4.0584   21.7443 C   0  0  0  0  0  0  0  0  0  0  0  0
    8.4767    4.8430   21.1615 H   0  0  0  0  0  0  0  0  0  0  0  0
    7.2333    4.3741   22.8286 N   0  0  0  0  0  0  0  0  0  0  0  0
    6.8290    5.2810   23.0093 H   0  0  0  0  0  0  0  0  0  0  0  0
    8.0724   -1.3708   22.9356 O   0  0  0  0  0  0  0  0  0  0  0  0
  1  2  1  0
  2  3  2  0
  3  4  1  0
  4  5  1  0
  5  6  2  0
  6  7  1  0
  6  8  1  0
  8  9  2  0
  9 10  1  0
  9 11  1  0
 11 12  1  0
 11 13  2  0
 13 14  1  0
  4 15  2  0
 15 16  1  0
 16 17  2  0
 17 18  1  0
 17 19  1  0
 19 20  1  0
 19 21  2  0
 21 22  1  0
 21 23  1  0
 23 24  2  0
 24 25  1  0
 25 26  1  0
 25 27  2  0
 27 28  1  0
 27 29  1  0
 29 30  1  0
 15 31  1  0
 31  2  1  0
 13  5  1  0
 24 16  1  0
 29 23  1  0
M  END
>  <cnnaffinity>  (1) 
-5.13349

>  <filename>  (1) 
c1cncc(-c2ncoc2-c2cccc3[nH]ccc23)c1

$$$$
