
     RDKit          3D

 31 34  0  0  0  0  0  0  0  0999 V2000
    4.9396    1.7989   16.9895 H   0  0  0  0  0  0  0  0  0  0  0  0
    5.3934    1.2954   17.8416 C   0  0  0  0  0  0  0  0  0  0  0  0
    6.5546    0.6703   17.5976 N   0  0  0  0  0  0  0  0  0  0  0  0
    7.1518    0.0563   18.6222 C   0  0  0  0  0  0  0  0  0  0  0  0
    8.1001   -0.4183   18.3751 H   0  0  0  0  0  0  0  0  0  0  0  0
    6.6421    0.0040   19.9321 C   0  0  0  0  0  0  0  0  0  0  0  0
    7.4115   -0.7161   20.9456 C   0  0  0  0  0  0  0  0  0  0  0  0
    6.9371   -0.7607   22.2220 O   0  0  0  0  0  0  0  0  0  0  0  0
    7.8185   -1.4796   22.9784 C   0  0  0  0  0  0  0  0  0  0  0  0
    7.5978   -1.6724   24.4088 C   0  0  0  0  0  0  0  0  0  0  0  0
    8.4385   -2.4298   25.1759 C   0  0  0  0  0  0  0  0  0  0  0  0
    9.3628   -2.8914   24.8464 H   0  0  0  0  0  0  0  0  0  0  0  0
    7.9526   -2.6038   26.8191 S   0  0  0  0  0  0  0  0  0  0  0  0
    6.5358   -1.6381   26.5546 C   0  0  0  0  0  0  0  0  0  0  0  0
    5.5309   -1.3475   27.5028 C   0  0  0  0  0  0  0  0  0  0  0  0
    5.6042   -1.6731   28.5401 H   0  0  0  0  0  0  0  0  0  0  0  0
    4.4538   -0.5782   27.0847 C   0  0  0  0  0  0  0  0  0  0  0  0
    3.6506   -0.3616   27.7824 H   0  0  0  0  0  0  0  0  0  0  0  0
    4.4037   -0.0599   25.7755 C   0  0  0  0  0  0  0  0  0  0  0  0
    3.5208    0.4800   25.4514 H   0  0  0  0  0  0  0  0  0  0  0  0
    5.4427   -0.2791   24.8786 C   0  0  0  0  0  0  0  0  0  0  0  0
    5.4480    0.2161   23.9141 H   0  0  0  0  0  0  0  0  0  0  0  0
    6.4944   -1.1504   25.2271 C   0  0  0  0  0  0  0  0  0  0  0  0
    8.8476   -1.9033   22.1767 C   0  0  0  0  0  0  0  0  0  0  0  0
    9.6936   -2.4958   22.5049 H   0  0  0  0  0  0  0  0  0  0  0  0
    8.5911   -1.4044   20.8711 C   0  0  0  0  0  0  0  0  0  0  0  0
    9.1987   -1.5239   19.9837 H   0  0  0  0  0  0  0  0  0  0  0  0
    5.4148    0.6636   20.1642 C   0  0  0  0  0  0  0  0  0  0  0  0
    4.9540    0.6728   21.1525 H   0  0  0  0  0  0  0  0  0  0  0  0
    4.7873    1.3166   19.1030 C   0  0  0  0  0  0  0  0  0  0  0  0
    3.8522    1.8540   19.2319 H   0  0  0  0  0  0  0  0  0  0  0  0
  1  2  1  0
  2  3  2  0
  3  4  1  0
  4  5  1  0
  4  6  2  0
  6  7  1  0
  7  8  1  0
  8  9  1  0
  9 10  1  0
 10 11  2  0
 11 12  1  0
 11 13  1  0
 13 14  1  0
 14 15  2  0
 15 16  1  0
 15 17  1  0
 17 18  1  0
 17 19  2  0
 19 20  1  0
 19 21  1  0
 21 22  1  0
 21 23  2  0
  9 24  2  0
 24 25  1  0
 24 26  1  0
 26 27  1  0
  6 28  1  0
 28 29  1  0
 28 30  2  0
 30 31  1  0
 30  2  1  0
 26  7  2  0
 23 10  1  0
 23 14  1  0
M  END
>  <cnnaffinity>  (1) 
-5.06699

>  <filename>  (1) 
c1cncc(-c2ccc(-c3csc4ccccc34)o2)c1

$$$$
