
     RDKit          3D

 36 39  0  0  0  0  0  0  0  0999 V2000
    4.9266    1.8071   16.9736 H   0  0  0  0  0  0  0  0  0  0  0  0
    5.4000    1.2973   17.8125 C   0  0  0  0  0  0  0  0  0  0  0  0
    6.5605    0.6763   17.5554 N   0  0  0  0  0  0  0  0  0  0  0  0
    7.1755    0.0517   18.5671 C   0  0  0  0  0  0  0  0  0  0  0  0
    8.1231   -0.4240   18.3236 H   0  0  0  0  0  0  0  0  0  0  0  0
    6.6635   -0.0001   19.8769 C   0  0  0  0  0  0  0  0  0  0  0  0
    7.3795   -0.6946   20.9618 C   0  0  0  0  0  0  0  0  0  0  0  0
    8.4914   -1.4163   20.7446 N   0  0  0  0  0  0  0  0  0  0  0  0
    8.8049   -1.8565   21.9847 N   0  0  0  0  0  0  0  0  0  0  0  0
    9.8345   -2.6052   22.5267 C   0  0  0  0  0  0  0  0  0  0  0  0
   10.6225   -2.9503   21.8810 H   0  0  0  0  0  0  0  0  0  0  0  0
    9.5957   -2.6715   23.8620 C   0  0  0  0  0  0  0  0  0  0  0  0
   10.1243   -3.1491   24.6716 H   0  0  0  0  0  0  0  0  0  0  0  0
    8.4446   -1.9579   24.1232 N   0  0  0  0  0  0  0  0  0  0  0  0
    7.9680   -1.8262   25.4023 O   0  0  0  0  0  0  0  0  0  0  0  0
    6.7775   -0.9852   25.5459 C   0  0  0  0  0  0  0  0  0  0  0  0
    6.0563   -1.3233   24.7896 H   0  0  0  0  0  0  0  0  0  0  0  0
    7.0899    0.5201   25.4469 C   0  0  0  0  0  0  0  0  0  0  0  0
    7.8684    0.7190   24.7004 H   0  0  0  0  0  0  0  0  0  0  0  0
    6.1850    1.0337   25.1034 H   0  0  0  0  0  0  0  0  0  0  0  0
    7.4473    0.9983   26.8817 C   0  0  0  0  0  0  0  0  0  0  0  0
    6.9282    1.9277   27.1489 H   0  0  0  0  0  0  0  0  0  0  0  0
    8.5159    1.2223   26.9704 H   0  0  0  0  0  0  0  0  0  0  0  0
    7.0876   -0.1826   27.8183 C   0  0  0  0  0  0  0  0  0  0  0  0
    8.0313   -0.6321   28.1348 H   0  0  0  0  0  0  0  0  0  0  0  0
    6.5400    0.1176   28.7186 H   0  0  0  0  0  0  0  0  0  0  0  0
    6.2887   -1.1960   26.9685 C   0  0  0  0  0  0  0  0  0  0  0  0
    5.2118   -0.9791   27.0073 H   0  0  0  0  0  0  0  0  0  0  0  0
    6.4177   -2.2403   27.2818 H   0  0  0  0  0  0  0  0  0  0  0  0
    7.9563   -1.4525   22.9469 C   0  0  0  0  0  0  0  0  0  0  0  0
    6.9903   -0.6755   22.3204 C   0  0  0  0  0  0  0  0  0  0  0  0
    6.1770   -0.1383   22.7667 H   0  0  0  0  0  0  0  0  0  0  0  0
    5.4436    0.6521   20.1234 C   0  0  0  0  0  0  0  0  0  0  0  0
    4.9980    0.6517   21.1190 H   0  0  0  0  0  0  0  0  0  0  0  0
    4.8046    1.3115   19.0780 C   0  0  0  0  0  0  0  0  0  0  0  0
    3.8724    1.8430   19.2365 H   0  0  0  0  0  0  0  0  0  0  0  0
  1  2  1  0
  2  3  2  0
  3  4  1  0
  4  5  1  0
  4  6  2  0
  6  7  1  0
  7  8  2  0
  8  9  1  0
  9 10  1  0
 10 11  1  0
 10 12  2  0
 12 13  1  0
 12 14  1  0
 14 15  1  0
 15 16  1  0
 16 17  1  0
 16 18  1  0
 18 19  1  0
 18 20  1  0
 18 21  1  0
 21 22  1  0
 21 23  1  0
 21 24  1  0
 24 25  1  0
 24 26  1  0
 24 27  1  0
 27 28  1  0
 27 29  1  0
 14 30  1  0
 30 31  2  0
 31 32  1  0
  6 33  1  0
 33 34  1  0
 33 35  2  0
 35 36  1  0
 35  2  1  0
 31  7  1  0
 30  9  1  0
 27 16  1  0
M  END
>  <cnnaffinity>  (1) 
-5.4

>  <filename>  (1) 
c1cncc(-c2cc3n(OC4CCCC4)ccn3n2)c1

$$$$
