
     RDKit          3D

 28 30  0  0  0  0  0  0  0  0999 V2000
    4.9107    1.7883   16.9889 H   0  0  0  0  0  0  0  0  0  0  0  0
    5.3944    1.3000   17.8291 C   0  0  0  0  0  0  0  0  0  0  0  0
    6.5592    0.6902   17.5570 N   0  0  0  0  0  0  0  0  0  0  0  0
    7.1627    0.0643   18.5705 C   0  0  0  0  0  0  0  0  0  0  0  0
    8.1202   -0.4094   18.3478 H   0  0  0  0  0  0  0  0  0  0  0  0
    6.6490    0.0093   19.8821 C   0  0  0  0  0  0  0  0  0  0  0  0
    7.3619   -0.6653   20.9656 C   0  0  0  0  0  0  0  0  0  0  0  0
    7.5097   -0.3241   22.2972 C   0  0  0  0  0  0  0  0  0  0  0  0
    7.0396    0.8515   22.9120 N   0  0  0  0  0  0  0  0  0  0  0  0
    6.9912    1.6698   22.3176 H   0  0  0  0  0  0  0  0  0  0  0  0
    6.8213    1.0504   24.2659 C   0  0  0  0  0  0  0  0  0  0  0  0
    6.3710    0.0184   25.1244 C   0  0  0  0  0  0  0  0  0  0  0  0
    6.1799   -0.9715   24.7302 H   0  0  0  0  0  0  0  0  0  0  0  0
    6.1477    0.1936   26.4281 N   0  0  0  0  0  0  0  0  0  0  0  0
    6.3527    1.3873   26.9804 N   0  0  0  0  0  0  0  0  0  0  0  0
    6.7749    2.4027   26.2145 C   0  0  0  0  0  0  0  0  0  0  0  0
    6.9071    3.3393   26.7407 H   0  0  0  0  0  0  0  0  0  0  0  0
    7.0161    2.2979   24.8449 C   0  0  0  0  0  0  0  0  0  0  0  0
    7.3639    3.1521   24.2677 H   0  0  0  0  0  0  0  0  0  0  0  0
    8.2796   -1.3739   22.8489 C   0  0  0  0  0  0  0  0  0  0  0  0
    8.6111   -1.4426   23.8712 H   0  0  0  0  0  0  0  0  0  0  0  0
    8.6040   -2.2910   21.9436 N   0  0  0  0  0  0  0  0  0  0  0  0
    8.0491   -1.8282   20.8166 N   0  0  0  0  0  0  0  0  0  0  0  0
    8.1375   -2.3581   19.9651 H   0  0  0  0  0  0  0  0  0  0  0  0
    5.4345    0.6614   20.1457 C   0  0  0  0  0  0  0  0  0  0  0  0
    5.0148    0.6242   21.1574 H   0  0  0  0  0  0  0  0  0  0  0  0
    4.7972    1.3171   19.0950 C   0  0  0  0  0  0  0  0  0  0  0  0
    3.8661    1.8482   19.2535 H   0  0  0  0  0  0  0  0  0  0  0  0
  1  2  1  0
  2  3  2  0
  3  4  1  0
  4  5  1  0
  4  6  2  0
  6  7  1  0
  7  8  2  0
  8  9  1  0
  9 10  1  0
  9 11  1  0
 11 12  2  0
 12 13  1  0
 12 14  1  0
 14 15  2  0
 15 16  1  0
 16 17  1  0
 16 18  2  0
 18 19  1  0
  8 20  1  0
 20 21  1  0
 20 22  2  0
 22 23  1  0
 23 24  1  0
  6 25  1  0
 25 26  1  0
 25 27  2  0
 27 28  1  0
 27  2  1  0
 23  7  1  0
 18 11  1  0
M  END
>  <cnnaffinity>  (1) 
-5.2679

>  <filename>  (1) 
c1cncc(-c2[nH]ncc2Nc2ccnnc2)c1

$$$$
