
     RDKit          3D

 39 41  0  0  0  0  0  0  0  0999 V2000
    5.2121    2.4282   16.3834 H   0  0  0  0  0  0  0  0  0  0  0  0
    5.5033    1.8105   17.2330 C   0  0  0  0  0  0  0  0  0  0  0  0
    6.6174    1.0749   17.0910 N   0  0  0  0  0  0  0  0  0  0  0  0
    6.9931    0.3124   18.1259 C   0  0  0  0  0  0  0  0  0  0  0  0
    7.9026   -0.2698   17.9898 H   0  0  0  0  0  0  0  0  0  0  0  0
    6.3015    0.2154   19.3587 C   0  0  0  0  0  0  0  0  0  0  0  0
    6.7887   -0.6437   20.3712 N   0  0  0  0  0  0  0  0  0  0  0  0
    5.8815   -1.0882   21.4170 C   0  0  0  0  0  0  0  0  0  0  0  0
    4.8835   -1.1852   21.0007 H   0  0  0  0  0  0  0  0  0  0  0  0
    5.8280   -0.3304   22.2235 H   0  0  0  0  0  0  0  0  0  0  0  0
    6.3578   -2.4199   21.9879 C   0  0  0  0  0  0  0  0  0  0  0  0
    5.6295   -2.8012   22.7102 H   0  0  0  0  0  0  0  0  0  0  0  0
    6.3992   -3.1556   21.1722 H   0  0  0  0  0  0  0  0  0  0  0  0
    7.7608   -2.3044   22.6133 C   0  0  0  0  0  0  0  0  0  0  0  0
    7.7015   -1.5954   23.4579 H   0  0  0  0  0  0  0  0  0  0  0  0
    8.2106   -3.6979   23.1300 C   0  0  0  0  0  0  0  0  0  0  0  0
    8.0289   -4.3944   22.2995 H   0  0  0  0  0  0  0  0  0  0  0  0
    9.6730   -3.8216   23.5890 C   0  0  0  0  0  0  0  0  0  0  0  0
    9.8990   -4.8880   23.6539 H   0  0  0  0  0  0  0  0  0  0  0  0
   10.4016   -3.3839   22.9000 H   0  0  0  0  0  0  0  0  0  0  0  0
    9.7044   -3.2557   25.0116 C   0  0  0  0  0  0  0  0  0  0  0  0
   10.5483   -3.6604   25.5837 H   0  0  0  0  0  0  0  0  0  0  0  0
    9.8267   -2.1685   24.9817 H   0  0  0  0  0  0  0  0  0  0  0  0
    8.3120   -3.5933   25.5937 C   0  0  0  0  0  0  0  0  0  0  0  0
    8.3542   -4.2859   26.4390 H   0  0  0  0  0  0  0  0  0  0  0  0
    7.8303   -2.6833   25.9622 H   0  0  0  0  0  0  0  0  0  0  0  0
    7.5020   -4.1932   24.4217 C   0  0  0  0  0  0  0  0  0  0  0  0
    6.4383   -3.9428   24.4956 H   0  0  0  0  0  0  0  0  0  0  0  0
    7.5770   -5.2897   24.4511 H   0  0  0  0  0  0  0  0  0  0  0  0
    8.6930   -1.6777   21.5424 C   0  0  0  0  0  0  0  0  0  0  0  0
    8.8396   -2.3970   20.7246 H   0  0  0  0  0  0  0  0  0  0  0  0
    9.6837   -1.4579   21.9517 H   0  0  0  0  0  0  0  0  0  0  0  0
    8.1166   -0.3849   20.9429 C   0  0  0  0  0  0  0  0  0  0  0  0
    8.7862    0.0053   20.1686 H   0  0  0  0  0  0  0  0  0  0  0  0
    8.0435    0.4082   21.7144 H   0  0  0  0  0  0  0  0  0  0  0  0
    5.1234    0.9843   19.4674 C   0  0  0  0  0  0  0  0  0  0  0  0
    4.5447    0.9495   20.3851 H   0  0  0  0  0  0  0  0  0  0  0  0
    4.7286    1.7941   18.3926 C   0  0  0  0  0  0  0  0  0  0  0  0
    3.8402    2.4145   18.4549 H   0  0  0  0  0  0  0  0  0  0  0  0
  1  2  1  0
  2  3  2  0
  3  4  1  0
  4  5  1  0
  4  6  2  0
  6  7  1  0
  7  8  1  0
  8  9  1  0
  8 10  1  0
  8 11  1  0
 11 12  1  0
 11 13  1  0
 11 14  1  0
 14 15  1  0
 14 16  1  0
 16 17  1  0
 16 18  1  0
 18 19  1  0
 18 20  1  0
 18 21  1  0
 21 22  1  0
 21 23  1  0
 21 24  1  0
 24 25  1  0
 24 26  1  0
 24 27  1  0
 27 28  1  0
 27 29  1  0
 14 30  1  0
 30 31  1  0
 30 32  1  0
 30 33  1  0
 33 34  1  0
 33 35  1  0
  6 36  1  0
 36 37  1  0
 36 38  2  0
 38 39  1  0
 38  2  1  0
 33  7  1  0
 27 16  1  0
M  END
>  <cnnaffinity>  (1) 
-4.85353

>  <filename>  (1) 
c1cncc(N2CCC(C3CCCC3)CC2)c1

$$$$
