
     RDKit          3D

 33 36  0  0  0  0  0  0  0  0999 V2000
    4.9140    1.8086   16.9728 H   0  0  0  0  0  0  0  0  0  0  0  0
    5.3848    1.3031   17.8132 C   0  0  0  0  0  0  0  0  0  0  0  0
    6.5448    0.6814   17.5430 N   0  0  0  0  0  0  0  0  0  0  0  0
    7.1496    0.0528   18.5555 C   0  0  0  0  0  0  0  0  0  0  0  0
    8.1125   -0.4040   18.3247 H   0  0  0  0  0  0  0  0  0  0  0  0
    6.6479    0.0048   19.8747 C   0  0  0  0  0  0  0  0  0  0  0  0
    7.3815   -0.6483   20.9616 C   0  0  0  0  0  0  0  0  0  0  0  0
    7.5297   -0.3303   22.3035 C   0  0  0  0  0  0  0  0  0  0  0  0
    7.1245    0.9059   22.9495 C   0  0  0  0  0  0  0  0  0  0  0  0
    7.4676    2.1103   22.3642 C   0  0  0  0  0  0  0  0  0  0  0  0
    8.0208    2.1487   21.4261 H   0  0  0  0  0  0  0  0  0  0  0  0
    7.1527    3.3209   22.8791 N   0  0  0  0  0  0  0  0  0  0  0  0
    6.4601    3.3553   23.9972 C   0  0  0  0  0  0  0  0  0  0  0  0
    6.2333    4.3433   24.3955 H   0  0  0  0  0  0  0  0  0  0  0  0
    6.0064    2.1976   24.6963 C   0  0  0  0  0  0  0  0  0  0  0  0
    5.2536    2.2668   25.9095 C   0  0  0  0  0  0  0  0  0  0  0  0
    5.0268    3.2413   26.3377 H   0  0  0  0  0  0  0  0  0  0  0  0
    4.8260    1.1138   26.5240 C   0  0  0  0  0  0  0  0  0  0  0  0
    4.2574    1.1669   27.4497 H   0  0  0  0  0  0  0  0  0  0  0  0
    5.1174   -0.1604   25.9617 C   0  0  0  0  0  0  0  0  0  0  0  0
    4.7687   -1.0659   26.4542 H   0  0  0  0  0  0  0  0  0  0  0  0
    5.8510   -0.2498   24.7986 C   0  0  0  0  0  0  0  0  0  0  0  0
    6.0923   -1.2043   24.3366 H   0  0  0  0  0  0  0  0  0  0  0  0
    6.3356    0.9244   24.1463 C   0  0  0  0  0  0  0  0  0  0  0  0
    8.2251   -1.3294   22.9425 N   0  0  0  0  0  0  0  0  0  0  0  0
    8.5150   -2.2105   22.0257 C   0  0  0  0  0  0  0  0  0  0  0  0
    9.0685   -3.1280   22.1767 H   0  0  0  0  0  0  0  0  0  0  0  0
    8.0409   -1.8424   20.8038 N   0  0  0  0  0  0  0  0  0  0  0  0
    8.0564   -2.3911   19.9607 H   0  0  0  0  0  0  0  0  0  0  0  0
    5.4280    0.6549   20.1322 C   0  0  0  0  0  0  0  0  0  0  0  0
    5.0273    0.6437   21.1495 H   0  0  0  0  0  0  0  0  0  0  0  0
    4.7934    1.3155   19.0813 C   0  0  0  0  0  0  0  0  0  0  0  0
    3.8664    1.8509   19.2360 H   0  0  0  0  0  0  0  0  0  0  0  0
  1  2  1  0
  2  3  2  0
  3  4  1  0
  4  5  1  0
  4  6  2  0
  6  7  1  0
  7  8  2  0
  8  9  1  0
  9 10  2  0
 10 11  1  0
 10 12  1  0
 12 13  2  0
 13 14  1  0
 13 15  1  0
 15 16  2  0
 16 17  1  0
 16 18  1  0
 18 19  1  0
 18 20  2  0
 20 21  1  0
 20 22  1  0
 22 23  1  0
 22 24  2  0
  8 25  1  0
 25 26  2  0
 26 27  1  0
 26 28  1  0
 28 29  1  0
  6 30  1  0
 30 31  1  0
 30 32  2  0
 32 33  1  0
 32  2  1  0
 28  7  1  0
 24  9  1  0
 24 15  1  0
M  END
>  <cnnaffinity>  (1) 
-5.08058

>  <filename>  (1) 
c1cncc(-c2[nH]cnc2-c2cncc3ccccc23)c1

$$$$
