
     RDKit          3D

 38 40  0  0  0  0  0  0  0  0999 V2000
    4.9270    1.8288   16.9976 H   0  0  0  0  0  0  0  0  0  0  0  0
    5.4012    1.2919   17.8180 C   0  0  0  0  0  0  0  0  0  0  0  0
    6.5490    0.6596   17.5303 N   0  0  0  0  0  0  0  0  0  0  0  0
    7.1704    0.0245   18.5365 C   0  0  0  0  0  0  0  0  0  0  0  0
    8.1041   -0.4798   18.2792 H   0  0  0  0  0  0  0  0  0  0  0  0
    6.6998   -0.0344   19.8794 C   0  0  0  0  0  0  0  0  0  0  0  0
    7.3987   -0.7107   20.9064 N   0  0  0  0  0  0  0  0  0  0  0  0
    7.1279   -1.6156   21.2489 H   0  0  0  0  0  0  0  0  0  0  0  0
    8.3165   -0.1220   21.8423 C   0  0  0  0  0  0  0  0  0  0  0  0
    8.7098   -1.1828   22.7362 N   0  0  0  0  0  0  0  0  0  0  0  0
    9.5280   -2.2418   22.1472 C   0  0  0  0  0  0  0  0  0  0  0  0
    8.9257   -2.9717   21.5644 H   0  0  0  0  0  0  0  0  0  0  0  0
   10.2458   -1.8087   21.4424 H   0  0  0  0  0  0  0  0  0  0  0  0
   10.2720   -2.9366   23.2896 C   0  0  0  0  0  0  0  0  0  0  0  0
   10.8121   -2.1586   23.8372 H   0  0  0  0  0  0  0  0  0  0  0  0
   11.0386   -3.6193   22.9221 H   0  0  0  0  0  0  0  0  0  0  0  0
    9.2734   -3.5872   24.2539 C   0  0  0  0  0  0  0  0  0  0  0  0
    9.7977   -4.1030   25.0652 H   0  0  0  0  0  0  0  0  0  0  0  0
    8.6601   -4.3461   23.7388 H   0  0  0  0  0  0  0  0  0  0  0  0
    8.3868   -2.4648   24.8140 C   0  0  0  0  0  0  0  0  0  0  0  0
    9.0163   -1.7730   25.3910 H   0  0  0  0  0  0  0  0  0  0  0  0
    7.6307   -2.8568   25.5027 H   0  0  0  0  0  0  0  0  0  0  0  0
    7.7087   -1.6697   23.6857 C   0  0  0  0  0  0  0  0  0  0  0  0
    6.9402   -2.3074   23.2040 H   0  0  0  0  0  0  0  0  0  0  0  0
    7.1646   -0.8224   24.1189 H   0  0  0  0  0  0  0  0  0  0  0  0
    9.4823    0.6535   21.1654 C   0  0  0  0  0  0  0  0  0  0  0  0
   10.4698    0.3772   21.5387 H   0  0  0  0  0  0  0  0  0  0  0  0
    9.4490    0.5659   20.0819 H   0  0  0  0  0  0  0  0  0  0  0  0
    8.9549    1.9873   21.7365 C   0  0  0  0  0  0  0  0  0  0  0  0
    9.6798    2.5304   22.3500 H   0  0  0  0  0  0  0  0  0  0  0  0
    8.5385    2.6696   20.9874 H   0  0  0  0  0  0  0  0  0  0  0  0
    7.8938    1.2014   22.5413 C   0  0  0  0  0  0  0  0  0  0  0  0
    6.8567    1.4765   22.3675 H   0  0  0  0  0  0  0  0  0  0  0  0
    8.1019    1.1900   23.6138 H   0  0  0  0  0  0  0  0  0  0  0  0
    5.4736    0.6018   20.1321 C   0  0  0  0  0  0  0  0  0  0  0  0
    5.0583    0.5818   21.1421 H   0  0  0  0  0  0  0  0  0  0  0  0
    4.8239    1.2755   19.0888 C   0  0  0  0  0  0  0  0  0  0  0  0
    3.8994    1.8097   19.2636 H   0  0  0  0  0  0  0  0  0  0  0  0
  1  2  1  0
  2  3  2  0
  3  4  1  0
  4  5  1  0
  4  6  2  0
  6  7  1  0
  7  8  1  0
  7  9  1  0
  9 10  1  0
 10 11  1  0
 11 12  1  0
 11 13  1  0
 11 14  1  0
 14 15  1  0
 14 16  1  0
 14 17  1  0
 17 18  1  0
 17 19  1  0
 17 20  1  0
 20 21  1  0
 20 22  1  0
 20 23  1  0
 23 24  1  0
 23 25  1  0
  9 26  1  0
 26 27  1  0
 26 28  1  0
 26 29  1  0
 29 30  1  0
 29 31  1  0
 29 32  1  0
 32 33  1  0
 32 34  1  0
  6 35  1  0
 35 36  1  0
 35 37  2  0
 37 38  1  0
 37  2  1  0
 32  9  1  0
 23 10  1  0
M  END
>  <cnnaffinity>  (1) 
-5.0303

>  <filename>  (1) 
c1cncc(NC2(N3CCCCC3)CCC2)c1

$$$$
