
     RDKit          3D

 29 31  0  0  0  0  0  0  0  0999 V2000
    4.9675    1.8227   17.0567 H   0  0  0  0  0  0  0  0  0  0  0  0
    5.4362    1.2754   17.8713 C   0  0  0  0  0  0  0  0  0  0  0  0
    6.5877    0.6492   17.5810 N   0  0  0  0  0  0  0  0  0  0  0  0
    7.1975   -0.0062   18.5812 C   0  0  0  0  0  0  0  0  0  0  0  0
    8.1258   -0.5146   18.3279 H   0  0  0  0  0  0  0  0  0  0  0  0
    6.7028   -0.0938   19.9110 C   0  0  0  0  0  0  0  0  0  0  0  0
    7.3661   -0.7764   20.9487 N   0  0  0  0  0  0  0  0  0  0  0  0
    6.9289   -1.5791   21.4133 H   0  0  0  0  0  0  0  0  0  0  0  0
    8.7364   -0.7384   21.1597 C   0  0  0  0  0  0  0  0  0  0  0  0
    9.7190    0.2055   20.7826 C   0  0  0  0  0  0  0  0  0  0  0  0
    9.5761    1.1202   20.2178 H   0  0  0  0  0  0  0  0  0  0  0  0
   10.9261   -0.1730   21.1807 N   0  0  0  0  0  0  0  0  0  0  0  0
   10.7477   -1.3289   21.8291 N   0  0  0  0  0  0  0  0  0  0  0  0
   11.5944   -1.8240   22.0848 H   0  0  0  0  0  0  0  0  0  0  0  0
    9.4283   -1.7105   21.8621 C   0  0  0  0  0  0  0  0  0  0  0  0
    8.8358   -2.8733   22.5101 C   0  0  0  0  0  0  0  0  0  0  0  0
    7.5802   -3.1572   22.5099 N   0  0  0  0  0  0  0  0  0  0  0  0
    7.4262   -4.4544   23.1825 C   0  0  0  0  0  0  0  0  0  0  0  0
    6.6136   -4.4323   23.9177 H   0  0  0  0  0  0  0  0  0  0  0  0
    7.1771   -5.2297   22.4437 H   0  0  0  0  0  0  0  0  0  0  0  0
    8.7943   -4.7493   23.8421 C   0  0  0  0  0  0  0  0  0  0  0  0
    9.1308   -5.7762   23.6709 H   0  0  0  0  0  0  0  0  0  0  0  0
    8.7809   -4.5771   24.9276 H   0  0  0  0  0  0  0  0  0  0  0  0
    9.6402   -3.7973   23.1339 N   0  0  0  0  0  0  0  0  0  0  0  0
   10.4905   -3.4626   23.5500 H   0  0  0  0  0  0  0  0  0  0  0  0
    5.4886    0.5507   20.1778 C   0  0  0  0  0  0  0  0  0  0  0  0
    5.0810    0.5170   21.1903 H   0  0  0  0  0  0  0  0  0  0  0  0
    4.8508    1.2471   19.1430 C   0  0  0  0  0  0  0  0  0  0  0  0
    3.9193    1.7758   19.3162 H   0  0  0  0  0  0  0  0  0  0  0  0
  1  2  1  0
  2  3  2  0
  3  4  1  0
  4  5  1  0
  4  6  2  0
  6  7  1  0
  7  8  1  0
  7  9  1  0
  9 10  1  0
 10 11  1  0
 10 12  2  0
 12 13  1  0
 13 14  1  0
 13 15  1  0
 15 16  1  0
 16 17  2  0
 17 18  1  0
 18 19  1  0
 18 20  1  0
 18 21  1  0
 21 22  1  0
 21 23  1  0
 21 24  1  0
 24 25  1  0
  6 26  1  0
 26 27  1  0
 26 28  2  0
 28 29  1  0
 28  2  1  0
 15  9  2  0
 24 16  1  0
M  END
>  <cnnaffinity>  (1) 
-5.09488

>  <filename>  (1) 
c1cncc(Nc2cn[nH]c2C2=NCCN2)c1

$$$$
