
     RDKit          3D

 36 40  0  0  0  0  0  0  0  0999 V2000
    4.9566    1.7984   16.9770 H   0  0  0  0  0  0  0  0  0  0  0  0
    5.4061    1.2883   17.8280 C   0  0  0  0  0  0  0  0  0  0  0  0
    6.5668    0.6567   17.5921 N   0  0  0  0  0  0  0  0  0  0  0  0
    7.1575    0.0359   18.6166 C   0  0  0  0  0  0  0  0  0  0  0  0
    8.1002   -0.4545   18.3839 H   0  0  0  0  0  0  0  0  0  0  0  0
    6.6397    0.0178   19.9221 C   0  0  0  0  0  0  0  0  0  0  0  0
    7.3705   -0.6654   20.9883 C   0  0  0  0  0  0  0  0  0  0  0  0
    7.9859   -1.8642   20.7454 N   0  0  0  0  0  0  0  0  0  0  0  0
    8.3955   -2.2579   21.9211 C   0  0  0  0  0  0  0  0  0  0  0  0
    9.1695   -3.6626   22.6012 S   0  0  0  0  0  0  0  0  0  0  0  0
    9.2931   -2.8719   24.1593 C   0  0  0  0  0  0  0  0  0  0  0  0
    9.8185   -3.3779   24.9612 H   0  0  0  0  0  0  0  0  0  0  0  0
    8.6819   -1.6744   24.1628 C   0  0  0  0  0  0  0  0  0  0  0  0
    8.5095   -0.9609   24.9611 H   0  0  0  0  0  0  0  0  0  0  0  0
    8.1520   -1.3580   22.9150 N   0  0  0  0  0  0  0  0  0  0  0  0
    7.4855   -0.2957   22.3243 C   0  0  0  0  0  0  0  0  0  0  0  0
    7.1356    0.9406   23.0212 C   0  0  0  0  0  0  0  0  0  0  0  0
    6.7160    0.8755   24.2755 N   0  0  0  0  0  0  0  0  0  0  0  0
    6.3687    2.0316   24.9011 C   0  0  0  0  0  0  0  0  0  0  0  0
    5.9132    1.9314   26.2481 C   0  0  0  0  0  0  0  0  0  0  0  0
    5.8754    0.9264   26.6576 H   0  0  0  0  0  0  0  0  0  0  0  0
    5.5668    3.0643   26.9485 C   0  0  0  0  0  0  0  0  0  0  0  0
    5.2228    2.9936   27.9792 H   0  0  0  0  0  0  0  0  0  0  0  0
    5.6596    4.3458   26.3294 C   0  0  0  0  0  0  0  0  0  0  0  0
    5.3825    5.2295   26.8963 H   0  0  0  0  0  0  0  0  0  0  0  0
    6.0955    4.4726   25.0299 C   0  0  0  0  0  0  0  0  0  0  0  0
    6.1737    5.4436   24.5431 H   0  0  0  0  0  0  0  0  0  0  0  0
    6.4642    3.3192   24.2815 C   0  0  0  0  0  0  0  0  0  0  0  0
    6.9399    3.3603   22.9404 C   0  0  0  0  0  0  0  0  0  0  0  0
    7.0282    4.3201   22.4311 H   0  0  0  0  0  0  0  0  0  0  0  0
    7.2697    2.1841   22.3195 C   0  0  0  0  0  0  0  0  0  0  0  0
    7.6193    2.1456   21.2971 H   0  0  0  0  0  0  0  0  0  0  0  0
    5.4065    0.6561   20.1460 C   0  0  0  0  0  0  0  0  0  0  0  0
    4.9616    0.6635   21.1428 H   0  0  0  0  0  0  0  0  0  0  0  0
    4.7883    1.3072   19.0827 C   0  0  0  0  0  0  0  0  0  0  0  0
    3.8579    1.8477   19.2184 H   0  0  0  0  0  0  0  0  0  0  0  0
  1  2  1  0
  2  3  2  0
  3  4  1  0
  4  5  1  0
  4  6  2  0
  6  7  1  0
  7  8  1  0
  8  9  2  0
  9 10  1  0
 10 11  1  0
 11 12  1  0
 11 13  2  0
 13 14  1  0
 13 15  1  0
 15 16  1  0
 16 17  1  0
 17 18  2  0
 18 19  1  0
 19 20  2  0
 20 21  1  0
 20 22  1  0
 22 23  1  0
 22 24  2  0
 24 25  1  0
 24 26  1  0
 26 27  1  0
 26 28  2  0
 28 29  1  0
 29 30  1  0
 29 31  2  0
 31 32  1  0
  6 33  1  0
 33 34  1  0
 33 35  2  0
 35 36  1  0
 35  2  1  0
 16  7  2  0
 31 17  1  0
 15  9  1  0
 28 19  1  0
M  END
>  <cnnaffinity>  (1) 
-5.90886

>  <filename>  (1) 
c1cncc(-c2nc3sccn3c2-c2ccc3ccccc3n2)c1

$$$$
