
     RDKit          3D

 23 25  0  0  0  0  0  0  0  0999 V2000
    7.3475    1.0384   27.6336 H   0  0  0  0  0  0  0  0  0  0  0  0
    7.1055    1.1526   26.5830 C   0  0  0  0  0  0  0  0  0  0  0  0
    6.4026    2.1387   26.1373 N   0  0  0  0  0  0  0  0  0  0  0  0
    6.2561    2.0256   24.7720 C   0  0  0  0  0  0  0  0  0  0  0  0
    5.6888    2.7748   24.2368 H   0  0  0  0  0  0  0  0  0  0  0  0
    6.8642    0.9376   24.2188 C   0  0  0  0  0  0  0  0  0  0  0  0
    6.8030    0.6598   22.8598 O   0  0  0  0  0  0  0  0  0  0  0  0
    7.4357   -0.3991   22.3066 C   0  0  0  0  0  0  0  0  0  0  0  0
    8.1976   -1.2894   22.8791 N   0  0  0  0  0  0  0  0  0  0  0  0
    8.5962   -2.1005   21.8610 N   0  0  0  0  0  0  0  0  0  0  0  0
    8.1129   -1.7337   20.7396 N   0  0  0  0  0  0  0  0  0  0  0  0
    7.3514   -0.6379   20.9742 N   0  0  0  0  0  0  0  0  0  0  0  0
    6.6546    0.0175   19.9077 C   0  0  0  0  0  0  0  0  0  0  0  0
    7.1820    0.0535   18.5982 C   0  0  0  0  0  0  0  0  0  0  0  0
    8.1280   -0.4373   18.3776 H   0  0  0  0  0  0  0  0  0  0  0  0
    6.5714    0.6750   17.5860 N   0  0  0  0  0  0  0  0  0  0  0  0
    5.4039    1.2907   17.8416 C   0  0  0  0  0  0  0  0  0  0  0  0
    4.9161    1.7789   16.9976 H   0  0  0  0  0  0  0  0  0  0  0  0
    4.8068    1.3035   19.1068 C   0  0  0  0  0  0  0  0  0  0  0  0
    3.8758    1.8406   19.2628 H   0  0  0  0  0  0  0  0  0  0  0  0
    5.4377    0.6481   20.1674 C   0  0  0  0  0  0  0  0  0  0  0  0
    5.0080    0.6347   21.1693 H   0  0  0  0  0  0  0  0  0  0  0  0
    7.6674   -0.0156   25.4322 S   0  0  0  0  0  0  0  0  0  0  0  0
  1  2  1  0
  2  3  2  0
  3  4  1  0
  4  5  1  0
  4  6  2  0
  6  7  1  0
  7  8  1  0
  8  9  2  0
  9 10  1  0
 10 11  2  0
 11 12  1  0
 12 13  1  0
 13 14  2  0
 14 15  1  0
 14 16  1  0
 16 17  2  0
 17 18  1  0
 17 19  1  0
 19 20  1  0
 19 21  2  0
 21 22  1  0
  6 23  1  0
 23  2  1  0
 12  8  1  0
 21 13  1  0
M  END
>  <cnnaffinity>  (1) 
-4.72607

>  <filename>  (1) 
c1cncc(-n2nnnc2Oc2cncs2)c1

$$$$
