
     RDKit          3D

 30 32  0  0  0  0  0  0  0  0999 V2000
    4.9121    1.7844   16.9913 H   0  0  0  0  0  0  0  0  0  0  0  0
    5.3979    1.2965   17.8320 C   0  0  0  0  0  0  0  0  0  0  0  0
    6.5607    0.6808   17.5652 N   0  0  0  0  0  0  0  0  0  0  0  0
    7.1714    0.0762   18.5891 C   0  0  0  0  0  0  0  0  0  0  0  0
    8.1138   -0.4237   18.3688 H   0  0  0  0  0  0  0  0  0  0  0  0
    6.6581    0.0120   19.8997 C   0  0  0  0  0  0  0  0  0  0  0  0
    7.3869   -0.6965   20.9777 C   0  0  0  0  0  0  0  0  0  0  0  0
    6.7208   -1.5339   21.8991 C   0  0  0  0  0  0  0  0  0  0  0  0
    5.6528   -1.6857   21.7895 H   0  0  0  0  0  0  0  0  0  0  0  0
    7.3269   -2.2034   22.8843 N   0  0  0  0  0  0  0  0  0  0  0  0
    8.6511   -2.0383   22.9947 C   0  0  0  0  0  0  0  0  0  0  0  0
    9.1249   -2.5706   23.8101 H   0  0  0  0  0  0  0  0  0  0  0  0
    9.4316   -1.2462   22.1377 C   0  0  0  0  0  0  0  0  0  0  0  0
   10.9086   -1.0718   22.3612 C   0  0  0  0  0  0  0  0  0  0  0  0
   11.3514   -1.9896   22.7637 H   0  0  0  0  0  0  0  0  0  0  0  0
   11.4004   -0.8928   21.3972 H   0  0  0  0  0  0  0  0  0  0  0  0
   11.2113    0.1006   23.2759 C   0  0  0  0  0  0  0  0  0  0  0  0
   10.7426    0.0483   24.2544 H   0  0  0  0  0  0  0  0  0  0  0  0
   12.5587    0.7468   23.2063 C   0  0  0  0  0  0  0  0  0  0  0  0
   13.0180    1.1021   24.1238 H   0  0  0  0  0  0  0  0  0  0  0  0
   13.2608    0.3400   22.4843 H   0  0  0  0  0  0  0  0  0  0  0  0
   11.3534    1.4731   22.6846 C   0  0  0  0  0  0  0  0  0  0  0  0
   11.2381    1.5581   21.6064 H   0  0  0  0  0  0  0  0  0  0  0  0
   10.9907    2.3345   23.2369 H   0  0  0  0  0  0  0  0  0  0  0  0
    8.7729   -0.5642   21.1119 C   0  0  0  0  0  0  0  0  0  0  0  0
    9.3137    0.0987   20.4334 H   0  0  0  0  0  0  0  0  0  0  0  0
    5.4324    0.6474   20.1498 C   0  0  0  0  0  0  0  0  0  0  0  0
    5.0121    0.6362   21.1592 H   0  0  0  0  0  0  0  0  0  0  0  0
    4.8028    1.3151   19.0992 C   0  0  0  0  0  0  0  0  0  0  0  0
    3.8708    1.8460   19.2556 H   0  0  0  0  0  0  0  0  0  0  0  0
  1  2  1  0
  2  3  2  0
  3  4  1  0
  4  5  1  0
  4  6  2  0
  6  7  1  0
  7  8  2  0
  8  9  1  0
  8 10  1  0
 10 11  2  0
 11 12  1  0
 11 13  1  0
 13 14  1  0
 14 15  1  0
 14 16  1  0
 14 17  1  0
 17 18  1  0
 17 19  1  0
 19 20  1  0
 19 21  1  0
 19 22  1  0
 22 23  1  0
 22 24  1  0
 13 25  2  0
 25 26  1  0
  6 27  1  0
 27 28  1  0
 27 29  2  0
 29 30  1  0
 29  2  1  0
 25  7  1  0
 22 17  1  0
M  END
>  <cnnaffinity>  (1) 
-5.27239

>  <filename>  (1) 
c1cncc(-c2cncc(CC3CC3)c2)c1

$$$$
