
     RDKit          3D

 40 42  0  0  0  0  0  0  0  0999 V2000
    4.9065    1.8123   16.9670 H   0  0  0  0  0  0  0  0  0  0  0  0
    5.3846    1.3124   17.8104 C   0  0  0  0  0  0  0  0  0  0  0  0
    6.5479    0.6953   17.5481 N   0  0  0  0  0  0  0  0  0  0  0  0
    7.1674    0.0876   18.5687 C   0  0  0  0  0  0  0  0  0  0  0  0
    8.0997   -0.4214   18.3189 H   0  0  0  0  0  0  0  0  0  0  0  0
    6.6741    0.0369   19.8874 C   0  0  0  0  0  0  0  0  0  0  0  0
    7.3349   -0.6916   20.9871 C   0  0  0  0  0  0  0  0  0  0  0  0
    6.8345   -1.6579   21.8205 C   0  0  0  0  0  0  0  0  0  0  0  0
    5.8328   -2.0718   21.7749 H   0  0  0  0  0  0  0  0  0  0  0  0
    7.7787   -2.0919   22.7068 N   0  0  0  0  0  0  0  0  0  0  0  0
    8.8410   -1.3712   22.4370 C   0  0  0  0  0  0  0  0  0  0  0  0
    9.7876   -1.4074   22.9718 H   0  0  0  0  0  0  0  0  0  0  0  0
    8.6379   -0.5018   21.4019 N   0  0  0  0  0  0  0  0  0  0  0  0
    9.5652    0.5001   20.8935 C   0  0  0  0  0  0  0  0  0  0  0  0
   10.5387    0.3208   21.3603 H   0  0  0  0  0  0  0  0  0  0  0  0
    9.6663    0.3184   19.8223 H   0  0  0  0  0  0  0  0  0  0  0  0
    9.1478    1.9645   21.0762 C   0  0  0  0  0  0  0  0  0  0  0  0
    8.2497    2.1590   20.4737 H   0  0  0  0  0  0  0  0  0  0  0  0
    9.9639    2.5697   20.6674 H   0  0  0  0  0  0  0  0  0  0  0  0
    8.9376    2.4933   22.4948 C   0  0  0  0  0  0  0  0  0  0  0  0
    8.9189    3.5959   22.4021 H   0  0  0  0  0  0  0  0  0  0  0  0
   10.1129    2.1409   23.4174 C   0  0  0  0  0  0  0  0  0  0  0  0
   10.1808    1.0463   23.5287 H   0  0  0  0  0  0  0  0  0  0  0  0
   11.0664    2.4682   22.9741 H   0  0  0  0  0  0  0  0  0  0  0  0
    9.9392    2.7516   24.8084 C   0  0  0  0  0  0  0  0  0  0  0  0
   10.7562    2.3552   25.4177 H   0  0  0  0  0  0  0  0  0  0  0  0
   10.0289    3.8484   24.7451 H   0  0  0  0  0  0  0  0  0  0  0  0
    8.5853    2.3813   25.4393 C   0  0  0  0  0  0  0  0  0  0  0  0
    8.4658    2.8833   26.4088 H   0  0  0  0  0  0  0  0  0  0  0  0
    8.5847    1.3005   25.6507 H   0  0  0  0  0  0  0  0  0  0  0  0
    7.4060    2.7158   24.5053 C   0  0  0  0  0  0  0  0  0  0  0  0
    7.3321    3.8096   24.3876 H   0  0  0  0  0  0  0  0  0  0  0  0
    6.4582    2.3836   24.9484 H   0  0  0  0  0  0  0  0  0  0  0  0
    7.5990    2.0689   23.1235 C   0  0  0  0  0  0  0  0  0  0  0  0
    6.7781    2.3419   22.4449 H   0  0  0  0  0  0  0  0  0  0  0  0
    7.5739    0.9741   23.2161 H   0  0  0  0  0  0  0  0  0  0  0  0
    5.4435    0.6675   20.1276 C   0  0  0  0  0  0  0  0  0  0  0  0
    5.0164    0.6322   21.1293 H   0  0  0  0  0  0  0  0  0  0  0  0
    4.7997    1.3245   19.0784 C   0  0  0  0  0  0  0  0  0  0  0  0
    3.8644    1.8471   19.2324 H   0  0  0  0  0  0  0  0  0  0  0  0
  1  2  1  0
  2  3  2  0
  3  4  1  0
  4  5  1  0
  4  6  2  0
  6  7  1  0
  7  8  2  0
  8  9  1  0
  8 10  1  0
 10 11  2  0
 11 12  1  0
 11 13  1  0
 13 14  1  0
 14 15  1  0
 14 16  1  0
 14 17  1  0
 17 18  1  0
 17 19  1  0
 17 20  1  0
 20 21  1  0
 20 22  1  0
 22 23  1  0
 22 24  1  0
 22 25  1  0
 25 26  1  0
 25 27  1  0
 25 28  1  0
 28 29  1  0
 28 30  1  0
 28 31  1  0
 31 32  1  0
 31 33  1  0
 31 34  1  0
 34 35  1  0
 34 36  1  0
  6 37  1  0
 37 38  1  0
 37 39  2  0
 39 40  1  0
 39  2  1  0
 13  7  1  0
 34 20  1  0
M  END
>  <cnnaffinity>  (1) 
-5.17532

>  <filename>  (1) 
c1cncc(-c2cncn2CCC2CCCCC2)c1

$$$$
