
     RDKit          3D

 34 38  0  0  0  0  0  0  0  0999 V2000
    4.9127    1.8181   16.9691 H   0  0  0  0  0  0  0  0  0  0  0  0
    5.3739    1.3056   17.8161 C   0  0  0  0  0  0  0  0  0  0  0  0
    6.5361    0.6854   17.5614 N   0  0  0  0  0  0  0  0  0  0  0  0
    7.1509    0.0772   18.5803 C   0  0  0  0  0  0  0  0  0  0  0  0
    8.1015   -0.3881   18.3271 H   0  0  0  0  0  0  0  0  0  0  0  0
    6.6642    0.0271   19.9067 C   0  0  0  0  0  0  0  0  0  0  0  0
    7.4242   -0.6741   20.9607 C   0  0  0  0  0  0  0  0  0  0  0  0
    8.3472   -1.6942   20.9100 C   0  0  0  0  0  0  0  0  0  0  0  0
    8.7724   -2.1117   20.0163 H   0  0  0  0  0  0  0  0  0  0  0  0
    8.7872   -2.1037   22.1390 N   0  0  0  0  0  0  0  0  0  0  0  0
    8.1614   -1.2975   22.9517 C   0  0  0  0  0  0  0  0  0  0  0  0
    8.2252   -0.9435   24.6350 S   0  0  0  0  0  0  0  0  0  0  0  0
    7.1135    0.3916   24.3016 C   0  0  0  0  0  0  0  0  0  0  0  0
    6.6503    1.2857   25.3274 C   0  0  0  0  0  0  0  0  0  0  0  0
    5.8143    2.3512   25.0917 C   0  0  0  0  0  0  0  0  0  0  0  0
    5.3812    2.6912   24.1538 H   0  0  0  0  0  0  0  0  0  0  0  0
    5.5692    2.9885   26.2749 N   0  0  0  0  0  0  0  0  0  0  0  0
    4.9900    3.8001   26.4017 H   0  0  0  0  0  0  0  0  0  0  0  0
    6.2394    2.3538   27.2967 C   0  0  0  0  0  0  0  0  0  0  0  0
    6.2893    2.6480   28.6690 C   0  0  0  0  0  0  0  0  0  0  0  0
    5.7410    3.4842   29.0872 H   0  0  0  0  0  0  0  0  0  0  0  0
    7.0864    1.8487   29.4765 C   0  0  0  0  0  0  0  0  0  0  0  0
    7.1426    2.0292   30.5448 H   0  0  0  0  0  0  0  0  0  0  0  0
    7.8376    0.7857   28.9358 C   0  0  0  0  0  0  0  0  0  0  0  0
    8.5153    0.2400   29.5842 H   0  0  0  0  0  0  0  0  0  0  0  0
    7.7529    0.4655   27.5862 C   0  0  0  0  0  0  0  0  0  0  0  0
    8.3026   -0.3847   27.2017 H   0  0  0  0  0  0  0  0  0  0  0  0
    6.9476    1.2639   26.7436 C   0  0  0  0  0  0  0  0  0  0  0  0
    6.7378    0.5398   23.0656 N   0  0  0  0  0  0  0  0  0  0  0  0
    7.3239   -0.4228   22.3225 N   0  0  0  0  0  0  0  0  0  0  0  0
    5.4337    0.6708   20.1428 C   0  0  0  0  0  0  0  0  0  0  0  0
    5.0195    0.6700   21.1487 H   0  0  0  0  0  0  0  0  0  0  0  0
    4.7848    1.3161   19.0844 C   0  0  0  0  0  0  0  0  0  0  0  0
    3.8507    1.8508   19.2234 H   0  0  0  0  0  0  0  0  0  0  0  0
  1  2  1  0
  2  3  2  0
  3  4  1  0
  4  5  1  0
  4  6  2  0
  6  7  1  0
  7  8  2  0
  8  9  1  0
  8 10  1  0
 10 11  2  0
 11 12  1  0
 12 13  1  0
 13 14  1  0
 14 15  2  0
 15 16  1  0
 15 17  1  0
 17 18  1  0
 17 19  1  0
 19 20  2  0
 20 21  1  0
 20 22  1  0
 22 23  1  0
 22 24  2  0
 24 25  1  0
 24 26  1  0
 26 27  1  0
 26 28  2  0
 13 29  2  0
 29 30  1  0
  6 31  1  0
 31 32  1  0
 31 33  2  0
 33 34  1  0
 33  2  1  0
 30  7  1  0
 30 11  1  0
 28 14  1  0
 28 19  1  0
M  END
>  <cnnaffinity>  (1) 
-5.28748

>  <filename>  (1) 
c1cncc(-c2cnc3sc(-c4c[nH]c5ccccc45)nn23)c1

$$$$
