
     RDKit          3D

 38 40  0  0  0  0  0  0  0  0999 V2000
    4.9209    1.7907   16.9865 H   0  0  0  0  0  0  0  0  0  0  0  0
    5.3937    1.2974   17.8330 C   0  0  0  0  0  0  0  0  0  0  0  0
    6.5557    0.6799   17.5734 N   0  0  0  0  0  0  0  0  0  0  0  0
    7.1620    0.0670   18.5969 C   0  0  0  0  0  0  0  0  0  0  0  0
    8.1152   -0.4117   18.3789 H   0  0  0  0  0  0  0  0  0  0  0  0
    6.6442    0.0124   19.9001 C   0  0  0  0  0  0  0  0  0  0  0  0
    7.4186   -0.7050   20.9788 C   0  0  0  0  0  0  0  0  0  0  0  0
    6.8198   -0.7845   21.8930 H   0  0  0  0  0  0  0  0  0  0  0  0
    7.7028   -1.7197   20.6816 H   0  0  0  0  0  0  0  0  0  0  0  0
    8.6579   -0.0203   21.3334 N   0  0  0  0  0  0  0  0  0  0  0  0
    9.8294   -0.3519   20.7671 N   0  0  0  0  0  0  0  0  0  0  0  0
   10.6964    0.4979   21.1838 N   0  0  0  0  0  0  0  0  0  0  0  0
   10.1289    1.4098   21.9963 N   0  0  0  0  0  0  0  0  0  0  0  0
    8.8558    1.0887   22.0766 C   0  0  0  0  0  0  0  0  0  0  0  0
    7.8208    1.7527   22.9096 C   0  0  0  0  0  0  0  0  0  0  0  0
    6.8818    1.8080   22.3447 H   0  0  0  0  0  0  0  0  0  0  0  0
    8.1409    2.7842   23.0825 H   0  0  0  0  0  0  0  0  0  0  0  0
    7.5948    1.0428   24.2592 C   0  0  0  0  0  0  0  0  0  0  0  0
    7.4113   -0.0281   24.0669 H   0  0  0  0  0  0  0  0  0  0  0  0
    6.3546    1.6005   24.9731 C   0  0  0  0  0  0  0  0  0  0  0  0
    6.4874    2.6845   25.1084 H   0  0  0  0  0  0  0  0  0  0  0  0
    5.4731    1.4755   24.3303 H   0  0  0  0  0  0  0  0  0  0  0  0
    6.1164    0.9365   26.3378 C   0  0  0  0  0  0  0  0  0  0  0  0
    5.2444    1.3792   26.8335 H   0  0  0  0  0  0  0  0  0  0  0  0
    5.8751   -0.1244   26.1774 H   0  0  0  0  0  0  0  0  0  0  0  0
    7.3619    1.0317   27.2336 C   0  0  0  0  0  0  0  0  0  0  0  0
    7.5432    2.0874   27.4845 H   0  0  0  0  0  0  0  0  0  0  0  0
    7.1936    0.5170   28.1880 H   0  0  0  0  0  0  0  0  0  0  0  0
    8.5971    0.4587   26.5196 C   0  0  0  0  0  0  0  0  0  0  0  0
    9.4909    0.5407   27.1361 H   0  0  0  0  0  0  0  0  0  0  0  0
    8.4663   -0.6220   26.3734 H   0  0  0  0  0  0  0  0  0  0  0  0
    8.8375    1.1289   25.1622 C   0  0  0  0  0  0  0  0  0  0  0  0
    9.7122    0.6919   24.6646 H   0  0  0  0  0  0  0  0  0  0  0  0
    9.0883    2.1897   25.3136 H   0  0  0  0  0  0  0  0  0  0  0  0
    5.4273    0.6515   20.1501 C   0  0  0  0  0  0  0  0  0  0  0  0
    4.9935    0.6367   21.1563 H   0  0  0  0  0  0  0  0  0  0  0  0
    4.7953    1.3150   19.0968 C   0  0  0  0  0  0  0  0  0  0  0  0
    3.8668    1.8500   19.2446 H   0  0  0  0  0  0  0  0  0  0  0  0
  1  2  1  0
  2  3  2  0
  3  4  1  0
  4  5  1  0
  4  6  2  0
  6  7  1  0
  7  8  1  0
  7  9  1  0
  7 10  1  0
 10 11  1  0
 11 12  2  0
 12 13  1  0
 13 14  2  0
 14 15  1  0
 15 16  1  0
 15 17  1  0
 15 18  1  0
 18 19  1  0
 18 20  1  0
 20 21  1  0
 20 22  1  0
 20 23  1  0
 23 24  1  0
 23 25  1  0
 23 26  1  0
 26 27  1  0
 26 28  1  0
 26 29  1  0
 29 30  1  0
 29 31  1  0
 29 32  1  0
 32 33  1  0
 32 34  1  0
  6 35  1  0
 35 36  1  0
 35 37  2  0
 37 38  1  0
 37  2  1  0
 14 10  1  0
 32 18  1  0
M  END
>  <cnnaffinity>  (1) 
-5.54865

>  <filename>  (1) 
c1cncc(Cn2nnnc2CC2CCCCC2)c1

$$$$
