
     RDKit          3D

 37 41  0  0  0  0  0  0  0  0999 V2000
    4.9521    1.8230   16.9708 H   0  0  0  0  0  0  0  0  0  0  0  0
    5.3979    1.2881   17.8075 C   0  0  0  0  0  0  0  0  0  0  0  0
    6.5632    0.6685   17.5608 N   0  0  0  0  0  0  0  0  0  0  0  0
    7.1492    0.0209   18.5725 C   0  0  0  0  0  0  0  0  0  0  0  0
    8.1060   -0.4509   18.3467 H   0  0  0  0  0  0  0  0  0  0  0  0
    6.6128   -0.0306   19.8701 C   0  0  0  0  0  0  0  0  0  0  0  0
    7.3463   -0.6860   20.9512 C   0  0  0  0  0  0  0  0  0  0  0  0
    7.9503   -1.8518   20.7654 N   0  0  0  0  0  0  0  0  0  0  0  0
    8.4498   -2.1505   21.9660 N   0  0  0  0  0  0  0  0  0  0  0  0
    8.2836   -1.2320   22.9115 C   0  0  0  0  0  0  0  0  0  0  0  0
    7.5581   -0.2274   22.2890 C   0  0  0  0  0  0  0  0  0  0  0  0
    7.3161    1.0847   22.8271 C   0  0  0  0  0  0  0  0  0  0  0  0
    7.1207    2.1527   22.1319 N   0  0  0  0  0  0  0  0  0  0  0  0
    6.9644    3.2398   22.9683 C   0  0  0  0  0  0  0  0  0  0  0  0
    6.6948    4.5373   22.5179 C   0  0  0  0  0  0  0  0  0  0  0  0
    6.6012    4.6869   21.4482 H   0  0  0  0  0  0  0  0  0  0  0  0
    6.5476    5.5535   23.4534 C   0  0  0  0  0  0  0  0  0  0  0  0
    6.3370    6.5593   23.1118 H   0  0  0  0  0  0  0  0  0  0  0  0
    6.6672    5.2842   24.8314 C   0  0  0  0  0  0  0  0  0  0  0  0
    6.5518    6.0888   25.5447 H   0  0  0  0  0  0  0  0  0  0  0  0
    6.9282    3.9981   25.2979 C   0  0  0  0  0  0  0  0  0  0  0  0
    7.0173    3.7944   26.3608 H   0  0  0  0  0  0  0  0  0  0  0  0
    7.0669    2.9769   24.3526 C   0  0  0  0  0  0  0  0  0  0  0  0
    7.3539    1.2862   24.5863 S   0  0  0  0  0  0  0  0  0  0  0  0
    9.1906   -1.4952   24.0882 C   0  0  0  0  0  0  0  0  0  0  0  0
    9.8919   -0.6608   24.2089 H   0  0  0  0  0  0  0  0  0  0  0  0
    8.6255   -1.5829   25.0209 H   0  0  0  0  0  0  0  0  0  0  0  0
    9.9121   -2.8145   23.6825 C   0  0  0  0  0  0  0  0  0  0  0  0
    9.6588   -3.6392   24.3507 H   0  0  0  0  0  0  0  0  0  0  0  0
   10.9960   -2.7107   23.6964 H   0  0  0  0  0  0  0  0  0  0  0  0
    9.4611   -3.1323   22.2338 C   0  0  0  0  0  0  0  0  0  0  0  0
    9.0281   -4.1266   22.1180 H   0  0  0  0  0  0  0  0  0  0  0  0
   10.2628   -2.9601   21.5108 H   0  0  0  0  0  0  0  0  0  0  0  0
    5.3855    0.5997   20.1037 C   0  0  0  0  0  0  0  0  0  0  0  0
    4.9658    0.6271   21.1103 H   0  0  0  0  0  0  0  0  0  0  0  0
    4.7698    1.2789   19.0565 C   0  0  0  0  0  0  0  0  0  0  0  0
    3.8537    1.8362   19.2174 H   0  0  0  0  0  0  0  0  0  0  0  0
  1  2  1  0
  2  3  2  0
  3  4  1  0
  4  5  1  0
  4  6  2  0
  6  7  1  0
  7  8  2  0
  8  9  1  0
  9 10  1  0
 10 11  2  0
 11 12  1  0
 12 13  2  0
 13 14  1  0
 14 15  2  0
 15 16  1  0
 15 17  1  0
 17 18  1  0
 17 19  2  0
 19 20  1  0
 19 21  1  0
 21 22  1  0
 21 23  2  0
 23 24  1  0
 10 25  1  0
 25 26  1  0
 25 27  1  0
 25 28  1  0
 28 29  1  0
 28 30  1  0
 28 31  1  0
 31 32  1  0
 31 33  1  0
  6 34  1  0
 34 35  1  0
 34 36  2  0
 36 37  1  0
 36  2  1  0
 11  7  1  0
 24 12  1  0
 31  9  1  0
 23 14  1  0
M  END
>  <cnnaffinity>  (1) 
-5.77834

>  <filename>  (1) 
c1cncc(-c2nn3c(c2-c2nc4ccccc4s2)CCC3)c1

$$$$
