
     RDKit          3D

 31 34  0  0  0  0  0  0  0  0999 V2000
    4.9192    1.7796   16.9973 H   0  0  0  0  0  0  0  0  0  0  0  0
    5.4041    1.2941   17.8389 C   0  0  0  0  0  0  0  0  0  0  0  0
    6.5701    0.6798   17.5793 N   0  0  0  0  0  0  0  0  0  0  0  0
    7.1705    0.0582   18.5961 C   0  0  0  0  0  0  0  0  0  0  0  0
    8.1161   -0.4368   18.3793 H   0  0  0  0  0  0  0  0  0  0  0  0
    6.6485    0.0237   19.8966 C   0  0  0  0  0  0  0  0  0  0  0  0
    7.3743   -0.7184   20.9277 C   0  0  0  0  0  0  0  0  0  0  0  0
    7.9408   -1.8801   20.7422 N   0  0  0  0  0  0  0  0  0  0  0  0
    8.4391   -2.3063   21.9464 N   0  0  0  0  0  0  0  0  0  0  0  0
    8.1750   -1.3773   22.8197 C   0  0  0  0  0  0  0  0  0  0  0  0
    8.4638   -1.3871   23.8611 H   0  0  0  0  0  0  0  0  0  0  0  0
    7.4990   -0.3313   22.2450 N   0  0  0  0  0  0  0  0  0  0  0  0
    7.1666    0.9177   22.8550 C   0  0  0  0  0  0  0  0  0  0  0  0
    6.5873    0.9064   24.1564 C   0  0  0  0  0  0  0  0  0  0  0  0
    6.4056   -0.0427   24.6557 H   0  0  0  0  0  0  0  0  0  0  0  0
    6.2494    2.0967   24.7863 C   0  0  0  0  0  0  0  0  0  0  0  0
    5.8175    2.1160   25.7840 H   0  0  0  0  0  0  0  0  0  0  0  0
    6.4839    3.3174   24.1235 C   0  0  0  0  0  0  0  0  0  0  0  0
    6.2675    4.6942   24.4658 C   0  0  0  0  0  0  0  0  0  0  0  0
    5.8405    5.0394   25.3959 H   0  0  0  0  0  0  0  0  0  0  0  0
    6.6977    5.4487   23.4123 C   0  0  0  0  0  0  0  0  0  0  0  0
    6.7004    6.5284   23.2855 H   0  0  0  0  0  0  0  0  0  0  0  0
    7.1775    4.6054   22.4230 N   0  0  0  0  0  0  0  0  0  0  0  0
    7.5531    4.8774   21.5310 H   0  0  0  0  0  0  0  0  0  0  0  0
    7.0628    3.3006   22.8315 C   0  0  0  0  0  0  0  0  0  0  0  0
    7.4251    2.1108   22.1814 C   0  0  0  0  0  0  0  0  0  0  0  0
    7.8515    2.1300   21.1812 H   0  0  0  0  0  0  0  0  0  0  0  0
    5.4209    0.6514   20.1512 C   0  0  0  0  0  0  0  0  0  0  0  0
    4.9997    0.6355   21.1609 H   0  0  0  0  0  0  0  0  0  0  0  0
    4.7961    1.3109   19.1003 C   0  0  0  0  0  0  0  0  0  0  0  0
    3.8667    1.8459   19.2558 H   0  0  0  0  0  0  0  0  0  0  0  0
  1  2  1  0
  2  3  2  0
  3  4  1  0
  4  5  1  0
  4  6  2  0
  6  7  1  0
  7  8  2  0
  8  9  1  0
  9 10  2  0
 10 11  1  0
 10 12  1  0
 12 13  1  0
 13 14  2  0
 14 15  1  0
 14 16  1  0
 16 17  1  0
 16 18  2  0
 18 19  1  0
 19 20  1  0
 19 21  2  0
 21 22  1  0
 21 23  1  0
 23 24  1  0
 23 25  1  0
 25 26  2  0
 26 27  1  0
  6 28  1  0
 28 29  1  0
 28 30  2  0
 30 31  1  0
 30  2  1  0
 12  7  1  0
 26 13  1  0
 25 18  1  0
M  END
>  <cnnaffinity>  (1) 
-5.13013

>  <filename>  (1) 
c1cncc(-c2nncn2-c2ccc3cc[nH]c3c2)c1

$$$$
