
     RDKit          3D

 37 38  0  0  0  0  0  0  0  0999 V2000
    9.4101    0.9150   20.1327 H   0  0  0  0  0  0  0  0  0  0  0  0
    9.2362    0.9850   21.2039 C   0  0  0  0  0  0  0  0  0  0  0  0
    9.8780    1.6681   21.7579 H   0  0  0  0  0  0  0  0  0  0  0  0
    8.2984    0.2576   21.8069 C   0  0  0  0  0  0  0  0  0  0  0  0
    7.4153   -0.6999   21.0084 C   0  0  0  0  0  0  0  0  0  0  0  0
    6.7008   -1.2112   21.6677 H   0  0  0  0  0  0  0  0  0  0  0  0
    8.0510   -1.4813   20.5729 H   0  0  0  0  0  0  0  0  0  0  0  0
    6.6477   -0.0127   19.8937 C   0  0  0  0  0  0  0  0  0  0  0  0
    7.1602    0.0603   18.5873 C   0  0  0  0  0  0  0  0  0  0  0  0
    8.1091   -0.4252   18.3597 H   0  0  0  0  0  0  0  0  0  0  0  0
    6.5585    0.6830   17.5653 N   0  0  0  0  0  0  0  0  0  0  0  0
    5.3992    1.2974   17.8339 C   0  0  0  0  0  0  0  0  0  0  0  0
    4.9121    1.7850   16.9934 H   0  0  0  0  0  0  0  0  0  0  0  0
    4.8050    1.3146   19.1019 C   0  0  0  0  0  0  0  0  0  0  0  0
    3.8700    1.8468   19.2561 H   0  0  0  0  0  0  0  0  0  0  0  0
    5.4425    0.6460   20.1490 C   0  0  0  0  0  0  0  0  0  0  0  0
    5.0101    0.6335   21.1572 H   0  0  0  0  0  0  0  0  0  0  0  0
    8.0551    0.3547   23.2961 C   0  0  0  0  0  0  0  0  0  0  0  0
    8.9200    0.8381   23.7653 H   0  0  0  0  0  0  0  0  0  0  0  0
    8.0194   -0.6611   23.7117 H   0  0  0  0  0  0  0  0  0  0  0  0
    6.7587    1.0999   23.6987 C   0  0  0  0  0  0  0  0  0  0  0  0
    5.9220    0.5395   23.2541 H   0  0  0  0  0  0  0  0  0  0  0  0
    6.5562    1.0895   25.2316 C   0  0  0  0  0  0  0  0  0  0  0  0
    6.6780    0.0678   25.6152 H   0  0  0  0  0  0  0  0  0  0  0  0
    5.5192    1.3756   25.4516 H   0  0  0  0  0  0  0  0  0  0  0  0
    7.4969    2.0512   25.9777 C   0  0  0  0  0  0  0  0  0  0  0  0
    7.2580    2.0504   27.0485 H   0  0  0  0  0  0  0  0  0  0  0  0
    8.5295    1.6893   25.8985 H   0  0  0  0  0  0  0  0  0  0  0  0
    7.4137    3.4763   25.4165 C   0  0  0  0  0  0  0  0  0  0  0  0
    6.4151    3.8809   25.6230 H   0  0  0  0  0  0  0  0  0  0  0  0
    8.1261    4.1326   25.9303 H   0  0  0  0  0  0  0  0  0  0  0  0
    7.6498    3.5058   23.9014 C   0  0  0  0  0  0  0  0  0  0  0  0
    8.6896    3.2263   23.6897 H   0  0  0  0  0  0  0  0  0  0  0  0
    7.5336    4.5265   23.5163 H   0  0  0  0  0  0  0  0  0  0  0  0
    6.6968    2.5504   23.1641 C   0  0  0  0  0  0  0  0  0  0  0  0
    5.6715    2.9245   23.2839 H   0  0  0  0  0  0  0  0  0  0  0  0
    6.8958    2.5686   22.0846 H   0  0  0  0  0  0  0  0  0  0  0  0
  1  2  1  0
  2  3  1  0
  2  4  2  3
  4  5  1  0
  5  6  1  0
  5  7  1  0
  5  8  1  0
  8  9  2  0
  9 10  1  0
  9 11  1  0
 11 12  2  0
 12 13  1  0
 12 14  1  0
 14 15  1  0
 14 16  2  0
 16 17  1  0
  4 18  1  0
 18 19  1  0
 18 20  1  0
 18 21  1  0
 21 22  1  0
 21 23  1  0
 23 24  1  0
 23 25  1  0
 23 26  1  0
 26 27  1  0
 26 28  1  0
 26 29  1  0
 29 30  1  0
 29 31  1  0
 29 32  1  0
 32 33  1  0
 32 34  1  0
 32 35  1  0
 35 36  1  0
 35 37  1  0
 16  8  1  0
 35 21  1  0
M  END
>  <cnnaffinity>  (1) 
-4.71343

>  <filename>  (1) 
C=C(Cc1cccnc1)CC1CCCCC1

$$$$
