
     RDKit          3D

 29 31  0  0  0  0  0  0  0  0999 V2000
    9.2713   -1.1703   21.8262 H   0  0  0  0  0  0  0  0  0  0  0  0
    8.7256   -0.6082   21.0738 C   0  0  0  0  0  0  0  0  0  0  0  0
    9.3061    0.0810   20.4715 H   0  0  0  0  0  0  0  0  0  0  0  0
    7.3951   -0.7352   20.9479 C   0  0  0  0  0  0  0  0  0  0  0  0
    6.6485    0.0146   19.8836 C   0  0  0  0  0  0  0  0  0  0  0  0
    7.1598    0.0758   18.5762 C   0  0  0  0  0  0  0  0  0  0  0  0
    8.1069   -0.4164   18.3527 H   0  0  0  0  0  0  0  0  0  0  0  0
    6.5537    0.6872   17.5524 N   0  0  0  0  0  0  0  0  0  0  0  0
    5.3927    1.3099   17.8078 C   0  0  0  0  0  0  0  0  0  0  0  0
    4.9292    1.8110   16.9582 H   0  0  0  0  0  0  0  0  0  0  0  0
    4.7976    1.3311   19.0744 C   0  0  0  0  0  0  0  0  0  0  0  0
    3.8627    1.8634   19.2102 H   0  0  0  0  0  0  0  0  0  0  0  0
    5.4320    0.6728   20.1305 C   0  0  0  0  0  0  0  0  0  0  0  0
    5.0060    0.6682   21.1347 H   0  0  0  0  0  0  0  0  0  0  0  0
    6.6273   -1.6324   21.8365 C   0  0  0  0  0  0  0  0  0  0  0  0
    5.6420   -2.4959   21.4542 C   0  0  0  0  0  0  0  0  0  0  0  0
    5.2756   -2.6314   20.4455 H   0  0  0  0  0  0  0  0  0  0  0  0
    5.1650   -3.2003   22.5389 N   0  0  0  0  0  0  0  0  0  0  0  0
    4.2932   -3.7016   22.5705 H   0  0  0  0  0  0  0  0  0  0  0  0
    5.8098   -2.7514   23.6762 C   0  0  0  0  0  0  0  0  0  0  0  0
    5.6314   -3.0832   25.0342 C   0  0  0  0  0  0  0  0  0  0  0  0
    4.8674   -3.7847   25.3571 H   0  0  0  0  0  0  0  0  0  0  0  0
    6.4552   -2.4647   25.9739 C   0  0  0  0  0  0  0  0  0  0  0  0
    6.3665   -2.7151   27.0278 H   0  0  0  0  0  0  0  0  0  0  0  0
    7.4161   -1.5029   25.5780 C   0  0  0  0  0  0  0  0  0  0  0  0
    8.0604   -1.0416   26.3216 H   0  0  0  0  0  0  0  0  0  0  0  0
    7.5517   -1.1457   24.2443 C   0  0  0  0  0  0  0  0  0  0  0  0
    8.2588   -0.3853   23.9205 H   0  0  0  0  0  0  0  0  0  0  0  0
    6.7507   -1.7820   23.2719 C   0  0  0  0  0  0  0  0  0  0  0  0
  1  2  1  0
  2  3  1  0
  2  4  2  3
  4  5  1  0
  5  6  2  0
  6  7  1  0
  6  8  1  0
  8  9  2  0
  9 10  1  0
  9 11  1  0
 11 12  1  0
 11 13  2  0
 13 14  1  0
  4 15  1  0
 15 16  2  0
 16 17  1  0
 16 18  1  0
 18 19  1  0
 18 20  1  0
 20 21  2  0
 21 22  1  0
 21 23  1  0
 23 24  1  0
 23 25  2  0
 25 26  1  0
 25 27  1  0
 27 28  1  0
 27 29  2  0
 13  5  1  0
 29 15  1  0
 29 20  1  0
M  END
>  <cnnaffinity>  (1) 
-4.7268

>  <filename>  (1) 
C=C(c1cccnc1)c1c[nH]c2ccccc12

$$$$
