
     RDKit          3D

 31 32  0  0  0  0  0  0  0  0999 V2000
    7.2353   -2.0898   22.5738 H   0  0  0  0  0  0  0  0  0  0  0  0
    6.7325   -1.6027   21.7382 C   0  0  0  0  0  0  0  0  0  0  0  0
    5.6839   -1.8304   21.5596 H   0  0  0  0  0  0  0  0  0  0  0  0
    7.3760   -0.7210   20.9761 C   0  0  0  0  0  0  0  0  0  0  0  0
    6.6627    0.0169   19.8975 C   0  0  0  0  0  0  0  0  0  0  0  0
    7.1734    0.0769   18.5903 C   0  0  0  0  0  0  0  0  0  0  0  0
    8.1142   -0.4243   18.3720 H   0  0  0  0  0  0  0  0  0  0  0  0
    6.5630    0.6785   17.5629 N   0  0  0  0  0  0  0  0  0  0  0  0
    5.4014    1.2959   17.8323 C   0  0  0  0  0  0  0  0  0  0  0  0
    4.9133    1.7830   16.9925 H   0  0  0  0  0  0  0  0  0  0  0  0
    4.8050    1.3156   19.1011 C   0  0  0  0  0  0  0  0  0  0  0  0
    3.8691    1.8461   19.2569 H   0  0  0  0  0  0  0  0  0  0  0  0
    5.4365    0.6484   20.1496 C   0  0  0  0  0  0  0  0  0  0  0  0
    5.0168    0.6294   21.1621 H   0  0  0  0  0  0  0  0  0  0  0  0
    8.8081   -0.3297   21.2688 C   0  0  0  0  0  0  0  0  0  0  0  0
    9.3512   -1.1994   21.6516 H   0  0  0  0  0  0  0  0  0  0  0  0
    9.3235   -0.0114   20.3554 H   0  0  0  0  0  0  0  0  0  0  0  0
    8.8693    0.8101   22.3012 C   0  0  0  0  0  0  0  0  0  0  0  0
    8.3367    1.6807   21.9037 H   0  0  0  0  0  0  0  0  0  0  0  0
    8.3353    0.5190   23.2116 H   0  0  0  0  0  0  0  0  0  0  0  0
   10.2895    1.1844   22.6370 C   0  0  0  0  0  0  0  0  0  0  0  0
   10.9351    2.1910   21.9025 C   0  0  0  0  0  0  0  0  0  0  0  0
   10.3755    2.7166   21.1345 H   0  0  0  0  0  0  0  0  0  0  0  0
   12.2669    2.5295   22.1413 C   0  0  0  0  0  0  0  0  0  0  0  0
   12.7337    3.3260   21.5692 H   0  0  0  0  0  0  0  0  0  0  0  0
   12.9872    1.8423   23.1224 C   0  0  0  0  0  0  0  0  0  0  0  0
   14.0211    2.1021   23.3152 H   0  0  0  0  0  0  0  0  0  0  0  0
   12.3850    0.8149   23.8518 C   0  0  0  0  0  0  0  0  0  0  0  0
   12.9319    0.2649   24.6127 H   0  0  0  0  0  0  0  0  0  0  0  0
   11.0501    0.4926   23.5970 C   0  0  0  0  0  0  0  0  0  0  0  0
   10.3480   -0.8205   24.5093 Cl  0  0  0  0  0  0  0  0  0  0  0  0
  1  2  1  0
  2  3  1  0
  2  4  2  3
  4  5  1  0
  5  6  2  0
  6  7  1  0
  6  8  1  0
  8  9  2  0
  9 10  1  0
  9 11  1  0
 11 12  1  0
 11 13  2  0
 13 14  1  0
  4 15  1  0
 15 16  1  0
 15 17  1  0
 15 18  1  0
 18 19  1  0
 18 20  1  0
 18 21  1  0
 21 22  2  0
 22 23  1  0
 22 24  1  0
 24 25  1  0
 24 26  2  0
 26 27  1  0
 26 28  1  0
 28 29  1  0
 28 30  2  0
 30 31  1  0
 13  5  1  0
 30 21  1  0
M  END
>  <cnnaffinity>  (1) 
-5.19129

>  <filename>  (1) 
C=C(CCc1ccccc1Cl)c1cccnc1

$$$$
