
     RDKit          3D

 33 34  0  0  0  0  0  0  0  0999 V2000
    4.9574   -5.8994   21.7386 H   0  0  0  0  0  0  0  0  0  0  0  0
    5.4009   -4.9201   21.9059 C   0  0  0  0  0  0  0  0  0  0  0  0
    4.7465   -4.1489   22.3171 H   0  0  0  0  0  0  0  0  0  0  0  0
    6.6759   -4.6668   21.6384 C   0  0  0  0  0  0  0  0  0  0  0  0
    7.2985   -5.4503   21.2014 H   0  0  0  0  0  0  0  0  0  0  0  0
    7.3064   -3.3082   21.8615 C   0  0  0  0  0  0  0  0  0  0  0  0
    7.0863   -2.9789   22.8857 H   0  0  0  0  0  0  0  0  0  0  0  0
    8.3955   -3.3774   21.7770 H   0  0  0  0  0  0  0  0  0  0  0  0
    6.7716   -2.2534   20.8910 C   0  0  0  0  0  0  0  0  0  0  0  0
    6.9083   -2.5889   19.8651 H   0  0  0  0  0  0  0  0  0  0  0  0
    5.6796   -2.1853   20.9715 H   0  0  0  0  0  0  0  0  0  0  0  0
    7.3482   -0.8232   20.9902 C   0  0  1  0  0  0  0  0  0  0  0  0
    6.6558    0.0026   19.9042 C   0  0  0  0  0  0  0  0  0  0  0  0
    7.1621    0.0647   18.5926 C   0  0  0  0  0  0  0  0  0  0  0  0
    8.1109   -0.4146   18.3561 H   0  0  0  0  0  0  0  0  0  0  0  0
    6.5604    0.6797   17.5651 N   0  0  0  0  0  0  0  0  0  0  0  0
    5.3997    1.2958   17.8304 C   0  0  0  0  0  0  0  0  0  0  0  0
    4.9142    1.7844   16.9911 H   0  0  0  0  0  0  0  0  0  0  0  0
    4.8023    1.3121   19.0968 C   0  0  0  0  0  0  0  0  0  0  0  0
    3.8718    1.8467   19.2568 H   0  0  0  0  0  0  0  0  0  0  0  0
    5.4370    0.6512   20.1490 C   0  0  0  0  0  0  0  0  0  0  0  0
    4.9957    0.6425   21.1531 H   0  0  0  0  0  0  0  0  0  0  0  0
    7.1534   -0.2137   22.4063 C   0  0  0  0  0  0  0  0  0  0  0  0
    6.2566   -0.6135   22.8970 H   0  0  0  0  0  0  0  0  0  0  0  0
    7.0061    0.8724   22.3205 H   0  0  0  0  0  0  0  0  0  0  0  0
    8.3541   -0.4748   23.1940 N   0  0  0  0  0  0  0  0  0  0  0  0
    8.1872   -1.2275   23.8517 H   0  0  0  0  0  0  0  0  0  0  0  0
    9.4580   -0.8049   22.2915 C   0  0  0  0  0  0  0  0  0  0  0  0
   10.2641   -0.0655   22.3894 H   0  0  0  0  0  0  0  0  0  0  0  0
    9.8843   -1.7849   22.5377 H   0  0  0  0  0  0  0  0  0  0  0  0
    8.8895   -0.7893   20.8636 C   0  0  0  0  0  0  0  0  0  0  0  0
    9.1975    0.1335   20.3627 H   0  0  0  0  0  0  0  0  0  0  0  0
    9.2746   -1.6149   20.2579 H   0  0  0  0  0  0  0  0  0  0  0  0
  1  2  1  0
  2  3  1  0
  2  4  2  3
  4  5  1  0
  4  6  1  0
  6  7  1  0
  6  8  1  0
  6  9  1  0
  9 10  1  0
  9 11  1  0
 12  9  1  1
 12 13  1  0
 13 14  2  0
 14 15  1  0
 14 16  1  0
 16 17  2  0
 17 18  1  0
 17 19  1  0
 19 20  1  0
 19 21  2  0
 21 22  1  0
 12 23  1  0
 23 24  1  0
 23 25  1  0
 23 26  1  0
 26 27  1  0
 26 28  1  0
 28 29  1  0
 28 30  1  0
 28 31  1  0
 31 32  1  0
 31 33  1  0
 31 12  1  0
 21 13  1  0
M  END
>  <cnnaffinity>  (1) 
-4.11795

>  <filename>  (1) 
C=CCC[C@]1(c2cccnc2)CCNC1

$$$$
