
     RDKit          3D

 25 26  0  0  0  0  0  0  0  0999 V2000
   10.6686    1.5420   21.9500 H   0  0  0  0  0  0  0  0  0  0  0  0
   11.2379    0.7457   22.4292 C   0  0  0  0  0  0  0  0  0  0  0  0
   12.2504    0.9792   22.7437 H   0  0  0  0  0  0  0  0  0  0  0  0
   10.7201   -0.4647   22.6440 C   0  0  0  0  0  0  0  0  0  0  0  0
   11.2950   -1.2211   23.1800 H   0  0  0  0  0  0  0  0  0  0  0  0
    9.3631   -0.8811   22.2601 C   0  0  0  0  0  0  0  0  0  0  0  0
    8.6444   -0.2772   21.2826 C   0  0  0  0  0  0  0  0  0  0  0  0
    9.0437    0.5444   20.6912 H   0  0  0  0  0  0  0  0  0  0  0  0
    7.3584   -0.6708   20.9429 N   0  0  0  0  0  0  0  0  0  0  0  0
    6.6626    0.0260   19.8905 C   0  0  0  0  0  0  0  0  0  0  0  0
    7.1820    0.0770   18.5840 C   0  0  0  0  0  0  0  0  0  0  0  0
    8.1221   -0.4264   18.3596 H   0  0  0  0  0  0  0  0  0  0  0  0
    6.5603    0.6847   17.5681 N   0  0  0  0  0  0  0  0  0  0  0  0
    5.3959    1.2988   17.8314 C   0  0  0  0  0  0  0  0  0  0  0  0
    4.9129    1.7877   16.9890 H   0  0  0  0  0  0  0  0  0  0  0  0
    4.8089    1.3164   19.1013 C   0  0  0  0  0  0  0  0  0  0  0  0
    3.8758    1.8421   19.2554 H   0  0  0  0  0  0  0  0  0  0  0  0
    5.4441    0.6548   20.1556 C   0  0  0  0  0  0  0  0  0  0  0  0
    5.0196    0.6114   21.1593 H   0  0  0  0  0  0  0  0  0  0  0  0
    6.7288   -1.7538   21.5988 C   0  0  0  0  0  0  0  0  0  0  0  0
    5.6320   -2.1929   21.3423 O   0  0  0  0  0  0  0  0  0  0  0  0
    7.4741   -2.3327   22.5671 N   0  0  0  0  0  0  0  0  0  0  0  0
    7.0332   -3.0961   23.0374 H   0  0  0  0  0  0  0  0  0  0  0  0
    8.7423   -2.0167   22.9816 C   0  0  0  0  0  0  0  0  0  0  0  0
    9.2143   -2.6857   23.8754 O   0  0  0  0  0  0  0  0  0  0  0  0
  1  2  1  0
  2  3  1  0
  2  4  2  3
  4  5  1  0
  4  6  1  0
  6  7  2  0
  7  8  1  0
  7  9  1  0
  9 10  1  0
 10 11  2  0
 11 12  1  0
 11 13  1  0
 13 14  2  0
 14 15  1  0
 14 16  1  0
 16 17  1  0
 16 18  2  0
 18 19  1  0
  9 20  1  0
 20 21  2  0
 20 22  1  0
 22 23  1  0
 22 24  1  0
 24 25  2  0
 24  6  1  0
 18 10  1  0
M  END
>  <cnnaffinity>  (1) 
-4.91758

>  <filename>  (1) 
C=Cc1cn(-c2cccnc2)c(=O)[nH]c1=O

$$$$
