
     RDKit          3D

 27 28  0  0  0  0  0  0  0  0999 V2000
   13.9971   -0.9503   21.5671 H   0  0  0  0  0  0  0  0  0  0  0  0
   13.1989   -1.5279   21.0890 C   0  0  0  0  0  0  0  0  0  0  0  0
   13.4904   -2.1667   20.2614 H   0  0  0  0  0  0  0  0  0  0  0  0
   11.9152   -1.4833   21.4404 C   0  0  0  0  0  0  0  0  0  0  0  0
   11.1816   -2.0535   20.8642 H   0  0  0  0  0  0  0  0  0  0  0  0
   11.3059   -0.7061   22.5753 C   0  0  0  0  0  0  0  0  0  0  0  0
   11.0613    0.3190   22.2741 H   0  0  0  0  0  0  0  0  0  0  0  0
   11.9701   -0.6180   23.4347 H   0  0  0  0  0  0  0  0  0  0  0  0
   10.1246   -1.3533   23.0637 O   0  0  0  0  0  0  0  0  0  0  0  0
    9.0562   -1.2352   22.2651 C   0  0  0  0  0  0  0  0  0  0  0  0
    8.7386   -0.4430   21.2206 C   0  0  0  0  0  0  0  0  0  0  0  0
    9.3054    0.2924   20.6782 H   0  0  0  0  0  0  0  0  0  0  0  0
    7.4310   -0.7693   20.8513 N   0  0  0  0  0  0  0  0  0  0  0  0
    6.7007   -0.0740   19.8382 C   0  0  0  0  0  0  0  0  0  0  0  0
    7.2073    0.0187   18.5290 C   0  0  0  0  0  0  0  0  0  0  0  0
    8.1450   -0.4762   18.2780 H   0  0  0  0  0  0  0  0  0  0  0  0
    6.5928    0.6827   17.5428 N   0  0  0  0  0  0  0  0  0  0  0  0
    5.4350    1.2971   17.8342 C   0  0  0  0  0  0  0  0  0  0  0  0
    4.9616    1.8361   17.0150 H   0  0  0  0  0  0  0  0  0  0  0  0
    4.8465    1.2582   19.1024 C   0  0  0  0  0  0  0  0  0  0  0  0
    3.9150    1.7868   19.2756 H   0  0  0  0  0  0  0  0  0  0  0  0
    5.4794    0.5467   20.1293 C   0  0  0  0  0  0  0  0  0  0  0  0
    5.0580    0.4879   21.1332 H   0  0  0  0  0  0  0  0  0  0  0  0
    6.9580   -1.8008   21.6329 C   0  0  0  0  0  0  0  0  0  0  0  0
    5.5562   -2.6914   21.5281 S   0  0  0  0  0  0  0  0  0  0  0  0
    7.9688   -2.0302   22.5179 N   0  0  0  0  0  0  0  0  0  0  0  0
    7.8841   -2.7218   23.2370 H   0  0  0  0  0  0  0  0  0  0  0  0
  1  2  1  0
  2  3  1  0
  2  4  2  3
  4  5  1  0
  4  6  1  0
  6  7  1  0
  6  8  1  0
  6  9  1  0
  9 10  1  0
 10 11  2  0
 11 12  1  0
 11 13  1  0
 13 14  1  0
 14 15  2  0
 15 16  1  0
 15 17  1  0
 17 18  2  0
 18 19  1  0
 18 20  1  0
 20 21  1  0
 20 22  2  0
 22 23  1  0
 13 24  1  0
 24 25  2  0
 24 26  1  0
 26 27  1  0
 26 10  1  0
 22 14  1  0
M  END
>  <cnnaffinity>  (1) 
-5.08508

>  <filename>  (1) 
C=CCOc1cn(-c2cccnc2)c(=S)[nH]1

$$$$
