
     RDKit          3D

 27 29  0  0  0  0  0  0  0  0999 V2000
    7.8136    1.7395   26.0472 H   0  0  0  0  0  0  0  0  0  0  0  0
    7.4701    0.8701   25.4934 C   0  0  0  0  0  0  0  0  0  0  0  0
    7.0757    1.0297   24.4861 H   0  0  0  0  0  0  0  0  0  0  0  0
    7.5161   -0.3465   26.0227 C   0  0  0  0  0  0  0  0  0  0  0  0
    7.9491   -0.5002   27.0147 H   0  0  0  0  0  0  0  0  0  0  0  0
    7.0613   -1.5807   25.2542 C   0  0  0  0  0  0  0  0  0  0  0  0
    6.0626   -1.4141   24.8332 H   0  0  0  0  0  0  0  0  0  0  0  0
    7.0005   -2.4435   25.9270 H   0  0  0  0  0  0  0  0  0  0  0  0
    8.0123   -1.9281   24.1408 C   0  0  0  0  0  0  0  0  0  0  0  0
    9.1830   -2.5838   24.2564 C   0  0  0  0  0  0  0  0  0  0  0  0
    9.6047   -3.0142   25.1579 H   0  0  0  0  0  0  0  0  0  0  0  0
   10.0810   -2.6929   22.7617 S   0  0  0  0  0  0  0  0  0  0  0  0
    8.8201   -1.7931   21.9566 C   0  0  0  0  0  0  0  0  0  0  0  0
    8.5476   -1.3178   20.7561 N   0  0  0  0  0  0  0  0  0  0  0  0
    7.3596   -0.6864   20.9758 C   0  0  0  0  0  0  0  0  0  0  0  0
    6.6456    0.0151   19.9132 C   0  0  0  0  0  0  0  0  0  0  0  0
    7.1810    0.0533   18.6165 C   0  0  0  0  0  0  0  0  0  0  0  0
    8.1260   -0.4326   18.3843 H   0  0  0  0  0  0  0  0  0  0  0  0
    6.5750    0.6679   17.5954 N   0  0  0  0  0  0  0  0  0  0  0  0
    5.4102    1.2858   17.8461 C   0  0  0  0  0  0  0  0  0  0  0  0
    4.9227    1.7722   17.0031 H   0  0  0  0  0  0  0  0  0  0  0  0
    4.8035    1.3110   19.1084 C   0  0  0  0  0  0  0  0  0  0  0  0
    3.8729    1.8442   19.2600 H   0  0  0  0  0  0  0  0  0  0  0  0
    5.4260    0.6594   20.1661 C   0  0  0  0  0  0  0  0  0  0  0  0
    4.9964    0.6366   21.1715 H   0  0  0  0  0  0  0  0  0  0  0  0
    6.8909   -0.7464   22.2191 N   0  0  0  0  0  0  0  0  0  0  0  0
    7.8471   -1.4795   22.8327 N   0  0  0  0  0  0  0  0  0  0  0  0
  1  2  1  0
  2  3  1  0
  2  4  2  3
  4  5  1  0
  4  6  1  0
  6  7  1  0
  6  8  1  0
  6  9  1  0
  9 10  2  0
 10 11  1  0
 10 12  1  0
 12 13  1  0
 13 14  2  0
 14 15  1  0
 15 16  1  0
 16 17  2  0
 17 18  1  0
 17 19  1  0
 19 20  2  0
 20 21  1  0
 20 22  1  0
 22 23  1  0
 22 24  2  0
 24 25  1  0
 15 26  2  0
 26 27  1  0
 27  9  1  0
 27 13  1  0
 24 16  1  0
M  END
>  <cnnaffinity>  (1) 
-5.1589

>  <filename>  (1) 
C=CCc1csc2nc(-c3cccnc3)nn12

$$$$
