
     RDKit          3D

 30 31  0  0  0  0  0  0  0  0999 V2000
    5.7163   -3.2524   23.2025 H   0  0  0  0  0  0  0  0  0  0  0  0
    6.7108   -3.6402   22.9729 C   0  0  0  0  0  0  0  0  0  0  0  0
    7.1336   -4.3422   23.6850 H   0  0  0  0  0  0  0  0  0  0  0  0
    7.3533   -3.2546   21.8710 C   0  0  0  0  0  0  0  0  0  0  0  0
    8.3590   -3.6210   21.6556 H   0  0  0  0  0  0  0  0  0  0  0  0
    6.7873   -2.2633   20.8939 C   0  0  0  0  0  0  0  0  0  0  0  0
    5.6987   -2.2047   21.0070 H   0  0  0  0  0  0  0  0  0  0  0  0
    6.9178   -2.5925   19.8630 H   0  0  0  0  0  0  0  0  0  0  0  0
    7.3510   -0.8142   20.9816 C   0  0  1  0  0  0  0  0  0  0  0  0
    6.6537    0.0072   19.9006 C   0  0  0  0  0  0  0  0  0  0  0  0
    7.1572    0.0669   18.5870 C   0  0  0  0  0  0  0  0  0  0  0  0
    8.1069   -0.4074   18.3466 H   0  0  0  0  0  0  0  0  0  0  0  0
    6.5539    0.6801   17.5621 N   0  0  0  0  0  0  0  0  0  0  0  0
    5.3940    1.2987   17.8228 C   0  0  0  0  0  0  0  0  0  0  0  0
    4.9181    1.7924   16.9818 H   0  0  0  0  0  0  0  0  0  0  0  0
    4.8005    1.3139   19.0888 C   0  0  0  0  0  0  0  0  0  0  0  0
    3.8727    1.8465   19.2481 H   0  0  0  0  0  0  0  0  0  0  0  0
    5.4307    0.6555   20.1446 C   0  0  0  0  0  0  0  0  0  0  0  0
    4.9915    0.6521   21.1470 H   0  0  0  0  0  0  0  0  0  0  0  0
    7.1602   -0.2155   22.4044 C   0  0  0  0  0  0  0  0  0  0  0  0
    7.0452    0.8745   22.3231 H   0  0  0  0  0  0  0  0  0  0  0  0
    6.2483   -0.5977   22.8832 H   0  0  0  0  0  0  0  0  0  0  0  0
    8.3409   -0.5289   23.2095 N   0  0  0  0  0  0  0  0  0  0  0  0
    8.1425   -1.3132   23.8125 H   0  0  0  0  0  0  0  0  0  0  0  0
    9.4512   -0.8456   22.3028 C   0  0  0  0  0  0  0  0  0  0  0  0
    9.8619   -1.8402   22.5276 H   0  0  0  0  0  0  0  0  0  0  0  0
   10.2700   -0.1248   22.4354 H   0  0  0  0  0  0  0  0  0  0  0  0
    8.8933   -0.7779   20.8664 C   0  0  0  0  0  0  0  0  0  0  0  0
    9.2848   -1.5788   20.2329 H   0  0  0  0  0  0  0  0  0  0  0  0
    9.1953    0.1635   20.3961 H   0  0  0  0  0  0  0  0  0  0  0  0
  1  2  1  0
  2  3  1  0
  2  4  2  3
  4  5  1  0
  4  6  1  0
  6  7  1  0
  6  8  1  0
  9  6  1  1
  9 10  1  0
 10 11  2  0
 11 12  1  0
 11 13  1  0
 13 14  2  0
 14 15  1  0
 14 16  1  0
 16 17  1  0
 16 18  2  0
 18 19  1  0
  9 20  1  0
 20 21  1  0
 20 22  1  0
 20 23  1  0
 23 24  1  0
 23 25  1  0
 25 26  1  0
 25 27  1  0
 25 28  1  0
 28 29  1  0
 28 30  1  0
 28  9  1  0
 18 10  1  0
M  END
>  <cnnaffinity>  (1) 
-4.34494

>  <filename>  (1) 
C=CC[C@]1(c2cccnc2)CCNC1

$$$$
