
     RDKit          3D

 29 31  0  0  0  0  0  0  0  0999 V2000
    5.2835    1.3775   26.6345 H   0  0  0  0  0  0  0  0  0  0  0  0
    5.5344    2.2637   26.0526 C   0  0  0  0  0  0  0  0  0  0  0  0
    5.3363    3.2213   26.5314 H   0  0  0  0  0  0  0  0  0  0  0  0
    6.0673    2.1186   24.8373 C   0  0  0  0  0  0  0  0  0  0  0  0
    6.3595    2.9738   24.2294 H   0  0  0  0  0  0  0  0  0  0  0  0
    6.3707    0.7681   24.2726 C   0  0  0  0  0  0  0  0  0  0  0  0
    6.1482   -0.2775   24.8543 O   0  0  0  0  0  0  0  0  0  0  0  0
    6.9654    0.8308   23.0244 N   0  0  0  0  0  0  0  0  0  0  0  0
    6.8795    1.7111   22.5471 H   0  0  0  0  0  0  0  0  0  0  0  0
    7.4475   -0.2594   22.3039 C   0  0  0  0  0  0  0  0  0  0  0  0
    7.3912   -0.6433   20.9610 C   0  0  0  0  0  0  0  0  0  0  0  0
    6.6366    0.0087   19.8934 C   0  0  0  0  0  0  0  0  0  0  0  0
    7.1494    0.0346   18.5849 C   0  0  0  0  0  0  0  0  0  0  0  0
    8.0999   -0.4421   18.3536 H   0  0  0  0  0  0  0  0  0  0  0  0
    6.5536    0.6635   17.5681 N   0  0  0  0  0  0  0  0  0  0  0  0
    5.3977    1.2979   17.8180 C   0  0  0  0  0  0  0  0  0  0  0  0
    4.9483    1.8108   16.9693 H   0  0  0  0  0  0  0  0  0  0  0  0
    4.7885    1.3145   19.0778 C   0  0  0  0  0  0  0  0  0  0  0  0
    3.8574    1.8510   19.2177 H   0  0  0  0  0  0  0  0  0  0  0  0
    5.4110    0.6554   20.1343 C   0  0  0  0  0  0  0  0  0  0  0  0
    4.9685    0.6381   21.1335 H   0  0  0  0  0  0  0  0  0  0  0  0
    8.1550   -1.7694   20.7375 N   0  0  0  0  0  0  0  0  0  0  0  0
    8.6145   -2.0677   21.9182 C   0  0  0  0  0  0  0  0  0  0  0  0
    9.7155   -3.2400   22.5640 S   0  0  0  0  0  0  0  0  0  0  0  0
    9.6632   -2.4899   24.1354 C   0  0  0  0  0  0  0  0  0  0  0  0
   10.2906   -2.9262   24.9011 H   0  0  0  0  0  0  0  0  0  0  0  0
    8.8207   -1.4443   24.1703 C   0  0  0  0  0  0  0  0  0  0  0  0
    8.5296   -0.8108   25.0045 H   0  0  0  0  0  0  0  0  0  0  0  0
    8.2308   -1.2111   22.9223 N   0  0  0  0  0  0  0  0  0  0  0  0
  1  2  1  0
  2  3  1  0
  2  4  2  3
  4  5  1  0
  4  6  1  0
  6  7  2  0
  6  8  1  0
  8  9  1  0
  8 10  1  0
 10 11  2  0
 11 12  1  0
 12 13  2  0
 13 14  1  0
 13 15  1  0
 15 16  2  0
 16 17  1  0
 16 18  1  0
 18 19  1  0
 18 20  2  0
 20 21  1  0
 11 22  1  0
 22 23  2  0
 23 24  1  0
 24 25  1  0
 25 26  1  0
 25 27  2  0
 27 28  1  0
 27 29  1  0
 29 10  1  0
 20 12  1  0
 29 23  1  0
M  END
>  <cnnaffinity>  (1) 
-5.19845

>  <filename>  (1) 
C=CC(=O)Nc1c(-c2cccnc2)nc2sccn12

$$$$
