
     RDKit          3D

 26 27  0  0  0  0  0  0  0  0999 V2000
   10.3338   -4.7410   25.6897 H   0  0  0  0  0  0  0  0  0  0  0  0
    9.3735   -4.8678   25.1829 C   0  0  0  0  0  0  0  0  0  0  0  0
    9.0106   -5.8921   25.0999 H   0  0  0  0  0  0  0  0  0  0  0  0
    8.6808   -3.8387   24.7050 C   0  0  0  0  0  0  0  0  0  0  0  0
    7.7105   -3.9945   24.2265 H   0  0  0  0  0  0  0  0  0  0  0  0
    9.1549   -2.4052   24.8090 C   0  0  0  0  0  0  0  0  0  0  0  0
   10.1620   -2.2998   24.3830 H   0  0  0  0  0  0  0  0  0  0  0  0
    9.2526   -2.1224   25.8567 H   0  0  0  0  0  0  0  0  0  0  0  0
    8.2610   -1.4446   24.2681 O   0  0  0  0  0  0  0  0  0  0  0  0
    8.1134   -1.3708   22.9159 C   0  0  0  0  0  0  0  0  0  0  0  0
    8.7465   -2.0476   21.8455 C   0  0  0  0  0  0  0  0  0  0  0  0
    9.4986   -2.8220   21.9074 H   0  0  0  0  0  0  0  0  0  0  0  0
    8.2950   -1.6226   20.6731 N   0  0  0  0  0  0  0  0  0  0  0  0
    7.3707   -0.6902   20.9607 N   0  0  0  0  0  0  0  0  0  0  0  0
    6.6698   -0.0048   19.9228 C   0  0  0  0  0  0  0  0  0  0  0  0
    7.1862    0.0464   18.6148 C   0  0  0  0  0  0  0  0  0  0  0  0
    8.1283   -0.4337   18.3747 H   0  0  0  0  0  0  0  0  0  0  0  0
    6.5745    0.6682   17.6020 N   0  0  0  0  0  0  0  0  0  0  0  0
    5.4079    1.2872   17.8461 C   0  0  0  0  0  0  0  0  0  0  0  0
    4.9221    1.7768   17.0001 H   0  0  0  0  0  0  0  0  0  0  0  0
    4.8162    1.3011   19.1131 C   0  0  0  0  0  0  0  0  0  0  0  0
    3.8829    1.8360   19.2661 H   0  0  0  0  0  0  0  0  0  0  0  0
    5.4501    0.6435   20.1709 C   0  0  0  0  0  0  0  0  0  0  0  0
    4.9960    0.6280   21.1647 H   0  0  0  0  0  0  0  0  0  0  0  0
    7.2385   -0.5061   22.3064 C   0  0  0  0  0  0  0  0  0  0  0  0
    6.5696    0.2231   22.7353 H   0  0  0  0  0  0  0  0  0  0  0  0
  1  2  1  0
  2  3  1  0
  2  4  2  3
  4  5  1  0
  4  6  1  0
  6  7  1  0
  6  8  1  0
  6  9  1  0
  9 10  1  0
 10 11  1  0
 11 12  1  0
 11 13  2  0
 13 14  1  0
 14 15  1  0
 15 16  2  0
 16 17  1  0
 16 18  1  0
 18 19  2  0
 19 20  1  0
 19 21  1  0
 21 22  1  0
 21 23  2  0
 23 24  1  0
 14 25  1  0
 25 26  1  0
 25 10  2  0
 23 15  1  0
M  END
>  <cnnaffinity>  (1) 
-4.62617

>  <filename>  (1) 
C=CCOc1cnn(-c2cccnc2)c1

$$$$
