
     RDKit          3D

 25 25  0  0  0  0  0  0  0  0999 V2000
    8.7298    0.4935   25.3410 H   0  0  0  0  0  0  0  0  0  0  0  0
    7.6453    0.5418   25.4358 C   0  0  0  0  0  0  0  0  0  0  0  0
    7.2400    0.5523   26.4460 H   0  0  0  0  0  0  0  0  0  0  0  0
    6.8676    0.5975   24.3610 C   0  0  0  0  0  0  0  0  0  0  0  0
    5.7813    0.6307   24.4836 H   0  0  0  0  0  0  0  0  0  0  0  0
    7.3813    0.5693   22.9445 C   0  0  0  0  0  0  0  0  0  0  0  0
    8.4695    0.7079   22.9340 H   0  0  0  0  0  0  0  0  0  0  0  0
    6.9611    1.4045   22.3719 H   0  0  0  0  0  0  0  0  0  0  0  0
    7.0629   -0.7591   22.2365 C   0  0  1  0  0  0  0  0  0  0  0  0
    5.9952   -0.9773   22.3272 H   0  0  0  0  0  0  0  0  0  0  0  0
    7.4178   -0.7015   20.8413 O   0  0  0  0  0  0  0  0  0  0  0  0
    6.6705   -0.0010   19.9373 C   0  0  0  0  0  0  0  0  0  0  0  0
    7.1769    0.0560   18.6151 C   0  0  0  0  0  0  0  0  0  0  0  0
    8.1223   -0.4358   18.3966 H   0  0  0  0  0  0  0  0  0  0  0  0
    6.5702    0.6716   17.5945 N   0  0  0  0  0  0  0  0  0  0  0  0
    5.4008    1.2914   17.8446 C   0  0  0  0  0  0  0  0  0  0  0  0
    4.9151    1.7793   16.9984 H   0  0  0  0  0  0  0  0  0  0  0  0
    4.8143    1.3026   19.1121 C   0  0  0  0  0  0  0  0  0  0  0  0
    3.8806    1.8372   19.2632 H   0  0  0  0  0  0  0  0  0  0  0  0
    5.4492    0.6435   20.1810 C   0  0  0  0  0  0  0  0  0  0  0  0
    5.0036    0.6315   21.1775 H   0  0  0  0  0  0  0  0  0  0  0  0
    7.8353   -1.9302   22.8198 C   0  0  0  0  0  0  0  0  0  0  0  0
    7.5778   -2.0716   23.8732 H   0  0  0  0  0  0  0  0  0  0  0  0
    7.6065   -2.8561   22.2904 H   0  0  0  0  0  0  0  0  0  0  0  0
    8.9117   -1.7478   22.7589 H   0  0  0  0  0  0  0  0  0  0  0  0
  1  2  1  0
  2  3  1  0
  2  4  2  3
  4  5  1  0
  4  6  1  0
  6  7  1  0
  6  8  1  0
  6  9  1  0
  9 10  1  6
  9 11  1  0
 11 12  1  0
 12 13  2  0
 13 14  1  0
 13 15  1  0
 15 16  2  0
 16 17  1  0
 16 18  1  0
 18 19  1  0
 18 20  2  0
 20 21  1  0
  9 22  1  0
 22 23  1  0
 22 24  1  0
 22 25  1  0
 20 12  1  0
M  END
>  <cnnaffinity>  (1) 
-4.04693

>  <filename>  (1) 
C=CC[C@H](C)Oc1cccnc1

$$$$
