
     RDKit          3D

 27 28  0  0  0  0  0  0  0  0999 V2000
   11.2031    2.0034   23.9823 H   0  0  0  0  0  0  0  0  0  0  0  0
   11.0030    1.2643   23.2114 C   0  0  0  0  0  0  0  0  0  0  0  0
   10.6089    1.6387   22.2641 H   0  0  0  0  0  0  0  0  0  0  0  0
   11.2211   -0.0298   23.4033 C   0  0  0  0  0  0  0  0  0  0  0  0
   11.5803   -0.3763   24.3742 H   0  0  0  0  0  0  0  0  0  0  0  0
   10.9254   -1.0810   22.3479 C   0  0  0  0  0  0  0  0  0  0  0  0
   11.3740   -2.0399   22.6230 H   0  0  0  0  0  0  0  0  0  0  0  0
   11.3923   -0.7769   21.3995 H   0  0  0  0  0  0  0  0  0  0  0  0
    9.4373   -1.2531   22.1255 C   0  0  0  0  0  0  0  0  0  0  0  0
    8.6565   -2.0376   22.9878 C   0  0  0  0  0  0  0  0  0  0  0  0
    9.1352   -2.5632   23.8048 H   0  0  0  0  0  0  0  0  0  0  0  0
    7.3314   -2.2015   22.8811 N   0  0  0  0  0  0  0  0  0  0  0  0
    6.7218   -1.5331   21.8949 C   0  0  0  0  0  0  0  0  0  0  0  0
    5.6504   -1.6840   21.7844 H   0  0  0  0  0  0  0  0  0  0  0  0
    7.3866   -0.6965   20.9789 C   0  0  0  0  0  0  0  0  0  0  0  0
    6.6578    0.0127   19.8992 C   0  0  0  0  0  0  0  0  0  0  0  0
    7.1738    0.0749   18.5906 C   0  0  0  0  0  0  0  0  0  0  0  0
    8.1155   -0.4263   18.3712 H   0  0  0  0  0  0  0  0  0  0  0  0
    6.5628    0.6810   17.5661 N   0  0  0  0  0  0  0  0  0  0  0  0
    5.3986    1.2956   17.8350 C   0  0  0  0  0  0  0  0  0  0  0  0
    4.9105    1.7812   16.9949 H   0  0  0  0  0  0  0  0  0  0  0  0
    4.8027    1.3155   19.1018 C   0  0  0  0  0  0  0  0  0  0  0  0
    3.8706    1.8461   19.2587 H   0  0  0  0  0  0  0  0  0  0  0  0
    5.4343    0.6475   20.1501 C   0  0  0  0  0  0  0  0  0  0  0  0
    5.0119    0.6345   21.1601 H   0  0  0  0  0  0  0  0  0  0  0  0
    8.7710   -0.5642   21.1118 C   0  0  0  0  0  0  0  0  0  0  0  0
    9.3131    0.0998   20.4343 H   0  0  0  0  0  0  0  0  0  0  0  0
  1  2  1  0
  2  3  1  0
  2  4  2  3
  4  5  1  0
  4  6  1  0
  6  7  1  0
  6  8  1  0
  6  9  1  0
  9 10  2  0
 10 11  1  0
 10 12  1  0
 12 13  2  0
 13 14  1  0
 13 15  1  0
 15 16  1  0
 16 17  2  0
 17 18  1  0
 17 19  1  0
 19 20  2  0
 20 21  1  0
 20 22  1  0
 22 23  1  0
 22 24  2  0
 24 25  1  0
 15 26  2  0
 26 27  1  0
 26  9  1  0
 24 16  1  0
M  END
>  <cnnaffinity>  (1) 
-5.0259

>  <filename>  (1) 
C=CCc1cncc(-c2cccnc2)c1

$$$$
