
     RDKit          3D

 27 28  0  0  0  0  0  0  0  0999 V2000
   10.0214    2.0741   22.2731 H   0  0  0  0  0  0  0  0  0  0  0  0
   10.5283    1.7722   23.1904 C   0  0  0  0  0  0  0  0  0  0  0  0
   10.6090    2.5267   23.9694 H   0  0  0  0  0  0  0  0  0  0  0  0
   11.0062    0.5414   23.3320 C   0  0  0  0  0  0  0  0  0  0  0  0
   11.4685    0.2383   24.2787 H   0  0  0  0  0  0  0  0  0  0  0  0
   10.8526   -0.5020   22.2272 C   0  0  0  0  0  0  0  0  0  0  0  0
   11.2129   -0.1018   21.2698 H   0  0  0  0  0  0  0  0  0  0  0  0
   11.4521   -1.3896   22.4614 H   0  0  0  0  0  0  0  0  0  0  0  0
    9.4052   -0.9226   22.0278 C   0  0  0  0  0  0  0  0  0  0  0  0
    8.7230   -0.3609   21.0673 N   0  0  0  0  0  0  0  0  0  0  0  0
    7.3851   -0.6496   20.9537 N   0  0  0  0  0  0  0  0  0  0  0  0
    6.6925    0.0466   19.9134 C   0  0  0  0  0  0  0  0  0  0  0  0
    7.2085    0.0838   18.6042 C   0  0  0  0  0  0  0  0  0  0  0  0
    8.1470   -0.4147   18.3744 H   0  0  0  0  0  0  0  0  0  0  0  0
    6.5745    0.6691   17.5816 N   0  0  0  0  0  0  0  0  0  0  0  0
    5.4081    1.2869   17.8401 C   0  0  0  0  0  0  0  0  0  0  0  0
    4.9281    1.7796   16.9963 H   0  0  0  0  0  0  0  0  0  0  0  0
    4.8224    1.3080   19.1091 C   0  0  0  0  0  0  0  0  0  0  0  0
    3.8862    1.8310   19.2573 H   0  0  0  0  0  0  0  0  0  0  0  0
    5.4589    0.6556   20.1684 C   0  0  0  0  0  0  0  0  0  0  0  0
    5.0180    0.6034   21.1628 H   0  0  0  0  0  0  0  0  0  0  0  0
    6.6928   -1.6577   21.7126 C   0  0  0  0  0  0  0  0  0  0  0  0
    5.5503   -2.0019   21.4613 O   0  0  0  0  0  0  0  0  0  0  0  0
    7.5131   -2.2473   22.7662 C   0  0  0  0  0  0  0  0  0  0  0  0
    6.9959   -2.9820   23.3714 H   0  0  0  0  0  0  0  0  0  0  0  0
    8.8162   -1.8995   22.9134 C   0  0  0  0  0  0  0  0  0  0  0  0
    9.4517   -2.3251   23.6856 H   0  0  0  0  0  0  0  0  0  0  0  0
  1  2  1  0
  2  3  1  0
  2  4  2  3
  4  5  1  0
  4  6  1  0
  6  7  1  0
  6  8  1  0
  6  9  1  0
  9 10  2  0
 10 11  1  0
 11 12  1  0
 12 13  2  0
 13 14  1  0
 13 15  1  0
 15 16  2  0
 16 17  1  0
 16 18  1  0
 18 19  1  0
 18 20  2  0
 20 21  1  0
 11 22  1  0
 22 23  2  0
 22 24  1  0
 24 25  1  0
 24 26  2  0
 26 27  1  0
 26  9  1  0
 20 12  1  0
M  END
>  <cnnaffinity>  (1) 
-5.08877

>  <filename>  (1) 
C=CCc1ccc(=O)n(-c2cccnc2)n1

$$$$
