
     RDKit          3D

 28 29  0  0  0  0  0  0  0  0999 V2000
   10.2110    1.6906   25.3650 H   0  0  0  0  0  0  0  0  0  0  0  0
   10.2668    0.7928   24.7546 C   0  0  0  0  0  0  0  0  0  0  0  0
    9.9612   -0.1441   25.2237 H   0  0  0  0  0  0  0  0  0  0  0  0
   10.6792    0.8264   23.4912 C   0  0  0  0  0  0  0  0  0  0  0  0
   10.9400    1.7829   23.0319 H   0  0  0  0  0  0  0  0  0  0  0  0
   10.7430   -0.4080   22.6042 C   0  0  0  0  0  0  0  0  0  0  0  0
   11.3281   -0.1912   21.6970 H   0  0  0  0  0  0  0  0  0  0  0  0
   11.2540   -1.2185   23.1365 H   0  0  0  0  0  0  0  0  0  0  0  0
    9.3698   -0.8969   22.2254 C   0  0  0  0  0  0  0  0  0  0  0  0
    8.6499   -0.2829   21.2640 C   0  0  0  0  0  0  0  0  0  0  0  0
    9.0404    0.5633   20.6987 H   0  0  0  0  0  0  0  0  0  0  0  0
    7.3554   -0.6693   20.9416 N   0  0  0  0  0  0  0  0  0  0  0  0
    6.6604    0.0253   19.8893 C   0  0  0  0  0  0  0  0  0  0  0  0
    7.1807    0.0774   18.5828 C   0  0  0  0  0  0  0  0  0  0  0  0
    8.1202   -0.4274   18.3622 H   0  0  0  0  0  0  0  0  0  0  0  0
    6.5603    0.6841   17.5666 N   0  0  0  0  0  0  0  0  0  0  0  0
    5.3962    1.2985   17.8309 C   0  0  0  0  0  0  0  0  0  0  0  0
    4.9113    1.7872   16.9897 H   0  0  0  0  0  0  0  0  0  0  0  0
    4.8094    1.3152   19.1012 C   0  0  0  0  0  0  0  0  0  0  0  0
    3.8763    1.8415   19.2573 H   0  0  0  0  0  0  0  0  0  0  0  0
    5.4419    0.6532   20.1567 C   0  0  0  0  0  0  0  0  0  0  0  0
    5.0140    0.6139   21.1599 H   0  0  0  0  0  0  0  0  0  0  0  0
    6.7252   -1.7392   21.6145 C   0  0  0  0  0  0  0  0  0  0  0  0
    5.6266   -2.1817   21.3644 O   0  0  0  0  0  0  0  0  0  0  0  0
    7.4702   -2.3045   22.5935 N   0  0  0  0  0  0  0  0  0  0  0  0
    7.0184   -3.0534   23.0785 H   0  0  0  0  0  0  0  0  0  0  0  0
    8.7392   -1.9829   22.9997 C   0  0  0  0  0  0  0  0  0  0  0  0
    9.2163   -2.6061   23.9203 O   0  0  0  0  0  0  0  0  0  0  0  0
  1  2  1  0
  2  3  1  0
  2  4  2  3
  4  5  1  0
  4  6  1  0
  6  7  1  0
  6  8  1  0
  6  9  1  0
  9 10  2  0
 10 11  1  0
 10 12  1  0
 12 13  1  0
 13 14  2  0
 14 15  1  0
 14 16  1  0
 16 17  2  0
 17 18  1  0
 17 19  1  0
 19 20  1  0
 19 21  2  0
 21 22  1  0
 12 23  1  0
 23 24  2  0
 23 25  1  0
 25 26  1  0
 25 27  1  0
 27 28  2  0
 27  9  1  0
 21 13  1  0
M  END
>  <cnnaffinity>  (1) 
-5.12397

>  <filename>  (1) 
C=CCc1cn(-c2cccnc2)c(=O)[nH]c1=O

$$$$
