
     RDKit          3D

 41 43  0  0  0  0  0  0  0  0999 V2000
    5.2482    2.0093   16.7226 H   0  0  0  0  0  0  0  0  0  0  0  0
    5.5674    1.3911   17.5616 C   0  0  0  0  0  0  0  0  0  0  0  0
    6.6741    0.6574   17.3653 N   0  0  0  0  0  0  0  0  0  0  0  0
    7.0948   -0.0985   18.3881 C   0  0  0  0  0  0  0  0  0  0  0  0
    7.9958   -0.6812   18.2071 H   0  0  0  0  0  0  0  0  0  0  0  0
    6.4438   -0.1953   19.6408 C   0  0  0  0  0  0  0  0  0  0  0  0
    7.0160   -1.0323   20.7422 C   0  0  0  0  0  0  0  0  0  0  0  0
    6.2527   -1.9362   21.5054 C   0  0  0  0  0  0  0  0  0  0  0  0
    5.1929   -2.0712   21.3060 H   0  0  0  0  0  0  0  0  0  0  0  0
    6.7621   -2.7051   22.4783 N   0  0  0  0  0  0  0  0  0  0  0  0
    8.0591   -2.5632   22.7810 C   0  0  0  0  0  0  0  0  0  0  0  0
    8.4178   -3.1858   23.6003 H   0  0  0  0  0  0  0  0  0  0  0  0
    8.9242   -1.6753   22.1228 C   0  0  0  0  0  0  0  0  0  0  0  0
   10.3619   -1.4324   22.5373 C   0  0  0  0  0  0  0  0  0  0  0  0
   10.9283   -1.1856   21.6291 H   0  0  0  0  0  0  0  0  0  0  0  0
   10.8177   -2.3352   22.9579 H   0  0  0  0  0  0  0  0  0  0  0  0
   10.4955   -0.2807   23.5497 C   0  0  0  0  0  0  0  0  0  0  0  0
    9.8395    0.5543   23.2347 H   0  0  0  0  0  0  0  0  0  0  0  0
   10.1168   -0.6191   24.5245 H   0  0  0  0  0  0  0  0  0  0  0  0
   11.8688    0.1910   23.7625 N   0  0  0  0  0  0  0  0  0  0  0  0
   11.9146    1.3717   24.6425 C   0  0  0  0  0  0  0  0  0  0  0  0
   12.8202    1.3179   25.2635 H   0  0  0  0  0  0  0  0  0  0  0  0
   11.0533    1.3928   25.3230 H   0  0  0  0  0  0  0  0  0  0  0  0
   12.0275    2.5564   23.6813 C   0  0  0  0  0  0  0  0  0  0  0  0
   12.2870    3.5165   24.1363 H   0  0  0  0  0  0  0  0  0  0  0  0
   11.0707    2.6775   23.1544 H   0  0  0  0  0  0  0  0  0  0  0  0
   13.0707    2.0133   22.7067 C   0  0  0  0  0  0  0  0  0  0  0  0
   14.0823    2.0948   23.1229 H   0  0  0  0  0  0  0  0  0  0  0  0
   13.0576    2.5454   21.7541 H   0  0  0  0  0  0  0  0  0  0  0  0
   12.6208    0.5466   22.5365 C   0  0  1  0  0  0  0  0  0  0  0  0
   11.9480    0.5637   21.6613 H   0  0  0  0  0  0  0  0  0  0  0  0
   13.7146   -0.4807   22.2782 C   0  0  0  0  0  0  0  0  0  0  0  0
   13.2645   -1.4372   21.9908 H   0  0  0  0  0  0  0  0  0  0  0  0
   14.3631   -0.1588   21.4603 H   0  0  0  0  0  0  0  0  0  0  0  0
   14.3350   -0.6489   23.1657 H   0  0  0  0  0  0  0  0  0  0  0  0
    8.3720   -0.9345   21.0696 C   0  0  0  0  0  0  0  0  0  0  0  0
    8.9995   -0.2489   20.5060 H   0  0  0  0  0  0  0  0  0  0  0  0
    5.2785    0.5688   19.8087 C   0  0  0  0  0  0  0  0  0  0  0  0
    4.7430    0.5489   20.7612 H   0  0  0  0  0  0  0  0  0  0  0  0
    4.8466    1.3834   18.7597 C   0  0  0  0  0  0  0  0  0  0  0  0
    3.9730    2.0198   18.8580 H   0  0  0  0  0  0  0  0  0  0  0  0
  1  2  1  0
  2  3  2  0
  3  4  1  0
  4  5  1  0
  4  6  2  0
  6  7  1  0
  7  8  2  0
  8  9  1  0
  8 10  1  0
 10 11  2  0
 11 12  1  0
 11 13  1  0
 13 14  1  0
 14 15  1  0
 14 16  1  0
 14 17  1  0
 17 18  1  0
 17 19  1  0
 17 20  1  0
 20 21  1  0
 21 22  1  0
 21 23  1  0
 21 24  1  0
 24 25  1  0
 24 26  1  0
 24 27  1  0
 27 28  1  0
 27 29  1  0
 27 30  1  0
 30 31  1  6
 30 32  1  0
 32 33  1  0
 32 34  1  0
 32 35  1  0
 13 36  2  0
 36 37  1  0
  6 38  1  0
 38 39  1  0
 38 40  2  0
 40 41  1  0
 40  2  1  0
 36  7  1  0
 30 20  1  0
M  END
>  <cnnaffinity>  (1) 
-4.66162

>  <filename>  (1) 
C[C@@H]1CCCN1CCc1cncc(-c2cccnc2)c1

$$$$
