
     RDKit          3D

 28 29  0  0  0  0  0  0  0  0999 V2000
    9.6275   -0.9198   26.2104 H   0  0  0  0  0  0  0  0  0  0  0  0
    9.3858   -1.3725   25.3842 O   0  0  0  0  0  0  0  0  0  0  0  0
   10.2788   -0.7741   24.5725 C   0  0  0  0  0  0  0  0  0  0  0  0
   11.0042    0.0653   25.0435 O   0  0  0  0  0  0  0  0  0  0  0  0
   10.2881   -1.2631   23.1274 C   0  0  2  0  0  0  0  0  0  0  0  0
   11.0602   -0.6568   22.6468 H   0  0  0  0  0  0  0  0  0  0  0  0
    9.0025   -1.0122   22.3969 C   0  0  0  0  0  0  0  0  0  0  0  0
    8.7528   -0.4048   21.2165 C   0  0  0  0  0  0  0  0  0  0  0  0
    9.3781    0.2459   20.6228 H   0  0  0  0  0  0  0  0  0  0  0  0
    7.4684   -0.7586   20.7969 N   0  0  0  0  0  0  0  0  0  0  0  0
    6.7421   -0.0957   19.7591 C   0  0  0  0  0  0  0  0  0  0  0  0
    7.2350    0.0070   18.4378 C   0  0  0  0  0  0  0  0  0  0  0  0
    8.1705   -0.4756   18.1489 H   0  0  0  0  0  0  0  0  0  0  0  0
    6.5997    0.6862   17.4728 N   0  0  0  0  0  0  0  0  0  0  0  0
    5.4533    1.3117   17.7831 C   0  0  0  0  0  0  0  0  0  0  0  0
    4.9891    1.8876   16.9843 H   0  0  0  0  0  0  0  0  0  0  0  0
    4.8744    1.2574   19.0559 C   0  0  0  0  0  0  0  0  0  0  0  0
    3.9527    1.7955   19.2499 H   0  0  0  0  0  0  0  0  0  0  0  0
    5.5198    0.5253   20.0568 C   0  0  0  0  0  0  0  0  0  0  0  0
    5.1035    0.4365   21.0609 H   0  0  0  0  0  0  0  0  0  0  0  0
    6.9082   -1.6505   21.7348 C   0  0  0  0  0  0  0  0  0  0  0  0
    5.8588   -2.2576   21.6956 O   0  0  0  0  0  0  0  0  0  0  0  0
    7.8526   -1.7123   22.7268 N   0  0  0  0  0  0  0  0  0  0  0  0
    7.6974   -2.3226   23.5117 H   0  0  0  0  0  0  0  0  0  0  0  0
   10.6369   -2.7710   22.9865 C   0  0  0  0  0  0  0  0  0  0  0  0
   11.6617   -3.0181   23.2734 H   0  0  0  0  0  0  0  0  0  0  0  0
    9.9491   -3.4001   23.5620 H   0  0  0  0  0  0  0  0  0  0  0  0
   10.4876   -3.0338   21.9400 H   0  0  0  0  0  0  0  0  0  0  0  0
  1  2  1  0
  2  3  1  0
  3  4  2  0
  3  5  1  0
  5  6  1  6
  5  7  1  0
  7  8  2  0
  8  9  1  0
  8 10  1  0
 10 11  1  0
 11 12  2  0
 12 13  1  0
 12 14  1  0
 14 15  2  0
 15 16  1  0
 15 17  1  0
 17 18  1  0
 17 19  2  0
 19 20  1  0
 10 21  1  0
 21 22  2  0
 21 23  1  0
 23 24  1  0
  5 25  1  0
 25 26  1  0
 25 27  1  0
 25 28  1  0
 23  7  1  0
 19 11  1  0
M  END
>  <cnnaffinity>  (1) 
-4.73378

>  <filename>  (1) 
C[C@H](C(=O)O)c1cn(-c2cccnc2)c(=O)[nH]1

$$$$
