
     RDKit          3D

 34 36  0  0  0  0  0  0  0  0999 V2000
    4.9264    1.7770   17.0028 H   0  0  0  0  0  0  0  0  0  0  0  0
    5.4069    1.2880   17.8494 C   0  0  0  0  0  0  0  0  0  0  0  0
    6.5719    0.6708   17.6009 N   0  0  0  0  0  0  0  0  0  0  0  0
    7.1717    0.0487   18.6176 C   0  0  0  0  0  0  0  0  0  0  0  0
    8.1145   -0.4353   18.3802 H   0  0  0  0  0  0  0  0  0  0  0  0
    6.6563   -0.0007   19.9252 C   0  0  0  0  0  0  0  0  0  0  0  0
    7.4310   -0.7689   20.9542 C   0  0  0  0  0  0  0  0  0  0  0  0
    8.2258   -1.6188   20.6076 O   0  0  0  0  0  0  0  0  0  0  0  0
    7.2384   -0.3965   22.4392 C   0  0  1  0  0  0  0  0  0  0  0  0
    6.1749   -0.4904   22.6731 H   0  0  0  0  0  0  0  0  0  0  0  0
    7.9351   -1.4109   23.3206 C   0  0  0  0  0  0  0  0  0  0  0  0
    7.1836   -2.2087   24.0532 N   0  0  0  0  0  0  0  0  0  0  0  0
    7.8099   -3.1040   24.8919 C   0  0  0  0  0  0  0  0  0  0  0  0
    7.0301   -3.9737   25.7101 C   0  0  0  0  0  0  0  0  0  0  0  0
    5.9525   -3.8708   25.6387 H   0  0  0  0  0  0  0  0  0  0  0  0
    7.6320   -4.8955   26.5407 C   0  0  0  0  0  0  0  0  0  0  0  0
    7.0315   -5.5624   27.1604 H   0  0  0  0  0  0  0  0  0  0  0  0
    9.0555   -5.0034   26.6087 C   0  0  0  0  0  0  0  0  0  0  0  0
    9.5113   -5.7401   27.2708 H   0  0  0  0  0  0  0  0  0  0  0  0
    9.8424   -4.1809   25.8375 C   0  0  0  0  0  0  0  0  0  0  0  0
   10.9340   -4.2547   25.8720 H   0  0  0  0  0  0  0  0  0  0  0  0
    9.2347   -3.2172   24.9726 C   0  0  0  0  0  0  0  0  0  0  0  0
    9.9895   -2.3503   24.1494 C   0  0  0  0  0  0  0  0  0  0  0  0
   11.0600   -2.4647   24.1623 H   0  0  0  0  0  0  0  0  0  0  0  0
    9.3601   -1.4485   23.3341 C   0  0  0  0  0  0  0  0  0  0  0  0
    9.9314   -0.7846   22.6930 H   0  0  0  0  0  0  0  0  0  0  0  0
    7.6738    1.0629   22.7330 C   0  0  0  0  0  0  0  0  0  0  0  0
    7.6115    1.2822   23.8047 H   0  0  0  0  0  0  0  0  0  0  0  0
    7.0368    1.7811   22.2045 H   0  0  0  0  0  0  0  0  0  0  0  0
    8.7080    1.2508   22.4164 H   0  0  0  0  0  0  0  0  0  0  0  0
    5.4381    0.6538   20.1722 C   0  0  0  0  0  0  0  0  0  0  0  0
    4.9847    0.6491   21.1683 H   0  0  0  0  0  0  0  0  0  0  0  0
    4.8072    1.3062   19.1116 C   0  0  0  0  0  0  0  0  0  0  0  0
    3.8753    1.8407   19.2589 H   0  0  0  0  0  0  0  0  0  0  0  0
  1  2  1  0
  2  3  2  0
  3  4  1  0
  4  5  1  0
  4  6  2  0
  6  7  1  0
  7  8  2  0
  7  9  1  0
  9 10  1  1
  9 11  1  0
 11 12  2  0
 12 13  1  0
 13 14  2  0
 14 15  1  0
 14 16  1  0
 16 17  1  0
 16 18  2  0
 18 19  1  0
 18 20  1  0
 20 21  1  0
 20 22  2  0
 22 23  1  0
 23 24  1  0
 23 25  2  0
 25 26  1  0
  9 27  1  0
 27 28  1  0
 27 29  1  0
 27 30  1  0
  6 31  1  0
 31 32  1  0
 31 33  2  0
 33 34  1  0
 33  2  1  0
 25 11  1  0
 22 13  1  0
M  END
>  <cnnaffinity>  (1) 
-5.34234

>  <filename>  (1) 
C[C@@H](C(=O)c1cccnc1)c1ccc2ccccc2n1

$$$$
