
     RDKit          3D

 36 39  0  0  0  0  0  0  0  0999 V2000
    4.9123    1.8154   16.9692 H   0  0  0  0  0  0  0  0  0  0  0  0
    5.3763    1.3064   17.8157 C   0  0  0  0  0  0  0  0  0  0  0  0
    6.5397    0.6862   17.5619 N   0  0  0  0  0  0  0  0  0  0  0  0
    7.1529    0.0791   18.5814 C   0  0  0  0  0  0  0  0  0  0  0  0
    8.1031   -0.3893   18.3309 H   0  0  0  0  0  0  0  0  0  0  0  0
    6.6629    0.0311   19.9075 C   0  0  0  0  0  0  0  0  0  0  0  0
    7.4158   -0.6715   20.9657 C   0  0  0  0  0  0  0  0  0  0  0  0
    8.3243   -1.7011   20.8991 C   0  0  0  0  0  0  0  0  0  0  0  0
    8.7418   -2.1092   19.9986 H   0  0  0  0  0  0  0  0  0  0  0  0
    8.7645   -2.1397   22.1158 N   0  0  0  0  0  0  0  0  0  0  0  0
    8.1525   -1.3347   22.9440 C   0  0  0  0  0  0  0  0  0  0  0  0
    8.2416   -1.0034   24.6361 S   0  0  0  0  0  0  0  0  0  0  0  0
    7.1137    0.3293   24.3333 C   0  0  0  0  0  0  0  0  0  0  0  0
    6.5644    1.1845   25.4393 C   0  0  1  0  0  0  0  0  0  0  0  0
    6.3523    2.1469   24.9551 H   0  0  0  0  0  0  0  0  0  0  0  0
    5.2336    0.6044   25.9267 C   0  0  0  0  0  0  0  0  0  0  0  0
    4.0484    1.3344   25.7817 C   0  0  0  0  0  0  0  0  0  0  0  0
    4.1001    2.3184   25.3189 H   0  0  0  0  0  0  0  0  0  0  0  0
    2.8279    0.8184   26.2345 C   0  0  0  0  0  0  0  0  0  0  0  0
    1.9182    1.4041   26.1265 H   0  0  0  0  0  0  0  0  0  0  0  0
    2.7874   -0.4464   26.8321 C   0  0  0  0  0  0  0  0  0  0  0  0
    1.8460   -0.8577   27.1870 H   0  0  0  0  0  0  0  0  0  0  0  0
    3.9674   -1.1869   26.9718 C   0  0  0  0  0  0  0  0  0  0  0  0
    3.9520   -2.1713   27.4319 H   0  0  0  0  0  0  0  0  0  0  0  0
    5.1802   -0.6658   26.5189 C   0  0  0  0  0  0  0  0  0  0  0  0
    6.0907   -1.2527   26.6215 H   0  0  0  0  0  0  0  0  0  0  0  0
    7.5727    1.3982   26.5805 C   0  0  0  0  0  0  0  0  0  0  0  0
    7.8219    0.4503   27.0714 H   0  0  0  0  0  0  0  0  0  0  0  0
    8.5048    1.8285   26.1982 H   0  0  0  0  0  0  0  0  0  0  0  0
    7.1490    2.0727   27.3289 H   0  0  0  0  0  0  0  0  0  0  0  0
    6.7462    0.5125   23.1102 N   0  0  0  0  0  0  0  0  0  0  0  0
    7.3247   -0.4390   22.3329 N   0  0  0  0  0  0  0  0  0  0  0  0
    5.4310    0.6696   20.1412 C   0  0  0  0  0  0  0  0  0  0  0  0
    5.0114    0.6590   21.1444 H   0  0  0  0  0  0  0  0  0  0  0  0
    4.7860    1.3169   19.0832 C   0  0  0  0  0  0  0  0  0  0  0  0
    3.8525    1.8512   19.2253 H   0  0  0  0  0  0  0  0  0  0  0  0
  1  2  1  0
  2  3  2  0
  3  4  1  0
  4  5  1  0
  4  6  2  0
  6  7  1  0
  7  8  2  0
  8  9  1  0
  8 10  1  0
 10 11  2  0
 11 12  1  0
 12 13  1  0
 13 14  1  0
 14 15  1  6
 14 16  1  0
 16 17  2  0
 17 18  1  0
 17 19  1  0
 19 20  1  0
 19 21  2  0
 21 22  1  0
 21 23  1  0
 23 24  1  0
 23 25  2  0
 25 26  1  0
 14 27  1  0
 27 28  1  0
 27 29  1  0
 27 30  1  0
 13 31  2  0
 31 32  1  0
  6 33  1  0
 33 34  1  0
 33 35  2  0
 35 36  1  0
 35  2  1  0
 32  7  1  0
 32 11  1  0
 25 16  1  0
M  END
>  <cnnaffinity>  (1) 
-5.44686

>  <filename>  (1) 
C[C@H](c1ccccc1)c1nn2c(-c3cccnc3)cnc2s1

$$$$
