
     RDKit          3D

 35 37  0  0  0  0  0  0  0  0999 V2000
    4.9927    1.9750   16.9410 H   0  0  0  0  0  0  0  0  0  0  0  0
    5.4711    1.3895   17.7225 C   0  0  0  0  0  0  0  0  0  0  0  0
    6.6180    0.7763   17.3878 N   0  0  0  0  0  0  0  0  0  0  0  0
    7.2288    0.0510   18.3341 C   0  0  0  0  0  0  0  0  0  0  0  0
    8.1577   -0.4327   18.0418 H   0  0  0  0  0  0  0  0  0  0  0  0
    6.7210   -0.1293   19.6403 C   0  0  0  0  0  0  0  0  0  0  0  0
    7.3946   -0.9486   20.6027 N   0  0  0  0  0  0  0  0  0  0  0  0
    8.7447   -0.8737   20.9578 C   0  0  0  0  0  0  0  0  0  0  0  0
    9.3605   -0.0806   20.5607 H   0  0  0  0  0  0  0  0  0  0  0  0
    9.0168   -1.8497   21.8607 C   0  0  0  0  0  0  0  0  0  0  0  0
   10.2932   -2.0922   22.6276 C   0  0  1  0  0  0  0  0  0  0  0  0
   11.1031   -2.0949   21.8869 H   0  0  0  0  0  0  0  0  0  0  0  0
   10.5344   -0.9272   23.5926 C   0  0  0  0  0  0  0  0  0  0  0  0
    9.6459   -0.7848   24.6631 C   0  0  0  0  0  0  0  0  0  0  0  0
    8.8310   -1.4914   24.7608 H   0  0  0  0  0  0  0  0  0  0  0  0
    9.7932    0.2314   25.6029 C   0  0  0  0  0  0  0  0  0  0  0  0
    9.1242    0.2919   26.4581 H   0  0  0  0  0  0  0  0  0  0  0  0
   10.8273    1.1536   25.4470 C   0  0  0  0  0  0  0  0  0  0  0  0
   10.9048    1.9345   26.1816 H   0  0  0  0  0  0  0  0  0  0  0  0
   11.7303    1.0414   24.3841 C   0  0  0  0  0  0  0  0  0  0  0  0
   12.5534    1.7467   24.2731 H   0  0  0  0  0  0  0  0  0  0  0  0
   11.5764   -0.0019   23.4601 C   0  0  0  0  0  0  0  0  0  0  0  0
   12.2787   -0.1030   22.6370 H   0  0  0  0  0  0  0  0  0  0  0  0
   10.3266   -3.4347   23.3846 C   0  0  0  0  0  0  0  0  0  0  0  0
   11.3502   -3.8067   23.4654 H   0  0  0  0  0  0  0  0  0  0  0  0
    9.7113   -4.1876   22.8913 H   0  0  0  0  0  0  0  0  0  0  0  0
    9.9447   -3.3423   24.4021 H   0  0  0  0  0  0  0  0  0  0  0  0
    7.8180   -2.5379   22.0388 N   0  0  0  0  0  0  0  0  0  0  0  0
    7.5510   -3.1899   22.7528 H   0  0  0  0  0  0  0  0  0  0  0  0
    6.7836   -1.9783   21.3334 C   0  0  0  0  0  0  0  0  0  0  0  0
    5.6272   -2.3445   21.3842 O   0  0  0  0  0  0  0  0  0  0  0  0
    5.5227    0.5175   19.9729 C   0  0  0  0  0  0  0  0  0  0  0  0
    5.1093    0.3835   20.9748 H   0  0  0  0  0  0  0  0  0  0  0  0
    4.8961    1.3013   18.9973 C   0  0  0  0  0  0  0  0  0  0  0  0
    3.9729    1.8313   19.2110 H   0  0  0  0  0  0  0  0  0  0  0  0
  1  2  1  0
  2  3  2  0
  3  4  1  0
  4  5  1  0
  4  6  2  0
  6  7  1  0
  7  8  1  0
  8  9  1  0
  8 10  2  0
 10 11  1  0
 11 12  1  6
 11 13  1  0
 13 14  2  0
 14 15  1  0
 14 16  1  0
 16 17  1  0
 16 18  2  0
 18 19  1  0
 18 20  1  0
 20 21  1  0
 20 22  2  0
 22 23  1  0
 11 24  1  0
 24 25  1  0
 24 26  1  0
 24 27  1  0
 10 28  1  0
 28 29  1  0
 28 30  1  0
 30 31  2  0
  6 32  1  0
 32 33  1  0
 32 34  2  0
 34 35  1  0
 34  2  1  0
 30  7  1  0
 22 13  1  0
M  END
>  <cnnaffinity>  (1) 
-5.41188

>  <filename>  (1) 
C[C@H](c1ccccc1)c1cn(-c2cccnc2)c(=O)[nH]1

$$$$
