
     RDKit          3D

 32 33  0  0  0  0  0  0  0  0999 V2000
    8.7936   -0.0718   21.2958 C   0  0  0  0  0  0  0  0  0  0  0  0
    7.4223   -0.7235   21.1111 C   0  0  2  0  0  0  0  0  0  0  0  0
    7.6869   -2.1405   20.9034 N   0  0  0  0  0  0  0  0  0  0  0  0
    6.5151   -3.2990   21.0519 S   0  0  0  0  0  0  0  0  0  0  0  0
    5.3921   -2.9457   20.2154 O   0  0  0  0  0  0  0  0  0  0  0  0
    7.2628   -4.5128   20.7977 O   0  0  0  0  0  0  0  0  0  0  0  0
    6.0933   -3.2248   22.7670 C   0  0  0  0  0  0  0  0  0  0  0  0
    7.0306   -2.7823   23.7158 C   0  0  0  0  0  0  0  0  0  0  0  0
    6.6775   -2.7473   25.0620 C   0  0  0  0  0  0  0  0  0  0  0  0
    5.4090   -3.1383   25.4898 C   0  0  0  0  0  0  0  0  0  0  0  0
    4.4933   -3.6169   24.5517 C   0  0  0  0  0  0  0  0  0  0  0  0
    2.9340   -4.1165   25.1139 Cl  0  0  0  0  0  0  0  0  0  0  0  0
    4.8539   -3.7303   23.1943 C   0  0  0  0  0  0  0  0  0  0  0  0
    3.8250   -4.6225   22.1621 Cl  0  0  0  0  0  0  0  0  0  0  0  0
    5.1299   -3.1347   26.5421 H   0  0  0  0  0  0  0  0  0  0  0  0
    7.4120   -2.4293   25.7902 H   0  0  0  0  0  0  0  0  0  0  0  0
    8.0348   -2.4682   23.4308 H   0  0  0  0  0  0  0  0  0  0  0  0
    7.9507   -2.3590   19.9498 H   0  0  0  0  0  0  0  0  0  0  0  0
    6.6426   -0.1190   19.9747 C   0  0  0  0  0  0  0  0  0  0  0  0
    5.4462    0.5876   20.1744 C   0  0  0  0  0  0  0  0  0  0  0  0
    4.8613    1.2493   19.0931 C   0  0  0  0  0  0  0  0  0  0  0  0
    5.5004    1.1920   17.8493 C   0  0  0  0  0  0  0  0  0  0  0  0
    6.6332    0.5072   17.6309 N   0  0  0  0  0  0  0  0  0  0  0  0
    7.1701   -0.1334   18.6768 C   0  0  0  0  0  0  0  0  0  0  0  0
    8.1090   -0.6467   18.4612 H   0  0  0  0  0  0  0  0  0  0  0  0
    5.0914    1.7236   16.9930 H   0  0  0  0  0  0  0  0  0  0  0  0
    3.9545    1.8374   19.2061 H   0  0  0  0  0  0  0  0  0  0  0  0
    4.9924    0.6421   21.1683 H   0  0  0  0  0  0  0  0  0  0  0  0
    6.8516   -0.5969   22.0419 H   0  0  0  0  0  0  0  0  0  0  0  0
    9.4088   -0.2211   20.4018 H   0  0  0  0  0  0  0  0  0  0  0  0
    9.3052   -0.5455   22.1399 H   0  0  0  0  0  0  0  0  0  0  0  0
    8.7234    1.0035   21.4823 H   0  0  0  0  0  0  0  0  0  0  0  0
  1  2  1  0
  2  3  1  0
  3  4  1  0
  4  5  2  0
  4  6  2  0
  4  7  1  0
  7  8  2  0
  8  9  1  0
  9 10  2  0
 10 11  1  0
 11 12  1  0
 11 13  2  0
 13 14  1  0
 10 15  1  0
  9 16  1  0
  8 17  1  0
  3 18  1  0
  2 19  1  0
 19 20  2  0
 20 21  1  0
 21 22  2  0
 22 23  1  0
 23 24  2  0
 24 25  1  0
 22 26  1  0
 21 27  1  0
 20 28  1  0
  2 29  1  1
  1 30  1  0
  1 31  1  0
  1 32  1  0
 13  7  1  0
 24 19  1  0
M  END
>  <cnnaffinity>  (1) 
-5.034

>  <filename>  (1) 
C[C@H](NS(=O)(=O)c1cccc(Cl)c1Cl)c1cccnc1

$$$$
