
     RDKit          3D

 44 47  0  0  0  0  0  0  0  0999 V2000
    4.9503    1.8290   16.9668 H   0  0  0  0  0  0  0  0  0  0  0  0
    5.3949    1.2948   17.8047 C   0  0  0  0  0  0  0  0  0  0  0  0
    6.5400    0.6431   17.5564 N   0  0  0  0  0  0  0  0  0  0  0  0
    7.1296    0.0051   18.5713 C   0  0  0  0  0  0  0  0  0  0  0  0
    8.0648   -0.5016   18.3443 H   0  0  0  0  0  0  0  0  0  0  0  0
    6.6309    0.0006   19.8843 C   0  0  0  0  0  0  0  0  0  0  0  0
    7.4236   -0.6333   20.9369 C   0  0  0  0  0  0  0  0  0  0  0  0
    8.0013   -1.8777   20.7872 N   0  0  0  0  0  0  0  0  0  0  0  0
    8.5904   -2.0832   21.9293 C   0  0  0  0  0  0  0  0  0  0  0  0
    8.5246   -1.0240   22.7714 N   0  0  0  0  0  0  0  0  0  0  0  0
    7.7390   -0.0829   22.1704 C   0  0  0  0  0  0  0  0  0  0  0  0
    7.3615    1.1644   22.8903 C   0  0  0  0  0  0  0  0  0  0  0  0
    8.2502    1.5726   23.3861 H   0  0  0  0  0  0  0  0  0  0  0  0
    7.0554    1.9148   22.1555 H   0  0  0  0  0  0  0  0  0  0  0  0
    6.2451    1.0116   23.9443 C   0  0  0  0  0  0  0  0  0  0  0  0
    5.3524    0.6089   23.4414 H   0  0  0  0  0  0  0  0  0  0  0  0
    5.9667    2.0267   24.2647 H   0  0  0  0  0  0  0  0  0  0  0  0
    6.6078    0.1904   25.1027 N   0  0  0  0  0  0  0  0  0  0  0  0
    5.7516   -0.9657   25.3435 C   0  0  0  0  0  0  0  0  0  0  0  0
    5.9464   -1.7456   24.5946 H   0  0  0  0  0  0  0  0  0  0  0  0
    4.6786   -0.7098   25.2705 H   0  0  0  0  0  0  0  0  0  0  0  0
    6.0755   -1.4203   26.7693 C   0  0  0  0  0  0  0  0  0  0  0  0
    5.1834   -1.8024   27.2757 H   0  0  0  0  0  0  0  0  0  0  0  0
    6.8050   -2.2358   26.7571 H   0  0  0  0  0  0  0  0  0  0  0  0
    6.6534   -0.1713   27.4582 C   0  0  0  0  0  0  0  0  0  0  0  0
    6.0236    0.1845   28.2786 H   0  0  0  0  0  0  0  0  0  0  0  0
    7.6358   -0.3860   27.8887 H   0  0  0  0  0  0  0  0  0  0  0  0
    6.7667    0.9108   26.3696 C   0  0  1  0  0  0  0  0  0  0  0  0
    5.9343    1.6282   26.4990 H   0  0  0  0  0  0  0  0  0  0  0  0
    8.0821    1.6828   26.4086 C   0  0  0  0  0  0  0  0  0  0  0  0
    8.9264    0.9989   26.2530 H   0  0  0  0  0  0  0  0  0  0  0  0
    8.1217    2.4510   25.6305 H   0  0  0  0  0  0  0  0  0  0  0  0
    8.2195    2.1808   27.3745 H   0  0  0  0  0  0  0  0  0  0  0  0
    9.2624   -1.1147   24.0146 C   0  0  0  0  0  0  0  0  0  0  0  0
    9.6965   -0.1497   24.2876 H   0  0  0  0  0  0  0  0  0  0  0  0
    8.5856   -1.4305   24.8119 H   0  0  0  0  0  0  0  0  0  0  0  0
   10.3239   -2.1817   23.7240 C   0  0  0  0  0  0  0  0  0  0  0  0
   10.7308   -2.6678   24.6152 H   0  0  0  0  0  0  0  0  0  0  0  0
   11.1356   -1.7652   23.1196 H   0  0  0  0  0  0  0  0  0  0  0  0
    9.4581   -3.4090   22.6860 S   0  0  0  0  0  0  0  0  0  0  0  0
    5.4121    0.6605   20.1192 C   0  0  0  0  0  0  0  0  0  0  0  0
    4.9585    0.6654   21.1106 H   0  0  0  0  0  0  0  0  0  0  0  0
    4.7810    1.3127   19.0614 C   0  0  0  0  0  0  0  0  0  0  0  0
    3.8551    1.8558   19.2018 H   0  0  0  0  0  0  0  0  0  0  0  0
  1  2  1  0
  2  3  2  0
  3  4  1  0
  4  5  1  0
  4  6  2  0
  6  7  1  0
  7  8  1  0
  8  9  2  0
  9 10  1  0
 10 11  1  0
 11 12  1  0
 12 13  1  0
 12 14  1  0
 12 15  1  0
 15 16  1  0
 15 17  1  0
 15 18  1  0
 18 19  1  0
 19 20  1  0
 19 21  1  0
 19 22  1  0
 22 23  1  0
 22 24  1  0
 22 25  1  0
 25 26  1  0
 25 27  1  0
 25 28  1  0
 28 29  1  1
 28 30  1  0
 30 31  1  0
 30 32  1  0
 30 33  1  0
 10 34  1  0
 34 35  1  0
 34 36  1  0
 34 37  1  0
 37 38  1  0
 37 39  1  0
 37 40  1  0
  6 41  1  0
 41 42  1  0
 41 43  2  0
 43 44  1  0
 43  2  1  0
 11  7  2  0
 28 18  1  0
 40  9  1  0
M  END
>  <cnnaffinity>  (1) 
-5.83649

>  <filename>  (1) 
C[C@@H]1CCCN1CCc1c(-c2cccnc2)nc2n1CCS2

$$$$
