
     RDKit          3D

 36 38  0  0  0  0  0  0  0  0999 V2000
    4.8954    1.7886   16.9328 H   0  0  0  0  0  0  0  0  0  0  0  0
    5.3605    1.3430   17.8104 C   0  0  0  0  0  0  0  0  0  0  0  0
    6.5401    0.7337   17.6150 N   0  0  0  0  0  0  0  0  0  0  0  0
    7.1219    0.1788   18.6796 C   0  0  0  0  0  0  0  0  0  0  0  0
    8.0777   -0.3032   18.4819 H   0  0  0  0  0  0  0  0  0  0  0  0
    6.5939    0.2109   19.9845 C   0  0  0  0  0  0  0  0  0  0  0  0
    7.3471   -0.4547   21.0646 C   0  0  0  0  0  0  0  0  0  0  0  0
    7.0842   -0.0280   22.3433 O   0  0  0  0  0  0  0  0  0  0  0  0
    7.7347   -0.6215   23.3963 C   0  0  0  0  0  0  0  0  0  0  0  0
    7.5238    0.0065   24.7554 C   0  0  1  0  0  0  0  0  0  0  0  0
    6.9047    0.9002   24.6224 H   0  0  0  0  0  0  0  0  0  0  0  0
    6.7429   -0.9868   25.6340 C   0  0  0  0  0  0  0  0  0  0  0  0
    7.3627   -2.0099   26.3741 C   0  0  0  0  0  0  0  0  0  0  0  0
    8.4469   -2.1075   26.3981 H   0  0  0  0  0  0  0  0  0  0  0  0
    6.5974   -2.9328   27.0968 C   0  0  0  0  0  0  0  0  0  0  0  0
    7.0912   -3.7328   27.6430 H   0  0  0  0  0  0  0  0  0  0  0  0
    5.2019   -2.8481   27.0952 C   0  0  0  0  0  0  0  0  0  0  0  0
    4.6096   -3.5599   27.6638 H   0  0  0  0  0  0  0  0  0  0  0  0
    4.5717   -1.8550   26.3385 C   0  0  0  0  0  0  0  0  0  0  0  0
    3.4868   -1.7999   26.3013 H   0  0  0  0  0  0  0  0  0  0  0  0
    5.3410   -0.9466   25.6055 C   0  0  0  0  0  0  0  0  0  0  0  0
    4.8496   -0.2003   24.9840 H   0  0  0  0  0  0  0  0  0  0  0  0
    8.8751    0.4410   25.3758 C   0  0  0  0  0  0  0  0  0  0  0  0
    9.3501    1.2127   24.7576 H   0  0  0  0  0  0  0  0  0  0  0  0
    9.5746   -0.4011   25.4504 H   0  0  0  0  0  0  0  0  0  0  0  0
    8.7331    0.8496   26.3802 H   0  0  0  0  0  0  0  0  0  0  0  0
    8.4741   -1.7408   23.2273 C   0  0  0  0  0  0  0  0  0  0  0  0
    8.9411   -2.2527   24.0527 H   0  0  0  0  0  0  0  0  0  0  0  0
    8.6027   -2.3446   21.9172 C   0  0  0  0  0  0  0  0  0  0  0  0
    9.0004   -3.4874   21.7465 O   0  0  0  0  0  0  0  0  0  0  0  0
    8.1707   -1.4942   20.8355 C   0  0  0  0  0  0  0  0  0  0  0  0
    8.4595   -1.7986   19.8521 H   0  0  0  0  0  0  0  0  0  0  0  0
    5.3456    0.8280   20.1678 C   0  0  0  0  0  0  0  0  0  0  0  0
    4.8872    0.8487   21.1567 H   0  0  0  0  0  0  0  0  0  0  0  0
    4.7264    1.4006   19.0579 C   0  0  0  0  0  0  0  0  0  0  0  0
    3.7650    1.8922   19.1423 H   0  0  0  0  0  0  0  0  0  0  0  0
  1  2  1  0
  2  3  2  0
  3  4  1  0
  4  5  1  0
  4  6  2  0
  6  7  1  0
  7  8  1  0
  8  9  1  0
  9 10  1  0
 10 11  1  6
 10 12  1  0
 12 13  2  0
 13 14  1  0
 13 15  1  0
 15 16  1  0
 15 17  2  0
 17 18  1  0
 17 19  1  0
 19 20  1  0
 19 21  2  0
 21 22  1  0
 10 23  1  0
 23 24  1  0
 23 25  1  0
 23 26  1  0
  9 27  2  0
 27 28  1  0
 27 29  1  0
 29 30  2  0
 29 31  1  0
 31 32  1  0
  6 33  1  0
 33 34  1  0
 33 35  2  0
 35 36  1  0
 35  2  1  0
 31  7  2  0
 21 12  1  0
M  END
>  <cnnaffinity>  (1) 
-5.2955

>  <filename>  (1) 
C[C@H](c1ccccc1)c1cc(=O)cc(-c2cccnc2)o1

$$$$
