
     RDKit          3D

 35 38  0  0  0  0  0  0  0  0999 V2000
    4.9162    1.7755   17.0020 H   0  0  0  0  0  0  0  0  0  0  0  0
    5.4049    1.2899   17.8424 C   0  0  0  0  0  0  0  0  0  0  0  0
    6.5703    0.6780   17.5765 N   0  0  0  0  0  0  0  0  0  0  0  0
    7.1753    0.0574   18.5901 C   0  0  0  0  0  0  0  0  0  0  0  0
    8.1245   -0.4345   18.3738 H   0  0  0  0  0  0  0  0  0  0  0  0
    6.6488    0.0125   19.8912 C   0  0  0  0  0  0  0  0  0  0  0  0
    7.4027   -0.7033   20.9168 C   0  0  0  0  0  0  0  0  0  0  0  0
    8.3232   -1.6088   20.6930 N   0  0  0  0  0  0  0  0  0  0  0  0
    8.8137   -2.0599   21.8972 N   0  0  0  0  0  0  0  0  0  0  0  0
    8.1749   -1.3854   22.8146 C   0  0  0  0  0  0  0  0  0  0  0  0
    8.2025   -1.1792   24.5387 S   0  0  0  0  0  0  0  0  0  0  0  0
    6.9707    0.0865   24.3325 C   0  0  0  0  0  0  0  0  0  0  0  0
    6.3732    0.8056   25.5166 C   0  0  1  0  0  0  0  0  0  0  0  0
    6.0847    1.7911   25.1327 H   0  0  0  0  0  0  0  0  0  0  0  0
    5.1121    0.0807   25.9867 C   0  0  0  0  0  0  0  0  0  0  0  0
    5.1842   -1.2209   26.5107 C   0  0  0  0  0  0  0  0  0  0  0  0
    6.1416   -1.7342   26.5803 H   0  0  0  0  0  0  0  0  0  0  0  0
    4.0273   -1.8763   26.9383 C   0  0  0  0  0  0  0  0  0  0  0  0
    4.0964   -2.8848   27.3371 H   0  0  0  0  0  0  0  0  0  0  0  0
    2.7841   -1.2389   26.8511 C   0  0  0  0  0  0  0  0  0  0  0  0
    1.8852   -1.7511   27.1840 H   0  0  0  0  0  0  0  0  0  0  0  0
    2.7037    0.0579   26.3343 C   0  0  0  0  0  0  0  0  0  0  0  0
    1.7430    0.5610   26.2644 H   0  0  0  0  0  0  0  0  0  0  0  0
    3.8643    0.7114   25.9041 C   0  0  0  0  0  0  0  0  0  0  0  0
    3.8037    1.7219   25.5043 H   0  0  0  0  0  0  0  0  0  0  0  0
    7.3689    1.0264   26.6669 C   0  0  0  0  0  0  0  0  0  0  0  0
    7.7037    0.0789   27.1016 H   0  0  0  0  0  0  0  0  0  0  0  0
    6.8950    1.6092   27.4608 H   0  0  0  0  0  0  0  0  0  0  0  0
    8.2506    1.5701   26.3153 H   0  0  0  0  0  0  0  0  0  0  0  0
    6.5898    0.3174   23.1218 N   0  0  0  0  0  0  0  0  0  0  0  0
    7.2658   -0.5301   22.2776 N   0  0  0  0  0  0  0  0  0  0  0  0
    5.4333    0.6524   20.1612 C   0  0  0  0  0  0  0  0  0  0  0  0
    5.0084    0.6349   21.1679 H   0  0  0  0  0  0  0  0  0  0  0  0
    4.8048    1.3086   19.1082 C   0  0  0  0  0  0  0  0  0  0  0  0
    3.8740    1.8435   19.2617 H   0  0  0  0  0  0  0  0  0  0  0  0
  1  2  1  0
  2  3  2  0
  3  4  1  0
  4  5  1  0
  4  6  2  0
  6  7  1  0
  7  8  2  0
  8  9  1  0
  9 10  2  0
 10 11  1  0
 11 12  1  0
 12 13  1  0
 13 14  1  6
 13 15  1  0
 15 16  2  0
 16 17  1  0
 16 18  1  0
 18 19  1  0
 18 20  2  0
 20 21  1  0
 20 22  1  0
 22 23  1  0
 22 24  2  0
 24 25  1  0
 13 26  1  0
 26 27  1  0
 26 28  1  0
 26 29  1  0
 12 30  2  0
 30 31  1  0
  6 32  1  0
 32 33  1  0
 32 34  2  0
 34 35  1  0
 34  2  1  0
 31  7  1  0
 31 10  1  0
 24 15  1  0
M  END
>  <cnnaffinity>  (1) 
-5.43084

>  <filename>  (1) 
C[C@H](c1ccccc1)c1nn2c(-c3cccnc3)nnc2s1

$$$$
