
     RDKit          3D

 33 35  0  0  0  0  0  0  0  0999 V2000
    4.9186    1.7917   16.9854 H   0  0  0  0  0  0  0  0  0  0  0  0
    5.3981    1.2980   17.8265 C   0  0  0  0  0  0  0  0  0  0  0  0
    6.5606    0.6836   17.5641 N   0  0  0  0  0  0  0  0  0  0  0  0
    7.1547    0.0643   18.5904 C   0  0  0  0  0  0  0  0  0  0  0  0
    8.1034   -0.4125   18.3600 H   0  0  0  0  0  0  0  0  0  0  0  0
    6.6386   -0.0184   19.8948 C   0  0  0  0  0  0  0  0  0  0  0  0
    7.4551   -0.7170   20.9749 C   0  0  1  0  0  0  0  0  0  0  0  0
    8.0884   -1.4604   20.4722 H   0  0  0  0  0  0  0  0  0  0  0  0
    8.3942    0.2752   21.6680 C   0  0  0  0  0  0  0  0  0  0  0  0
    7.8729    1.3597   22.4443 C   0  0  0  0  0  0  0  0  0  0  0  0
    6.7935    1.4878   22.5414 H   0  0  0  0  0  0  0  0  0  0  0  0
    8.7096    2.2607   23.0588 C   0  0  0  0  0  0  0  0  0  0  0  0
    8.3097    3.0799   23.6527 H   0  0  0  0  0  0  0  0  0  0  0  0
   10.1260    2.1384   22.9363 C   0  0  0  0  0  0  0  0  0  0  0  0
   11.0345    3.0449   23.5656 C   0  0  0  0  0  0  0  0  0  0  0  0
   10.6154    3.8587   24.1558 H   0  0  0  0  0  0  0  0  0  0  0  0
   12.3962    2.8898   23.4127 C   0  0  0  0  0  0  0  0  0  0  0  0
   13.0848    3.5987   23.8661 H   0  0  0  0  0  0  0  0  0  0  0  0
   12.9213    1.8093   22.6434 C   0  0  0  0  0  0  0  0  0  0  0  0
   14.0019    1.6997   22.5408 H   0  0  0  0  0  0  0  0  0  0  0  0
   12.0671    0.9126   22.0433 C   0  0  0  0  0  0  0  0  0  0  0  0
   12.4174    0.0306   21.5154 H   0  0  0  0  0  0  0  0  0  0  0  0
   10.6551    1.0625   22.1529 C   0  0  0  0  0  0  0  0  0  0  0  0
    9.7560    0.1501   21.5237 C   0  0  0  0  0  0  0  0  0  0  0  0
   10.1742   -0.6667   20.9303 H   0  0  0  0  0  0  0  0  0  0  0  0
    6.5890   -1.4770   21.9837 C   0  0  0  0  0  0  0  0  0  0  0  0
    7.2043   -2.1017   22.6401 H   0  0  0  0  0  0  0  0  0  0  0  0
    6.0672   -0.7669   22.6290 H   0  0  0  0  0  0  0  0  0  0  0  0
    5.8539   -2.1070   21.4701 H   0  0  0  0  0  0  0  0  0  0  0  0
    5.4295    0.6424   20.1480 C   0  0  0  0  0  0  0  0  0  0  0  0
    4.9823    0.6377   21.1472 H   0  0  0  0  0  0  0  0  0  0  0  0
    4.8034    1.3115   19.0930 C   0  0  0  0  0  0  0  0  0  0  0  0
    3.8740    1.8441   19.2482 H   0  0  0  0  0  0  0  0  0  0  0  0
  1  2  1  0
  2  3  2  0
  3  4  1  0
  4  5  1  0
  4  6  2  0
  6  7  1  0
  7  8  1  6
  7  9  1  0
  9 10  2  0
 10 11  1  0
 10 12  1  0
 12 13  1  0
 12 14  2  0
 14 15  1  0
 15 16  1  0
 15 17  2  0
 17 18  1  0
 17 19  1  0
 19 20  1  0
 19 21  2  0
 21 22  1  0
 21 23  1  0
 23 24  2  0
 24 25  1  0
  7 26  1  0
 26 27  1  0
 26 28  1  0
 26 29  1  0
  6 30  1  0
 30 31  1  0
 30 32  2  0
 32 33  1  0
 32  2  1  0
 24  9  1  0
 23 14  1  0
M  END
>  <cnnaffinity>  (1) 
-4.65029

>  <filename>  (1) 
C[C@@H](c1cccnc1)c1ccc2ccccc2c1

$$$$
