
     RDKit          3D

 35 37  0  0  0  0  0  0  0  0999 V2000
    4.9976    1.8490   16.9137 H   0  0  0  0  0  0  0  0  0  0  0  0
    5.4298    1.3365   17.7719 C   0  0  0  0  0  0  0  0  0  0  0  0
    6.5879    0.6934   17.5592 N   0  0  0  0  0  0  0  0  0  0  0  0
    7.1248    0.0315   18.5927 C   0  0  0  0  0  0  0  0  0  0  0  0
    8.0692   -0.4757   18.3956 H   0  0  0  0  0  0  0  0  0  0  0  0
    6.5598   -0.0242   19.8889 C   0  0  0  0  0  0  0  0  0  0  0  0
    7.2156   -0.7357   21.0152 C   0  0  0  0  0  0  0  0  0  0  0  0
    7.8544   -0.1712   22.0650 C   0  0  0  0  0  0  0  0  0  0  0  0
    7.8807    1.2648   22.5375 C   0  0  1  0  0  0  0  0  0  0  0  0
    7.2342    1.8558   21.8736 H   0  0  0  0  0  0  0  0  0  0  0  0
    7.2914    1.4003   23.9526 C   0  0  0  0  0  0  0  0  0  0  0  0
    5.9564    1.8099   24.1010 C   0  0  0  0  0  0  0  0  0  0  0  0
    5.3760    2.0527   23.2119 H   0  0  0  0  0  0  0  0  0  0  0  0
    5.3609    1.9188   25.3598 C   0  0  0  0  0  0  0  0  0  0  0  0
    4.3265    2.2482   25.4430 H   0  0  0  0  0  0  0  0  0  0  0  0
    6.0990    1.6115   26.5087 C   0  0  0  0  0  0  0  0  0  0  0  0
    5.6390    1.6940   27.4897 H   0  0  0  0  0  0  0  0  0  0  0  0
    7.4297    1.1933   26.3834 C   0  0  0  0  0  0  0  0  0  0  0  0
    8.0046    0.9437   27.2738 H   0  0  0  0  0  0  0  0  0  0  0  0
    8.0180    1.0908   25.1164 C   0  0  0  0  0  0  0  0  0  0  0  0
    9.0519    0.7508   25.0511 H   0  0  0  0  0  0  0  0  0  0  0  0
    9.2720    1.9138   22.4394 C   0  0  0  0  0  0  0  0  0  0  0  0
    9.2177    2.9527   22.7816 H   0  0  0  0  0  0  0  0  0  0  0  0
   10.0267    1.4034   23.0448 H   0  0  0  0  0  0  0  0  0  0  0  0
    9.6159    1.9202   21.4009 H   0  0  0  0  0  0  0  0  0  0  0  0
    8.5190   -1.2624   22.8457 C   0  0  0  0  0  0  0  0  0  0  0  0
    9.6140   -1.1777   22.8483 H   0  0  0  0  0  0  0  0  0  0  0  0
    8.1758   -1.2947   23.8896 H   0  0  0  0  0  0  0  0  0  0  0  0
    8.1486   -2.4692   22.2047 O   0  0  0  0  0  0  0  0  0  0  0  0
    7.2817   -2.2219   21.1794 C   0  0  0  0  0  0  0  0  0  0  0  0
    6.7200   -3.1051   20.5892 O   0  0  0  0  0  0  0  0  0  0  0  0
    5.3463    0.6540   20.0749 C   0  0  0  0  0  0  0  0  0  0  0  0
    4.8558    0.6274   21.0528 H   0  0  0  0  0  0  0  0  0  0  0  0
    4.7697    1.3401   19.0047 C   0  0  0  0  0  0  0  0  0  0  0  0
    3.8263    1.8661   19.1041 H   0  0  0  0  0  0  0  0  0  0  0  0
  1  2  1  0
  2  3  2  0
  3  4  1  0
  4  5  1  0
  4  6  2  0
  6  7  1  0
  7  8  2  0
  8  9  1  0
  9 10  1  6
  9 11  1  0
 11 12  2  0
 12 13  1  0
 12 14  1  0
 14 15  1  0
 14 16  2  0
 16 17  1  0
 16 18  1  0
 18 19  1  0
 18 20  2  0
 20 21  1  0
  9 22  1  0
 22 23  1  0
 22 24  1  0
 22 25  1  0
  8 26  1  0
 26 27  1  0
 26 28  1  0
 26 29  1  0
 29 30  1  0
 30 31  2  0
  6 32  1  0
 32 33  1  0
 32 34  2  0
 34 35  1  0
 34  2  1  0
 30  7  1  0
 20 11  1  0
M  END
>  <cnnaffinity>  (1) 
-4.89694

>  <filename>  (1) 
C[C@@H](C1=C(c2cccnc2)C(=O)OC1)c1ccccc1

$$$$
