
     RDKit          3D

 37 39  0  0  0  0  0  0  0  0999 V2000
    4.9510    1.9231   16.9084 H   0  0  0  0  0  0  0  0  0  0  0  0
    5.4188    1.3456   17.7018 C   0  0  0  0  0  0  0  0  0  0  0  0
    6.5667    0.7242   17.3839 N   0  0  0  0  0  0  0  0  0  0  0  0
    7.1945    0.0456   18.3529 C   0  0  0  0  0  0  0  0  0  0  0  0
    8.1401   -0.4253   18.0909 H   0  0  0  0  0  0  0  0  0  0  0  0
    6.6969   -0.0605   19.6708 C   0  0  0  0  0  0  0  0  0  0  0  0
    7.4373   -0.7062   20.7433 N   0  0  0  0  0  0  0  0  0  0  0  0
    8.6899   -0.1740   21.1526 C   0  0  0  0  0  0  0  0  0  0  0  0
    9.2288    0.6932   20.4935 O   0  0  0  0  0  0  0  0  0  0  0  0
    9.2663   -0.7104   22.3647 C   0  0  0  0  0  0  0  0  0  0  0  0
   10.1939   -0.2542   22.6642 H   0  0  0  0  0  0  0  0  0  0  0  0
    8.7041   -1.7287   23.0380 C   0  0  0  0  0  0  0  0  0  0  0  0
    9.3383   -2.4424   24.2232 C   0  0  1  0  0  0  0  0  0  0  0  0
   10.1905   -1.8237   24.5192 H   0  0  0  0  0  0  0  0  0  0  0  0
    8.3837   -2.4292   25.4202 C   0  0  0  0  0  0  0  0  0  0  0  0
    7.4157   -3.4173   25.6548 C   0  0  0  0  0  0  0  0  0  0  0  0
    7.4464   -4.3480   25.0902 H   0  0  0  0  0  0  0  0  0  0  0  0
    6.4014   -3.2071   26.5984 C   0  0  0  0  0  0  0  0  0  0  0  0
    5.6439   -3.9704   26.7516 H   0  0  0  0  0  0  0  0  0  0  0  0
    6.3802   -2.0290   27.3524 C   0  0  0  0  0  0  0  0  0  0  0  0
    5.5711   -1.8421   28.0491 H   0  0  0  0  0  0  0  0  0  0  0  0
    7.4160   -1.0962   27.2203 C   0  0  0  0  0  0  0  0  0  0  0  0
    7.4667   -0.2247   27.8702 H   0  0  0  0  0  0  0  0  0  0  0  0
    8.4053   -1.3011   26.2583 C   0  0  0  0  0  0  0  0  0  0  0  0
    9.2042   -0.5712   26.1344 H   0  0  0  0  0  0  0  0  0  0  0  0
    9.9316   -3.8138   23.8258 C   0  0  0  0  0  0  0  0  0  0  0  0
   10.2611   -4.3898   24.6994 H   0  0  0  0  0  0  0  0  0  0  0  0
   10.8122   -3.6447   23.1920 H   0  0  0  0  0  0  0  0  0  0  0  0
    9.2195   -4.4232   23.2551 H   0  0  0  0  0  0  0  0  0  0  0  0
    7.5013   -2.1940   22.5583 N   0  0  0  0  0  0  0  0  0  0  0  0
    6.8686   -2.7811   23.0735 H   0  0  0  0  0  0  0  0  0  0  0  0
    6.8120   -1.6978   21.4871 C   0  0  0  0  0  0  0  0  0  0  0  0
    5.7171   -2.1565   21.2437 O   0  0  0  0  0  0  0  0  0  0  0  0
    5.4733    0.5398   19.9670 C   0  0  0  0  0  0  0  0  0  0  0  0
    5.0553    0.4352   20.9674 H   0  0  0  0  0  0  0  0  0  0  0  0
    4.8304    1.2765   18.9685 C   0  0  0  0  0  0  0  0  0  0  0  0
    3.9048    1.8050   19.1672 H   0  0  0  0  0  0  0  0  0  0  0  0
  1  2  1  0
  2  3  2  0
  3  4  1  0
  4  5  1  0
  4  6  2  0
  6  7  1  0
  7  8  1  0
  8  9  2  0
  8 10  1  0
 10 11  1  0
 10 12  2  0
 12 13  1  0
 13 14  1  1
 13 15  1  0
 15 16  2  0
 16 17  1  0
 16 18  1  0
 18 19  1  0
 18 20  2  0
 20 21  1  0
 20 22  1  0
 22 23  1  0
 22 24  2  0
 24 25  1  0
 13 26  1  0
 26 27  1  0
 26 28  1  0
 26 29  1  0
 12 30  1  0
 30 31  1  0
 30 32  1  0
 32 33  2  0
  6 34  1  0
 34 35  1  0
 34 36  2  0
 36 37  1  0
 36  2  1  0
 32  7  1  0
 24 15  1  0
M  END
>  <cnnaffinity>  (1) 
-5.16458

>  <filename>  (1) 
C[C@H](c1ccccc1)c1cc(=O)n(-c2cccnc2)c(=O)[nH]1

$$$$
