
     RDKit          3D

 36 38  0  0  0  0  0  0  0  0999 V2000
    4.9119    1.8287   16.9615 H   0  0  0  0  0  0  0  0  0  0  0  0
    5.3762    1.3141   17.8020 C   0  0  0  0  0  0  0  0  0  0  0  0
    6.5377    0.6920   17.5405 N   0  0  0  0  0  0  0  0  0  0  0  0
    7.1564    0.0756   18.5564 C   0  0  0  0  0  0  0  0  0  0  0  0
    8.1087   -0.3878   18.2982 H   0  0  0  0  0  0  0  0  0  0  0  0
    6.6592    0.0228   19.8774 C   0  0  0  0  0  0  0  0  0  0  0  0
    7.3678   -0.6637   20.9834 C   0  0  0  0  0  0  0  0  0  0  0  0
    7.5521   -0.3015   22.3134 C   0  0  0  0  0  0  0  0  0  0  0  0
    7.0063    0.8542   22.8993 N   0  0  0  0  0  0  0  0  0  0  0  0
    6.9514    1.6159   22.2281 H   0  0  0  0  0  0  0  0  0  0  0  0
    7.3932    1.2322   24.2510 C   0  0  1  0  0  0  0  0  0  0  0  0
    7.1401    0.3714   24.8912 H   0  0  0  0  0  0  0  0  0  0  0  0
    8.8883    1.4711   24.4709 C   0  0  0  0  0  0  0  0  0  0  0  0
    9.5117    0.8402   25.5582 C   0  0  0  0  0  0  0  0  0  0  0  0
    8.9217    0.2203   26.2304 H   0  0  0  0  0  0  0  0  0  0  0  0
   10.8779    0.9820   25.7875 C   0  0  0  0  0  0  0  0  0  0  0  0
   11.3135    0.4478   26.6265 H   0  0  0  0  0  0  0  0  0  0  0  0
   11.6429    1.7977   24.9477 C   0  0  0  0  0  0  0  0  0  0  0  0
   12.7163    1.8722   25.0906 H   0  0  0  0  0  0  0  0  0  0  0  0
   11.0181    2.4964   23.9106 C   0  0  0  0  0  0  0  0  0  0  0  0
   11.5955    3.1794   23.2940 H   0  0  0  0  0  0  0  0  0  0  0  0
    9.6521    2.3250   23.6579 C   0  0  0  0  0  0  0  0  0  0  0  0
    9.1993    2.8497   22.8156 H   0  0  0  0  0  0  0  0  0  0  0  0
    6.5886    2.4463   24.6840 C   0  0  0  0  0  0  0  0  0  0  0  0
    5.5238    2.2758   24.5112 H   0  0  0  0  0  0  0  0  0  0  0  0
    6.9023    3.3331   24.1182 H   0  0  0  0  0  0  0  0  0  0  0  0
    6.7602    2.6455   25.7471 H   0  0  0  0  0  0  0  0  0  0  0  0
    8.3023   -1.3778   22.8777 C   0  0  0  0  0  0  0  0  0  0  0  0
    8.6857   -1.4876   23.8866 H   0  0  0  0  0  0  0  0  0  0  0  0
    8.5448   -2.3310   21.9784 N   0  0  0  0  0  0  0  0  0  0  0  0
    7.9785   -1.8733   20.8515 N   0  0  0  0  0  0  0  0  0  0  0  0
    7.9436   -2.4625   20.0296 H   0  0  0  0  0  0  0  0  0  0  0  0
    5.4325    0.6704   20.1141 C   0  0  0  0  0  0  0  0  0  0  0  0
    5.0068    0.6435   21.1151 H   0  0  0  0  0  0  0  0  0  0  0  0
    4.7796    1.3227   19.0654 C   0  0  0  0  0  0  0  0  0  0  0  0
    3.8469    1.8571   19.2152 H   0  0  0  0  0  0  0  0  0  0  0  0
  1  2  1  0
  2  3  2  0
  3  4  1  0
  4  5  1  0
  4  6  2  0
  6  7  1  0
  7  8  2  0
  8  9  1  0
  9 10  1  0
  9 11  1  0
 11 12  1  1
 11 13  1  0
 13 14  2  0
 14 15  1  0
 14 16  1  0
 16 17  1  0
 16 18  2  0
 18 19  1  0
 18 20  1  0
 20 21  1  0
 20 22  2  0
 22 23  1  0
 11 24  1  0
 24 25  1  0
 24 26  1  0
 24 27  1  0
  8 28  1  0
 28 29  1  0
 28 30  2  0
 30 31  1  0
 31 32  1  0
  6 33  1  0
 33 34  1  0
 33 35  2  0
 35 36  1  0
 35  2  1  0
 31  7  1  0
 22 13  1  0
M  END
>  <cnnaffinity>  (1) 
-5.35906

>  <filename>  (1) 
C[C@@H](Nc1cn[nH]c1-c1cccnc1)c1ccccc1

$$$$
