
     RDKit          3D

 32 34  0  0  0  0  0  0  0  0999 V2000
    4.9588    1.7860   16.9322 H   0  0  0  0  0  0  0  0  0  0  0  0
    5.3758    1.3043   17.8187 C   0  0  0  0  0  0  0  0  0  0  0  0
    6.5337    0.6519   17.6473 N   0  0  0  0  0  0  0  0  0  0  0  0
    7.0930    0.0907   18.7275 C   0  0  0  0  0  0  0  0  0  0  0  0
    8.0297   -0.4406   18.5567 H   0  0  0  0  0  0  0  0  0  0  0  0
    6.5705    0.1512   20.0317 C   0  0  0  0  0  0  0  0  0  0  0  0
    7.2946   -0.5414   21.1926 C   0  0  2  0  0  0  0  0  0  0  0  0
    6.8008   -0.2131   22.1153 H   0  0  0  0  0  0  0  0  0  0  0  0
    8.7921   -0.1156   21.3019 C   0  0  0  0  0  0  0  0  0  0  0  0
    9.7119   -0.7867   20.8690 O   0  0  0  0  0  0  0  0  0  0  0  0
    9.0925    1.1920   21.9223 C   0  0  0  0  0  0  0  0  0  0  0  0
    8.0321    1.9063   22.4141 O   0  0  0  0  0  0  0  0  0  0  0  0
    8.5512    3.0307   22.9534 C   0  0  0  0  0  0  0  0  0  0  0  0
    7.8087    4.0336   23.5694 C   0  0  0  0  0  0  0  0  0  0  0  0
    6.7292    3.9504   23.6226 H   0  0  0  0  0  0  0  0  0  0  0  0
    8.5280    5.1052   24.0924 C   0  0  0  0  0  0  0  0  0  0  0  0
    7.9853    5.9007   24.5949 H   0  0  0  0  0  0  0  0  0  0  0  0
    9.9367    5.1689   23.9867 C   0  0  0  0  0  0  0  0  0  0  0  0
   10.4586    6.0200   24.4168 H   0  0  0  0  0  0  0  0  0  0  0  0
   10.6595    4.1613   23.3505 C   0  0  0  0  0  0  0  0  0  0  0  0
   11.7430    4.2209   23.2667 H   0  0  0  0  0  0  0  0  0  0  0  0
    9.9498    3.0564   22.8184 C   0  0  0  0  0  0  0  0  0  0  0  0
   10.2699    1.8359   22.1262 C   0  0  0  0  0  0  0  0  0  0  0  0
   11.2360    1.4609   21.8136 H   0  0  0  0  0  0  0  0  0  0  0  0
    7.2243   -2.0622   21.0507 C   0  0  0  0  0  0  0  0  0  0  0  0
    7.9217   -2.3427   20.2675 H   0  0  0  0  0  0  0  0  0  0  0  0
    6.2219   -2.4153   20.7924 H   0  0  0  0  0  0  0  0  0  0  0  0
    7.5575   -2.5554   21.9660 H   0  0  0  0  0  0  0  0  0  0  0  0
    5.3281    0.7941   20.1740 C   0  0  0  0  0  0  0  0  0  0  0  0
    4.8326    0.8389   21.1458 H   0  0  0  0  0  0  0  0  0  0  0  0
    4.7277    1.3817   19.0541 C   0  0  0  0  0  0  0  0  0  0  0  0
    3.7779    1.8978   19.1208 H   0  0  0  0  0  0  0  0  0  0  0  0
  1  2  1  0
  2  3  2  0
  3  4  1  0
  4  5  1  0
  4  6  2  0
  6  7  1  0
  7  8  1  1
  7  9  1  0
  9 10  2  0
  9 11  1  0
 11 12  1  0
 12 13  1  0
 13 14  2  0
 14 15  1  0
 14 16  1  0
 16 17  1  0
 16 18  2  0
 18 19  1  0
 18 20  1  0
 20 21  1  0
 20 22  2  0
 22 23  1  0
 23 24  1  0
  7 25  1  0
 25 26  1  0
 25 27  1  0
 25 28  1  0
  6 29  1  0
 29 30  1  0
 29 31  2  0
 31 32  1  0
 31  2  1  0
 23 11  2  0
 22 13  1  0
M  END
>  <cnnaffinity>  (1) 
-4.67667

>  <filename>  (1) 
C[C@@H](C(=O)c1cc2ccccc2o1)c1cccnc1

$$$$
