
     RDKit          3D

 30 32  0  0  0  0  0  0  0  0999 V2000
    4.9182    1.7860   16.9917 H   0  0  0  0  0  0  0  0  0  0  0  0
    5.4006    1.2962   17.8339 C   0  0  0  0  0  0  0  0  0  0  0  0
    6.5650    0.6809   17.5703 N   0  0  0  0  0  0  0  0  0  0  0  0
    7.1649    0.0494   18.5853 C   0  0  0  0  0  0  0  0  0  0  0  0
    8.1180   -0.4287   18.3646 H   0  0  0  0  0  0  0  0  0  0  0  0
    6.6378   -0.0288   19.8878 C   0  0  0  0  0  0  0  0  0  0  0  0
    7.5522   -0.8576   21.1684 S   0  0  0  0  0  0  0  0  0  0  0  0
    8.5737    0.5767   21.6993 C   0  0  1  0  0  0  0  0  0  0  0  0
    9.0080    1.0105   20.7975 H   0  0  0  0  0  0  0  0  0  0  0  0
    7.7332    1.6771   22.2656 C   0  0  0  0  0  0  0  0  0  0  0  0
    7.6287    2.8727   21.7897 N   0  0  0  0  0  0  0  0  0  0  0  0
    6.7366    3.4964   22.6645 C   0  0  0  0  0  0  0  0  0  0  0  0
    6.2195    4.7960   22.6806 C   0  0  0  0  0  0  0  0  0  0  0  0
    6.5229    5.4873   21.8992 H   0  0  0  0  0  0  0  0  0  0  0  0
    5.3297    5.1341   23.7052 C   0  0  0  0  0  0  0  0  0  0  0  0
    4.9131    6.1422   23.7353 H   0  0  0  0  0  0  0  0  0  0  0  0
    4.9625    4.1872   24.6937 C   0  0  0  0  0  0  0  0  0  0  0  0
    4.2657    4.4839   25.4780 H   0  0  0  0  0  0  0  0  0  0  0  0
    5.4760    2.8814   24.6840 C   0  0  0  0  0  0  0  0  0  0  0  0
    5.2081    2.1393   25.4338 H   0  0  0  0  0  0  0  0  0  0  0  0
    6.3622    2.5850   23.6538 C   0  0  0  0  0  0  0  0  0  0  0  0
    7.0252    1.4161   23.4004 O   0  0  0  0  0  0  0  0  0  0  0  0
    9.6721    0.1085   22.6447 C   0  0  0  0  0  0  0  0  0  0  0  0
    9.2369   -0.3310   23.5459 H   0  0  0  0  0  0  0  0  0  0  0  0
   10.2960   -0.6411   22.1506 H   0  0  0  0  0  0  0  0  0  0  0  0
   10.2997    0.9604   22.9331 H   0  0  0  0  0  0  0  0  0  0  0  0
    5.4242    0.6298   20.1519 C   0  0  0  0  0  0  0  0  0  0  0  0
    5.0086    0.6249   21.1641 H   0  0  0  0  0  0  0  0  0  0  0  0
    4.8004    1.3074   19.0999 C   0  0  0  0  0  0  0  0  0  0  0  0
    3.8708    1.8455   19.2543 H   0  0  0  0  0  0  0  0  0  0  0  0
  1  2  1  0
  2  3  2  0
  3  4  1  0
  4  5  1  0
  4  6  2  0
  6  7  1  0
  7  8  1  0
  8  9  1  6
  8 10  1  0
 10 11  2  0
 11 12  1  0
 12 13  2  0
 13 14  1  0
 13 15  1  0
 15 16  1  0
 15 17  2  0
 17 18  1  0
 17 19  1  0
 19 20  1  0
 19 21  2  0
 21 22  1  0
  8 23  1  0
 23 24  1  0
 23 25  1  0
 23 26  1  0
  6 27  1  0
 27 28  1  0
 27 29  2  0
 29 30  1  0
 29  2  1  0
 22 10  1  0
 21 12  1  0
M  END
>  <cnnaffinity>  (1) 
-4.81524

>  <filename>  (1) 
C[C@@H](Sc1cccnc1)c1nc2ccccc2o1

$$$$
