
     RDKit          3D

 41 43  0  0  0  0  0  0  0  0999 V2000
    4.9389    1.8015   17.0147 H   0  0  0  0  0  0  0  0  0  0  0  0
    5.4237    1.2903   17.8465 C   0  0  0  0  0  0  0  0  0  0  0  0
    6.5879    0.6822   17.5741 N   0  0  0  0  0  0  0  0  0  0  0  0
    7.2180    0.0614   18.5791 C   0  0  0  0  0  0  0  0  0  0  0  0
    8.1562   -0.4273   18.3355 H   0  0  0  0  0  0  0  0  0  0  0  0
    6.7138   -0.0285   19.8953 C   0  0  0  0  0  0  0  0  0  0  0  0
    7.4137   -0.7344   20.9068 N   0  0  0  0  0  0  0  0  0  0  0  0
    6.8272   -1.6237   21.8009 C   0  0  0  0  0  0  0  0  0  0  0  0
    5.7580   -2.1769   21.7522 O   0  0  0  0  0  0  0  0  0  0  0  0
    7.7704   -1.8783   22.7732 N   0  0  0  0  0  0  0  0  0  0  0  0
    7.5870   -2.5850   23.4568 H   0  0  0  0  0  0  0  0  0  0  0  0
    9.0298   -1.5473   22.3706 C   0  0  0  0  0  0  0  0  0  0  0  0
   10.0475   -1.9063   22.9057 O   0  0  0  0  0  0  0  0  0  0  0  0
    8.8666   -0.6617   21.1310 C   0  0  2  0  0  0  0  0  0  0  0  0
    9.4235   -1.1348   20.3114 H   0  0  0  0  0  0  0  0  0  0  0  0
    9.4092    0.7600   21.3259 C   0  0  0  0  0  0  0  0  0  0  0  0
   10.4680    0.6938   21.6054 H   0  0  0  0  0  0  0  0  0  0  0  0
    9.3749    1.2702   20.3632 H   0  0  0  0  0  0  0  0  0  0  0  0
    8.6477    1.6152   22.3366 C   0  0  0  0  0  0  0  0  0  0  0  0
    9.0508    2.6472   22.2810 H   0  0  0  0  0  0  0  0  0  0  0  0
    7.6006    1.6727   22.0216 H   0  0  0  0  0  0  0  0  0  0  0  0
    8.7057    1.0922   23.6931 N   0  0  0  0  0  0  0  0  0  0  0  0
   10.0043    1.2413   24.3447 C   0  0  0  0  0  0  0  0  0  0  0  0
   10.4695    2.2115   24.0932 H   0  0  0  0  0  0  0  0  0  0  0  0
   10.6939    0.4625   23.9977 H   0  0  0  0  0  0  0  0  0  0  0  0
    9.7195    1.1777   25.8571 C   0  0  0  0  0  0  0  0  0  0  0  0
   10.2258    0.3387   26.3446 H   0  0  0  0  0  0  0  0  0  0  0  0
   10.0942    2.0888   26.3256 H   0  0  0  0  0  0  0  0  0  0  0  0
    8.1872    1.0797   25.9818 C   0  0  0  0  0  0  0  0  0  0  0  0
    7.7877    1.7000   26.7924 H   0  0  0  0  0  0  0  0  0  0  0  0
    7.8680    0.0535   26.1828 H   0  0  0  0  0  0  0  0  0  0  0  0
    7.6473    1.5265   24.6147 C   0  0  1  0  0  0  0  0  0  0  0  0
    6.7235    0.9813   24.3683 H   0  0  0  0  0  0  0  0  0  0  0  0
    7.3473    3.0300   24.5672 C   0  0  0  0  0  0  0  0  0  0  0  0
    8.2612    3.6217   24.6987 H   0  0  0  0  0  0  0  0  0  0  0  0
    6.8969    3.3105   23.6098 H   0  0  0  0  0  0  0  0  0  0  0  0
    6.6411    3.3133   25.3528 H   0  0  0  0  0  0  0  0  0  0  0  0
    5.4894    0.6091   20.1644 C   0  0  0  0  0  0  0  0  0  0  0  0
    5.0552    0.5528   21.1669 H   0  0  0  0  0  0  0  0  0  0  0  0
    4.8375    1.2866   19.1214 C   0  0  0  0  0  0  0  0  0  0  0  0
    3.8963    1.8129   19.2777 H   0  0  0  0  0  0  0  0  0  0  0  0
  1  2  1  0
  2  3  2  0
  3  4  1  0
  4  5  1  0
  4  6  2  0
  6  7  1  0
  7  8  1  0
  8  9  2  0
  8 10  1  0
 10 11  1  0
 10 12  1  0
 12 13  2  0
 12 14  1  0
 14 15  1  6
 14 16  1  0
 16 17  1  0
 16 18  1  0
 16 19  1  0
 19 20  1  0
 19 21  1  0
 19 22  1  0
 22 23  1  0
 23 24  1  0
 23 25  1  0
 23 26  1  0
 26 27  1  0
 26 28  1  0
 26 29  1  0
 29 30  1  0
 29 31  1  0
 29 32  1  0
 32 33  1  6
 32 34  1  0
 34 35  1  0
 34 36  1  0
 34 37  1  0
  6 38  1  0
 38 39  1  0
 38 40  2  0
 40 41  1  0
 40  2  1  0
 14  7  1  0
 32 22  1  0
M  END
>  <cnnaffinity>  (1) 
-5.06336

>  <filename>  (1) 
C[C@@H]1CCCN1CC[C@H]1C(=O)NC(=O)N1c1cccnc1

$$$$
