
     RDKit          3D

 34 35  0  0  0  0  0  0  0  0999 V2000
    4.9317    1.7900   16.9087 H   0  0  0  0  0  0  0  0  0  0  0  0
    5.4179    1.2869   17.7392 C   0  0  0  0  0  0  0  0  0  0  0  0
    6.5551    0.6371   17.4550 N   0  0  0  0  0  0  0  0  0  0  0  0
    7.1751    0.0145   18.4670 C   0  0  0  0  0  0  0  0  0  0  0  0
    8.0990   -0.5100   18.2121 H   0  0  0  0  0  0  0  0  0  0  0  0
    6.7078    0.0165   19.7949 C   0  0  0  0  0  0  0  0  0  0  0  0
    7.4326   -0.7048   20.9346 C   0  0  1  0  0  0  0  0  0  0  0  0
    8.4282   -1.0079   20.5787 H   0  0  0  0  0  0  0  0  0  0  0  0
    7.6461    0.3013   22.0949 C   0  0  0  0  0  0  0  0  0  0  0  0
    6.8567    0.4592   23.0134 O   0  0  0  0  0  0  0  0  0  0  0  0
    8.7552    1.0876   21.9201 N   0  0  0  0  0  0  0  0  0  0  0  0
    9.4845    0.6801   21.3584 H   0  0  0  0  0  0  0  0  0  0  0  0
    9.1993    2.0587   22.9162 C   0  0  0  0  0  0  0  0  0  0  0  0
   10.0133    2.6346   22.4656 H   0  0  0  0  0  0  0  0  0  0  0  0
    8.3881    2.7633   23.1362 H   0  0  0  0  0  0  0  0  0  0  0  0
    9.6456    1.3903   24.2046 C   0  0  0  0  0  0  0  0  0  0  0  0
    8.7451    1.3027   25.2797 C   0  0  0  0  0  0  0  0  0  0  0  0
    7.7632    1.7545   25.1856 H   0  0  0  0  0  0  0  0  0  0  0  0
    9.0641    0.5866   26.4320 C   0  0  0  0  0  0  0  0  0  0  0  0
    8.3451    0.4976   27.2390 H   0  0  0  0  0  0  0  0  0  0  0  0
   10.3075   -0.0350   26.5394 C   0  0  0  0  0  0  0  0  0  0  0  0
   10.5568   -0.5680   27.4462 H   0  0  0  0  0  0  0  0  0  0  0  0
   11.2225    0.0277   25.4879 C   0  0  0  0  0  0  0  0  0  0  0  0
   12.1887   -0.4580   25.5366 H   0  0  0  0  0  0  0  0  0  0  0  0
   10.8746    0.7257   24.3282 C   0  0  0  0  0  0  0  0  0  0  0  0
   12.0158    0.7191   23.0107 Cl  0  0  0  0  0  0  0  0  0  0  0  0
    6.7083   -1.9849   21.3899 C   0  0  0  0  0  0  0  0  0  0  0  0
    6.6021   -2.6817   20.5504 H   0  0  0  0  0  0  0  0  0  0  0  0
    7.2818   -2.4886   22.1775 H   0  0  0  0  0  0  0  0  0  0  0  0
    5.7090   -1.7574   21.7801 H   0  0  0  0  0  0  0  0  0  0  0  0
    5.5198    0.7062   20.0641 C   0  0  0  0  0  0  0  0  0  0  0  0
    5.1592    0.7492   21.0949 H   0  0  0  0  0  0  0  0  0  0  0  0
    4.8533    1.3402   19.0181 C   0  0  0  0  0  0  0  0  0  0  0  0
    3.9270    1.8745   19.1867 H   0  0  0  0  0  0  0  0  0  0  0  0
  1  2  1  0
  2  3  2  0
  3  4  1  0
  4  5  1  0
  4  6  2  0
  6  7  1  0
  7  8  1  6
  7  9  1  0
  9 10  2  0
  9 11  1  0
 11 12  1  0
 11 13  1  0
 13 14  1  0
 13 15  1  0
 13 16  1  0
 16 17  2  0
 17 18  1  0
 17 19  1  0
 19 20  1  0
 19 21  2  0
 21 22  1  0
 21 23  1  0
 23 24  1  0
 23 25  2  0
 25 26  1  0
  7 27  1  0
 27 28  1  0
 27 29  1  0
 27 30  1  0
  6 31  1  0
 31 32  1  0
 31 33  2  0
 33 34  1  0
 33  2  1  0
 25 16  1  0
M  END
>  <cnnaffinity>  (1) 
-4.87964

>  <filename>  (1) 
C[C@H](C(=O)NCc1ccccc1Cl)c1cccnc1

$$$$
