
     RDKit          3D

 31 32  0  0  0  0  0  0  0  0999 V2000
    4.9181    1.7888   16.9891 H   0  0  0  0  0  0  0  0  0  0  0  0
    5.3977    1.2972   17.8320 C   0  0  0  0  0  0  0  0  0  0  0  0
    6.5603    0.6807   17.5700 N   0  0  0  0  0  0  0  0  0  0  0  0
    7.1555    0.0510   18.5885 C   0  0  0  0  0  0  0  0  0  0  0  0
    8.1118   -0.4222   18.3683 H   0  0  0  0  0  0  0  0  0  0  0  0
    6.6337   -0.0217   19.8940 C   0  0  0  0  0  0  0  0  0  0  0  0
    7.5473   -0.8195   21.1989 S   0  0  0  0  0  0  0  0  0  0  0  0
    8.5858    0.6094   21.7175 C   0  0  2  0  0  0  0  0  0  0  0  0
    8.2765    1.4577   21.1014 H   0  0  0  0  0  0  0  0  0  0  0  0
   10.0447    0.2874   21.4393 C   0  0  0  0  0  0  0  0  0  0  0  0
   10.3636   -0.5858   22.0175 H   0  0  0  0  0  0  0  0  0  0  0  0
   10.6877    1.1441   21.6812 H   0  0  0  0  0  0  0  0  0  0  0  0
   10.1519    0.0279   20.3856 H   0  0  0  0  0  0  0  0  0  0  0  0
    8.3331    0.9608   23.1870 C   0  0  0  0  0  0  0  0  0  0  0  0
    8.5508    0.0657   23.7799 H   0  0  0  0  0  0  0  0  0  0  0  0
    9.0425    1.7431   23.4816 H   0  0  0  0  0  0  0  0  0  0  0  0
    6.9217    1.4270   23.4550 C   0  0  0  0  0  0  0  0  0  0  0  0
    5.9721    0.5378   23.9785 C   0  0  0  0  0  0  0  0  0  0  0  0
    6.2772   -0.4877   24.1759 H   0  0  0  0  0  0  0  0  0  0  0  0
    4.6571    0.9329   24.2141 C   0  0  0  0  0  0  0  0  0  0  0  0
    3.9477    0.2171   24.6240 H   0  0  0  0  0  0  0  0  0  0  0  0
    4.2421    2.2240   23.8838 C   0  0  0  0  0  0  0  0  0  0  0  0
    3.2129    2.5267   24.0437 H   0  0  0  0  0  0  0  0  0  0  0  0
    5.1559    3.1308   23.3458 C   0  0  0  0  0  0  0  0  0  0  0  0
    4.8663    4.1468   23.0909 H   0  0  0  0  0  0  0  0  0  0  0  0
    6.4774    2.7254   23.1433 C   0  0  0  0  0  0  0  0  0  0  0  0
    7.5829    3.8909   22.4725 Cl  0  0  0  0  0  0  0  0  0  0  0  0
    5.4274    0.6421   20.1599 C   0  0  0  0  0  0  0  0  0  0  0  0
    5.0240    0.6352   21.1774 H   0  0  0  0  0  0  0  0  0  0  0  0
    4.8025    1.3113   19.1003 C   0  0  0  0  0  0  0  0  0  0  0  0
    3.8718    1.8467   19.2518 H   0  0  0  0  0  0  0  0  0  0  0  0
  1  2  1  0
  2  3  2  0
  3  4  1  0
  4  5  1  0
  4  6  2  0
  6  7  1  0
  7  8  1  0
  8  9  1  6
  8 10  1  0
 10 11  1  0
 10 12  1  0
 10 13  1  0
  8 14  1  0
 14 15  1  0
 14 16  1  0
 14 17  1  0
 17 18  2  0
 18 19  1  0
 18 20  1  0
 20 21  1  0
 20 22  2  0
 22 23  1  0
 22 24  1  0
 24 25  1  0
 24 26  2  0
 26 27  1  0
  6 28  1  0
 28 29  1  0
 28 30  2  0
 30 31  1  0
 30  2  1  0
 26 17  1  0
M  END
>  <cnnaffinity>  (1) 
-5.25271

>  <filename>  (1) 
C[C@H](Cc1ccccc1Cl)Sc1cccnc1

$$$$
