
     RDKit          3D

 32 34  0  0  0  0  0  0  0  0999 V2000
   11.5209    4.0059   20.7657 H   0  0  0  0  0  0  0  0  0  0  0  0
   11.6260    3.0350   20.7702 O   0  0  0  0  0  0  0  0  0  0  0  0
   11.6970    2.8794   22.0986 C   0  0  0  0  0  0  0  0  0  0  0  0
   11.7336    3.8472   22.8124 O   0  0  0  0  0  0  0  0  0  0  0  0
   11.6552    1.4276   22.4981 C   0  0  2  0  0  0  0  0  0  0  0  0
   12.1417    0.8887   21.6825 H   0  0  0  0  0  0  0  0  0  0  0  0
   10.1894    1.1413   22.4698 C   0  0  0  0  0  0  0  0  0  0  0  0
    9.3008    1.5659   23.3001 N   0  0  0  0  0  0  0  0  0  0  0  0
    8.0965    1.0013   22.9098 N   0  0  0  0  0  0  0  0  0  0  0  0
    8.3435    0.2884   21.8587 C   0  0  0  0  0  0  0  0  0  0  0  0
    7.3513   -0.5492   21.1106 C   0  0  0  0  0  0  0  0  0  0  0  0
    6.6245    0.1172   19.9577 C   0  0  0  0  0  0  0  0  0  0  0  0
    7.1347    0.0610   18.6472 C   0  0  0  0  0  0  0  0  0  0  0  0
    8.0591   -0.4825   18.4473 H   0  0  0  0  0  0  0  0  0  0  0  0
    6.5636    0.6364   17.5797 N   0  0  0  0  0  0  0  0  0  0  0  0
    5.4264    1.3144   17.7835 C   0  0  0  0  0  0  0  0  0  0  0  0
    4.9819    1.7742   16.9011 H   0  0  0  0  0  0  0  0  0  0  0  0
    4.8180    1.4339   19.0374 C   0  0  0  0  0  0  0  0  0  0  0  0
    3.8936    1.9955   19.1230 H   0  0  0  0  0  0  0  0  0  0  0  0
    5.4285    0.8276   20.1413 C   0  0  0  0  0  0  0  0  0  0  0  0
    4.9700    0.8908   21.1310 H   0  0  0  0  0  0  0  0  0  0  0  0
    7.5517   -2.0537   21.0276 C   0  0  0  0  0  0  0  0  0  0  0  0
    7.1326   -2.5307   20.1517 H   0  0  0  0  0  0  0  0  0  0  0  0
    8.4768   -2.4959   21.3873 H   0  0  0  0  0  0  0  0  0  0  0  0
    6.5617   -1.4970   21.9906 C   0  0  0  0  0  0  0  0  0  0  0  0
    5.5086   -1.6130   21.7757 H   0  0  0  0  0  0  0  0  0  0  0  0
    6.8112   -1.4910   23.0481 H   0  0  0  0  0  0  0  0  0  0  0  0
    9.6611    0.3522   21.5050 O   0  0  0  0  0  0  0  0  0  0  0  0
   12.3131    1.1102   23.8569 C   0  0  0  0  0  0  0  0  0  0  0  0
   13.3808    1.3544   23.8403 H   0  0  0  0  0  0  0  0  0  0  0  0
   11.8291    1.6916   24.6533 H   0  0  0  0  0  0  0  0  0  0  0  0
   12.1989    0.0438   24.0926 H   0  0  0  0  0  0  0  0  0  0  0  0
  1  2  1  0
  2  3  1  0
  3  4  2  0
  3  5  1  0
  5  6  1  6
  5  7  1  0
  7  8  2  0
  8  9  1  0
  9 10  2  0
 10 11  1  0
 11 12  1  0
 12 13  2  0
 13 14  1  0
 13 15  1  0
 15 16  2  0
 16 17  1  0
 16 18  1  0
 18 19  1  0
 18 20  2  0
 20 21  1  0
 11 22  1  0
 22 23  1  0
 22 24  1  0
 22 25  1  0
 25 26  1  0
 25 27  1  0
 10 28  1  0
  5 29  1  0
 29 30  1  0
 29 31  1  0
 29 32  1  0
 28  7  1  0
 25 11  1  0
 20 12  1  0
M  END
>  <cnnaffinity>  (1) 
-4.75242

>  <filename>  (1) 
C[C@H](C(=O)O)c1nnc(C2(c3cccnc3)CC2)o1

$$$$
