
     RDKit          3D

 36 39  0  0  0  0  0  0  0  0999 V2000
    4.9474    1.7784   16.9634 H   0  0  0  0  0  0  0  0  0  0  0  0
    5.4067    1.2955   17.8219 C   0  0  0  0  0  0  0  0  0  0  0  0
    6.5718    0.6668   17.5929 N   0  0  0  0  0  0  0  0  0  0  0  0
    7.1551    0.0880   18.6438 C   0  0  0  0  0  0  0  0  0  0  0  0
    8.1011   -0.4069   18.4303 H   0  0  0  0  0  0  0  0  0  0  0  0
    6.6463    0.1012   19.9611 C   0  0  0  0  0  0  0  0  0  0  0  0
    7.4206   -0.5811   21.0197 C   0  0  0  0  0  0  0  0  0  0  0  0
    8.2640   -1.6171   20.8437 C   0  0  0  0  0  0  0  0  0  0  0  0
    8.6441   -1.9732   19.9098 H   0  0  0  0  0  0  0  0  0  0  0  0
    8.8629   -2.3123   22.3206 S   0  0  0  0  0  0  0  0  0  0  0  0
    8.0938   -1.0340   23.2038 C   0  0  0  0  0  0  0  0  0  0  0  0
    8.1320   -0.5348   24.4224 N   0  0  0  0  0  0  0  0  0  0  0  0
    7.3638    0.5857   24.2827 C   0  0  0  0  0  0  0  0  0  0  0  0
    7.0170    1.5099   25.4255 C   0  0  1  0  0  0  0  0  0  0  0  0
    6.8637    2.4957   24.9756 H   0  0  0  0  0  0  0  0  0  0  0  0
    5.6862    1.0608   26.0356 C   0  0  0  0  0  0  0  0  0  0  0  0
    5.5565   -0.2325   26.5675 C   0  0  0  0  0  0  0  0  0  0  0  0
    6.3937   -0.9266   26.4846 H   0  0  0  0  0  0  0  0  0  0  0  0
    4.3521   -0.6442   27.1401 C   0  0  0  0  0  0  0  0  0  0  0  0
    4.2702   -1.6454   27.5535 H   0  0  0  0  0  0  0  0  0  0  0  0
    3.2532    0.2233   27.1639 C   0  0  0  0  0  0  0  0  0  0  0  0
    2.3189   -0.0988   27.6161 H   0  0  0  0  0  0  0  0  0  0  0  0
    3.3622    1.5001   26.6030 C   0  0  0  0  0  0  0  0  0  0  0  0
    2.5061    2.1701   26.6025 H   0  0  0  0  0  0  0  0  0  0  0  0
    4.5738    1.9127   26.0351 C   0  0  0  0  0  0  0  0  0  0  0  0
    4.6527    2.8929   25.5653 H   0  0  0  0  0  0  0  0  0  0  0  0
    8.1669    1.6213   26.4485 C   0  0  0  0  0  0  0  0  0  0  0  0
    9.0802    1.9714   25.9568 H   0  0  0  0  0  0  0  0  0  0  0  0
    7.9440    2.3247   27.2570 H   0  0  0  0  0  0  0  0  0  0  0  0
    8.3791    0.6502   26.9064 H   0  0  0  0  0  0  0  0  0  0  0  0
    6.8726    0.8029   23.0768 N   0  0  0  0  0  0  0  0  0  0  0  0
    7.3432   -0.2702   22.3823 N   0  0  0  0  0  0  0  0  0  0  0  0
    5.4078    0.7367   20.1742 C   0  0  0  0  0  0  0  0  0  0  0  0
    4.9691    0.7626   21.1758 H   0  0  0  0  0  0  0  0  0  0  0  0
    4.7879    1.3351   19.0782 C   0  0  0  0  0  0  0  0  0  0  0  0
    3.8362    1.8443   19.1834 H   0  0  0  0  0  0  0  0  0  0  0  0
  1  2  1  0
  2  3  2  0
  3  4  1  0
  4  5  1  0
  4  6  2  0
  6  7  1  0
  7  8  2  0
  8  9  1  0
  8 10  1  0
 10 11  1  0
 11 12  2  0
 12 13  1  0
 13 14  1  0
 14 15  1  6
 14 16  1  0
 16 17  2  0
 17 18  1  0
 17 19  1  0
 19 20  1  0
 19 21  2  0
 21 22  1  0
 21 23  1  0
 23 24  1  0
 23 25  2  0
 25 26  1  0
 14 27  1  0
 27 28  1  0
 27 29  1  0
 27 30  1  0
 13 31  2  0
 31 32  1  0
  6 33  1  0
 33 34  1  0
 33 35  2  0
 35 36  1  0
 35  2  1  0
 32  7  1  0
 32 11  1  0
 25 16  1  0
M  END
>  <cnnaffinity>  (1) 
-5.54164

>  <filename>  (1) 
C[C@H](c1ccccc1)c1nc2scc(-c3cccnc3)n2n1

$$$$
