
     RDKit          3D

 32 33  0  0  0  0  0  0  0  0999 V2000
    4.9319    1.8521   16.9824 H   0  0  0  0  0  0  0  0  0  0  0  0
    5.4037    1.3050   17.7955 C   0  0  0  0  0  0  0  0  0  0  0  0
    6.5525    0.6731   17.5069 N   0  0  0  0  0  0  0  0  0  0  0  0
    7.1708    0.0150   18.5036 C   0  0  0  0  0  0  0  0  0  0  0  0
    8.1023   -0.4842   18.2407 H   0  0  0  0  0  0  0  0  0  0  0  0
    6.6876   -0.0487   19.8411 C   0  0  0  0  0  0  0  0  0  0  0  0
    7.2931   -0.7048   20.9157 N   0  0  0  0  0  0  0  0  0  0  0  0
    6.8207   -0.4844   21.7813 H   0  0  0  0  0  0  0  0  0  0  0  0
    8.7352   -0.8367   21.0976 C   0  0  2  0  0  0  0  0  0  0  0  0
    9.0970   -1.4821   20.2832 H   0  0  0  0  0  0  0  0  0  0  0  0
    8.9621   -1.6271   22.4000 C   0  0  0  0  0  0  0  0  0  0  0  0
    9.0258   -3.0275   22.2645 C   0  0  0  0  0  0  0  0  0  0  0  0
    8.8448   -3.4621   21.2833 H   0  0  0  0  0  0  0  0  0  0  0  0
    9.3180   -3.8678   23.3401 C   0  0  0  0  0  0  0  0  0  0  0  0
    9.3598   -4.9445   23.2002 H   0  0  0  0  0  0  0  0  0  0  0  0
    9.5649   -3.3135   24.5958 C   0  0  0  0  0  0  0  0  0  0  0  0
    9.8201   -3.9572   25.4369 H   0  0  0  0  0  0  0  0  0  0  0  0
    9.4361   -1.9365   24.7768 C   0  0  0  0  0  0  0  0  0  0  0  0
    9.6047   -1.5198   25.7670 H   0  0  0  0  0  0  0  0  0  0  0  0
    9.0506   -1.0925   23.7124 C   0  0  0  0  0  0  0  0  0  0  0  0
    8.7076    0.3528   24.0597 C   0  0  0  0  0  0  0  0  0  0  0  0
    7.6433    0.8108   23.3566 F   0  0  0  0  0  0  0  0  0  0  0  0
    8.3847    0.5323   25.3540 F   0  0  0  0  0  0  0  0  0  0  0  0
    9.7296    1.1957   23.8045 F   0  0  0  0  0  0  0  0  0  0  0  0
    9.5067    0.4841   20.9525 C   0  0  0  0  0  0  0  0  0  0  0  0
    9.0991    1.2838   21.5693 H   0  0  0  0  0  0  0  0  0  0  0  0
    9.4446    0.8077   19.9110 H   0  0  0  0  0  0  0  0  0  0  0  0
   10.5604    0.3375   21.2021 H   0  0  0  0  0  0  0  0  0  0  0  0
    5.4623    0.5886   20.0957 C   0  0  0  0  0  0  0  0  0  0  0  0
    5.0489    0.5422   21.1035 H   0  0  0  0  0  0  0  0  0  0  0  0
    4.8189    1.2772   19.0679 C   0  0  0  0  0  0  0  0  0  0  0  0
    3.8896    1.8063   19.2498 H   0  0  0  0  0  0  0  0  0  0  0  0
  1  2  1  0
  2  3  2  0
  3  4  1  0
  4  5  1  0
  4  6  2  0
  6  7  1  0
  7  8  1  0
  7  9  1  0
  9 10  1  6
  9 11  1  0
 11 12  2  0
 12 13  1  0
 12 14  1  0
 14 15  1  0
 14 16  2  0
 16 17  1  0
 16 18  1  0
 18 19  1  0
 18 20  2  0
 20 21  1  0
 21 22  1  0
 21 23  1  0
 21 24  1  0
  9 25  1  0
 25 26  1  0
 25 27  1  0
 25 28  1  0
  6 29  1  0
 29 30  1  0
 29 31  2  0
 31 32  1  0
 31  2  1  0
 20 11  1  0
M  END
>  <cnnaffinity>  (1) 
-4.92498

>  <filename>  (1) 
C[C@H](Nc1cccnc1)c1ccccc1C(F)(F)F

$$$$
