
     RDKit          3D

 39 40  0  0  0  0  0  0  0  0999 V2000
    5.0061    1.7283   16.9187 H   0  0  0  0  0  0  0  0  0  0  0  0
    5.4320    1.2861   17.8188 C   0  0  0  0  0  0  0  0  0  0  0  0
    6.6086    0.6612   17.6712 N   0  0  0  0  0  0  0  0  0  0  0  0
    7.1492    0.1008   18.7619 C   0  0  0  0  0  0  0  0  0  0  0  0
    8.1151   -0.3802   18.6149 H   0  0  0  0  0  0  0  0  0  0  0  0
    6.5683    0.1225   20.0358 C   0  0  0  0  0  0  0  0  0  0  0  0
    7.2884   -0.5915   21.1678 C   0  0  2  0  0  0  0  0  0  0  0  0
    6.7511   -0.3606   22.1092 H   0  0  0  0  0  0  0  0  0  0  0  0
    8.7059   -0.1686   21.2287 N   0  0  0  0  0  0  0  0  0  0  0  0
    9.5321   -0.9495   22.1545 C   0  0  0  0  0  0  0  0  0  0  0  0
   10.5184   -0.4861   22.2510 H   0  0  0  0  0  0  0  0  0  0  0  0
    9.7087   -1.9563   21.7587 H   0  0  0  0  0  0  0  0  0  0  0  0
    9.1023   -1.0552   23.1687 H   0  0  0  0  0  0  0  0  0  0  0  0
    8.8832    1.2748   21.3698 C   0  0  0  0  0  0  0  0  0  0  0  0
    8.5021    1.7786   20.4762 H   0  0  0  0  0  0  0  0  0  0  0  0
    9.9549    1.4996   21.3783 H   0  0  0  0  0  0  0  0  0  0  0  0
    8.1994    1.8923   22.5974 C   0  0  0  0  0  0  0  0  0  0  0  0
    7.1128    1.8206   22.4883 H   0  0  0  0  0  0  0  0  0  0  0  0
    8.4865    1.3487   23.5101 H   0  0  0  0  0  0  0  0  0  0  0  0
    8.4927    3.2743   22.7210 O   0  0  0  0  0  0  0  0  0  0  0  0
    9.7240    3.6531   23.1722 C   0  0  0  0  0  0  0  0  0  0  0  0
    9.9265    5.0386   23.2600 C   0  0  0  0  0  0  0  0  0  0  0  0
    9.1111    5.6869   22.9532 H   0  0  0  0  0  0  0  0  0  0  0  0
   11.1455    5.5351   23.7179 C   0  0  0  0  0  0  0  0  0  0  0  0
   11.2886    6.6110   23.8021 H   0  0  0  0  0  0  0  0  0  0  0  0
   12.1857    4.6618   24.0638 C   0  0  0  0  0  0  0  0  0  0  0  0
   13.1427    5.0474   24.4028 H   0  0  0  0  0  0  0  0  0  0  0  0
   11.9845    3.2829   23.9649 C   0  0  0  0  0  0  0  0  0  0  0  0
   12.7710    2.5623   24.1829 H   0  0  0  0  0  0  0  0  0  0  0  0
   10.7513    2.7797   23.5504 C   0  0  0  0  0  0  0  0  0  0  0  0
   10.6011    1.7049   23.5324 H   0  0  0  0  0  0  0  0  0  0  0  0
    7.2231   -2.1107   20.9938 C   0  0  0  0  0  0  0  0  0  0  0  0
    8.0626   -2.4158   20.3770 H   0  0  0  0  0  0  0  0  0  0  0  0
    7.3314   -2.6156   21.9574 H   0  0  0  0  0  0  0  0  0  0  0  0
    6.2959   -2.4563   20.5358 H   0  0  0  0  0  0  0  0  0  0  0  0
    5.3344    0.7786   20.1689 C   0  0  0  0  0  0  0  0  0  0  0  0
    4.8307    0.8359   21.1364 H   0  0  0  0  0  0  0  0  0  0  0  0
    4.7545    1.3679   19.0394 C   0  0  0  0  0  0  0  0  0  0  0  0
    3.8025    1.8903   19.0868 H   0  0  0  0  0  0  0  0  0  0  0  0
  1  2  1  0
  2  3  2  0
  3  4  1  0
  4  5  1  0
  4  6  2  0
  6  7  1  0
  7  8  1  1
  7  9  1  0
  9 10  1  0
 10 11  1  0
 10 12  1  0
 10 13  1  0
  9 14  1  0
 14 15  1  0
 14 16  1  0
 14 17  1  0
 17 18  1  0
 17 19  1  0
 17 20  1  0
 20 21  1  0
 21 22  2  0
 22 23  1  0
 22 24  1  0
 24 25  1  0
 24 26  2  0
 26 27  1  0
 26 28  1  0
 28 29  1  0
 28 30  2  0
 30 31  1  0
  7 32  1  0
 32 33  1  0
 32 34  1  0
 32 35  1  0
  6 36  1  0
 36 37  1  0
 36 38  2  0
 38 39  1  0
 38  2  1  0
 30 21  1  0
M  END
>  <cnnaffinity>  (1) 
-4.65929

>  <filename>  (1) 
C[C@H](c1cccnc1)N(C)CCOc1ccccc1

$$$$
