
     RDKit          3D

 33 34  0  0  0  0  0  0  0  0999 V2000
    5.4054    1.8393   17.4579 H   0  0  0  0  0  0  0  0  0  0  0  0
    5.7927    1.1785   18.2302 C   0  0  0  0  0  0  0  0  0  0  0  0
    6.9163    0.5126   17.9253 N   0  0  0  0  0  0  0  0  0  0  0  0
    7.3993   -0.3139   18.8665 C   0  0  0  0  0  0  0  0  0  0  0  0
    8.3287   -0.8320   18.6217 H   0  0  0  0  0  0  0  0  0  0  0  0
    6.7964   -0.5500   20.1126 C   0  0  0  0  0  0  0  0  0  0  0  0
    7.3476   -1.5736   21.0901 C   0  0  2  0  0  0  0  0  0  0  0  0
    8.2667   -1.9939   20.6598 H   0  0  0  0  0  0  0  0  0  0  0  0
    6.3150   -2.7031   21.2266 C   0  0  0  0  0  0  0  0  0  0  0  0
    6.6855   -3.5241   21.8504 H   0  0  0  0  0  0  0  0  0  0  0  0
    6.0738   -3.0971   20.2315 H   0  0  0  0  0  0  0  0  0  0  0  0
    5.3760   -2.3304   21.6545 H   0  0  0  0  0  0  0  0  0  0  0  0
    7.7619   -0.9272   22.4449 C   0  0  0  0  0  0  0  0  0  0  0  0
    8.1154   -1.6941   23.1389 H   0  0  0  0  0  0  0  0  0  0  0  0
    6.8937   -0.4463   22.9170 H   0  0  0  0  0  0  0  0  0  0  0  0
    8.8100    0.1545   22.2446 C   0  0  0  0  0  0  0  0  0  0  0  0
    8.3606    1.4452   21.9216 C   0  0  0  0  0  0  0  0  0  0  0  0
    7.2891    1.6294   21.9463 H   0  0  0  0  0  0  0  0  0  0  0  0
    9.2329    2.4400   21.4843 C   0  0  0  0  0  0  0  0  0  0  0  0
    8.8290    3.4174   21.2350 H   0  0  0  0  0  0  0  0  0  0  0  0
   10.6007    2.1625   21.3684 C   0  0  0  0  0  0  0  0  0  0  0  0
   11.2928    2.9143   20.9947 H   0  0  0  0  0  0  0  0  0  0  0  0
   11.0772    0.9028   21.7382 C   0  0  0  0  0  0  0  0  0  0  0  0
   12.1398    0.6879   21.6701 H   0  0  0  0  0  0  0  0  0  0  0  0
   10.1985   -0.0890   22.2207 C   0  0  0  0  0  0  0  0  0  0  0  0
   10.7650   -1.4023   22.7281 C   0  0  0  0  0  0  0  0  0  0  0  0
   10.5943   -1.5427   24.0620 F   0  0  0  0  0  0  0  0  0  0  0  0
   10.1757   -2.4733   22.1506 F   0  0  0  0  0  0  0  0  0  0  0  0
   12.0791   -1.5385   22.4748 F   0  0  0  0  0  0  0  0  0  0  0  0
    5.6399    0.1836   20.4132 C   0  0  0  0  0  0  0  0  0  0  0  0
    5.1670    0.0927   21.3977 H   0  0  0  0  0  0  0  0  0  0  0  0
    5.1268    1.0595   19.4552 C   0  0  0  0  0  0  0  0  0  0  0  0
    4.2412    1.6532   19.6572 H   0  0  0  0  0  0  0  0  0  0  0  0
  1  2  1  0
  2  3  2  0
  3  4  1  0
  4  5  1  0
  4  6  2  0
  6  7  1  0
  7  8  1  6
  7  9  1  0
  9 10  1  0
  9 11  1  0
  9 12  1  0
  7 13  1  0
 13 14  1  0
 13 15  1  0
 13 16  1  0
 16 17  2  0
 17 18  1  0
 17 19  1  0
 19 20  1  0
 19 21  2  0
 21 22  1  0
 21 23  1  0
 23 24  1  0
 23 25  2  0
 25 26  1  0
 26 27  1  0
 26 28  1  0
 26 29  1  0
  6 30  1  0
 30 31  1  0
 30 32  2  0
 32 33  1  0
 32  2  1  0
 25 16  1  0
M  END
>  <cnnaffinity>  (1) 
-4.78944

>  <filename>  (1) 
C[C@H](Cc1ccccc1C(F)(F)F)c1cccnc1

$$$$
