
     RDKit          3D

 41 43  0  0  0  0  0  0  0  0999 V2000
   12.8673    5.0065   24.4417 H   0  0  0  0  0  0  0  0  0  0  0  0
   11.8840    5.1554   23.9970 C   0  0  0  0  0  0  0  0  0  0  0  0
   11.1853    4.0448   23.7667 N   0  0  0  0  0  0  0  0  0  0  0  0
    9.9590    4.1937   23.2488 C   0  0  0  0  0  0  0  0  0  0  0  0
    9.2528    3.0267   22.9995 N   0  0  0  0  0  0  0  0  0  0  0  0
    7.9042    2.8270   23.5596 C   0  0  0  0  0  0  0  0  0  0  0  0
    7.9771    2.4527   24.5953 H   0  0  0  0  0  0  0  0  0  0  0  0
    7.3441    3.7687   23.5931 H   0  0  0  0  0  0  0  0  0  0  0  0
    7.1160    1.7882   22.7353 C   0  0  0  0  0  0  0  0  0  0  0  0
    6.9060    2.2228   21.7422 H   0  0  0  0  0  0  0  0  0  0  0  0
    6.1543    1.6067   23.2389 H   0  0  0  0  0  0  0  0  0  0  0  0
    7.8678    0.5308   22.6621 N   0  0  0  0  0  0  0  0  0  0  0  0
    7.1666   -0.6467   22.2274 C   0  0  1  0  0  0  0  0  0  0  0  0
    6.1124   -0.5514   22.5075 H   0  0  0  0  0  0  0  0  0  0  0  0
    7.2536   -0.8911   20.8230 O   0  0  0  0  0  0  0  0  0  0  0  0
    6.6286   -0.0753   19.9273 C   0  0  0  0  0  0  0  0  0  0  0  0
    7.1833   -0.0008   18.6283 C   0  0  0  0  0  0  0  0  0  0  0  0
    8.1113   -0.5331   18.4294 H   0  0  0  0  0  0  0  0  0  0  0  0
    6.6295    0.6667   17.6108 N   0  0  0  0  0  0  0  0  0  0  0  0
    5.4708    1.3075   17.8489 C   0  0  0  0  0  0  0  0  0  0  0  0
    5.0400    1.8516   17.0116 H   0  0  0  0  0  0  0  0  0  0  0  0
    4.8451    1.3009   19.0982 C   0  0  0  0  0  0  0  0  0  0  0  0
    3.9120    1.8387   19.2277 H   0  0  0  0  0  0  0  0  0  0  0  0
    5.4346    0.6147   20.1699 C   0  0  0  0  0  0  0  0  0  0  0  0
    4.9950    0.6204   21.1672 H   0  0  0  0  0  0  0  0  0  0  0  0
    7.7485   -1.8808   22.8777 C   0  0  0  0  0  0  0  0  0  0  0  0
    7.1883   -2.7541   22.5404 H   0  0  0  0  0  0  0  0  0  0  0  0
    8.7957   -2.0020   22.5863 H   0  0  0  0  0  0  0  0  0  0  0  0
    7.6908   -1.8028   23.9652 H   0  0  0  0  0  0  0  0  0  0  0  0
    9.2154    0.7189   22.1149 C   0  0  0  0  0  0  0  0  0  0  0  0
    9.1976    1.0377   21.0565 H   0  0  0  0  0  0  0  0  0  0  0  0
    9.7673   -0.2274   22.1551 H   0  0  0  0  0  0  0  0  0  0  0  0
    9.9851    1.7492   22.9446 C   0  0  0  0  0  0  0  0  0  0  0  0
   10.9757    1.9077   22.5060 H   0  0  0  0  0  0  0  0  0  0  0  0
   10.1390    1.3535   23.9634 H   0  0  0  0  0  0  0  0  0  0  0  0
    9.3962    5.4512   22.9327 C   0  0  0  0  0  0  0  0  0  0  0  0
    8.4178    5.4667   22.4634 H   0  0  0  0  0  0  0  0  0  0  0  0
   10.1616    6.5946   23.1442 C   0  0  0  0  0  0  0  0  0  0  0  0
    9.7621    7.5790   22.8864 H   0  0  0  0  0  0  0  0  0  0  0  0
   11.4419    6.4404   23.6932 C   0  0  0  0  0  0  0  0  0  0  0  0
   12.0843    7.2912   23.8914 H   0  0  0  0  0  0  0  0  0  0  0  0
  1  2  1  0
  2  3  2  0
  3  4  1  0
  4  5  1  0
  5  6  1  0
  6  7  1  0
  6  8  1  0
  6  9  1  0
  9 10  1  0
  9 11  1  0
  9 12  1  0
 12 13  1  0
 13 14  1  1
 13 15  1  0
 15 16  1  0
 16 17  2  0
 17 18  1  0
 17 19  1  0
 19 20  2  0
 20 21  1  0
 20 22  1  0
 22 23  1  0
 22 24  2  0
 24 25  1  0
 13 26  1  0
 26 27  1  0
 26 28  1  0
 26 29  1  0
 12 30  1  0
 30 31  1  0
 30 32  1  0
 30 33  1  0
 33 34  1  0
 33 35  1  0
  4 36  2  0
 36 37  1  0
 36 38  1  0
 38 39  1  0
 38 40  2  0
 40 41  1  0
 40  2  1  0
 33  5  1  0
 24 16  1  0
M  END
>  <cnnaffinity>  (1) 
-4.95904

>  <filename>  (1) 
C[C@H](Oc1cccnc1)N1CCN(c2ccccn2)CC1

$$$$
