
     RDKit          3D

 37 38  0  0  0  0  0  0  0  0999 V2000
    4.9196    1.7956   16.9138 H   0  0  0  0  0  0  0  0  0  0  0  0
    5.4097    1.2907   17.7428 C   0  0  0  0  0  0  0  0  0  0  0  0
    6.5479    0.6426   17.4496 N   0  0  0  0  0  0  0  0  0  0  0  0
    7.1749    0.0243   18.4603 C   0  0  0  0  0  0  0  0  0  0  0  0
    8.0985   -0.4956   18.2001 H   0  0  0  0  0  0  0  0  0  0  0  0
    6.7205    0.0223   19.7936 C   0  0  0  0  0  0  0  0  0  0  0  0
    7.4547   -0.7033   20.9259 C   0  0  1  0  0  0  0  0  0  0  0  0
    8.4494   -0.9917   20.5626 H   0  0  0  0  0  0  0  0  0  0  0  0
    7.6612    0.2610   22.1228 C   0  0  0  0  0  0  0  0  0  0  0  0
    6.8871    0.3493   23.0633 O   0  0  0  0  0  0  0  0  0  0  0  0
    8.7530    1.0649   22.0139 N   0  0  0  0  0  0  0  0  0  0  0  0
    9.3308    0.9788   21.1978 H   0  0  0  0  0  0  0  0  0  0  0  0
    9.1495    1.9960   23.0734 C   0  0  1  0  0  0  0  0  0  0  0  0
    8.2887    2.6329   23.3165 H   0  0  0  0  0  0  0  0  0  0  0  0
    9.5307    1.2852   24.3600 C   0  0  0  0  0  0  0  0  0  0  0  0
    8.7060    1.3911   25.4925 C   0  0  0  0  0  0  0  0  0  0  0  0
    7.7905    1.9819   25.4399 H   0  0  0  0  0  0  0  0  0  0  0  0
    9.0211    0.6923   26.6562 C   0  0  0  0  0  0  0  0  0  0  0  0
    8.4183    0.8084   27.5500 H   0  0  0  0  0  0  0  0  0  0  0  0
   10.1503   -0.1252   26.6964 C   0  0  0  0  0  0  0  0  0  0  0  0
   10.3834   -0.6718   27.6043 H   0  0  0  0  0  0  0  0  0  0  0  0
   10.9813   -0.2268   25.5807 C   0  0  0  0  0  0  0  0  0  0  0  0
   11.8675   -0.8511   25.6121 H   0  0  0  0  0  0  0  0  0  0  0  0
   10.6737    0.4730   24.4153 C   0  0  0  0  0  0  0  0  0  0  0  0
   11.3237    0.3775   23.5487 H   0  0  0  0  0  0  0  0  0  0  0  0
   10.2655    2.8746   22.5370 C   0  0  0  0  0  0  0  0  0  0  0  0
    9.8677    3.4025   21.6793 H   0  0  0  0  0  0  0  0  0  0  0  0
   10.6044    3.5980   23.2842 H   0  0  0  0  0  0  0  0  0  0  0  0
   11.1309    2.2880   22.2113 H   0  0  0  0  0  0  0  0  0  0  0  0
    6.7232   -1.9805   21.3772 C   0  0  0  0  0  0  0  0  0  0  0  0
    7.2845   -2.4849   22.1708 H   0  0  0  0  0  0  0  0  0  0  0  0
    6.6033   -2.6827   20.5470 H   0  0  0  0  0  0  0  0  0  0  0  0
    5.7316   -1.7312   21.7692 H   0  0  0  0  0  0  0  0  0  0  0  0
    5.5264    0.7016   20.0674 C   0  0  0  0  0  0  0  0  0  0  0  0
    5.1561    0.7298   21.0952 H   0  0  0  0  0  0  0  0  0  0  0  0
    4.8518    1.3378   19.0250 C   0  0  0  0  0  0  0  0  0  0  0  0
    3.9231    1.8708   19.1969 H   0  0  0  0  0  0  0  0  0  0  0  0
  1  2  1  0
  2  3  2  0
  3  4  1  0
  4  5  1  0
  4  6  2  0
  6  7  1  0
  7  8  1  6
  7  9  1  0
  9 10  2  0
  9 11  1  0
 11 12  1  0
 11 13  1  0
 13 14  1  1
 13 15  1  0
 15 16  2  0
 16 17  1  0
 16 18  1  0
 18 19  1  0
 18 20  2  0
 20 21  1  0
 20 22  1  0
 22 23  1  0
 22 24  2  0
 24 25  1  0
 13 26  1  0
 26 27  1  0
 26 28  1  0
 26 29  1  0
  7 30  1  0
 30 31  1  0
 30 32  1  0
 30 33  1  0
  6 34  1  0
 34 35  1  0
 34 36  2  0
 36 37  1  0
 36  2  1  0
 24 15  1  0
M  END
>  <cnnaffinity>  (1) 
-4.63779

>  <filename>  (1) 
C[C@H](C(=O)N[C@H](C)c1ccccc1)c1cccnc1

$$$$
