
     RDKit          3D

 46 49  0  0  0  0  0  0  0  0999 V2000
    4.9703    1.8457   16.9383 H   0  0  0  0  0  0  0  0  0  0  0  0
    5.3841    1.3088   17.7878 C   0  0  0  0  0  0  0  0  0  0  0  0
    6.5412    0.6614   17.5762 N   0  0  0  0  0  0  0  0  0  0  0  0
    7.0884    0.0329   18.6286 C   0  0  0  0  0  0  0  0  0  0  0  0
    8.0365   -0.4649   18.4200 H   0  0  0  0  0  0  0  0  0  0  0  0
    6.5120   -0.0242   19.9172 C   0  0  0  0  0  0  0  0  0  0  0  0
    7.2658   -0.6545   21.0305 C   0  0  0  0  0  0  0  0  0  0  0  0
    8.6060   -0.5324   21.2952 C   0  0  0  0  0  0  0  0  0  0  0  0
    8.7925   -0.9945   22.6012 C   0  0  0  0  0  0  0  0  0  0  0  0
    7.6974   -1.4996   23.1240 N   0  0  0  0  0  0  0  0  0  0  0  0
    6.7587   -1.2577   22.1586 N   0  0  0  0  0  0  0  0  0  0  0  0
    5.8034   -1.5106   22.3633 H   0  0  0  0  0  0  0  0  0  0  0  0
   10.1776   -0.6756   23.0962 C   0  0  0  0  0  0  0  0  0  0  0  0
   10.2304   -0.3574   24.1409 H   0  0  0  0  0  0  0  0  0  0  0  0
   10.8009   -1.5687   22.9994 H   0  0  0  0  0  0  0  0  0  0  0  0
   10.6204    0.4458   22.1013 C   0  0  2  0  0  0  0  0  0  0  0  0
   11.6977    0.3772   21.9270 H   0  0  0  0  0  0  0  0  0  0  0  0
   10.3300    1.8695   22.6311 C   0  0  0  0  0  0  0  0  0  0  0  0
   10.9580    2.0387   23.5171 H   0  0  0  0  0  0  0  0  0  0  0  0
   10.6438    2.6083   21.8826 H   0  0  0  0  0  0  0  0  0  0  0  0
    8.8696    2.1460   22.9939 C   0  0  0  0  0  0  0  0  0  0  0  0
    8.2311    1.9119   22.1327 H   0  0  0  0  0  0  0  0  0  0  0  0
    8.5512    1.4663   23.8069 H   0  0  0  0  0  0  0  0  0  0  0  0
    8.6385    3.5378   23.3691 N   0  0  0  0  0  0  0  0  0  0  0  0
    9.2832    3.9505   24.6089 C   0  0  0  0  0  0  0  0  0  0  0  0
   10.3456    4.1593   24.4331 H   0  0  0  0  0  0  0  0  0  0  0  0
    9.2228    3.1770   25.4004 H   0  0  0  0  0  0  0  0  0  0  0  0
    8.5292    5.2063   25.0305 C   0  0  0  0  0  0  0  0  0  0  0  0
    8.9722    6.0833   24.5500 H   0  0  0  0  0  0  0  0  0  0  0  0
    8.5636    5.3564   26.1130 H   0  0  0  0  0  0  0  0  0  0  0  0
    7.1035    4.9730   24.5215 C   0  0  0  0  0  0  0  0  0  0  0  0
    6.4582    4.5861   25.3158 H   0  0  0  0  0  0  0  0  0  0  0  0
    6.6485    5.9010   24.1611 H   0  0  0  0  0  0  0  0  0  0  0  0
    7.2260    3.9245   23.3954 C   0  0  1  0  0  0  0  0  0  0  0  0
    6.5865    3.0602   23.6561 H   0  0  0  0  0  0  0  0  0  0  0  0
    6.7594    4.4306   22.0325 C   0  0  0  0  0  0  0  0  0  0  0  0
    7.3721    5.2727   21.6935 H   0  0  0  0  0  0  0  0  0  0  0  0
    5.7159    4.7596   22.0832 H   0  0  0  0  0  0  0  0  0  0  0  0
    6.8182    3.6380   21.2818 H   0  0  0  0  0  0  0  0  0  0  0  0
    9.8502    0.1162   20.7901 C   0  0  0  0  0  0  0  0  0  0  0  0
    9.6786    0.9963   20.1639 H   0  0  0  0  0  0  0  0  0  0  0  0
   10.4337   -0.6069   20.2106 H   0  0  0  0  0  0  0  0  0  0  0  0
    5.2901    0.6538   20.1018 C   0  0  0  0  0  0  0  0  0  0  0  0
    4.8284    0.6947   21.0902 H   0  0  0  0  0  0  0  0  0  0  0  0
    4.7233    1.3307   19.0216 C   0  0  0  0  0  0  0  0  0  0  0  0
    3.8067    1.9034   19.1324 H   0  0  0  0  0  0  0  0  0  0  0  0
  1  2  1  0
  2  3  2  0
  3  4  1  0
  4  5  1  0
  4  6  2  0
  6  7  1  0
  7  8  2  0
  8  9  1  0
  9 10  2  0
 10 11  1  0
 11 12  1  0
  9 13  1  0
 13 14  1  0
 13 15  1  0
 13 16  1  0
 16 17  1  6
 16 18  1  0
 18 19  1  0
 18 20  1  0
 18 21  1  0
 21 22  1  0
 21 23  1  0
 21 24  1  0
 24 25  1  0
 25 26  1  0
 25 27  1  0
 25 28  1  0
 28 29  1  0
 28 30  1  0
 28 31  1  0
 31 32  1  0
 31 33  1  0
 31 34  1  0
 34 35  1  1
 34 36  1  0
 36 37  1  0
 36 38  1  0
 36 39  1  0
 16 40  1  0
 40 41  1  0
 40 42  1  0
  6 43  1  0
 43 44  1  0
 43 45  2  0
 45 46  1  0
 45  2  1  0
 11  7  1  0
 34 24  1  0
 40  8  1  0
M  END
>  <cnnaffinity>  (1) 
-5.6509

>  <filename>  (1) 
C[C@@H]1CCCN1CC[C@H]1Cc2n[nH]c(-c3cccnc3)c2C1

$$$$
