
     RDKit          3D

 39 42  0  0  0  0  0  0  0  0999 V2000
    4.9697    1.7915   16.9660 H   0  0  0  0  0  0  0  0  0  0  0  0
    5.4177    1.2983   17.8255 C   0  0  0  0  0  0  0  0  0  0  0  0
    6.5823    0.6717   17.6026 N   0  0  0  0  0  0  0  0  0  0  0  0
    7.1602    0.0707   18.6534 C   0  0  0  0  0  0  0  0  0  0  0  0
    8.1070   -0.4302   18.4512 H   0  0  0  0  0  0  0  0  0  0  0  0
    6.6212    0.0541   19.9541 C   0  0  0  0  0  0  0  0  0  0  0  0
    7.3499   -0.6377   21.0816 C   0  0  0  0  0  0  0  0  0  0  0  0
    8.3930    0.1727   21.7960 C   0  0  0  0  0  0  0  0  0  0  0  0
    9.6523    0.3160   21.5463 N   0  0  0  0  0  0  0  0  0  0  0  0
   10.1584    1.1868   22.5109 N   0  0  0  0  0  0  0  0  0  0  0  0
    9.1644    1.5009   23.2763 C   0  0  0  0  0  0  0  0  0  0  0  0
    9.1552    2.4128   24.4732 C   0  0  1  0  0  0  0  0  0  0  0  0
   10.2009    2.4721   24.7895 H   0  0  0  0  0  0  0  0  0  0  0  0
    8.7078    3.8138   24.0576 C   0  0  0  0  0  0  0  0  0  0  0  0
    9.5909    4.8944   24.1896 C   0  0  0  0  0  0  0  0  0  0  0  0
   10.5946    4.7220   24.5769 H   0  0  0  0  0  0  0  0  0  0  0  0
    9.2003    6.1851   23.8167 C   0  0  0  0  0  0  0  0  0  0  0  0
    9.8957    7.0133   23.9217 H   0  0  0  0  0  0  0  0  0  0  0  0
    7.9189    6.4032   23.3024 C   0  0  0  0  0  0  0  0  0  0  0  0
    7.6101    7.4029   23.0070 H   0  0  0  0  0  0  0  0  0  0  0  0
    7.0346    5.3264   23.1555 C   0  0  0  0  0  0  0  0  0  0  0  0
    6.0436    5.4915   22.7412 H   0  0  0  0  0  0  0  0  0  0  0  0
    7.4285    4.0393   23.5271 C   0  0  0  0  0  0  0  0  0  0  0  0
    6.7425    3.2042   23.3841 H   0  0  0  0  0  0  0  0  0  0  0  0
    8.3413    1.8559   25.6613 C   0  0  0  0  0  0  0  0  0  0  0  0
    8.4404    2.5122   26.5323 H   0  0  0  0  0  0  0  0  0  0  0  0
    8.6951    0.8592   25.9448 H   0  0  0  0  0  0  0  0  0  0  0  0
    7.2757    1.7855   25.4150 H   0  0  0  0  0  0  0  0  0  0  0  0
    8.0105    0.9101   22.8776 O   0  0  0  0  0  0  0  0  0  0  0  0
    6.6013   -1.6608   21.9189 C   0  0  0  0  0  0  0  0  0  0  0  0
    6.8506   -1.7216   22.9750 H   0  0  0  0  0  0  0  0  0  0  0  0
    5.5457   -1.8234   21.6940 H   0  0  0  0  0  0  0  0  0  0  0  0
    7.5936   -2.1191   20.8903 C   0  0  0  0  0  0  0  0  0  0  0  0
    7.0987   -2.5438   20.0254 H   0  0  0  0  0  0  0  0  0  0  0  0
    8.5830   -2.5154   21.1342 H   0  0  0  0  0  0  0  0  0  0  0  0
    5.4016    0.7089   20.1588 C   0  0  0  0  0  0  0  0  0  0  0  0
    4.9535    0.7235   21.1555 H   0  0  0  0  0  0  0  0  0  0  0  0
    4.7900    1.3401   19.0744 C   0  0  0  0  0  0  0  0  0  0  0  0
    3.8517    1.8685   19.1854 H   0  0  0  0  0  0  0  0  0  0  0  0
  1  2  1  0
  2  3  2  0
  3  4  1  0
  4  5  1  0
  4  6  2  0
  6  7  1  0
  7  8  1  0
  8  9  2  0
  9 10  1  0
 10 11  2  0
 11 12  1  0
 12 13  1  1
 12 14  1  0
 14 15  2  0
 15 16  1  0
 15 17  1  0
 17 18  1  0
 17 19  2  0
 19 20  1  0
 19 21  1  0
 21 22  1  0
 21 23  2  0
 23 24  1  0
 12 25  1  0
 25 26  1  0
 25 27  1  0
 25 28  1  0
 11 29  1  0
  7 30  1  0
 30 31  1  0
 30 32  1  0
 30 33  1  0
 33 34  1  0
 33 35  1  0
  6 36  1  0
 36 37  1  0
 36 38  2  0
 38 39  1  0
 38  2  1  0
 33  7  1  0
 29  8  1  0
 23 14  1  0
M  END
>  <cnnaffinity>  (1) 
-5.36926

>  <filename>  (1) 
C[C@H](c1ccccc1)c1nnc(C2(c3cccnc3)CC2)o1

$$$$
