
     RDKit          3D

 45 46  0  0  0  0  0  0  0  0999 V2000
    4.9376    1.8041   16.9794 H   0  0  0  0  0  0  0  0  0  0  0  0
    5.4003    1.2890   17.8171 C   0  0  0  0  0  0  0  0  0  0  0  0
    6.5621    0.6666   17.5601 N   0  0  0  0  0  0  0  0  0  0  0  0
    7.1784    0.0435   18.5761 C   0  0  0  0  0  0  0  0  0  0  0  0
    8.1295   -0.4281   18.3326 H   0  0  0  0  0  0  0  0  0  0  0  0
    6.6708    0.0035   19.8986 C   0  0  0  0  0  0  0  0  0  0  0  0
    7.3291   -0.6550   20.9726 N   0  0  0  0  0  0  0  0  0  0  0  0
    7.8724   -1.4768   20.7729 H   0  0  0  0  0  0  0  0  0  0  0  0
    7.3681   -0.2172   22.2878 C   0  0  0  0  0  0  0  0  0  0  0  0
    7.1314    0.9379   22.5915 O   0  0  0  0  0  0  0  0  0  0  0  0
    7.7859   -1.2606   23.3844 C   0  0  0  0  0  0  0  0  0  0  0  0
    6.9338   -0.9586   24.6447 C   0  0  0  0  0  0  0  0  0  0  0  0
    7.1884   -1.6473   25.4586 H   0  0  0  0  0  0  0  0  0  0  0  0
    5.8651   -1.0668   24.4319 H   0  0  0  0  0  0  0  0  0  0  0  0
    7.0996    0.0674   24.9879 H   0  0  0  0  0  0  0  0  0  0  0  0
    7.5242   -2.7363   22.9888 C   0  0  0  0  0  0  0  0  0  0  0  0
    6.4671   -2.8890   22.7416 H   0  0  0  0  0  0  0  0  0  0  0  0
    8.1248   -3.0929   22.1424 H   0  0  0  0  0  0  0  0  0  0  0  0
    7.7536   -3.3913   23.8389 H   0  0  0  0  0  0  0  0  0  0  0  0
    9.2869   -1.0308   23.7647 C   0  0  0  0  0  0  0  0  0  0  0  0
    9.3853   -0.0096   24.1661 H   0  0  0  0  0  0  0  0  0  0  0  0
    9.5512   -1.7112   24.5909 H   0  0  0  0  0  0  0  0  0  0  0  0
   10.2925   -1.2310   22.6255 C   0  0  0  0  0  0  0  0  0  0  0  0
    9.9685   -0.6614   21.7306 H   0  0  0  0  0  0  0  0  0  0  0  0
   10.2960   -2.2911   22.3334 H   0  0  0  0  0  0  0  0  0  0  0  0
   11.6589   -0.8967   22.9908 N   0  0  0  0  0  0  0  0  0  0  0  0
   12.6592   -1.4018   22.0545 C   0  0  0  0  0  0  0  0  0  0  0  0
   12.7942   -2.4798   22.2253 H   0  0  0  0  0  0  0  0  0  0  0  0
   12.3400   -1.3083   20.9959 H   0  0  0  0  0  0  0  0  0  0  0  0
   13.9405   -0.5798   22.3258 C   0  0  0  0  0  0  0  0  0  0  0  0
   14.3176   -0.1383   21.3976 H   0  0  0  0  0  0  0  0  0  0  0  0
   14.7514   -1.2094   22.7078 H   0  0  0  0  0  0  0  0  0  0  0  0
   13.5167    0.5011   23.3492 C   0  0  0  0  0  0  0  0  0  0  0  0
   13.8834    0.2660   24.3547 H   0  0  0  0  0  0  0  0  0  0  0  0
   13.9007    1.4999   23.1041 H   0  0  0  0  0  0  0  0  0  0  0  0
   11.9721    0.4902   23.3471 C   0  0  1  0  0  0  0  0  0  0  0  0
   11.5980    0.7120   24.3623 H   0  0  0  0  0  0  0  0  0  0  0  0
   11.3616    1.5175   22.3846 C   0  0  0  0  0  0  0  0  0  0  0  0
   11.6104    1.2527   21.3490 H   0  0  0  0  0  0  0  0  0  0  0  0
   11.7458    2.5216   22.5956 H   0  0  0  0  0  0  0  0  0  0  0  0
   10.2684    1.5398   22.4746 H   0  0  0  0  0  0  0  0  0  0  0  0
    5.4528    0.6540   20.1429 C   0  0  0  0  0  0  0  0  0  0  0  0
    5.0543    0.6487   21.1539 H   0  0  0  0  0  0  0  0  0  0  0  0
    4.8070    1.3014   19.0848 C   0  0  0  0  0  0  0  0  0  0  0  0
    3.8742    1.8347   19.2392 H   0  0  0  0  0  0  0  0  0  0  0  0
  1  2  1  0
  2  3  2  0
  3  4  1  0
  4  5  1  0
  4  6  2  0
  6  7  1  0
  7  8  1  0
  7  9  1  0
  9 10  2  0
  9 11  1  0
 11 12  1  0
 12 13  1  0
 12 14  1  0
 12 15  1  0
 11 16  1  0
 16 17  1  0
 16 18  1  0
 16 19  1  0
 11 20  1  0
 20 21  1  0
 20 22  1  0
 20 23  1  0
 23 24  1  0
 23 25  1  0
 23 26  1  0
 26 27  1  0
 27 28  1  0
 27 29  1  0
 27 30  1  0
 30 31  1  0
 30 32  1  0
 30 33  1  0
 33 34  1  0
 33 35  1  0
 33 36  1  0
 36 37  1  1
 36 38  1  0
 38 39  1  0
 38 40  1  0
 38 41  1  0
  6 42  1  0
 42 43  1  0
 42 44  2  0
 44 45  1  0
 44  2  1  0
 36 26  1  0
M  END
>  <cnnaffinity>  (1) 
-5.35898

>  <filename>  (1) 
C[C@@H]1CCCN1CCC(C)(C)C(=O)Nc1cccnc1

$$$$
