
     RDKit          3D

 36 38  0  0  0  0  0  0  0  0999 V2000
    4.9178    1.7746   17.0039 H   0  0  0  0  0  0  0  0  0  0  0  0
    5.4071    1.2877   17.8476 C   0  0  0  0  0  0  0  0  0  0  0  0
    6.5737    0.6767   17.5903 N   0  0  0  0  0  0  0  0  0  0  0  0
    7.1767    0.0467   18.6022 C   0  0  0  0  0  0  0  0  0  0  0  0
    8.1223   -0.4334   18.3725 H   0  0  0  0  0  0  0  0  0  0  0  0
    6.6629   -0.0099   19.9057 C   0  0  0  0  0  0  0  0  0  0  0  0
    7.4062   -0.7334   20.9612 C   0  0  0  0  0  0  0  0  0  0  0  0
    8.0946   -1.8219   20.5912 N   0  0  0  0  0  0  0  0  0  0  0  0
    8.7302   -2.4993   21.5529 C   0  0  0  0  0  0  0  0  0  0  0  0
    9.2619   -3.3861   21.2380 H   0  0  0  0  0  0  0  0  0  0  0  0
    8.7622   -2.1163   22.8911 C   0  0  0  0  0  0  0  0  0  0  0  0
    9.3110   -2.7145   23.6053 H   0  0  0  0  0  0  0  0  0  0  0  0
    8.0798   -0.9604   23.2780 C   0  0  0  0  0  0  0  0  0  0  0  0
    8.0667   -0.4853   24.7216 C   0  0  1  0  0  0  0  0  0  0  0  0
    7.4956    0.4516   24.7437 H   0  0  0  0  0  0  0  0  0  0  0  0
    7.3212   -1.4858   25.6000 C   0  0  0  0  0  0  0  0  0  0  0  0
    7.9606   -2.5884   26.1895 C   0  0  0  0  0  0  0  0  0  0  0  0
    9.0304   -2.7409   26.0599 H   0  0  0  0  0  0  0  0  0  0  0  0
    7.2374   -3.5061   26.9572 C   0  0  0  0  0  0  0  0  0  0  0  0
    7.7522   -4.3461   27.4161 H   0  0  0  0  0  0  0  0  0  0  0  0
    5.8599   -3.3436   27.1334 C   0  0  0  0  0  0  0  0  0  0  0  0
    5.2999   -4.0557   27.7333 H   0  0  0  0  0  0  0  0  0  0  0  0
    5.2052   -2.2649   26.5291 C   0  0  0  0  0  0  0  0  0  0  0  0
    4.1326   -2.1356   26.6564 H   0  0  0  0  0  0  0  0  0  0  0  0
    5.9327   -1.3509   25.7611 C   0  0  0  0  0  0  0  0  0  0  0  0
    5.4121   -0.5214   25.2849 H   0  0  0  0  0  0  0  0  0  0  0  0
    9.4777   -0.1464   25.2136 C   0  0  0  0  0  0  0  0  0  0  0  0
    9.8928    0.6799   24.6277 H   0  0  0  0  0  0  0  0  0  0  0  0
   10.1623   -0.9942   25.1082 H   0  0  0  0  0  0  0  0  0  0  0  0
    9.4509    0.1467   26.2660 H   0  0  0  0  0  0  0  0  0  0  0  0
    7.3898   -0.2720   22.2854 C   0  0  0  0  0  0  0  0  0  0  0  0
    6.8573    0.6428   22.5201 H   0  0  0  0  0  0  0  0  0  0  0  0
    5.4490    0.6494   20.1628 C   0  0  0  0  0  0  0  0  0  0  0  0
    5.0004    0.6325   21.1603 H   0  0  0  0  0  0  0  0  0  0  0  0
    4.8081    1.3048   19.1125 C   0  0  0  0  0  0  0  0  0  0  0  0
    3.8758    1.8421   19.2637 H   0  0  0  0  0  0  0  0  0  0  0  0
  1  2  1  0
  2  3  2  0
  3  4  1  0
  4  5  1  0
  4  6  2  0
  6  7  1  0
  7  8  2  0
  8  9  1  0
  9 10  1  0
  9 11  2  0
 11 12  1  0
 11 13  1  0
 13 14  1  0
 14 15  1  6
 14 16  1  0
 16 17  2  0
 17 18  1  0
 17 19  1  0
 19 20  1  0
 19 21  2  0
 21 22  1  0
 21 23  1  0
 23 24  1  0
 23 25  2  0
 25 26  1  0
 14 27  1  0
 27 28  1  0
 27 29  1  0
 27 30  1  0
 13 31  2  0
 31 32  1  0
  6 33  1  0
 33 34  1  0
 33 35  2  0
 35 36  1  0
 35  2  1  0
 31  7  1  0
 25 16  1  0
M  END
>  <cnnaffinity>  (1) 
-5.20999

>  <filename>  (1) 
C[C@H](c1ccccc1)c1ccnc(-c2cccnc2)c1

$$$$
