
     RDKit          3D

 40 42  0  0  0  0  0  0  0  0999 V2000
    5.0245    1.8035   16.8586 H   0  0  0  0  0  0  0  0  0  0  0  0
    5.5026    1.3094   17.7013 C   0  0  0  0  0  0  0  0  0  0  0  0
    6.6561    0.6849   17.4309 N   0  0  0  0  0  0  0  0  0  0  0  0
    7.2777    0.0678   18.4410 C   0  0  0  0  0  0  0  0  0  0  0  0
    8.2223   -0.4177   18.2047 H   0  0  0  0  0  0  0  0  0  0  0  0
    6.7625    0.0187   19.7454 C   0  0  0  0  0  0  0  0  0  0  0  0
    7.5090   -0.7118   20.7975 C   0  0  0  0  0  0  0  0  0  0  0  0
    8.8544   -0.6779   20.7521 N   0  0  0  0  0  0  0  0  0  0  0  0
    9.5793   -1.2012   21.7460 N   0  0  0  0  0  0  0  0  0  0  0  0
    8.9746   -1.7748   22.7910 C   0  0  0  0  0  0  0  0  0  0  0  0
    9.6277   -2.1370   23.5817 H   0  0  0  0  0  0  0  0  0  0  0  0
    7.5722   -1.9068   22.8836 C   0  0  0  0  0  0  0  0  0  0  0  0
    6.8783   -2.6149   24.0142 C   0  0  0  0  0  0  0  0  0  0  0  0
    5.9791   -2.0597   24.2994 H   0  0  0  0  0  0  0  0  0  0  0  0
    7.5246   -2.6315   24.8998 H   0  0  0  0  0  0  0  0  0  0  0  0
    6.4672   -4.0361   23.6236 C   0  0  0  0  0  0  0  0  0  0  0  0
    7.3771   -4.6102   23.3503 H   0  0  0  0  0  0  0  0  0  0  0  0
    5.8515   -3.9780   22.7131 H   0  0  0  0  0  0  0  0  0  0  0  0
    5.6966   -4.7007   24.6631 N   0  0  0  0  0  0  0  0  0  0  0  0
    6.3532   -4.8252   25.9698 C   0  0  0  0  0  0  0  0  0  0  0  0
    7.4155   -4.5516   25.9191 H   0  0  0  0  0  0  0  0  0  0  0  0
    5.9103   -4.1196   26.6917 H   0  0  0  0  0  0  0  0  0  0  0  0
    6.1733   -6.2849   26.4245 C   0  0  0  0  0  0  0  0  0  0  0  0
    5.8848   -6.3251   27.4815 H   0  0  0  0  0  0  0  0  0  0  0  0
    7.1113   -6.8432   26.3180 H   0  0  0  0  0  0  0  0  0  0  0  0
    5.0608   -6.8226   25.5132 C   0  0  0  0  0  0  0  0  0  0  0  0
    5.1683   -7.8643   25.2202 H   0  0  0  0  0  0  0  0  0  0  0  0
    4.0954   -6.7250   26.0176 H   0  0  0  0  0  0  0  0  0  0  0  0
    5.1056   -5.9696   24.2427 C   0  0  1  0  0  0  0  0  0  0  0  0
    5.7516   -6.4839   23.5062 H   0  0  0  0  0  0  0  0  0  0  0  0
    3.7343   -5.7688   23.6011 C   0  0  0  0  0  0  0  0  0  0  0  0
    3.0560   -5.3427   24.3484 H   0  0  0  0  0  0  0  0  0  0  0  0
    3.7901   -5.0807   22.7501 H   0  0  0  0  0  0  0  0  0  0  0  0
    3.3131   -6.7177   23.2449 H   0  0  0  0  0  0  0  0  0  0  0  0
    6.8361   -1.3824   21.8299 C   0  0  0  0  0  0  0  0  0  0  0  0
    5.7518   -1.4608   21.7997 H   0  0  0  0  0  0  0  0  0  0  0  0
    5.5546    0.6843   20.0157 C   0  0  0  0  0  0  0  0  0  0  0  0
    5.1308    0.7086   21.0230 H   0  0  0  0  0  0  0  0  0  0  0  0
    4.9138    1.3450   18.9687 C   0  0  0  0  0  0  0  0  0  0  0  0
    3.9831    1.8835   19.1174 H   0  0  0  0  0  0  0  0  0  0  0  0
  1  2  1  0
  2  3  2  0
  3  4  1  0
  4  5  1  0
  4  6  2  0
  6  7  1  0
  7  8  2  0
  8  9  1  0
  9 10  2  0
 10 11  1  0
 10 12  1  0
 12 13  1  0
 13 14  1  0
 13 15  1  0
 13 16  1  0
 16 17  1  0
 16 18  1  0
 16 19  1  0
 19 20  1  0
 20 21  1  0
 20 22  1  0
 20 23  1  0
 23 24  1  0
 23 25  1  0
 23 26  1  0
 26 27  1  0
 26 28  1  0
 26 29  1  0
 29 30  1  6
 29 31  1  0
 31 32  1  0
 31 33  1  0
 31 34  1  0
 12 35  2  0
 35 36  1  0
  6 37  1  0
 37 38  1  0
 37 39  2  0
 39 40  1  0
 39  2  1  0
 35  7  1  0
 29 19  1  0
M  END
>  <cnnaffinity>  (1) 
-5.17033

>  <filename>  (1) 
C[C@@H]1CCCN1CCc1cnnc(-c2cccnc2)c1

$$$$
