
     RDKit          3D

 29 30  0  0  0  0  0  0  0  0999 V2000
    4.9197    1.8392   16.9603 H   0  0  0  0  0  0  0  0  0  0  0  0
    5.3958    1.3149   17.7848 C   0  0  0  0  0  0  0  0  0  0  0  0
    6.5530    0.6884   17.5171 N   0  0  0  0  0  0  0  0  0  0  0  0
    7.1624    0.0531   18.5348 C   0  0  0  0  0  0  0  0  0  0  0  0
    8.0882   -0.4706   18.2973 H   0  0  0  0  0  0  0  0  0  0  0  0
    6.6645    0.0162   19.8700 C   0  0  0  0  0  0  0  0  0  0  0  0
    7.2636   -0.5906   20.9668 N   0  0  0  0  0  0  0  0  0  0  0  0
    6.6731   -0.5515   21.7850 H   0  0  0  0  0  0  0  0  0  0  0  0
    8.6878   -0.7957   21.1976 C   0  0  2  0  0  0  0  0  0  0  0  0
    9.0249   -1.5190   20.4374 H   0  0  0  0  0  0  0  0  0  0  0  0
    8.9196   -1.4579   22.5540 C   0  0  0  0  0  0  0  0  0  0  0  0
    9.6018   -2.6874   22.5677 C   0  0  0  0  0  0  0  0  0  0  0  0
    9.9005   -3.1088   21.6144 H   0  0  0  0  0  0  0  0  0  0  0  0
    9.8780   -3.3886   23.7419 C   0  0  0  0  0  0  0  0  0  0  0  0
   10.3924   -4.3438   23.7456 H   0  0  0  0  0  0  0  0  0  0  0  0
    9.4705   -2.8377   24.9516 C   0  0  0  0  0  0  0  0  0  0  0  0
    9.7143   -3.7145   26.4346 Cl  0  0  0  0  0  0  0  0  0  0  0  0
    8.8385   -1.5991   25.0018 C   0  0  0  0  0  0  0  0  0  0  0  0
    8.5595   -1.1607   25.9515 H   0  0  0  0  0  0  0  0  0  0  0  0
    8.5492   -0.9300   23.8063 C   0  0  0  0  0  0  0  0  0  0  0  0
    7.6785    0.5775   23.9591 Cl  0  0  0  0  0  0  0  0  0  0  0  0
    9.5573    0.4583   21.0034 C   0  0  0  0  0  0  0  0  0  0  0  0
   10.6145    0.1889   21.0885 H   0  0  0  0  0  0  0  0  0  0  0  0
    9.3495    1.2367   21.7438 H   0  0  0  0  0  0  0  0  0  0  0  0
    9.3751    0.8658   20.0064 H   0  0  0  0  0  0  0  0  0  0  0  0
    5.4176    0.6291   20.0979 C   0  0  0  0  0  0  0  0  0  0  0  0
    4.9702    0.5897   21.0938 H   0  0  0  0  0  0  0  0  0  0  0  0
    4.7955    1.2975   19.0495 C   0  0  0  0  0  0  0  0  0  0  0  0
    3.8572    1.8132   19.2123 H   0  0  0  0  0  0  0  0  0  0  0  0
  1  2  1  0
  2  3  2  0
  3  4  1  0
  4  5  1  0
  4  6  2  0
  6  7  1  0
  7  8  1  0
  7  9  1  0
  9 10  1  6
  9 11  1  0
 11 12  2  0
 12 13  1  0
 12 14  1  0
 14 15  1  0
 14 16  2  0
 16 17  1  0
 16 18  1  0
 18 19  1  0
 18 20  2  0
 20 21  1  0
  9 22  1  0
 22 23  1  0
 22 24  1  0
 22 25  1  0
  6 26  1  0
 26 27  1  0
 26 28  2  0
 28 29  1  0
 28  2  1  0
 20 11  1  0
M  END
>  <cnnaffinity>  (1) 
-4.90379

>  <filename>  (1) 
C[C@H](Nc1cccnc1)c1ccc(Cl)cc1Cl

$$$$
