
     RDKit          3D

 37 39  0  0  0  0  0  0  0  0999 V2000
    4.9130    1.7879   16.9881 H   0  0  0  0  0  0  0  0  0  0  0  0
    5.3962    1.2991   17.8275 C   0  0  0  0  0  0  0  0  0  0  0  0
    6.5564    0.6819   17.5538 N   0  0  0  0  0  0  0  0  0  0  0  0
    7.1700    0.0811   18.5785 C   0  0  0  0  0  0  0  0  0  0  0  0
    8.1066   -0.4224   18.3500 H   0  0  0  0  0  0  0  0  0  0  0  0
    6.6651    0.0267   19.8899 C   0  0  0  0  0  0  0  0  0  0  0  0
    7.3927   -0.6948   20.9651 C   0  0  0  0  0  0  0  0  0  0  0  0
    6.6978   -1.5449   21.8731 C   0  0  0  0  0  0  0  0  0  0  0  0
    5.6243   -1.6630   21.7086 H   0  0  0  0  0  0  0  0  0  0  0  0
    7.3297   -2.2059   22.9014 C   0  0  0  0  0  0  0  0  0  0  0  0
    6.5288   -3.1357   23.7849 C   0  0  1  0  0  0  0  0  0  0  0  0
    5.5082   -2.7223   23.8043 H   0  0  0  0  0  0  0  0  0  0  0  0
    6.4248   -4.5267   23.1546 C   0  0  0  0  0  0  0  0  0  0  0  0
    7.5612   -5.3419   23.0238 C   0  0  0  0  0  0  0  0  0  0  0  0
    8.5269   -4.9846   23.3809 H   0  0  0  0  0  0  0  0  0  0  0  0
    7.4548   -6.6100   22.4471 C   0  0  0  0  0  0  0  0  0  0  0  0
    8.3347   -7.2422   22.3725 H   0  0  0  0  0  0  0  0  0  0  0  0
    6.2137   -7.0741   21.9985 C   0  0  0  0  0  0  0  0  0  0  0  0
    6.1236   -8.0775   21.5998 H   0  0  0  0  0  0  0  0  0  0  0  0
    5.0793   -6.2639   22.1029 C   0  0  0  0  0  0  0  0  0  0  0  0
    4.1147   -6.6240   21.7514 H   0  0  0  0  0  0  0  0  0  0  0  0
    5.1898   -4.9966   22.6815 C   0  0  0  0  0  0  0  0  0  0  0  0
    4.3081   -4.3664   22.7835 H   0  0  0  0  0  0  0  0  0  0  0  0
    6.9835   -3.1917   25.2481 C   0  0  0  0  0  0  0  0  0  0  0  0
    7.1768   -2.1850   25.6281 H   0  0  0  0  0  0  0  0  0  0  0  0
    7.9039   -3.7671   25.3710 H   0  0  0  0  0  0  0  0  0  0  0  0
    6.1956   -3.6469   25.8563 H   0  0  0  0  0  0  0  0  0  0  0  0
    8.7834   -2.0844   23.0395 C   0  0  0  0  0  0  0  0  0  0  0  0
    9.5380   -2.6277   23.8326 O   0  0  0  0  0  0  0  0  0  0  0  0
    9.3762   -1.2214   22.1110 N   0  0  0  0  0  0  0  0  0  0  0  0
   10.3664   -1.1846   22.2704 H   0  0  0  0  0  0  0  0  0  0  0  0
    8.7425   -0.5486   21.1064 C   0  0  0  0  0  0  0  0  0  0  0  0
    9.3292    0.1037   20.4564 H   0  0  0  0  0  0  0  0  0  0  0  0
    5.4378    0.6524   20.1477 C   0  0  0  0  0  0  0  0  0  0  0  0
    5.0173    0.6310   21.1585 H   0  0  0  0  0  0  0  0  0  0  0  0
    4.8045    1.3163   19.0977 C   0  0  0  0  0  0  0  0  0  0  0  0
    3.8706    1.8448   19.2544 H   0  0  0  0  0  0  0  0  0  0  0  0
  1  2  1  0
  2  3  2  0
  3  4  1  0
  4  5  1  0
  4  6  2  0
  6  7  1  0
  7  8  1  0
  8  9  1  0
  8 10  2  0
 10 11  1  0
 11 12  1  1
 11 13  1  0
 13 14  2  0
 14 15  1  0
 14 16  1  0
 16 17  1  0
 16 18  2  0
 18 19  1  0
 18 20  1  0
 20 21  1  0
 20 22  2  0
 22 23  1  0
 11 24  1  0
 24 25  1  0
 24 26  1  0
 24 27  1  0
 10 28  1  0
 28 29  2  0
 28 30  1  0
 30 31  1  0
 30 32  1  0
 32 33  1  0
  6 34  1  0
 34 35  1  0
 34 36  2  0
 36 37  1  0
 36  2  1  0
 32  7  2  0
 22 13  1  0
M  END
>  <cnnaffinity>  (1) 
-5.34907

>  <filename>  (1) 
C[C@H](c1ccccc1)c1cc(-c2cccnc2)c[nH]c1=O

$$$$
