
     RDKit          3D

 34 36  0  0  0  0  0  0  0  0999 V2000
    8.4104   -1.9680   19.8551 H   0  0  0  0  0  0  0  0  0  0  0  0
    8.1965   -1.6660   20.8578 C   0  0  0  0  0  0  0  0  0  0  0  0
    8.7376   -2.3761   21.8361 N   0  0  0  0  0  0  0  0  0  0  0  0
    8.5341   -1.9449   23.0944 N   0  0  0  0  0  0  0  0  0  0  0  0
    7.8461   -0.8104   23.3079 C   0  0  0  0  0  0  0  0  0  0  0  0
    7.7153   -0.2918   24.7292 C   0  0  1  0  0  0  0  0  0  0  0  0
    7.5135    0.7788   24.5979 H   0  0  0  0  0  0  0  0  0  0  0  0
    6.4807   -0.9281   25.3570 C   0  0  0  0  0  0  0  0  0  0  0  0
    6.3920   -2.3188   25.5332 C   0  0  0  0  0  0  0  0  0  0  0  0
    7.1963   -2.9605   25.1778 H   0  0  0  0  0  0  0  0  0  0  0  0
    5.2619   -2.8832   26.1283 C   0  0  0  0  0  0  0  0  0  0  0  0
    5.2173   -3.9582   26.2871 H   0  0  0  0  0  0  0  0  0  0  0  0
    4.1972   -2.0658   26.5311 C   0  0  0  0  0  0  0  0  0  0  0  0
    3.3227   -2.5065   27.0041 H   0  0  0  0  0  0  0  0  0  0  0  0
    4.2630   -0.6826   26.3268 C   0  0  0  0  0  0  0  0  0  0  0  0
    3.4441   -0.0385   26.6400 H   0  0  0  0  0  0  0  0  0  0  0  0
    5.4020   -0.1235   25.7373 C   0  0  0  0  0  0  0  0  0  0  0  0
    5.4717    0.9493   25.5597 H   0  0  0  0  0  0  0  0  0  0  0  0
    8.9868   -0.4718   25.5934 C   0  0  0  0  0  0  0  0  0  0  0  0
    9.2265   -1.5346   25.7189 H   0  0  0  0  0  0  0  0  0  0  0  0
    9.8549    0.0007   25.1216 H   0  0  0  0  0  0  0  0  0  0  0  0
    8.8506   -0.0304   26.5890 H   0  0  0  0  0  0  0  0  0  0  0  0
    7.1969   -0.1073   22.3546 N   0  0  0  0  0  0  0  0  0  0  0  0
    7.3620   -0.5450   21.1035 C   0  0  0  0  0  0  0  0  0  0  0  0
    6.6375    0.1167   19.9944 C   0  0  0  0  0  0  0  0  0  0  0  0
    7.1670    0.0994   18.6908 C   0  0  0  0  0  0  0  0  0  0  0  0
    8.1189   -0.3880   18.4671 H   0  0  0  0  0  0  0  0  0  0  0  0
    6.5762    0.6600   17.6376 N   0  0  0  0  0  0  0  0  0  0  0  0
    5.4060    1.2811   17.8467 C   0  0  0  0  0  0  0  0  0  0  0  0
    4.9793    1.7737   16.9804 H   0  0  0  0  0  0  0  0  0  0  0  0
    4.7675    1.3256   19.0899 C   0  0  0  0  0  0  0  0  0  0  0  0
    3.8209    1.8464   19.1870 H   0  0  0  0  0  0  0  0  0  0  0  0
    5.3886    0.7317   20.1866 C   0  0  0  0  0  0  0  0  0  0  0  0
    4.9258    0.7334   21.1765 H   0  0  0  0  0  0  0  0  0  0  0  0
  1  2  1  0
  2  3  2  0
  3  4  1  0
  4  5  2  0
  5  6  1  0
  6  7  1  6
  6  8  1  0
  8  9  2  0
  9 10  1  0
  9 11  1  0
 11 12  1  0
 11 13  2  0
 13 14  1  0
 13 15  1  0
 15 16  1  0
 15 17  2  0
 17 18  1  0
  6 19  1  0
 19 20  1  0
 19 21  1  0
 19 22  1  0
  5 23  1  0
 23 24  2  0
 24 25  1  0
 25 26  2  0
 26 27  1  0
 26 28  1  0
 28 29  2  0
 29 30  1  0
 29 31  1  0
 31 32  1  0
 31 33  2  0
 33 34  1  0
 24  2  1  0
 33 25  1  0
 17  8  1  0
M  END
>  <cnnaffinity>  (1) 
-5.16862

>  <filename>  (1) 
C[C@H](c1ccccc1)c1nncc(-c2cccnc2)n1

$$$$
