
     RDKit          3D

 33 35  0  0  0  0  0  0  0  0999 V2000
    5.0832    1.7196   16.9258 H   0  0  0  0  0  0  0  0  0  0  0  0
    5.4886    1.2097   17.7953 C   0  0  0  0  0  0  0  0  0  0  0  0
    6.6178    0.5127   17.5915 N   0  0  0  0  0  0  0  0  0  0  0  0
    7.1464   -0.1290   18.6434 C   0  0  0  0  0  0  0  0  0  0  0  0
    8.0556   -0.6956   18.4260 H   0  0  0  0  0  0  0  0  0  0  0  0
    6.6124   -0.0741   19.9388 C   0  0  0  0  0  0  0  0  0  0  0  0
    7.3485   -0.7121   21.0931 C   0  0  1  0  0  0  0  0  0  0  0  0
    6.7833   -0.5153   22.0174 H   0  0  0  0  0  0  0  0  0  0  0  0
    7.3645   -2.1430   20.8861 N   0  0  0  0  0  0  0  0  0  0  0  0
    7.4823   -2.4476   19.9319 H   0  0  0  0  0  0  0  0  0  0  0  0
    7.7080   -3.0795   21.8447 C   0  0  0  0  0  0  0  0  0  0  0  0
    7.8501   -4.4365   21.4252 C   0  0  0  0  0  0  0  0  0  0  0  0
    7.5580   -4.6890   20.4141 H   0  0  0  0  0  0  0  0  0  0  0  0
    8.2868   -5.4280   22.2837 C   0  0  0  0  0  0  0  0  0  0  0  0
    8.3804   -6.4534   21.9296 H   0  0  0  0  0  0  0  0  0  0  0  0
    8.5850   -5.0927   23.6249 C   0  0  0  0  0  0  0  0  0  0  0  0
    9.0797   -5.7831   24.7825 C   0  0  0  0  0  0  0  0  0  0  0  0
    9.5070   -6.7725   24.8068 H   0  0  0  0  0  0  0  0  0  0  0  0
    8.9978   -4.9233   25.8385 C   0  0  0  0  0  0  0  0  0  0  0  0
    9.2519   -5.0775   26.8778 H   0  0  0  0  0  0  0  0  0  0  0  0
    8.5219   -3.7059   25.3972 N   0  0  0  0  0  0  0  0  0  0  0  0
    8.2410   -2.9172   25.9514 H   0  0  0  0  0  0  0  0  0  0  0  0
    8.2923   -3.7748   24.0493 C   0  0  0  0  0  0  0  0  0  0  0  0
    7.8809   -2.7533   23.1890 C   0  0  0  0  0  0  0  0  0  0  0  0
    7.7060   -1.7512   23.5598 H   0  0  0  0  0  0  0  0  0  0  0  0
    8.7439   -0.0892   21.2615 C   0  0  0  0  0  0  0  0  0  0  0  0
    9.3434   -0.1914   20.3503 H   0  0  0  0  0  0  0  0  0  0  0  0
    8.6396    0.9786   21.4826 H   0  0  0  0  0  0  0  0  0  0  0  0
    9.2972   -0.5642   22.0758 H   0  0  0  0  0  0  0  0  0  0  0  0
    5.4149    0.6272   20.1224 C   0  0  0  0  0  0  0  0  0  0  0  0
    4.9447    0.6476   21.1056 H   0  0  0  0  0  0  0  0  0  0  0  0
    4.8443    1.2863   19.0328 C   0  0  0  0  0  0  0  0  0  0  0  0
    3.9280    1.8581   19.1338 H   0  0  0  0  0  0  0  0  0  0  0  0
  1  2  1  0
  2  3  2  0
  3  4  1  0
  4  5  1  0
  4  6  2  0
  6  7  1  0
  7  8  1  1
  7  9  1  0
  9 10  1  0
  9 11  1  0
 11 12  2  0
 12 13  1  0
 12 14  1  0
 14 15  1  0
 14 16  2  0
 16 17  1  0
 17 18  1  0
 17 19  2  0
 19 20  1  0
 19 21  1  0
 21 22  1  0
 21 23  1  0
 23 24  2  0
 24 25  1  0
  7 26  1  0
 26 27  1  0
 26 28  1  0
 26 29  1  0
  6 30  1  0
 30 31  1  0
 30 32  2  0
 32 33  1  0
 32  2  1  0
 24 11  1  0
 23 16  1  0
M  END
>  <cnnaffinity>  (1) 
-4.69872

>  <filename>  (1) 
C[C@H](Nc1ccc2cc[nH]c2c1)c1cccnc1

$$$$
