
     RDKit          3D

 36 38  0  0  0  0  0  0  0  0999 V2000
    4.9255    1.8143   16.9620 H   0  0  0  0  0  0  0  0  0  0  0  0
    5.3843    1.3084   17.8100 C   0  0  0  0  0  0  0  0  0  0  0  0
    6.5457    0.6857   17.5566 N   0  0  0  0  0  0  0  0  0  0  0  0
    7.1552    0.0710   18.5800 C   0  0  0  0  0  0  0  0  0  0  0  0
    8.0998   -0.4173   18.3412 H   0  0  0  0  0  0  0  0  0  0  0  0
    6.6476    0.0180   19.8881 C   0  0  0  0  0  0  0  0  0  0  0  0
    7.3849   -0.7038   20.9587 C   0  0  0  0  0  0  0  0  0  0  0  0
    8.7706   -0.5765   21.1188 C   0  0  0  0  0  0  0  0  0  0  0  0
    9.3404    0.0743   20.4712 H   0  0  0  0  0  0  0  0  0  0  0  0
    9.3971   -1.2690   22.1527 C   0  0  0  0  0  0  0  0  0  0  0  0
   10.4726   -1.1875   22.3088 H   0  0  0  0  0  0  0  0  0  0  0  0
    8.7423   -2.0670   23.0073 N   0  0  0  0  0  0  0  0  0  0  0  0
    7.4151   -2.1912   22.8674 C   0  0  0  0  0  0  0  0  0  0  0  0
    6.6452   -3.1165   23.8114 C   0  0  1  0  0  0  0  0  0  0  0  0
    5.6408   -2.6768   23.9002 H   0  0  0  0  0  0  0  0  0  0  0  0
    6.4754   -4.4851   23.1474 C   0  0  0  0  0  0  0  0  0  0  0  0
    7.6174   -5.2340   22.8269 C   0  0  0  0  0  0  0  0  0  0  0  0
    8.5983   -4.7937   22.9965 H   0  0  0  0  0  0  0  0  0  0  0  0
    7.5060   -6.5305   22.3335 C   0  0  0  0  0  0  0  0  0  0  0  0
    8.4141   -7.1181   22.2314 H   0  0  0  0  0  0  0  0  0  0  0  0
    6.2397   -7.0630   22.0662 C   0  0  0  0  0  0  0  0  0  0  0  0
    6.1480   -8.0749   21.6875 H   0  0  0  0  0  0  0  0  0  0  0  0
    5.0888   -6.3098   22.3335 C   0  0  0  0  0  0  0  0  0  0  0  0
    4.1037   -6.7359   22.1495 H   0  0  0  0  0  0  0  0  0  0  0  0
    5.2082   -5.0317   22.8963 C   0  0  0  0  0  0  0  0  0  0  0  0
    4.3218   -4.4676   23.1918 H   0  0  0  0  0  0  0  0  0  0  0  0
    7.2747   -3.2232   25.2227 C   0  0  0  0  0  0  0  0  0  0  0  0
    8.2940   -3.6289   25.1649 H   0  0  0  0  0  0  0  0  0  0  0  0
    7.3444   -2.2365   25.6958 H   0  0  0  0  0  0  0  0  0  0  0  0
    6.6783   -3.8784   25.8667 H   0  0  0  0  0  0  0  0  0  0  0  0
    6.7122   -1.5386   21.8485 C   0  0  0  0  0  0  0  0  0  0  0  0
    5.6466   -1.6933   21.7458 H   0  0  0  0  0  0  0  0  0  0  0  0
    5.4259    0.6653   20.1279 C   0  0  0  0  0  0  0  0  0  0  0  0
    5.0031    0.6569   21.1338 H   0  0  0  0  0  0  0  0  0  0  0  0
    4.7878    1.3271   19.0763 C   0  0  0  0  0  0  0  0  0  0  0  0
    3.8551    1.8592   19.2187 H   0  0  0  0  0  0  0  0  0  0  0  0
  1  2  1  0
  2  3  2  0
  3  4  1  0
  4  5  1  0
  4  6  2  0
  6  7  1  0
  7  8  2  0
  8  9  1  0
  8 10  1  0
 10 11  1  0
 10 12  2  0
 12 13  1  0
 13 14  1  0
 14 15  1  1
 14 16  1  0
 16 17  2  0
 17 18  1  0
 17 19  1  0
 19 20  1  0
 19 21  2  0
 21 22  1  0
 21 23  1  0
 23 24  1  0
 23 25  2  0
 25 26  1  0
 14 27  1  0
 27 28  1  0
 27 29  1  0
 27 30  1  0
 13 31  2  0
 31 32  1  0
  6 33  1  0
 33 34  1  0
 33 35  2  0
 35 36  1  0
 35  2  1  0
 31  7  1  0
 25 16  1  0
M  END
>  <cnnaffinity>  (1) 
-5.36525

>  <filename>  (1) 
C[C@H](c1ccccc1)c1cc(-c2cccnc2)ccn1

$$$$
