
     RDKit          3D

 41 44  0  0  0  0  0  0  0  0999 V2000
    4.9462    1.8023   16.9820 H   0  0  0  0  0  0  0  0  0  0  0  0
    5.3940    1.2891   17.8296 C   0  0  0  0  0  0  0  0  0  0  0  0
    6.5540    0.6619   17.5893 N   0  0  0  0  0  0  0  0  0  0  0  0
    7.1635    0.0680   18.6220 C   0  0  0  0  0  0  0  0  0  0  0  0
    8.1123   -0.4115   18.3769 H   0  0  0  0  0  0  0  0  0  0  0  0
    6.6581    0.0584   19.9411 C   0  0  0  0  0  0  0  0  0  0  0  0
    7.4169   -0.6242   21.0094 C   0  0  0  0  0  0  0  0  0  0  0  0
    8.2836   -1.6478   20.8632 C   0  0  0  0  0  0  0  0  0  0  0  0
    8.6808   -2.0274   19.9418 H   0  0  0  0  0  0  0  0  0  0  0  0
    8.9097   -2.2634   22.3690 S   0  0  0  0  0  0  0  0  0  0  0  0
    8.1224   -0.9557   23.2018 C   0  0  0  0  0  0  0  0  0  0  0  0
    8.1909   -0.3770   24.3822 N   0  0  0  0  0  0  0  0  0  0  0  0
    7.3637    0.6934   24.2132 C   0  0  0  0  0  0  0  0  0  0  0  0
    7.1553    1.6837   25.3044 C   0  0  0  0  0  0  0  0  0  0  0  0
    6.1295    2.0621   25.2524 H   0  0  0  0  0  0  0  0  0  0  0  0
    7.2949    1.1759   26.2641 H   0  0  0  0  0  0  0  0  0  0  0  0
    8.1484    2.8405   25.1802 C   0  0  0  0  0  0  0  0  0  0  0  0
    9.1654    2.4266   25.1517 H   0  0  0  0  0  0  0  0  0  0  0  0
    8.1006    3.4798   26.0843 H   0  0  0  0  0  0  0  0  0  0  0  0
    7.9280    3.5872   23.9467 N   0  0  0  0  0  0  0  0  0  0  0  0
    9.0519    4.4254   23.5029 C   0  0  0  0  0  0  0  0  0  0  0  0
    9.1682    4.3484   22.4104 H   0  0  0  0  0  0  0  0  0  0  0  0
    9.9990    4.0823   23.9404 H   0  0  0  0  0  0  0  0  0  0  0  0
    8.6788    5.8564   23.8992 C   0  0  0  0  0  0  0  0  0  0  0  0
    9.2285    6.6162   23.3307 H   0  0  0  0  0  0  0  0  0  0  0  0
    8.8976    6.0129   24.9625 H   0  0  0  0  0  0  0  0  0  0  0  0
    7.1660    5.8724   23.6382 C   0  0  0  0  0  0  0  0  0  0  0  0
    6.6154    6.5726   24.2765 H   0  0  0  0  0  0  0  0  0  0  0  0
    6.9663    6.1519   22.5955 H   0  0  0  0  0  0  0  0  0  0  0  0
    6.6984    4.4135   23.8896 C   0  0  1  0  0  0  0  0  0  0  0  0
    6.1795    4.3709   24.8619 H   0  0  0  0  0  0  0  0  0  0  0  0
    5.7202    3.9255   22.8177 C   0  0  0  0  0  0  0  0  0  0  0  0
    4.8375    4.5768   22.7868 H   0  0  0  0  0  0  0  0  0  0  0  0
    5.3898    2.9050   23.0259 H   0  0  0  0  0  0  0  0  0  0  0  0
    6.1940    3.9306   21.8267 H   0  0  0  0  0  0  0  0  0  0  0  0
    6.8106    0.8123   23.0152 N   0  0  0  0  0  0  0  0  0  0  0  0
    7.3140   -0.2723   22.3613 N   0  0  0  0  0  0  0  0  0  0  0  0
    5.4207    0.6957   20.1555 C   0  0  0  0  0  0  0  0  0  0  0  0
    4.9734    0.7047   21.1471 H   0  0  0  0  0  0  0  0  0  0  0  0
    4.7797    1.3182   19.0838 C   0  0  0  0  0  0  0  0  0  0  0  0
    3.8369    1.8429   19.2048 H   0  0  0  0  0  0  0  0  0  0  0  0
  1  2  1  0
  2  3  2  0
  3  4  1  0
  4  5  1  0
  4  6  2  0
  6  7  1  0
  7  8  2  0
  8  9  1  0
  8 10  1  0
 10 11  1  0
 11 12  2  0
 12 13  1  0
 13 14  1  0
 14 15  1  0
 14 16  1  0
 14 17  1  0
 17 18  1  0
 17 19  1  0
 17 20  1  0
 20 21  1  0
 21 22  1  0
 21 23  1  0
 21 24  1  0
 24 25  1  0
 24 26  1  0
 24 27  1  0
 27 28  1  0
 27 29  1  0
 27 30  1  0
 30 31  1  1
 30 32  1  0
 32 33  1  0
 32 34  1  0
 32 35  1  0
 13 36  2  0
 36 37  1  0
  6 38  1  0
 38 39  1  0
 38 40  2  0
 40 41  1  0
 40  2  1  0
 37  7  1  0
 37 11  1  0
 30 20  1  0
M  END
>  <cnnaffinity>  (1) 
-5.45011

>  <filename>  (1) 
C[C@@H]1CCCN1CCc1nc2scc(-c3cccnc3)n2n1

$$$$
