
     RDKit          3D

 39 40  0  0  0  0  0  0  0  0999 V2000
    4.8516    1.8932   16.9486 H   0  0  0  0  0  0  0  0  0  0  0  0
    5.3700    1.3714   17.7502 C   0  0  0  0  0  0  0  0  0  0  0  0
    6.5255    0.7735   17.4143 N   0  0  0  0  0  0  0  0  0  0  0  0
    7.1924    0.1074   18.3698 C   0  0  0  0  0  0  0  0  0  0  0  0
    8.1116   -0.3983   18.0773 H   0  0  0  0  0  0  0  0  0  0  0  0
    6.7328   -0.0077   19.7016 C   0  0  0  0  0  0  0  0  0  0  0  0
    7.3747   -0.7823   20.7188 N   0  0  0  0  0  0  0  0  0  0  0  0
    6.7871   -1.4209   21.2298 H   0  0  0  0  0  0  0  0  0  0  0  0
    8.6918   -0.7497   21.1000 C   0  0  0  0  0  0  0  0  0  0  0  0
    9.5171   -0.0097   20.6100 O   0  0  0  0  0  0  0  0  0  0  0  0
    9.0838   -1.7475   22.2707 C   0  0  0  0  0  0  0  0  0  0  0  0
    8.1774   -2.7800   22.3310 F   0  0  0  0  0  0  0  0  0  0  0  0
   10.2938   -2.3051   21.9613 F   0  0  0  0  0  0  0  0  0  0  0  0
    9.1622   -1.0903   23.6420 C   0  0  0  0  0  0  0  0  0  0  0  0
    9.7755   -0.1885   23.5509 H   0  0  0  0  0  0  0  0  0  0  0  0
    8.1534   -0.7750   23.9169 H   0  0  0  0  0  0  0  0  0  0  0  0
    9.7565   -1.9864   24.7295 C   0  0  0  0  0  0  0  0  0  0  0  0
    9.9529   -1.3600   25.6203 H   0  0  0  0  0  0  0  0  0  0  0  0
   10.7349   -2.3282   24.3745 H   0  0  0  0  0  0  0  0  0  0  0  0
    8.9684   -3.1665   25.0386 N   0  0  0  0  0  0  0  0  0  0  0  0
    7.6249   -2.9877   25.5819 C   0  0  0  0  0  0  0  0  0  0  0  0
    6.9230   -2.6569   24.8047 H   0  0  0  0  0  0  0  0  0  0  0  0
    7.5864   -2.2412   26.4069 H   0  0  0  0  0  0  0  0  0  0  0  0
    7.2845   -4.3865   26.1083 C   0  0  0  0  0  0  0  0  0  0  0  0
    7.0088   -5.0465   25.2729 H   0  0  0  0  0  0  0  0  0  0  0  0
    6.4491   -4.3908   26.8173 H   0  0  0  0  0  0  0  0  0  0  0  0
    8.6131   -4.8320   26.7312 C   0  0  0  0  0  0  0  0  0  0  0  0
    8.7181   -5.9222   26.7992 H   0  0  0  0  0  0  0  0  0  0  0  0
    8.7107   -4.4421   27.7560 H   0  0  0  0  0  0  0  0  0  0  0  0
    9.6809   -4.1891   25.8198 C   0  0  1  0  0  0  0  0  0  0  0  0
   10.4453   -3.7530   26.4778 H   0  0  0  0  0  0  0  0  0  0  0  0
   10.3583   -5.1383   24.8435 C   0  0  0  0  0  0  0  0  0  0  0  0
   11.0573   -5.8074   25.3534 H   0  0  0  0  0  0  0  0  0  0  0  0
    9.6001   -5.7266   24.3158 H   0  0  0  0  0  0  0  0  0  0  0  0
   10.8923   -4.5480   24.0911 H   0  0  0  0  0  0  0  0  0  0  0  0
    5.5183    0.6072   20.0239 C   0  0  0  0  0  0  0  0  0  0  0  0
    5.1352    0.5199   21.0380 H   0  0  0  0  0  0  0  0  0  0  0  0
    4.8251    1.3179   19.0383 C   0  0  0  0  0  0  0  0  0  0  0  0
    3.8770    1.8058   19.2485 H   0  0  0  0  0  0  0  0  0  0  0  0
  1  2  1  0
  2  3  2  0
  3  4  1  0
  4  5  1  0
  4  6  2  0
  6  7  1  0
  7  8  1  0
  7  9  1  0
  9 10  2  0
  9 11  1  0
 11 12  1  0
 11 13  1  0
 11 14  1  0
 14 15  1  0
 14 16  1  0
 14 17  1  0
 17 18  1  0
 17 19  1  0
 17 20  1  0
 20 21  1  0
 21 22  1  0
 21 23  1  0
 21 24  1  0
 24 25  1  0
 24 26  1  0
 24 27  1  0
 27 28  1  0
 27 29  1  0
 27 30  1  0
 30 31  1  1
 30 32  1  0
 32 33  1  0
 32 34  1  0
 32 35  1  0
  6 36  1  0
 36 37  1  0
 36 38  2  0
 38 39  1  0
 38  2  1  0
 30 20  1  0
M  END
>  <cnnaffinity>  (1) 
-4.82595

>  <filename>  (1) 
C[C@@H]1CCCN1CCC(F)(F)C(=O)Nc1cccnc1

$$$$
