
     RDKit          3D

 41 44  0  0  0  0  0  0  0  0999 V2000
    4.9357    1.7740   16.9989 H   0  0  0  0  0  0  0  0  0  0  0  0
    5.4102    1.2849   17.8443 C   0  0  0  0  0  0  0  0  0  0  0  0
    6.5738    0.6642   17.5970 N   0  0  0  0  0  0  0  0  0  0  0  0
    7.1762    0.0512   18.6211 C   0  0  0  0  0  0  0  0  0  0  0  0
    8.1241   -0.4316   18.3875 H   0  0  0  0  0  0  0  0  0  0  0  0
    6.6394    0.0159   19.9176 C   0  0  0  0  0  0  0  0  0  0  0  0
    7.3612   -0.6914   20.9770 C   0  0  0  0  0  0  0  0  0  0  0  0
    8.5516   -1.3190   20.7564 N   0  0  0  0  0  0  0  0  0  0  0  0
    8.8292   -1.7893   21.9513 C   0  0  0  0  0  0  0  0  0  0  0  0
   10.0911   -2.6769   22.7668 S   0  0  0  0  0  0  0  0  0  0  0  0
    9.2013   -2.5614   24.2684 C   0  0  0  0  0  0  0  0  0  0  0  0
    9.6279   -2.9790   25.1690 H   0  0  0  0  0  0  0  0  0  0  0  0
    8.0292   -1.9110   24.1485 C   0  0  0  0  0  0  0  0  0  0  0  0
    7.0721   -1.5391   25.2412 C   0  0  0  0  0  0  0  0  0  0  0  0
    7.1651   -2.2527   26.0661 H   0  0  0  0  0  0  0  0  0  0  0  0
    6.0429   -1.5989   24.8692 H   0  0  0  0  0  0  0  0  0  0  0  0
    7.3525   -0.1343   25.7905 C   0  0  0  0  0  0  0  0  0  0  0  0
    8.4003   -0.0904   26.1152 H   0  0  0  0  0  0  0  0  0  0  0  0
    7.2547    0.5972   24.9674 H   0  0  0  0  0  0  0  0  0  0  0  0
    6.4931    0.2213   26.9133 N   0  0  0  0  0  0  0  0  0  0  0  0
    5.0891    0.3933   26.5397 C   0  0  0  0  0  0  0  0  0  0  0  0
    4.5641   -0.5710   26.5182 H   0  0  0  0  0  0  0  0  0  0  0  0
    4.9944    0.8323   25.5282 H   0  0  0  0  0  0  0  0  0  0  0  0
    4.5101    1.3357   27.5897 C   0  0  0  0  0  0  0  0  0  0  0  0
    3.6695    1.9097   27.1913 H   0  0  0  0  0  0  0  0  0  0  0  0
    4.1405    0.7706   28.4525 H   0  0  0  0  0  0  0  0  0  0  0  0
    5.6920    2.2303   27.9754 C   0  0  0  0  0  0  0  0  0  0  0  0
    5.7009    3.1568   27.3927 H   0  0  0  0  0  0  0  0  0  0  0  0
    5.6519    2.5283   29.0281 H   0  0  0  0  0  0  0  0  0  0  0  0
    6.9547    1.4027   27.6594 C   0  0  1  0  0  0  0  0  0  0  0  0
    7.6325    2.0123   27.0384 H   0  0  0  0  0  0  0  0  0  0  0  0
    7.7242    0.9894   28.9097 C   0  0  0  0  0  0  0  0  0  0  0  0
    7.0804    0.3935   29.5648 H   0  0  0  0  0  0  0  0  0  0  0  0
    8.6025    0.3847   28.6575 H   0  0  0  0  0  0  0  0  0  0  0  0
    8.0594    1.8738   29.4651 H   0  0  0  0  0  0  0  0  0  0  0  0
    7.8566   -1.4795   22.8332 N   0  0  0  0  0  0  0  0  0  0  0  0
    6.8940   -0.7579   22.2181 N   0  0  0  0  0  0  0  0  0  0  0  0
    5.4175    0.6621   20.1667 C   0  0  0  0  0  0  0  0  0  0  0  0
    4.9872    0.6429   21.1732 H   0  0  0  0  0  0  0  0  0  0  0  0
    4.8025    1.3115   19.1040 C   0  0  0  0  0  0  0  0  0  0  0  0
    3.8727    1.8445   19.2504 H   0  0  0  0  0  0  0  0  0  0  0  0
  1  2  1  0
  2  3  2  0
  3  4  1  0
  4  5  1  0
  4  6  2  0
  6  7  1  0
  7  8  1  0
  8  9  2  0
  9 10  1  0
 10 11  1  0
 11 12  1  0
 11 13  2  0
 13 14  1  0
 14 15  1  0
 14 16  1  0
 14 17  1  0
 17 18  1  0
 17 19  1  0
 17 20  1  0
 20 21  1  0
 21 22  1  0
 21 23  1  0
 21 24  1  0
 24 25  1  0
 24 26  1  0
 24 27  1  0
 27 28  1  0
 27 29  1  0
 27 30  1  0
 30 31  1  6
 30 32  1  0
 32 33  1  0
 32 34  1  0
 32 35  1  0
 13 36  1  0
 36 37  1  0
  6 38  1  0
 38 39  1  0
 38 40  2  0
 40 41  1  0
 40  2  1  0
 37  7  2  0
 36  9  1  0
 30 20  1  0
M  END
>  <cnnaffinity>  (1) 
-5.61415

>  <filename>  (1) 
C[C@@H]1CCCN1CCc1csc2nc(-c3cccnc3)nn12

$$$$
