
     RDKit          3D

 32 34  0  0  0  0  0  0  0  0999 V2000
    6.7989    2.0924   21.3340 H   0  0  0  0  0  0  0  0  0  0  0  0
    7.0126    2.2172   22.2737 O   0  0  0  0  0  0  0  0  0  0  0  0
    8.1838    1.4547   22.4796 C   0  0  1  0  0  0  0  0  0  0  0  0
    8.4721    1.6447   23.5283 H   0  0  0  0  0  0  0  0  0  0  0  0
    7.9120   -0.0056   22.2490 C   0  0  0  0  0  0  0  0  0  0  0  0
    7.2690   -0.5611   21.0902 C   0  0  0  0  0  0  0  0  0  0  0  0
    6.5685    0.1014   19.9870 C   0  0  0  0  0  0  0  0  0  0  0  0
    7.1159    0.0393   18.6945 C   0  0  0  0  0  0  0  0  0  0  0  0
    8.0280   -0.5251   18.4991 H   0  0  0  0  0  0  0  0  0  0  0  0
    6.5815    0.6490   17.6331 N   0  0  0  0  0  0  0  0  0  0  0  0
    5.4349    1.3213   17.8224 C   0  0  0  0  0  0  0  0  0  0  0  0
    5.0135    1.8069   16.9433 H   0  0  0  0  0  0  0  0  0  0  0  0
    4.7785    1.3869   19.0554 C   0  0  0  0  0  0  0  0  0  0  0  0
    3.8418    1.9184   19.1376 H   0  0  0  0  0  0  0  0  0  0  0  0
    5.3476    0.7628   20.1651 C   0  0  0  0  0  0  0  0  0  0  0  0
    4.8600    0.7719   21.1428 H   0  0  0  0  0  0  0  0  0  0  0  0
    7.4718   -1.8677   20.9929 N   0  0  0  0  0  0  0  0  0  0  0  0
    8.2090   -2.1597   22.0744 N   0  0  0  0  0  0  0  0  0  0  0  0
    8.5320   -1.0977   22.8324 C   0  0  0  0  0  0  0  0  0  0  0  0
    9.6968   -1.4407   23.7242 C   0  0  0  0  0  0  0  0  0  0  0  0
   10.5438   -0.7822   23.4941 H   0  0  0  0  0  0  0  0  0  0  0  0
    9.4552   -1.3290   24.7814 H   0  0  0  0  0  0  0  0  0  0  0  0
   10.0089   -2.9221   23.3757 C   0  0  0  0  0  0  0  0  0  0  0  0
    9.7275   -3.5932   24.1902 H   0  0  0  0  0  0  0  0  0  0  0  0
   11.0704   -3.0854   23.1830 H   0  0  0  0  0  0  0  0  0  0  0  0
    9.1692   -3.2356   22.1205 C   0  0  0  0  0  0  0  0  0  0  0  0
    8.6700   -4.2052   22.1414 H   0  0  0  0  0  0  0  0  0  0  0  0
    9.7550   -3.1382   21.2030 H   0  0  0  0  0  0  0  0  0  0  0  0
    9.2773    1.9437   21.5305 C   0  0  0  0  0  0  0  0  0  0  0  0
   10.2057    1.3751   21.6569 H   0  0  0  0  0  0  0  0  0  0  0  0
    9.4934    3.0028   21.7035 H   0  0  0  0  0  0  0  0  0  0  0  0
    8.9188    1.7954   20.5040 H   0  0  0  0  0  0  0  0  0  0  0  0
  1  2  1  0
  2  3  1  0
  3  4  1  1
  3  5  1  0
  5  6  1  0
  6  7  1  0
  7  8  2  0
  8  9  1  0
  8 10  1  0
 10 11  2  0
 11 12  1  0
 11 13  1  0
 13 14  1  0
 13 15  2  0
 15 16  1  0
  6 17  2  0
 17 18  1  0
 18 19  1  0
 19 20  1  0
 20 21  1  0
 20 22  1  0
 20 23  1  0
 23 24  1  0
 23 25  1  0
 23 26  1  0
 26 27  1  0
 26 28  1  0
  3 29  1  0
 29 30  1  0
 29 31  1  0
 29 32  1  0
 19  5  2  0
 15  7  1  0
 26 18  1  0
M  END
>  <cnnaffinity>  (1) 
-5.18841

>  <filename>  (1) 
C[C@@H](O)c1c(-c2cccnc2)nn2c1CCC2

$$$$
