
     RDKit          3D

 30 31  0  0  0  0  0  0  0  0999 V2000
    4.9283    1.7815   16.9497 H   0  0  0  0  0  0  0  0  0  0  0  0
    5.4166    1.2821   17.7871 C   0  0  0  0  0  0  0  0  0  0  0  0
    6.5749    0.6580   17.5218 N   0  0  0  0  0  0  0  0  0  0  0  0
    7.1947    0.0571   18.5472 C   0  0  0  0  0  0  0  0  0  0  0  0
    8.1300   -0.4474   18.3077 H   0  0  0  0  0  0  0  0  0  0  0  0
    6.7174    0.0469   19.8675 C   0  0  0  0  0  0  0  0  0  0  0  0
    7.4313   -0.6578   21.0195 C   0  0  1  0  0  0  0  0  0  0  0  0
    8.4464   -0.9212   20.7057 H   0  0  0  0  0  0  0  0  0  0  0  0
    7.5705    0.3447   22.1845 C   0  0  0  0  0  0  0  0  0  0  0  0
    6.7399    0.5035   23.0682 O   0  0  0  0  0  0  0  0  0  0  0  0
    8.6618    1.1364   22.0782 N   0  0  0  0  0  0  0  0  0  0  0  0
    9.4038    0.9244   21.4495 H   0  0  0  0  0  0  0  0  0  0  0  0
    8.9664    2.1926   22.8915 C   0  0  0  0  0  0  0  0  0  0  0  0
   10.1250    2.7175   22.8704 N   0  0  0  0  0  0  0  0  0  0  0  0
   10.0574    3.8195   23.8366 C   0  0  0  0  0  0  0  0  0  0  0  0
   10.7469    3.6233   24.6682 H   0  0  0  0  0  0  0  0  0  0  0  0
   10.3591    4.7650   23.3676 H   0  0  0  0  0  0  0  0  0  0  0  0
    8.5740    3.8810   24.3360 C   0  0  0  0  0  0  0  0  0  0  0  0
    8.4913    3.8338   25.4271 H   0  0  0  0  0  0  0  0  0  0  0  0
    8.0639    4.7951   24.0058 H   0  0  0  0  0  0  0  0  0  0  0  0
    8.0218    2.7053   23.6894 N   0  0  0  0  0  0  0  0  0  0  0  0
    7.1562    2.1985   23.7893 H   0  0  0  0  0  0  0  0  0  0  0  0
    6.7135   -1.9451   21.4314 C   0  0  0  0  0  0  0  0  0  0  0  0
    6.6014   -2.6063   20.5659 H   0  0  0  0  0  0  0  0  0  0  0  0
    7.2677   -2.4603   22.2228 H   0  0  0  0  0  0  0  0  0  0  0  0
    5.7154   -1.7030   21.8037 H   0  0  0  0  0  0  0  0  0  0  0  0
    5.4994    0.6914   20.1156 C   0  0  0  0  0  0  0  0  0  0  0  0
    5.1039    0.7116   21.1341 H   0  0  0  0  0  0  0  0  0  0  0  0
    4.8362    1.3119   19.0594 C   0  0  0  0  0  0  0  0  0  0  0  0
    3.8987    1.8319   19.2177 H   0  0  0  0  0  0  0  0  0  0  0  0
  1  2  1  0
  2  3  2  0
  3  4  1  0
  4  5  1  0
  4  6  2  0
  6  7  1  0
  7  8  1  6
  7  9  1  0
  9 10  2  0
  9 11  1  0
 11 12  1  0
 11 13  1  0
 13 14  2  0
 14 15  1  0
 15 16  1  0
 15 17  1  0
 15 18  1  0
 18 19  1  0
 18 20  1  0
 18 21  1  0
 21 22  1  0
  7 23  1  0
 23 24  1  0
 23 25  1  0
 23 26  1  0
  6 27  1  0
 27 28  1  0
 27 29  2  0
 29 30  1  0
 29  2  1  0
 21 13  1  0
M  END
>  <cnnaffinity>  (1) 
-4.215

>  <filename>  (1) 
C[C@H](C(=O)NC1=NCCN1)c1cccnc1

$$$$
