
     RDKit          3D

 29 30  0  0  0  0  0  0  0  0999 V2000
    5.4822   -3.2860   18.4444 H   0  0  0  0  0  0  0  0  0  0  0  0
    5.3105   -2.6106   19.1205 O   0  0  0  0  0  0  0  0  0  0  0  0
    5.8091   -3.2498   20.1755 C   0  0  0  0  0  0  0  0  0  0  0  0
    6.2760   -4.3549   20.0257 O   0  0  0  0  0  0  0  0  0  0  0  0
    5.6562   -2.5342   21.4820 C   0  0  2  0  0  0  0  0  0  0  0  0
    4.9895   -1.6833   21.3616 H   0  0  0  0  0  0  0  0  0  0  0  0
    7.0192   -1.9403   21.6363 C   0  0  0  0  0  0  0  0  0  0  0  0
    7.9128   -2.3861   22.4210 N   0  0  0  0  0  0  0  0  0  0  0  0
    9.0454   -1.4587   22.3996 C   0  0  0  0  0  0  0  0  0  0  0  0
    9.9824   -2.0032   22.2263 H   0  0  0  0  0  0  0  0  0  0  0  0
    9.1238   -0.9783   23.3870 H   0  0  0  0  0  0  0  0  0  0  0  0
    8.7343   -0.4328   21.2855 C   0  0  0  0  0  0  0  0  0  0  0  0
    8.7132    0.5975   21.6634 H   0  0  0  0  0  0  0  0  0  0  0  0
    9.4550   -0.4680   20.4585 H   0  0  0  0  0  0  0  0  0  0  0  0
    7.3999   -0.8543   20.8464 N   0  0  0  0  0  0  0  0  0  0  0  0
    6.6846   -0.1266   19.8430 C   0  0  0  0  0  0  0  0  0  0  0  0
    7.1782   -0.0083   18.5204 C   0  0  0  0  0  0  0  0  0  0  0  0
    8.1190   -0.4925   18.2588 H   0  0  0  0  0  0  0  0  0  0  0  0
    6.5682    0.6604   17.5289 N   0  0  0  0  0  0  0  0  0  0  0  0
    5.4169    1.2895   17.8200 C   0  0  0  0  0  0  0  0  0  0  0  0
    4.9493    1.8447   17.0076 H   0  0  0  0  0  0  0  0  0  0  0  0
    4.8430    1.2624   19.0937 C   0  0  0  0  0  0  0  0  0  0  0  0
    3.9188    1.8024   19.2747 H   0  0  0  0  0  0  0  0  0  0  0  0
    5.4842    0.5497   20.1206 C   0  0  0  0  0  0  0  0  0  0  0  0
    5.0841    0.5326   21.1339 H   0  0  0  0  0  0  0  0  0  0  0  0
    5.1674   -3.4829   22.5959 C   0  0  0  0  0  0  0  0  0  0  0  0
    5.0820   -2.9706   23.5594 H   0  0  0  0  0  0  0  0  0  0  0  0
    4.1805   -3.8744   22.3203 H   0  0  0  0  0  0  0  0  0  0  0  0
    5.8653   -4.3202   22.7078 H   0  0  0  0  0  0  0  0  0  0  0  0
  1  2  1  0
  2  3  1  0
  3  4  2  0
  3  5  1  0
  5  6  1  6
  5  7  1  0
  7  8  2  0
  8  9  1  0
  9 10  1  0
  9 11  1  0
  9 12  1  0
 12 13  1  0
 12 14  1  0
 12 15  1  0
 15 16  1  0
 16 17  2  0
 17 18  1  0
 17 19  1  0
 19 20  2  0
 20 21  1  0
 20 22  1  0
 22 23  1  0
 22 24  2  0
 24 25  1  0
  5 26  1  0
 26 27  1  0
 26 28  1  0
 26 29  1  0
 15  7  1  0
 24 16  1  0
M  END
>  <cnnaffinity>  (1) 
-4.44088

>  <filename>  (1) 
C[C@H](C(=O)O)C1=NCCN1c1cccnc1

$$$$
