
     RDKit          3D

 42 44  0  0  0  0  0  0  0  0999 V2000
    4.9131    1.7943   16.9863 H   0  0  0  0  0  0  0  0  0  0  0  0
    5.3889    1.3001   17.8297 C   0  0  0  0  0  0  0  0  0  0  0  0
    6.5462    0.6755   17.5630 N   0  0  0  0  0  0  0  0  0  0  0  0
    7.1674    0.0601   18.5744 C   0  0  0  0  0  0  0  0  0  0  0  0
    8.1206   -0.4165   18.3556 H   0  0  0  0  0  0  0  0  0  0  0  0
    6.6547    0.0151   19.8833 C   0  0  0  0  0  0  0  0  0  0  0  0
    7.3518   -0.6721   20.9396 N   0  0  0  0  0  0  0  0  0  0  0  0
    6.7240   -1.7356   21.5811 C   0  0  0  0  0  0  0  0  0  0  0  0
    5.7106   -1.9455   21.2395 H   0  0  0  0  0  0  0  0  0  0  0  0
    7.3213   -2.4529   22.5544 C   0  0  0  0  0  0  0  0  0  0  0  0
    6.6063   -3.5536   23.2959 C   0  0  0  0  0  0  0  0  0  0  0  0
    5.8620   -4.0501   22.6549 H   0  0  0  0  0  0  0  0  0  0  0  0
    7.3445   -4.3066   23.6013 H   0  0  0  0  0  0  0  0  0  0  0  0
    5.8857   -3.0334   24.5468 C   0  0  0  0  0  0  0  0  0  0  0  0
    5.2122   -2.2269   24.2522 H   0  0  0  0  0  0  0  0  0  0  0  0
    6.6411   -2.5588   25.2071 H   0  0  0  0  0  0  0  0  0  0  0  0
    5.1125   -4.0635   25.2213 N   0  0  0  0  0  0  0  0  0  0  0  0
    5.9359   -5.0565   25.9129 C   0  0  0  0  0  0  0  0  0  0  0  0
    6.2831   -5.8223   25.2072 H   0  0  0  0  0  0  0  0  0  0  0  0
    6.8459   -4.5938   26.3378 H   0  0  0  0  0  0  0  0  0  0  0  0
    5.0487   -5.6375   27.0277 C   0  0  0  0  0  0  0  0  0  0  0  0
    4.8732   -6.7069   26.8864 H   0  0  0  0  0  0  0  0  0  0  0  0
    5.5446   -5.5223   27.9970 H   0  0  0  0  0  0  0  0  0  0  0  0
    3.7343   -4.8386   26.9566 C   0  0  0  0  0  0  0  0  0  0  0  0
    3.3492   -4.5786   27.9487 H   0  0  0  0  0  0  0  0  0  0  0  0
    2.9529   -5.4116   26.4500 H   0  0  0  0  0  0  0  0  0  0  0  0
    4.0710   -3.5814   26.1418 C   0  0  1  0  0  0  0  0  0  0  0  0
    3.1931   -3.2539   25.5620 H   0  0  0  0  0  0  0  0  0  0  0  0
    4.5149   -2.4150   27.0383 C   0  0  0  0  0  0  0  0  0  0  0  0
    3.7527   -2.1983   27.7946 H   0  0  0  0  0  0  0  0  0  0  0  0
    5.4510   -2.6629   27.5547 H   0  0  0  0  0  0  0  0  0  0  0  0
    4.6851   -1.5052   26.4515 H   0  0  0  0  0  0  0  0  0  0  0  0
    8.6826   -2.0616   22.9827 C   0  0  0  0  0  0  0  0  0  0  0  0
    9.3513   -2.5589   23.8650 O   0  0  0  0  0  0  0  0  0  0  0  0
    9.2167   -1.0127   22.2881 N   0  0  0  0  0  0  0  0  0  0  0  0
   10.1437   -0.7304   22.5418 H   0  0  0  0  0  0  0  0  0  0  0  0
    8.6604   -0.2829   21.2963 C   0  0  0  0  0  0  0  0  0  0  0  0
    9.2902    0.6112   20.7804 O   0  0  0  0  0  0  0  0  0  0  0  0
    5.4376    0.6481   20.1491 C   0  0  0  0  0  0  0  0  0  0  0  0
    5.0289    0.6242   21.1620 H   0  0  0  0  0  0  0  0  0  0  0  0
    4.8023    1.3187   19.0995 C   0  0  0  0  0  0  0  0  0  0  0  0
    3.8717    1.8476   19.2545 H   0  0  0  0  0  0  0  0  0  0  0  0
  1  2  1  0
  2  3  2  0
  3  4  1  0
  4  5  1  0
  4  6  2  0
  6  7  1  0
  7  8  1  0
  8  9  1  0
  8 10  2  0
 10 11  1  0
 11 12  1  0
 11 13  1  0
 11 14  1  0
 14 15  1  0
 14 16  1  0
 14 17  1  0
 17 18  1  0
 18 19  1  0
 18 20  1  0
 18 21  1  0
 21 22  1  0
 21 23  1  0
 21 24  1  0
 24 25  1  0
 24 26  1  0
 24 27  1  0
 27 28  1  6
 27 29  1  0
 29 30  1  0
 29 31  1  0
 29 32  1  0
 10 33  1  0
 33 34  2  0
 33 35  1  0
 35 36  1  0
 35 37  1  0
 37 38  2  0
  6 39  1  0
 39 40  1  0
 39 41  2  0
 41 42  1  0
 41  2  1  0
 37  7  1  0
 27 17  1  0
M  END
>  <cnnaffinity>  (1) 
-5.3134

>  <filename>  (1) 
C[C@@H]1CCCN1CCc1cn(-c2cccnc2)c(=O)[nH]c1=O

$$$$
