
     RDKit          3D

 37 40  0  0  0  0  0  0  0  0999 V2000
    4.9314    1.7839   16.9934 H   0  0  0  0  0  0  0  0  0  0  0  0
    5.4056    1.2922   17.8368 C   0  0  0  0  0  0  0  0  0  0  0  0
    6.5662    0.6695   17.5793 N   0  0  0  0  0  0  0  0  0  0  0  0
    7.1578    0.0388   18.5960 C   0  0  0  0  0  0  0  0  0  0  0  0
    8.1090   -0.4375   18.3721 H   0  0  0  0  0  0  0  0  0  0  0  0
    6.6428    0.0077   19.9009 C   0  0  0  0  0  0  0  0  0  0  0  0
    7.3946   -0.6784   20.9445 C   0  0  0  0  0  0  0  0  0  0  0  0
    7.8850   -1.9437   20.7552 N   0  0  0  0  0  0  0  0  0  0  0  0
    8.4218   -2.2457   21.9073 C   0  0  0  0  0  0  0  0  0  0  0  0
    9.2126   -3.6277   22.6138 S   0  0  0  0  0  0  0  0  0  0  0  0
    9.5275   -2.7269   24.0760 C   0  0  0  0  0  0  0  0  0  0  0  0
   10.0834   -3.2235   24.8583 H   0  0  0  0  0  0  0  0  0  0  0  0
    8.9959   -1.4914   24.0397 C   0  0  0  0  0  0  0  0  0  0  0  0
    8.9936   -0.7516   24.8304 H   0  0  0  0  0  0  0  0  0  0  0  0
    8.3771   -1.2226   22.8224 N   0  0  0  0  0  0  0  0  0  0  0  0
    7.7128   -0.1777   22.2009 C   0  0  0  0  0  0  0  0  0  0  0  0
    7.4588    1.1860   22.7648 C   0  0  1  0  0  0  0  0  0  0  0  0
    7.3148    1.8317   21.8850 H   0  0  0  0  0  0  0  0  0  0  0  0
    6.1603    1.2773   23.5873 C   0  0  0  0  0  0  0  0  0  0  0  0
    5.2971    2.3709   23.4101 C   0  0  0  0  0  0  0  0  0  0  0  0
    5.5484    3.1309   22.6702 H   0  0  0  0  0  0  0  0  0  0  0  0
    4.1270    2.4916   24.1684 C   0  0  0  0  0  0  0  0  0  0  0  0
    3.4745    3.3473   24.0103 H   0  0  0  0  0  0  0  0  0  0  0  0
    3.8095    1.5170   25.1230 C   0  0  0  0  0  0  0  0  0  0  0  0
    2.9002    1.6049   25.7139 H   0  0  0  0  0  0  0  0  0  0  0  0
    4.6724    0.4320   25.3205 C   0  0  0  0  0  0  0  0  0  0  0  0
    4.4390   -0.3339   26.0561 H   0  0  0  0  0  0  0  0  0  0  0  0
    5.8408    0.3183   24.5592 C   0  0  0  0  0  0  0  0  0  0  0  0
    6.5030   -0.5348   24.7017 H   0  0  0  0  0  0  0  0  0  0  0  0
    8.6511    1.7525   23.5564 C   0  0  0  0  0  0  0  0  0  0  0  0
    8.6816    1.3575   24.5763 H   0  0  0  0  0  0  0  0  0  0  0  0
    8.5592    2.8403   23.6268 H   0  0  0  0  0  0  0  0  0  0  0  0
    9.5969    1.5061   23.0669 H   0  0  0  0  0  0  0  0  0  0  0  0
    5.4248    0.6585   20.1544 C   0  0  0  0  0  0  0  0  0  0  0  0
    4.9915    0.6427   21.1589 H   0  0  0  0  0  0  0  0  0  0  0  0
    4.7982    1.3122   19.0977 C   0  0  0  0  0  0  0  0  0  0  0  0
    3.8682    1.8449   19.2507 H   0  0  0  0  0  0  0  0  0  0  0  0
  1  2  1  0
  2  3  2  0
  3  4  1  0
  4  5  1  0
  4  6  2  0
  6  7  1  0
  7  8  1  0
  8  9  2  0
  9 10  1  0
 10 11  1  0
 11 12  1  0
 11 13  2  0
 13 14  1  0
 13 15  1  0
 15 16  1  0
 16 17  1  0
 17 18  1  6
 17 19  1  0
 19 20  2  0
 20 21  1  0
 20 22  1  0
 22 23  1  0
 22 24  2  0
 24 25  1  0
 24 26  1  0
 26 27  1  0
 26 28  2  0
 28 29  1  0
 17 30  1  0
 30 31  1  0
 30 32  1  0
 30 33  1  0
  6 34  1  0
 34 35  1  0
 34 36  2  0
 36 37  1  0
 36  2  1  0
 16  7  2  0
 28 19  1  0
 15  9  1  0
M  END
>  <cnnaffinity>  (1) 
-5.57639

>  <filename>  (1) 
C[C@H](c1ccccc1)c1c(-c2cccnc2)nc2sccn12

$$$$
