
     RDKit          3D

 33 34  0  0  0  0  0  0  0  0999 V2000
    9.0736    1.1993   20.2084 H   0  0  0  0  0  0  0  0  0  0  0  0
    9.4861    0.4875   20.7098 O   0  0  0  0  0  0  0  0  0  0  0  0
    8.5103    0.1024   21.6877 C   0  0  2  0  0  0  0  0  0  0  0  0
    9.2330   -0.8106   22.6686 C   0  0  0  0  0  0  0  0  0  0  0  0
    8.5265   -1.1809   23.4151 H   0  0  0  0  0  0  0  0  0  0  0  0
   10.0401   -0.2924   23.1930 H   0  0  0  0  0  0  0  0  0  0  0  0
    9.6595   -1.6634   22.1324 H   0  0  0  0  0  0  0  0  0  0  0  0
    7.3903   -0.7275   20.9872 C   0  0  0  0  0  0  0  0  0  0  0  0
    6.6869   -1.0567   21.7652 H   0  0  0  0  0  0  0  0  0  0  0  0
    7.8671   -1.6258   20.5708 H   0  0  0  0  0  0  0  0  0  0  0  0
    6.6375   -0.0121   19.8918 C   0  0  0  0  0  0  0  0  0  0  0  0
    7.1567    0.0618   18.5840 C   0  0  0  0  0  0  0  0  0  0  0  0
    8.1125   -0.4127   18.3651 H   0  0  0  0  0  0  0  0  0  0  0  0
    6.5591    0.6849   17.5610 N   0  0  0  0  0  0  0  0  0  0  0  0
    5.3971    1.3003   17.8286 C   0  0  0  0  0  0  0  0  0  0  0  0
    4.9164    1.7900   16.9865 H   0  0  0  0  0  0  0  0  0  0  0  0
    4.7991    1.3164   19.0948 C   0  0  0  0  0  0  0  0  0  0  0  0
    3.8678    1.8495   19.2490 H   0  0  0  0  0  0  0  0  0  0  0  0
    5.4286    0.6483   20.1506 C   0  0  0  0  0  0  0  0  0  0  0  0
    5.0094    0.6364   21.1637 H   0  0  0  0  0  0  0  0  0  0  0  0
    7.9092    1.3707   22.3990 C   0  0  1  0  0  0  0  0  0  0  0  0
    7.2908    1.8869   21.6481 H   0  0  0  0  0  0  0  0  0  0  0  0
    7.0572    1.0362   23.5596 N   0  0  0  0  0  0  0  0  0  0  0  0
    6.1041    1.3320   23.3933 H   0  0  0  0  0  0  0  0  0  0  0  0
    7.6087    1.6611   24.7628 C   0  0  0  0  0  0  0  0  0  0  0  0
    6.8027    1.9598   25.4443 H   0  0  0  0  0  0  0  0  0  0  0  0
    8.2225    0.9270   25.3057 H   0  0  0  0  0  0  0  0  0  0  0  0
    8.4570    2.8372   24.2751 C   0  0  0  0  0  0  0  0  0  0  0  0
    9.2673    3.0818   24.9674 H   0  0  0  0  0  0  0  0  0  0  0  0
    7.8343    3.7330   24.1673 H   0  0  0  0  0  0  0  0  0  0  0  0
    8.9706    2.3739   22.9070 C   0  0  0  0  0  0  0  0  0  0  0  0
    9.9518    1.8960   22.9860 H   0  0  0  0  0  0  0  0  0  0  0  0
    9.1054    3.2026   22.2055 H   0  0  0  0  0  0  0  0  0  0  0  0
  1  2  1  0
  3  2  1  6
  3  4  1  0
  4  5  1  0
  4  6  1  0
  4  7  1  0
  3  8  1  0
  8  9  1  0
  8 10  1  0
  8 11  1  0
 11 12  2  0
 12 13  1  0
 12 14  1  0
 14 15  2  0
 15 16  1  0
 15 17  1  0
 17 18  1  0
 17 19  2  0
 19 20  1  0
  3 21  1  0
 21 22  1  6
 21 23  1  0
 23 24  1  0
 23 25  1  0
 25 26  1  0
 25 27  1  0
 25 28  1  0
 28 29  1  0
 28 30  1  0
 28 31  1  0
 31 32  1  0
 31 33  1  0
 19 11  1  0
 31 21  1  0
M  END
>  <cnnaffinity>  (1) 
-4.08318

>  <filename>  (1) 
C[C@@](O)(Cc1cccnc1)[C@@H]1CCCN1

$$$$
