
     RDKit          3D

 31 33  0  0  0  0  0  0  0  0999 V2000
    4.6308   -6.6441   21.4819 H   0  0  0  0  0  0  0  0  0  0  0  0
    4.4988   -5.7171   21.7609 O   0  0  0  0  0  0  0  0  0  0  0  0
    5.3858   -5.7039   22.7731 C   0  0  0  0  0  0  0  0  0  0  0  0
    6.0447   -6.6917   22.9795 O   0  0  0  0  0  0  0  0  0  0  0  0
    5.3733   -4.4111   23.5655 C   0  0  2  0  0  0  0  0  0  0  0  0
    4.3587   -4.0002   23.4653 H   0  0  0  0  0  0  0  0  0  0  0  0
    6.2947   -3.4759   22.8287 C   0  0  0  0  0  0  0  0  0  0  0  0
    7.6005   -3.3901   23.0878 N   0  0  0  0  0  0  0  0  0  0  0  0
    8.0187   -2.4462   22.2162 N   0  0  0  0  0  0  0  0  0  0  0  0
    9.2096   -1.7666   22.0214 C   0  0  0  0  0  0  0  0  0  0  0  0
   10.0629   -1.9640   22.6451 H   0  0  0  0  0  0  0  0  0  0  0  0
    8.9622   -0.8664   21.0366 C   0  0  0  0  0  0  0  0  0  0  0  0
    9.5905   -0.0938   20.6194 H   0  0  0  0  0  0  0  0  0  0  0  0
    7.6302   -0.9885   20.6269 N   0  0  0  0  0  0  0  0  0  0  0  0
    6.9484   -0.1874   19.6824 C   0  0  0  0  0  0  0  0  0  0  0  0
    7.4302   -0.0478   18.3698 C   0  0  0  0  0  0  0  0  0  0  0  0
    8.3103   -0.5966   18.0438 H   0  0  0  0  0  0  0  0  0  0  0  0
    6.8373    0.7074   17.4373 N   0  0  0  0  0  0  0  0  0  0  0  0
    5.7261    1.3761   17.7843 C   0  0  0  0  0  0  0  0  0  0  0  0
    5.2673    1.9947   17.0142 H   0  0  0  0  0  0  0  0  0  0  0  0
    5.1640    1.2982   19.0626 C   0  0  0  0  0  0  0  0  0  0  0  0
    4.2865    1.8899   19.2990 H   0  0  0  0  0  0  0  0  0  0  0  0
    5.7613    0.4782   20.0229 C   0  0  0  0  0  0  0  0  0  0  0  0
    5.3350    0.3482   21.0187 H   0  0  0  0  0  0  0  0  0  0  0  0
    7.0498   -1.9766   21.4022 C   0  0  0  0  0  0  0  0  0  0  0  0
    5.8885   -2.6438   21.7707 C   0  0  0  0  0  0  0  0  0  0  0  0
    4.8764   -2.4960   21.4624 H   0  0  0  0  0  0  0  0  0  0  0  0
    5.6675   -4.6252   25.0631 C   0  0  0  0  0  0  0  0  0  0  0  0
    5.5911   -3.6753   25.6000 H   0  0  0  0  0  0  0  0  0  0  0  0
    4.9411   -5.3231   25.4919 H   0  0  0  0  0  0  0  0  0  0  0  0
    6.6738   -5.0298   25.2158 H   0  0  0  0  0  0  0  0  0  0  0  0
  1  2  1  0
  2  3  1  0
  3  4  2  0
  3  5  1  0
  5  6  1  1
  5  7  1  0
  7  8  2  0
  8  9  1  0
  9 10  1  0
 10 11  1  0
 10 12  2  0
 12 13  1  0
 12 14  1  0
 14 15  1  0
 15 16  2  0
 16 17  1  0
 16 18  1  0
 18 19  2  0
 19 20  1  0
 19 21  1  0
 21 22  1  0
 21 23  2  0
 23 24  1  0
 14 25  1  0
 25 26  2  0
 26 27  1  0
  5 28  1  0
 28 29  1  0
 28 30  1  0
 28 31  1  0
 26  7  1  0
 25  9  1  0
 23 15  1  0
M  END
>  <cnnaffinity>  (1) 
-4.64904

>  <filename>  (1) 
C[C@H](C(=O)O)c1cc2n(-c3cccnc3)ccn2n1

$$$$
