
     RDKit          3D

 35 36  0  0  0  0  0  0  0  0999 V2000
    5.2567    1.7876   16.9527 H   0  0  0  0  0  0  0  0  0  0  0  0
    5.6633    1.2513   17.8080 C   0  0  0  0  0  0  0  0  0  0  0  0
    6.7956    0.5624   17.5924 N   0  0  0  0  0  0  0  0  0  0  0  0
    7.3001   -0.1221   18.6211 C   0  0  0  0  0  0  0  0  0  0  0  0
    8.2052   -0.6897   18.4020 H   0  0  0  0  0  0  0  0  0  0  0  0
    6.7200   -0.1677   19.8921 C   0  0  0  0  0  0  0  0  0  0  0  0
    7.3160   -1.0339   20.9369 C   0  0  0  0  0  0  0  0  0  0  0  0
    6.6425   -1.6175   21.7738 O   0  0  0  0  0  0  0  0  0  0  0  0
    8.6727   -1.1542   20.8891 N   0  0  0  0  0  0  0  0  0  0  0  0
    9.1348   -0.3798   20.4530 H   0  0  0  0  0  0  0  0  0  0  0  0
    9.3572   -1.7986   21.9919 C   0  0  1  0  0  0  0  0  0  0  0  0
    8.9689   -1.4193   22.9637 H   0  0  0  0  0  0  0  0  0  0  0  0
    9.0181   -3.1858   21.7991 N   0  0  0  0  0  0  0  0  0  0  0  0
    8.1936   -3.1133   21.2140 H   0  0  0  0  0  0  0  0  0  0  0  0
    8.7135   -3.9514   23.0107 C   0  0  0  0  0  0  0  0  0  0  0  0
    8.3167   -3.2883   23.8058 H   0  0  0  0  0  0  0  0  0  0  0  0
    9.6371   -4.4123   23.4008 H   0  0  0  0  0  0  0  0  0  0  0  0
    7.6705   -5.0412   22.7691 C   0  0  0  0  0  0  0  0  0  0  0  0
    8.0389   -6.3506   22.4249 C   0  0  0  0  0  0  0  0  0  0  0  0
    9.0740   -6.6399   22.2850 H   0  0  0  0  0  0  0  0  0  0  0  0
    7.0562   -7.3322   22.2745 C   0  0  0  0  0  0  0  0  0  0  0  0
    7.3444   -8.3561   22.0435 H   0  0  0  0  0  0  0  0  0  0  0  0
    5.7486   -7.0957   22.4232 N   0  0  0  0  0  0  0  0  0  0  0  0
    5.3838   -5.8471   22.7373 C   0  0  0  0  0  0  0  0  0  0  0  0
    4.3159   -5.6690   22.8544 H   0  0  0  0  0  0  0  0  0  0  0  0
    6.2917   -4.7942   22.9178 C   0  0  0  0  0  0  0  0  0  0  0  0
    5.9321   -3.8066   23.1929 H   0  0  0  0  0  0  0  0  0  0  0  0
   10.8491   -1.5256   21.9276 C   0  0  0  0  0  0  0  0  0  0  0  0
   11.0486   -0.4521   22.0162 H   0  0  0  0  0  0  0  0  0  0  0  0
   11.2593   -1.8851   20.9828 H   0  0  0  0  0  0  0  0  0  0  0  0
   11.3860   -2.0293   22.7360 H   0  0  0  0  0  0  0  0  0  0  0  0
    5.5311    0.5525   20.1068 C   0  0  0  0  0  0  0  0  0  0  0  0
    5.0401    0.5389   21.0816 H   0  0  0  0  0  0  0  0  0  0  0  0
    5.0051    1.2785   19.0431 C   0  0  0  0  0  0  0  0  0  0  0  0
    4.0979    1.8652   19.1534 H   0  0  0  0  0  0  0  0  0  0  0  0
  1  2  1  0
  2  3  2  0
  3  4  1  0
  4  5  1  0
  4  6  2  0
  6  7  1  0
  7  8  2  0
  7  9  1  0
  9 10  1  0
  9 11  1  0
 11 12  1  1
 11 13  1  0
 13 14  1  0
 13 15  1  0
 15 16  1  0
 15 17  1  0
 15 18  1  0
 18 19  2  0
 19 20  1  0
 19 21  1  0
 21 22  1  0
 21 23  2  0
 23 24  1  0
 24 25  1  0
 24 26  2  0
 26 27  1  0
 11 28  1  0
 28 29  1  0
 28 30  1  0
 28 31  1  0
  6 32  1  0
 32 33  1  0
 32 34  2  0
 34 35  1  0
 34  2  1  0
 26 18  1  0
M  END
>  <cnnaffinity>  (1) 
-4.87719

>  <filename>  (1) 
C[C@H](NCc1ccncc1)NC(=O)c1cccnc1

$$$$
