
     RDKit          3D

 33 35  0  0  0  0  0  0  0  0999 V2000
    4.9600    1.8110   17.0117 H   0  0  0  0  0  0  0  0  0  0  0  0
    5.4241    1.2896   17.8468 C   0  0  0  0  0  0  0  0  0  0  0  0
    6.5788    0.6597   17.5838 N   0  0  0  0  0  0  0  0  0  0  0  0
    7.1840    0.0464   18.6048 C   0  0  0  0  0  0  0  0  0  0  0  0
    8.1220   -0.4644   18.3883 H   0  0  0  0  0  0  0  0  0  0  0  0
    6.6926    0.0240   19.9320 C   0  0  0  0  0  0  0  0  0  0  0  0
    7.4551   -0.6057   20.9987 C   0  0  0  0  0  0  0  0  0  0  0  0
    7.3571   -0.6593   22.3765 C   0  0  0  0  0  0  0  0  0  0  0  0
    6.6834    0.2520   23.3947 C   0  0  1  0  0  0  0  0  0  0  0  0
    5.6019    0.2285   23.2215 H   0  0  0  0  0  0  0  0  0  0  0  0
    6.9458   -0.2834   24.8029 C   0  0  0  0  0  0  0  0  0  0  0  0
    5.9895   -1.0513   25.4879 C   0  0  0  0  0  0  0  0  0  0  0  0
    4.9820   -1.1695   25.0807 H   0  0  0  0  0  0  0  0  0  0  0  0
    6.3334   -1.7152   26.6757 C   0  0  0  0  0  0  0  0  0  0  0  0
    5.5829   -2.3077   27.2001 H   0  0  0  0  0  0  0  0  0  0  0  0
    7.6421   -1.6209   27.1674 C   0  0  0  0  0  0  0  0  0  0  0  0
    7.9802   -2.2405   27.9880 H   0  0  0  0  0  0  0  0  0  0  0  0
    8.5769   -0.8012   26.5266 C   0  0  0  0  0  0  0  0  0  0  0  0
    9.5806   -0.6808   26.9319 H   0  0  0  0  0  0  0  0  0  0  0  0
    8.2296   -0.1397   25.3494 C   0  0  0  0  0  0  0  0  0  0  0  0
    8.9959    0.4099   24.7999 H   0  0  0  0  0  0  0  0  0  0  0  0
    7.0746    1.7391   23.2533 C   0  0  0  0  0  0  0  0  0  0  0  0
    6.5838    2.3012   24.0553 H   0  0  0  0  0  0  0  0  0  0  0  0
    8.1576    1.8697   23.3405 H   0  0  0  0  0  0  0  0  0  0  0  0
    6.7687    2.1494   22.2831 H   0  0  0  0  0  0  0  0  0  0  0  0
    8.4069   -1.7083   22.4917 C   0  0  0  0  0  0  0  0  0  0  0  0
    8.8503   -2.4238   23.3540 O   0  0  0  0  0  0  0  0  0  0  0  0
    8.6381   -1.5109   20.9838 C   0  0  0  0  0  0  0  0  0  0  0  0
    9.4563   -1.8750   20.1815 O   0  0  0  0  0  0  0  0  0  0  0  0
    5.4611    0.6562   20.1701 C   0  0  0  0  0  0  0  0  0  0  0  0
    5.0105    0.6603   21.1635 H   0  0  0  0  0  0  0  0  0  0  0  0
    4.8254    1.2972   19.1100 C   0  0  0  0  0  0  0  0  0  0  0  0
    3.8925    1.8234   19.2553 H   0  0  0  0  0  0  0  0  0  0  0  0
  1  2  1  0
  2  3  2  0
  3  4  1  0
  4  5  1  0
  4  6  2  0
  6  7  1  0
  7  8  2  0
  8  9  1  0
  9 10  1  6
  9 11  1  0
 11 12  2  0
 12 13  1  0
 12 14  1  0
 14 15  1  0
 14 16  2  0
 16 17  1  0
 16 18  1  0
 18 19  1  0
 18 20  2  0
 20 21  1  0
  9 22  1  0
 22 23  1  0
 22 24  1  0
 22 25  1  0
  8 26  1  0
 26 27  2  0
 26 28  1  0
 28 29  2  0
  6 30  1  0
 30 31  1  0
 30 32  2  0
 32 33  1  0
 32  2  1  0
 28  7  1  0
 20 11  1  0
M  END
>  <cnnaffinity>  (1) 
-4.83548

>  <filename>  (1) 
C[C@H](c1ccccc1)c1c(-c2cccnc2)c(=O)c1=O

$$$$
