
     RDKit          3D

 39 41  0  0  0  0  0  0  0  0999 V2000
    4.9195    1.7971   16.9859 H   0  0  0  0  0  0  0  0  0  0  0  0
    5.3992    1.3015   17.8282 C   0  0  0  0  0  0  0  0  0  0  0  0
    6.5603    0.6834   17.5641 N   0  0  0  0  0  0  0  0  0  0  0  0
    7.1817    0.0729   18.5830 C   0  0  0  0  0  0  0  0  0  0  0  0
    8.1168   -0.4327   18.3479 H   0  0  0  0  0  0  0  0  0  0  0  0
    6.6743    0.0202   19.9002 C   0  0  0  0  0  0  0  0  0  0  0  0
    7.3586   -0.6742   20.9553 N   0  0  0  0  0  0  0  0  0  0  0  0
    8.6655   -0.4512   21.4277 C   0  0  0  0  0  0  0  0  0  0  0  0
    9.5377    0.6543   20.9447 C   0  0  0  0  0  0  0  0  0  0  0  0
   10.5217    0.5447   21.4122 H   0  0  0  0  0  0  0  0  0  0  0  0
    9.6688    0.5664   19.8657 H   0  0  0  0  0  0  0  0  0  0  0  0
    8.9943    2.0582   21.2283 C   0  0  0  0  0  0  0  0  0  0  0  0
    9.7368    2.7972   20.8717 H   0  0  0  0  0  0  0  0  0  0  0  0
    8.0930    2.1907   20.6216 H   0  0  0  0  0  0  0  0  0  0  0  0
    8.6572    2.2432   22.6386 N   0  0  0  0  0  0  0  0  0  0  0  0
    7.6933    3.3212   22.8869 C   0  0  0  0  0  0  0  0  0  0  0  0
    7.0061    3.4244   22.0367 H   0  0  0  0  0  0  0  0  0  0  0  0
    7.0632    3.0560   23.7494 H   0  0  0  0  0  0  0  0  0  0  0  0
    8.5244    4.5835   23.1597 C   0  0  0  0  0  0  0  0  0  0  0  0
    8.7367    5.1003   22.2156 H   0  0  0  0  0  0  0  0  0  0  0  0
    7.9933    5.2964   23.7985 H   0  0  0  0  0  0  0  0  0  0  0  0
    9.8220    4.0339   23.7958 C   0  0  0  0  0  0  0  0  0  0  0  0
   10.7203    4.4947   23.3712 H   0  0  0  0  0  0  0  0  0  0  0  0
    9.8583    4.2194   24.8748 H   0  0  0  0  0  0  0  0  0  0  0  0
    9.8139    2.5015   23.5200 C   0  0  1  0  0  0  0  0  0  0  0  0
   10.7404    2.2003   23.0086 H   0  0  0  0  0  0  0  0  0  0  0  0
    9.7208    1.6736   24.8011 C   0  0  0  0  0  0  0  0  0  0  0  0
    8.8071    1.9088   25.3567 H   0  0  0  0  0  0  0  0  0  0  0  0
   10.5817    1.8770   25.4481 H   0  0  0  0  0  0  0  0  0  0  0  0
    9.7077    0.6047   24.5710 H   0  0  0  0  0  0  0  0  0  0  0  0
    8.8562   -1.3148   22.4279 C   0  0  0  0  0  0  0  0  0  0  0  0
    9.6999   -1.4875   23.0818 H   0  0  0  0  0  0  0  0  0  0  0  0
    7.7251   -2.0719   22.6262 O   0  0  0  0  0  0  0  0  0  0  0  0
    6.7790   -1.6993   21.7125 C   0  0  0  0  0  0  0  0  0  0  0  0
    5.7000   -2.2228   21.6002 O   0  0  0  0  0  0  0  0  0  0  0  0
    5.4537    0.6539   20.1562 C   0  0  0  0  0  0  0  0  0  0  0  0
    5.0360    0.5928   21.1638 H   0  0  0  0  0  0  0  0  0  0  0  0
    4.8152    1.3153   19.1004 C   0  0  0  0  0  0  0  0  0  0  0  0
    3.8784    1.8371   19.2500 H   0  0  0  0  0  0  0  0  0  0  0  0
  1  2  1  0
  2  3  2  0
  3  4  1  0
  4  5  1  0
  4  6  2  0
  6  7  1  0
  7  8  1  0
  8  9  1  0
  9 10  1  0
  9 11  1  0
  9 12  1  0
 12 13  1  0
 12 14  1  0
 12 15  1  0
 15 16  1  0
 16 17  1  0
 16 18  1  0
 16 19  1  0
 19 20  1  0
 19 21  1  0
 19 22  1  0
 22 23  1  0
 22 24  1  0
 22 25  1  0
 25 26  1  6
 25 27  1  0
 27 28  1  0
 27 29  1  0
 27 30  1  0
  8 31  2  0
 31 32  1  0
 31 33  1  0
 33 34  1  0
 34 35  2  0
  6 36  1  0
 36 37  1  0
 36 38  2  0
 38 39  1  0
 38  2  1  0
 34  7  1  0
 25 15  1  0
M  END
>  <cnnaffinity>  (1) 
-5.04398

>  <filename>  (1) 
C[C@@H]1CCCN1CCc1coc(=O)n1-c1cccnc1

$$$$
