
     RDKit          3D

 38 41  0  0  0  0  0  0  0  0999 V2000
    5.2449    1.8917   17.0871 H   0  0  0  0  0  0  0  0  0  0  0  0
    5.7005    1.2892   17.8720 C   0  0  0  0  0  0  0  0  0  0  0  0
    6.8171    0.6184   17.5373 N   0  0  0  0  0  0  0  0  0  0  0  0
    7.3982   -0.1338   18.4809 C   0  0  0  0  0  0  0  0  0  0  0  0
    8.3166   -0.6558   18.2071 H   0  0  0  0  0  0  0  0  0  0  0  0
    6.8760   -0.2817   19.7783 C   0  0  0  0  0  0  0  0  0  0  0  0
    7.5390   -1.0687   20.7445 N   0  0  0  0  0  0  0  0  0  0  0  0
    8.8691   -0.9260   21.1437 C   0  0  0  0  0  0  0  0  0  0  0  0
    9.5020   -0.2086   20.6419 H   0  0  0  0  0  0  0  0  0  0  0  0
    9.0932   -1.7183   22.2237 C   0  0  0  0  0  0  0  0  0  0  0  0
    9.9396   -1.9221   22.8520 H   0  0  0  0  0  0  0  0  0  0  0  0
    7.8847   -2.3322   22.5017 N   0  0  0  0  0  0  0  0  0  0  0  0
    7.4462   -3.1915   23.4447 N   0  0  0  0  0  0  0  0  0  0  0  0
    6.1434   -3.3213   23.1597 C   0  0  0  0  0  0  0  0  0  0  0  0
    5.3246   -4.2746   24.0064 C   0  0  1  0  0  0  0  0  0  0  0  0
    6.0793   -4.9632   24.4054 H   0  0  0  0  0  0  0  0  0  0  0  0
    4.6026   -3.6714   25.2221 C   0  0  0  0  0  0  0  0  0  0  0  0
    3.5213   -2.7793   25.1125 C   0  0  0  0  0  0  0  0  0  0  0  0
    3.1943   -2.4121   24.1457 H   0  0  0  0  0  0  0  0  0  0  0  0
    2.8146   -2.3690   26.2536 C   0  0  0  0  0  0  0  0  0  0  0  0
    1.9733   -1.6897   26.1513 H   0  0  0  0  0  0  0  0  0  0  0  0
    3.1606   -2.8591   27.5173 C   0  0  0  0  0  0  0  0  0  0  0  0
    2.5984   -2.5623   28.4019 H   0  0  0  0  0  0  0  0  0  0  0  0
    4.2199   -3.7619   27.6341 C   0  0  0  0  0  0  0  0  0  0  0  0
    4.5054   -4.1575   28.6033 H   0  0  0  0  0  0  0  0  0  0  0  0
    4.9313   -4.1568   26.4964 C   0  0  0  0  0  0  0  0  0  0  0  0
    5.7387   -4.8765   26.6028 H   0  0  0  0  0  0  0  0  0  0  0  0
    4.3118   -5.0970   23.1853 C   0  0  0  0  0  0  0  0  0  0  0  0
    3.6328   -4.4408   22.6339 H   0  0  0  0  0  0  0  0  0  0  0  0
    4.8034   -5.7614   22.4702 H   0  0  0  0  0  0  0  0  0  0  0  0
    3.6971   -5.7065   23.8540 H   0  0  0  0  0  0  0  0  0  0  0  0
    5.7637   -2.5814   22.0154 C   0  0  0  0  0  0  0  0  0  0  0  0
    4.7660   -2.4655   21.6426 H   0  0  0  0  0  0  0  0  0  0  0  0
    6.9379   -1.9517   21.6254 C   0  0  0  0  0  0  0  0  0  0  0  0
    5.7028    0.4086   20.1159 C   0  0  0  0  0  0  0  0  0  0  0  0
    5.2972    0.3109   21.1263 H   0  0  0  0  0  0  0  0  0  0  0  0
    5.1195    1.2261   19.1460 C   0  0  0  0  0  0  0  0  0  0  0  0
    4.2434    1.8282   19.3696 H   0  0  0  0  0  0  0  0  0  0  0  0
  1  2  1  0
  2  3  2  0
  3  4  1  0
  4  5  1  0
  4  6  2  0
  6  7  1  0
  7  8  1  0
  8  9  1  0
  8 10  2  0
 10 11  1  0
 10 12  1  0
 12 13  1  0
 13 14  2  0
 14 15  1  0
 15 16  1  1
 15 17  1  0
 17 18  2  0
 18 19  1  0
 18 20  1  0
 20 21  1  0
 20 22  2  0
 22 23  1  0
 22 24  1  0
 24 25  1  0
 24 26  2  0
 26 27  1  0
 15 28  1  0
 28 29  1  0
 28 30  1  0
 28 31  1  0
 14 32  1  0
 32 33  1  0
 32 34  2  0
  6 35  1  0
 35 36  1  0
 35 37  2  0
 37 38  1  0
 37  2  1  0
 34  7  1  0
 34 12  1  0
 26 17  1  0
M  END
>  <cnnaffinity>  (1) 
-5.4852

>  <filename>  (1) 
C[C@H](c1ccccc1)c1cc2n(-c3cccnc3)ccn2n1

$$$$
