
     RDKit          3D

 33 34  0  0  0  0  0  0  0  0999 V2000
    4.9609    1.7780   17.0105 H   0  0  0  0  0  0  0  0  0  0  0  0
    5.4229    1.2704   17.8516 C   0  0  0  0  0  0  0  0  0  0  0  0
    6.5823    0.6378   17.5982 N   0  0  0  0  0  0  0  0  0  0  0  0
    7.2118    0.0487   18.6268 C   0  0  0  0  0  0  0  0  0  0  0  0
    8.1573   -0.4457   18.4096 H   0  0  0  0  0  0  0  0  0  0  0  0
    6.6908    0.0465   19.9333 C   0  0  0  0  0  0  0  0  0  0  0  0
    7.4369   -0.5036   20.9826 O   0  0  0  0  0  0  0  0  0  0  0  0
    6.8415   -1.3814   21.8622 C   0  0  0  0  0  0  0  0  0  0  0  0
    5.8167   -1.9595   21.6121 O   0  0  0  0  0  0  0  0  0  0  0  0
    7.7123   -1.5872   23.1172 C   0  0  1  0  0  0  0  0  0  0  0  0
    8.6939   -1.8208   22.7050 H   0  0  0  0  0  0  0  0  0  0  0  0
    7.8368   -0.3182   23.9747 C   0  0  0  0  0  0  0  0  0  0  0  0
    6.6717    0.2850   24.4621 C   0  0  0  0  0  0  0  0  0  0  0  0
    5.7158   -0.1596   24.1992 H   0  0  0  0  0  0  0  0  0  0  0  0
    6.7124    1.4200   25.2821 C   0  0  0  0  0  0  0  0  0  0  0  0
    5.7820    1.8664   25.6323 H   0  0  0  0  0  0  0  0  0  0  0  0
    7.9448    1.9652   25.6530 C   0  0  0  0  0  0  0  0  0  0  0  0
    7.9865    2.8553   26.2796 H   0  0  0  0  0  0  0  0  0  0  0  0
    9.1237    1.3583   25.2107 C   0  0  0  0  0  0  0  0  0  0  0  0
   10.0859    1.7726   25.5077 H   0  0  0  0  0  0  0  0  0  0  0  0
    9.0770    0.2181   24.3928 C   0  0  0  0  0  0  0  0  0  0  0  0
   10.3698   -0.4341   23.9555 C   0  0  0  0  0  0  0  0  0  0  0  0
   11.4661    0.1583   24.4577 F   0  0  0  0  0  0  0  0  0  0  0  0
   10.4332   -1.7295   24.3363 F   0  0  0  0  0  0  0  0  0  0  0  0
   10.5001   -0.4178   22.6091 F   0  0  0  0  0  0  0  0  0  0  0  0
    7.2022   -2.7736   23.9742 C   0  0  0  0  0  0  0  0  0  0  0  0
    7.8903   -2.9739   24.8043 H   0  0  0  0  0  0  0  0  0  0  0  0
    6.2148   -2.5599   24.4054 H   0  0  0  0  0  0  0  0  0  0  0  0
    7.1069   -3.6878   23.3775 H   0  0  0  0  0  0  0  0  0  0  0  0
    5.4583    0.6526   20.1761 C   0  0  0  0  0  0  0  0  0  0  0  0
    5.0188    0.6151   21.1690 H   0  0  0  0  0  0  0  0  0  0  0  0
    4.8236    1.2951   19.1129 C   0  0  0  0  0  0  0  0  0  0  0  0
    3.8928    1.8284   19.2597 H   0  0  0  0  0  0  0  0  0  0  0  0
  1  2  1  0
  2  3  2  0
  3  4  1  0
  4  5  1  0
  4  6  2  0
  6  7  1  0
  7  8  1  0
  8  9  2  0
  8 10  1  0
 10 11  1  6
 10 12  1  0
 12 13  2  0
 13 14  1  0
 13 15  1  0
 15 16  1  0
 15 17  2  0
 17 18  1  0
 17 19  1  0
 19 20  1  0
 19 21  2  0
 21 22  1  0
 22 23  1  0
 22 24  1  0
 22 25  1  0
 10 26  1  0
 26 27  1  0
 26 28  1  0
 26 29  1  0
  6 30  1  0
 30 31  1  0
 30 32  2  0
 32 33  1  0
 32  2  1  0
 21 12  1  0
M  END
>  <cnnaffinity>  (1) 
-5.03339

>  <filename>  (1) 
C[C@@H](C(=O)Oc1cccnc1)c1ccccc1C(F)(F)F

$$$$
