
     RDKit          3D

 38 39  0  0  0  0  0  0  0  0999 V2000
    4.9735    1.8020   16.8925 H   0  0  0  0  0  0  0  0  0  0  0  0
    5.4434    1.3096   17.7419 C   0  0  0  0  0  0  0  0  0  0  0  0
    6.6077    0.6972   17.4981 N   0  0  0  0  0  0  0  0  0  0  0  0
    7.2115    0.0953   18.5312 C   0  0  0  0  0  0  0  0  0  0  0  0
    8.1608   -0.3896   18.3165 H   0  0  0  0  0  0  0  0  0  0  0  0
    6.7129    0.0578   19.8378 C   0  0  0  0  0  0  0  0  0  0  0  0
    7.4652   -0.6689   20.9528 C   0  0  1  0  0  0  0  0  0  0  0  0
    8.7090   -1.2224   20.4225 N   0  0  0  0  0  0  0  0  0  0  0  0
    9.2455   -1.6171   21.1901 H   0  0  0  0  0  0  0  0  0  0  0  0
    8.4728   -1.9985   19.8104 H   0  0  0  0  0  0  0  0  0  0  0  0
    7.8712    0.3202   22.0612 C   0  0  0  0  0  0  0  0  0  0  0  0
    8.4301   -0.1899   22.8561 H   0  0  0  0  0  0  0  0  0  0  0  0
    8.5275    1.0927   21.6438 H   0  0  0  0  0  0  0  0  0  0  0  0
    7.0061    0.8128   22.5201 H   0  0  0  0  0  0  0  0  0  0  0  0
    6.5157   -1.7897   21.4737 C   0  0  0  0  0  0  0  0  0  0  0  0
    6.2413   -2.4170   20.6062 H   0  0  0  0  0  0  0  0  0  0  0  0
    5.5898   -1.2894   21.7602 H   0  0  0  0  0  0  0  0  0  0  0  0
    6.9900   -2.6492   22.6569 C   0  0  0  0  0  0  0  0  0  0  0  0
    6.1594   -2.7821   23.3621 H   0  0  0  0  0  0  0  0  0  0  0  0
    7.7634   -2.1259   23.2364 H   0  0  0  0  0  0  0  0  0  0  0  0
    7.5133   -4.0508   22.3062 C   0  0  0  0  0  0  0  0  0  0  0  0
    8.2821   -3.9880   21.5234 H   0  0  0  0  0  0  0  0  0  0  0  0
    6.7101   -4.6741   21.8883 H   0  0  0  0  0  0  0  0  0  0  0  0
    8.1040   -4.7273   23.5248 C   0  0  0  0  0  0  0  0  0  0  0  0
    7.3037   -5.4569   24.4209 C   0  0  0  0  0  0  0  0  0  0  0  0
    6.2291   -5.5114   24.2584 H   0  0  0  0  0  0  0  0  0  0  0  0
    7.8752   -6.0932   25.5314 C   0  0  0  0  0  0  0  0  0  0  0  0
    7.2576   -6.6784   26.2096 H   0  0  0  0  0  0  0  0  0  0  0  0
    9.2527   -5.9905   25.7528 C   0  0  0  0  0  0  0  0  0  0  0  0
    9.7025   -6.4735   26.6136 H   0  0  0  0  0  0  0  0  0  0  0  0
   10.0591   -5.2394   24.8891 C   0  0  0  0  0  0  0  0  0  0  0  0
   11.1392   -5.1974   25.0375 H   0  0  0  0  0  0  0  0  0  0  0  0
    9.4652   -4.5669   23.8174 C   0  0  0  0  0  0  0  0  0  0  0  0
   10.0642   -3.8853   23.2128 H   0  0  0  0  0  0  0  0  0  0  0  0
    5.4716    0.6865   20.0657 C   0  0  0  0  0  0  0  0  0  0  0  0
    5.0007    0.6840   21.0540 H   0  0  0  0  0  0  0  0  0  0  0  0
    4.8311    1.3233   19.0011 C   0  0  0  0  0  0  0  0  0  0  0  0
    3.8744    1.8216   19.1244 H   0  0  0  0  0  0  0  0  0  0  0  0
  1  2  1  0
  2  3  2  0
  3  4  1  0
  4  5  1  0
  4  6  2  0
  6  7  1  0
  7  8  1  6
  8  9  1  0
  8 10  1  0
  7 11  1  0
 11 12  1  0
 11 13  1  0
 11 14  1  0
  7 15  1  0
 15 16  1  0
 15 17  1  0
 15 18  1  0
 18 19  1  0
 18 20  1  0
 18 21  1  0
 21 22  1  0
 21 23  1  0
 21 24  1  0
 24 25  2  0
 25 26  1  0
 25 27  1  0
 27 28  1  0
 27 29  2  0
 29 30  1  0
 29 31  1  0
 31 32  1  0
 31 33  2  0
 33 34  1  0
  6 35  1  0
 35 36  1  0
 35 37  2  0
 37 38  1  0
 37  2  1  0
 33 24  1  0
M  END
>  <cnnaffinity>  (1) 
-4.82456

>  <filename>  (1) 
C[C@@](N)(CCCc1ccccc1)c1cccnc1

$$$$
