
     RDKit          3D

 40 43  0  0  0  0  0  0  0  0999 V2000
    5.0884    1.7626   16.7483 H   0  0  0  0  0  0  0  0  0  0  0  0
    5.5517    1.2531   17.5905 C   0  0  0  0  0  0  0  0  0  0  0  0
    6.7033    0.6129   17.3364 N   0  0  0  0  0  0  0  0  0  0  0  0
    7.3021   -0.0194   18.3493 C   0  0  0  0  0  0  0  0  0  0  0  0
    8.2436   -0.5193   18.1188 H   0  0  0  0  0  0  0  0  0  0  0  0
    6.7847   -0.0571   19.6492 C   0  0  0  0  0  0  0  0  0  0  0  0
    7.4939   -0.7557   20.7266 C   0  0  0  0  0  0  0  0  0  0  0  0
    6.9460   -0.8617   21.8946 N   0  0  0  0  0  0  0  0  0  0  0  0
    7.8235   -1.4374   22.7550 N   0  0  0  0  0  0  0  0  0  0  0  0
    7.8499   -1.6827   24.1058 C   0  0  0  0  0  0  0  0  0  0  0  0
    6.7432   -1.2632   25.0220 C   0  0  0  0  0  0  0  0  0  0  0  0
    5.8892   -1.9332   24.8763 H   0  0  0  0  0  0  0  0  0  0  0  0
    7.1033   -1.3869   26.0469 H   0  0  0  0  0  0  0  0  0  0  0  0
    6.2730    0.1716   24.7707 C   0  0  0  0  0  0  0  0  0  0  0  0
    5.8979    0.2372   23.7476 H   0  0  0  0  0  0  0  0  0  0  0  0
    5.4174    0.4088   25.4334 H   0  0  0  0  0  0  0  0  0  0  0  0
    7.3666    1.1128   24.9181 N   0  0  0  0  0  0  0  0  0  0  0  0
    7.8432    1.3790   26.2759 C   0  0  0  0  0  0  0  0  0  0  0  0
    7.0126    1.4796   27.0045 H   0  0  0  0  0  0  0  0  0  0  0  0
    8.4917    0.5582   26.6224 H   0  0  0  0  0  0  0  0  0  0  0  0
    8.5838    2.7130   26.1529 C   0  0  0  0  0  0  0  0  0  0  0  0
    9.6235    2.5585   25.8436 H   0  0  0  0  0  0  0  0  0  0  0  0
    8.5832    3.2648   27.0952 H   0  0  0  0  0  0  0  0  0  0  0  0
    7.7807    3.4483   25.0827 C   0  0  0  0  0  0  0  0  0  0  0  0
    6.9103    3.9278   25.5471 H   0  0  0  0  0  0  0  0  0  0  0  0
    8.3414    4.2240   24.5462 H   0  0  0  0  0  0  0  0  0  0  0  0
    7.3190    2.3414   24.1210 C   0  0  1  0  0  0  0  0  0  0  0  0
    6.2916    2.5725   23.7903 H   0  0  0  0  0  0  0  0  0  0  0  0
    8.2069    2.1999   22.8879 C   0  0  0  0  0  0  0  0  0  0  0  0
    7.7562    1.5260   22.1575 H   0  0  0  0  0  0  0  0  0  0  0  0
    8.3523    3.1682   22.4014 H   0  0  0  0  0  0  0  0  0  0  0  0
    9.1897    1.8089   23.1695 H   0  0  0  0  0  0  0  0  0  0  0  0
    8.9676   -2.3035   24.3930 N   0  0  0  0  0  0  0  0  0  0  0  0
    9.7230   -2.4347   23.2348 N   0  0  0  0  0  0  0  0  0  0  0  0
    9.0181   -1.8824   22.2842 C   0  0  0  0  0  0  0  0  0  0  0  0
    9.1311   -1.4402   20.5933 S   0  0  0  0  0  0  0  0  0  0  0  0
    5.5749    0.6192   19.9041 C   0  0  0  0  0  0  0  0  0  0  0  0
    5.1394    0.6251   20.9053 H   0  0  0  0  0  0  0  0  0  0  0  0
    4.9523    1.2821   18.8534 C   0  0  0  0  0  0  0  0  0  0  0  0
    4.0239    1.8233   19.0012 H   0  0  0  0  0  0  0  0  0  0  0  0
  1  2  1  0
  2  3  2  0
  3  4  1  0
  4  5  1  0
  4  6  2  0
  6  7  1  0
  7  8  2  0
  8  9  1  0
  9 10  1  0
 10 11  1  0
 11 12  1  0
 11 13  1  0
 11 14  1  0
 14 15  1  0
 14 16  1  0
 14 17  1  0
 17 18  1  0
 18 19  1  0
 18 20  1  0
 18 21  1  0
 21 22  1  0
 21 23  1  0
 21 24  1  0
 24 25  1  0
 24 26  1  0
 24 27  1  0
 27 28  1  6
 27 29  1  0
 29 30  1  0
 29 31  1  0
 29 32  1  0
 10 33  2  0
 33 34  1  0
 34 35  2  0
 35 36  1  0
  6 37  1  0
 37 38  1  0
 37 39  2  0
 39 40  1  0
 39  2  1  0
 36  7  1  0
 35  9  1  0
 27 17  1  0
M  END
>  <cnnaffinity>  (1) 
-5.26292

>  <filename>  (1) 
C[C@@H]1CCCN1CCc1nnc2sc(-c3cccnc3)nn12

$$$$
