
     RDKit          3D

 30 31  0  0  0  0  0  0  0  0999 V2000
    5.0459    1.8348   17.0222 H   0  0  0  0  0  0  0  0  0  0  0  0
    5.4729    1.2594   17.8423 C   0  0  0  0  0  0  0  0  0  0  0  0
    6.6337    0.6414   17.5784 N   0  0  0  0  0  0  0  0  0  0  0  0
    7.1886   -0.0458   18.5840 C   0  0  0  0  0  0  0  0  0  0  0  0
    8.1363   -0.5380   18.3642 H   0  0  0  0  0  0  0  0  0  0  0  0
    6.6422   -0.1722   19.8741 C   0  0  0  0  0  0  0  0  0  0  0  0
    7.4689   -0.8255   20.9844 C   0  0  2  0  0  0  0  0  0  0  0  0
    8.3056   -1.3561   20.5068 H   0  0  0  0  0  0  0  0  0  0  0  0
    6.7750   -1.9455   21.7813 C   0  0  0  0  0  0  0  0  0  0  0  0
    6.7005   -1.9879   22.9812 O   0  0  0  0  0  0  0  0  0  0  0  0
    6.3476   -2.9510   20.9565 O   0  0  0  0  0  0  0  0  0  0  0  0
    5.7551   -4.0687   21.5348 C   0  0  0  0  0  0  0  0  0  0  0  0
    4.4906   -3.9552   22.0986 C   0  0  0  0  0  0  0  0  0  0  0  0
    4.0386   -2.9767   22.1418 H   0  0  0  0  0  0  0  0  0  0  0  0
    3.8934   -5.1094   22.6075 C   0  0  0  0  0  0  0  0  0  0  0  0
    2.3096   -5.0407   23.3049 Cl  0  0  0  0  0  0  0  0  0  0  0  0
    4.5627   -6.3384   22.5949 C   0  0  0  0  0  0  0  0  0  0  0  0
    4.1105   -7.2353   22.9982 H   0  0  0  0  0  0  0  0  0  0  0  0
    5.8603   -6.3868   22.0803 C   0  0  0  0  0  0  0  0  0  0  0  0
    6.7507   -7.8668   22.1757 Cl  0  0  0  0  0  0  0  0  0  0  0  0
    6.4618   -5.2648   21.5103 C   0  0  0  0  0  0  0  0  0  0  0  0
    7.4556   -5.2941   21.0855 H   0  0  0  0  0  0  0  0  0  0  0  0
    8.0460    0.2689   21.9094 C   0  0  0  0  0  0  0  0  0  0  0  0
    7.2474    0.8430   22.3950 H   0  0  0  0  0  0  0  0  0  0  0  0
    8.6693   -0.1559   22.7017 H   0  0  0  0  0  0  0  0  0  0  0  0
    8.6412    0.9766   21.3240 H   0  0  0  0  0  0  0  0  0  0  0  0
    5.4143    0.4619   20.1180 C   0  0  0  0  0  0  0  0  0  0  0  0
    4.9388    0.3951   21.1002 H   0  0  0  0  0  0  0  0  0  0  0  0
    4.8242    1.1915   19.0794 C   0  0  0  0  0  0  0  0  0  0  0  0
    3.8935    1.7294   19.2213 H   0  0  0  0  0  0  0  0  0  0  0  0
  1  2  1  0
  2  3  2  0
  3  4  1  0
  4  5  1  0
  4  6  2  0
  6  7  1  0
  7  8  1  6
  7  9  1  0
  9 10  2  0
  9 11  1  0
 11 12  1  0
 12 13  2  0
 13 14  1  0
 13 15  1  0
 15 16  1  0
 15 17  2  0
 17 18  1  0
 17 19  1  0
 19 20  1  0
 19 21  2  0
 21 22  1  0
  7 23  1  0
 23 24  1  0
 23 25  1  0
 23 26  1  0
  6 27  1  0
 27 28  1  0
 27 29  2  0
 29 30  1  0
 29  2  1  0
 21 12  1  0
M  END
>  <cnnaffinity>  (1) 
-5.19278

>  <filename>  (1) 
C[C@@H](C(=O)Oc1cc(Cl)cc(Cl)c1)c1cccnc1

$$$$
