
     RDKit          3D

 32 33  0  0  0  0  0  0  0  0999 V2000
    7.6260   -2.1595   20.9379 C   0  0  0  0  0  0  0  0  0  0  0  0
    7.2725   -0.7020   21.2331 C   0  0  1  0  0  0  0  0  0  0  0  0
    8.5910   -0.0703   21.5159 N   0  0  0  0  0  0  0  0  0  0  0  0
    8.4715    1.4477   22.2088 S   0  0  0  0  0  0  0  0  0  0  0  0
    7.4807    1.4096   23.2616 O   0  0  0  0  0  0  0  0  0  0  0  0
    8.3377    2.2954   21.0322 O   0  0  0  0  0  0  0  0  0  0  0  0
   10.0995    1.7435   22.8523 C   0  0  0  0  0  0  0  0  0  0  0  0
   10.7247    2.9411   22.4602 C   0  0  0  0  0  0  0  0  0  0  0  0
   12.0579    3.1874   22.7700 C   0  0  0  0  0  0  0  0  0  0  0  0
   12.7705    2.2821   23.5593 C   0  0  0  0  0  0  0  0  0  0  0  0
   12.1201    1.1426   24.0458 C   0  0  0  0  0  0  0  0  0  0  0  0
   13.0263    0.1600   25.1401 Cl  0  0  0  0  0  0  0  0  0  0  0  0
   10.7825    0.8400   23.6913 C   0  0  0  0  0  0  0  0  0  0  0  0
   10.0215   -0.5793   24.3111 Cl  0  0  0  0  0  0  0  0  0  0  0  0
   13.8088    2.4657   23.8311 H   0  0  0  0  0  0  0  0  0  0  0  0
   12.5400    4.0887   22.4065 H   0  0  0  0  0  0  0  0  0  0  0  0
   10.1493    3.6903   21.9326 H   0  0  0  0  0  0  0  0  0  0  0  0
    8.9153    0.3080   20.6293 H   0  0  0  0  0  0  0  0  0  0  0  0
    6.5855    0.0331   20.1024 C   0  0  0  0  0  0  0  0  0  0  0  0
    5.3638    0.7187   20.2341 C   0  0  0  0  0  0  0  0  0  0  0  0
    4.8067    1.3278   19.1042 C   0  0  0  0  0  0  0  0  0  0  0  0
    5.4976    1.2499   17.8901 C   0  0  0  0  0  0  0  0  0  0  0  0
    6.6699    0.6184   17.7455 N   0  0  0  0  0  0  0  0  0  0  0  0
    7.1983    0.0550   18.8398 C   0  0  0  0  0  0  0  0  0  0  0  0
    8.1618   -0.4370   18.6908 H   0  0  0  0  0  0  0  0  0  0  0  0
    5.1026    1.7093   16.9868 H   0  0  0  0  0  0  0  0  0  0  0  0
    3.8721    1.8770   19.1437 H   0  0  0  0  0  0  0  0  0  0  0  0
    4.8744    0.8130   21.2081 H   0  0  0  0  0  0  0  0  0  0  0  0
    6.6555   -0.6520   22.1404 H   0  0  0  0  0  0  0  0  0  0  0  0
    7.8776   -2.6735   21.8705 H   0  0  0  0  0  0  0  0  0  0  0  0
    8.5344   -2.1651   20.3306 H   0  0  0  0  0  0  0  0  0  0  0  0
    6.8293   -2.6995   20.4209 H   0  0  0  0  0  0  0  0  0  0  0  0
  1  2  1  0
  2  3  1  0
  3  4  1  0
  4  5  2  0
  4  6  2  0
  4  7  1  0
  7  8  2  0
  8  9  1  0
  9 10  2  0
 10 11  1  0
 11 12  1  0
 11 13  2  0
 13 14  1  0
 10 15  1  0
  9 16  1  0
  8 17  1  0
  3 18  1  0
  2 19  1  0
 19 20  2  0
 20 21  1  0
 21 22  2  0
 22 23  1  0
 23 24  2  0
 24 25  1  0
 22 26  1  0
 21 27  1  0
 20 28  1  0
  2 29  1  1
  1 30  1  0
  1 31  1  0
  1 32  1  0
 13  7  1  0
 24 19  1  0
M  END
>  <cnnaffinity>  (1) 
-5.33259

>  <filename>  (1) 
C[C@@H](NS(=O)(=O)c1cccc(Cl)c1Cl)c1cccnc1

$$$$
