
     RDKit          3D

 25 26  0  0  0  0  0  0  0  0999 V2000
    6.5774    1.8128   23.0333 H   0  0  0  0  0  0  0  0  0  0  0  0
    7.1765    2.0842   22.3241 O   0  0  0  0  0  0  0  0  0  0  0  0
    8.3455    1.2659   22.3116 C   0  0  1  0  0  0  0  0  0  0  0  0
    8.8457    1.2836   23.2914 H   0  0  0  0  0  0  0  0  0  0  0  0
    8.1070   -0.2004   22.0012 C   0  0  0  0  0  0  0  0  0  0  0  0
    8.6789   -1.1582   22.6716 N   0  0  0  0  0  0  0  0  0  0  0  0
    8.1696   -2.2908   22.1165 N   0  0  0  0  0  0  0  0  0  0  0  0
    8.3831   -3.2130   22.4627 H   0  0  0  0  0  0  0  0  0  0  0  0
    7.2630   -2.0916   21.1402 C   0  0  0  0  0  0  0  0  0  0  0  0
    6.2684   -3.2339   20.4510 S   0  0  0  0  0  0  0  0  0  0  0  0
    7.3138   -0.7112   20.9711 N   0  0  0  0  0  0  0  0  0  0  0  0
    6.6620    0.0079   19.9020 C   0  0  0  0  0  0  0  0  0  0  0  0
    7.1819    0.0485   18.5915 C   0  0  0  0  0  0  0  0  0  0  0  0
    8.1274   -0.4495   18.3662 H   0  0  0  0  0  0  0  0  0  0  0  0
    6.5686    0.6717   17.5743 N   0  0  0  0  0  0  0  0  0  0  0  0
    5.4059    1.2917   17.8350 C   0  0  0  0  0  0  0  0  0  0  0  0
    4.9330    1.7982   16.9962 H   0  0  0  0  0  0  0  0  0  0  0  0
    4.8109    1.3051   19.0991 C   0  0  0  0  0  0  0  0  0  0  0  0
    3.8744    1.8301   19.2545 H   0  0  0  0  0  0  0  0  0  0  0  0
    5.4485    0.6453   20.1564 C   0  0  0  0  0  0  0  0  0  0  0  0
    5.0302    0.6102   21.1622 H   0  0  0  0  0  0  0  0  0  0  0  0
    9.2317    1.8793   21.2361 C   0  0  0  0  0  0  0  0  0  0  0  0
    8.6739    1.8377   20.2984 H   0  0  0  0  0  0  0  0  0  0  0  0
    9.4547    2.9240   21.4651 H   0  0  0  0  0  0  0  0  0  0  0  0
   10.1685    1.3216   21.1324 H   0  0  0  0  0  0  0  0  0  0  0  0
  1  2  1  0
  2  3  1  0
  3  4  1  1
  3  5  1  0
  5  6  2  0
  6  7  1  0
  7  8  1  0
  7  9  1  0
  9 10  2  0
  9 11  1  0
 11 12  1  0
 12 13  2  0
 13 14  1  0
 13 15  1  0
 15 16  2  0
 16 17  1  0
 16 18  1  0
 18 19  1  0
 18 20  2  0
 20 21  1  0
  3 22  1  0
 22 23  1  0
 22 24  1  0
 22 25  1  0
 11  5  1  0
 20 12  1  0
M  END
>  <cnnaffinity>  (1) 
-4.29962

>  <filename>  (1) 
C[C@@H](O)c1n[nH]c(=S)n1-c1cccnc1

$$$$
