
     RDKit          3D

 35 36  0  0  0  0  0  0  0  0999 V2000
    4.9150    1.7923   16.9875 H   0  0  0  0  0  0  0  0  0  0  0  0
    5.3969    1.2981   17.8290 C   0  0  0  0  0  0  0  0  0  0  0  0
    6.5584    0.6792   17.5630 N   0  0  0  0  0  0  0  0  0  0  0  0
    7.1666    0.0605   18.5880 C   0  0  0  0  0  0  0  0  0  0  0  0
    8.1152   -0.4269   18.3702 H   0  0  0  0  0  0  0  0  0  0  0  0
    6.6707    0.0036   19.9128 C   0  0  0  0  0  0  0  0  0  0  0  0
    7.3488   -0.6948   20.9466 N   0  0  0  0  0  0  0  0  0  0  0  0
    7.0266   -2.0942   21.1040 C   0  0  0  0  0  0  0  0  0  0  0  0
    7.6238   -2.5583   21.8994 H   0  0  0  0  0  0  0  0  0  0  0  0
    5.9607   -2.2562   21.3212 H   0  0  0  0  0  0  0  0  0  0  0  0
    7.2261   -2.6425   20.1810 H   0  0  0  0  0  0  0  0  0  0  0  0
    8.3162   -0.0064   21.7982 C   0  0  2  0  0  0  0  0  0  0  0  0
    8.6904   -0.7526   22.5096 H   0  0  0  0  0  0  0  0  0  0  0  0
    7.6514    1.1227   22.5863 C   0  0  0  0  0  0  0  0  0  0  0  0
    7.3412    1.9394   21.9218 H   0  0  0  0  0  0  0  0  0  0  0  0
    6.7570    0.7479   23.0913 H   0  0  0  0  0  0  0  0  0  0  0  0
    8.3319    1.5308   23.3399 H   0  0  0  0  0  0  0  0  0  0  0  0
    9.5152    0.4862   20.9624 C   0  0  0  0  0  0  0  0  0  0  0  0
    9.8246   -0.3267   20.2972 H   0  0  0  0  0  0  0  0  0  0  0  0
    9.1507    1.2992   20.3300 H   0  0  0  0  0  0  0  0  0  0  0  0
   10.6819    0.9476   21.7995 C   0  0  0  0  0  0  0  0  0  0  0  0
   10.8416    2.3065   22.1131 C   0  0  0  0  0  0  0  0  0  0  0  0
   10.1240    3.0174   21.7097 H   0  0  0  0  0  0  0  0  0  0  0  0
   11.8760    2.7530   22.9387 C   0  0  0  0  0  0  0  0  0  0  0  0
   11.9783    3.8131   23.1491 H   0  0  0  0  0  0  0  0  0  0  0  0
   12.7741    1.8285   23.4785 C   0  0  0  0  0  0  0  0  0  0  0  0
   13.5923    2.1610   24.1075 H   0  0  0  0  0  0  0  0  0  0  0  0
   12.6335    0.4677   23.2020 C   0  0  0  0  0  0  0  0  0  0  0  0
   13.3196   -0.2669   23.6098 H   0  0  0  0  0  0  0  0  0  0  0  0
   11.5928    0.0440   22.3728 C   0  0  0  0  0  0  0  0  0  0  0  0
   11.4383   -1.6685   22.0696 Cl  0  0  0  0  0  0  0  0  0  0  0  0
    5.4453    0.6427   20.1560 C   0  0  0  0  0  0  0  0  0  0  0  0
    5.0343    0.6158   21.1667 H   0  0  0  0  0  0  0  0  0  0  0  0
    4.8084    1.3073   19.0995 C   0  0  0  0  0  0  0  0  0  0  0  0
    3.8792    1.8380   19.2561 H   0  0  0  0  0  0  0  0  0  0  0  0
  1  2  1  0
  2  3  2  0
  3  4  1  0
  4  5  1  0
  4  6  2  0
  6  7  1  0
  7  8  1  0
  8  9  1  0
  8 10  1  0
  8 11  1  0
  7 12  1  0
 12 13  1  1
 12 14  1  0
 14 15  1  0
 14 16  1  0
 14 17  1  0
 12 18  1  0
 18 19  1  0
 18 20  1  0
 18 21  1  0
 21 22  2  0
 22 23  1  0
 22 24  1  0
 24 25  1  0
 24 26  2  0
 26 27  1  0
 26 28  1  0
 28 29  1  0
 28 30  2  0
 30 31  1  0
  6 32  1  0
 32 33  1  0
 32 34  2  0
 34 35  1  0
 34  2  1  0
 30 21  1  0
M  END
>  <cnnaffinity>  (1) 
-5.4111

>  <filename>  (1) 
C[C@H](Cc1ccccc1Cl)N(C)c1cccnc1

$$$$
