
     RDKit          3D

 33 35  0  0  0  0  0  0  0  0999 V2000
    4.9177    1.8240   16.9729 H   0  0  0  0  0  0  0  0  0  0  0  0
    5.3896    1.3076   17.8036 C   0  0  0  0  0  0  0  0  0  0  0  0
    6.5499    0.6877   17.5355 N   0  0  0  0  0  0  0  0  0  0  0  0
    7.1661    0.0699   18.5561 C   0  0  0  0  0  0  0  0  0  0  0  0
    8.1104   -0.4198   18.3237 H   0  0  0  0  0  0  0  0  0  0  0  0
    6.6664    0.0247   19.8884 C   0  0  0  0  0  0  0  0  0  0  0  0
    7.3077   -0.5768   20.9534 N   0  0  0  0  0  0  0  0  0  0  0  0
    6.7687   -0.7003   21.7981 H   0  0  0  0  0  0  0  0  0  0  0  0
    8.6930   -0.9904   21.0051 C   0  0  2  0  0  0  0  0  0  0  0  0
    8.8962   -1.5994   20.1099 H   0  0  0  0  0  0  0  0  0  0  0  0
    8.8370   -1.8895   22.2266 C   0  0  0  0  0  0  0  0  0  0  0  0
    8.9913   -3.2828   21.9996 C   0  0  0  0  0  0  0  0  0  0  0  0
    8.9161   -3.6565   20.9778 H   0  0  0  0  0  0  0  0  0  0  0  0
    9.2154   -4.1733   23.0410 C   0  0  0  0  0  0  0  0  0  0  0  0
    9.3051   -5.2430   22.8781 H   0  0  0  0  0  0  0  0  0  0  0  0
    9.2888   -3.6485   24.3365 C   0  0  0  0  0  0  0  0  0  0  0  0
    9.0213   -2.2853   24.6182 C   0  0  0  0  0  0  0  0  0  0  0  0
    8.7903   -1.3983   23.5393 C   0  0  0  0  0  0  0  0  0  0  0  0
    8.6113   -0.3431   23.7422 H   0  0  0  0  0  0  0  0  0  0  0  0
    9.0712   -2.1618   26.0523 C   0  0  0  0  0  0  0  0  0  0  0  0
    8.8316   -1.2835   26.6330 H   0  0  0  0  0  0  0  0  0  0  0  0
    9.3980   -3.3846   26.5603 C   0  0  0  0  0  0  0  0  0  0  0  0
    9.5465   -3.7036   27.5841 H   0  0  0  0  0  0  0  0  0  0  0  0
    9.5343   -4.2878   25.5250 N   0  0  0  0  0  0  0  0  0  0  0  0
    9.9508   -5.2027   25.5900 H   0  0  0  0  0  0  0  0  0  0  0  0
    9.6799    0.1845   20.9442 C   0  0  0  0  0  0  0  0  0  0  0  0
    9.5693    0.8614   21.7979 H   0  0  0  0  0  0  0  0  0  0  0  0
    9.5082    0.7586   20.0280 H   0  0  0  0  0  0  0  0  0  0  0  0
   10.7065   -0.1953   20.9336 H   0  0  0  0  0  0  0  0  0  0  0  0
    5.4268    0.6460   20.1266 C   0  0  0  0  0  0  0  0  0  0  0  0
    5.0060    0.6224   21.1341 H   0  0  0  0  0  0  0  0  0  0  0  0
    4.7947    1.3050   19.0737 C   0  0  0  0  0  0  0  0  0  0  0  0
    3.8592    1.8326   19.2317 H   0  0  0  0  0  0  0  0  0  0  0  0
  1  2  1  0
  2  3  2  0
  3  4  1  0
  4  5  1  0
  4  6  2  0
  6  7  1  0
  7  8  1  0
  7  9  1  0
  9 10  1  6
  9 11  1  0
 11 12  2  0
 12 13  1  0
 12 14  1  0
 14 15  1  0
 14 16  2  0
 16 17  1  0
 17 18  2  0
 18 19  1  0
 17 20  1  0
 20 21  1  0
 20 22  2  0
 22 23  1  0
 22 24  1  0
 24 25  1  0
  9 26  1  0
 26 27  1  0
 26 28  1  0
 26 29  1  0
  6 30  1  0
 30 31  1  0
 30 32  2  0
 32 33  1  0
 32  2  1  0
 18 11  1  0
 24 16  1  0
M  END
>  <cnnaffinity>  (1) 
-4.73316

>  <filename>  (1) 
C[C@H](Nc1cccnc1)c1ccc2[nH]ccc2c1

$$$$
