
     RDKit          3D

 37 38  0  0  0  0  0  0  0  0999 V2000
    5.0427    1.6918   16.8753 H   0  0  0  0  0  0  0  0  0  0  0  0
    5.4427    1.2842   17.8034 C   0  0  0  0  0  0  0  0  0  0  0  0
    6.6339    0.6726   17.7221 N   0  0  0  0  0  0  0  0  0  0  0  0
    7.1418    0.1729   18.8553 C   0  0  0  0  0  0  0  0  0  0  0  0
    8.1021   -0.3335   18.7736 H   0  0  0  0  0  0  0  0  0  0  0  0
    6.5332    0.2628   20.1143 C   0  0  0  0  0  0  0  0  0  0  0  0
    7.2228   -0.4331   21.2784 C   0  0  2  0  0  0  0  0  0  0  0  0
    6.7759   -0.1033   22.2370 H   0  0  0  0  0  0  0  0  0  0  0  0
    8.6872   -0.1585   21.3029 N   0  0  0  0  0  0  0  0  0  0  0  0
    9.3708   -0.9471   22.2615 N   0  0  0  0  0  0  0  0  0  0  0  0
    9.2406   -0.7228   23.6652 C   0  0  0  0  0  0  0  0  0  0  0  0
   10.1631    0.0939   24.3499 C   0  0  0  0  0  0  0  0  0  0  0  0
   10.9862    0.5329   23.7912 H   0  0  0  0  0  0  0  0  0  0  0  0
   10.0140    0.3445   25.7186 C   0  0  0  0  0  0  0  0  0  0  0  0
   10.7136    1.0004   26.2314 H   0  0  0  0  0  0  0  0  0  0  0  0
    8.9608   -0.2383   26.4297 C   0  0  0  0  0  0  0  0  0  0  0  0
    8.8339   -0.0246   27.4883 H   0  0  0  0  0  0  0  0  0  0  0  0
    8.0674   -1.0886   25.7724 C   0  0  0  0  0  0  0  0  0  0  0  0
    7.2471   -1.5525   26.3166 H   0  0  0  0  0  0  0  0  0  0  0  0
    8.2123   -1.3379   24.4042 C   0  0  0  0  0  0  0  0  0  0  0  0
    7.5291   -2.0099   23.8969 H   0  0  0  0  0  0  0  0  0  0  0  0
   10.4247   -1.8219   21.7977 C   0  0  0  0  0  0  0  0  0  0  0  0
   11.4317   -1.4351   22.0200 H   0  0  0  0  0  0  0  0  0  0  0  0
   10.3314   -1.9518   20.7178 H   0  0  0  0  0  0  0  0  0  0  0  0
   10.3496   -2.8131   22.2693 H   0  0  0  0  0  0  0  0  0  0  0  0
    9.0519    1.2587   21.3735 C   0  0  0  0  0  0  0  0  0  0  0  0
    8.7324    1.7346   22.3131 H   0  0  0  0  0  0  0  0  0  0  0  0
   10.1362    1.3755   21.2916 H   0  0  0  0  0  0  0  0  0  0  0  0
    8.6036    1.7980   20.5320 H   0  0  0  0  0  0  0  0  0  0  0  0
    6.9732   -1.9382   21.1200 C   0  0  0  0  0  0  0  0  0  0  0  0
    7.4364   -2.5020   21.9278 H   0  0  0  0  0  0  0  0  0  0  0  0
    5.9054   -2.1638   21.1238 H   0  0  0  0  0  0  0  0  0  0  0  0
    7.3984   -2.2972   20.1792 H   0  0  0  0  0  0  0  0  0  0  0  0
    5.2715    0.8771   20.1740 C   0  0  0  0  0  0  0  0  0  0  0  0
    4.7194    0.9526   21.1121 H   0  0  0  0  0  0  0  0  0  0  0  0
    4.7222    1.3977   18.9965 C   0  0  0  0  0  0  0  0  0  0  0  0
    3.7517    1.8850   18.9826 H   0  0  0  0  0  0  0  0  0  0  0  0
  1  2  1  0
  2  3  2  0
  3  4  1  0
  4  5  1  0
  4  6  2  0
  6  7  1  0
  7  8  1  1
  7  9  1  0
  9 10  1  0
 10 11  1  0
 11 12  2  0
 12 13  1  0
 12 14  1  0
 14 15  1  0
 14 16  2  0
 16 17  1  0
 16 18  1  0
 18 19  1  0
 18 20  2  0
 20 21  1  0
 10 22  1  0
 22 23  1  0
 22 24  1  0
 22 25  1  0
  9 26  1  0
 26 27  1  0
 26 28  1  0
 26 29  1  0
  7 30  1  0
 30 31  1  0
 30 32  1  0
 30 33  1  0
  6 34  1  0
 34 35  1  0
 34 36  2  0
 36 37  1  0
 36  2  1  0
 20 11  1  0
M  END
>  <cnnaffinity>  (1) 
-4.85024

>  <filename>  (1) 
C[C@H](c1cccnc1)N(C)N(C)c1ccccc1

$$$$
