
     RDKit          3D

 40 41  0  0  0  0  0  0  0  0999 V2000
    4.9282    1.8478   16.9726 H   0  0  0  0  0  0  0  0  0  0  0  0
    5.4004    1.3180   17.7955 C   0  0  0  0  0  0  0  0  0  0  0  0
    6.5549    0.6918   17.5252 N   0  0  0  0  0  0  0  0  0  0  0  0
    7.1631    0.0633   18.5398 C   0  0  0  0  0  0  0  0  0  0  0  0
    8.1014   -0.4288   18.2785 H   0  0  0  0  0  0  0  0  0  0  0  0
    6.6787    0.0103   19.8650 C   0  0  0  0  0  0  0  0  0  0  0  0
    7.5009   -0.6587   20.9631 C   0  0  2  0  0  0  0  0  0  0  0  0
    8.2003   -1.3457   20.4654 H   0  0  0  0  0  0  0  0  0  0  0  0
    6.6473   -1.4721   21.9463 C   0  0  0  0  0  0  0  0  0  0  0  0
    7.2753   -2.1290   22.5620 H   0  0  0  0  0  0  0  0  0  0  0  0
    5.9084   -2.0956   21.4309 H   0  0  0  0  0  0  0  0  0  0  0  0
    6.1287   -0.7999   22.6340 H   0  0  0  0  0  0  0  0  0  0  0  0
    8.3868    0.3635   21.7341 C   0  0  0  0  0  0  0  0  0  0  0  0
    9.0679    0.8640   21.0383 H   0  0  0  0  0  0  0  0  0  0  0  0
    8.9860   -0.1513   22.4946 H   0  0  0  0  0  0  0  0  0  0  0  0
    7.5883    1.3985   22.5017 C   0  0  0  0  0  0  0  0  0  0  0  0
    7.1496    1.1873   23.6214 O   0  0  0  0  0  0  0  0  0  0  0  0
    7.3853    2.5858   21.8724 N   0  0  0  0  0  0  0  0  0  0  0  0
    7.5953    2.6460   20.8901 H   0  0  0  0  0  0  0  0  0  0  0  0
    6.5504    3.6262   22.4528 C   0  0  0  0  0  0  0  0  0  0  0  0
    5.7572    3.1355   23.0330 H   0  0  0  0  0  0  0  0  0  0  0  0
    5.9331    4.4531   21.3331 C   0  0  0  0  0  0  0  0  0  0  0  0
    6.7432    4.8958   20.7435 H   0  0  0  0  0  0  0  0  0  0  0  0
    5.3599    3.7820   20.6809 H   0  0  0  0  0  0  0  0  0  0  0  0
    5.0832    5.6356   21.8168 C   0  0  0  0  0  0  0  0  0  0  0  0
    4.1515    5.2829   22.2741 H   0  0  0  0  0  0  0  0  0  0  0  0
    4.7836    6.2477   20.9565 H   0  0  0  0  0  0  0  0  0  0  0  0
    5.8685    6.4948   22.8195 C   0  0  0  0  0  0  0  0  0  0  0  0
    5.2278    7.2883   23.2196 H   0  0  0  0  0  0  0  0  0  0  0  0
    6.6895    6.9958   22.2871 H   0  0  0  0  0  0  0  0  0  0  0  0
    6.4515    5.6485   23.9628 C   0  0  0  0  0  0  0  0  0  0  0  0
    7.0057    6.2688   24.6759 H   0  0  0  0  0  0  0  0  0  0  0  0
    5.6205    5.2092   24.5312 H   0  0  0  0  0  0  0  0  0  0  0  0
    7.3336    4.5069   23.4352 C   0  0  0  0  0  0  0  0  0  0  0  0
    7.6955    3.8680   24.2448 H   0  0  0  0  0  0  0  0  0  0  0  0
    8.2260    4.9071   22.9367 H   0  0  0  0  0  0  0  0  0  0  0  0
    5.4454    0.6376   20.1019 C   0  0  0  0  0  0  0  0  0  0  0  0
    4.9942    0.6259   21.0951 H   0  0  0  0  0  0  0  0  0  0  0  0
    4.8064    1.3086   19.0597 C   0  0  0  0  0  0  0  0  0  0  0  0
    3.8779    1.8463   19.2241 H   0  0  0  0  0  0  0  0  0  0  0  0
  1  2  1  0
  2  3  2  0
  3  4  1  0
  4  5  1  0
  4  6  2  0
  6  7  1  0
  7  8  1  6
  7  9  1  0
  9 10  1  0
  9 11  1  0
  9 12  1  0
  7 13  1  0
 13 14  1  0
 13 15  1  0
 13 16  1  0
 16 17  2  0
 16 18  1  0
 18 19  1  0
 18 20  1  0
 20 21  1  0
 20 22  1  0
 22 23  1  0
 22 24  1  0
 22 25  1  0
 25 26  1  0
 25 27  1  0
 25 28  1  0
 28 29  1  0
 28 30  1  0
 28 31  1  0
 31 32  1  0
 31 33  1  0
 31 34  1  0
 34 35  1  0
 34 36  1  0
  6 37  1  0
 37 38  1  0
 37 39  2  0
 39 40  1  0
 39  2  1  0
 34 20  1  0
M  END
>  <cnnaffinity>  (1) 
-4.49137

>  <filename>  (1) 
C[C@H](CC(=O)NC1CCCCC1)c1cccnc1

$$$$
