
     RDKit          3D

 37 38  0  0  0  0  0  0  0  0999 V2000
    4.9310    1.7611   16.9483 H   0  0  0  0  0  0  0  0  0  0  0  0
    5.4272    1.2814   17.7896 C   0  0  0  0  0  0  0  0  0  0  0  0
    6.5713    0.6386   17.5077 N   0  0  0  0  0  0  0  0  0  0  0  0
    7.2092    0.0580   18.5333 C   0  0  0  0  0  0  0  0  0  0  0  0
    8.1246   -0.4762   18.2780 H   0  0  0  0  0  0  0  0  0  0  0  0
    6.7751    0.0962   19.8749 C   0  0  0  0  0  0  0  0  0  0  0  0
    7.5242   -0.6336   21.0006 C   0  0  1  0  0  0  0  0  0  0  0  0
    8.5143   -0.9180   20.6157 H   0  0  0  0  0  0  0  0  0  0  0  0
    7.7543    0.2587   22.2558 C   0  0  0  0  0  0  0  0  0  0  0  0
    6.9789    0.3160   23.1950 O   0  0  0  0  0  0  0  0  0  0  0  0
    8.9242    0.9800   22.2605 N   0  0  0  0  0  0  0  0  0  0  0  0
    9.3034    1.1889   21.3513 H   0  0  0  0  0  0  0  0  0  0  0  0
    9.1639    1.9675   23.3206 C   0  0  0  0  0  0  0  0  0  0  0  0
    9.2776    1.4386   24.2743 H   0  0  0  0  0  0  0  0  0  0  0  0
    8.2824    2.6135   23.4477 H   0  0  0  0  0  0  0  0  0  0  0  0
   10.3973    2.8072   23.0675 C   0  0  0  0  0  0  0  0  0  0  0  0
   11.6846    2.2407   23.0456 C   0  0  0  0  0  0  0  0  0  0  0  0
   11.7938    1.1747   23.2358 H   0  0  0  0  0  0  0  0  0  0  0  0
   12.8051    3.0243   22.7523 C   0  0  0  0  0  0  0  0  0  0  0  0
   13.7932    2.5683   22.7700 H   0  0  0  0  0  0  0  0  0  0  0  0
   12.6455    4.3880   22.4240 C   0  0  0  0  0  0  0  0  0  0  0  0
   13.8381    5.2106   21.9771 C   0  0  0  0  0  0  0  0  0  0  0  0
   14.8076    5.1915   22.9098 F   0  0  0  0  0  0  0  0  0  0  0  0
   14.3957    4.7444   20.8427 F   0  0  0  0  0  0  0  0  0  0  0  0
   13.5368    6.5034   21.7517 F   0  0  0  0  0  0  0  0  0  0  0  0
   11.3772    4.9747   22.5320 C   0  0  0  0  0  0  0  0  0  0  0  0
   11.2500    6.0392   22.3408 H   0  0  0  0  0  0  0  0  0  0  0  0
   10.2726    4.1881   22.8639 C   0  0  0  0  0  0  0  0  0  0  0  0
    9.2805    4.6258   22.9408 H   0  0  0  0  0  0  0  0  0  0  0  0
    6.7675   -1.9244   21.3826 C   0  0  0  0  0  0  0  0  0  0  0  0
    7.2950   -2.4764   22.1668 H   0  0  0  0  0  0  0  0  0  0  0  0
    5.7666   -1.6800   21.7559 H   0  0  0  0  0  0  0  0  0  0  0  0
    6.6491   -2.5810   20.5142 H   0  0  0  0  0  0  0  0  0  0  0  0
    5.5569    0.7408   20.1318 C   0  0  0  0  0  0  0  0  0  0  0  0
    5.1626    0.7532   21.1506 H   0  0  0  0  0  0  0  0  0  0  0  0
    4.8728    1.3435   19.0728 C   0  0  0  0  0  0  0  0  0  0  0  0
    3.9292    1.8559   19.2285 H   0  0  0  0  0  0  0  0  0  0  0  0
  1  2  1  0
  2  3  2  0
  3  4  1  0
  4  5  1  0
  4  6  2  0
  6  7  1  0
  7  8  1  6
  7  9  1  0
  9 10  2  0
  9 11  1  0
 11 12  1  0
 11 13  1  0
 13 14  1  0
 13 15  1  0
 13 16  1  0
 16 17  2  0
 17 18  1  0
 17 19  1  0
 19 20  1  0
 19 21  2  0
 21 22  1  0
 22 23  1  0
 22 24  1  0
 22 25  1  0
 21 26  1  0
 26 27  1  0
 26 28  2  0
 28 29  1  0
  7 30  1  0
 30 31  1  0
 30 32  1  0
 30 33  1  0
  6 34  1  0
 34 35  1  0
 34 36  2  0
 36 37  1  0
 36  2  1  0
 28 16  1  0
M  END
>  <cnnaffinity>  (1) 
-4.75186

>  <filename>  (1) 
C[C@H](C(=O)NCc1ccc(C(F)(F)F)cc1)c1cccnc1

$$$$
