
     RDKit          3D

 38 41  0  0  0  0  0  0  0  0999 V2000
    4.9594    1.8150   16.8270 H   0  0  0  0  0  0  0  0  0  0  0  0
    5.4489    1.3569   17.6863 C   0  0  0  0  0  0  0  0  0  0  0  0
    6.6243    0.7517   17.4552 N   0  0  0  0  0  0  0  0  0  0  0  0
    7.2388    0.1595   18.4845 C   0  0  0  0  0  0  0  0  0  0  0  0
    8.1849   -0.3312   18.2589 H   0  0  0  0  0  0  0  0  0  0  0  0
    6.7228    0.1331   19.7894 C   0  0  0  0  0  0  0  0  0  0  0  0
    7.4023   -0.6285   20.8543 C   0  0  0  0  0  0  0  0  0  0  0  0
    8.6095   -1.1820   20.6661 N   0  0  0  0  0  0  0  0  0  0  0  0
    8.7952   -1.8759   21.8110 N   0  0  0  0  0  0  0  0  0  0  0  0
    9.7945   -2.6828   22.3305 C   0  0  0  0  0  0  0  0  0  0  0  0
   10.7621   -2.7549   21.8709 H   0  0  0  0  0  0  0  0  0  0  0  0
    9.2835   -3.2051   23.4736 C   0  0  0  0  0  0  0  0  0  0  0  0
    9.7023   -3.9222   24.1569 H   0  0  0  0  0  0  0  0  0  0  0  0
    8.0030   -2.6977   23.6959 N   0  0  0  0  0  0  0  0  0  0  0  0
    6.9850   -3.0382   24.7069 C   0  0  1  0  0  0  0  0  0  0  0  0
    6.0819   -3.3488   24.1582 H   0  0  0  0  0  0  0  0  0  0  0  0
    7.3852   -4.1986   25.6138 C   0  0  0  0  0  0  0  0  0  0  0  0
    6.6331   -5.3844   25.6098 C   0  0  0  0  0  0  0  0  0  0  0  0
    5.8187   -5.4980   24.8999 H   0  0  0  0  0  0  0  0  0  0  0  0
    6.8974   -6.4179   26.5148 C   0  0  0  0  0  0  0  0  0  0  0  0
    6.2810   -7.3140   26.5053 H   0  0  0  0  0  0  0  0  0  0  0  0
    7.9444   -6.2807   27.4309 C   0  0  0  0  0  0  0  0  0  0  0  0
    8.1642   -7.0582   28.1578 H   0  0  0  0  0  0  0  0  0  0  0  0
    8.7265   -5.1250   27.4213 C   0  0  0  0  0  0  0  0  0  0  0  0
    9.5557   -5.0364   28.1133 H   0  0  0  0  0  0  0  0  0  0  0  0
    8.4515   -4.0881   26.5238 C   0  0  0  0  0  0  0  0  0  0  0  0
    9.0756   -3.1949   26.5353 H   0  0  0  0  0  0  0  0  0  0  0  0
    6.6093   -1.7973   25.5268 C   0  0  0  0  0  0  0  0  0  0  0  0
    5.7847   -2.0387   26.2037 H   0  0  0  0  0  0  0  0  0  0  0  0
    6.2913   -0.9841   24.8667 H   0  0  0  0  0  0  0  0  0  0  0  0
    7.4608   -1.4420   26.1185 H   0  0  0  0  0  0  0  0  0  0  0  0
    7.7526   -1.8219   22.6621 C   0  0  0  0  0  0  0  0  0  0  0  0
    6.8463   -0.9266   22.1229 C   0  0  0  0  0  0  0  0  0  0  0  0
    6.0205   -0.4165   22.5743 H   0  0  0  0  0  0  0  0  0  0  0  0
    5.4976    0.7836   20.0111 C   0  0  0  0  0  0  0  0  0  0  0  0
    5.0633    0.8142   21.0078 H   0  0  0  0  0  0  0  0  0  0  0  0
    4.8444    1.3911   18.9440 C   0  0  0  0  0  0  0  0  0  0  0  0
    3.8897    1.8886   19.0765 H   0  0  0  0  0  0  0  0  0  0  0  0
  1  2  1  0
  2  3  2  0
  3  4  1  0
  4  5  1  0
  4  6  2  0
  6  7  1  0
  7  8  2  0
  8  9  1  0
  9 10  1  0
 10 11  1  0
 10 12  2  0
 12 13  1  0
 12 14  1  0
 14 15  1  0
 15 16  1  6
 15 17  1  0
 17 18  2  0
 18 19  1  0
 18 20  1  0
 20 21  1  0
 20 22  2  0
 22 23  1  0
 22 24  1  0
 24 25  1  0
 24 26  2  0
 26 27  1  0
 15 28  1  0
 28 29  1  0
 28 30  1  0
 28 31  1  0
 14 32  1  0
 32 33  2  0
 33 34  1  0
  6 35  1  0
 35 36  1  0
 35 37  2  0
 37 38  1  0
 37  2  1  0
 33  7  1  0
 32  9  1  0
 26 17  1  0
M  END
>  <cnnaffinity>  (1) 
-5.75205

>  <filename>  (1) 
C[C@H](c1ccccc1)n1ccn2nc(-c3cccnc3)cc12

$$$$
