
     RDKit          3D

 38 40  0  0  0  0  0  0  0  0999 V2000
    8.8125   -0.0618   21.3146 C   0  0  0  0  0  0  0  0  0  0  0  0
    7.4303   -0.7086   21.1521 C   0  0  2  0  0  0  0  0  0  0  0  0
    7.6877   -2.1313   20.9464 N   0  0  0  0  0  0  0  0  0  0  0  0
    6.5685   -3.3277   21.1842 S   0  0  0  0  0  0  0  0  0  0  0  0
    5.4003   -3.0364   20.3737 O   0  0  0  0  0  0  0  0  0  0  0  0
    7.3396   -4.5186   20.8865 O   0  0  0  0  0  0  0  0  0  0  0  0
    6.1968   -3.2603   22.9109 C   0  0  0  0  0  0  0  0  0  0  0  0
    7.1701   -2.8251   23.7886 C   0  0  0  0  0  0  0  0  0  0  0  0
    6.9670   -2.9087   25.1846 C   0  0  0  0  0  0  0  0  0  0  0  0
    5.8018   -3.4185   25.7082 C   0  0  0  0  0  0  0  0  0  0  0  0
    4.7727   -3.8923   24.8395 C   0  0  0  0  0  0  0  0  0  0  0  0
    3.5489   -4.4399   25.3517 C   0  0  0  0  0  0  0  0  0  0  0  0
    2.5854   -4.9228   24.4964 C   0  0  0  0  0  0  0  0  0  0  0  0
    2.8134   -4.9278   23.0944 C   0  0  0  0  0  0  0  0  0  0  0  0
    3.9930   -4.4322   22.5821 C   0  0  0  0  0  0  0  0  0  0  0  0
    4.9791   -3.8494   23.4215 C   0  0  0  0  0  0  0  0  0  0  0  0
    4.2195   -4.4751   21.5348 H   0  0  0  0  0  0  0  0  0  0  0  0
    2.0556   -5.3169   22.4191 H   0  0  0  0  0  0  0  0  0  0  0  0
    1.6461   -5.3146   24.8836 H   0  0  0  0  0  0  0  0  0  0  0  0
    3.3993   -4.4716   26.4301 H   0  0  0  0  0  0  0  0  0  0  0  0
    5.6627   -3.5074   26.7841 H   0  0  0  0  0  0  0  0  0  0  0  0
    7.7579   -2.5713   25.8433 H   0  0  0  0  0  0  0  0  0  0  0  0
    8.1181   -2.4176   23.4393 H   0  0  0  0  0  0  0  0  0  0  0  0
    7.8833   -2.3565   19.9788 H   0  0  0  0  0  0  0  0  0  0  0  0
    6.6566   -0.1253   20.0008 C   0  0  0  0  0  0  0  0  0  0  0  0
    5.4616    0.5816   20.1933 C   0  0  0  0  0  0  0  0  0  0  0  0
    4.8931    1.2503   19.1089 C   0  0  0  0  0  0  0  0  0  0  0  0
    5.5375    1.1833   17.8689 C   0  0  0  0  0  0  0  0  0  0  0  0
    6.6639    0.4870   17.6551 N   0  0  0  0  0  0  0  0  0  0  0  0
    7.1888   -0.1643   18.7018 C   0  0  0  0  0  0  0  0  0  0  0  0
    8.1144   -0.7045   18.4814 H   0  0  0  0  0  0  0  0  0  0  0  0
    5.1292    1.7111   17.0103 H   0  0  0  0  0  0  0  0  0  0  0  0
    3.9862    1.8347   19.2216 H   0  0  0  0  0  0  0  0  0  0  0  0
    5.0046    0.6146   21.1851 H   0  0  0  0  0  0  0  0  0  0  0  0
    6.8663   -0.5664   22.0888 H   0  0  0  0  0  0  0  0  0  0  0  0
    8.7583    1.0147   21.4962 H   0  0  0  0  0  0  0  0  0  0  0  0
    9.3330   -0.5282   22.1576 H   0  0  0  0  0  0  0  0  0  0  0  0
    9.4292   -0.2112   20.4199 H   0  0  0  0  0  0  0  0  0  0  0  0
  1  2  1  0
  2  3  1  0
  3  4  1  0
  4  5  2  0
  4  6  2  0
  4  7  1  0
  7  8  2  0
  8  9  1  0
  9 10  2  0
 10 11  1  0
 11 12  2  0
 12 13  1  0
 13 14  2  0
 14 15  1  0
 15 16  2  0
 15 17  1  0
 14 18  1  0
 13 19  1  0
 12 20  1  0
 10 21  1  0
  9 22  1  0
  8 23  1  0
  3 24  1  0
  2 25  1  0
 25 26  2  0
 26 27  1  0
 27 28  2  0
 28 29  1  0
 29 30  2  0
 30 31  1  0
 28 32  1  0
 27 33  1  0
 26 34  1  0
  2 35  1  1
  1 36  1  0
  1 37  1  0
  1 38  1  0
 16  7  1  0
 30 25  1  0
 16 11  1  0
M  END
>  <cnnaffinity>  (1) 
-5.35303

>  <filename>  (1) 
C[C@H](NS(=O)(=O)c1cccc2ccccc12)c1cccnc1

$$$$
