
     RDKit          3D

 30 31  0  0  0  0  0  0  0  0999 V2000
   12.6065   -1.0785   20.8766 H   0  0  0  0  0  0  0  0  0  0  0  0
   12.0613   -1.3897   21.6167 O   0  0  0  0  0  0  0  0  0  0  0  0
   11.4169   -0.2585   21.9352 C   0  0  0  0  0  0  0  0  0  0  0  0
   11.6512    0.7543   21.3195 O   0  0  0  0  0  0  0  0  0  0  0  0
   10.3954   -0.4554   23.0719 C   0  0  2  0  0  0  0  0  0  0  0  0
   10.8108   -1.2549   23.6953 H   0  0  0  0  0  0  0  0  0  0  0  0
    9.0503   -0.9360   22.5435 C   0  0  0  0  0  0  0  0  0  0  0  0
    8.4380   -0.3693   21.4826 C   0  0  0  0  0  0  0  0  0  0  0  0
    8.8546    0.4921   20.9595 H   0  0  0  0  0  0  0  0  0  0  0  0
    7.2290   -0.8356   20.9932 N   0  0  0  0  0  0  0  0  0  0  0  0
    6.6251   -0.1138   19.9067 C   0  0  0  0  0  0  0  0  0  0  0  0
    7.2650   -0.0007   18.6601 C   0  0  0  0  0  0  0  0  0  0  0  0
    8.2218   -0.4992   18.4981 H   0  0  0  0  0  0  0  0  0  0  0  0
    6.7494    0.6846   17.6347 N   0  0  0  0  0  0  0  0  0  0  0  0
    5.5834    1.3210   17.8325 C   0  0  0  0  0  0  0  0  0  0  0  0
    5.1892    1.8734   16.9819 H   0  0  0  0  0  0  0  0  0  0  0  0
    4.8855    1.2814   19.0433 C   0  0  0  0  0  0  0  0  0  0  0  0
    3.9613    1.8358   19.1465 H   0  0  0  0  0  0  0  0  0  0  0  0
    5.4062    0.5364   20.1034 C   0  0  0  0  0  0  0  0  0  0  0  0
    4.9040    0.4700   21.0686 H   0  0  0  0  0  0  0  0  0  0  0  0
    6.5597   -1.9263   21.5949 C   0  0  0  0  0  0  0  0  0  0  0  0
    5.5525   -2.4438   21.1778 O   0  0  0  0  0  0  0  0  0  0  0  0
    7.1488   -2.3931   22.7253 N   0  0  0  0  0  0  0  0  0  0  0  0
    6.7006   -3.1873   23.1372 H   0  0  0  0  0  0  0  0  0  0  0  0
    8.3716   -2.0535   23.2382 C   0  0  0  0  0  0  0  0  0  0  0  0
    8.7918   -2.6853   24.1847 O   0  0  0  0  0  0  0  0  0  0  0  0
   10.2613    0.8185   23.9344 C   0  0  0  0  0  0  0  0  0  0  0  0
    9.5443    0.6671   24.7483 H   0  0  0  0  0  0  0  0  0  0  0  0
   11.2253    1.0870   24.3783 H   0  0  0  0  0  0  0  0  0  0  0  0
    9.9202    1.6646   23.3299 H   0  0  0  0  0  0  0  0  0  0  0  0
  1  2  1  0
  2  3  1  0
  3  4  2  0
  3  5  1  0
  5  6  1  1
  5  7  1  0
  7  8  2  0
  8  9  1  0
  8 10  1  0
 10 11  1  0
 11 12  2  0
 12 13  1  0
 12 14  1  0
 14 15  2  0
 15 16  1  0
 15 17  1  0
 17 18  1  0
 17 19  2  0
 19 20  1  0
 10 21  1  0
 21 22  2  0
 21 23  1  0
 23 24  1  0
 23 25  1  0
 25 26  2  0
  5 27  1  0
 27 28  1  0
 27 29  1  0
 27 30  1  0
 25  7  1  0
 19 11  1  0
M  END
>  <cnnaffinity>  (1) 
-4.69676

>  <filename>  (1) 
C[C@H](C(=O)O)c1cn(-c2cccnc2)c(=O)[nH]c1=O

$$$$
