
     RDKit          3D

 42 45  0  0  0  0  0  0  0  0999 V2000
    4.9645    1.8230   16.9732 H   0  0  0  0  0  0  0  0  0  0  0  0
    5.4113    1.2905   17.8105 C   0  0  0  0  0  0  0  0  0  0  0  0
    6.5587    0.6372   17.5679 N   0  0  0  0  0  0  0  0  0  0  0  0
    7.1498    0.0119   18.5916 C   0  0  0  0  0  0  0  0  0  0  0  0
    8.0780   -0.5091   18.3583 H   0  0  0  0  0  0  0  0  0  0  0  0
    6.6538    0.0275   19.9060 C   0  0  0  0  0  0  0  0  0  0  0  0
    7.4293   -0.6182   20.9708 C   0  0  0  0  0  0  0  0  0  0  0  0
    7.9855   -1.8667   20.7865 N   0  0  0  0  0  0  0  0  0  0  0  0
    8.4710   -2.1697   21.9577 C   0  0  0  0  0  0  0  0  0  0  0  0
    9.2514   -3.5487   22.6970 S   0  0  0  0  0  0  0  0  0  0  0  0
    9.5126   -2.6257   24.1671 C   0  0  0  0  0  0  0  0  0  0  0  0
   10.1426   -3.0241   24.9517 H   0  0  0  0  0  0  0  0  0  0  0  0
    8.9348   -1.4149   24.1141 C   0  0  0  0  0  0  0  0  0  0  0  0
    8.8744   -0.6510   24.8764 H   0  0  0  0  0  0  0  0  0  0  0  0
    8.3346   -1.1667   22.8827 N   0  0  0  0  0  0  0  0  0  0  0  0
    7.6799   -0.1349   22.2471 C   0  0  0  0  0  0  0  0  0  0  0  0
    7.3000    1.1204   22.9581 C   0  0  0  0  0  0  0  0  0  0  0  0
    6.9815    1.8549   22.2134 H   0  0  0  0  0  0  0  0  0  0  0  0
    8.1727    1.5519   23.4622 H   0  0  0  0  0  0  0  0  0  0  0  0
    6.1787    0.8927   23.9803 C   0  0  0  0  0  0  0  0  0  0  0  0
    5.3514    0.3811   23.4625 H   0  0  0  0  0  0  0  0  0  0  0  0
    6.5383    0.2000   24.7489 H   0  0  0  0  0  0  0  0  0  0  0  0
    5.7178    2.1210   24.5952 N   0  0  0  0  0  0  0  0  0  0  0  0
    4.9818    3.0044   23.6942 C   0  0  0  0  0  0  0  0  0  0  0  0
    5.6748    3.5844   23.0701 H   0  0  0  0  0  0  0  0  0  0  0  0
    4.3426    2.4245   23.0030 H   0  0  0  0  0  0  0  0  0  0  0  0
    4.1230    3.8960   24.6040 C   0  0  0  0  0  0  0  0  0  0  0  0
    4.3929    4.9484   24.4957 H   0  0  0  0  0  0  0  0  0  0  0  0
    3.0683    3.8003   24.3354 H   0  0  0  0  0  0  0  0  0  0  0  0
    4.3915    3.3846   26.0283 C   0  0  0  0  0  0  0  0  0  0  0  0
    3.4999    3.3841   26.6616 H   0  0  0  0  0  0  0  0  0  0  0  0
    5.1417    4.0063   26.5202 H   0  0  0  0  0  0  0  0  0  0  0  0
    4.9619    1.9740   25.8421 C   0  0  1  0  0  0  0  0  0  0  0  0
    5.6667    1.7394   26.6535 H   0  0  0  0  0  0  0  0  0  0  0  0
    3.8817    0.8821   25.8267 C   0  0  0  0  0  0  0  0  0  0  0  0
    3.3056    0.9081   26.7543 H   0  0  0  0  0  0  0  0  0  0  0  0
    3.1825    1.0022   24.9903 H   0  0  0  0  0  0  0  0  0  0  0  0
    4.3298   -0.1148   25.7660 H   0  0  0  0  0  0  0  0  0  0  0  0
    5.4228    0.6733   20.1249 C   0  0  0  0  0  0  0  0  0  0  0  0
    4.9483    0.6652   21.1077 H   0  0  0  0  0  0  0  0  0  0  0  0
    4.7915    1.3137   19.0625 C   0  0  0  0  0  0  0  0  0  0  0  0
    3.8583    1.8488   19.1991 H   0  0  0  0  0  0  0  0  0  0  0  0
  1  2  1  0
  2  3  2  0
  3  4  1  0
  4  5  1  0
  4  6  2  0
  6  7  1  0
  7  8  1  0
  8  9  2  0
  9 10  1  0
 10 11  1  0
 11 12  1  0
 11 13  2  0
 13 14  1  0
 13 15  1  0
 15 16  1  0
 16 17  1  0
 17 18  1  0
 17 19  1  0
 17 20  1  0
 20 21  1  0
 20 22  1  0
 20 23  1  0
 23 24  1  0
 24 25  1  0
 24 26  1  0
 24 27  1  0
 27 28  1  0
 27 29  1  0
 27 30  1  0
 30 31  1  0
 30 32  1  0
 30 33  1  0
 33 34  1  1
 33 35  1  0
 35 36  1  0
 35 37  1  0
 35 38  1  0
  6 39  1  0
 39 40  1  0
 39 41  2  0
 41 42  1  0
 41  2  1  0
 16  7  2  0
 33 23  1  0
 15  9  1  0
M  END
>  <cnnaffinity>  (1) 
-5.49676

>  <filename>  (1) 
C[C@@H]1CCCN1CCc1c(-c2cccnc2)nc2sccn12

$$$$
