
     RDKit          3D

 27 28  0  0  0  0  0  0  0  0999 V2000
    5.4514   -3.3674   18.3943 H   0  0  0  0  0  0  0  0  0  0  0  0
    5.3609   -2.6731   19.0691 O   0  0  0  0  0  0  0  0  0  0  0  0
    5.8280   -3.3535   20.1183 C   0  0  0  0  0  0  0  0  0  0  0  0
    6.1947   -4.4915   19.9675 O   0  0  0  0  0  0  0  0  0  0  0  0
    5.7399   -2.6075   21.4301 C   0  0  2  0  0  0  0  0  0  0  0  0
    5.0440   -1.7799   21.3115 H   0  0  0  0  0  0  0  0  0  0  0  0
    7.0607   -1.9353   21.6031 C   0  0  0  0  0  0  0  0  0  0  0  0
    8.0008   -2.2871   22.4196 N   0  0  0  0  0  0  0  0  0  0  0  0
    8.9702   -1.3462   22.2394 N   0  0  0  0  0  0  0  0  0  0  0  0
    9.7993   -1.2824   22.8133 H   0  0  0  0  0  0  0  0  0  0  0  0
    8.6605   -0.3897   21.3461 C   0  0  0  0  0  0  0  0  0  0  0  0
    9.5997    0.9171   20.9436 S   0  0  0  0  0  0  0  0  0  0  0  0
    7.4142   -0.7928   20.8829 N   0  0  0  0  0  0  0  0  0  0  0  0
    6.6845   -0.0888   19.8540 C   0  0  0  0  0  0  0  0  0  0  0  0
    7.1866    0.0013   18.5394 C   0  0  0  0  0  0  0  0  0  0  0  0
    8.1452   -0.4554   18.2933 H   0  0  0  0  0  0  0  0  0  0  0  0
    6.5576    0.6405   17.5442 N   0  0  0  0  0  0  0  0  0  0  0  0
    5.4067    1.2744   17.8240 C   0  0  0  0  0  0  0  0  0  0  0  0
    4.9309    1.8126   17.0030 H   0  0  0  0  0  0  0  0  0  0  0  0
    4.8448    1.2728   19.1008 C   0  0  0  0  0  0  0  0  0  0  0  0
    3.9255    1.8142   19.2798 H   0  0  0  0  0  0  0  0  0  0  0  0
    5.4934    0.5837   20.1347 C   0  0  0  0  0  0  0  0  0  0  0  0
    5.1105    0.5916   21.1537 H   0  0  0  0  0  0  0  0  0  0  0  0
    5.2682   -3.5260   22.5733 C   0  0  0  0  0  0  0  0  0  0  0  0
    5.9845   -4.3334   22.7436 H   0  0  0  0  0  0  0  0  0  0  0  0
    4.3022   -3.9629   22.3016 H   0  0  0  0  0  0  0  0  0  0  0  0
    5.1343   -2.9882   23.5158 H   0  0  0  0  0  0  0  0  0  0  0  0
  1  2  1  0
  2  3  1  0
  3  4  2  0
  3  5  1  0
  5  6  1  6
  5  7  1  0
  7  8  2  0
  8  9  1  0
  9 10  1  0
  9 11  1  0
 11 12  2  0
 11 13  1  0
 13 14  1  0
 14 15  2  0
 15 16  1  0
 15 17  1  0
 17 18  2  0
 18 19  1  0
 18 20  1  0
 20 21  1  0
 20 22  2  0
 22 23  1  0
  5 24  1  0
 24 25  1  0
 24 26  1  0
 24 27  1  0
 13  7  1  0
 22 14  1  0
M  END
>  <cnnaffinity>  (1) 
-4.77774

>  <filename>  (1) 
C[C@H](C(=O)O)c1n[nH]c(=S)n1-c1cccnc1

$$$$
