
     RDKit          3D

 25 26  0  0  0  0  0  0  0  0999 V2000
    9.5459   -1.0864   24.9107 H   0  0  0  0  0  0  0  0  0  0  0  0
    9.3453   -2.0295   24.8793 O   0  0  0  0  0  0  0  0  0  0  0  0
    8.0596   -2.1433   24.2904 C   0  0  1  0  0  0  0  0  0  0  0  0
    7.3250   -1.5700   24.8796 H   0  0  0  0  0  0  0  0  0  0  0  0
    7.9966   -1.5761   22.8859 C   0  0  0  0  0  0  0  0  0  0  0  0
    7.0013   -0.8455   22.2771 C   0  0  0  0  0  0  0  0  0  0  0  0
    6.0948   -0.4691   22.7233 H   0  0  0  0  0  0  0  0  0  0  0  0
    7.3946   -0.6946   20.9319 C   0  0  0  0  0  0  0  0  0  0  0  0
    6.6655    0.0097   19.8760 C   0  0  0  0  0  0  0  0  0  0  0  0
    7.1793    0.0575   18.5669 C   0  0  0  0  0  0  0  0  0  0  0  0
    8.1293   -0.4181   18.3302 H   0  0  0  0  0  0  0  0  0  0  0  0
    6.5637    0.6742   17.5528 N   0  0  0  0  0  0  0  0  0  0  0  0
    5.4042    1.2918   17.8213 C   0  0  0  0  0  0  0  0  0  0  0  0
    4.9345    1.7999   16.9834 H   0  0  0  0  0  0  0  0  0  0  0  0
    4.8113    1.3072   19.0878 C   0  0  0  0  0  0  0  0  0  0  0  0
    3.8809    1.8339   19.2453 H   0  0  0  0  0  0  0  0  0  0  0  0
    5.4464    0.6536   20.1362 C   0  0  0  0  0  0  0  0  0  0  0  0
    5.0096    0.6494   21.1365 H   0  0  0  0  0  0  0  0  0  0  0  0
    8.5653   -1.2950   20.7147 N   0  0  0  0  0  0  0  0  0  0  0  0
    8.9084   -1.8175   21.9019 N   0  0  0  0  0  0  0  0  0  0  0  0
    9.7868   -2.3149   21.9880 H   0  0  0  0  0  0  0  0  0  0  0  0
    7.6678   -3.6146   24.3451 C   0  0  0  0  0  0  0  0  0  0  0  0
    8.3563   -4.2164   23.7445 H   0  0  0  0  0  0  0  0  0  0  0  0
    6.6594   -3.7315   23.9418 H   0  0  0  0  0  0  0  0  0  0  0  0
    7.6875   -3.9817   25.3760 H   0  0  0  0  0  0  0  0  0  0  0  0
  1  2  1  0
  2  3  1  0
  3  4  1  1
  3  5  1  0
  5  6  2  0
  6  7  1  0
  6  8  1  0
  8  9  1  0
  9 10  2  0
 10 11  1  0
 10 12  1  0
 12 13  2  0
 13 14  1  0
 13 15  1  0
 15 16  1  0
 15 17  2  0
 17 18  1  0
  8 19  2  0
 19 20  1  0
 20 21  1  0
  3 22  1  0
 22 23  1  0
 22 24  1  0
 22 25  1  0
 20  5  1  0
 17  9  1  0
M  END
>  <cnnaffinity>  (1) 
-4.22848

>  <filename>  (1) 
C[C@@H](O)c1cc(-c2cccnc2)n[nH]1

$$$$
