
     RDKit          3D

 34 36  0  0  0  0  0  0  0  0999 V2000
    4.9429    1.8938   16.6651 H   0  0  0  0  0  0  0  0  0  0  0  0
    5.2953    1.4644   17.6004 C   0  0  0  0  0  0  0  0  0  0  0  0
    6.4699    0.8199   17.5421 N   0  0  0  0  0  0  0  0  0  0  0  0
    6.9272    0.2898   18.6792 C   0  0  0  0  0  0  0  0  0  0  0  0
    7.8865   -0.2143   18.6004 H   0  0  0  0  0  0  0  0  0  0  0  0
    6.2762    0.3540   19.9263 C   0  0  0  0  0  0  0  0  0  0  0  0
    6.9555   -0.2840   21.0710 C   0  0  0  0  0  0  0  0  0  0  0  0
    8.0176   -1.1699   21.0671 C   0  0  0  0  0  0  0  0  0  0  0  0
    8.5197   -1.5803   20.2048 H   0  0  0  0  0  0  0  0  0  0  0  0
    8.2947   -1.4700   22.4224 C   0  0  0  0  0  0  0  0  0  0  0  0
    9.3117   -2.4391   23.0096 C   0  0  1  0  0  0  0  0  0  0  0  0
    9.3408   -2.2043   24.0815 H   0  0  0  0  0  0  0  0  0  0  0  0
    8.7917   -3.8950   22.8971 C   0  0  0  0  0  0  0  0  0  0  0  0
    8.7630   -4.7442   24.0160 C   0  0  0  0  0  0  0  0  0  0  0  0
    9.2088   -4.4311   24.9602 H   0  0  0  0  0  0  0  0  0  0  0  0
    8.1195   -5.9863   23.9622 C   0  0  0  0  0  0  0  0  0  0  0  0
    8.0566   -6.5666   24.8795 H   0  0  0  0  0  0  0  0  0  0  0  0
    7.5265   -6.4277   22.7741 C   0  0  0  0  0  0  0  0  0  0  0  0
    6.9839   -7.3702   22.7358 H   0  0  0  0  0  0  0  0  0  0  0  0
    7.6143   -5.6332   21.6283 C   0  0  0  0  0  0  0  0  0  0  0  0
    7.1646   -5.9596   20.6944 H   0  0  0  0  0  0  0  0  0  0  0  0
    8.2328   -4.3811   21.7014 C   0  0  0  0  0  0  0  0  0  0  0  0
    8.2411   -3.7475   20.8248 H   0  0  0  0  0  0  0  0  0  0  0  0
   10.7406   -2.1704   22.4534 C   0  0  0  0  0  0  0  0  0  0  0  0
   10.7726   -2.1834   21.3562 H   0  0  0  0  0  0  0  0  0  0  0  0
   11.4528   -2.9185   22.8109 H   0  0  0  0  0  0  0  0  0  0  0  0
   11.0960   -1.1878   22.7966 H   0  0  0  0  0  0  0  0  0  0  0  0
    7.4807   -0.7875   23.2144 N   0  0  0  0  0  0  0  0  0  0  0  0
    6.6765   -0.0936   22.3872 N   0  0  0  0  0  0  0  0  0  0  0  0
    6.0751    0.6058   22.7999 H   0  0  0  0  0  0  0  0  0  0  0  0
    5.0373    1.0207   19.9602 C   0  0  0  0  0  0  0  0  0  0  0  0
    4.4642    1.1005   20.8854 H   0  0  0  0  0  0  0  0  0  0  0  0
    4.5437    1.5791   18.7768 C   0  0  0  0  0  0  0  0  0  0  0  0
    3.5970    2.1059   18.7510 H   0  0  0  0  0  0  0  0  0  0  0  0
  1  2  1  0
  2  3  2  0
  3  4  1  0
  4  5  1  0
  4  6  2  0
  6  7  1  0
  7  8  2  0
  8  9  1  0
  8 10  1  0
 10 11  1  0
 11 12  1  1
 11 13  1  0
 13 14  2  0
 14 15  1  0
 14 16  1  0
 16 17  1  0
 16 18  2  0
 18 19  1  0
 18 20  1  0
 20 21  1  0
 20 22  2  0
 22 23  1  0
 11 24  1  0
 24 25  1  0
 24 26  1  0
 24 27  1  0
 10 28  2  0
 28 29  1  0
 29 30  1  0
  6 31  1  0
 31 32  1  0
 31 33  2  0
 33 34  1  0
 33  2  1  0
 29  7  1  0
 22 13  1  0
M  END
>  <cnnaffinity>  (1) 
-5.46327

>  <filename>  (1) 
C[C@H](c1ccccc1)c1cc(-c2cccnc2)[nH]n1

$$$$
