
     RDKit          3D

 32 34  0  0  0  0  0  0  0  0999 V2000
    4.9660    1.7805   16.9134 H   0  0  0  0  0  0  0  0  0  0  0  0
    5.4027    1.3103   17.7940 C   0  0  0  0  0  0  0  0  0  0  0  0
    6.5685    0.6735   17.6154 N   0  0  0  0  0  0  0  0  0  0  0  0
    7.1225    0.0996   18.6938 C   0  0  0  0  0  0  0  0  0  0  0  0
    8.0546   -0.4366   18.5152 H   0  0  0  0  0  0  0  0  0  0  0  0
    6.5856    0.1332   19.9919 C   0  0  0  0  0  0  0  0  0  0  0  0
    7.3373   -0.4972   21.1527 C   0  0  2  0  0  0  0  0  0  0  0  0
    6.7225   -0.3716   22.0542 H   0  0  0  0  0  0  0  0  0  0  0  0
    8.7210    0.1392   21.3877 C   0  0  0  0  0  0  0  0  0  0  0  0
    9.3938   -0.0329   20.5355 H   0  0  0  0  0  0  0  0  0  0  0  0
    8.6764    1.2181   21.5531 H   0  0  0  0  0  0  0  0  0  0  0  0
    9.1929   -0.3283   22.2570 H   0  0  0  0  0  0  0  0  0  0  0  0
    7.5318   -2.0121   20.9101 C   0  0  0  0  0  0  0  0  0  0  0  0
    8.3293   -2.0991   20.1750 H   0  0  0  0  0  0  0  0  0  0  0  0
    6.6228   -2.4793   20.5263 H   0  0  0  0  0  0  0  0  0  0  0  0
    8.0145   -2.7745   22.0909 C   0  0  0  0  0  0  0  0  0  0  0  0
    9.2471   -3.0362   22.3588 N   0  0  0  0  0  0  0  0  0  0  0  0
    9.1936   -3.7636   23.5451 C   0  0  0  0  0  0  0  0  0  0  0  0
   10.2101   -4.3314   24.3218 C   0  0  0  0  0  0  0  0  0  0  0  0
   11.2450   -4.2099   24.0200 H   0  0  0  0  0  0  0  0  0  0  0  0
    9.8384   -5.0407   25.4625 C   0  0  0  0  0  0  0  0  0  0  0  0
   10.6174   -5.4854   26.0770 H   0  0  0  0  0  0  0  0  0  0  0  0
    8.4799   -5.1808   25.8231 C   0  0  0  0  0  0  0  0  0  0  0  0
    8.2277   -5.7494   26.7162 H   0  0  0  0  0  0  0  0  0  0  0  0
    7.4574   -4.6067   25.0581 C   0  0  0  0  0  0  0  0  0  0  0  0
    6.4141   -4.6637   25.3555 H   0  0  0  0  0  0  0  0  0  0  0  0
    7.8572   -3.8991   23.9261 C   0  0  0  0  0  0  0  0  0  0  0  0
    7.0975   -3.2504   22.9854 O   0  0  0  0  0  0  0  0  0  0  0  0
    5.3422    0.7707   20.1412 C   0  0  0  0  0  0  0  0  0  0  0  0
    4.8479    0.7928   21.1158 H   0  0  0  0  0  0  0  0  0  0  0  0
    4.7455    1.3697   19.0274 C   0  0  0  0  0  0  0  0  0  0  0  0
    3.7924    1.8822   19.1012 H   0  0  0  0  0  0  0  0  0  0  0  0
  1  2  1  0
  2  3  2  0
  3  4  1  0
  4  5  1  0
  4  6  2  0
  6  7  1  0
  7  8  1  1
  7  9  1  0
  9 10  1  0
  9 11  1  0
  9 12  1  0
  7 13  1  0
 13 14  1  0
 13 15  1  0
 13 16  1  0
 16 17  2  0
 17 18  1  0
 18 19  2  0
 19 20  1  0
 19 21  1  0
 21 22  1  0
 21 23  2  0
 23 24  1  0
 23 25  1  0
 25 26  1  0
 25 27  2  0
 27 28  1  0
  6 29  1  0
 29 30  1  0
 29 31  2  0
 31 32  1  0
 31  2  1  0
 28 16  1  0
 27 18  1  0
M  END
>  <cnnaffinity>  (1) 
-5.20867

>  <filename>  (1) 
C[C@H](Cc1nc2ccccc2o1)c1cccnc1

$$$$
