
     RDKit          3D

 38 40  0  0  0  0  0  0  0  0999 V2000
    6.8429   -2.0350   21.1868 C   0  0  0  0  0  0  0  0  0  0  0  0
    7.0755   -0.5310   21.1364 C   0  0  1  0  0  0  0  0  0  0  0  0
    8.4981   -0.1899   21.1447 N   0  0  0  0  0  0  0  0  0  0  0  0
    9.3454   -0.1348   22.5600 S   0  0  0  0  0  0  0  0  0  0  0  0
    8.9957   -1.3071   23.3505 O   0  0  0  0  0  0  0  0  0  0  0  0
   10.6981    0.0372   22.0736 O   0  0  0  0  0  0  0  0  0  0  0  0
    8.7015    1.2978   23.3447 C   0  0  0  0  0  0  0  0  0  0  0  0
    8.2440    2.3747   22.5871 C   0  0  0  0  0  0  0  0  0  0  0  0
    7.5278    3.4033   23.2113 C   0  0  0  0  0  0  0  0  0  0  0  0
    7.2261    3.3940   24.5595 C   0  0  0  0  0  0  0  0  0  0  0  0
    7.7433    2.3757   25.4300 C   0  0  0  0  0  0  0  0  0  0  0  0
    7.5837    2.6669   28.0569 C   0  0  0  0  0  0  0  0  0  0  0  0
    7.6369    2.2424   26.8291 C   0  0  0  0  0  0  0  0  0  0  0  0
    9.4357    0.5941   25.6819 C   0  0  0  0  0  0  0  0  0  0  0  0
    9.5949    0.6512   25.6945 C   0  0  0  0  0  0  0  0  0  0  0  0
    8.6173    1.3348   24.7663 C   0  0  0  0  0  0  0  0  0  0  0  0
    9.5990   -0.4959   25.1940 H   0  0  0  0  0  0  0  0  0  0  0  0
   10.1942    0.8294   26.7184 H   0  0  0  0  0  0  0  0  0  0  0  0
    7.3673    2.0775   28.9701 H   0  0  0  0  0  0  0  0  0  0  0  0
    7.8665    3.7245   28.1979 H   0  0  0  0  0  0  0  0  0  0  0  0
    6.6133    4.1742   25.0097 H   0  0  0  0  0  0  0  0  0  0  0  0
    7.1848    4.2395   22.6028 H   0  0  0  0  0  0  0  0  0  0  0  0
    8.3782    2.4446   21.5022 H   0  0  0  0  0  0  0  0  0  0  0  0
    9.1196   -0.8230   20.6566 H   0  0  0  0  0  0  0  0  0  0  0  0
    6.4794    0.1314   19.9212 C   0  0  0  0  0  0  0  0  0  0  0  0
    5.2319    0.7725   19.9649 C   0  0  0  0  0  0  0  0  0  0  0  0
    4.7394    1.3689   18.8048 C   0  0  0  0  0  0  0  0  0  0  0  0
    5.5067    1.2991   17.6369 C   0  0  0  0  0  0  0  0  0  0  0  0
    6.6882    0.6711   17.5694 N   0  0  0  0  0  0  0  0  0  0  0  0
    7.1585    0.1166   18.6958 C   0  0  0  0  0  0  0  0  0  0  0  0
    8.1279   -0.3668   18.5942 H   0  0  0  0  0  0  0  0  0  0  0  0
    5.1577    1.7669   16.7173 H   0  0  0  0  0  0  0  0  0  0  0  0
    3.7931    1.8982   18.7943 H   0  0  0  0  0  0  0  0  0  0  0  0
    4.6607    0.8187   20.8944 H   0  0  0  0  0  0  0  0  0  0  0  0
    6.5848   -0.0749   22.0072 H   0  0  0  0  0  0  0  0  0  0  0  0
    7.3579   -2.4672   22.0466 H   0  0  0  0  0  0  0  0  0  0  0  0
    5.7715   -2.2348   21.2725 H   0  0  0  0  0  0  0  0  0  0  0  0
    7.2008   -2.5087   20.2700 H   0  0  0  0  0  0  0  0  0  0  0  0
  1  2  1  0
  2  3  1  0
  3  4  1  0
  4  5  2  0
  4  6  2  0
  4  7  1  0
  7  8  2  0
  8  9  1  0
  9 10  2  0
 10 11  1  0
 11 12  2  0
 12 13  1  0
 13 14  2  0
 14 15  1  0
 15 16  2  0
 15 17  1  0
 14 18  1  0
 13 19  1  0
 12 20  1  0
 10 21  1  0
  9 22  1  0
  8 23  1  0
  3 24  1  0
  2 25  1  0
 25 26  2  0
 26 27  1  0
 27 28  2  0
 28 29  1  0
 29 30  2  0
 30 31  1  0
 28 32  1  0
 27 33  1  0
 26 34  1  0
  2 35  1  1
  1 36  1  0
  1 37  1  0
  1 38  1  0
 16  7  1  0
 30 25  1  0
 16 11  1  0
M  END
>  <cnnaffinity>  (1) 
-5.06075

>  <filename>  (1) 
C[C@@H](NS(=O)(=O)c1cccc2ccccc12)c1cccnc1

$$$$
