
     RDKit          3D

 32 34  0  0  0  0  0  0  0  0999 V2000
    4.9137    1.7862   16.9953 H   0  0  0  0  0  0  0  0  0  0  0  0
    5.4015    1.2937   17.8355 C   0  0  0  0  0  0  0  0  0  0  0  0
    6.5673    0.6796   17.5691 N   0  0  0  0  0  0  0  0  0  0  0  0
    7.1787    0.0602   18.5858 C   0  0  0  0  0  0  0  0  0  0  0  0
    8.1220   -0.4253   18.3500 H   0  0  0  0  0  0  0  0  0  0  0  0
    6.6864   -0.0228   19.9190 C   0  0  0  0  0  0  0  0  0  0  0  0
    7.3573   -0.7748   20.8861 N   0  0  0  0  0  0  0  0  0  0  0  0
    8.2352   -1.2021   20.6229 H   0  0  0  0  0  0  0  0  0  0  0  0
    7.0353   -0.7194   22.3044 C   0  0  2  0  0  0  0  0  0  0  0  0
    5.9833   -0.9867   22.4059 H   0  0  0  0  0  0  0  0  0  0  0  0
    7.1322    0.6635   22.9257 C   0  0  0  0  0  0  0  0  0  0  0  0
    6.2540    1.2006   23.7312 N   0  0  0  0  0  0  0  0  0  0  0  0
    6.8012    2.4284   24.0715 C   0  0  0  0  0  0  0  0  0  0  0  0
    6.3015    3.4422   24.8982 C   0  0  0  0  0  0  0  0  0  0  0  0
    5.3402    3.2918   25.3810 H   0  0  0  0  0  0  0  0  0  0  0  0
    7.0654    4.5977   25.0600 C   0  0  0  0  0  0  0  0  0  0  0  0
    6.6936    5.3981   25.6961 H   0  0  0  0  0  0  0  0  0  0  0  0
    8.3205    4.7496   24.4044 C   0  0  0  0  0  0  0  0  0  0  0  0
    8.8948    5.6646   24.5455 H   0  0  0  0  0  0  0  0  0  0  0  0
    8.8324    3.7510   23.5799 C   0  0  0  0  0  0  0  0  0  0  0  0
    9.7887    3.8418   23.0583 H   0  0  0  0  0  0  0  0  0  0  0  0
    8.0486    2.6033   23.4414 C   0  0  0  0  0  0  0  0  0  0  0  0
    8.2342    1.4460   22.7288 N   0  0  0  0  0  0  0  0  0  0  0  0
    9.0051    1.2421   22.1264 H   0  0  0  0  0  0  0  0  0  0  0  0
    7.8918   -1.7247   23.0716 C   0  0  0  0  0  0  0  0  0  0  0  0
    8.9489   -1.4431   23.0312 H   0  0  0  0  0  0  0  0  0  0  0  0
    7.7626   -2.7302   22.6665 H   0  0  0  0  0  0  0  0  0  0  0  0
    7.5931   -1.7377   24.1242 H   0  0  0  0  0  0  0  0  0  0  0  0
    5.4633    0.6362   20.1732 C   0  0  0  0  0  0  0  0  0  0  0  0
    5.0249    0.6250   21.1745 H   0  0  0  0  0  0  0  0  0  0  0  0
    4.8271    1.2974   19.1121 C   0  0  0  0  0  0  0  0  0  0  0  0
    3.8933    1.8270   19.2660 H   0  0  0  0  0  0  0  0  0  0  0  0
  1  2  1  0
  2  3  2  0
  3  4  1  0
  4  5  1  0
  4  6  2  0
  6  7  1  0
  7  8  1  0
  7  9  1  0
  9 10  1  6
  9 11  1  0
 11 12  2  0
 12 13  1  0
 13 14  2  0
 14 15  1  0
 14 16  1  0
 16 17  1  0
 16 18  2  0
 18 19  1  0
 18 20  1  0
 20 21  1  0
 20 22  2  0
 22 23  1  0
 23 24  1  0
  9 25  1  0
 25 26  1  0
 25 27  1  0
 25 28  1  0
  6 29  1  0
 29 30  1  0
 29 31  2  0
 31 32  1  0
 31  2  1  0
 23 11  1  0
 22 13  1  0
M  END
>  <cnnaffinity>  (1) 
-5.23029

>  <filename>  (1) 
C[C@H](Nc1cccnc1)c1nc2ccccc2[nH]1

$$$$
