
     RDKit          3D

 40 41  0  0  0  0  0  0  0  0999 V2000
    4.9746    1.8215   17.0475 H   0  0  0  0  0  0  0  0  0  0  0  0
    5.4401    1.2788   17.8699 C   0  0  0  0  0  0  0  0  0  0  0  0
    6.6037    0.6643   17.5982 N   0  0  0  0  0  0  0  0  0  0  0  0
    7.1945   -0.0100   18.5953 C   0  0  0  0  0  0  0  0  0  0  0  0
    8.1526   -0.4694   18.3509 H   0  0  0  0  0  0  0  0  0  0  0  0
    6.6500   -0.1675   19.8996 C   0  0  0  0  0  0  0  0  0  0  0  0
    7.3494   -0.9445   20.9068 N   0  0  0  0  0  0  0  0  0  0  0  0
    8.6832   -0.4411   21.2469 C   0  0  0  0  0  0  0  0  0  0  0  0
    9.0270   -0.7777   22.2277 H   0  0  0  0  0  0  0  0  0  0  0  0
    8.7017    0.6533   21.2626 H   0  0  0  0  0  0  0  0  0  0  0  0
    9.4211   -0.7660   20.5042 H   0  0  0  0  0  0  0  0  0  0  0  0
    6.5467   -1.8439   22.1306 S   0  0  0  0  0  0  0  0  0  0  0  0
    5.2693   -2.2787   21.6038 O   0  0  0  0  0  0  0  0  0  0  0  0
    6.7282   -1.1412   23.3876 O   0  0  0  0  0  0  0  0  0  0  0  0
    7.5519   -3.3046   22.1123 C   0  0  0  0  0  0  0  0  0  0  0  0
    8.4635   -3.0728   22.6542 H   0  0  0  0  0  0  0  0  0  0  0  0
    7.7820   -3.4814   21.0654 H   0  0  0  0  0  0  0  0  0  0  0  0
    6.7592   -4.4236   22.7453 C   0  0  0  0  0  0  0  0  0  0  0  0
    5.8526   -4.5827   22.1539 H   0  0  0  0  0  0  0  0  0  0  0  0
    7.3379   -5.3710   22.7134 H   0  0  0  0  0  0  0  0  0  0  0  0
    6.3708   -4.0613   24.0904 N   0  0  0  0  0  0  0  0  0  0  0  0
    7.4953   -3.9893   25.0336 C   0  0  0  0  0  0  0  0  0  0  0  0
    7.9810   -3.0099   24.9657 H   0  0  0  0  0  0  0  0  0  0  0  0
    8.2636   -4.7580   24.8189 H   0  0  0  0  0  0  0  0  0  0  0  0
    6.8821   -4.2341   26.4110 C   0  0  0  0  0  0  0  0  0  0  0  0
    6.5240   -3.2917   26.8381 H   0  0  0  0  0  0  0  0  0  0  0  0
    7.6115   -4.6529   27.1120 H   0  0  0  0  0  0  0  0  0  0  0  0
    5.7213   -5.1913   26.1315 C   0  0  0  0  0  0  0  0  0  0  0  0
    6.0302   -6.2359   26.2509 H   0  0  0  0  0  0  0  0  0  0  0  0
    4.8819   -5.0386   26.8185 H   0  0  0  0  0  0  0  0  0  0  0  0
    5.3178   -4.9246   24.6628 C   0  0  1  0  0  0  0  0  0  0  0  0
    5.2784   -5.8920   24.1347 H   0  0  0  0  0  0  0  0  0  0  0  0
    3.9426   -4.2767   24.5281 C   0  0  0  0  0  0  0  0  0  0  0  0
    3.1703   -4.9321   24.9482 H   0  0  0  0  0  0  0  0  0  0  0  0
    3.6954   -4.0863   23.4793 H   0  0  0  0  0  0  0  0  0  0  0  0
    3.9112   -3.3230   25.0646 H   0  0  0  0  0  0  0  0  0  0  0  0
    5.4647    0.5319   20.1749 C   0  0  0  0  0  0  0  0  0  0  0  0
    5.0582    0.5260   21.1854 H   0  0  0  0  0  0  0  0  0  0  0  0
    4.8496    1.2514   19.1368 C   0  0  0  0  0  0  0  0  0  0  0  0
    3.9300    1.8014   19.3030 H   0  0  0  0  0  0  0  0  0  0  0  0
  1  2  1  0
  2  3  2  0
  3  4  1  0
  4  5  1  0
  4  6  2  0
  6  7  1  0
  7  8  1  0
  8  9  1  0
  8 10  1  0
  8 11  1  0
  7 12  1  0
 12 13  2  0
 12 14  2  0
 12 15  1  0
 15 16  1  0
 15 17  1  0
 15 18  1  0
 18 19  1  0
 18 20  1  0
 18 21  1  0
 21 22  1  0
 22 23  1  0
 22 24  1  0
 22 25  1  0
 25 26  1  0
 25 27  1  0
 25 28  1  0
 28 29  1  0
 28 30  1  0
 28 31  1  0
 31 32  1  6
 31 33  1  0
 33 34  1  0
 33 35  1  0
 33 36  1  0
  6 37  1  0
 37 38  1  0
 37 39  2  0
 39 40  1  0
 39  2  1  0
 31 21  1  0
M  END
>  <cnnaffinity>  (1) 
-4.73863

>  <filename>  (1) 
C[C@@H]1CCCN1CCS(=O)(=O)N(C)c1cccnc1

$$$$
