
     RDKit          3D

 41 42  0  0  0  0  0  0  0  0999 V2000
    4.9186    1.7789   16.9983 H   0  0  0  0  0  0  0  0  0  0  0  0
    5.4050    1.2906   17.8407 C   0  0  0  0  0  0  0  0  0  0  0  0
    6.5675    0.6734   17.5889 N   0  0  0  0  0  0  0  0  0  0  0  0
    7.1657    0.0520   18.6098 C   0  0  0  0  0  0  0  0  0  0  0  0
    8.1158   -0.4297   18.3845 H   0  0  0  0  0  0  0  0  0  0  0  0
    6.6522   -0.0140   19.9171 C   0  0  0  0  0  0  0  0  0  0  0  0
    7.4765   -0.6702   21.0169 C   0  0  1  0  0  0  0  0  0  0  0  0
    8.2219   -1.7665   20.4038 N   0  0  0  0  0  0  0  0  0  0  0  0
    8.8768   -2.1395   21.0787 H   0  0  0  0  0  0  0  0  0  0  0  0
    7.5654   -2.5295   20.2230 H   0  0  0  0  0  0  0  0  0  0  0  0
    8.4926    0.3543   21.5284 C   0  0  0  0  0  0  0  0  0  0  0  0
    9.1218    0.7059   20.7054 H   0  0  0  0  0  0  0  0  0  0  0  0
    9.1408   -0.0645   22.3053 H   0  0  0  0  0  0  0  0  0  0  0  0
    7.9763    1.2238   21.9473 H   0  0  0  0  0  0  0  0  0  0  0  0
    6.5764   -1.1724   22.1787 C   0  0  0  0  0  0  0  0  0  0  0  0
    6.2005   -0.2940   22.7200 H   0  0  0  0  0  0  0  0  0  0  0  0
    5.6963   -1.6620   21.7387 H   0  0  0  0  0  0  0  0  0  0  0  0
    7.2183   -2.1411   23.1756 C   0  0  0  0  0  0  0  0  0  0  0  0
    7.4865   -3.0597   22.6349 H   0  0  0  0  0  0  0  0  0  0  0  0
    8.1643   -1.7274   23.5535 H   0  0  0  0  0  0  0  0  0  0  0  0
    6.3234   -2.5057   24.3664 C   0  0  0  0  0  0  0  0  0  0  0  0
    5.3121   -2.7238   23.9858 H   0  0  0  0  0  0  0  0  0  0  0  0
    6.8236   -3.7882   25.0557 C   0  0  0  0  0  0  0  0  0  0  0  0
    6.8487   -4.6158   24.3341 H   0  0  0  0  0  0  0  0  0  0  0  0
    7.8623   -3.6323   25.3825 H   0  0  0  0  0  0  0  0  0  0  0  0
    5.9636   -4.1771   26.2628 C   0  0  0  0  0  0  0  0  0  0  0  0
    4.9574   -4.4446   25.9134 H   0  0  0  0  0  0  0  0  0  0  0  0
    6.3745   -5.0701   26.7493 H   0  0  0  0  0  0  0  0  0  0  0  0
    5.8537   -3.0226   27.2634 C   0  0  0  0  0  0  0  0  0  0  0  0
    6.8534   -2.8267   27.6673 H   0  0  0  0  0  0  0  0  0  0  0  0
    5.2092   -3.3017   28.1062 H   0  0  0  0  0  0  0  0  0  0  0  0
    5.3456   -1.7396   26.5982 C   0  0  0  0  0  0  0  0  0  0  0  0
    4.3105   -1.8936   26.2674 H   0  0  0  0  0  0  0  0  0  0  0  0
    5.3231   -0.9162   27.3225 H   0  0  0  0  0  0  0  0  0  0  0  0
    6.2005   -1.3551   25.3850 C   0  0  0  0  0  0  0  0  0  0  0  0
    7.2097   -1.0813   25.7270 H   0  0  0  0  0  0  0  0  0  0  0  0
    5.7869   -0.4558   24.9120 H   0  0  0  0  0  0  0  0  0  0  0  0
    5.4396    0.6487   20.1573 C   0  0  0  0  0  0  0  0  0  0  0  0
    4.9944    0.6383   21.1519 H   0  0  0  0  0  0  0  0  0  0  0  0
    4.8097    1.3103   19.1058 C   0  0  0  0  0  0  0  0  0  0  0  0
    3.8761    1.8418   19.2604 H   0  0  0  0  0  0  0  0  0  0  0  0
  1  2  1  0
  2  3  2  0
  3  4  1  0
  4  5  1  0
  4  6  2  0
  6  7  1  0
  7  8  1  6
  8  9  1  0
  8 10  1  0
  7 11  1  0
 11 12  1  0
 11 13  1  0
 11 14  1  0
  7 15  1  0
 15 16  1  0
 15 17  1  0
 15 18  1  0
 18 19  1  0
 18 20  1  0
 18 21  1  0
 21 22  1  0
 21 23  1  0
 23 24  1  0
 23 25  1  0
 23 26  1  0
 26 27  1  0
 26 28  1  0
 26 29  1  0
 29 30  1  0
 29 31  1  0
 29 32  1  0
 32 33  1  0
 32 34  1  0
 32 35  1  0
 35 36  1  0
 35 37  1  0
  6 38  1  0
 38 39  1  0
 38 40  2  0
 40 41  1  0
 40  2  1  0
 35 21  1  0
M  END
>  <cnnaffinity>  (1) 
-4.62705

>  <filename>  (1) 
C[C@@](N)(CCC1CCCCC1)c1cccnc1

$$$$
