
     RDKit          3D

 42 44  0  0  0  0  0  0  0  0999 V2000
    4.9543    1.9439   16.2719 H   0  0  0  0  0  0  0  0  0  0  0  0
    5.3537    1.5247   17.1920 C   0  0  0  0  0  0  0  0  0  0  0  0
    6.4711    0.7960   17.0648 N   0  0  0  0  0  0  0  0  0  0  0  0
    7.0003    0.2873   18.1765 C   0  0  0  0  0  0  0  0  0  0  0  0
    7.9087   -0.2995   18.0615 H   0  0  0  0  0  0  0  0  0  0  0  0
    6.4592    0.4827   19.4598 C   0  0  0  0  0  0  0  0  0  0  0  0
    7.2038   -0.1468   20.5912 C   0  0  0  0  0  0  0  0  0  0  0  0
    8.0752   -0.9598   20.3444 O   0  0  0  0  0  0  0  0  0  0  0  0
    6.8619    0.3109   22.0425 C   0  0  1  0  0  0  0  0  0  0  0  0
    5.7637    0.2793   22.1162 H   0  0  0  0  0  0  0  0  0  0  0  0
    7.4523   -0.6349   23.0736 C   0  0  0  0  0  0  0  0  0  0  0  0
    6.6980   -1.2775   24.0659 C   0  0  0  0  0  0  0  0  0  0  0  0
    5.6739   -0.9913   24.2584 H   0  0  0  0  0  0  0  0  0  0  0  0
    7.2412   -2.2833   24.8616 C   0  0  0  0  0  0  0  0  0  0  0  0
    6.6335   -2.8058   25.5966 H   0  0  0  0  0  0  0  0  0  0  0  0
    8.5782   -2.6727   24.6890 C   0  0  0  0  0  0  0  0  0  0  0  0
    9.0632   -3.8183   25.3430 N   0  0  0  0  0  0  0  0  0  0  0  0
   10.4003   -4.2629   24.9385 C   0  0  0  0  0  0  0  0  0  0  0  0
   10.4424   -4.3438   23.8485 H   0  0  0  0  0  0  0  0  0  0  0  0
   11.1742   -3.5432   25.2438 H   0  0  0  0  0  0  0  0  0  0  0  0
   10.7637   -5.6008   25.5502 C   0  0  0  0  0  0  0  0  0  0  0  0
   10.1251   -6.4048   25.1477 H   0  0  0  0  0  0  0  0  0  0  0  0
   11.8067   -5.8047   25.3076 H   0  0  0  0  0  0  0  0  0  0  0  0
   10.6713   -5.5527   26.9607 O   0  0  0  0  0  0  0  0  0  0  0  0
    9.3545   -5.2338   27.3653 C   0  0  0  0  0  0  0  0  0  0  0  0
    8.6813   -6.0535   27.0772 H   0  0  0  0  0  0  0  0  0  0  0  0
    9.3914   -5.1965   28.4510 H   0  0  0  0  0  0  0  0  0  0  0  0
    8.8465   -3.9032   26.7972 C   0  0  0  0  0  0  0  0  0  0  0  0
    7.7773   -3.8576   27.0333 H   0  0  0  0  0  0  0  0  0  0  0  0
    9.3405   -3.0671   27.3175 H   0  0  0  0  0  0  0  0  0  0  0  0
    9.3774   -1.9177   23.8020 C   0  0  0  0  0  0  0  0  0  0  0  0
   10.4305   -2.1396   23.6902 H   0  0  0  0  0  0  0  0  0  0  0  0
    8.8189   -0.9240   23.0154 C   0  0  0  0  0  0  0  0  0  0  0  0
    9.4374   -0.4262   22.2756 H   0  0  0  0  0  0  0  0  0  0  0  0
    7.3221    1.7661   22.2999 C   0  0  0  0  0  0  0  0  0  0  0  0
    8.4182    1.8291   22.3516 H   0  0  0  0  0  0  0  0  0  0  0  0
    6.9240    2.1334   23.2528 H   0  0  0  0  0  0  0  0  0  0  0  0
    6.9804    2.4339   21.5022 H   0  0  0  0  0  0  0  0  0  0  0  0
    5.2855    1.2403   19.5791 C   0  0  0  0  0  0  0  0  0  0  0  0
    4.8207    1.4413   20.5466 H   0  0  0  0  0  0  0  0  0  0  0  0
    4.7193    1.7574   18.4131 C   0  0  0  0  0  0  0  0  0  0  0  0
    3.8144    2.3509   18.4365 H   0  0  0  0  0  0  0  0  0  0  0  0
  1  2  1  0
  2  3  2  0
  3  4  1  0
  4  5  1  0
  4  6  2  0
  6  7  1  0
  7  8  2  0
  7  9  1  0
  9 10  1  6
  9 11  1  0
 11 12  2  0
 12 13  1  0
 12 14  1  0
 14 15  1  0
 14 16  2  0
 16 17  1  0
 17 18  1  0
 18 19  1  0
 18 20  1  0
 18 21  1  0
 21 22  1  0
 21 23  1  0
 21 24  1  0
 24 25  1  0
 25 26  1  0
 25 27  1  0
 25 28  1  0
 28 29  1  0
 28 30  1  0
 16 31  1  0
 31 32  1  0
 31 33  2  0
 33 34  1  0
  9 35  1  0
 35 36  1  0
 35 37  1  0
 35 38  1  0
  6 39  1  0
 39 40  1  0
 39 41  2  0
 41 42  1  0
 41  2  1  0
 33 11  1  0
 28 17  1  0
M  END
>  <cnnaffinity>  (1) 
-5.09419

>  <filename>  (1) 
C[C@@H](C(=O)c1cccnc1)c1ccc(N2CCOCC2)cc1

$$$$
