
     RDKit          3D

 29 30  0  0  0  0  0  0  0  0999 V2000
    5.0863    1.7029   16.8844 H   0  0  0  0  0  0  0  0  0  0  0  0
    5.5295    1.2240   17.7542 C   0  0  0  0  0  0  0  0  0  0  0  0
    6.6920    0.5773   17.5567 N   0  0  0  0  0  0  0  0  0  0  0  0
    7.2662   -0.0018   18.6208 C   0  0  0  0  0  0  0  0  0  0  0  0
    8.2031   -0.5240   18.4514 H   0  0  0  0  0  0  0  0  0  0  0  0
    6.7220    0.0455   19.9213 C   0  0  0  0  0  0  0  0  0  0  0  0
    7.4386   -0.5961   20.9426 O   0  0  0  0  0  0  0  0  0  0  0  0
    7.2998   -0.2554   22.2635 C   0  0  0  0  0  0  0  0  0  0  0  0
    6.7614    0.7404   22.6636 O   0  0  0  0  0  0  0  0  0  0  0  0
    7.9437   -1.3001   23.1471 C   0  0  1  0  0  0  0  0  0  0  0  0
    8.2328   -2.1533   22.5344 H   0  0  0  0  0  0  0  0  0  0  0  0
    9.2099   -0.5841   23.6404 C   0  0  0  0  0  0  0  0  0  0  0  0
    9.1792    0.1257   24.6264 O   0  0  0  0  0  0  0  0  0  0  0  0
   10.5007   -0.7169   22.9110 C   0  0  0  0  0  0  0  0  0  0  0  0
   10.6152   -1.4788   21.7783 O   0  0  0  0  0  0  0  0  0  0  0  0
   11.8981   -1.3701   21.3558 C   0  0  0  0  0  0  0  0  0  0  0  0
   12.1879   -1.9797   20.5114 H   0  0  0  0  0  0  0  0  0  0  0  0
   12.6056   -0.5464   22.1755 C   0  0  0  0  0  0  0  0  0  0  0  0
   13.6454   -0.2665   22.0578 H   0  0  0  0  0  0  0  0  0  0  0  0
   11.6971   -0.1201   23.1901 C   0  0  0  0  0  0  0  0  0  0  0  0
   11.8590    0.5293   24.0448 H   0  0  0  0  0  0  0  0  0  0  0  0
    6.9965   -1.7400   24.2875 C   0  0  0  0  0  0  0  0  0  0  0  0
    6.7125   -0.8860   24.9099 H   0  0  0  0  0  0  0  0  0  0  0  0
    6.0764   -2.1682   23.8746 H   0  0  0  0  0  0  0  0  0  0  0  0
    7.4631   -2.4984   24.9233 H   0  0  0  0  0  0  0  0  0  0  0  0
    5.4931    0.6847   20.1111 C   0  0  0  0  0  0  0  0  0  0  0  0
    5.0285    0.7240   21.0927 H   0  0  0  0  0  0  0  0  0  0  0  0
    4.8937    1.2876   18.9979 C   0  0  0  0  0  0  0  0  0  0  0  0
    3.9582    1.8322   19.1059 H   0  0  0  0  0  0  0  0  0  0  0  0
  1  2  1  0
  2  3  2  0
  3  4  1  0
  4  5  1  0
  4  6  2  0
  6  7  1  0
  7  8  1  0
  8  9  2  0
  8 10  1  0
 10 11  1  6
 10 12  1  0
 12 13  2  0
 12 14  1  0
 14 15  1  0
 15 16  1  0
 16 17  1  0
 16 18  2  0
 18 19  1  0
 18 20  1  0
 20 21  1  0
 10 22  1  0
 22 23  1  0
 22 24  1  0
 22 25  1  0
  6 26  1  0
 26 27  1  0
 26 28  2  0
 28 29  1  0
 28  2  1  0
 20 14  2  0
M  END
>  <cnnaffinity>  (1) 
-4.79744

>  <filename>  (1) 
C[C@@H](C(=O)Oc1cccnc1)C(=O)c1ccco1

$$$$
