
     RDKit          3D

 30 31  0  0  0  0  0  0  0  0999 V2000
    5.0288    1.6994   16.9735 H   0  0  0  0  0  0  0  0  0  0  0  0
    5.4658    1.1424   17.8001 C   0  0  0  0  0  0  0  0  0  0  0  0
    6.5813    0.4447   17.5261 N   0  0  0  0  0  0  0  0  0  0  0  0
    7.1483   -0.2255   18.5367 C   0  0  0  0  0  0  0  0  0  0  0  0
    8.0350   -0.8116   18.2820 H   0  0  0  0  0  0  0  0  0  0  0  0
    6.6820   -0.2229   19.8641 C   0  0  0  0  0  0  0  0  0  0  0  0
    7.5201   -0.9618   20.9170 C   0  0  1  0  0  0  0  0  0  0  0  0
    7.6791   -1.9500   20.4629 H   0  0  0  0  0  0  0  0  0  0  0  0
    8.9730   -0.4428   21.1773 C   0  0  0  0  0  0  0  0  0  0  0  0
   10.0060   -1.4082   21.2086 C   0  0  0  0  0  0  0  0  0  0  0  0
    9.7489   -2.4486   21.0450 H   0  0  0  0  0  0  0  0  0  0  0  0
   11.3383   -1.0985   21.5022 C   0  0  0  0  0  0  0  0  0  0  0  0
   12.0957   -1.8809   21.5301 H   0  0  0  0  0  0  0  0  0  0  0  0
   11.6844    0.2202   21.7898 C   0  0  0  0  0  0  0  0  0  0  0  0
   12.7053    0.4848   22.0564 H   0  0  0  0  0  0  0  0  0  0  0  0
   10.6933    1.1957   21.7928 C   0  0  0  0  0  0  0  0  0  0  0  0
   10.9492    2.2169   22.0670 H   0  0  0  0  0  0  0  0  0  0  0  0
    9.3523    0.8771   21.5016 C   0  0  0  0  0  0  0  0  0  0  0  0
    8.3347    2.0007   21.5710 C   0  0  0  0  0  0  0  0  0  0  0  0
    7.3279    1.7367   22.4317 F   0  0  0  0  0  0  0  0  0  0  0  0
    8.8603    3.1729   21.9719 F   0  0  0  0  0  0  0  0  0  0  0  0
    7.7890    2.2301   20.3721 F   0  0  0  0  0  0  0  0  0  0  0  0
    6.7337   -1.2433   22.2095 C   0  0  0  0  0  0  0  0  0  0  0  0
    5.8239   -1.8027   21.9609 H   0  0  0  0  0  0  0  0  0  0  0  0
    7.3286   -1.8416   22.9078 H   0  0  0  0  0  0  0  0  0  0  0  0
    6.4410   -0.3254   22.7212 H   0  0  0  0  0  0  0  0  0  0  0  0
    5.4686    0.4474   20.1003 C   0  0  0  0  0  0  0  0  0  0  0  0
    5.0130    0.4414   21.0917 H   0  0  0  0  0  0  0  0  0  0  0  0
    4.8644    1.1610   19.0589 C   0  0  0  0  0  0  0  0  0  0  0  0
    3.9525    1.7331   19.2155 H   0  0  0  0  0  0  0  0  0  0  0  0
  1  2  1  0
  2  3  2  0
  3  4  1  0
  4  5  1  0
  4  6  2  0
  6  7  1  0
  7  8  1  6
  7  9  1  0
  9 10  2  0
 10 11  1  0
 10 12  1  0
 12 13  1  0
 12 14  2  0
 14 15  1  0
 14 16  1  0
 16 17  1  0
 16 18  2  0
 18 19  1  0
 19 20  1  0
 19 21  1  0
 19 22  1  0
  7 23  1  0
 23 24  1  0
 23 25  1  0
 23 26  1  0
  6 27  1  0
 27 28  1  0
 27 29  2  0
 29 30  1  0
 29  2  1  0
 18  9  1  0
M  END
>  <cnnaffinity>  (1) 
-4.68593

>  <filename>  (1) 
C[C@@H](c1cccnc1)c1ccccc1C(F)(F)F

$$$$
