
     RDKit          3D

 25 26  0  0  0  0  0  0  0  0999 V2000
    4.9359    1.8059   17.0023 H   0  0  0  0  0  0  0  0  0  0  0  0
    5.4324    1.3044   17.8340 C   0  0  0  0  0  0  0  0  0  0  0  0
    6.5927    0.6911   17.5563 N   0  0  0  0  0  0  0  0  0  0  0  0
    7.2274    0.0586   18.5518 C   0  0  0  0  0  0  0  0  0  0  0  0
    8.1579   -0.4476   18.2988 H   0  0  0  0  0  0  0  0  0  0  0  0
    6.7488    0.0092   19.8748 C   0  0  0  0  0  0  0  0  0  0  0  0
    7.4605   -0.7021   20.9126 N   0  0  0  0  0  0  0  0  0  0  0  0
    8.7293   -0.5003   21.4403 C   0  0  0  0  0  0  0  0  0  0  0  0
    9.5757    0.4675   20.9556 N   0  0  0  0  0  0  0  0  0  0  0  0
    9.1412    1.2344   20.4813 H   0  0  0  0  0  0  0  0  0  0  0  0
   10.8730    0.6144   21.4309 C   0  0  0  0  0  0  0  0  0  0  0  0
   11.4818   -0.3013   21.9232 O   0  0  0  0  0  0  0  0  0  0  0  0
   11.4536    2.0029   21.2471 C   0  0  0  0  0  0  0  0  0  0  0  0
   11.6241    2.2186   20.1862 H   0  0  0  0  0  0  0  0  0  0  0  0
   10.7807    2.7580   21.6789 H   0  0  0  0  0  0  0  0  0  0  0  0
   12.4260    2.0239   21.7479 H   0  0  0  0  0  0  0  0  0  0  0  0
    9.0050   -1.3033   22.4214 N   0  0  0  0  0  0  0  0  0  0  0  0
    7.8744   -2.0644   22.5119 N   0  0  0  0  0  0  0  0  0  0  0  0
    7.7802   -2.8279   23.1621 H   0  0  0  0  0  0  0  0  0  0  0  0
    6.9316   -1.7896   21.5999 C   0  0  0  0  0  0  0  0  0  0  0  0
    5.5321   -2.6432   21.3589 S   0  0  0  0  0  0  0  0  0  0  0  0
    5.5203    0.6235   20.1481 C   0  0  0  0  0  0  0  0  0  0  0  0
    5.0916    0.5670   21.1482 H   0  0  0  0  0  0  0  0  0  0  0  0
    4.8610    1.2944   19.1096 C   0  0  0  0  0  0  0  0  0  0  0  0
    3.9150    1.7991   19.2677 H   0  0  0  0  0  0  0  0  0  0  0  0
  1  2  1  0
  2  3  2  0
  3  4  1  0
  4  5  1  0
  4  6  2  0
  6  7  1  0
  7  8  1  0
  8  9  1  0
  9 10  1  0
  9 11  1  0
 11 12  2  0
 11 13  1  0
 13 14  1  0
 13 15  1  0
 13 16  1  0
  8 17  2  0
 17 18  1  0
 18 19  1  0
 18 20  1  0
 20 21  2  0
  6 22  1  0
 22 23  1  0
 22 24  2  0
 24 25  1  0
 24  2  1  0
 20  7  1  0
M  END
>  <cnnaffinity>  (1) 
-4.44059

>  <filename>  (1) 
CC(=O)Nc1n[nH]c(=S)n1-c1cccnc1

$$$$
