
     RDKit          3D

 35 37  0  0  0  0  0  0  0  0999 V2000
    4.9327    1.8087   16.9791 H   0  0  0  0  0  0  0  0  0  0  0  0
    5.3955    1.2999   17.8248 C   0  0  0  0  0  0  0  0  0  0  0  0
    6.5571    0.6763   17.5735 N   0  0  0  0  0  0  0  0  0  0  0  0
    7.1542    0.0465   18.5893 C   0  0  0  0  0  0  0  0  0  0  0  0
    8.1001   -0.4419   18.3553 H   0  0  0  0  0  0  0  0  0  0  0  0
    6.6402    0.0228   19.8939 C   0  0  0  0  0  0  0  0  0  0  0  0
    7.3918   -0.6826   20.9284 C   0  0  0  0  0  0  0  0  0  0  0  0
    7.9800   -1.8239   20.7174 N   0  0  0  0  0  0  0  0  0  0  0  0
    8.4918   -2.1552   21.9295 N   0  0  0  0  0  0  0  0  0  0  0  0
    9.0327   -2.9891   22.1047 H   0  0  0  0  0  0  0  0  0  0  0  0
    8.2665   -1.2516   22.8970 C   0  0  0  0  0  0  0  0  0  0  0  0
    8.8100   -1.3753   24.4584 S   0  0  0  0  0  0  0  0  0  0  0  0
    7.5406   -0.2737   22.2419 N   0  0  0  0  0  0  0  0  0  0  0  0
    7.1388    0.9796   22.8106 C   0  0  0  0  0  0  0  0  0  0  0  0
    6.3646    0.9670   23.9729 C   0  0  0  0  0  0  0  0  0  0  0  0
    6.1185    0.0099   24.4249 H   0  0  0  0  0  0  0  0  0  0  0  0
    5.9624    2.1792   24.5358 C   0  0  0  0  0  0  0  0  0  0  0  0
    5.3828    2.1842   25.4556 H   0  0  0  0  0  0  0  0  0  0  0  0
    6.3439    3.3862   23.9454 C   0  0  0  0  0  0  0  0  0  0  0  0
    6.0568    4.3395   24.3625 H   0  0  0  0  0  0  0  0  0  0  0  0
    7.1233    3.3848   22.7819 C   0  0  0  0  0  0  0  0  0  0  0  0
    7.4803    4.6043   22.1728 N   0  0  0  0  0  0  0  0  0  0  0  0
    7.5800    4.6151   21.1736 H   0  0  0  0  0  0  0  0  0  0  0  0
    7.7567    5.7693   22.8330 C   0  0  0  0  0  0  0  0  0  0  0  0
    7.8912    5.8353   24.0419 O   0  0  0  0  0  0  0  0  0  0  0  0
    7.8988    6.9964   21.9688 C   0  0  0  0  0  0  0  0  0  0  0  0
    7.2017    7.0502   21.1277 H   0  0  0  0  0  0  0  0  0  0  0  0
    8.9172    7.0692   21.5822 H   0  0  0  0  0  0  0  0  0  0  0  0
    7.7205    7.8324   22.6423 H   0  0  0  0  0  0  0  0  0  0  0  0
    7.5161    2.1784   22.2007 C   0  0  0  0  0  0  0  0  0  0  0  0
    8.0731    2.1580   21.2699 H   0  0  0  0  0  0  0  0  0  0  0  0
    5.4142    0.6567   20.1392 C   0  0  0  0  0  0  0  0  0  0  0  0
    5.0011    0.6498   21.1479 H   0  0  0  0  0  0  0  0  0  0  0  0
    4.7846    1.3136   19.0833 C   0  0  0  0  0  0  0  0  0  0  0  0
    3.8553    1.8501   19.2286 H   0  0  0  0  0  0  0  0  0  0  0  0
  1  2  1  0
  2  3  2  0
  3  4  1  0
  4  5  1  0
  4  6  2  0
  6  7  1  0
  7  8  2  0
  8  9  1  0
  9 10  1  0
  9 11  1  0
 11 12  2  0
 11 13  1  0
 13 14  1  0
 14 15  2  0
 15 16  1  0
 15 17  1  0
 17 18  1  0
 17 19  2  0
 19 20  1  0
 19 21  1  0
 21 22  1  0
 22 23  1  0
 22 24  1  0
 24 25  2  0
 24 26  1  0
 26 27  1  0
 26 28  1  0
 26 29  1  0
 21 30  2  0
 30 31  1  0
  6 32  1  0
 32 33  1  0
 32 34  2  0
 34 35  1  0
 34  2  1  0
 13  7  1  0
 30 14  1  0
M  END
>  <cnnaffinity>  (1) 
-5.24318

>  <filename>  (1) 
CC(=O)Nc1cccc(-n2c(-c3cccnc3)n[nH]c2=S)c1

$$$$
