
     RDKit          3D

 37 39  0  0  0  0  0  0  0  0999 V2000
    5.0056    1.8992   16.8674 H   0  0  0  0  0  0  0  0  0  0  0  0
    5.4195    1.3616   17.7195 C   0  0  0  0  0  0  0  0  0  0  0  0
    6.5861    0.7290   17.5125 N   0  0  0  0  0  0  0  0  0  0  0  0
    7.1145    0.0660   18.5476 C   0  0  0  0  0  0  0  0  0  0  0  0
    8.0732   -0.4174   18.3539 H   0  0  0  0  0  0  0  0  0  0  0  0
    6.5178   -0.0351   19.8218 C   0  0  0  0  0  0  0  0  0  0  0  0
    7.1992   -0.7701   20.9709 C   0  0  2  0  0  0  0  0  0  0  0  0
    8.0254   -1.3512   20.5383 H   0  0  0  0  0  0  0  0  0  0  0  0
    6.3344   -1.8070   21.7091 C   0  0  0  0  0  0  0  0  0  0  0  0
    5.6669   -2.7070   21.2477 O   0  0  0  0  0  0  0  0  0  0  0  0
    6.5029   -1.5971   23.0524 N   0  0  0  0  0  0  0  0  0  0  0  0
    5.7760   -2.0432   23.5932 H   0  0  0  0  0  0  0  0  0  0  0  0
    6.9329   -0.2438   23.3577 C   0  0  0  0  0  0  0  0  0  0  0  0
    7.5522   -0.2308   24.2625 H   0  0  0  0  0  0  0  0  0  0  0  0
    6.0840    0.4427   23.5310 H   0  0  0  0  0  0  0  0  0  0  0  0
    7.7190    0.1778   22.0974 C   0  0  1  0  0  0  0  0  0  0  0  0
    7.4704    1.2154   21.8507 H   0  0  0  0  0  0  0  0  0  0  0  0
    9.2229    0.1330   22.2836 C   0  0  0  0  0  0  0  0  0  0  0  0
    9.9039   -1.0675   22.5472 C   0  0  0  0  0  0  0  0  0  0  0  0
    9.3526   -1.9926   22.6785 H   0  0  0  0  0  0  0  0  0  0  0  0
   11.2946   -1.0995   22.6125 C   0  0  0  0  0  0  0  0  0  0  0  0
   11.8140   -2.0512   22.7010 H   0  0  0  0  0  0  0  0  0  0  0  0
   12.0418    0.0874   22.4907 C   0  0  0  0  0  0  0  0  0  0  0  0
   13.5425    0.0469   22.5755 C   0  0  0  0  0  0  0  0  0  0  0  0
   14.1772   -0.9720   22.3803 O   0  0  0  0  0  0  0  0  0  0  0  0
   14.2578    1.3053   23.0026 C   0  0  0  0  0  0  0  0  0  0  0  0
   15.2914    1.2283   22.6838 H   0  0  0  0  0  0  0  0  0  0  0  0
   13.8424    2.2315   22.6023 H   0  0  0  0  0  0  0  0  0  0  0  0
   14.1691    1.3726   24.0888 H   0  0  0  0  0  0  0  0  0  0  0  0
   11.3542    1.2978   22.2810 C   0  0  0  0  0  0  0  0  0  0  0  0
   11.8886    2.2366   22.1679 H   0  0  0  0  0  0  0  0  0  0  0  0
    9.9681    1.3144   22.1763 C   0  0  0  0  0  0  0  0  0  0  0  0
    9.4548    2.2562   21.9929 H   0  0  0  0  0  0  0  0  0  0  0  0
    5.3094    0.6459   20.0144 C   0  0  0  0  0  0  0  0  0  0  0  0
    4.8234    0.6403   20.9926 H   0  0  0  0  0  0  0  0  0  0  0  0
    4.7485    1.3493   18.9458 C   0  0  0  0  0  0  0  0  0  0  0  0
    3.8246    1.9064   19.0557 H   0  0  0  0  0  0  0  0  0  0  0  0
  1  2  1  0
  2  3  2  0
  3  4  1  0
  4  5  1  0
  4  6  2  0
  6  7  1  0
  7  8  1  6
  7  9  1  0
  9 10  2  0
  9 11  1  0
 11 12  1  0
 11 13  1  0
 13 14  1  0
 13 15  1  0
 13 16  1  0
 16 17  1  6
 16 18  1  0
 18 19  2  0
 19 20  1  0
 19 21  1  0
 21 22  1  0
 21 23  2  0
 23 24  1  0
 24 25  2  0
 24 26  1  0
 26 27  1  0
 26 28  1  0
 26 29  1  0
 23 30  1  0
 30 31  1  0
 30 32  2  0
 32 33  1  0
  6 34  1  0
 34 35  1  0
 34 36  2  0
 36 37  1  0
 36  2  1  0
 16  7  1  0
 32 18  1  0
M  END
>  <cnnaffinity>  (1) 
-5.6396

>  <filename>  (1) 
CC(=O)c1ccc([C@@H]2CNC(=O)[C@H]2c2cccnc2)cc1

$$$$
