
     RDKit          3D

 34 36  0  0  0  0  0  0  0  0999 V2000
    4.9326    1.7963   16.9953 H   0  0  0  0  0  0  0  0  0  0  0  0
    5.3973    1.2902   17.8373 C   0  0  0  0  0  0  0  0  0  0  0  0
    6.5530    0.6600   17.5721 N   0  0  0  0  0  0  0  0  0  0  0  0
    7.1694    0.0430   18.5852 C   0  0  0  0  0  0  0  0  0  0  0  0
    8.1246   -0.4305   18.3639 H   0  0  0  0  0  0  0  0  0  0  0  0
    6.6506   -0.0018   19.8930 C   0  0  0  0  0  0  0  0  0  0  0  0
    7.3336   -0.6855   20.9415 N   0  0  0  0  0  0  0  0  0  0  0  0
    6.7363   -1.6029   21.7960 C   0  0  0  0  0  0  0  0  0  0  0  0
    5.6882   -1.8367   21.6981 H   0  0  0  0  0  0  0  0  0  0  0  0
    7.6782   -2.0640   22.6570 C   0  0  0  0  0  0  0  0  0  0  0  0
    7.5679   -3.0104   23.7740 C   0  0  0  0  0  0  0  0  0  0  0  0
    6.2911   -3.2718   24.3043 C   0  0  0  0  0  0  0  0  0  0  0  0
    5.4366   -2.7413   23.8968 H   0  0  0  0  0  0  0  0  0  0  0  0
    6.1072   -4.1781   25.3362 C   0  0  0  0  0  0  0  0  0  0  0  0
    5.1103   -4.3770   25.7320 H   0  0  0  0  0  0  0  0  0  0  0  0
    7.2125   -4.8540   25.8874 C   0  0  0  0  0  0  0  0  0  0  0  0
    6.9687   -5.8164   27.0171 C   0  0  0  0  0  0  0  0  0  0  0  0
    5.8434   -6.0402   27.4279 O   0  0  0  0  0  0  0  0  0  0  0  0
    8.1654   -6.5043   27.6209 C   0  0  0  0  0  0  0  0  0  0  0  0
    7.8135   -7.1862   28.3941 H   0  0  0  0  0  0  0  0  0  0  0  0
    8.8787   -5.7884   28.0387 H   0  0  0  0  0  0  0  0  0  0  0  0
    8.7103   -7.0426   26.8373 H   0  0  0  0  0  0  0  0  0  0  0  0
    8.5002   -4.5970   25.3677 C   0  0  0  0  0  0  0  0  0  0  0  0
    9.3843   -5.0964   25.7700 H   0  0  0  0  0  0  0  0  0  0  0  0
    8.6710   -3.6870   24.3263 C   0  0  0  0  0  0  0  0  0  0  0  0
    9.6680   -3.5128   23.9309 H   0  0  0  0  0  0  0  0  0  0  0  0
    8.8499   -1.4129   22.2951 N   0  0  0  0  0  0  0  0  0  0  0  0
    9.7505   -1.4027   22.7393 H   0  0  0  0  0  0  0  0  0  0  0  0
    8.6542   -0.5192   21.2995 C   0  0  0  0  0  0  0  0  0  0  0  0
    9.8174    0.5353   20.7684 S   0  0  0  0  0  0  0  0  0  0  0  0
    5.4413    0.6436   20.1584 C   0  0  0  0  0  0  0  0  0  0  0  0
    5.0306    0.6325   21.1713 H   0  0  0  0  0  0  0  0  0  0  0  0
    4.8099    1.3086   19.1058 C   0  0  0  0  0  0  0  0  0  0  0  0
    3.8812    1.8388   19.2608 H   0  0  0  0  0  0  0  0  0  0  0  0
  1  2  1  0
  2  3  2  0
  3  4  1  0
  4  5  1  0
  4  6  2  0
  6  7  1  0
  7  8  1  0
  8  9  1  0
  8 10  2  0
 10 11  1  0
 11 12  2  0
 12 13  1  0
 12 14  1  0
 14 15  1  0
 14 16  2  0
 16 17  1  0
 17 18  2  0
 17 19  1  0
 19 20  1  0
 19 21  1  0
 19 22  1  0
 16 23  1  0
 23 24  1  0
 23 25  2  0
 25 26  1  0
 10 27  1  0
 27 28  1  0
 27 29  1  0
 29 30  2  0
  6 31  1  0
 31 32  1  0
 31 33  2  0
 33 34  1  0
 33  2  1  0
 29  7  1  0
 25 11  1  0
M  END
>  <cnnaffinity>  (1) 
-5.45063

>  <filename>  (1) 
CC(=O)c1ccc(-c2cn(-c3cccnc3)c(=S)[nH]2)cc1

$$$$
