
     RDKit          3D

 36 38  0  0  0  0  0  0  0  0999 V2000
    4.9096    1.7811   16.9951 H   0  0  0  0  0  0  0  0  0  0  0  0
    5.3974    1.2975   17.8360 C   0  0  0  0  0  0  0  0  0  0  0  0
    6.5597    0.6784   17.5698 N   0  0  0  0  0  0  0  0  0  0  0  0
    7.1705    0.0593   18.5856 C   0  0  0  0  0  0  0  0  0  0  0  0
    8.1219   -0.4255   18.3798 H   0  0  0  0  0  0  0  0  0  0  0  0
    6.6420   -0.0041   19.8888 C   0  0  0  0  0  0  0  0  0  0  0  0
    7.3433   -0.6889   20.9406 N   0  0  0  0  0  0  0  0  0  0  0  0
    6.7192   -1.7446   21.5782 C   0  0  0  0  0  0  0  0  0  0  0  0
    5.7055   -1.9675   21.2412 H   0  0  0  0  0  0  0  0  0  0  0  0
    7.3299   -2.4533   22.5786 C   0  0  0  0  0  0  0  0  0  0  0  0
    6.6463   -3.5805   23.2494 C   0  0  0  0  0  0  0  0  0  0  0  0
    5.8799   -4.4944   22.5055 C   0  0  0  0  0  0  0  0  0  0  0  0
    5.8091   -4.3808   21.4270 H   0  0  0  0  0  0  0  0  0  0  0  0
    5.2416   -5.5573   23.1301 C   0  0  0  0  0  0  0  0  0  0  0  0
    4.6533   -6.2516   22.5368 H   0  0  0  0  0  0  0  0  0  0  0  0
    5.3391   -5.7376   24.5265 C   0  0  0  0  0  0  0  0  0  0  0  0
    4.6230   -6.9033   25.1628 C   0  0  0  0  0  0  0  0  0  0  0  0
    3.9704   -7.6799   24.4913 O   0  0  0  0  0  0  0  0  0  0  0  0
    4.7286   -7.1063   26.6596 C   0  0  0  0  0  0  0  0  0  0  0  0
    4.1511   -7.9903   26.9323 H   0  0  0  0  0  0  0  0  0  0  0  0
    4.3359   -6.2405   27.2024 H   0  0  0  0  0  0  0  0  0  0  0  0
    5.7712   -7.2505   26.9624 H   0  0  0  0  0  0  0  0  0  0  0  0
    6.1053   -4.8183   25.2693 C   0  0  0  0  0  0  0  0  0  0  0  0
    6.2149   -4.9181   26.3464 H   0  0  0  0  0  0  0  0  0  0  0  0
    6.7518   -3.7600   24.6377 C   0  0  0  0  0  0  0  0  0  0  0  0
    7.3284   -3.0524   25.2275 H   0  0  0  0  0  0  0  0  0  0  0  0
    8.6528   -2.0666   22.9600 C   0  0  0  0  0  0  0  0  0  0  0  0
    9.1654   -2.6271   23.7428 H   0  0  0  0  0  0  0  0  0  0  0  0
    9.2875   -1.0313   22.3443 C   0  0  0  0  0  0  0  0  0  0  0  0
   10.2807   -0.7025   22.5986 H   0  0  0  0  0  0  0  0  0  0  0  0
    8.6698   -0.2526   21.2886 C   0  0  0  0  0  0  0  0  0  0  0  0
    9.2118    0.6813   20.7204 O   0  0  0  0  0  0  0  0  0  0  0  0
    5.4328    0.6448   20.1551 C   0  0  0  0  0  0  0  0  0  0  0  0
    5.0219    0.6240   21.1686 H   0  0  0  0  0  0  0  0  0  0  0  0
    4.8014    1.3191   19.1041 C   0  0  0  0  0  0  0  0  0  0  0  0
    3.8666    1.8496   19.2624 H   0  0  0  0  0  0  0  0  0  0  0  0
  1  2  1  0
  2  3  2  0
  3  4  1  0
  4  5  1  0
  4  6  2  0
  6  7  1  0
  7  8  1  0
  8  9  1  0
  8 10  2  0
 10 11  1  0
 11 12  2  0
 12 13  1  0
 12 14  1  0
 14 15  1  0
 14 16  2  0
 16 17  1  0
 17 18  2  0
 17 19  1  0
 19 20  1  0
 19 21  1  0
 19 22  1  0
 16 23  1  0
 23 24  1  0
 23 25  2  0
 25 26  1  0
 10 27  1  0
 27 28  1  0
 27 29  2  0
 29 30  1  0
 29 31  1  0
 31 32  2  0
  6 33  1  0
 33 34  1  0
 33 35  2  0
 35 36  1  0
 35  2  1  0
 31  7  1  0
 25 11  1  0
M  END
>  <cnnaffinity>  (1) 
-5.42554

>  <filename>  (1) 
CC(=O)c1ccc(-c2ccc(=O)n(-c3cccnc3)c2)cc1

$$$$
