
     RDKit          3D

 33 35  0  0  0  0  0  0  0  0999 V2000
    4.9797    1.7861   16.9817 H   0  0  0  0  0  0  0  0  0  0  0  0
    5.4233    1.2804   17.8368 C   0  0  0  0  0  0  0  0  0  0  0  0
    6.5804    0.6459   17.6035 N   0  0  0  0  0  0  0  0  0  0  0  0
    7.1707    0.0409   18.6391 C   0  0  0  0  0  0  0  0  0  0  0  0
    8.1251   -0.4348   18.4156 H   0  0  0  0  0  0  0  0  0  0  0  0
    6.6416    0.0068   19.9333 C   0  0  0  0  0  0  0  0  0  0  0  0
    7.3591   -0.7029   21.0194 C   0  0  0  0  0  0  0  0  0  0  0  0
    6.6570   -1.1510   21.9864 N   0  0  0  0  0  0  0  0  0  0  0  0
    7.1356   -1.9877   23.0123 C   0  0  0  0  0  0  0  0  0  0  0  0
    6.6627   -1.6832   24.3242 C   0  0  0  0  0  0  0  0  0  0  0  0
    5.9953   -0.8331   24.3693 H   0  0  0  0  0  0  0  0  0  0  0  0
    7.0394   -2.4273   25.4178 C   0  0  0  0  0  0  0  0  0  0  0  0
    6.6691   -2.1763   26.4111 H   0  0  0  0  0  0  0  0  0  0  0  0
    7.9060   -3.5594   25.2543 C   0  0  0  0  0  0  0  0  0  0  0  0
    8.3533   -4.3739   26.3411 C   0  0  0  0  0  0  0  0  0  0  0  0
    8.0224   -4.1492   27.3543 H   0  0  0  0  0  0  0  0  0  0  0  0
    9.1729   -5.4574   26.1041 C   0  0  0  0  0  0  0  0  0  0  0  0
    9.5208   -6.0761   26.9272 H   0  0  0  0  0  0  0  0  0  0  0  0
    9.5389   -5.8139   24.7759 C   0  0  0  0  0  0  0  0  0  0  0  0
   10.1828   -6.6720   24.6218 H   0  0  0  0  0  0  0  0  0  0  0  0
    9.0732   -5.0839   23.7101 C   0  0  0  0  0  0  0  0  0  0  0  0
    9.2288   -5.3827   22.6772 H   0  0  0  0  0  0  0  0  0  0  0  0
    8.3064   -3.9096   23.9245 C   0  0  0  0  0  0  0  0  0  0  0  0
    7.9212   -3.0972   22.8214 C   0  0  0  0  0  0  0  0  0  0  0  0
    8.2537   -3.3448   21.8223 H   0  0  0  0  0  0  0  0  0  0  0  0
    8.8654   -0.8005   20.9504 C   0  0  0  0  0  0  0  0  0  0  0  0
    9.2942   -0.8691   21.9533 H   0  0  0  0  0  0  0  0  0  0  0  0
    9.1737   -1.6881   20.3913 H   0  0  0  0  0  0  0  0  0  0  0  0
    9.2757    0.0831   20.4591 H   0  0  0  0  0  0  0  0  0  0  0  0
    5.4098    0.6592   20.1562 C   0  0  0  0  0  0  0  0  0  0  0  0
    4.9679    0.6382   21.1546 H   0  0  0  0  0  0  0  0  0  0  0  0
    4.8001    1.3135   19.0914 C   0  0  0  0  0  0  0  0  0  0  0  0
    3.8658    1.8552   19.2152 H   0  0  0  0  0  0  0  0  0  0  0  0
  1  2  1  0
  2  3  2  0
  3  4  1  0
  4  5  1  0
  4  6  2  0
  6  7  1  0
  7  8  2  3
  8  9  1  0
  9 10  2  0
 10 11  1  0
 10 12  1  0
 12 13  1  0
 12 14  2  0
 14 15  1  0
 15 16  1  0
 15 17  2  0
 17 18  1  0
 17 19  1  0
 19 20  1  0
 19 21  2  0
 21 22  1  0
 21 23  1  0
 23 24  2  0
 24 25  1  0
  7 26  1  0
 26 27  1  0
 26 28  1  0
 26 29  1  0
  6 30  1  0
 30 31  1  0
 30 32  2  0
 32 33  1  0
 32  2  1  0
 24  9  1  0
 23 14  1  0
M  END
>  <cnnaffinity>  (1) 
-4.67328

>  <filename>  (1) 
CC(=Nc1ccc2ccccc2c1)c1cccnc1

$$$$
