
     RDKit          3D

 34 36  0  0  0  0  0  0  0  0999 V2000
    4.9190    1.7891   16.9939 H   0  0  0  0  0  0  0  0  0  0  0  0
    5.3948    1.2927   17.8372 C   0  0  0  0  0  0  0  0  0  0  0  0
    6.5530    0.6684   17.5725 N   0  0  0  0  0  0  0  0  0  0  0  0
    7.1727    0.0544   18.5846 C   0  0  0  0  0  0  0  0  0  0  0  0
    8.1264   -0.4191   18.3674 H   0  0  0  0  0  0  0  0  0  0  0  0
    6.6657    0.0064   19.9000 C   0  0  0  0  0  0  0  0  0  0  0  0
    7.3598   -0.6698   20.9383 N   0  0  0  0  0  0  0  0  0  0  0  0
    6.7665   -1.4411   21.9325 C   0  0  0  0  0  0  0  0  0  0  0  0
    5.7009   -1.6011   21.9560 H   0  0  0  0  0  0  0  0  0  0  0  0
    7.7308   -1.9369   22.7422 C   0  0  0  0  0  0  0  0  0  0  0  0
    7.6195   -2.7899   23.9313 C   0  0  0  0  0  0  0  0  0  0  0  0
    6.3767   -2.8721   24.5901 C   0  0  0  0  0  0  0  0  0  0  0  0
    5.5397   -2.2844   24.2245 H   0  0  0  0  0  0  0  0  0  0  0  0
    6.2075   -3.6784   25.7055 C   0  0  0  0  0  0  0  0  0  0  0  0
    5.2381   -3.7279   26.1984 H   0  0  0  0  0  0  0  0  0  0  0  0
    7.2851   -4.4370   26.2068 C   0  0  0  0  0  0  0  0  0  0  0  0
    7.0563   -5.2940   27.4231 C   0  0  0  0  0  0  0  0  0  0  0  0
    5.9654   -5.3421   27.9610 O   0  0  0  0  0  0  0  0  0  0  0  0
    8.2112   -6.1019   27.9676 C   0  0  0  0  0  0  0  0  0  0  0  0
    7.8637   -6.6589   28.8369 H   0  0  0  0  0  0  0  0  0  0  0  0
    9.0512   -5.4585   28.2468 H   0  0  0  0  0  0  0  0  0  0  0  0
    8.5808   -6.7959   27.2070 H   0  0  0  0  0  0  0  0  0  0  0  0
    8.5316   -4.3605   25.5507 C   0  0  0  0  0  0  0  0  0  0  0  0
    9.3941   -4.9262   25.9026 H   0  0  0  0  0  0  0  0  0  0  0  0
    8.6938   -3.5498   24.4292 C   0  0  0  0  0  0  0  0  0  0  0  0
    9.6574   -3.5148   23.9272 H   0  0  0  0  0  0  0  0  0  0  0  0
    8.9349   -1.4735   22.2185 N   0  0  0  0  0  0  0  0  0  0  0  0
    9.8695   -1.5673   22.5637 H   0  0  0  0  0  0  0  0  0  0  0  0
    8.7527   -0.6719   21.1265 C   0  0  0  0  0  0  0  0  0  0  0  0
    9.6298   -0.1181   20.4973 O   0  0  0  0  0  0  0  0  0  0  0  0
    5.4471    0.6435   20.1618 C   0  0  0  0  0  0  0  0  0  0  0  0
    5.0275    0.6347   21.1697 H   0  0  0  0  0  0  0  0  0  0  0  0
    4.8120    1.3071   19.1087 C   0  0  0  0  0  0  0  0  0  0  0  0
    3.8817    1.8378   19.2609 H   0  0  0  0  0  0  0  0  0  0  0  0
  1  2  1  0
  2  3  2  0
  3  4  1  0
  4  5  1  0
  4  6  2  0
  6  7  1  0
  7  8  1  0
  8  9  1  0
  8 10  2  0
 10 11  1  0
 11 12  2  0
 12 13  1  0
 12 14  1  0
 14 15  1  0
 14 16  2  0
 16 17  1  0
 17 18  2  0
 17 19  1  0
 19 20  1  0
 19 21  1  0
 19 22  1  0
 16 23  1  0
 23 24  1  0
 23 25  2  0
 25 26  1  0
 10 27  1  0
 27 28  1  0
 27 29  1  0
 29 30  2  0
  6 31  1  0
 31 32  1  0
 31 33  2  0
 33 34  1  0
 33  2  1  0
 29  7  1  0
 25 11  1  0
M  END
>  <cnnaffinity>  (1) 
-5.35632

>  <filename>  (1) 
CC(=O)c1ccc(-c2cn(-c3cccnc3)c(=O)[nH]2)cc1

$$$$
