
     RDKit          3D

 29 31  0  0  0  0  0  0  0  0999 V2000
    4.9479    1.8110   16.9828 H   0  0  0  0  0  0  0  0  0  0  0  0
    5.4040    1.2915   17.8223 C   0  0  0  0  0  0  0  0  0  0  0  0
    6.5586    0.6596   17.5613 N   0  0  0  0  0  0  0  0  0  0  0  0
    7.1636    0.0399   18.5763 C   0  0  0  0  0  0  0  0  0  0  0  0
    8.1034   -0.4595   18.3454 H   0  0  0  0  0  0  0  0  0  0  0  0
    6.6568    0.0217   19.8884 C   0  0  0  0  0  0  0  0  0  0  0  0
    7.4410   -0.6781   20.9133 C   0  0  0  0  0  0  0  0  0  0  0  0
    8.3189   -1.6265   20.6807 N   0  0  0  0  0  0  0  0  0  0  0  0
    8.8222   -2.0909   21.8751 N   0  0  0  0  0  0  0  0  0  0  0  0
    8.2397   -1.3854   22.8028 C   0  0  0  0  0  0  0  0  0  0  0  0
    8.2388   -1.2454   24.5405 S   0  0  0  0  0  0  0  0  0  0  0  0
    7.0566    0.0559   24.3575 C   0  0  0  0  0  0  0  0  0  0  0  0
    6.4191    0.7574   25.5413 C   0  0  0  0  0  0  0  0  0  0  0  0
    5.9449    1.6523   25.1341 H   0  0  0  0  0  0  0  0  0  0  0  0
    7.1888    1.0590   26.2587 H   0  0  0  0  0  0  0  0  0  0  0  0
    5.3745    0.0055   26.2360 N   0  0  0  0  0  0  0  0  0  0  0  0
    5.5911   -0.5473   27.0467 H   0  0  0  0  0  0  0  0  0  0  0  0
    4.0820   -0.0448   25.7805 C   0  0  0  0  0  0  0  0  0  0  0  0
    3.6532    0.7248   24.9446 O   0  0  0  0  0  0  0  0  0  0  0  0
    3.2308   -1.1101   26.4220 C   0  0  0  0  0  0  0  0  0  0  0  0
    2.4449   -1.3649   25.7088 H   0  0  0  0  0  0  0  0  0  0  0  0
    2.7796   -0.6943   27.3283 H   0  0  0  0  0  0  0  0  0  0  0  0
    3.8009   -2.0063   26.6833 H   0  0  0  0  0  0  0  0  0  0  0  0
    6.7221    0.3507   23.1455 N   0  0  0  0  0  0  0  0  0  0  0  0
    7.3685   -0.4768   22.2778 N   0  0  0  0  0  0  0  0  0  0  0  0
    5.4347    0.6643   20.1438 C   0  0  0  0  0  0  0  0  0  0  0  0
    5.0035    0.6714   21.1452 H   0  0  0  0  0  0  0  0  0  0  0  0
    4.7992    1.3085   19.0831 C   0  0  0  0  0  0  0  0  0  0  0  0
    3.8638    1.8419   19.2197 H   0  0  0  0  0  0  0  0  0  0  0  0
  1  2  1  0
  2  3  2  0
  3  4  1  0
  4  5  1  0
  4  6  2  0
  6  7  1  0
  7  8  2  0
  8  9  1  0
  9 10  2  0
 10 11  1  0
 11 12  1  0
 12 13  1  0
 13 14  1  0
 13 15  1  0
 13 16  1  0
 16 17  1  0
 16 18  1  0
 18 19  2  0
 18 20  1  0
 20 21  1  0
 20 22  1  0
 20 23  1  0
 12 24  2  0
 24 25  1  0
  6 26  1  0
 26 27  1  0
 26 28  2  0
 28 29  1  0
 28  2  1  0
 25  7  1  0
 25 10  1  0
M  END
>  <cnnaffinity>  (1) 
-4.8425

>  <filename>  (1) 
CC(=O)NCc1nn2c(-c3cccnc3)nnc2s1

$$$$
