
     RDKit          3D

 31 33  0  0  0  0  0  0  0  0999 V2000
    5.1579    1.7861   17.0400 H   0  0  0  0  0  0  0  0  0  0  0  0
    5.6013    1.2400   17.8725 C   0  0  0  0  0  0  0  0  0  0  0  0
    6.7680    0.6260   17.6216 N   0  0  0  0  0  0  0  0  0  0  0  0
    7.3361   -0.0502   18.6222 C   0  0  0  0  0  0  0  0  0  0  0  0
    8.2960   -0.5135   18.3988 H   0  0  0  0  0  0  0  0  0  0  0  0
    6.7666   -0.1902   19.8985 C   0  0  0  0  0  0  0  0  0  0  0  0
    7.5296   -0.9621   20.8776 C   0  0  0  0  0  0  0  0  0  0  0  0
    8.8935   -0.8067   20.8989 N   0  0  0  0  0  0  0  0  0  0  0  0
    9.2802   -1.5512   21.8935 C   0  0  0  0  0  0  0  0  0  0  0  0
   10.7810   -1.7924   22.7407 S   0  0  0  0  0  0  0  0  0  0  0  0
    9.9563   -2.8086   23.9184 C   0  0  0  0  0  0  0  0  0  0  0  0
   10.5042   -3.1756   24.7816 H   0  0  0  0  0  0  0  0  0  0  0  0
    8.6503   -2.9675   23.6252 C   0  0  0  0  0  0  0  0  0  0  0  0
    7.9161   -3.5544   24.1690 H   0  0  0  0  0  0  0  0  0  0  0  0
    8.2677   -2.2635   22.4835 N   0  0  0  0  0  0  0  0  0  0  0  0
    7.1098   -1.9175   21.7921 C   0  0  0  0  0  0  0  0  0  0  0  0
    5.8268   -2.6562   21.9463 C   0  0  0  0  0  0  0  0  0  0  0  0
    5.5428   -2.7303   23.0011 H   0  0  0  0  0  0  0  0  0  0  0  0
    5.0387   -2.0917   21.4453 H   0  0  0  0  0  0  0  0  0  0  0  0
    5.8459   -4.0118   21.4143 N   0  0  0  0  0  0  0  0  0  0  0  0
    6.4211   -4.6690   21.9140 H   0  0  0  0  0  0  0  0  0  0  0  0
    5.7491   -4.2852   20.0759 C   0  0  0  0  0  0  0  0  0  0  0  0
    5.3579   -3.4832   19.2569 O   0  0  0  0  0  0  0  0  0  0  0  0
    6.0348   -5.7324   19.7564 C   0  0  0  0  0  0  0  0  0  0  0  0
    6.0217   -5.8699   18.6817 H   0  0  0  0  0  0  0  0  0  0  0  0
    6.9913   -6.0747   20.1604 H   0  0  0  0  0  0  0  0  0  0  0  0
    5.2435   -6.3469   20.1900 H   0  0  0  0  0  0  0  0  0  0  0  0
    5.5518    0.4644   20.1531 C   0  0  0  0  0  0  0  0  0  0  0  0
    5.0917    0.4177   21.1421 H   0  0  0  0  0  0  0  0  0  0  0  0
    4.9668    1.1976   19.1195 C   0  0  0  0  0  0  0  0  0  0  0  0
    4.0320    1.7267   19.2629 H   0  0  0  0  0  0  0  0  0  0  0  0
  1  2  1  0
  2  3  2  0
  3  4  1  0
  4  5  1  0
  4  6  2  0
  6  7  1  0
  7  8  1  0
  8  9  2  0
  9 10  1  0
 10 11  1  0
 11 12  1  0
 11 13  2  0
 13 14  1  0
 13 15  1  0
 15 16  1  0
 16 17  1  0
 17 18  1  0
 17 19  1  0
 17 20  1  0
 20 21  1  0
 20 22  1  0
 22 23  2  0
 22 24  1  0
 24 25  1  0
 24 26  1  0
 24 27  1  0
  6 28  1  0
 28 29  1  0
 28 30  2  0
 30 31  1  0
 30  2  1  0
 16  7  2  0
 15  9  1  0
M  END
>  <cnnaffinity>  (1) 
-5.40241

>  <filename>  (1) 
CC(=O)NCc1c(-c2cccnc2)nc2sccn12

$$$$
