
     RDKit          3D

 40 43  0  0  0  0  0  0  0  0999 V2000
    4.9450    1.8153   16.9794 H   0  0  0  0  0  0  0  0  0  0  0  0
    5.4021    1.2944   17.8177 C   0  0  0  0  0  0  0  0  0  0  0  0
    6.5641    0.6705   17.5617 N   0  0  0  0  0  0  0  0  0  0  0  0
    7.1530    0.0214   18.5690 C   0  0  0  0  0  0  0  0  0  0  0  0
    8.1098   -0.4484   18.3347 H   0  0  0  0  0  0  0  0  0  0  0  0
    6.6235   -0.0355   19.8704 C   0  0  0  0  0  0  0  0  0  0  0  0
    7.3573   -0.6981   20.9464 C   0  0  0  0  0  0  0  0  0  0  0  0
    8.0788   -1.7938   20.7255 N   0  0  0  0  0  0  0  0  0  0  0  0
    8.5592   -2.0930   21.9333 N   0  0  0  0  0  0  0  0  0  0  0  0
    8.2267   -1.2612   22.9131 C   0  0  0  0  0  0  0  0  0  0  0  0
    7.4482   -0.2900   22.3157 C   0  0  0  0  0  0  0  0  0  0  0  0
    7.0893    0.9565   22.9640 C   0  0  0  0  0  0  0  0  0  0  0  0
    6.6112    0.9264   24.2793 C   0  0  0  0  0  0  0  0  0  0  0  0
    6.4833   -0.0348   24.7707 H   0  0  0  0  0  0  0  0  0  0  0  0
    6.2907    2.1067   24.9333 C   0  0  0  0  0  0  0  0  0  0  0  0
    5.9057    2.0864   25.9492 H   0  0  0  0  0  0  0  0  0  0  0  0
    6.4659    3.3481   24.2883 C   0  0  0  0  0  0  0  0  0  0  0  0
    6.1006    4.6097   25.0260 C   0  0  0  0  0  0  0  0  0  0  0  0
    5.6744    4.5708   26.1642 O   0  0  0  0  0  0  0  0  0  0  0  0
    6.2769    5.9394   24.3220 C   0  0  0  0  0  0  0  0  0  0  0  0
    5.6857    5.9705   23.4008 H   0  0  0  0  0  0  0  0  0  0  0  0
    5.9557    6.7281   25.0025 H   0  0  0  0  0  0  0  0  0  0  0  0
    7.3243    6.0874   24.0396 H   0  0  0  0  0  0  0  0  0  0  0  0
    6.9745    3.3690   22.9746 C   0  0  0  0  0  0  0  0  0  0  0  0
    7.1291    4.2998   22.4368 H   0  0  0  0  0  0  0  0  0  0  0  0
    7.2853    2.1847   22.3220 C   0  0  0  0  0  0  0  0  0  0  0  0
    7.6817    2.1956   21.3110 H   0  0  0  0  0  0  0  0  0  0  0  0
    9.0700   -1.5009   24.1430 C   0  0  0  0  0  0  0  0  0  0  0  0
    8.4702   -1.6987   25.0379 H   0  0  0  0  0  0  0  0  0  0  0  0
    9.6661   -0.6033   24.3434 H   0  0  0  0  0  0  0  0  0  0  0  0
    9.9481   -2.7173   23.7244 C   0  0  0  0  0  0  0  0  0  0  0  0
   11.0093   -2.4912   23.7803 H   0  0  0  0  0  0  0  0  0  0  0  0
    9.7670   -3.5919   24.3486 H   0  0  0  0  0  0  0  0  0  0  0  0
    9.5772   -3.0533   22.2544 C   0  0  0  0  0  0  0  0  0  0  0  0
    9.1567   -4.0565   22.1551 H   0  0  0  0  0  0  0  0  0  0  0  0
   10.4103   -2.8911   21.5663 H   0  0  0  0  0  0  0  0  0  0  0  0
    5.4106    0.6241   20.1214 C   0  0  0  0  0  0  0  0  0  0  0  0
    4.9980    0.6494   21.1308 H   0  0  0  0  0  0  0  0  0  0  0  0
    4.7921    1.2972   19.0758 C   0  0  0  0  0  0  0  0  0  0  0  0
    3.8689    1.8430   19.2289 H   0  0  0  0  0  0  0  0  0  0  0  0
  1  2  1  0
  2  3  2  0
  3  4  1  0
  4  5  1  0
  4  6  2  0
  6  7  1  0
  7  8  2  0
  8  9  1  0
  9 10  1  0
 10 11  2  0
 11 12  1  0
 12 13  2  0
 13 14  1  0
 13 15  1  0
 15 16  1  0
 15 17  2  0
 17 18  1  0
 18 19  2  0
 18 20  1  0
 20 21  1  0
 20 22  1  0
 20 23  1  0
 17 24  1  0
 24 25  1  0
 24 26  2  0
 26 27  1  0
 10 28  1  0
 28 29  1  0
 28 30  1  0
 28 31  1  0
 31 32  1  0
 31 33  1  0
 31 34  1  0
 34 35  1  0
 34 36  1  0
  6 37  1  0
 37 38  1  0
 37 39  2  0
 39 40  1  0
 39  2  1  0
 11  7  1  0
 26 12  1  0
 34  9  1  0
M  END
>  <cnnaffinity>  (1) 
-5.58436

>  <filename>  (1) 
CC(=O)c1ccc(-c2c(-c3cccnc3)nn3c2CCC3)cc1

$$$$
