
     RDKit          3D

 28 29  0  0  0  0  0  0  0  0999 V2000
    5.7176   -1.4311   22.0520 H   0  0  0  0  0  0  0  0  0  0  0  0
    6.7934   -1.3720   22.0114 C   0  0  0  0  0  0  0  0  0  0  0  0
    7.4780   -2.0135   22.9506 N   0  0  0  0  0  0  0  0  0  0  0  0
    8.8161   -1.9930   22.8804 N   0  0  0  0  0  0  0  0  0  0  0  0
    9.4138   -1.3478   21.8678 C   0  0  0  0  0  0  0  0  0  0  0  0
   10.9303   -1.3198   21.8783 C   0  0  0  0  0  0  0  0  0  0  0  0
   11.2634   -1.3338   20.8394 H   0  0  0  0  0  0  0  0  0  0  0  0
   11.2964   -2.2422   22.3402 H   0  0  0  0  0  0  0  0  0  0  0  0
   11.5254   -0.1569   22.5684 N   0  0  0  0  0  0  0  0  0  0  0  0
   10.9329    0.5423   22.9840 H   0  0  0  0  0  0  0  0  0  0  0  0
   12.8778    0.0421   22.6336 C   0  0  0  0  0  0  0  0  0  0  0  0
   13.6646   -0.7483   22.1468 O   0  0  0  0  0  0  0  0  0  0  0  0
   13.3102    1.2993   23.3672 C   0  0  0  0  0  0  0  0  0  0  0  0
   13.0910    1.2364   24.4409 H   0  0  0  0  0  0  0  0  0  0  0  0
   12.8432    2.2116   22.9725 H   0  0  0  0  0  0  0  0  0  0  0  0
   14.3903    1.3806   23.2440 H   0  0  0  0  0  0  0  0  0  0  0  0
    8.7720   -0.7330   20.8485 N   0  0  0  0  0  0  0  0  0  0  0  0
    7.4389   -0.6996   20.9459 C   0  0  0  0  0  0  0  0  0  0  0  0
    6.6725    0.0209   19.9053 C   0  0  0  0  0  0  0  0  0  0  0  0
    7.1869    0.0676   18.5998 C   0  0  0  0  0  0  0  0  0  0  0  0
    8.1298   -0.4207   18.3695 H   0  0  0  0  0  0  0  0  0  0  0  0
    6.5649    0.6684   17.5826 N   0  0  0  0  0  0  0  0  0  0  0  0
    5.4051    1.2863   17.8416 C   0  0  0  0  0  0  0  0  0  0  0  0
    4.9265    1.7784   17.0004 H   0  0  0  0  0  0  0  0  0  0  0  0
    4.8130    1.3059   19.1081 C   0  0  0  0  0  0  0  0  0  0  0  0
    3.8813    1.8372   19.2564 H   0  0  0  0  0  0  0  0  0  0  0  0
    5.4429    0.6505   20.1617 C   0  0  0  0  0  0  0  0  0  0  0  0
    4.9971    0.6512   21.1605 H   0  0  0  0  0  0  0  0  0  0  0  0
  1  2  1  0
  2  3  2  0
  3  4  1  0
  4  5  2  0
  5  6  1  0
  6  7  1  0
  6  8  1  0
  6  9  1  0
  9 10  1  0
  9 11  1  0
 11 12  2  0
 11 13  1  0
 13 14  1  0
 13 15  1  0
 13 16  1  0
  5 17  1  0
 17 18  2  0
 18 19  1  0
 19 20  2  0
 20 21  1  0
 20 22  1  0
 22 23  2  0
 23 24  1  0
 23 25  1  0
 25 26  1  0
 25 27  2  0
 27 28  1  0
 18  2  1  0
 27 19  1  0
M  END
>  <cnnaffinity>  (1) 
-4.54954

>  <filename>  (1) 
CC(=O)NCc1nncc(-c2cccnc2)n1

$$$$
