
     RDKit          3D

 34 36  0  0  0  0  0  0  0  0999 V2000
    4.9298    1.8037   17.0058 H   0  0  0  0  0  0  0  0  0  0  0  0
    5.4255    1.2911   17.8282 C   0  0  0  0  0  0  0  0  0  0  0  0
    6.5831    0.6786   17.5372 N   0  0  0  0  0  0  0  0  0  0  0  0
    7.2336    0.0562   18.5300 C   0  0  0  0  0  0  0  0  0  0  0  0
    8.1832   -0.4100   18.2822 H   0  0  0  0  0  0  0  0  0  0  0  0
    6.7426    0.0032   19.8488 C   0  0  0  0  0  0  0  0  0  0  0  0
    7.3303   -0.6983   20.9044 O   0  0  0  0  0  0  0  0  0  0  0  0
    8.6572   -0.7548   21.0888 C   0  0  0  0  0  0  0  0  0  0  0  0
    9.5906   -0.0759   20.4790 N   0  0  0  0  0  0  0  0  0  0  0  0
   10.7529   -0.5198   21.0204 N   0  0  0  0  0  0  0  0  0  0  0  0
   10.5541   -1.4192   21.9021 N   0  0  0  0  0  0  0  0  0  0  0  0
    9.2080   -1.6018   21.9838 N   0  0  0  0  0  0  0  0  0  0  0  0
    8.6274   -2.5879   22.8345 C   0  0  0  0  0  0  0  0  0  0  0  0
    7.3916   -3.1416   22.4805 C   0  0  0  0  0  0  0  0  0  0  0  0
    6.8831   -2.8466   21.5695 H   0  0  0  0  0  0  0  0  0  0  0  0
    6.7911   -4.0748   23.3096 C   0  0  0  0  0  0  0  0  0  0  0  0
    5.8472   -4.5146   23.0346 H   0  0  0  0  0  0  0  0  0  0  0  0
    7.4020   -4.4604   24.5081 C   0  0  0  0  0  0  0  0  0  0  0  0
    6.7569   -5.3595   25.3699 N   0  0  0  0  0  0  0  0  0  0  0  0
    7.1826   -5.4780   26.2744 H   0  0  0  0  0  0  0  0  0  0  0  0
    5.6883   -6.1821   25.0849 C   0  0  0  0  0  0  0  0  0  0  0  0
    5.1917   -6.3104   23.9835 O   0  0  0  0  0  0  0  0  0  0  0  0
    5.1714   -6.9132   26.2953 C   0  0  0  0  0  0  0  0  0  0  0  0
    4.3148   -7.5288   26.0102 H   0  0  0  0  0  0  0  0  0  0  0  0
    5.9629   -7.5470   26.6997 H   0  0  0  0  0  0  0  0  0  0  0  0
    4.8916   -6.1809   27.0593 H   0  0  0  0  0  0  0  0  0  0  0  0
    8.6572   -3.9320   24.8491 C   0  0  0  0  0  0  0  0  0  0  0  0
    9.1503   -4.2588   25.7642 H   0  0  0  0  0  0  0  0  0  0  0  0
    9.2777   -3.0010   24.0103 C   0  0  0  0  0  0  0  0  0  0  0  0
   10.2608   -2.6028   24.2571 H   0  0  0  0  0  0  0  0  0  0  0  0
    5.5296    0.6207   20.1468 C   0  0  0  0  0  0  0  0  0  0  0  0
    5.1532    0.5873   21.1698 H   0  0  0  0  0  0  0  0  0  0  0  0
    4.8662    1.2826   19.1114 C   0  0  0  0  0  0  0  0  0  0  0  0
    3.9355    1.8032   19.2941 H   0  0  0  0  0  0  0  0  0  0  0  0
  1  2  1  0
  2  3  2  0
  3  4  1  0
  4  5  1  0
  4  6  2  0
  6  7  1  0
  7  8  1  0
  8  9  2  0
  9 10  1  0
 10 11  2  0
 11 12  1  0
 12 13  1  0
 13 14  2  0
 14 15  1  0
 14 16  1  0
 16 17  1  0
 16 18  2  0
 18 19  1  0
 19 20  1  0
 19 21  1  0
 21 22  2  0
 21 23  1  0
 23 24  1  0
 23 25  1  0
 23 26  1  0
 18 27  1  0
 27 28  1  0
 27 29  2  0
 29 30  1  0
  6 31  1  0
 31 32  1  0
 31 33  2  0
 33 34  1  0
 33  2  1  0
 12  8  1  0
 29 13  1  0
M  END
>  <cnnaffinity>  (1) 
-5.50514

>  <filename>  (1) 
CC(=O)Nc1ccc(-n2nnnc2Oc2cccnc2)cc1

$$$$
