
     RDKit          3D

 38 40  0  0  0  0  0  0  0  0999 V2000
    4.9187    1.8030   16.9729 H   0  0  0  0  0  0  0  0  0  0  0  0
    5.3874    1.3043   17.8196 C   0  0  0  0  0  0  0  0  0  0  0  0
    6.5502    0.6835   17.5613 N   0  0  0  0  0  0  0  0  0  0  0  0
    7.1561    0.0710   18.5861 C   0  0  0  0  0  0  0  0  0  0  0  0
    8.1023   -0.4181   18.3515 H   0  0  0  0  0  0  0  0  0  0  0  0
    6.6456    0.0068   19.8981 C   0  0  0  0  0  0  0  0  0  0  0  0
    7.3683   -0.7144   20.9803 C   0  0  0  0  0  0  0  0  0  0  0  0
    8.7814   -0.5671   21.1367 C   0  0  0  0  0  0  0  0  0  0  0  0
    9.3052    0.1017   20.4511 H   0  0  0  0  0  0  0  0  0  0  0  0
    9.4316   -1.2166   22.1368 C   0  0  0  0  0  0  0  0  0  0  0  0
   10.4968   -1.1482   22.3045 H   0  0  0  0  0  0  0  0  0  0  0  0
    8.7484   -2.0884   23.0859 C   0  0  0  0  0  0  0  0  0  0  0  0
    9.3341   -2.6919   23.9677 O   0  0  0  0  0  0  0  0  0  0  0  0
    7.3344   -2.1929   22.8893 N   0  0  0  0  0  0  0  0  0  0  0  0
    6.5620   -3.0266   23.7774 C   0  0  0  0  0  0  0  0  0  0  0  0
    5.7991   -4.0768   23.2480 C   0  0  0  0  0  0  0  0  0  0  0  0
    5.8145   -4.2324   22.1766 H   0  0  0  0  0  0  0  0  0  0  0  0
    5.0759   -4.9162   24.1031 C   0  0  0  0  0  0  0  0  0  0  0  0
    4.4847   -5.7369   23.7017 H   0  0  0  0  0  0  0  0  0  0  0  0
    5.0827   -4.6834   25.4800 C   0  0  0  0  0  0  0  0  0  0  0  0
    4.5263   -5.3033   26.1742 H   0  0  0  0  0  0  0  0  0  0  0  0
    5.8207   -3.6118   26.0020 C   0  0  0  0  0  0  0  0  0  0  0  0
    5.8422   -3.3883   27.3987 N   0  0  0  0  0  0  0  0  0  0  0  0
    6.6680   -2.9671   27.7853 H   0  0  0  0  0  0  0  0  0  0  0  0
    4.7785   -3.5817   28.2469 C   0  0  0  0  0  0  0  0  0  0  0  0
    3.6550   -3.8241   27.8463 O   0  0  0  0  0  0  0  0  0  0  0  0
    5.0777   -3.4660   29.7314 C   0  0  0  0  0  0  0  0  0  0  0  0
    6.0225   -3.9211   30.0512 H   0  0  0  0  0  0  0  0  0  0  0  0
    4.2647   -3.9829   30.2406 H   0  0  0  0  0  0  0  0  0  0  0  0
    5.0625   -2.4220   30.0663 H   0  0  0  0  0  0  0  0  0  0  0  0
    6.5812   -2.7958   25.1560 C   0  0  0  0  0  0  0  0  0  0  0  0
    7.2045   -1.9986   25.5457 H   0  0  0  0  0  0  0  0  0  0  0  0
    6.7055   -1.5271   21.8594 C   0  0  0  0  0  0  0  0  0  0  0  0
    5.6370   -1.6939   21.7762 H   0  0  0  0  0  0  0  0  0  0  0  0
    5.4243    0.6536   20.1396 C   0  0  0  0  0  0  0  0  0  0  0  0
    5.0058    0.6507   21.1463 H   0  0  0  0  0  0  0  0  0  0  0  0
    4.7946    1.3206   19.0867 C   0  0  0  0  0  0  0  0  0  0  0  0
    3.8637    1.8538   19.2352 H   0  0  0  0  0  0  0  0  0  0  0  0
  1  2  1  0
  2  3  2  0
  3  4  1  0
  4  5  1  0
  4  6  2  0
  6  7  1  0
  7  8  1  0
  8  9  1  0
  8 10  2  0
 10 11  1  0
 10 12  1  0
 12 13  2  0
 12 14  1  0
 14 15  1  0
 15 16  2  0
 16 17  1  0
 16 18  1  0
 18 19  1  0
 18 20  2  0
 20 21  1  0
 20 22  1  0
 22 23  1  0
 23 24  1  0
 23 25  1  0
 25 26  2  0
 25 27  1  0
 27 28  1  0
 27 29  1  0
 27 30  1  0
 22 31  2  0
 31 32  1  0
 14 33  1  0
 33 34  1  0
  6 35  1  0
 35 36  1  0
 35 37  2  0
 37 38  1  0
 37  2  1  0
 33  7  2  0
 31 15  1  0
M  END
>  <cnnaffinity>  (1) 
-5.29558

>  <filename>  (1) 
CC(=O)Nc1cccc(-n2cc(-c3cccnc3)ccc2=O)c1

$$$$
