
     RDKit          3D

 36 38  0  0  0  0  0  0  0  0999 V2000
    4.9614    1.9255   16.9227 H   0  0  0  0  0  0  0  0  0  0  0  0
    5.4024    1.3746   17.7508 C   0  0  0  0  0  0  0  0  0  0  0  0
    6.5724    0.7661   17.4929 N   0  0  0  0  0  0  0  0  0  0  0  0
    7.1338    0.0840   18.4974 C   0  0  0  0  0  0  0  0  0  0  0  0
    8.0955   -0.3797   18.2730 H   0  0  0  0  0  0  0  0  0  0  0  0
    6.5547   -0.0822   19.7797 C   0  0  0  0  0  0  0  0  0  0  0  0
    7.2423   -0.8735   20.8395 C   0  0  0  0  0  0  0  0  0  0  0  0
    8.5506   -0.6369   21.0785 C   0  0  0  0  0  0  0  0  0  0  0  0
    9.0940    0.1385   20.5411 H   0  0  0  0  0  0  0  0  0  0  0  0
    9.2853   -1.3142   22.0429 N   0  0  0  0  0  0  0  0  0  0  0  0
   10.6617   -0.9309   22.2436 C   0  0  0  0  0  0  0  0  0  0  0  0
   11.7181   -1.8410   22.1330 C   0  0  0  0  0  0  0  0  0  0  0  0
   11.5149   -2.9023   22.0638 H   0  0  0  0  0  0  0  0  0  0  0  0
   13.0341   -1.3607   22.1640 C   0  0  0  0  0  0  0  0  0  0  0  0
   13.8626   -2.0497   22.0290 H   0  0  0  0  0  0  0  0  0  0  0  0
   13.2947   -0.0016   22.3534 C   0  0  0  0  0  0  0  0  0  0  0  0
   14.3268    0.3405   22.3576 H   0  0  0  0  0  0  0  0  0  0  0  0
   12.2291    0.9064   22.4973 C   0  0  0  0  0  0  0  0  0  0  0  0
   12.3929    2.3940   22.6865 C   0  0  0  0  0  0  0  0  0  0  0  0
   11.4590    3.1598   22.5387 O   0  0  0  0  0  0  0  0  0  0  0  0
   13.7219    2.9115   23.1411 C   0  0  0  0  0  0  0  0  0  0  0  0
   13.8657    2.5447   24.1562 H   0  0  0  0  0  0  0  0  0  0  0  0
   14.5520    2.4980   22.5669 H   0  0  0  0  0  0  0  0  0  0  0  0
   13.7267    4.0041   23.1015 H   0  0  0  0  0  0  0  0  0  0  0  0
   10.9172    0.4204   22.4456 C   0  0  0  0  0  0  0  0  0  0  0  0
   10.0712    1.0983   22.5331 H   0  0  0  0  0  0  0  0  0  0  0  0
    8.6571   -2.1756   22.9555 C   0  0  0  0  0  0  0  0  0  0  0  0
    9.2044   -2.7993   23.8293 O   0  0  0  0  0  0  0  0  0  0  0  0
    7.3071   -2.2634   22.7990 N   0  0  0  0  0  0  0  0  0  0  0  0
    6.9051   -2.9893   23.3582 H   0  0  0  0  0  0  0  0  0  0  0  0
    6.5767   -1.9113   21.6807 C   0  0  0  0  0  0  0  0  0  0  0  0
    5.5236   -2.4771   21.4946 O   0  0  0  0  0  0  0  0  0  0  0  0
    5.3479    0.5879   20.0262 C   0  0  0  0  0  0  0  0  0  0  0  0
    4.9043    0.5560   21.0203 H   0  0  0  0  0  0  0  0  0  0  0  0
    4.7650    1.3267   18.9927 C   0  0  0  0  0  0  0  0  0  0  0  0
    3.8438    1.8777   19.1409 H   0  0  0  0  0  0  0  0  0  0  0  0
  1  2  1  0
  2  3  2  0
  3  4  1  0
  4  5  1  0
  4  6  2  0
  6  7  1  0
  7  8  2  0
  8  9  1  0
  8 10  1  0
 10 11  1  0
 11 12  2  0
 12 13  1  0
 12 14  1  0
 14 15  1  0
 14 16  2  0
 16 17  1  0
 16 18  1  0
 18 19  1  0
 19 20  2  0
 19 21  1  0
 21 22  1  0
 21 23  1  0
 21 24  1  0
 18 25  2  0
 25 26  1  0
 10 27  1  0
 27 28  2  0
 27 29  1  0
 29 30  1  0
 29 31  1  0
 31 32  2  0
  6 33  1  0
 33 34  1  0
 33 35  2  0
 35 36  1  0
 35  2  1  0
 31  7  1  0
 25 11  1  0
M  END
>  <cnnaffinity>  (1) 
-5.40311

>  <filename>  (1) 
CC(=O)c1cccc(-n2cc(-c3cccnc3)c(=O)[nH]c2=O)c1

$$$$
