
     RDKit          3D

 40 43  0  0  0  0  0  0  0  0999 V2000
    5.0140    1.8236   16.9051 H   0  0  0  0  0  0  0  0  0  0  0  0
    5.3916    1.3060   17.7852 C   0  0  0  0  0  0  0  0  0  0  0  0
    6.5432    0.6369   17.6203 N   0  0  0  0  0  0  0  0  0  0  0  0
    7.0421    0.0098   18.6915 C   0  0  0  0  0  0  0  0  0  0  0  0
    7.9726   -0.5357   18.5367 H   0  0  0  0  0  0  0  0  0  0  0  0
    6.4358   -0.0084   19.9629 C   0  0  0  0  0  0  0  0  0  0  0  0
    7.1745   -0.6389   21.0668 C   0  0  0  0  0  0  0  0  0  0  0  0
    8.5375   -0.6794   21.2619 C   0  0  0  0  0  0  0  0  0  0  0  0
    8.7372   -1.2829   22.4920 C   0  0  0  0  0  0  0  0  0  0  0  0
    7.6058   -1.6494   23.0688 N   0  0  0  0  0  0  0  0  0  0  0  0
    6.6575   -1.2367   22.1829 N   0  0  0  0  0  0  0  0  0  0  0  0
    5.6873   -1.4630   22.3601 H   0  0  0  0  0  0  0  0  0  0  0  0
   10.1813   -1.3025   22.8989 C   0  0  0  0  0  0  0  0  0  0  0  0
   10.3159   -0.8616   23.8936 H   0  0  0  0  0  0  0  0  0  0  0  0
   10.5703   -2.3232   22.9613 H   0  0  0  0  0  0  0  0  0  0  0  0
   10.8900   -0.4582   21.7666 C   0  0  2  0  0  0  0  0  0  0  0  0
   11.7164   -1.0389   21.3445 H   0  0  0  0  0  0  0  0  0  0  0  0
   11.4301    0.8503   22.3115 C   0  0  0  0  0  0  0  0  0  0  0  0
   10.5138    1.7884   22.8239 C   0  0  0  0  0  0  0  0  0  0  0  0
    9.4519    1.5584   22.8361 H   0  0  0  0  0  0  0  0  0  0  0  0
   10.9295    3.0272   23.2857 C   0  0  0  0  0  0  0  0  0  0  0  0
   10.1990    3.7404   23.6566 H   0  0  0  0  0  0  0  0  0  0  0  0
   12.2865    3.3802   23.2516 C   0  0  0  0  0  0  0  0  0  0  0  0
   12.6838    4.7689   23.6605 C   0  0  0  0  0  0  0  0  0  0  0  0
   12.0175    5.4312   24.4321 O   0  0  0  0  0  0  0  0  0  0  0  0
   13.9697    5.3166   23.0858 C   0  0  0  0  0  0  0  0  0  0  0  0
   13.8907    6.3977   22.9638 H   0  0  0  0  0  0  0  0  0  0  0  0
   14.7514    5.0632   23.8078 H   0  0  0  0  0  0  0  0  0  0  0  0
   14.2556    4.8708   22.1309 H   0  0  0  0  0  0  0  0  0  0  0  0
   13.2160    2.4377   22.7745 C   0  0  0  0  0  0  0  0  0  0  0  0
   14.2738    2.6886   22.7381 H   0  0  0  0  0  0  0  0  0  0  0  0
   12.7950    1.1840   22.3232 C   0  0  0  0  0  0  0  0  0  0  0  0
   13.5389    0.4868   21.9474 H   0  0  0  0  0  0  0  0  0  0  0  0
    9.8071   -0.2012   20.6500 C   0  0  0  0  0  0  0  0  0  0  0  0
    9.7471    0.8577   20.3687 H   0  0  0  0  0  0  0  0  0  0  0  0
   10.0092   -0.7292   19.7168 H   0  0  0  0  0  0  0  0  0  0  0  0
    5.2138    0.6723   20.1055 C   0  0  0  0  0  0  0  0  0  0  0  0
    4.7001    0.6970   21.0678 H   0  0  0  0  0  0  0  0  0  0  0  0
    4.6935    1.3450   18.9985 C   0  0  0  0  0  0  0  0  0  0  0  0
    3.7735    1.9156   19.0643 H   0  0  0  0  0  0  0  0  0  0  0  0
  1  2  1  0
  2  3  2  0
  3  4  1  0
  4  5  1  0
  4  6  2  0
  6  7  1  0
  7  8  2  0
  8  9  1  0
  9 10  2  0
 10 11  1  0
 11 12  1  0
  9 13  1  0
 13 14  1  0
 13 15  1  0
 13 16  1  0
 16 17  1  6
 16 18  1  0
 18 19  2  0
 19 20  1  0
 19 21  1  0
 21 22  1  0
 21 23  2  0
 23 24  1  0
 24 25  2  0
 24 26  1  0
 26 27  1  0
 26 28  1  0
 26 29  1  0
 23 30  1  0
 30 31  1  0
 30 32  2  0
 32 33  1  0
 16 34  1  0
 34 35  1  0
 34 36  1  0
  6 37  1  0
 37 38  1  0
 37 39  2  0
 39 40  1  0
 39  2  1  0
 11  7  1  0
 32 18  1  0
 34  8  1  0
M  END
>  <cnnaffinity>  (1) 
-6.02514

>  <filename>  (1) 
CC(=O)c1ccc([C@H]2Cc3n[nH]c(-c4cccnc4)c3C2)cc1

$$$$
