
     RDKit          3D

 42 45  0  0  0  0  0  0  0  0999 V2000
    4.9775    1.8396   16.9343 H   0  0  0  0  0  0  0  0  0  0  0  0
    5.4101    1.2957   17.7752 C   0  0  0  0  0  0  0  0  0  0  0  0
    6.5566    0.6436   17.5335 N   0  0  0  0  0  0  0  0  0  0  0  0
    7.1355    0.0091   18.5589 C   0  0  0  0  0  0  0  0  0  0  0  0
    8.0580   -0.5193   18.3278 H   0  0  0  0  0  0  0  0  0  0  0  0
    6.6236    0.0067   19.8694 C   0  0  0  0  0  0  0  0  0  0  0  0
    7.3821   -0.6295   20.9551 C   0  0  0  0  0  0  0  0  0  0  0  0
    8.0660   -1.7546   20.7549 N   0  0  0  0  0  0  0  0  0  0  0  0
    8.5699   -2.0332   21.9557 N   0  0  0  0  0  0  0  0  0  0  0  0
    8.2932   -1.1612   22.9176 C   0  0  0  0  0  0  0  0  0  0  0  0
    7.5115   -0.1917   22.3130 C   0  0  0  0  0  0  0  0  0  0  0  0
    7.0844    1.0392   22.9561 C   0  0  0  0  0  0  0  0  0  0  0  0
    6.5953    0.9920   24.2697 C   0  0  0  0  0  0  0  0  0  0  0  0
    6.4675    0.0292   24.7565 H   0  0  0  0  0  0  0  0  0  0  0  0
    6.2561    2.1714   24.9284 C   0  0  0  0  0  0  0  0  0  0  0  0
    5.8684    2.1342   25.9429 H   0  0  0  0  0  0  0  0  0  0  0  0
    6.4421    3.4052   24.3056 C   0  0  0  0  0  0  0  0  0  0  0  0
    6.2285    4.3367   24.8147 H   0  0  0  0  0  0  0  0  0  0  0  0
    6.9374    3.4448   22.9959 C   0  0  0  0  0  0  0  0  0  0  0  0
    7.1386    4.6630   22.3350 N   0  0  0  0  0  0  0  0  0  0  0  0
    7.0145    4.6605   21.3370 H   0  0  0  0  0  0  0  0  0  0  0  0
    7.4973    5.8421   22.9297 C   0  0  0  0  0  0  0  0  0  0  0  0
    7.8387    5.9266   24.0935 O   0  0  0  0  0  0  0  0  0  0  0  0
    7.4437    7.0169   21.9872 C   0  0  0  0  0  0  0  0  0  0  0  0
    6.5842    6.9390   21.3140 H   0  0  0  0  0  0  0  0  0  0  0  0
    8.3658    7.0437   21.4000 H   0  0  0  0  0  0  0  0  0  0  0  0
    7.3711    7.9350   22.5675 H   0  0  0  0  0  0  0  0  0  0  0  0
    7.2340    2.2710   22.3166 C   0  0  0  0  0  0  0  0  0  0  0  0
    7.6116    2.3166   21.3005 H   0  0  0  0  0  0  0  0  0  0  0  0
    9.0832   -1.4743   24.1650 C   0  0  0  0  0  0  0  0  0  0  0  0
    9.7174   -0.6360   24.4654 H   0  0  0  0  0  0  0  0  0  0  0  0
    8.4274   -1.6904   25.0103 H   0  0  0  0  0  0  0  0  0  0  0  0
    9.9201   -2.7148   23.7502 C   0  0  0  0  0  0  0  0  0  0  0  0
    9.7325   -3.5598   24.4128 H   0  0  0  0  0  0  0  0  0  0  0  0
   10.9821   -2.4906   23.7814 H   0  0  0  0  0  0  0  0  0  0  0  0
    9.5324   -3.0486   22.2845 C   0  0  0  0  0  0  0  0  0  0  0  0
    9.0721   -4.0309   22.1653 H   0  0  0  0  0  0  0  0  0  0  0  0
   10.3801   -2.9338   21.6071 H   0  0  0  0  0  0  0  0  0  0  0  0
    5.3898    0.6396   20.0894 C   0  0  0  0  0  0  0  0  0  0  0  0
    4.9213    0.6309   21.0753 H   0  0  0  0  0  0  0  0  0  0  0  0
    4.7819    1.3019   19.0234 C   0  0  0  0  0  0  0  0  0  0  0  0
    3.8493    1.8362   19.1478 H   0  0  0  0  0  0  0  0  0  0  0  0
  1  2  1  0
  2  3  2  0
  3  4  1  0
  4  5  1  0
  4  6  2  0
  6  7  1  0
  7  8  2  0
  8  9  1  0
  9 10  1  0
 10 11  2  0
 11 12  1  0
 12 13  2  0
 13 14  1  0
 13 15  1  0
 15 16  1  0
 15 17  2  0
 17 18  1  0
 17 19  1  0
 19 20  1  0
 20 21  1  0
 20 22  1  0
 22 23  2  0
 22 24  1  0
 24 25  1  0
 24 26  1  0
 24 27  1  0
 19 28  2  0
 28 29  1  0
 10 30  1  0
 30 31  1  0
 30 32  1  0
 30 33  1  0
 33 34  1  0
 33 35  1  0
 33 36  1  0
 36 37  1  0
 36 38  1  0
  6 39  1  0
 39 40  1  0
 39 41  2  0
 41 42  1  0
 41  2  1  0
 11  7  1  0
 28 12  1  0
 36  9  1  0
M  END
>  <cnnaffinity>  (1) 
-5.66269

>  <filename>  (1) 
CC(=O)Nc1cccc(-c2c(-c3cccnc3)nn3c2CCC3)c1

$$$$
