
     RDKit          3D

 30 31  0  0  0  0  0  0  0  0999 V2000
    5.6025   -1.2578   27.7976 H   0  0  0  0  0  0  0  0  0  0  0  0
    5.8630   -1.0576   26.8789 O   0  0  0  0  0  0  0  0  0  0  0  0
    6.4548   -2.2401   26.6406 C   0  0  0  0  0  0  0  0  0  0  0  0
    6.4619   -3.0451   27.5450 O   0  0  0  0  0  0  0  0  0  0  0  0
    7.0359   -2.4691   25.2867 C   0  0  0  0  0  0  0  0  0  0  0  0
    7.9068   -3.5662   25.1113 C   0  0  0  0  0  0  0  0  0  0  0  0
    8.1869   -4.1545   25.9813 H   0  0  0  0  0  0  0  0  0  0  0  0
    8.3778   -3.8974   23.8410 C   0  0  0  0  0  0  0  0  0  0  0  0
    9.0269   -4.7546   23.7049 H   0  0  0  0  0  0  0  0  0  0  0  0
    8.0004   -3.1449   22.7245 C   0  0  0  0  0  0  0  0  0  0  0  0
    8.3261   -3.3950   21.7183 H   0  0  0  0  0  0  0  0  0  0  0  0
    7.1620   -2.0352   22.9003 C   0  0  0  0  0  0  0  0  0  0  0  0
    6.6586   -1.2556   21.8576 N   0  0  0  0  0  0  0  0  0  0  0  0
    7.3696   -0.6965   20.9572 C   0  0  0  0  0  0  0  0  0  0  0  0
    6.6467    0.0396   19.9081 C   0  0  0  0  0  0  0  0  0  0  0  0
    7.1795    0.0602   18.6196 C   0  0  0  0  0  0  0  0  0  0  0  0
    8.1255   -0.4458   18.4189 H   0  0  0  0  0  0  0  0  0  0  0  0
    6.5897    0.6585   17.5817 N   0  0  0  0  0  0  0  0  0  0  0  0
    5.4301    1.2911   17.8129 C   0  0  0  0  0  0  0  0  0  0  0  0
    4.9748    1.7948   16.9650 H   0  0  0  0  0  0  0  0  0  0  0  0
    4.8064    1.3231   19.0661 C   0  0  0  0  0  0  0  0  0  0  0  0
    3.8717    1.8528   19.1951 H   0  0  0  0  0  0  0  0  0  0  0  0
    5.4124    0.6752   20.1320 C   0  0  0  0  0  0  0  0  0  0  0  0
    4.9663    0.6396   21.1285 H   0  0  0  0  0  0  0  0  0  0  0  0
    8.8777   -0.7710   20.9171 C   0  0  0  0  0  0  0  0  0  0  0  0
    9.2743   -0.8437   21.9324 H   0  0  0  0  0  0  0  0  0  0  0  0
    9.3209    0.1030   20.4375 H   0  0  0  0  0  0  0  0  0  0  0  0
    9.1835   -1.6702   20.3748 H   0  0  0  0  0  0  0  0  0  0  0  0
    6.6814   -1.6990   24.1710 C   0  0  0  0  0  0  0  0  0  0  0  0
    6.0289   -0.8318   24.2322 H   0  0  0  0  0  0  0  0  0  0  0  0
  1  2  1  0
  2  3  1  0
  3  4  2  0
  3  5  1  0
  5  6  2  0
  6  7  1  0
  6  8  1  0
  8  9  1  0
  8 10  2  0
 10 11  1  0
 10 12  1  0
 12 13  1  0
 13 14  2  3
 14 15  1  0
 15 16  2  0
 16 17  1  0
 16 18  1  0
 18 19  2  0
 19 20  1  0
 19 21  1  0
 21 22  1  0
 21 23  2  0
 23 24  1  0
 14 25  1  0
 25 26  1  0
 25 27  1  0
 25 28  1  0
 12 29  2  0
 29 30  1  0
 29  5  1  0
 23 15  1  0
M  END
>  <cnnaffinity>  (1) 
-4.4768

>  <filename>  (1) 
CC(=Nc1cccc(C(=O)O)c1)c1cccnc1

$$$$
