
     RDKit          3D

 35 37  0  0  0  0  0  0  0  0999 V2000
    4.9085    1.7810   16.9968 H   0  0  0  0  0  0  0  0  0  0  0  0
    5.3978    1.2966   17.8386 C   0  0  0  0  0  0  0  0  0  0  0  0
    6.5631    0.6833   17.5735 N   0  0  0  0  0  0  0  0  0  0  0  0
    7.1746    0.0619   18.5911 C   0  0  0  0  0  0  0  0  0  0  0  0
    8.1208   -0.4310   18.3783 H   0  0  0  0  0  0  0  0  0  0  0  0
    6.6652   -0.0068   19.9116 C   0  0  0  0  0  0  0  0  0  0  0  0
    7.3245   -0.7081   20.9315 N   0  0  0  0  0  0  0  0  0  0  0  0
    6.7654   -1.0751   21.6922 H   0  0  0  0  0  0  0  0  0  0  0  0
    8.7150   -0.7736   21.0978 C   0  0  0  0  0  0  0  0  0  0  0  0
    9.7031    0.1336   20.6628 C   0  0  0  0  0  0  0  0  0  0  0  0
    9.5279    1.0145   20.0733 H   0  0  0  0  0  0  0  0  0  0  0  0
   10.9150   -0.1951   21.0978 N   0  0  0  0  0  0  0  0  0  0  0  0
   10.7066   -1.3133   21.8034 N   0  0  0  0  0  0  0  0  0  0  0  0
   11.4930   -1.7741   22.2336 H   0  0  0  0  0  0  0  0  0  0  0  0
    9.4111   -1.7214   21.8279 C   0  0  0  0  0  0  0  0  0  0  0  0
    8.9296   -2.9171   22.5282 C   0  0  0  0  0  0  0  0  0  0  0  0
    9.4986   -3.3100   23.7521 C   0  0  0  0  0  0  0  0  0  0  0  0
   10.3087   -2.7266   24.1875 H   0  0  0  0  0  0  0  0  0  0  0  0
    9.0069   -4.4326   24.4108 C   0  0  0  0  0  0  0  0  0  0  0  0
    9.4508   -4.7336   25.3549 H   0  0  0  0  0  0  0  0  0  0  0  0
    7.9538   -5.1721   23.8617 C   0  0  0  0  0  0  0  0  0  0  0  0
    7.5975   -6.0407   24.4071 H   0  0  0  0  0  0  0  0  0  0  0  0
    7.3727   -4.7984   22.6351 C   0  0  0  0  0  0  0  0  0  0  0  0
    6.2358   -5.5601   21.9999 C   0  0  0  0  0  0  0  0  0  0  0  0
    5.7455   -5.1992   20.9462 O   0  0  0  0  0  0  0  0  0  0  0  0
    5.7093   -6.7951   22.6947 C   0  0  0  0  0  0  0  0  0  0  0  0
    6.4968   -7.5462   22.8070 H   0  0  0  0  0  0  0  0  0  0  0  0
    5.3175   -6.5526   23.6877 H   0  0  0  0  0  0  0  0  0  0  0  0
    4.9056   -7.2036   22.0881 H   0  0  0  0  0  0  0  0  0  0  0  0
    7.8753   -3.6620   21.9786 C   0  0  0  0  0  0  0  0  0  0  0  0
    7.4583   -3.3565   21.0209 H   0  0  0  0  0  0  0  0  0  0  0  0
    5.4448    0.6367   20.1629 C   0  0  0  0  0  0  0  0  0  0  0  0
    5.0169    0.6228   21.1678 H   0  0  0  0  0  0  0  0  0  0  0  0
    4.8106    1.3080   19.1109 C   0  0  0  0  0  0  0  0  0  0  0  0
    3.8767    1.8413   19.2657 H   0  0  0  0  0  0  0  0  0  0  0  0
  1  2  1  0
  2  3  2  0
  3  4  1  0
  4  5  1  0
  4  6  2  0
  6  7  1  0
  7  8  1  0
  7  9  1  0
  9 10  1  0
 10 11  1  0
 10 12  2  0
 12 13  1  0
 13 14  1  0
 13 15  1  0
 15 16  1  0
 16 17  2  0
 17 18  1  0
 17 19  1  0
 19 20  1  0
 19 21  2  0
 21 22  1  0
 21 23  1  0
 23 24  1  0
 24 25  2  0
 24 26  1  0
 26 27  1  0
 26 28  1  0
 26 29  1  0
 23 30  2  0
 30 31  1  0
  6 32  1  0
 32 33  1  0
 32 34  2  0
 34 35  1  0
 34  2  1  0
 15  9  2  0
 30 16  1  0
M  END
>  <cnnaffinity>  (1) 
-5.58966

>  <filename>  (1) 
CC(=O)c1cccc(-c2[nH]ncc2Nc2cccnc2)c1

$$$$
