
     RDKit          3D

 36 38  0  0  0  0  0  0  0  0999 V2000
    4.9138    1.7856   16.9892 H   0  0  0  0  0  0  0  0  0  0  0  0
    5.3979    1.2983   17.8292 C   0  0  0  0  0  0  0  0  0  0  0  0
    6.5598    0.6810   17.5612 N   0  0  0  0  0  0  0  0  0  0  0  0
    7.1663    0.0757   18.5875 C   0  0  0  0  0  0  0  0  0  0  0  0
    8.1079   -0.4233   18.3682 H   0  0  0  0  0  0  0  0  0  0  0  0
    6.6489    0.0139   19.8943 C   0  0  0  0  0  0  0  0  0  0  0  0
    7.3666   -0.7068   20.9715 C   0  0  0  0  0  0  0  0  0  0  0  0
    8.7808   -0.5544   21.1230 C   0  0  0  0  0  0  0  0  0  0  0  0
    9.3127    0.1175   20.4411 H   0  0  0  0  0  0  0  0  0  0  0  0
    9.4288   -1.2074   22.1250 C   0  0  0  0  0  0  0  0  0  0  0  0
   10.4933   -1.1319   22.2861 H   0  0  0  0  0  0  0  0  0  0  0  0
    8.7458   -2.0902   23.0632 C   0  0  0  0  0  0  0  0  0  0  0  0
    9.3275   -2.6950   23.9481 O   0  0  0  0  0  0  0  0  0  0  0  0
    7.3318   -2.2010   22.8611 N   0  0  0  0  0  0  0  0  0  0  0  0
    6.5559   -3.0334   23.7487 C   0  0  0  0  0  0  0  0  0  0  0  0
    6.5849   -2.7909   25.1278 C   0  0  0  0  0  0  0  0  0  0  0  0
    7.1967   -1.9794   25.5099 H   0  0  0  0  0  0  0  0  0  0  0  0
    5.8415   -3.6104   25.9800 C   0  0  0  0  0  0  0  0  0  0  0  0
    5.8629   -3.4304   27.0516 H   0  0  0  0  0  0  0  0  0  0  0  0
    5.0799   -4.6676   25.4694 C   0  0  0  0  0  0  0  0  0  0  0  0
    4.5124   -5.2854   26.1642 H   0  0  0  0  0  0  0  0  0  0  0  0
    5.0497   -4.9246   24.0848 C   0  0  0  0  0  0  0  0  0  0  0  0
    4.2348   -6.0429   23.4727 C   0  0  0  0  0  0  0  0  0  0  0  0
    4.2185   -6.2200   22.2696 O   0  0  0  0  0  0  0  0  0  0  0  0
    3.4239   -6.9392   24.3855 C   0  0  0  0  0  0  0  0  0  0  0  0
    4.0657   -7.4447   25.1147 H   0  0  0  0  0  0  0  0  0  0  0  0
    2.9106   -7.6826   23.7746 H   0  0  0  0  0  0  0  0  0  0  0  0
    2.6850   -6.3602   24.9503 H   0  0  0  0  0  0  0  0  0  0  0  0
    5.7972   -4.0850   23.2304 C   0  0  0  0  0  0  0  0  0  0  0  0
    5.8042   -4.2540   22.1565 H   0  0  0  0  0  0  0  0  0  0  0  0
    6.6951   -1.5247   21.8427 C   0  0  0  0  0  0  0  0  0  0  0  0
    5.6217   -1.6873   21.7560 H   0  0  0  0  0  0  0  0  0  0  0  0
    5.4263    0.6512   20.1479 C   0  0  0  0  0  0  0  0  0  0  0  0
    5.0091    0.6393   21.1605 H   0  0  0  0  0  0  0  0  0  0  0  0
    4.8003    1.3193   19.0964 C   0  0  0  0  0  0  0  0  0  0  0  0
    3.8674    1.8487   19.2540 H   0  0  0  0  0  0  0  0  0  0  0  0
  1  2  1  0
  2  3  2  0
  3  4  1  0
  4  5  1  0
  4  6  2  0
  6  7  1  0
  7  8  1  0
  8  9  1  0
  8 10  2  0
 10 11  1  0
 10 12  1  0
 12 13  2  0
 12 14  1  0
 14 15  1  0
 15 16  2  0
 16 17  1  0
 16 18  1  0
 18 19  1  0
 18 20  2  0
 20 21  1  0
 20 22  1  0
 22 23  1  0
 23 24  2  0
 23 25  1  0
 25 26  1  0
 25 27  1  0
 25 28  1  0
 22 29  2  0
 29 30  1  0
 14 31  1  0
 31 32  1  0
  6 33  1  0
 33 34  1  0
 33 35  2  0
 35 36  1  0
 35  2  1  0
 31  7  2  0
 29 15  1  0
M  END
>  <cnnaffinity>  (1) 
-5.27394

>  <filename>  (1) 
CC(=O)c1cccc(-n2cc(-c3cccnc3)ccc2=O)c1

$$$$
