
     RDKit          3D

 42 44  0  0  0  0  0  0  0  0999 V2000
   10.9965    4.8390   23.0229 C   0  0  0  0  0  0  0  0  0  0  0  0
   10.5181    3.4662   22.6103 C   0  0  0  0  0  0  0  0  0  0  0  0
    9.3396    3.1864   22.6271 O   0  0  0  0  0  0  0  0  0  0  0  0
   11.6139    2.4738   22.1667 C   0  0  0  0  0  0  0  0  0  0  0  0
   12.5676    2.0517   23.3441 C   0  0  0  0  0  0  0  0  0  0  0  0
   12.6241    0.5286   23.5156 C   0  0  0  0  0  0  0  0  0  0  0  0
   11.2314   -0.0834   23.5668 C   0  0  0  0  0  0  0  0  0  0  0  0
   10.4375    0.3174   22.3994 N   0  0  0  0  0  0  0  0  0  0  0  0
    9.3277   -0.3979   22.0917 C   0  0  0  0  0  0  0  0  0  0  0  0
    9.0171   -1.4385   22.8766 N   0  0  0  0  0  0  0  0  0  0  0  0
    7.9384   -2.1253   22.5381 C   0  0  0  0  0  0  0  0  0  0  0  0
    7.0727   -1.7913   21.4980 C   0  0  0  0  0  0  0  0  0  0  0  0
    5.8396   -2.6242   21.2031 C   0  0  0  0  0  0  0  0  0  0  0  0
    4.9585   -2.2276   21.7145 H   0  0  0  0  0  0  0  0  0  0  0  0
    5.6122   -2.6323   20.1320 H   0  0  0  0  0  0  0  0  0  0  0  0
    5.9728   -3.6561   21.5493 H   0  0  0  0  0  0  0  0  0  0  0  0
    7.4705   -0.6306   20.8161 C   0  0  0  0  0  0  0  0  0  0  0  0
    6.6710   -0.0090   19.7515 C   0  0  0  0  0  0  0  0  0  0  0  0
    5.3869    0.5308   19.8981 C   0  0  0  0  0  0  0  0  0  0  0  0
    4.8455    1.2109   18.8075 C   0  0  0  0  0  0  0  0  0  0  0  0
    5.5804    1.2820   17.6182 C   0  0  0  0  0  0  0  0  0  0  0  0
    6.7921    0.7254   17.4575 N   0  0  0  0  0  0  0  0  0  0  0  0
    7.3220    0.1201   18.5205 C   0  0  0  0  0  0  0  0  0  0  0  0
    8.3211   -0.2981   18.3919 H   0  0  0  0  0  0  0  0  0  0  0  0
    5.1803    1.8045   16.7533 H   0  0  0  0  0  0  0  0  0  0  0  0
    3.8827    1.7045   18.8712 H   0  0  0  0  0  0  0  0  0  0  0  0
    4.8326    0.4545   20.8389 H   0  0  0  0  0  0  0  0  0  0  0  0
    8.6380   -0.0262   21.0208 N   0  0  0  0  0  0  0  0  0  0  0  0
    7.7467   -3.0284   23.1243 H   0  0  0  0  0  0  0  0  0  0  0  0
   10.9931    1.2709   21.4430 C   0  0  0  0  0  0  0  0  0  0  0  0
   11.7682    0.7770   20.8454 H   0  0  0  0  0  0  0  0  0  0  0  0
   10.2061    1.5970   20.7617 H   0  0  0  0  0  0  0  0  0  0  0  0
   11.2867   -1.1739   23.5790 H   0  0  0  0  0  0  0  0  0  0  0  0
   10.7017    0.2059   24.4876 H   0  0  0  0  0  0  0  0  0  0  0  0
   13.1680    0.2589   24.4236 H   0  0  0  0  0  0  0  0  0  0  0  0
   13.1774    0.0853   22.6770 H   0  0  0  0  0  0  0  0  0  0  0  0
   13.5877    2.4146   23.1711 H   0  0  0  0  0  0  0  0  0  0  0  0
   12.2367    2.5072   24.2890 H   0  0  0  0  0  0  0  0  0  0  0  0
   12.2120    3.0069   21.4176 H   0  0  0  0  0  0  0  0  0  0  0  0
   10.1737    5.4169   23.4465 H   0  0  0  0  0  0  0  0  0  0  0  0
   11.7993    4.7397   23.7567 H   0  0  0  0  0  0  0  0  0  0  0  0
   11.4130    5.3741   22.1623 H   0  0  0  0  0  0  0  0  0  0  0  0
  1  2  1  0
  2  3  2  0
  2  4  1  0
  4  5  1  0
  5  6  1  0
  6  7  1  0
  7  8  1  0
  8  9  1  0
  9 10  2  0
 10 11  1  0
 11 12  2  0
 12 13  1  0
 13 14  1  0
 13 15  1  0
 13 16  1  0
 12 17  1  0
 17 18  1  0
 18 19  2  0
 19 20  1  0
 20 21  2  0
 21 22  1  0
 22 23  2  0
 23 24  1  0
 21 25  1  0
 20 26  1  0
 19 27  1  0
 17 28  2  0
 11 29  1  0
  8 30  1  0
 30 31  1  0
 30 32  1  0
  7 33  1  0
  7 34  1  0
  6 35  1  0
  6 36  1  0
  5 37  1  0
  5 38  1  0
  4 39  1  0
  1 40  1  0
  1 41  1  0
  1 42  1  0
 30  4  1  0
 28  9  1  0
 23 18  1  0
M  END
>  <cnnaffinity>  (1) 
-5.40157

>  <filename>  (1) 
CC(=O)C1CCCN(c2ncc(C)c(-c3cccnc3)n2)C1

$$$$
