
     RDKit          3D

 37 40  0  0  0  0  0  0  0  0999 V2000
    4.9555    1.7818   16.9919 H   0  0  0  0  0  0  0  0  0  0  0  0
    5.4103    1.2825   17.8460 C   0  0  0  0  0  0  0  0  0  0  0  0
    6.5728    0.6579   17.6037 N   0  0  0  0  0  0  0  0  0  0  0  0
    7.1726    0.0465   18.6292 C   0  0  0  0  0  0  0  0  0  0  0  0
    8.1216   -0.4364   18.4045 H   0  0  0  0  0  0  0  0  0  0  0  0
    6.6428    0.0160   19.9242 C   0  0  0  0  0  0  0  0  0  0  0  0
    7.3766   -0.6897   20.9693 C   0  0  0  0  0  0  0  0  0  0  0  0
    8.5577   -1.3352   20.7542 N   0  0  0  0  0  0  0  0  0  0  0  0
    8.8032   -1.8203   21.9520 C   0  0  0  0  0  0  0  0  0  0  0  0
   10.0103   -2.7921   22.7301 S   0  0  0  0  0  0  0  0  0  0  0  0
    9.0859   -2.7647   24.2078 C   0  0  0  0  0  0  0  0  0  0  0  0
    9.4672   -3.2770   25.0779 H   0  0  0  0  0  0  0  0  0  0  0  0
    7.9499   -2.0330   24.1274 C   0  0  0  0  0  0  0  0  0  0  0  0
    6.9630   -1.7665   25.2059 C   0  0  0  0  0  0  0  0  0  0  0  0
    6.7421   -2.7384   26.2072 C   0  0  0  0  0  0  0  0  0  0  0  0
    7.2789   -3.6822   26.1720 H   0  0  0  0  0  0  0  0  0  0  0  0
    5.8273   -2.5245   27.2391 C   0  0  0  0  0  0  0  0  0  0  0  0
    5.6581   -3.2813   28.0022 H   0  0  0  0  0  0  0  0  0  0  0  0
    5.1030   -1.3288   27.2858 C   0  0  0  0  0  0  0  0  0  0  0  0
    4.1679   -1.1157   28.3155 N   0  0  0  0  0  0  0  0  0  0  0  0
    4.3334   -1.5687   29.1958 H   0  0  0  0  0  0  0  0  0  0  0  0
    2.9903   -0.4213   28.1893 C   0  0  0  0  0  0  0  0  0  0  0  0
    2.5505   -0.0453   27.1207 O   0  0  0  0  0  0  0  0  0  0  0  0
    2.2563   -0.1545   29.4857 C   0  0  0  0  0  0  0  0  0  0  0  0
    2.9108    0.0991   30.3266 H   0  0  0  0  0  0  0  0  0  0  0  0
    1.6400   -1.0114   29.7751 H   0  0  0  0  0  0  0  0  0  0  0  0
    1.5927    0.6846   29.2782 H   0  0  0  0  0  0  0  0  0  0  0  0
    5.3273   -0.3403   26.3168 C   0  0  0  0  0  0  0  0  0  0  0  0
    4.7526    0.5769   26.3779 H   0  0  0  0  0  0  0  0  0  0  0  0
    6.2441   -0.5546   25.2913 C   0  0  0  0  0  0  0  0  0  0  0  0
    6.3844    0.2004   24.5213 H   0  0  0  0  0  0  0  0  0  0  0  0
    7.8329   -1.4977   22.8341 N   0  0  0  0  0  0  0  0  0  0  0  0
    6.8943   -0.7530   22.2058 N   0  0  0  0  0  0  0  0  0  0  0  0
    5.4201    0.6617   20.1718 C   0  0  0  0  0  0  0  0  0  0  0  0
    4.9828    0.6534   21.1740 H   0  0  0  0  0  0  0  0  0  0  0  0
    4.7997    1.3095   19.1064 C   0  0  0  0  0  0  0  0  0  0  0  0
    3.8656    1.8478   19.2324 H   0  0  0  0  0  0  0  0  0  0  0  0
  1  2  1  0
  2  3  2  0
  3  4  1  0
  4  5  1  0
  4  6  2  0
  6  7  1  0
  7  8  1  0
  8  9  2  0
  9 10  1  0
 10 11  1  0
 11 12  1  0
 11 13  2  0
 13 14  1  0
 14 15  2  0
 15 16  1  0
 15 17  1  0
 17 18  1  0
 17 19  2  0
 19 20  1  0
 20 21  1  0
 20 22  1  0
 22 23  2  0
 22 24  1  0
 24 25  1  0
 24 26  1  0
 24 27  1  0
 19 28  1  0
 28 29  1  0
 28 30  2  0
 30 31  1  0
 13 32  1  0
 32 33  1  0
  6 34  1  0
 34 35  1  0
 34 36  2  0
 36 37  1  0
 36  2  1  0
 33  7  2  0
 32  9  1  0
 30 14  1  0
M  END
>  <cnnaffinity>  (1) 
-5.55362

>  <filename>  (1) 
CC(=O)Nc1ccc(-c2csc3nc(-c4cccnc4)nn23)cc1

$$$$
