
     RDKit          3D

 31 33  0  0  0  0  0  0  0  0999 V2000
    5.6849   -1.7542   21.5291 H   0  0  0  0  0  0  0  0  0  0  0  0
    6.7396   -1.5847   21.7144 C   0  0  0  0  0  0  0  0  0  0  0  0
    7.4078   -0.6913   20.9576 C   0  0  0  0  0  0  0  0  0  0  0  0
    6.6540    0.0188   19.8946 C   0  0  0  0  0  0  0  0  0  0  0  0
    7.1634    0.0805   18.5865 C   0  0  0  0  0  0  0  0  0  0  0  0
    8.1079   -0.4129   18.3750 H   0  0  0  0  0  0  0  0  0  0  0  0
    6.5579    0.6773   17.5549 N   0  0  0  0  0  0  0  0  0  0  0  0
    5.3989    1.2985   17.8259 C   0  0  0  0  0  0  0  0  0  0  0  0
    4.9171    1.7891   16.9849 H   0  0  0  0  0  0  0  0  0  0  0  0
    4.8009    1.3175   19.0951 C   0  0  0  0  0  0  0  0  0  0  0  0
    3.8677    1.8484   19.2495 H   0  0  0  0  0  0  0  0  0  0  0  0
    5.4234    0.6475   20.1477 C   0  0  0  0  0  0  0  0  0  0  0  0
    5.0082    0.6376   21.1603 H   0  0  0  0  0  0  0  0  0  0  0  0
    8.8693   -0.3866   21.1414 C   0  0  0  0  0  0  0  0  0  0  0  0
    9.4823   -1.2717   20.9431 H   0  0  0  0  0  0  0  0  0  0  0  0
    9.0829   -0.1166   22.1819 H   0  0  0  0  0  0  0  0  0  0  0  0
    9.1786    0.4329   20.4860 H   0  0  0  0  0  0  0  0  0  0  0  0
    7.2293   -2.4214   22.7857 C   0  0  0  0  0  0  0  0  0  0  0  0
    8.5595   -2.3884   23.1357 O   0  0  0  0  0  0  0  0  0  0  0  0
    8.7169   -3.2621   24.1641 C   0  0  0  0  0  0  0  0  0  0  0  0
    9.9007   -3.5695   24.8450 C   0  0  0  0  0  0  0  0  0  0  0  0
   10.8533   -3.1041   24.5901 H   0  0  0  0  0  0  0  0  0  0  0  0
    9.7899   -4.5129   25.8750 C   0  0  0  0  0  0  0  0  0  0  0  0
   10.6763   -4.7953   26.4423 H   0  0  0  0  0  0  0  0  0  0  0  0
    8.5542   -5.1222   26.2088 C   0  0  0  0  0  0  0  0  0  0  0  0
    8.5045   -5.8551   27.0162 H   0  0  0  0  0  0  0  0  0  0  0  0
    7.3939   -4.7979   25.5146 C   0  0  0  0  0  0  0  0  0  0  0  0
    6.4260   -5.2421   25.7407 H   0  0  0  0  0  0  0  0  0  0  0  0
    7.4817   -3.8544   24.4780 C   0  0  0  0  0  0  0  0  0  0  0  0
    6.5332   -3.2869   23.5656 C   0  0  0  0  0  0  0  0  0  0  0  0
    5.4737   -3.4933   23.5124 H   0  0  0  0  0  0  0  0  0  0  0  0
  1  2  1  0
  2  3  2  3
  3  4  1  0
  4  5  2  0
  5  6  1  0
  5  7  1  0
  7  8  2  0
  8  9  1  0
  8 10  1  0
 10 11  1  0
 10 12  2  0
 12 13  1  0
  3 14  1  0
 14 15  1  0
 14 16  1  0
 14 17  1  0
  2 18  1  0
 18 19  1  0
 19 20  1  0
 20 21  2  0
 21 22  1  0
 21 23  1  0
 23 24  1  0
 23 25  2  0
 25 26  1  0
 25 27  1  0
 27 28  1  0
 27 29  2  0
 29 30  1  0
 30 31  1  0
 12  4  1  0
 30 18  2  0
 29 20  1  0
M  END
>  <cnnaffinity>  (1) 
-4.66396

>  <filename>  (1) 
CC(=Cc1cc2ccccc2o1)c1cccnc1

$$$$
