
     RDKit          3D

 23 23  0  0  0  0  0  0  0  0999 V2000
    7.2297   -2.3613   20.1233 H   0  0  0  0  0  0  0  0  0  0  0  0
    7.5184   -1.7796   20.9858 C   0  0  0  0  0  0  0  0  0  0  0  0
    7.2360   -0.4956   21.1868 C   0  0  0  0  0  0  0  0  0  0  0  0
    6.5760    0.1820   20.0390 C   0  0  0  0  0  0  0  0  0  0  0  0
    7.1480    0.0984   18.7561 C   0  0  0  0  0  0  0  0  0  0  0  0
    8.0904   -0.4326   18.6109 H   0  0  0  0  0  0  0  0  0  0  0  0
    6.6122    0.6483   17.6615 N   0  0  0  0  0  0  0  0  0  0  0  0
    5.4353    1.2754   17.8024 C   0  0  0  0  0  0  0  0  0  0  0  0
    5.0113    1.6973   16.8926 H   0  0  0  0  0  0  0  0  0  0  0  0
    4.7813    1.4214   19.0301 C   0  0  0  0  0  0  0  0  0  0  0  0
    3.8343    1.9443   19.0753 H   0  0  0  0  0  0  0  0  0  0  0  0
    5.3752    0.8900   20.1749 C   0  0  0  0  0  0  0  0  0  0  0  0
    4.9082    0.9944   21.1561 H   0  0  0  0  0  0  0  0  0  0  0  0
    7.4914    0.2479   22.4724 C   0  0  0  0  0  0  0  0  0  0  0  0
    8.5331    0.1281   22.7911 H   0  0  0  0  0  0  0  0  0  0  0  0
    6.8688   -0.1170   23.2985 H   0  0  0  0  0  0  0  0  0  0  0  0
    7.2942    1.3097   22.3143 H   0  0  0  0  0  0  0  0  0  0  0  0
    8.3042   -2.7998   22.1218 S   0  0  0  0  0  0  0  0  0  0  0  0
    8.3548   -4.1201   21.5183 O   0  0  0  0  0  0  0  0  0  0  0  0
    7.9263   -2.5803   23.5035 O   0  0  0  0  0  0  0  0  0  0  0  0
    9.8840   -2.3271   22.0370 N   0  0  0  0  0  0  0  0  0  0  0  0
   10.1466   -2.6484   22.9611 H   0  0  0  0  0  0  0  0  0  0  0  0
   10.1514   -3.0660   21.3932 H   0  0  0  0  0  0  0  0  0  0  0  0
  1  2  1  0
  2  3  2  3
  3  4  1  0
  4  5  2  0
  5  6  1  0
  5  7  1  0
  7  8  2  0
  8  9  1  0
  8 10  1  0
 10 11  1  0
 10 12  2  0
 12 13  1  0
  3 14  1  0
 14 15  1  0
 14 16  1  0
 14 17  1  0
  2 18  1  0
 18 19  2  0
 18 20  2  0
 18 21  1  0
 21 22  1  0
 21 23  1  0
 12  4  1  0
M  END
>  <cnnaffinity>  (1) 
-4.5011

>  <filename>  (1) 
CC(=CS(N)(=O)=O)c1cccnc1

$$$$
