
     RDKit          3D

 35 38  0  0  0  0  0  0  0  0999 V2000
    4.9215    1.7720   17.0039 H   0  0  0  0  0  0  0  0  0  0  0  0
    5.4103    1.2859   17.8470 C   0  0  0  0  0  0  0  0  0  0  0  0
    6.5759    0.6681   17.5936 N   0  0  0  0  0  0  0  0  0  0  0  0
    7.1817    0.0542   18.6149 C   0  0  0  0  0  0  0  0  0  0  0  0
    8.1263   -0.4327   18.3836 H   0  0  0  0  0  0  0  0  0  0  0  0
    6.6479    0.0148   19.9111 C   0  0  0  0  0  0  0  0  0  0  0  0
    7.3614   -0.6891   20.9678 C   0  0  0  0  0  0  0  0  0  0  0  0
    8.5467   -1.3255   20.7555 N   0  0  0  0  0  0  0  0  0  0  0  0
    8.8003   -1.8160   21.9516 C   0  0  0  0  0  0  0  0  0  0  0  0
    9.9966   -2.8217   22.7264 S   0  0  0  0  0  0  0  0  0  0  0  0
    9.0777   -2.7648   24.2014 C   0  0  0  0  0  0  0  0  0  0  0  0
    9.4589   -3.2870   25.0702 H   0  0  0  0  0  0  0  0  0  0  0  0
    7.9573   -2.0178   24.1198 C   0  0  0  0  0  0  0  0  0  0  0  0
    6.9715   -1.7662   25.1938 C   0  0  0  0  0  0  0  0  0  0  0  0
    6.7617   -2.7520   26.1785 C   0  0  0  0  0  0  0  0  0  0  0  0
    7.3055   -3.6925   26.1314 H   0  0  0  0  0  0  0  0  0  0  0  0
    5.8492   -2.5505   27.2109 C   0  0  0  0  0  0  0  0  0  0  0  0
    5.7207   -3.3407   27.9471 H   0  0  0  0  0  0  0  0  0  0  0  0
    5.1178   -1.3505   27.2962 C   0  0  0  0  0  0  0  0  0  0  0  0
    4.1172   -1.0823   28.3940 C   0  0  0  0  0  0  0  0  0  0  0  0
    3.4961   -0.0358   28.4326 O   0  0  0  0  0  0  0  0  0  0  0  0
    3.8859   -2.1369   29.4559 C   0  0  0  0  0  0  0  0  0  0  0  0
    3.1382   -1.7654   30.1556 H   0  0  0  0  0  0  0  0  0  0  0  0
    4.8107   -2.3553   29.9984 H   0  0  0  0  0  0  0  0  0  0  0  0
    3.5298   -3.0699   29.0094 H   0  0  0  0  0  0  0  0  0  0  0  0
    5.3381   -0.3629   26.3119 C   0  0  0  0  0  0  0  0  0  0  0  0
    4.7831    0.5706   26.3570 H   0  0  0  0  0  0  0  0  0  0  0  0
    6.2474   -0.5593   25.2820 C   0  0  0  0  0  0  0  0  0  0  0  0
    6.3995    0.2126   24.5316 H   0  0  0  0  0  0  0  0  0  0  0  0
    7.8341   -1.4800   22.8319 N   0  0  0  0  0  0  0  0  0  0  0  0
    6.8797   -0.7499   22.2047 N   0  0  0  0  0  0  0  0  0  0  0  0
    5.4285    0.6575   20.1682 C   0  0  0  0  0  0  0  0  0  0  0  0
    5.0008    0.6327   21.1743 H   0  0  0  0  0  0  0  0  0  0  0  0
    4.8047    1.3095   19.1107 C   0  0  0  0  0  0  0  0  0  0  0  0
    3.8729    1.8440   19.2616 H   0  0  0  0  0  0  0  0  0  0  0  0
  1  2  1  0
  2  3  2  0
  3  4  1  0
  4  5  1  0
  4  6  2  0
  6  7  1  0
  7  8  1  0
  8  9  2  0
  9 10  1  0
 10 11  1  0
 11 12  1  0
 11 13  2  0
 13 14  1  0
 14 15  2  0
 15 16  1  0
 15 17  1  0
 17 18  1  0
 17 19  2  0
 19 20  1  0
 20 21  2  0
 20 22  1  0
 22 23  1  0
 22 24  1  0
 22 25  1  0
 19 26  1  0
 26 27  1  0
 26 28  2  0
 28 29  1  0
 13 30  1  0
 30 31  1  0
  6 32  1  0
 32 33  1  0
 32 34  2  0
 34 35  1  0
 34  2  1  0
 31  7  2  0
 30  9  1  0
 28 14  1  0
M  END
>  <cnnaffinity>  (1) 
-5.54077

>  <filename>  (1) 
CC(=O)c1ccc(-c2csc3nc(-c4cccnc4)nn23)cc1

$$$$
