
     RDKit          3D

 35 37  0  0  0  0  0  0  0  0999 V2000
    5.2317    1.7573   17.1243 H   0  0  0  0  0  0  0  0  0  0  0  0
    5.6967    1.1783   17.9182 C   0  0  0  0  0  0  0  0  0  0  0  0
    6.8368    0.5498   17.5912 N   0  0  0  0  0  0  0  0  0  0  0  0
    7.4377   -0.1622   18.5460 C   0  0  0  0  0  0  0  0  0  0  0  0
    8.3725   -0.6569   18.2846 H   0  0  0  0  0  0  0  0  0  0  0  0
    6.9319   -0.3166   19.8448 C   0  0  0  0  0  0  0  0  0  0  0  0
    7.7199   -1.1422   20.7669 C   0  0  0  0  0  0  0  0  0  0  0  0
    9.0467   -1.0274   20.7884 N   0  0  0  0  0  0  0  0  0  0  0  0
    9.4193   -1.8528   21.7674 N   0  0  0  0  0  0  0  0  0  0  0  0
    8.4067   -2.4915   22.3732 C   0  0  0  0  0  0  0  0  0  0  0  0
    7.2555   -2.1067   21.7065 C   0  0  0  0  0  0  0  0  0  0  0  0
    5.8649   -2.6608   21.8500 C   0  0  0  0  0  0  0  0  0  0  0  0
    5.1974   -2.0808   21.2161 H   0  0  0  0  0  0  0  0  0  0  0  0
    5.5199   -2.5522   22.8847 H   0  0  0  0  0  0  0  0  0  0  0  0
    5.7350   -4.0586   21.4748 N   0  0  0  0  0  0  0  0  0  0  0  0
    6.0448   -4.7319   22.1498 H   0  0  0  0  0  0  0  0  0  0  0  0
    5.7197   -4.4447   20.1634 C   0  0  0  0  0  0  0  0  0  0  0  0
    5.4625   -3.6633   19.2711 O   0  0  0  0  0  0  0  0  0  0  0  0
    5.9355   -5.9178   19.9358 C   0  0  0  0  0  0  0  0  0  0  0  0
    5.9329   -6.0954   18.8615 H   0  0  0  0  0  0  0  0  0  0  0  0
    6.8910   -6.2406   20.3538 H   0  0  0  0  0  0  0  0  0  0  0  0
    5.1350   -6.4937   20.4097 H   0  0  0  0  0  0  0  0  0  0  0  0
    8.9095   -3.1818   23.6065 C   0  0  0  0  0  0  0  0  0  0  0  0
    8.8598   -4.2672   23.4962 H   0  0  0  0  0  0  0  0  0  0  0  0
    8.2997   -2.9208   24.4750 H   0  0  0  0  0  0  0  0  0  0  0  0
   10.3836   -2.6901   23.7296 C   0  0  0  0  0  0  0  0  0  0  0  0
   11.0655   -3.5373   23.8153 H   0  0  0  0  0  0  0  0  0  0  0  0
   10.5132   -2.0551   24.6074 H   0  0  0  0  0  0  0  0  0  0  0  0
   10.6928   -1.8629   22.4498 C   0  0  0  0  0  0  0  0  0  0  0  0
   11.4619   -2.3055   21.8155 H   0  0  0  0  0  0  0  0  0  0  0  0
   10.9718   -0.8271   22.6641 H   0  0  0  0  0  0  0  0  0  0  0  0
    5.7354    0.3444   20.1726 C   0  0  0  0  0  0  0  0  0  0  0  0
    5.3043    0.2692   21.1743 H   0  0  0  0  0  0  0  0  0  0  0  0
    5.1160    1.1188   19.1917 C   0  0  0  0  0  0  0  0  0  0  0  0
    4.2085    1.6805   19.3928 H   0  0  0  0  0  0  0  0  0  0  0  0
  1  2  1  0
  2  3  2  0
  3  4  1  0
  4  5  1  0
  4  6  2  0
  6  7  1  0
  7  8  2  0
  8  9  1  0
  9 10  1  0
 10 11  2  0
 11 12  1  0
 12 13  1  0
 12 14  1  0
 12 15  1  0
 15 16  1  0
 15 17  1  0
 17 18  2  0
 17 19  1  0
 19 20  1  0
 19 21  1  0
 19 22  1  0
 10 23  1  0
 23 24  1  0
 23 25  1  0
 23 26  1  0
 26 27  1  0
 26 28  1  0
 26 29  1  0
 29 30  1  0
 29 31  1  0
  6 32  1  0
 32 33  1  0
 32 34  2  0
 34 35  1  0
 34  2  1  0
 11  7  1  0
 29  9  1  0
M  END
>  <cnnaffinity>  (1) 
-5.33947

>  <filename>  (1) 
CC(=O)NCc1c(-c2cccnc2)nn2c1CCC2

$$$$
