
     RDKit          3D

 34 36  0  0  0  0  0  0  0  0999 V2000
    4.9241    1.7998   17.0068 H   0  0  0  0  0  0  0  0  0  0  0  0
    5.4166    1.2910   17.8306 C   0  0  0  0  0  0  0  0  0  0  0  0
    6.5765    0.6807   17.5420 N   0  0  0  0  0  0  0  0  0  0  0  0
    7.2196    0.0566   18.5362 C   0  0  0  0  0  0  0  0  0  0  0  0
    8.1713   -0.4150   18.3017 H   0  0  0  0  0  0  0  0  0  0  0  0
    6.7212    0.0062   19.8493 C   0  0  0  0  0  0  0  0  0  0  0  0
    7.3185   -0.6973   20.8940 O   0  0  0  0  0  0  0  0  0  0  0  0
    8.6475   -0.7567   21.0415 C   0  0  0  0  0  0  0  0  0  0  0  0
    9.5774   -0.0399   20.4647 N   0  0  0  0  0  0  0  0  0  0  0  0
   10.7400   -0.4853   21.0048 N   0  0  0  0  0  0  0  0  0  0  0  0
   10.5430   -1.4214   21.8508 N   0  0  0  0  0  0  0  0  0  0  0  0
    9.1951   -1.6328   21.8958 N   0  0  0  0  0  0  0  0  0  0  0  0
    8.5968   -2.6161   22.7438 C   0  0  0  0  0  0  0  0  0  0  0  0
    7.3654   -3.2170   22.4214 C   0  0  0  0  0  0  0  0  0  0  0  0
    6.8336   -2.9429   21.5231 H   0  0  0  0  0  0  0  0  0  0  0  0
    6.8226   -4.1649   23.2943 C   0  0  0  0  0  0  0  0  0  0  0  0
    5.8783   -4.6450   23.0528 H   0  0  0  0  0  0  0  0  0  0  0  0
    7.4650   -4.4862   24.4886 C   0  0  0  0  0  0  0  0  0  0  0  0
    7.0502   -5.1939   25.1952 H   0  0  0  0  0  0  0  0  0  0  0  0
    8.6831   -3.8706   24.7900 C   0  0  0  0  0  0  0  0  0  0  0  0
    9.3873   -4.1699   25.9603 N   0  0  0  0  0  0  0  0  0  0  0  0
   10.3855   -4.1904   25.8863 H   0  0  0  0  0  0  0  0  0  0  0  0
    8.8647   -4.6157   27.1426 C   0  0  0  0  0  0  0  0  0  0  0  0
    7.6853   -4.5399   27.4258 O   0  0  0  0  0  0  0  0  0  0  0  0
    9.9282   -5.1942   28.0345 C   0  0  0  0  0  0  0  0  0  0  0  0
   10.4282   -4.3968   28.5870 H   0  0  0  0  0  0  0  0  0  0  0  0
    9.4591   -5.8856   28.7330 H   0  0  0  0  0  0  0  0  0  0  0  0
   10.6791   -5.7209   27.4404 H   0  0  0  0  0  0  0  0  0  0  0  0
    9.2672   -2.9634   23.9121 C   0  0  0  0  0  0  0  0  0  0  0  0
   10.2282   -2.5128   24.1355 H   0  0  0  0  0  0  0  0  0  0  0  0
    5.5098    0.6303   20.1456 C   0  0  0  0  0  0  0  0  0  0  0  0
    5.1249    0.5929   21.1630 H   0  0  0  0  0  0  0  0  0  0  0  0
    4.8478    1.2943   19.1092 C   0  0  0  0  0  0  0  0  0  0  0  0
    3.9140    1.8185   19.2887 H   0  0  0  0  0  0  0  0  0  0  0  0
  1  2  1  0
  2  3  2  0
  3  4  1  0
  4  5  1  0
  4  6  2  0
  6  7  1  0
  7  8  1  0
  8  9  2  0
  9 10  1  0
 10 11  2  0
 11 12  1  0
 12 13  1  0
 13 14  2  0
 14 15  1  0
 14 16  1  0
 16 17  1  0
 16 18  2  0
 18 19  1  0
 18 20  1  0
 20 21  1  0
 21 22  1  0
 21 23  1  0
 23 24  2  0
 23 25  1  0
 25 26  1  0
 25 27  1  0
 25 28  1  0
 20 29  2  0
 29 30  1  0
  6 31  1  0
 31 32  1  0
 31 33  2  0
 33 34  1  0
 33  2  1  0
 12  8  1  0
 29 13  1  0
M  END
>  <cnnaffinity>  (1) 
-5.47192

>  <filename>  (1) 
CC(=O)Nc1cccc(-n2nnnc2Oc2cccnc2)c1

$$$$
