
     RDKit          3D

 35 37  0  0  0  0  0  0  0  0999 V2000
    4.9116    1.8047   16.9753 H   0  0  0  0  0  0  0  0  0  0  0  0
    5.3855    1.3066   17.8184 C   0  0  0  0  0  0  0  0  0  0  0  0
    6.5493    0.6896   17.5528 N   0  0  0  0  0  0  0  0  0  0  0  0
    7.1568    0.0660   18.5673 C   0  0  0  0  0  0  0  0  0  0  0  0
    8.1146   -0.3974   18.3285 H   0  0  0  0  0  0  0  0  0  0  0  0
    6.6527    0.0159   19.8832 C   0  0  0  0  0  0  0  0  0  0  0  0
    7.3752   -0.6540   20.9776 C   0  0  0  0  0  0  0  0  0  0  0  0
    7.5160   -0.3228   22.3204 C   0  0  0  0  0  0  0  0  0  0  0  0
    7.0254    0.8316   22.9388 N   0  0  0  0  0  0  0  0  0  0  0  0
    6.9839    1.6525   22.3553 H   0  0  0  0  0  0  0  0  0  0  0  0
    6.8180    1.0287   24.3009 C   0  0  0  0  0  0  0  0  0  0  0  0
    6.3519   -0.0201   25.1026 C   0  0  0  0  0  0  0  0  0  0  0  0
    6.1752   -0.9742   24.6176 H   0  0  0  0  0  0  0  0  0  0  0  0
    6.1425    0.1742   26.4633 C   0  0  0  0  0  0  0  0  0  0  0  0
    5.7927   -0.6735   27.0471 H   0  0  0  0  0  0  0  0  0  0  0  0
    6.3816    1.4268   27.0582 C   0  0  0  0  0  0  0  0  0  0  0  0
    6.1617    1.6802   28.5276 C   0  0  0  0  0  0  0  0  0  0  0  0
    6.3620    2.7779   29.0135 O   0  0  0  0  0  0  0  0  0  0  0  0
    5.6751    0.5436   29.4100 C   0  0  0  0  0  0  0  0  0  0  0  0
    6.3718   -0.2995   29.3891 H   0  0  0  0  0  0  0  0  0  0  0  0
    4.7058    0.1638   29.0702 H   0  0  0  0  0  0  0  0  0  0  0  0
    5.5836    0.9125   30.4334 H   0  0  0  0  0  0  0  0  0  0  0  0
    6.8336    2.4812   26.2335 C   0  0  0  0  0  0  0  0  0  0  0  0
    7.0113    3.4539   26.6860 H   0  0  0  0  0  0  0  0  0  0  0  0
    7.0401    2.2895   24.8716 C   0  0  0  0  0  0  0  0  0  0  0  0
    7.3977    3.1046   24.2460 H   0  0  0  0  0  0  0  0  0  0  0  0
    8.2920   -1.3770   22.8700 C   0  0  0  0  0  0  0  0  0  0  0  0
    8.6283   -1.4748   23.8942 H   0  0  0  0  0  0  0  0  0  0  0  0
    8.6053   -2.2888   21.9542 N   0  0  0  0  0  0  0  0  0  0  0  0
    8.0502   -1.8242   20.8247 N   0  0  0  0  0  0  0  0  0  0  0  0
    8.1285   -2.3662   19.9767 H   0  0  0  0  0  0  0  0  0  0  0  0
    5.4329    0.6620   20.1369 C   0  0  0  0  0  0  0  0  0  0  0  0
    5.0161    0.6283   21.1462 H   0  0  0  0  0  0  0  0  0  0  0  0
    4.7936    1.3188   19.0863 C   0  0  0  0  0  0  0  0  0  0  0  0
    3.8628    1.8496   19.2400 H   0  0  0  0  0  0  0  0  0  0  0  0
  1  2  1  0
  2  3  2  0
  3  4  1  0
  4  5  1  0
  4  6  2  0
  6  7  1  0
  7  8  2  0
  8  9  1  0
  9 10  1  0
  9 11  1  0
 11 12  2  0
 12 13  1  0
 12 14  1  0
 14 15  1  0
 14 16  2  0
 16 17  1  0
 17 18  2  0
 17 19  1  0
 19 20  1  0
 19 21  1  0
 19 22  1  0
 16 23  1  0
 23 24  1  0
 23 25  2  0
 25 26  1  0
  8 27  1  0
 27 28  1  0
 27 29  2  0
 29 30  1  0
 30 31  1  0
  6 32  1  0
 32 33  1  0
 32 34  2  0
 34 35  1  0
 34  2  1  0
 30  7  1  0
 25 11  1  0
M  END
>  <cnnaffinity>  (1) 
-5.37424

>  <filename>  (1) 
CC(=O)c1ccc(Nc2cn[nH]c2-c2cccnc2)cc1

$$$$
