
     RDKit          3D

 40 43  0  0  0  0  0  0  0  0999 V2000
    4.9460    1.8139   16.9780 H   0  0  0  0  0  0  0  0  0  0  0  0
    5.4026    1.2997   17.8231 C   0  0  0  0  0  0  0  0  0  0  0  0
    6.5580    0.6654   17.5694 N   0  0  0  0  0  0  0  0  0  0  0  0
    7.1579    0.0311   18.5805 C   0  0  0  0  0  0  0  0  0  0  0  0
    8.1022   -0.4545   18.3475 H   0  0  0  0  0  0  0  0  0  0  0  0
    6.6500    0.0002   19.8887 C   0  0  0  0  0  0  0  0  0  0  0  0
    7.3892   -0.6733   20.9520 C   0  0  0  0  0  0  0  0  0  0  0  0
    8.0779   -1.8465   20.7461 N   0  0  0  0  0  0  0  0  0  0  0  0
    8.4777   -2.1769   21.9426 C   0  0  0  0  0  0  0  0  0  0  0  0
    9.4197   -3.4674   22.6243 S   0  0  0  0  0  0  0  0  0  0  0  0
    9.4474   -2.6738   24.1796 C   0  0  0  0  0  0  0  0  0  0  0  0
   10.0313   -3.1289   24.9679 H   0  0  0  0  0  0  0  0  0  0  0  0
    8.7183   -1.5443   24.1840 C   0  0  0  0  0  0  0  0  0  0  0  0
    8.5364   -0.8495   24.9957 H   0  0  0  0  0  0  0  0  0  0  0  0
    8.1419   -1.2949   22.9332 N   0  0  0  0  0  0  0  0  0  0  0  0
    7.4516   -0.2783   22.2991 C   0  0  0  0  0  0  0  0  0  0  0  0
    7.1316    0.8746   22.9502 N   0  0  0  0  0  0  0  0  0  0  0  0
    6.2762    0.9037   24.1340 C   0  0  0  0  0  0  0  0  0  0  0  0
    5.2721    1.2766   23.8625 H   0  0  0  0  0  0  0  0  0  0  0  0
    6.1588   -0.1102   24.5329 H   0  0  0  0  0  0  0  0  0  0  0  0
    6.8881    1.8393   25.1834 C   0  0  0  0  0  0  0  0  0  0  0  0
    6.2024    1.9857   26.0232 H   0  0  0  0  0  0  0  0  0  0  0  0
    7.8226    1.4074   25.5762 H   0  0  0  0  0  0  0  0  0  0  0  0
    7.1701    3.1616   24.5964 N   0  0  0  0  0  0  0  0  0  0  0  0
    7.0502    4.2739   25.3979 C   0  0  0  0  0  0  0  0  0  0  0  0
    6.7907    4.1926   26.5881 O   0  0  0  0  0  0  0  0  0  0  0  0
    7.2093    5.6151   24.7234 C   0  0  0  0  0  0  0  0  0  0  0  0
    6.6518    5.6558   23.7841 H   0  0  0  0  0  0  0  0  0  0  0  0
    6.8287    6.3589   25.4210 H   0  0  0  0  0  0  0  0  0  0  0  0
    8.2600    5.8213   24.5007 H   0  0  0  0  0  0  0  0  0  0  0  0
    8.0007    3.1087   23.3818 C   0  0  0  0  0  0  0  0  0  0  0  0
    8.1312    4.1125   22.9671 H   0  0  0  0  0  0  0  0  0  0  0  0
    8.9956    2.7100   23.6340 H   0  0  0  0  0  0  0  0  0  0  0  0
    7.3695    2.1804   22.3339 C   0  0  0  0  0  0  0  0  0  0  0  0
    6.4310    2.6169   21.9551 H   0  0  0  0  0  0  0  0  0  0  0  0
    8.0496    2.0294   21.4888 H   0  0  0  0  0  0  0  0  0  0  0  0
    5.4304    0.6550   20.1349 C   0  0  0  0  0  0  0  0  0  0  0  0
    4.9963    0.6500   21.1362 H   0  0  0  0  0  0  0  0  0  0  0  0
    4.7961    1.3147   19.0843 C   0  0  0  0  0  0  0  0  0  0  0  0
    3.8633    1.8495   19.2282 H   0  0  0  0  0  0  0  0  0  0  0  0
  1  2  1  0
  2  3  2  0
  3  4  1  0
  4  5  1  0
  4  6  2  0
  6  7  1  0
  7  8  1  0
  8  9  2  0
  9 10  1  0
 10 11  1  0
 11 12  1  0
 11 13  2  0
 13 14  1  0
 13 15  1  0
 15 16  1  0
 16 17  1  0
 17 18  1  0
 18 19  1  0
 18 20  1  0
 18 21  1  0
 21 22  1  0
 21 23  1  0
 21 24  1  0
 24 25  1  0
 25 26  2  0
 25 27  1  0
 27 28  1  0
 27 29  1  0
 27 30  1  0
 24 31  1  0
 31 32  1  0
 31 33  1  0
 31 34  1  0
 34 35  1  0
 34 36  1  0
  6 37  1  0
 37 38  1  0
 37 39  2  0
 39 40  1  0
 39  2  1  0
 16  7  2  0
 34 17  1  0
 15  9  1  0
M  END
>  <cnnaffinity>  (1) 
-5.57318

>  <filename>  (1) 
CC(=O)N1CCN(c2c(-c3cccnc3)nc3sccn23)CC1

$$$$
