
     RDKit          3D

 42 45  0  0  0  0  0  0  0  0999 V2000
    5.0097    1.8289   16.9142 H   0  0  0  0  0  0  0  0  0  0  0  0
    5.3982    1.3025   17.7864 C   0  0  0  0  0  0  0  0  0  0  0  0
    6.5474    0.6333   17.6160 N   0  0  0  0  0  0  0  0  0  0  0  0
    7.0636    0.0192   18.6899 C   0  0  0  0  0  0  0  0  0  0  0  0
    7.9933   -0.5196   18.5168 H   0  0  0  0  0  0  0  0  0  0  0  0
    6.4745    0.0086   19.9696 C   0  0  0  0  0  0  0  0  0  0  0  0
    7.2414   -0.5784   21.0870 C   0  0  0  0  0  0  0  0  0  0  0  0
    8.6008   -0.5204   21.3155 C   0  0  0  0  0  0  0  0  0  0  0  0
    8.8148   -1.1202   22.5469 C   0  0  0  0  0  0  0  0  0  0  0  0
    7.7024   -1.5903   23.0843 N   0  0  0  0  0  0  0  0  0  0  0  0
    6.7507   -1.2389   22.1796 N   0  0  0  0  0  0  0  0  0  0  0  0
    5.8004   -1.5431   22.3462 H   0  0  0  0  0  0  0  0  0  0  0  0
   10.2525   -1.1009   22.9712 C   0  0  0  0  0  0  0  0  0  0  0  0
   10.3729   -0.6475   23.9624 H   0  0  0  0  0  0  0  0  0  0  0  0
   10.6625   -2.1169   23.0174 H   0  0  0  0  0  0  0  0  0  0  0  0
   10.9560   -0.2569   21.8396 C   0  0  2  0  0  0  0  0  0  0  0  0
   11.7735   -0.8582   21.4238 H   0  0  0  0  0  0  0  0  0  0  0  0
   11.5242    1.0558   22.3510 C   0  0  0  0  0  0  0  0  0  0  0  0
   12.8949    1.3697   22.3327 C   0  0  0  0  0  0  0  0  0  0  0  0
   13.6028    0.6287   21.9619 H   0  0  0  0  0  0  0  0  0  0  0  0
   13.3589    2.6150   22.7761 C   0  0  0  0  0  0  0  0  0  0  0  0
   14.4194    2.8437   22.7078 H   0  0  0  0  0  0  0  0  0  0  0  0
   12.4563    3.5557   23.2920 C   0  0  0  0  0  0  0  0  0  0  0  0
   12.9282    4.8034   23.7494 N   0  0  0  0  0  0  0  0  0  0  0  0
   13.7857    5.1388   23.3517 H   0  0  0  0  0  0  0  0  0  0  0  0
   12.3126    5.6215   24.6610 C   0  0  0  0  0  0  0  0  0  0  0  0
   11.2925    5.3318   25.2530 O   0  0  0  0  0  0  0  0  0  0  0  0
   13.0278    6.9147   24.9484 C   0  0  0  0  0  0  0  0  0  0  0  0
   13.5301    7.3267   24.0718 H   0  0  0  0  0  0  0  0  0  0  0  0
   12.2986    7.6327   25.3194 H   0  0  0  0  0  0  0  0  0  0  0  0
   13.7367    6.7497   25.7630 H   0  0  0  0  0  0  0  0  0  0  0  0
   11.0905    3.2440   23.3443 C   0  0  0  0  0  0  0  0  0  0  0  0
   10.3985    3.9539   23.7698 H   0  0  0  0  0  0  0  0  0  0  0  0
   10.6413    2.0191   22.8648 C   0  0  0  0  0  0  0  0  0  0  0  0
    9.5737    1.8070   22.9023 H   0  0  0  0  0  0  0  0  0  0  0  0
    9.8744   -0.0364   20.7122 C   0  0  0  0  0  0  0  0  0  0  0  0
   10.1236   -0.6491   19.8424 H   0  0  0  0  0  0  0  0  0  0  0  0
    9.8093    1.0091   20.3740 H   0  0  0  0  0  0  0  0  0  0  0  0
    5.2456    0.6751   20.1107 C   0  0  0  0  0  0  0  0  0  0  0  0
    4.7299    0.6942   21.0711 H   0  0  0  0  0  0  0  0  0  0  0  0
    4.7099    1.3376   19.0041 C   0  0  0  0  0  0  0  0  0  0  0  0
    3.7905    1.9048   19.0753 H   0  0  0  0  0  0  0  0  0  0  0  0
  1  2  1  0
  2  3  2  0
  3  4  1  0
  4  5  1  0
  4  6  2  0
  6  7  1  0
  7  8  2  0
  8  9  1  0
  9 10  2  0
 10 11  1  0
 11 12  1  0
  9 13  1  0
 13 14  1  0
 13 15  1  0
 13 16  1  0
 16 17  1  6
 16 18  1  0
 18 19  2  0
 19 20  1  0
 19 21  1  0
 21 22  1  0
 21 23  2  0
 23 24  1  0
 24 25  1  0
 24 26  1  0
 26 27  2  0
 26 28  1  0
 28 29  1  0
 28 30  1  0
 28 31  1  0
 23 32  1  0
 32 33  1  0
 32 34  2  0
 34 35  1  0
 16 36  1  0
 36 37  1  0
 36 38  1  0
  6 39  1  0
 39 40  1  0
 39 41  2  0
 41 42  1  0
 41  2  1  0
 11  7  1  0
 34 18  1  0
 36  8  1  0
M  END
>  <cnnaffinity>  (1) 
-6.12808

>  <filename>  (1) 
CC(=O)Nc1ccc([C@H]2Cc3n[nH]c(-c4cccnc4)c3C2)cc1

$$$$
