
     RDKit          3D

 39 42  0  0  0  0  0  0  0  0999 V2000
    4.9955    1.8440   16.8898 H   0  0  0  0  0  0  0  0  0  0  0  0
    5.4210    1.2994   17.7298 C   0  0  0  0  0  0  0  0  0  0  0  0
    6.5651    0.6388   17.4990 N   0  0  0  0  0  0  0  0  0  0  0  0
    7.1319   -0.0041   18.5252 C   0  0  0  0  0  0  0  0  0  0  0  0
    8.0609   -0.5262   18.3069 H   0  0  0  0  0  0  0  0  0  0  0  0
    6.5936   -0.0229   19.8255 C   0  0  0  0  0  0  0  0  0  0  0  0
    7.3403   -0.6375   20.9373 C   0  0  0  0  0  0  0  0  0  0  0  0
    8.4877   -1.2989   20.7120 N   0  0  0  0  0  0  0  0  0  0  0  0
    8.9169   -1.5917   21.9543 N   0  0  0  0  0  0  0  0  0  0  0  0
   10.0316   -2.2250   22.4943 C   0  0  0  0  0  0  0  0  0  0  0  0
   10.7768   -2.6715   21.8609 H   0  0  0  0  0  0  0  0  0  0  0  0
    9.8958   -2.1136   23.8403 C   0  0  0  0  0  0  0  0  0  0  0  0
   10.5138   -2.4940   24.6358 H   0  0  0  0  0  0  0  0  0  0  0  0
    8.7215   -1.4225   24.1407 N   0  0  0  0  0  0  0  0  0  0  0  0
    8.2305   -1.0218   25.4123 C   0  0  0  0  0  0  0  0  0  0  0  0
    9.0939   -0.6383   26.4566 C   0  0  0  0  0  0  0  0  0  0  0  0
   10.1701   -0.6519   26.3223 H   0  0  0  0  0  0  0  0  0  0  0  0
    8.5597   -0.1920   27.6714 C   0  0  0  0  0  0  0  0  0  0  0  0
    9.2162    0.0847   28.4936 H   0  0  0  0  0  0  0  0  0  0  0  0
    7.1778   -0.1115   27.8435 C   0  0  0  0  0  0  0  0  0  0  0  0
    6.7565    0.2701   28.7662 H   0  0  0  0  0  0  0  0  0  0  0  0
    6.3311   -0.4944   26.7998 C   0  0  0  0  0  0  0  0  0  0  0  0
    4.9473   -0.4038   26.9921 N   0  0  0  0  0  0  0  0  0  0  0  0
    4.6044   -0.5270   27.9240 H   0  0  0  0  0  0  0  0  0  0  0  0
    4.0009   -0.1060   26.0537 C   0  0  0  0  0  0  0  0  0  0  0  0
    4.2625    0.3193   24.9457 O   0  0  0  0  0  0  0  0  0  0  0  0
    2.5978   -0.3176   26.5816 C   0  0  0  0  0  0  0  0  0  0  0  0
    2.5577   -1.1609   27.2756 H   0  0  0  0  0  0  0  0  0  0  0  0
    2.2809    0.5795   27.1195 H   0  0  0  0  0  0  0  0  0  0  0  0
    1.9013   -0.4980   25.7649 H   0  0  0  0  0  0  0  0  0  0  0  0
    6.8415   -0.9705   25.5981 C   0  0  0  0  0  0  0  0  0  0  0  0
    6.1620   -1.2647   24.8041 H   0  0  0  0  0  0  0  0  0  0  0  0
    8.1123   -1.1325   22.9298 C   0  0  0  0  0  0  0  0  0  0  0  0
    7.0239   -0.5310   22.3141 C   0  0  0  0  0  0  0  0  0  0  0  0
    6.1406   -0.1187   22.7772 H   0  0  0  0  0  0  0  0  0  0  0  0
    5.3741    0.6392   20.0362 C   0  0  0  0  0  0  0  0  0  0  0  0
    4.9010    0.6289   21.0196 H   0  0  0  0  0  0  0  0  0  0  0  0
    4.7834    1.3153   18.9740 C   0  0  0  0  0  0  0  0  0  0  0  0
    3.8635    1.8696   19.1063 H   0  0  0  0  0  0  0  0  0  0  0  0
  1  2  1  0
  2  3  2  0
  3  4  1  0
  4  5  1  0
  4  6  2  0
  6  7  1  0
  7  8  2  0
  8  9  1  0
  9 10  1  0
 10 11  1  0
 10 12  2  0
 12 13  1  0
 12 14  1  0
 14 15  1  0
 15 16  2  0
 16 17  1  0
 16 18  1  0
 18 19  1  0
 18 20  2  0
 20 21  1  0
 20 22  1  0
 22 23  1  0
 23 24  1  0
 23 25  1  0
 25 26  2  0
 25 27  1  0
 27 28  1  0
 27 29  1  0
 27 30  1  0
 22 31  2  0
 31 32  1  0
 14 33  1  0
 33 34  2  0
 34 35  1  0
  6 36  1  0
 36 37  1  0
 36 38  2  0
 38 39  1  0
 38  2  1  0
 34  7  1  0
 33  9  1  0
 31 15  1  0
M  END
>  <cnnaffinity>  (1) 
-5.63266

>  <filename>  (1) 
CC(=O)Nc1cccc(-n2ccn3nc(-c4cccnc4)cc23)c1

$$$$
