
     RDKit          3D

 34 36  0  0  0  0  0  0  0  0999 V2000
    4.9518    1.7932   16.9880 H   0  0  0  0  0  0  0  0  0  0  0  0
    5.4024    1.2850   17.8366 C   0  0  0  0  0  0  0  0  0  0  0  0
    6.5680    0.6576   17.5997 N   0  0  0  0  0  0  0  0  0  0  0  0
    7.1748    0.0517   18.6224 C   0  0  0  0  0  0  0  0  0  0  0  0
    8.1143   -0.4464   18.3891 H   0  0  0  0  0  0  0  0  0  0  0  0
    6.6510    0.0459   19.9296 C   0  0  0  0  0  0  0  0  0  0  0  0
    7.3448   -0.6067   20.9952 N   0  0  0  0  0  0  0  0  0  0  0  0
    8.0981   -1.7139   20.7564 N   0  0  0  0  0  0  0  0  0  0  0  0
    8.5856   -2.0858   21.8770 N   0  0  0  0  0  0  0  0  0  0  0  0
    8.2015   -1.2681   22.8845 N   0  0  0  0  0  0  0  0  0  0  0  0
    7.4316   -0.3671   22.3287 C   0  0  0  0  0  0  0  0  0  0  0  0
    6.7553    0.6375   22.9023 O   0  0  0  0  0  0  0  0  0  0  0  0
    7.0586    1.0809   24.1972 C   0  0  0  0  0  0  0  0  0  0  0  0
    8.3433    1.0016   24.7420 C   0  0  0  0  0  0  0  0  0  0  0  0
    9.1399    0.5471   24.1688 H   0  0  0  0  0  0  0  0  0  0  0  0
    8.5583    1.4900   26.0337 C   0  0  0  0  0  0  0  0  0  0  0  0
    9.5460    1.4038   26.4865 H   0  0  0  0  0  0  0  0  0  0  0  0
    7.5178    2.0763   26.7511 C   0  0  0  0  0  0  0  0  0  0  0  0
    7.6570    2.4470   27.7543 H   0  0  0  0  0  0  0  0  0  0  0  0
    6.2440    2.1895   26.1746 C   0  0  0  0  0  0  0  0  0  0  0  0
    5.2011    2.8074   26.9017 N   0  0  0  0  0  0  0  0  0  0  0  0
    4.2620    2.4976   26.7302 H   0  0  0  0  0  0  0  0  0  0  0  0
    5.3531    3.8294   27.8070 C   0  0  0  0  0  0  0  0  0  0  0  0
    6.3929    4.4384   27.9620 O   0  0  0  0  0  0  0  0  0  0  0  0
    4.1182    4.1661   28.6134 C   0  0  0  0  0  0  0  0  0  0  0  0
    4.4804    4.7058   29.4877 H   0  0  0  0  0  0  0  0  0  0  0  0
    3.4464    4.8242   28.0541 H   0  0  0  0  0  0  0  0  0  0  0  0
    3.5471    3.2905   28.9383 H   0  0  0  0  0  0  0  0  0  0  0  0
    6.0082    1.6797   24.8925 C   0  0  0  0  0  0  0  0  0  0  0  0
    5.0393    1.7694   24.4187 H   0  0  0  0  0  0  0  0  0  0  0  0
    5.4263    0.6712   20.1686 C   0  0  0  0  0  0  0  0  0  0  0  0
    4.9949    0.6635   21.1660 H   0  0  0  0  0  0  0  0  0  0  0  0
    4.7938    1.3056   19.0943 C   0  0  0  0  0  0  0  0  0  0  0  0
    3.8599    1.8397   19.2299 H   0  0  0  0  0  0  0  0  0  0  0  0
  1  2  1  0
  2  3  2  0
  3  4  1  0
  4  5  1  0
  4  6  2  0
  6  7  1  0
  7  8  1  0
  8  9  2  0
  9 10  1  0
 10 11  2  0
 11 12  1  0
 12 13  1  0
 13 14  2  0
 14 15  1  0
 14 16  1  0
 16 17  1  0
 16 18  2  0
 18 19  1  0
 18 20  1  0
 20 21  1  0
 21 22  1  0
 21 23  1  0
 23 24  2  0
 23 25  1  0
 25 26  1  0
 25 27  1  0
 25 28  1  0
 20 29  2  0
 29 30  1  0
  6 31  1  0
 31 32  1  0
 31 33  2  0
 33 34  1  0
 33  2  1  0
 11  7  1  0
 29 13  1  0
M  END
>  <cnnaffinity>  (1) 
-5.13066

>  <filename>  (1) 
CC(=O)Nc1cccc(Oc2nnnn2-c2cccnc2)c1

$$$$
