
     RDKit          3D

 34 36  0  0  0  0  0  0  0  0999 V2000
    4.9304    1.7950   16.9962 H   0  0  0  0  0  0  0  0  0  0  0  0
    5.3976    1.2904   17.8365 C   0  0  0  0  0  0  0  0  0  0  0  0
    6.5539    0.6618   17.5710 N   0  0  0  0  0  0  0  0  0  0  0  0
    7.1711    0.0445   18.5848 C   0  0  0  0  0  0  0  0  0  0  0  0
    8.1253   -0.4327   18.3657 H   0  0  0  0  0  0  0  0  0  0  0  0
    6.6521   -0.0006   19.8948 C   0  0  0  0  0  0  0  0  0  0  0  0
    7.3335   -0.6849   20.9468 N   0  0  0  0  0  0  0  0  0  0  0  0
    6.7377   -1.6089   21.7938 C   0  0  0  0  0  0  0  0  0  0  0  0
    5.6812   -1.8125   21.7225 H   0  0  0  0  0  0  0  0  0  0  0  0
    7.6762   -2.0619   22.6614 C   0  0  0  0  0  0  0  0  0  0  0  0
    7.5706   -3.0131   23.7744 C   0  0  0  0  0  0  0  0  0  0  0  0
    8.4830   -3.0519   24.8470 C   0  0  0  0  0  0  0  0  0  0  0  0
    9.3165   -2.3554   24.8751 H   0  0  0  0  0  0  0  0  0  0  0  0
    8.3081   -3.9666   25.8876 C   0  0  0  0  0  0  0  0  0  0  0  0
    9.0202   -3.9970   26.7106 H   0  0  0  0  0  0  0  0  0  0  0  0
    7.2212   -4.8513   25.8804 C   0  0  0  0  0  0  0  0  0  0  0  0
    7.1061   -5.5568   26.7036 H   0  0  0  0  0  0  0  0  0  0  0  0
    6.2931   -4.8246   24.8212 C   0  0  0  0  0  0  0  0  0  0  0  0
    5.0903   -5.7433   24.7506 C   0  0  0  0  0  0  0  0  0  0  0  0
    4.3036   -5.6852   23.8242 O   0  0  0  0  0  0  0  0  0  0  0  0
    4.8861   -6.7467   25.8626 C   0  0  0  0  0  0  0  0  0  0  0  0
    4.7798   -6.2347   26.8242 H   0  0  0  0  0  0  0  0  0  0  0  0
    5.7556   -7.4049   25.9466 H   0  0  0  0  0  0  0  0  0  0  0  0
    3.9892   -7.3288   25.6463 H   0  0  0  0  0  0  0  0  0  0  0  0
    6.4868   -3.9018   23.7821 C   0  0  0  0  0  0  0  0  0  0  0  0
    5.7743   -3.8781   22.9620 H   0  0  0  0  0  0  0  0  0  0  0  0
    8.8379   -1.3891   22.3244 N   0  0  0  0  0  0  0  0  0  0  0  0
    9.7632   -1.4574   22.7093 H   0  0  0  0  0  0  0  0  0  0  0  0
    8.6527   -0.5130   21.3105 C   0  0  0  0  0  0  0  0  0  0  0  0
    9.8157    0.5275   20.7598 S   0  0  0  0  0  0  0  0  0  0  0  0
    5.4412    0.6455   20.1580 C   0  0  0  0  0  0  0  0  0  0  0  0
    5.0301    0.6323   21.1687 H   0  0  0  0  0  0  0  0  0  0  0  0
    4.8080    1.3100   19.1050 C   0  0  0  0  0  0  0  0  0  0  0  0
    3.8773    1.8411   19.2614 H   0  0  0  0  0  0  0  0  0  0  0  0
  1  2  1  0
  2  3  2  0
  3  4  1  0
  4  5  1  0
  4  6  2  0
  6  7  1  0
  7  8  1  0
  8  9  1  0
  8 10  2  0
 10 11  1  0
 11 12  2  0
 12 13  1  0
 12 14  1  0
 14 15  1  0
 14 16  2  0
 16 17  1  0
 16 18  1  0
 18 19  1  0
 19 20  2  0
 19 21  1  0
 21 22  1  0
 21 23  1  0
 21 24  1  0
 18 25  2  0
 25 26  1  0
 10 27  1  0
 27 28  1  0
 27 29  1  0
 29 30  2  0
  6 31  1  0
 31 32  1  0
 31 33  2  0
 33 34  1  0
 33  2  1  0
 29  7  1  0
 25 11  1  0
M  END
>  <cnnaffinity>  (1) 
-5.58832

>  <filename>  (1) 
CC(=O)c1cccc(-c2cn(-c3cccnc3)c(=S)[nH]2)c1

$$$$
