
     RDKit          3D

 34 36  0  0  0  0  0  0  0  0999 V2000
    4.9431    1.8082   16.9816 H   0  0  0  0  0  0  0  0  0  0  0  0
    5.4046    1.2940   17.8237 C   0  0  0  0  0  0  0  0  0  0  0  0
    6.5681    0.6744   17.5713 N   0  0  0  0  0  0  0  0  0  0  0  0
    7.1625    0.0339   18.5819 C   0  0  0  0  0  0  0  0  0  0  0  0
    8.1127   -0.4441   18.3470 H   0  0  0  0  0  0  0  0  0  0  0  0
    6.6417   -0.0150   19.8837 C   0  0  0  0  0  0  0  0  0  0  0  0
    7.3856   -0.7099   20.9436 C   0  0  0  0  0  0  0  0  0  0  0  0
    7.9507   -1.8679   20.7109 N   0  0  0  0  0  0  0  0  0  0  0  0
    8.4492   -2.2998   21.9123 O   0  0  0  0  0  0  0  0  0  0  0  0
    8.1912   -1.3920   22.8528 C   0  0  0  0  0  0  0  0  0  0  0  0
    8.5491   -1.6372   23.8449 H   0  0  0  0  0  0  0  0  0  0  0  0
    7.5406   -0.3223   22.3199 C   0  0  0  0  0  0  0  0  0  0  0  0
    7.1402    0.9233   22.9906 C   0  0  0  0  0  0  0  0  0  0  0  0
    6.6404    0.8615   24.2978 C   0  0  0  0  0  0  0  0  0  0  0  0
    6.5523   -0.1121   24.7661 H   0  0  0  0  0  0  0  0  0  0  0  0
    6.2505    2.0225   24.9658 C   0  0  0  0  0  0  0  0  0  0  0  0
    5.8737    1.9679   25.9863 H   0  0  0  0  0  0  0  0  0  0  0  0
    6.3774    3.2639   24.3373 C   0  0  0  0  0  0  0  0  0  0  0  0
    6.0981    4.1897   24.8288 H   0  0  0  0  0  0  0  0  0  0  0  0
    6.8898    3.3352   23.0337 C   0  0  0  0  0  0  0  0  0  0  0  0
    6.9997    4.5854   22.3899 N   0  0  0  0  0  0  0  0  0  0  0  0
    6.8997    4.6084   21.3904 H   0  0  0  0  0  0  0  0  0  0  0  0
    7.3321    5.7675   23.0035 C   0  0  0  0  0  0  0  0  0  0  0  0
    7.7075    5.8338   24.1579 O   0  0  0  0  0  0  0  0  0  0  0  0
    7.2029    7.0058   22.1465 C   0  0  0  0  0  0  0  0  0  0  0  0
    6.3266    6.9997   21.4898 H   0  0  0  0  0  0  0  0  0  0  0  0
    8.0934    7.1547   21.5275 H   0  0  0  0  0  0  0  0  0  0  0  0
    7.1260    7.8382   22.8467 H   0  0  0  0  0  0  0  0  0  0  0  0
    7.2639    2.1713   22.3610 C   0  0  0  0  0  0  0  0  0  0  0  0
    7.6257    2.2259   21.3408 H   0  0  0  0  0  0  0  0  0  0  0  0
    5.4176    0.6262   20.1300 C   0  0  0  0  0  0  0  0  0  0  0  0
    4.9901    0.6360   21.1332 H   0  0  0  0  0  0  0  0  0  0  0  0
    4.7944    1.2974   19.0820 C   0  0  0  0  0  0  0  0  0  0  0  0
    3.8676    1.8406   19.2313 H   0  0  0  0  0  0  0  0  0  0  0  0
  1  2  1  0
  2  3  2  0
  3  4  1  0
  4  5  1  0
  4  6  2  0
  6  7  1  0
  7  8  2  0
  8  9  1  0
  9 10  1  0
 10 11  1  0
 10 12  2  0
 12 13  1  0
 13 14  2  0
 14 15  1  0
 14 16  1  0
 16 17  1  0
 16 18  2  0
 18 19  1  0
 18 20  1  0
 20 21  1  0
 21 22  1  0
 21 23  1  0
 23 24  2  0
 23 25  1  0
 25 26  1  0
 25 27  1  0
 25 28  1  0
 20 29  2  0
 29 30  1  0
  6 31  1  0
 31 32  1  0
 31 33  2  0
 33 34  1  0
 33  2  1  0
 12  7  1  0
 29 13  1  0
M  END
>  <cnnaffinity>  (1) 
-5.18592

>  <filename>  (1) 
CC(=O)Nc1cccc(-c2conc2-c2cccnc2)c1

$$$$
