
     RDKit          3D

 27 28  0  0  0  0  0  0  0  0999 V2000
    4.9186    1.7777   17.0011 H   0  0  0  0  0  0  0  0  0  0  0  0
    5.4047    1.2919   17.8436 C   0  0  0  0  0  0  0  0  0  0  0  0
    6.5707    0.6812   17.5835 N   0  0  0  0  0  0  0  0  0  0  0  0
    7.1740    0.0541   18.5968 C   0  0  0  0  0  0  0  0  0  0  0  0
    8.1201   -0.4324   18.3719 H   0  0  0  0  0  0  0  0  0  0  0  0
    6.6573    0.0004   19.8968 C   0  0  0  0  0  0  0  0  0  0  0  0
    7.3937   -0.7277   20.9347 C   0  0  0  0  0  0  0  0  0  0  0  0
    7.9894   -1.8732   20.7011 N   0  0  0  0  0  0  0  0  0  0  0  0
    8.5265   -2.2785   21.9013 O   0  0  0  0  0  0  0  0  0  0  0  0
    8.2624   -1.3490   22.8225 C   0  0  0  0  0  0  0  0  0  0  0  0
    8.6302   -1.5360   23.8202 H   0  0  0  0  0  0  0  0  0  0  0  0
    7.5611   -0.3267   22.2917 C   0  0  0  0  0  0  0  0  0  0  0  0
    7.0866    0.9037   22.9973 C   0  0  0  0  0  0  0  0  0  0  0  0
    6.0908    0.7355   23.4220 H   0  0  0  0  0  0  0  0  0  0  0  0
    6.9940    1.7267   22.2828 H   0  0  0  0  0  0  0  0  0  0  0  0
    7.9806    1.2948   24.0700 N   0  0  0  0  0  0  0  0  0  0  0  0
    8.8232    1.7677   23.8104 H   0  0  0  0  0  0  0  0  0  0  0  0
    7.8356    0.8509   25.3512 C   0  0  0  0  0  0  0  0  0  0  0  0
    6.8878    0.1547   25.6655 O   0  0  0  0  0  0  0  0  0  0  0  0
    8.9032    1.2646   26.3446 C   0  0  0  0  0  0  0  0  0  0  0  0
    9.8122    0.6711   26.2136 H   0  0  0  0  0  0  0  0  0  0  0  0
    8.5242    1.0559   27.3456 H   0  0  0  0  0  0  0  0  0  0  0  0
    9.1640    2.3233   26.2819 H   0  0  0  0  0  0  0  0  0  0  0  0
    5.4410    0.6501   20.1570 C   0  0  0  0  0  0  0  0  0  0  0  0
    4.9935    0.6303   21.1545 H   0  0  0  0  0  0  0  0  0  0  0  0
    4.8054    1.3084   19.1082 C   0  0  0  0  0  0  0  0  0  0  0  0
    3.8741    1.8415   19.2630 H   0  0  0  0  0  0  0  0  0  0  0  0
  1  2  1  0
  2  3  2  0
  3  4  1  0
  4  5  1  0
  4  6  2  0
  6  7  1  0
  7  8  2  0
  8  9  1  0
  9 10  1  0
 10 11  1  0
 10 12  2  0
 12 13  1  0
 13 14  1  0
 13 15  1  0
 13 16  1  0
 16 17  1  0
 16 18  1  0
 18 19  2  0
 18 20  1  0
 20 21  1  0
 20 22  1  0
 20 23  1  0
  6 24  1  0
 24 25  1  0
 24 26  2  0
 26 27  1  0
 26  2  1  0
 12  7  1  0
M  END
>  <cnnaffinity>  (1) 
-4.49985

>  <filename>  (1) 
CC(=O)NCc1conc1-c1cccnc1

$$$$
