
     RDKit          3D

 36 39  0  0  0  0  0  0  0  0999 V2000
    4.9198    1.7781   16.9997 H   0  0  0  0  0  0  0  0  0  0  0  0
    5.4036    1.2905   17.8408 C   0  0  0  0  0  0  0  0  0  0  0  0
    6.5685    0.6769   17.5757 N   0  0  0  0  0  0  0  0  0  0  0  0
    7.1726    0.0553   18.5890 C   0  0  0  0  0  0  0  0  0  0  0  0
    8.1217   -0.4333   18.3716 H   0  0  0  0  0  0  0  0  0  0  0  0
    6.6477    0.0110   19.8928 C   0  0  0  0  0  0  0  0  0  0  0  0
    7.4044   -0.6979   20.9188 C   0  0  0  0  0  0  0  0  0  0  0  0
    8.3288   -1.6005   20.7015 N   0  0  0  0  0  0  0  0  0  0  0  0
    8.8311   -2.0370   21.9060 N   0  0  0  0  0  0  0  0  0  0  0  0
    8.2033   -1.3560   22.8230 C   0  0  0  0  0  0  0  0  0  0  0  0
    8.2609   -1.0971   24.5412 S   0  0  0  0  0  0  0  0  0  0  0  0
    7.0344    0.1711   24.3325 C   0  0  0  0  0  0  0  0  0  0  0  0
    6.5390    0.9636   25.4900 C   0  0  0  0  0  0  0  0  0  0  0  0
    5.5730    1.9641   25.2587 C   0  0  0  0  0  0  0  0  0  0  0  0
    5.2046    2.1376   24.2485 H   0  0  0  0  0  0  0  0  0  0  0  0
    5.1083    2.7293   26.3253 C   0  0  0  0  0  0  0  0  0  0  0  0
    4.3685    3.5007   26.1416 H   0  0  0  0  0  0  0  0  0  0  0  0
    5.5726    2.5145   27.6237 C   0  0  0  0  0  0  0  0  0  0  0  0
    5.2123    3.1151   28.4463 H   0  0  0  0  0  0  0  0  0  0  0  0
    6.5181    1.5088   27.8756 C   0  0  0  0  0  0  0  0  0  0  0  0
    6.9955    1.2898   29.1948 N   0  0  0  0  0  0  0  0  0  0  0  0
    7.9280    0.9271   29.2835 H   0  0  0  0  0  0  0  0  0  0  0  0
    6.2435    1.4019   30.3421 C   0  0  0  0  0  0  0  0  0  0  0  0
    5.0384    1.5557   30.3065 O   0  0  0  0  0  0  0  0  0  0  0  0
    6.9825    1.3384   31.6691 C   0  0  0  0  0  0  0  0  0  0  0  0
    7.9487    1.8483   31.6650 H   0  0  0  0  0  0  0  0  0  0  0  0
    6.3438    1.8026   32.4236 H   0  0  0  0  0  0  0  0  0  0  0  0
    7.1271    0.2998   31.9759 H   0  0  0  0  0  0  0  0  0  0  0  0
    7.0147    0.7496   26.8088 C   0  0  0  0  0  0  0  0  0  0  0  0
    7.7640   -0.0167   27.0051 H   0  0  0  0  0  0  0  0  0  0  0  0
    6.6255    0.3495   23.1122 N   0  0  0  0  0  0  0  0  0  0  0  0
    7.2758   -0.5171   22.2841 N   0  0  0  0  0  0  0  0  0  0  0  0
    5.4305    0.6528   20.1613 C   0  0  0  0  0  0  0  0  0  0  0  0
    5.0090    0.6371   21.1707 H   0  0  0  0  0  0  0  0  0  0  0  0
    4.8046    1.3079   19.1064 C   0  0  0  0  0  0  0  0  0  0  0  0
    3.8749    1.8429   19.2584 H   0  0  0  0  0  0  0  0  0  0  0  0
  1  2  1  0
  2  3  2  0
  3  4  1  0
  4  5  1  0
  4  6  2  0
  6  7  1  0
  7  8  2  0
  8  9  1  0
  9 10  2  0
 10 11  1  0
 11 12  1  0
 12 13  1  0
 13 14  2  0
 14 15  1  0
 14 16  1  0
 16 17  1  0
 16 18  2  0
 18 19  1  0
 18 20  1  0
 20 21  1  0
 21 22  1  0
 21 23  1  0
 23 24  2  0
 23 25  1  0
 25 26  1  0
 25 27  1  0
 25 28  1  0
 20 29  2  0
 29 30  1  0
 12 31  2  0
 31 32  1  0
  6 33  1  0
 33 34  1  0
 33 35  2  0
 35 36  1  0
 35  2  1  0
 32  7  1  0
 32 10  1  0
 29 13  1  0
M  END
>  <cnnaffinity>  (1) 
-5.30509

>  <filename>  (1) 
CC(=O)Nc1cccc(-c2nn3c(-c4cccnc4)nnc3s2)c1

$$$$
