
     RDKit          3D

 35 36  0  0  0  0  0  0  0  0999 V2000
    4.9351    1.8194   16.9898 H   0  0  0  0  0  0  0  0  0  0  0  0
    5.3900    1.2963   17.8279 C   0  0  0  0  0  0  0  0  0  0  0  0
    6.5474    0.6718   17.5585 N   0  0  0  0  0  0  0  0  0  0  0  0
    7.1470    0.0269   18.5645 C   0  0  0  0  0  0  0  0  0  0  0  0
    8.1013   -0.4427   18.3249 H   0  0  0  0  0  0  0  0  0  0  0  0
    6.6397   -0.0408   19.8786 C   0  0  0  0  0  0  0  0  0  0  0  0
    7.5911   -0.8405   21.1478 S   0  0  0  0  0  0  0  0  0  0  0  0
    8.5969    0.6115   21.6989 C   0  0  1  0  0  0  0  0  0  0  0  0
    9.0303    1.0373   20.7880 H   0  0  0  0  0  0  0  0  0  0  0  0
    7.7335    1.7017   22.3174 C   0  0  0  0  0  0  0  0  0  0  0  0
    6.9355    1.4582   23.4474 C   0  0  0  0  0  0  0  0  0  0  0  0
    6.9600    0.4770   23.9149 H   0  0  0  0  0  0  0  0  0  0  0  0
    6.1300    2.4707   23.9809 C   0  0  0  0  0  0  0  0  0  0  0  0
    5.5484    2.2832   24.8844 H   0  0  0  0  0  0  0  0  0  0  0  0
    6.1017    3.7326   23.3793 C   0  0  0  0  0  0  0  0  0  0  0  0
    5.4974    4.5378   23.7816 H   0  0  0  0  0  0  0  0  0  0  0  0
    6.8972    3.9893   22.2512 C   0  0  0  0  0  0  0  0  0  0  0  0
    6.8478    5.2668   21.6396 N   0  0  0  0  0  0  0  0  0  0  0  0
    6.8964    5.3215   20.6369 H   0  0  0  0  0  0  0  0  0  0  0  0
    6.6751    6.4560   22.2961 C   0  0  0  0  0  0  0  0  0  0  0  0
    6.7328    6.5653   23.5072 O   0  0  0  0  0  0  0  0  0  0  0  0
    6.4241    7.6616   21.4166 C   0  0  0  0  0  0  0  0  0  0  0  0
    5.7583    7.4673   20.5709 H   0  0  0  0  0  0  0  0  0  0  0  0
    7.3615    8.0655   21.0248 H   0  0  0  0  0  0  0  0  0  0  0  0
    5.9750    8.4123   22.0668 H   0  0  0  0  0  0  0  0  0  0  0  0
    7.7334    2.9848   21.7469 C   0  0  0  0  0  0  0  0  0  0  0  0
    8.4441    3.2040   20.9540 H   0  0  0  0  0  0  0  0  0  0  0  0
    9.7126    0.1256   22.6213 C   0  0  0  0  0  0  0  0  0  0  0  0
   10.3514    0.9661   22.9176 H   0  0  0  0  0  0  0  0  0  0  0  0
   10.3289   -0.6211   22.1166 H   0  0  0  0  0  0  0  0  0  0  0  0
    9.3025   -0.3257   23.5296 H   0  0  0  0  0  0  0  0  0  0  0  0
    5.4258    0.6146   20.1398 C   0  0  0  0  0  0  0  0  0  0  0  0
    5.0338    0.6343   21.1585 H   0  0  0  0  0  0  0  0  0  0  0  0
    4.7916    1.2913   19.0928 C   0  0  0  0  0  0  0  0  0  0  0  0
    3.8680    1.8407   19.2375 H   0  0  0  0  0  0  0  0  0  0  0  0
  1  2  1  0
  2  3  2  0
  3  4  1  0
  4  5  1  0
  4  6  2  0
  6  7  1  0
  7  8  1  0
  8  9  1  6
  8 10  1  0
 10 11  2  0
 11 12  1  0
 11 13  1  0
 13 14  1  0
 13 15  2  0
 15 16  1  0
 15 17  1  0
 17 18  1  0
 18 19  1  0
 18 20  1  0
 20 21  2  0
 20 22  1  0
 22 23  1  0
 22 24  1  0
 22 25  1  0
 17 26  2  0
 26 27  1  0
  8 28  1  0
 28 29  1  0
 28 30  1  0
 28 31  1  0
  6 32  1  0
 32 33  1  0
 32 34  2  0
 34 35  1  0
 34  2  1  0
 26 10  1  0
M  END
>  <cnnaffinity>  (1) 
-4.97081

>  <filename>  (1) 
CC(=O)Nc1cccc([C@@H](C)Sc2cccnc2)c1

$$$$
