
     RDKit          3D

 25 26  0  0  0  0  0  0  0  0999 V2000
    4.9256    1.8221   16.9469 H   0  0  0  0  0  0  0  0  0  0  0  0
    5.3806    1.3309   17.8047 C   0  0  0  0  0  0  0  0  0  0  0  0
    6.5459    0.7064   17.5795 N   0  0  0  0  0  0  0  0  0  0  0  0
    7.1379    0.1100   18.6166 C   0  0  0  0  0  0  0  0  0  0  0  0
    8.0645   -0.4279   18.4216 H   0  0  0  0  0  0  0  0  0  0  0  0
    6.6223    0.1385   19.9196 C   0  0  0  0  0  0  0  0  0  0  0  0
    7.3712   -0.5698   20.9801 C   0  0  0  0  0  0  0  0  0  0  0  0
    8.0093   -1.6340   20.5842 N   0  0  0  0  0  0  0  0  0  0  0  0
    8.5170   -2.4543   21.5434 C   0  0  0  0  0  0  0  0  0  0  0  0
    8.8022   -3.6211   21.4034 O   0  0  0  0  0  0  0  0  0  0  0  0
    8.7172   -1.9107   22.8288 N   0  0  0  0  0  0  0  0  0  0  0  0
    9.1400   -2.6446   23.3687 H   0  0  0  0  0  0  0  0  0  0  0  0
    8.0306   -0.8114   23.3059 C   0  0  0  0  0  0  0  0  0  0  0  0
    8.0368   -0.3974   24.7992 C   0  0  0  0  0  0  0  0  0  0  0  0
    7.4210    0.5781   25.1703 O   0  0  0  0  0  0  0  0  0  0  0  0
    8.8378   -1.2538   25.7613 C   0  0  0  0  0  0  0  0  0  0  0  0
    8.7741   -0.8224   26.7611 H   0  0  0  0  0  0  0  0  0  0  0  0
    9.8866   -1.2785   25.4426 H   0  0  0  0  0  0  0  0  0  0  0  0
    8.4365   -2.2752   25.7861 H   0  0  0  0  0  0  0  0  0  0  0  0
    7.3414   -0.1178   22.3386 C   0  0  0  0  0  0  0  0  0  0  0  0
    6.7784    0.7690   22.5833 H   0  0  0  0  0  0  0  0  0  0  0  0
    5.3817    0.7497   20.1331 C   0  0  0  0  0  0  0  0  0  0  0  0
    4.9123    0.7101   21.1165 H   0  0  0  0  0  0  0  0  0  0  0  0
    4.7523    1.3638   19.0532 C   0  0  0  0  0  0  0  0  0  0  0  0
    3.8048    1.8754   19.1718 H   0  0  0  0  0  0  0  0  0  0  0  0
  1  2  1  0
  2  3  2  0
  3  4  1  0
  4  5  1  0
  4  6  2  0
  6  7  1  0
  7  8  2  0
  8  9  1  0
  9 10  2  0
  9 11  1  0
 11 12  1  0
 11 13  1  0
 13 14  1  0
 14 15  2  0
 14 16  1  0
 16 17  1  0
 16 18  1  0
 16 19  1  0
 13 20  2  0
 20 21  1  0
  6 22  1  0
 22 23  1  0
 22 24  2  0
 24 25  1  0
 24  2  1  0
 20  7  1  0
M  END
>  <cnnaffinity>  (1) 
-4.65587

>  <filename>  (1) 
CC(=O)c1cc(-c2cccnc2)nc(=O)[nH]1

$$$$
