
     RDKit          3D

 42 45  0  0  0  0  0  0  0  0999 V2000
    4.9788    1.8289   16.9359 H   0  0  0  0  0  0  0  0  0  0  0  0
    5.4125    1.2918   17.7803 C   0  0  0  0  0  0  0  0  0  0  0  0
    6.5594    0.6386   17.5421 N   0  0  0  0  0  0  0  0  0  0  0  0
    7.1350    0.0058   18.5689 C   0  0  0  0  0  0  0  0  0  0  0  0
    8.0556   -0.5278   18.3407 H   0  0  0  0  0  0  0  0  0  0  0  0
    6.6218    0.0079   19.8781 C   0  0  0  0  0  0  0  0  0  0  0  0
    7.3733   -0.6357   20.9606 C   0  0  0  0  0  0  0  0  0  0  0  0
    8.0612   -1.7580   20.7533 N   0  0  0  0  0  0  0  0  0  0  0  0
    8.5561   -2.0454   21.9565 N   0  0  0  0  0  0  0  0  0  0  0  0
    8.2748   -1.1786   22.9244 C   0  0  0  0  0  0  0  0  0  0  0  0
    7.4976   -0.2014   22.3216 C   0  0  0  0  0  0  0  0  0  0  0  0
    7.0759    1.0287   22.9682 C   0  0  0  0  0  0  0  0  0  0  0  0
    7.2265    2.2751   22.3375 C   0  0  0  0  0  0  0  0  0  0  0  0
    7.5964    2.3132   21.3159 H   0  0  0  0  0  0  0  0  0  0  0  0
    6.9170    3.4447   23.0197 C   0  0  0  0  0  0  0  0  0  0  0  0
    7.0671    4.4126   22.5515 H   0  0  0  0  0  0  0  0  0  0  0  0
    6.4640    3.3730   24.3404 C   0  0  0  0  0  0  0  0  0  0  0  0
    6.1790    4.5630   25.0152 N   0  0  0  0  0  0  0  0  0  0  0  0
    5.8607    5.3238   24.4485 H   0  0  0  0  0  0  0  0  0  0  0  0
    6.3175    4.7726   26.3602 C   0  0  0  0  0  0  0  0  0  0  0  0
    6.8689    3.9889   27.1071 O   0  0  0  0  0  0  0  0  0  0  0  0
    5.7351    6.0853   26.8058 C   0  0  0  0  0  0  0  0  0  0  0  0
    5.5632    6.0595   27.8788 H   0  0  0  0  0  0  0  0  0  0  0  0
    6.4499    6.8808   26.5886 H   0  0  0  0  0  0  0  0  0  0  0  0
    4.7952    6.2943   26.2899 H   0  0  0  0  0  0  0  0  0  0  0  0
    6.2918    2.1387   24.9761 C   0  0  0  0  0  0  0  0  0  0  0  0
    5.9544    2.1012   26.0032 H   0  0  0  0  0  0  0  0  0  0  0  0
    6.5936    0.9764   24.2833 C   0  0  0  0  0  0  0  0  0  0  0  0
    6.4561    0.0095   24.7632 H   0  0  0  0  0  0  0  0  0  0  0  0
    9.0658   -1.4922   24.1753 C   0  0  0  0  0  0  0  0  0  0  0  0
    8.4084   -1.7108   25.0233 H   0  0  0  0  0  0  0  0  0  0  0  0
    9.7062   -0.6523   24.4671 H   0  0  0  0  0  0  0  0  0  0  0  0
    9.9053   -2.7323   23.7553 C   0  0  0  0  0  0  0  0  0  0  0  0
    9.7079   -3.5803   24.4121 H   0  0  0  0  0  0  0  0  0  0  0  0
   10.9702   -2.5120   23.7981 H   0  0  0  0  0  0  0  0  0  0  0  0
    9.5225   -3.0592   22.2840 C   0  0  0  0  0  0  0  0  0  0  0  0
   10.3746   -2.9326   21.6125 H   0  0  0  0  0  0  0  0  0  0  0  0
    9.0668   -4.0458   22.1626 H   0  0  0  0  0  0  0  0  0  0  0  0
    5.3952    0.6541   20.0991 C   0  0  0  0  0  0  0  0  0  0  0  0
    4.9304    0.6564   21.0873 H   0  0  0  0  0  0  0  0  0  0  0  0
    4.7860    1.3081   19.0302 C   0  0  0  0  0  0  0  0  0  0  0  0
    3.8509    1.8417   19.1497 H   0  0  0  0  0  0  0  0  0  0  0  0
  1  2  1  0
  2  3  2  0
  3  4  1  0
  4  5  1  0
  4  6  2  0
  6  7  1  0
  7  8  2  0
  8  9  1  0
  9 10  1  0
 10 11  2  0
 11 12  1  0
 12 13  2  0
 13 14  1  0
 13 15  1  0
 15 16  1  0
 15 17  2  0
 17 18  1  0
 18 19  1  0
 18 20  1  0
 20 21  2  0
 20 22  1  0
 22 23  1  0
 22 24  1  0
 22 25  1  0
 17 26  1  0
 26 27  1  0
 26 28  2  0
 28 29  1  0
 10 30  1  0
 30 31  1  0
 30 32  1  0
 30 33  1  0
 33 34  1  0
 33 35  1  0
 33 36  1  0
 36 37  1  0
 36 38  1  0
  6 39  1  0
 39 40  1  0
 39 41  2  0
 41 42  1  0
 41  2  1  0
 11  7  1  0
 28 12  1  0
 36  9  1  0
M  END
>  <cnnaffinity>  (1) 
-5.52669

>  <filename>  (1) 
CC(=O)Nc1ccc(-c2c(-c3cccnc3)nn3c2CCC3)cc1

$$$$
