
     RDKit          3D

 35 37  0  0  0  0  0  0  0  0999 V2000
    4.9219    1.7814   16.9955 H   0  0  0  0  0  0  0  0  0  0  0  0
    5.4014    1.2946   17.8399 C   0  0  0  0  0  0  0  0  0  0  0  0
    6.5612    0.6715   17.5817 N   0  0  0  0  0  0  0  0  0  0  0  0
    7.1514    0.0455   18.6000 C   0  0  0  0  0  0  0  0  0  0  0  0
    8.1142   -0.4138   18.3912 H   0  0  0  0  0  0  0  0  0  0  0  0
    6.6084   -0.0273   19.8974 C   0  0  0  0  0  0  0  0  0  0  0  0
    7.3085   -0.7453   20.9930 C   0  0  0  0  0  0  0  0  0  0  0  0
    6.5660   -1.5085   21.7608 N   0  0  0  0  0  0  0  0  0  0  0  0
    7.1516   -2.1916   22.8019 N   0  0  0  0  0  0  0  0  0  0  0  0
    6.2850   -3.0005   23.6209 C   0  0  0  0  0  0  0  0  0  0  0  0
    5.2079   -3.6817   23.0316 C   0  0  0  0  0  0  0  0  0  0  0  0
    5.0453   -3.5627   21.9658 H   0  0  0  0  0  0  0  0  0  0  0  0
    4.3682   -4.4702   23.8123 C   0  0  0  0  0  0  0  0  0  0  0  0
    3.5278   -4.9875   23.3545 H   0  0  0  0  0  0  0  0  0  0  0  0
    4.5739   -4.6017   25.2031 C   0  0  0  0  0  0  0  0  0  0  0  0
    3.6301   -5.4672   26.0057 C   0  0  0  0  0  0  0  0  0  0  0  0
    2.6947   -6.0408   25.4751 O   0  0  0  0  0  0  0  0  0  0  0  0
    3.8538   -5.6213   27.4978 C   0  0  0  0  0  0  0  0  0  0  0  0
    3.7992   -4.6531   28.0073 H   0  0  0  0  0  0  0  0  0  0  0  0
    3.0845   -6.2833   27.9012 H   0  0  0  0  0  0  0  0  0  0  0  0
    4.8412   -6.0465   27.7083 H   0  0  0  0  0  0  0  0  0  0  0  0
    5.6548   -3.9131   25.7832 C   0  0  0  0  0  0  0  0  0  0  0  0
    5.8554   -3.9843   26.8514 H   0  0  0  0  0  0  0  0  0  0  0  0
    6.5044   -3.1261   25.0039 C   0  0  0  0  0  0  0  0  0  0  0  0
    7.3194   -2.5828   25.4685 H   0  0  0  0  0  0  0  0  0  0  0  0
    8.5159   -2.1165   23.0171 C   0  0  0  0  0  0  0  0  0  0  0  0
    8.8990   -2.7316   23.8314 H   0  0  0  0  0  0  0  0  0  0  0  0
    9.3406   -1.3591   22.2718 C   0  0  0  0  0  0  0  0  0  0  0  0
   10.4107   -1.2769   22.4404 H   0  0  0  0  0  0  0  0  0  0  0  0
    8.7972   -0.5575   21.1811 C   0  0  0  0  0  0  0  0  0  0  0  0
    9.5002    0.1764   20.4929 O   0  0  0  0  0  0  0  0  0  0  0  0
    5.4100    0.6445   20.1581 C   0  0  0  0  0  0  0  0  0  0  0  0
    5.0006    0.6201   21.1741 H   0  0  0  0  0  0  0  0  0  0  0  0
    4.7999    1.3225   19.1035 C   0  0  0  0  0  0  0  0  0  0  0  0
    3.8675    1.8539   19.2525 H   0  0  0  0  0  0  0  0  0  0  0  0
  1  2  1  0
  2  3  2  0
  3  4  1  0
  4  5  1  0
  4  6  2  0
  6  7  1  0
  7  8  2  0
  8  9  1  0
  9 10  1  0
 10 11  2  0
 11 12  1  0
 11 13  1  0
 13 14  1  0
 13 15  2  0
 15 16  1  0
 16 17  2  0
 16 18  1  0
 18 19  1  0
 18 20  1  0
 18 21  1  0
 15 22  1  0
 22 23  1  0
 22 24  2  0
 24 25  1  0
  9 26  1  0
 26 27  1  0
 26 28  2  0
 28 29  1  0
 28 30  1  0
 30 31  2  0
  6 32  1  0
 32 33  1  0
 32 34  2  0
 34 35  1  0
 34  2  1  0
 30  7  1  0
 24 10  1  0
M  END
>  <cnnaffinity>  (1) 
-5.30494

>  <filename>  (1) 
CC(=O)c1ccc(-n2ccc(=O)c(-c3cccnc3)n2)cc1

$$$$
