
     RDKit          3D

 41 42  0  0  0  0  0  0  0  0999 V2000
    4.7392    1.8947   16.9030 H   0  0  0  0  0  0  0  0  0  0  0  0
    5.2838    1.3670   17.6789 C   0  0  0  0  0  0  0  0  0  0  0  0
    6.4281    0.7752   17.2969 N   0  0  0  0  0  0  0  0  0  0  0  0
    7.1487    0.1488   18.2368 C   0  0  0  0  0  0  0  0  0  0  0  0
    8.0755   -0.3180   17.9092 H   0  0  0  0  0  0  0  0  0  0  0  0
    6.7536    0.0747   19.5939 C   0  0  0  0  0  0  0  0  0  0  0  0
    7.4962   -0.5826   20.5950 N   0  0  0  0  0  0  0  0  0  0  0  0
    6.9755   -0.8256   21.4246 H   0  0  0  0  0  0  0  0  0  0  0  0
    8.8665   -0.4987   20.7762 C   0  0  0  0  0  0  0  0  0  0  0  0
    9.5530    0.2114   20.0724 O   0  0  0  0  0  0  0  0  0  0  0  0
    9.4196   -1.4326   21.8957 C   0  0  0  0  0  0  0  0  0  0  0  0
    8.6872   -1.1071   23.2179 C   0  0  0  0  0  0  0  0  0  0  0  0
    8.6991    0.2020   23.7367 C   0  0  0  0  0  0  0  0  0  0  0  0
    9.2812    0.9744   23.2353 H   0  0  0  0  0  0  0  0  0  0  0  0
    7.9684    0.5241   24.8856 C   0  0  0  0  0  0  0  0  0  0  0  0
    7.9585    1.5354   25.2760 H   0  0  0  0  0  0  0  0  0  0  0  0
    7.2218   -0.4598   25.5476 C   0  0  0  0  0  0  0  0  0  0  0  0
    6.4791   -0.1018   26.6848 N   0  0  0  0  0  0  0  0  0  0  0  0
    6.3374    0.8788   26.8218 H   0  0  0  0  0  0  0  0  0  0  0  0
    5.9989   -0.9396   27.6570 C   0  0  0  0  0  0  0  0  0  0  0  0
    6.1700   -2.1444   27.6543 O   0  0  0  0  0  0  0  0  0  0  0  0
    5.2616   -0.2412   28.7737 C   0  0  0  0  0  0  0  0  0  0  0  0
    6.0172    0.1864   29.4401 H   0  0  0  0  0  0  0  0  0  0  0  0
    4.6769   -0.9944   29.3124 H   0  0  0  0  0  0  0  0  0  0  0  0
    4.6205    0.5715   28.4164 H   0  0  0  0  0  0  0  0  0  0  0  0
    7.2024   -1.7653   25.0509 C   0  0  0  0  0  0  0  0  0  0  0  0
    6.6383   -2.5202   25.5754 H   0  0  0  0  0  0  0  0  0  0  0  0
    7.9280   -2.0685   23.9043 C   0  0  0  0  0  0  0  0  0  0  0  0
    7.9204   -3.0872   23.5349 H   0  0  0  0  0  0  0  0  0  0  0  0
   10.9607   -1.2902   22.0137 C   0  0  0  0  0  0  0  0  0  0  0  0
   11.4280   -1.4765   21.0371 H   0  0  0  0  0  0  0  0  0  0  0  0
   11.2697   -0.2934   22.3461 H   0  0  0  0  0  0  0  0  0  0  0  0
   11.3564   -2.0321   22.7189 H   0  0  0  0  0  0  0  0  0  0  0  0
    9.1546   -2.8855   21.4338 C   0  0  0  0  0  0  0  0  0  0  0  0
    9.7030   -3.0771   20.5103 H   0  0  0  0  0  0  0  0  0  0  0  0
    9.5022   -3.5772   22.2084 H   0  0  0  0  0  0  0  0  0  0  0  0
    8.0921   -3.0841   21.2537 H   0  0  0  0  0  0  0  0  0  0  0  0
    5.5413    0.6630   19.9653 C   0  0  0  0  0  0  0  0  0  0  0  0
    5.2185    0.6055   21.0057 H   0  0  0  0  0  0  0  0  0  0  0  0
    4.7966    1.3303   18.9911 C   0  0  0  0  0  0  0  0  0  0  0  0
    3.8604    1.8179   19.2422 H   0  0  0  0  0  0  0  0  0  0  0  0
  1  2  1  0
  2  3  2  0
  3  4  1  0
  4  5  1  0
  4  6  2  0
  6  7  1  0
  7  8  1  0
  7  9  1  0
  9 10  2  0
  9 11  1  0
 11 12  1  0
 12 13  2  0
 13 14  1  0
 13 15  1  0
 15 16  1  0
 15 17  2  0
 17 18  1  0
 18 19  1  0
 18 20  1  0
 20 21  2  0
 20 22  1  0
 22 23  1  0
 22 24  1  0
 22 25  1  0
 17 26  1  0
 26 27  1  0
 26 28  2  0
 28 29  1  0
 11 30  1  0
 30 31  1  0
 30 32  1  0
 30 33  1  0
 11 34  1  0
 34 35  1  0
 34 36  1  0
 34 37  1  0
  6 38  1  0
 38 39  1  0
 38 40  2  0
 40 41  1  0
 40  2  1  0
 28 12  1  0
M  END
>  <cnnaffinity>  (1) 
-5.52981

>  <filename>  (1) 
CC(=O)Nc1ccc(C(C)(C)C(=O)Nc2cccnc2)cc1

$$$$
