
     RDKit          3D

 36 38  0  0  0  0  0  0  0  0999 V2000
    4.9286    1.8049   16.9667 H   0  0  0  0  0  0  0  0  0  0  0  0
    5.3982    1.3040   17.8146 C   0  0  0  0  0  0  0  0  0  0  0  0
    6.5615    0.6818   17.5690 N   0  0  0  0  0  0  0  0  0  0  0  0
    7.1730    0.0662   18.5884 C   0  0  0  0  0  0  0  0  0  0  0  0
    8.1071   -0.4242   18.3258 H   0  0  0  0  0  0  0  0  0  0  0  0
    6.6670    0.0164   19.9002 C   0  0  0  0  0  0  0  0  0  0  0  0
    7.3390   -0.7041   20.9824 C   0  0  0  0  0  0  0  0  0  0  0  0
    6.8186   -1.2407   22.1048 C   0  0  0  0  0  0  0  0  0  0  0  0
    5.8084   -1.2974   22.4419 H   0  0  0  0  0  0  0  0  0  0  0  0
    7.8248   -1.8407   22.8484 N   0  0  0  0  0  0  0  0  0  0  0  0
    7.6516   -2.4892   24.1057 C   0  0  0  0  0  0  0  0  0  0  0  0
    8.6271   -2.3578   25.1021 C   0  0  0  0  0  0  0  0  0  0  0  0
    9.5166   -1.7769   24.8802 H   0  0  0  0  0  0  0  0  0  0  0  0
    8.4419   -2.9936   26.3351 C   0  0  0  0  0  0  0  0  0  0  0  0
    9.2098   -2.9054   27.1041 H   0  0  0  0  0  0  0  0  0  0  0  0
    7.2901   -3.7563   26.5660 C   0  0  0  0  0  0  0  0  0  0  0  0
    7.1428   -4.2752   27.5059 H   0  0  0  0  0  0  0  0  0  0  0  0
    6.3244   -3.8888   25.5597 C   0  0  0  0  0  0  0  0  0  0  0  0
    5.1681   -4.6600   25.7986 N   0  0  0  0  0  0  0  0  0  0  0  0
    4.8636   -4.7355   26.7491 H   0  0  0  0  0  0  0  0  0  0  0  0
    4.5104   -5.4221   24.8711 C   0  0  0  0  0  0  0  0  0  0  0  0
    4.9419   -5.6148   23.7515 O   0  0  0  0  0  0  0  0  0  0  0  0
    3.1941   -6.0079   25.3233 C   0  0  0  0  0  0  0  0  0  0  0  0
    3.3466   -6.9353   25.8794 H   0  0  0  0  0  0  0  0  0  0  0  0
    2.6077   -5.3284   25.9447 H   0  0  0  0  0  0  0  0  0  0  0  0
    2.6391   -6.2376   24.4150 H   0  0  0  0  0  0  0  0  0  0  0  0
    6.4979   -3.2467   24.3333 C   0  0  0  0  0  0  0  0  0  0  0  0
    5.7396   -3.3568   23.5708 H   0  0  0  0  0  0  0  0  0  0  0  0
    9.0373   -1.6684   22.1744 C   0  0  0  0  0  0  0  0  0  0  0  0
   10.1610   -1.9993   22.4895 O   0  0  0  0  0  0  0  0  0  0  0  0
    8.6942   -1.0110   21.0179 N   0  0  0  0  0  0  0  0  0  0  0  0
    9.4600   -0.7170   20.4386 H   0  0  0  0  0  0  0  0  0  0  0  0
    5.4403    0.6706   20.1308 C   0  0  0  0  0  0  0  0  0  0  0  0
    5.0018    0.6735   21.1275 H   0  0  0  0  0  0  0  0  0  0  0  0
    4.7999    1.3225   19.0777 C   0  0  0  0  0  0  0  0  0  0  0  0
    3.8640    1.8516   19.2202 H   0  0  0  0  0  0  0  0  0  0  0  0
  1  2  1  0
  2  3  2  0
  3  4  1  0
  4  5  1  0
  4  6  2  0
  6  7  1  0
  7  8  2  0
  8  9  1  0
  8 10  1  0
 10 11  1  0
 11 12  2  0
 12 13  1  0
 12 14  1  0
 14 15  1  0
 14 16  2  0
 16 17  1  0
 16 18  1  0
 18 19  1  0
 19 20  1  0
 19 21  1  0
 21 22  2  0
 21 23  1  0
 23 24  1  0
 23 25  1  0
 23 26  1  0
 18 27  2  0
 27 28  1  0
 10 29  1  0
 29 30  2  0
 29 31  1  0
 31 32  1  0
  6 33  1  0
 33 34  1  0
 33 35  2  0
 35 36  1  0
 35  2  1  0
 31  7  1  0
 27 11  1  0
M  END
>  <cnnaffinity>  (1) 
-5.46241

>  <filename>  (1) 
CC(=O)Nc1cccc(-n2cc(-c3cccnc3)[nH]c2=O)c1

$$$$
