
     RDKit          3D

 37 39  0  0  0  0  0  0  0  0999 V2000
    4.9461    1.8210   16.9962 H   0  0  0  0  0  0  0  0  0  0  0  0
    5.3872    1.2887   17.8354 C   0  0  0  0  0  0  0  0  0  0  0  0
    6.5370    0.6488   17.5814 N   0  0  0  0  0  0  0  0  0  0  0  0
    7.1294    0.0254   18.6034 C   0  0  0  0  0  0  0  0  0  0  0  0
    8.0966   -0.4319   18.4025 H   0  0  0  0  0  0  0  0  0  0  0  0
    6.5931   -0.0382   19.9040 C   0  0  0  0  0  0  0  0  0  0  0  0
    7.3194   -0.7602   21.0003 C   0  0  0  0  0  0  0  0  0  0  0  0
    6.5803   -1.5218   21.7689 N   0  0  0  0  0  0  0  0  0  0  0  0
    7.1599   -2.1796   22.8336 N   0  0  0  0  0  0  0  0  0  0  0  0
    6.2976   -2.9817   23.6613 C   0  0  0  0  0  0  0  0  0  0  0  0
    5.2403   -3.6668   23.0436 C   0  0  0  0  0  0  0  0  0  0  0  0
    5.1101   -3.5066   21.9801 H   0  0  0  0  0  0  0  0  0  0  0  0
    4.4000   -4.4789   23.8076 C   0  0  0  0  0  0  0  0  0  0  0  0
    3.5783   -5.0187   23.3405 H   0  0  0  0  0  0  0  0  0  0  0  0
    4.5928   -4.5871   25.1860 C   0  0  0  0  0  0  0  0  0  0  0  0
    3.9440   -5.1839   25.8121 H   0  0  0  0  0  0  0  0  0  0  0  0
    5.6379   -3.8922   25.8043 C   0  0  0  0  0  0  0  0  0  0  0  0
    5.8353   -4.0016   27.1960 N   0  0  0  0  0  0  0  0  0  0  0  0
    6.7759   -3.9293   27.5350 H   0  0  0  0  0  0  0  0  0  0  0  0
    4.8476   -4.1372   28.1388 C   0  0  0  0  0  0  0  0  0  0  0  0
    3.6674   -4.0391   27.8777 O   0  0  0  0  0  0  0  0  0  0  0  0
    5.3205   -4.4295   29.5392 C   0  0  0  0  0  0  0  0  0  0  0  0
    4.4740   -4.8695   30.0687 H   0  0  0  0  0  0  0  0  0  0  0  0
    5.6098   -3.5047   30.0422 H   0  0  0  0  0  0  0  0  0  0  0  0
    6.1661   -5.1184   29.5553 H   0  0  0  0  0  0  0  0  0  0  0  0
    6.5116   -3.1083   25.0462 C   0  0  0  0  0  0  0  0  0  0  0  0
    7.3105   -2.5594   25.5369 H   0  0  0  0  0  0  0  0  0  0  0  0
    8.5180   -2.1310   23.0584 C   0  0  0  0  0  0  0  0  0  0  0  0
    8.8817   -2.7587   23.8752 H   0  0  0  0  0  0  0  0  0  0  0  0
    9.3448   -1.3887   22.3005 C   0  0  0  0  0  0  0  0  0  0  0  0
   10.4100   -1.3302   22.4764 H   0  0  0  0  0  0  0  0  0  0  0  0
    8.8154   -0.5856   21.2010 C   0  0  0  0  0  0  0  0  0  0  0  0
    9.5328    0.1469   20.5264 O   0  0  0  0  0  0  0  0  0  0  0  0
    5.3778    0.6184   20.1446 C   0  0  0  0  0  0  0  0  0  0  0  0
    4.9483    0.6011   21.1474 H   0  0  0  0  0  0  0  0  0  0  0  0
    4.7684    1.3070   19.0915 C   0  0  0  0  0  0  0  0  0  0  0  0
    3.8550    1.8801   19.2270 H   0  0  0  0  0  0  0  0  0  0  0  0
  1  2  1  0
  2  3  2  0
  3  4  1  0
  4  5  1  0
  4  6  2  0
  6  7  1  0
  7  8  2  0
  8  9  1  0
  9 10  1  0
 10 11  2  0
 11 12  1  0
 11 13  1  0
 13 14  1  0
 13 15  2  0
 15 16  1  0
 15 17  1  0
 17 18  1  0
 18 19  1  0
 18 20  1  0
 20 21  2  0
 20 22  1  0
 22 23  1  0
 22 24  1  0
 22 25  1  0
 17 26  2  0
 26 27  1  0
  9 28  1  0
 28 29  1  0
 28 30  2  0
 30 31  1  0
 30 32  1  0
 32 33  2  0
  6 34  1  0
 34 35  1  0
 34 36  2  0
 36 37  1  0
 36  2  1  0
 32  7  1  0
 26 10  1  0
M  END
>  <cnnaffinity>  (1) 
-5.57001

>  <filename>  (1) 
CC(=O)Nc1cccc(-n2ccc(=O)c(-c3cccnc3)n2)c1

$$$$
