
     RDKit          3D

 35 38  0  0  0  0  0  0  0  0999 V2000
    4.9184    1.7892   16.9976 H   0  0  0  0  0  0  0  0  0  0  0  0
    5.4074    1.3019   17.8397 C   0  0  0  0  0  0  0  0  0  0  0  0
    6.5755    0.6929   17.5820 N   0  0  0  0  0  0  0  0  0  0  0  0
    7.1926    0.0973   18.6069 C   0  0  0  0  0  0  0  0  0  0  0  0
    8.1303   -0.4008   18.3671 H   0  0  0  0  0  0  0  0  0  0  0  0
    6.7144    0.0703   19.9380 C   0  0  0  0  0  0  0  0  0  0  0  0
    7.4906   -0.6040   20.9929 C   0  0  0  0  0  0  0  0  0  0  0  0
    8.4922   -1.5564   20.9518 C   0  0  0  0  0  0  0  0  0  0  0  0
    8.9763   -1.9758   20.0794 H   0  0  0  0  0  0  0  0  0  0  0  0
    8.8890   -1.9704   22.1967 N   0  0  0  0  0  0  0  0  0  0  0  0
    8.1481   -1.2581   23.0043 C   0  0  0  0  0  0  0  0  0  0  0  0
    8.0848   -0.9655   24.7083 S   0  0  0  0  0  0  0  0  0  0  0  0
    7.0528    0.4233   24.3424 C   0  0  0  0  0  0  0  0  0  0  0  0
    6.6322    1.3832   25.3904 C   0  0  0  0  0  0  0  0  0  0  0  0
    5.7081    2.3884   25.0547 C   0  0  0  0  0  0  0  0  0  0  0  0
    5.3702    2.4764   24.0266 H   0  0  0  0  0  0  0  0  0  0  0  0
    5.2578    3.2808   26.0254 C   0  0  0  0  0  0  0  0  0  0  0  0
    4.5335    4.0385   25.7496 H   0  0  0  0  0  0  0  0  0  0  0  0
    5.7159    3.2037   27.3411 C   0  0  0  0  0  0  0  0  0  0  0  0
    5.3529    3.9080   28.0867 H   0  0  0  0  0  0  0  0  0  0  0  0
    6.6363    2.2035   27.7041 C   0  0  0  0  0  0  0  0  0  0  0  0
    7.1178    2.1003   29.1411 C   0  0  0  0  0  0  0  0  0  0  0  0
    7.0669    3.0368   29.9104 O   0  0  0  0  0  0  0  0  0  0  0  0
    7.6403    0.7507   29.5632 C   0  0  0  0  0  0  0  0  0  0  0  0
    7.8812    0.7316   30.6247 H   0  0  0  0  0  0  0  0  0  0  0  0
    6.8853   -0.0024   29.3164 H   0  0  0  0  0  0  0  0  0  0  0  0
    8.5354    0.5056   28.9812 H   0  0  0  0  0  0  0  0  0  0  0  0
    7.0994    1.3125   26.7158 C   0  0  0  0  0  0  0  0  0  0  0  0
    7.8210    0.5422   26.9880 H   0  0  0  0  0  0  0  0  0  0  0  0
    6.7065    0.5576   23.0990 N   0  0  0  0  0  0  0  0  0  0  0  0
    7.2933   -0.4155   22.3602 N   0  0  0  0  0  0  0  0  0  0  0  0
    5.4755    0.6986   20.1742 C   0  0  0  0  0  0  0  0  0  0  0  0
    5.0434    0.7050   21.1735 H   0  0  0  0  0  0  0  0  0  0  0  0
    4.8204    1.3149   19.1083 C   0  0  0  0  0  0  0  0  0  0  0  0
    3.8680    1.8121   19.2465 H   0  0  0  0  0  0  0  0  0  0  0  0
  1  2  1  0
  2  3  2  0
  3  4  1  0
  4  5  1  0
  4  6  2  0
  6  7  1  0
  7  8  2  0
  8  9  1  0
  8 10  1  0
 10 11  2  0
 11 12  1  0
 12 13  1  0
 13 14  1  0
 14 15  2  0
 15 16  1  0
 15 17  1  0
 17 18  1  0
 17 19  2  0
 19 20  1  0
 19 21  1  0
 21 22  1  0
 22 23  2  0
 22 24  1  0
 24 25  1  0
 24 26  1  0
 24 27  1  0
 21 28  2  0
 28 29  1  0
 13 30  2  0
 30 31  1  0
  6 32  1  0
 32 33  1  0
 32 34  2  0
 34 35  1  0
 34  2  1  0
 31  7  1  0
 31 11  1  0
 28 14  1  0
M  END
>  <cnnaffinity>  (1) 
-5.23779

>  <filename>  (1) 
CC(=O)c1cccc(-c2nn3c(-c4cccnc4)cnc3s2)c1

$$$$
