
     RDKit          3D

 36 38  0  0  0  0  0  0  0  0999 V2000
    4.9223    1.7917   16.9942 H   0  0  0  0  0  0  0  0  0  0  0  0
    5.3941    1.2913   17.8356 C   0  0  0  0  0  0  0  0  0  0  0  0
    6.5509    0.6662   17.5697 N   0  0  0  0  0  0  0  0  0  0  0  0
    7.1719    0.0530   18.5824 C   0  0  0  0  0  0  0  0  0  0  0  0
    8.1275   -0.4185   18.3642 H   0  0  0  0  0  0  0  0  0  0  0  0
    6.6651    0.0072   19.8993 C   0  0  0  0  0  0  0  0  0  0  0  0
    7.3594   -0.6681   20.9424 N   0  0  0  0  0  0  0  0  0  0  0  0
    6.7695   -1.4515   21.9292 C   0  0  0  0  0  0  0  0  0  0  0  0
    5.7021   -1.5804   21.9645 H   0  0  0  0  0  0  0  0  0  0  0  0
    7.7331   -1.9420   22.7491 C   0  0  0  0  0  0  0  0  0  0  0  0
    7.6217   -2.7966   23.9403 C   0  0  0  0  0  0  0  0  0  0  0  0
    6.4319   -3.5208   24.1449 C   0  0  0  0  0  0  0  0  0  0  0  0
    5.6346   -3.4518   23.4126 H   0  0  0  0  0  0  0  0  0  0  0  0
    6.2540   -4.3432   25.2518 C   0  0  0  0  0  0  0  0  0  0  0  0
    5.3343   -4.8983   25.3979 H   0  0  0  0  0  0  0  0  0  0  0  0
    7.2814   -4.4582   26.1982 C   0  0  0  0  0  0  0  0  0  0  0  0
    7.1098   -5.2879   27.3213 N   0  0  0  0  0  0  0  0  0  0  0  0
    7.6094   -5.0395   28.1546 H   0  0  0  0  0  0  0  0  0  0  0  0
    6.4184   -6.4745   27.3292 C   0  0  0  0  0  0  0  0  0  0  0  0
    5.9980   -6.9921   26.3118 O   0  0  0  0  0  0  0  0  0  0  0  0
    6.1996   -7.0923   28.6950 C   0  0  0  0  0  0  0  0  0  0  0  0
    7.0656   -7.6807   29.0146 H   0  0  0  0  0  0  0  0  0  0  0  0
    5.3654   -7.7837   28.5806 H   0  0  0  0  0  0  0  0  0  0  0  0
    5.9595   -6.3711   29.4851 H   0  0  0  0  0  0  0  0  0  0  0  0
    8.4663   -3.7221   26.0425 C   0  0  0  0  0  0  0  0  0  0  0  0
    9.2611   -3.7990   26.7822 H   0  0  0  0  0  0  0  0  0  0  0  0
    8.6320   -2.9080   24.9175 C   0  0  0  0  0  0  0  0  0  0  0  0
    9.5470   -2.3342   24.8048 H   0  0  0  0  0  0  0  0  0  0  0  0
    8.9296   -1.4450   22.2473 N   0  0  0  0  0  0  0  0  0  0  0  0
    9.8776   -1.6085   22.5288 H   0  0  0  0  0  0  0  0  0  0  0  0
    8.7500   -0.6670   21.1407 C   0  0  0  0  0  0  0  0  0  0  0  0
    9.6321   -0.1246   20.5063 O   0  0  0  0  0  0  0  0  0  0  0  0
    5.4472    0.6453   20.1603 C   0  0  0  0  0  0  0  0  0  0  0  0
    5.0312    0.6370   21.1694 H   0  0  0  0  0  0  0  0  0  0  0  0
    4.8114    1.3070   19.1066 C   0  0  0  0  0  0  0  0  0  0  0  0
    3.8811    1.8376   19.2600 H   0  0  0  0  0  0  0  0  0  0  0  0
  1  2  1  0
  2  3  2  0
  3  4  1  0
  4  5  1  0
  4  6  2  0
  6  7  1  0
  7  8  1  0
  8  9  1  0
  8 10  2  0
 10 11  1  0
 11 12  2  0
 12 13  1  0
 12 14  1  0
 14 15  1  0
 14 16  2  0
 16 17  1  0
 17 18  1  0
 17 19  1  0
 19 20  2  0
 19 21  1  0
 21 22  1  0
 21 23  1  0
 21 24  1  0
 16 25  1  0
 25 26  1  0
 25 27  2  0
 27 28  1  0
 10 29  1  0
 29 30  1  0
 29 31  1  0
 31 32  2  0
  6 33  1  0
 33 34  1  0
 33 35  2  0
 35 36  1  0
 35  2  1  0
 31  7  1  0
 27 11  1  0
M  END
>  <cnnaffinity>  (1) 
-5.48949

>  <filename>  (1) 
CC(=O)Nc1ccc(-c2cn(-c3cccnc3)c(=O)[nH]2)cc1

$$$$
