
     RDKit          3D

 36 39  0  0  0  0  0  0  0  0999 V2000
    4.9541    1.8058   16.9769 H   0  0  0  0  0  0  0  0  0  0  0  0
    5.4018    1.2885   17.8247 C   0  0  0  0  0  0  0  0  0  0  0  0
    6.5587    0.6573   17.5806 N   0  0  0  0  0  0  0  0  0  0  0  0
    7.1541    0.0237   18.5943 C   0  0  0  0  0  0  0  0  0  0  0  0
    8.1024   -0.4555   18.3599 H   0  0  0  0  0  0  0  0  0  0  0  0
    6.6405   -0.0071   19.9001 C   0  0  0  0  0  0  0  0  0  0  0  0
    7.3903   -0.6828   20.9579 C   0  0  0  0  0  0  0  0  0  0  0  0
    8.0572   -1.8627   20.7362 N   0  0  0  0  0  0  0  0  0  0  0  0
    8.4640   -2.2145   21.9280 C   0  0  0  0  0  0  0  0  0  0  0  0
    9.3374   -3.5464   22.6115 S   0  0  0  0  0  0  0  0  0  0  0  0
    9.4224   -2.7400   24.1597 C   0  0  0  0  0  0  0  0  0  0  0  0
    9.9997   -3.2112   24.9464 H   0  0  0  0  0  0  0  0  0  0  0  0
    8.7349   -1.5832   24.1556 C   0  0  0  0  0  0  0  0  0  0  0  0
    8.5705   -0.8509   24.9383 H   0  0  0  0  0  0  0  0  0  0  0  0
    8.1626   -1.3201   22.9131 N   0  0  0  0  0  0  0  0  0  0  0  0
    7.4840   -0.2922   22.2939 C   0  0  0  0  0  0  0  0  0  0  0  0
    7.0904    0.9334   22.9816 C   0  0  0  0  0  0  0  0  0  0  0  0
    7.3066    2.1743   22.3640 C   0  0  0  0  0  0  0  0  0  0  0  0
    7.7573    2.1944   21.3759 H   0  0  0  0  0  0  0  0  0  0  0  0
    6.9112    3.3552   22.9943 C   0  0  0  0  0  0  0  0  0  0  0  0
    7.0768    4.3095   22.5016 H   0  0  0  0  0  0  0  0  0  0  0  0
    6.2911    3.3067   24.2443 C   0  0  0  0  0  0  0  0  0  0  0  0
    5.9739    4.2187   24.7461 H   0  0  0  0  0  0  0  0  0  0  0  0
    6.0548    2.0720   24.8836 C   0  0  0  0  0  0  0  0  0  0  0  0
    5.3878    2.0689   26.2453 C   0  0  0  0  0  0  0  0  0  0  0  0
    5.0264    3.1018   26.7742 O   0  0  0  0  0  0  0  0  0  0  0  0
    5.1788    0.7402   26.9431 C   0  0  0  0  0  0  0  0  0  0  0  0
    6.1305    0.2142   27.0748 H   0  0  0  0  0  0  0  0  0  0  0  0
    4.5313    0.0876   26.3474 H   0  0  0  0  0  0  0  0  0  0  0  0
    4.7197    0.9341   27.9152 H   0  0  0  0  0  0  0  0  0  0  0  0
    6.4571    0.8912   24.2352 C   0  0  0  0  0  0  0  0  0  0  0  0
    6.2764   -0.0973   24.6545 H   0  0  0  0  0  0  0  0  0  0  0  0
    5.4164    0.6461   20.1400 C   0  0  0  0  0  0  0  0  0  0  0  0
    4.9890    0.6688   21.1448 H   0  0  0  0  0  0  0  0  0  0  0  0
    4.7923    1.3038   19.0830 C   0  0  0  0  0  0  0  0  0  0  0  0
    3.8657    1.8455   19.2207 H   0  0  0  0  0  0  0  0  0  0  0  0
  1  2  1  0
  2  3  2  0
  3  4  1  0
  4  5  1  0
  4  6  2  0
  6  7  1  0
  7  8  1  0
  8  9  2  0
  9 10  1  0
 10 11  1  0
 11 12  1  0
 11 13  2  0
 13 14  1  0
 13 15  1  0
 15 16  1  0
 16 17  1  0
 17 18  2  0
 18 19  1  0
 18 20  1  0
 20 21  1  0
 20 22  2  0
 22 23  1  0
 22 24  1  0
 24 25  1  0
 25 26  2  0
 25 27  1  0
 27 28  1  0
 27 29  1  0
 27 30  1  0
 24 31  2  0
 31 32  1  0
  6 33  1  0
 33 34  1  0
 33 35  2  0
 35 36  1  0
 35  2  1  0
 16  7  2  0
 31 17  1  0
 15  9  1  0
M  END
>  <cnnaffinity>  (1) 
-5.6472

>  <filename>  (1) 
CC(=O)c1cccc(-c2c(-c3cccnc3)nc3sccn23)c1

$$$$
