
     RDKit          3D

 28 30  0  0  0  0  0  0  0  0999 V2000
    4.9901    1.8200   16.9475 H   0  0  0  0  0  0  0  0  0  0  0  0
    5.4275    1.2862   17.7876 C   0  0  0  0  0  0  0  0  0  0  0  0
    6.5801    0.6442   17.5386 N   0  0  0  0  0  0  0  0  0  0  0  0
    7.1562    0.0031   18.5620 C   0  0  0  0  0  0  0  0  0  0  0  0
    8.1010   -0.4953   18.3512 H   0  0  0  0  0  0  0  0  0  0  0  0
    6.6173   -0.0333   19.8660 C   0  0  0  0  0  0  0  0  0  0  0  0
    7.3489   -0.6691   20.9770 C   0  0  0  0  0  0  0  0  0  0  0  0
    8.4738   -1.3687   20.7471 N   0  0  0  0  0  0  0  0  0  0  0  0
    8.8923   -1.6795   21.9926 N   0  0  0  0  0  0  0  0  0  0  0  0
   10.0825   -2.1596   22.5282 C   0  0  0  0  0  0  0  0  0  0  0  0
   10.8578   -2.5066   21.8753 H   0  0  0  0  0  0  0  0  0  0  0  0
   10.0224   -1.9379   23.8599 C   0  0  0  0  0  0  0  0  0  0  0  0
   10.7011   -2.1104   24.6771 H   0  0  0  0  0  0  0  0  0  0  0  0
    8.7923   -1.3686   24.1377 N   0  0  0  0  0  0  0  0  0  0  0  0
    8.6273   -0.5275   25.2167 O   0  0  0  0  0  0  0  0  0  0  0  0
    8.8162   -1.0540   26.4749 C   0  0  0  0  0  0  0  0  0  0  0  0
    9.2224   -2.1597   26.7031 O   0  0  0  0  0  0  0  0  0  0  0  0
    8.3955   -0.0088   27.4650 C   0  0  0  0  0  0  0  0  0  0  0  0
    8.2714    0.9651   26.9864 H   0  0  0  0  0  0  0  0  0  0  0  0
    7.4475   -0.3222   27.9069 H   0  0  0  0  0  0  0  0  0  0  0  0
    9.1182    0.0446   28.2789 H   0  0  0  0  0  0  0  0  0  0  0  0
    8.1067   -1.1706   22.9694 C   0  0  0  0  0  0  0  0  0  0  0  0
    7.0421   -0.5336   22.3561 C   0  0  0  0  0  0  0  0  0  0  0  0
    6.2262   -0.0121   22.8263 H   0  0  0  0  0  0  0  0  0  0  0  0
    5.3955    0.6191   20.0954 C   0  0  0  0  0  0  0  0  0  0  0  0
    4.9338    0.6258   21.0869 H   0  0  0  0  0  0  0  0  0  0  0  0
    4.7961    1.2941   19.0387 C   0  0  0  0  0  0  0  0  0  0  0  0
    3.8754    1.8500   19.1773 H   0  0  0  0  0  0  0  0  0  0  0  0
  1  2  1  0
  2  3  2  0
  3  4  1  0
  4  5  1  0
  4  6  2  0
  6  7  1  0
  7  8  2  0
  8  9  1  0
  9 10  1  0
 10 11  1  0
 10 12  2  0
 12 13  1  0
 12 14  1  0
 14 15  1  0
 15 16  1  0
 16 17  2  0
 16 18  1  0
 18 19  1  0
 18 20  1  0
 18 21  1  0
 14 22  1  0
 22 23  2  0
 23 24  1  0
  6 25  1  0
 25 26  1  0
 25 27  2  0
 27 28  1  0
 27  2  1  0
 23  7  1  0
 22  9  1  0
M  END
>  <cnnaffinity>  (1) 
-4.83186

>  <filename>  (1) 
CC(=O)On1ccn2nc(-c3cccnc3)cc12

$$$$
