
     RDKit          3D

 36 38  0  0  0  0  0  0  0  0999 V2000
    4.9140    1.7858   16.9890 H   0  0  0  0  0  0  0  0  0  0  0  0
    5.3979    1.2983   17.8291 C   0  0  0  0  0  0  0  0  0  0  0  0
    6.5596    0.6806   17.5612 N   0  0  0  0  0  0  0  0  0  0  0  0
    7.1662    0.0757   18.5879 C   0  0  0  0  0  0  0  0  0  0  0  0
    8.1077   -0.4229   18.3677 H   0  0  0  0  0  0  0  0  0  0  0  0
    6.6489    0.0134   19.8947 C   0  0  0  0  0  0  0  0  0  0  0  0
    7.3665   -0.7073   20.9724 C   0  0  0  0  0  0  0  0  0  0  0  0
    8.7807   -0.5546   21.1240 C   0  0  0  0  0  0  0  0  0  0  0  0
    9.3121    0.1177   20.4416 H   0  0  0  0  0  0  0  0  0  0  0  0
    9.4274   -1.2071   22.1271 C   0  0  0  0  0  0  0  0  0  0  0  0
   10.4919   -1.1316   22.2876 H   0  0  0  0  0  0  0  0  0  0  0  0
    8.7444   -2.0895   23.0663 C   0  0  0  0  0  0  0  0  0  0  0  0
    9.3275   -2.6936   23.9507 O   0  0  0  0  0  0  0  0  0  0  0  0
    7.3308   -2.2031   22.8622 N   0  0  0  0  0  0  0  0  0  0  0  0
    6.5594   -3.0307   23.7473 C   0  0  0  0  0  0  0  0  0  0  0  0
    5.7906   -4.0818   23.2298 C   0  0  0  0  0  0  0  0  0  0  0  0
    5.7935   -4.2541   22.1571 H   0  0  0  0  0  0  0  0  0  0  0  0
    5.0605   -4.9020   24.0868 C   0  0  0  0  0  0  0  0  0  0  0  0
    4.4598   -5.7119   23.6805 H   0  0  0  0  0  0  0  0  0  0  0  0
    5.0724   -4.6787   25.4810 C   0  0  0  0  0  0  0  0  0  0  0  0
    4.2548   -5.5860   26.3675 C   0  0  0  0  0  0  0  0  0  0  0  0
    3.5865   -6.4874   25.8973 O   0  0  0  0  0  0  0  0  0  0  0  0
    4.2665   -5.3590   27.8662 C   0  0  0  0  0  0  0  0  0  0  0  0
    3.6246   -6.1060   28.3364 H   0  0  0  0  0  0  0  0  0  0  0  0
    5.2799   -5.4464   28.2717 H   0  0  0  0  0  0  0  0  0  0  0  0
    3.9005   -4.3579   28.1179 H   0  0  0  0  0  0  0  0  0  0  0  0
    5.8474   -3.6137   25.9829 C   0  0  0  0  0  0  0  0  0  0  0  0
    5.8929   -3.4112   27.0514 H   0  0  0  0  0  0  0  0  0  0  0  0
    6.5880   -2.7997   25.1262 C   0  0  0  0  0  0  0  0  0  0  0  0
    7.1990   -1.9929   25.5159 H   0  0  0  0  0  0  0  0  0  0  0  0
    6.6945   -1.5240   21.8435 C   0  0  0  0  0  0  0  0  0  0  0  0
    5.6203   -1.6811   21.7540 H   0  0  0  0  0  0  0  0  0  0  0  0
    5.4262    0.6510   20.1480 C   0  0  0  0  0  0  0  0  0  0  0  0
    5.0091    0.6396   21.1606 H   0  0  0  0  0  0  0  0  0  0  0  0
    4.8003    1.3193   19.0963 C   0  0  0  0  0  0  0  0  0  0  0  0
    3.8675    1.8489   19.2537 H   0  0  0  0  0  0  0  0  0  0  0  0
  1  2  1  0
  2  3  2  0
  3  4  1  0
  4  5  1  0
  4  6  2  0
  6  7  1  0
  7  8  1  0
  8  9  1  0
  8 10  2  0
 10 11  1  0
 10 12  1  0
 12 13  2  0
 12 14  1  0
 14 15  1  0
 15 16  2  0
 16 17  1  0
 16 18  1  0
 18 19  1  0
 18 20  2  0
 20 21  1  0
 21 22  2  0
 21 23  1  0
 23 24  1  0
 23 25  1  0
 23 26  1  0
 20 27  1  0
 27 28  1  0
 27 29  2  0
 29 30  1  0
 14 31  1  0
 31 32  1  0
  6 33  1  0
 33 34  1  0
 33 35  2  0
 35 36  1  0
 35  2  1  0
 31  7  2  0
 29 15  1  0
M  END
>  <cnnaffinity>  (1) 
-5.17897

>  <filename>  (1) 
CC(=O)c1ccc(-n2cc(-c3cccnc3)ccc2=O)cc1

$$$$
