
     RDKit          3D

 45 47  0  0  0  0  0  0  0  0999 V2000
    4.9011    1.8504   16.9810 H   0  0  0  0  0  0  0  0  0  0  0  0
    5.3894    1.3327   17.8042 C   0  0  0  0  0  0  0  0  0  0  0  0
    6.5507    0.7228   17.5184 N   0  0  0  0  0  0  0  0  0  0  0  0
    7.1774    0.0832   18.5161 C   0  0  0  0  0  0  0  0  0  0  0  0
    8.1225   -0.3930   18.2536 H   0  0  0  0  0  0  0  0  0  0  0  0
    6.6860   -0.0292   19.8483 C   0  0  0  0  0  0  0  0  0  0  0  0
    7.3991   -0.7636   20.8390 N   0  0  0  0  0  0  0  0  0  0  0  0
    6.7149   -1.6797   21.7506 C   0  0  0  0  0  0  0  0  0  0  0  0
    5.7124   -1.8839   21.3568 H   0  0  0  0  0  0  0  0  0  0  0  0
    7.2457   -2.6446   21.7552 H   0  0  0  0  0  0  0  0  0  0  0  0
    6.5623   -1.2393   23.2296 C   0  0  0  0  0  0  0  0  0  0  0  0
    5.8853   -1.9577   23.7042 H   0  0  0  0  0  0  0  0  0  0  0  0
    6.0762   -0.2547   23.2631 H   0  0  0  0  0  0  0  0  0  0  0  0
    7.7757   -1.1967   24.0241 N   0  0  0  0  0  0  0  0  0  0  0  0
    8.2280   -2.4067   24.5996 C   0  0  0  0  0  0  0  0  0  0  0  0
    9.4189   -3.0223   24.1730 C   0  0  0  0  0  0  0  0  0  0  0  0
    9.9876   -2.5650   23.3694 H   0  0  0  0  0  0  0  0  0  0  0  0
    9.8393   -4.2083   24.7768 C   0  0  0  0  0  0  0  0  0  0  0  0
   10.7687   -4.6871   24.4798 H   0  0  0  0  0  0  0  0  0  0  0  0
    9.1003   -4.7741   25.8128 C   0  0  0  0  0  0  0  0  0  0  0  0
    9.4141   -5.6678   26.3302 H   0  0  0  0  0  0  0  0  0  0  0  0
    7.9176   -4.1565   26.2399 C   0  0  0  0  0  0  0  0  0  0  0  0
    7.1646   -4.7111   27.2901 N   0  0  0  0  0  0  0  0  0  0  0  0
    6.1955   -4.4547   27.3323 H   0  0  0  0  0  0  0  0  0  0  0  0
    7.6481   -5.5242   28.2800 C   0  0  0  0  0  0  0  0  0  0  0  0
    8.8201   -5.8132   28.3841 O   0  0  0  0  0  0  0  0  0  0  0  0
    6.6183   -5.9920   29.2777 C   0  0  0  0  0  0  0  0  0  0  0  0
    7.1227   -6.7054   29.9319 H   0  0  0  0  0  0  0  0  0  0  0  0
    5.7714   -6.4832   28.7874 H   0  0  0  0  0  0  0  0  0  0  0  0
    6.2629   -5.1374   29.8677 H   0  0  0  0  0  0  0  0  0  0  0  0
    7.4554   -3.0031   25.6069 C   0  0  0  0  0  0  0  0  0  0  0  0
    6.5305   -2.5101   25.8980 H   0  0  0  0  0  0  0  0  0  0  0  0
    8.6511   -0.0422   23.8946 C   0  0  0  0  0  0  0  0  0  0  0  0
    8.3774    0.7290   24.6347 H   0  0  0  0  0  0  0  0  0  0  0  0
    9.6665   -0.3445   24.1713 H   0  0  0  0  0  0  0  0  0  0  0  0
    8.6830    0.6390   22.5130 C   0  0  0  0  0  0  0  0  0  0  0  0
    7.8075    1.2898   22.4102 H   0  0  0  0  0  0  0  0  0  0  0  0
    9.5641    1.2953   22.4974 H   0  0  0  0  0  0  0  0  0  0  0  0
    8.7121   -0.2894   21.2850 C   0  0  0  0  0  0  0  0  0  0  0  0
    9.1718    0.2437   20.4467 H   0  0  0  0  0  0  0  0  0  0  0  0
    9.3623   -1.1552   21.4786 H   0  0  0  0  0  0  0  0  0  0  0  0
    5.4580    0.6128   20.1073 C   0  0  0  0  0  0  0  0  0  0  0  0
    5.0449    0.5908   21.1138 H   0  0  0  0  0  0  0  0  0  0  0  0
    4.8111    1.3087   19.0765 C   0  0  0  0  0  0  0  0  0  0  0  0
    3.8757    1.8296   19.2482 H   0  0  0  0  0  0  0  0  0  0  0  0
  1  2  1  0
  2  3  2  0
  3  4  1  0
  4  5  1  0
  4  6  2  0
  6  7  1  0
  7  8  1  0
  8  9  1  0
  8 10  1  0
  8 11  1  0
 11 12  1  0
 11 13  1  0
 11 14  1  0
 14 15  1  0
 15 16  2  0
 16 17  1  0
 16 18  1  0
 18 19  1  0
 18 20  2  0
 20 21  1  0
 20 22  1  0
 22 23  1  0
 23 24  1  0
 23 25  1  0
 25 26  2  0
 25 27  1  0
 27 28  1  0
 27 29  1  0
 27 30  1  0
 22 31  2  0
 31 32  1  0
 14 33  1  0
 33 34  1  0
 33 35  1  0
 33 36  1  0
 36 37  1  0
 36 38  1  0
 36 39  1  0
 39 40  1  0
 39 41  1  0
  6 42  1  0
 42 43  1  0
 42 44  2  0
 44 45  1  0
 44  2  1  0
 39  7  1  0
 31 15  1  0
M  END
>  <cnnaffinity>  (1) 
-5.45373

>  <filename>  (1) 
CC(=O)Nc1cccc(N2CCCN(c3cccnc3)CC2)c1

$$$$
