
     RDKit          3D

 33 34  0  0  0  0  0  0  0  0999 V2000
    5.7238   -1.8408   21.5075 H   0  0  0  0  0  0  0  0  0  0  0  0
    6.7541   -1.5791   21.7778 C   0  0  0  0  0  0  0  0  0  0  0  0
    7.4382   -0.7445   20.9694 C   0  0  0  0  0  0  0  0  0  0  0  0
    6.6830   -0.0357   19.8875 C   0  0  0  0  0  0  0  0  0  0  0  0
    7.1931    0.0570   18.5755 C   0  0  0  0  0  0  0  0  0  0  0  0
    8.1396   -0.4256   18.3440 H   0  0  0  0  0  0  0  0  0  0  0  0
    6.5975    0.6913   17.5591 N   0  0  0  0  0  0  0  0  0  0  0  0
    5.4333    1.3022   17.8258 C   0  0  0  0  0  0  0  0  0  0  0  0
    4.9664    1.8283   16.9944 H   0  0  0  0  0  0  0  0  0  0  0  0
    4.8261    1.2780   19.0881 C   0  0  0  0  0  0  0  0  0  0  0  0
    3.8868    1.7972   19.2358 H   0  0  0  0  0  0  0  0  0  0  0  0
    5.4495    0.5938   20.1332 C   0  0  0  0  0  0  0  0  0  0  0  0
    5.0126    0.5674   21.1339 H   0  0  0  0  0  0  0  0  0  0  0  0
    8.9381   -0.5134   21.0447 C   0  0  0  0  0  0  0  0  0  0  0  0
    9.5029   -1.3567   20.6225 H   0  0  0  0  0  0  0  0  0  0  0  0
    9.2727   -0.4010   22.0832 H   0  0  0  0  0  0  0  0  0  0  0  0
    9.2133    0.3898   20.4893 H   0  0  0  0  0  0  0  0  0  0  0  0
    7.2787   -2.2741   22.8954 N   0  0  0  0  0  0  0  0  0  0  0  0
    7.4850   -3.6597   22.8233 C   0  0  0  0  0  0  0  0  0  0  0  0
    7.5893   -4.2986   21.5673 C   0  0  0  0  0  0  0  0  0  0  0  0
    7.4380   -3.6968   20.6774 H   0  0  0  0  0  0  0  0  0  0  0  0
    7.8833   -5.6604   21.4696 C   0  0  0  0  0  0  0  0  0  0  0  0
    7.9765   -6.0949   20.4736 H   0  0  0  0  0  0  0  0  0  0  0  0
    8.0534   -6.4356   22.6245 C   0  0  0  0  0  0  0  0  0  0  0  0
    8.2693   -7.5047   22.5650 H   0  0  0  0  0  0  0  0  0  0  0  0
    7.9423   -5.8203   23.8768 C   0  0  0  0  0  0  0  0  0  0  0  0
    8.0924   -6.3897   24.7955 H   0  0  0  0  0  0  0  0  0  0  0  0
    7.6630   -4.4525   23.9801 C   0  0  0  0  0  0  0  0  0  0  0  0
    7.5953   -3.9959   24.9613 H   0  0  0  0  0  0  0  0  0  0  0  0
    7.4910   -1.5830   24.1610 C   0  0  0  0  0  0  0  0  0  0  0  0
    8.4496   -1.8988   24.5928 H   0  0  0  0  0  0  0  0  0  0  0  0
    6.6973   -1.8065   24.8933 H   0  0  0  0  0  0  0  0  0  0  0  0
    7.5195   -0.5017   23.9997 H   0  0  0  0  0  0  0  0  0  0  0  0
  1  2  1  0
  2  3  2  3
  3  4  1  0
  4  5  2  0
  5  6  1  0
  5  7  1  0
  7  8  2  0
  8  9  1  0
  8 10  1  0
 10 11  1  0
 10 12  2  0
 12 13  1  0
  3 14  1  0
 14 15  1  0
 14 16  1  0
 14 17  1  0
  2 18  1  0
 18 19  1  0
 19 20  2  0
 20 21  1  0
 20 22  1  0
 22 23  1  0
 22 24  2  0
 24 25  1  0
 24 26  1  0
 26 27  1  0
 26 28  2  0
 28 29  1  0
 18 30  1  0
 30 31  1  0
 30 32  1  0
 30 33  1  0
 12  4  1  0
 28 19  1  0
M  END
>  <cnnaffinity>  (1) 
-4.39977

>  <filename>  (1) 
CC(=CN(C)c1ccccc1)c1cccnc1

$$$$
