
     RDKit          3D

 42 45  0  0  0  0  0  0  0  0999 V2000
    4.9947    1.8681   16.9173 H   0  0  0  0  0  0  0  0  0  0  0  0
    5.4285    1.3078   17.7415 C   0  0  0  0  0  0  0  0  0  0  0  0
    6.5717    0.6559   17.4824 N   0  0  0  0  0  0  0  0  0  0  0  0
    7.1469    0.0001   18.5008 C   0  0  0  0  0  0  0  0  0  0  0  0
    8.0692   -0.5237   18.2496 H   0  0  0  0  0  0  0  0  0  0  0  0
    6.6436   -0.0544   19.8178 C   0  0  0  0  0  0  0  0  0  0  0  0
    7.3704   -0.7975   20.9401 C   0  0  1  0  0  0  0  0  0  0  0  0
    7.0156   -1.8407   20.9243 H   0  0  0  0  0  0  0  0  0  0  0  0
    8.9390   -0.8476   20.8110 C   0  0  0  0  0  0  0  0  0  0  0  0
    9.2809   -1.7939   20.3779 H   0  0  0  0  0  0  0  0  0  0  0  0
    9.3344   -0.0275   20.1967 H   0  0  0  0  0  0  0  0  0  0  0  0
    9.3998   -0.6756   22.2297 C   0  0  0  0  0  0  0  0  0  0  0  0
   10.5688   -0.7795   22.8298 N   0  0  0  0  0  0  0  0  0  0  0  0
   10.2746   -0.5010   24.1218 N   0  0  0  0  0  0  0  0  0  0  0  0
   11.0272   -0.4572   24.7918 H   0  0  0  0  0  0  0  0  0  0  0  0
    8.9578   -0.2080   24.3530 C   0  0  0  0  0  0  0  0  0  0  0  0
    8.3905    0.1425   25.6715 C   0  0  0  0  0  0  0  0  0  0  0  0
    7.1322    0.7825   25.7273 C   0  0  0  0  0  0  0  0  0  0  0  0
    6.5894    0.9877   24.8062 H   0  0  0  0  0  0  0  0  0  0  0  0
    6.5774    1.1696   26.9453 C   0  0  0  0  0  0  0  0  0  0  0  0
    5.6229    1.6882   26.9610 H   0  0  0  0  0  0  0  0  0  0  0  0
    7.2620    0.9121   28.1433 C   0  0  0  0  0  0  0  0  0  0  0  0
    6.7150    1.3867   29.3498 N   0  0  0  0  0  0  0  0  0  0  0  0
    6.0673    2.1438   29.2365 H   0  0  0  0  0  0  0  0  0  0  0  0
    7.1492    1.1843   30.6415 C   0  0  0  0  0  0  0  0  0  0  0  0
    8.0114    0.3953   30.9622 O   0  0  0  0  0  0  0  0  0  0  0  0
    6.4303    2.0577   31.6550 C   0  0  0  0  0  0  0  0  0  0  0  0
    5.3746    1.7786   31.7247 H   0  0  0  0  0  0  0  0  0  0  0  0
    6.4924    3.1155   31.3805 H   0  0  0  0  0  0  0  0  0  0  0  0
    6.8891    1.9157   32.6350 H   0  0  0  0  0  0  0  0  0  0  0  0
    8.4853    0.2310   28.1075 C   0  0  0  0  0  0  0  0  0  0  0  0
    8.9898    0.0549   29.0465 H   0  0  0  0  0  0  0  0  0  0  0  0
    9.0443   -0.1425   26.8894 C   0  0  0  0  0  0  0  0  0  0  0  0
   10.0053   -0.6576   26.8972 H   0  0  0  0  0  0  0  0  0  0  0  0
    8.3724   -0.3257   23.1011 C   0  0  0  0  0  0  0  0  0  0  0  0
    7.0620   -0.2284   22.3787 C   0  0  0  0  0  0  0  0  0  0  0  0
    6.7184    0.8183   22.3093 H   0  0  0  0  0  0  0  0  0  0  0  0
    6.2692   -0.8118   22.8661 H   0  0  0  0  0  0  0  0  0  0  0  0
    5.4140    0.5986   20.0352 C   0  0  0  0  0  0  0  0  0  0  0  0
    4.9339    0.5663   21.0155 H   0  0  0  0  0  0  0  0  0  0  0  0
    4.8052    1.2958   18.9914 C   0  0  0  0  0  0  0  0  0  0  0  0
    3.8848    1.8520   19.1471 H   0  0  0  0  0  0  0  0  0  0  0  0
  1  2  1  0
  2  3  2  0
  3  4  1  0
  4  5  1  0
  4  6  2  0
  6  7  1  0
  7  8  1  1
  7  9  1  0
  9 10  1  0
  9 11  1  0
  9 12  1  0
 12 13  2  0
 13 14  1  0
 14 15  1  0
 14 16  1  0
 16 17  1  0
 17 18  2  0
 18 19  1  0
 18 20  1  0
 20 21  1  0
 20 22  2  0
 22 23  1  0
 23 24  1  0
 23 25  1  0
 25 26  2  0
 25 27  1  0
 27 28  1  0
 27 29  1  0
 27 30  1  0
 22 31  1  0
 31 32  1  0
 31 33  2  0
 33 34  1  0
 16 35  2  0
 35 36  1  0
 36 37  1  0
 36 38  1  0
  6 39  1  0
 39 40  1  0
 39 41  2  0
 41 42  1  0
 41  2  1  0
 36  7  1  0
 35 12  1  0
 33 17  1  0
M  END
>  <cnnaffinity>  (1) 
-5.0587

>  <filename>  (1) 
CC(=O)Nc1ccc(-c2[nH]nc3c2C[C@@H](c2cccnc2)C3)cc1

$$$$
