
     RDKit          3D

 34 36  0  0  0  0  0  0  0  0999 V2000
    4.9401    1.8077   16.9662 H   0  0  0  0  0  0  0  0  0  0  0  0
    5.4080    1.3059   17.8084 C   0  0  0  0  0  0  0  0  0  0  0  0
    6.5688    0.6817   17.5531 N   0  0  0  0  0  0  0  0  0  0  0  0
    7.1746    0.0640   18.5762 C   0  0  0  0  0  0  0  0  0  0  0  0
    8.1103   -0.4316   18.3210 H   0  0  0  0  0  0  0  0  0  0  0  0
    6.6663    0.0169   19.8879 C   0  0  0  0  0  0  0  0  0  0  0  0
    7.3488   -0.7027   20.9740 C   0  0  0  0  0  0  0  0  0  0  0  0
    6.8283   -1.2425   22.0987 C   0  0  0  0  0  0  0  0  0  0  0  0
    5.8123   -1.3701   22.4067 H   0  0  0  0  0  0  0  0  0  0  0  0
    7.8461   -1.8081   22.8583 N   0  0  0  0  0  0  0  0  0  0  0  0
    7.6944   -2.4585   24.1146 C   0  0  0  0  0  0  0  0  0  0  0  0
    8.4790   -3.5732   24.4303 C   0  0  0  0  0  0  0  0  0  0  0  0
    9.2236   -3.9032   23.7202 H   0  0  0  0  0  0  0  0  0  0  0  0
    8.2924   -4.2397   25.6406 C   0  0  0  0  0  0  0  0  0  0  0  0
    8.9277   -5.0966   25.8716 H   0  0  0  0  0  0  0  0  0  0  0  0
    7.3129   -3.8105   26.5564 C   0  0  0  0  0  0  0  0  0  0  0  0
    7.0173   -4.5787   27.8157 C   0  0  0  0  0  0  0  0  0  0  0  0
    6.0030   -4.3631   28.4547 O   0  0  0  0  0  0  0  0  0  0  0  0
    7.9795   -5.6592   28.2662 C   0  0  0  0  0  0  0  0  0  0  0  0
    7.7133   -5.9681   29.2778 H   0  0  0  0  0  0  0  0  0  0  0  0
    7.8892   -6.5222   27.5974 H   0  0  0  0  0  0  0  0  0  0  0  0
    9.0192   -5.3200   28.2413 H   0  0  0  0  0  0  0  0  0  0  0  0
    6.5450   -2.6660   26.2446 C   0  0  0  0  0  0  0  0  0  0  0  0
    5.7987   -2.3023   26.9540 H   0  0  0  0  0  0  0  0  0  0  0  0
    6.7335   -2.0046   25.0326 C   0  0  0  0  0  0  0  0  0  0  0  0
    6.1271   -1.1422   24.7765 H   0  0  0  0  0  0  0  0  0  0  0  0
    9.0542   -1.6504   22.1790 C   0  0  0  0  0  0  0  0  0  0  0  0
   10.1762   -1.9981   22.4901 O   0  0  0  0  0  0  0  0  0  0  0  0
    8.7096   -0.9966   21.0204 N   0  0  0  0  0  0  0  0  0  0  0  0
    9.4779   -0.6869   20.4552 H   0  0  0  0  0  0  0  0  0  0  0  0
    5.4396    0.6711   20.1227 C   0  0  0  0  0  0  0  0  0  0  0  0
    5.0018    0.6825   21.1238 H   0  0  0  0  0  0  0  0  0  0  0  0
    4.8040    1.3249   19.0688 C   0  0  0  0  0  0  0  0  0  0  0  0
    3.8662    1.8516   19.2098 H   0  0  0  0  0  0  0  0  0  0  0  0
  1  2  1  0
  2  3  2  0
  3  4  1  0
  4  5  1  0
  4  6  2  0
  6  7  1  0
  7  8  2  0
  8  9  1  0
  8 10  1  0
 10 11  1  0
 11 12  2  0
 12 13  1  0
 12 14  1  0
 14 15  1  0
 14 16  2  0
 16 17  1  0
 17 18  2  0
 17 19  1  0
 19 20  1  0
 19 21  1  0
 19 22  1  0
 16 23  1  0
 23 24  1  0
 23 25  2  0
 25 26  1  0
 10 27  1  0
 27 28  2  0
 27 29  1  0
 29 30  1  0
  6 31  1  0
 31 32  1  0
 31 33  2  0
 33 34  1  0
 33  2  1  0
 29  7  1  0
 25 11  1  0
M  END
>  <cnnaffinity>  (1) 
-5.35082

>  <filename>  (1) 
CC(=O)c1ccc(-n2cc(-c3cccnc3)[nH]c2=O)cc1

$$$$
