
     RDKit          3D

 28 29  0  0  0  0  0  0  0  0999 V2000
    4.9229    1.8019   16.9820 H   0  0  0  0  0  0  0  0  0  0  0  0
    5.3879    1.2997   17.8297 C   0  0  0  0  0  0  0  0  0  0  0  0
    6.5430    0.6685   17.5679 N   0  0  0  0  0  0  0  0  0  0  0  0
    7.1523    0.0426   18.5797 C   0  0  0  0  0  0  0  0  0  0  0  0
    8.1140   -0.4149   18.3646 H   0  0  0  0  0  0  0  0  0  0  0  0
    6.6361   -0.0160   19.8870 C   0  0  0  0  0  0  0  0  0  0  0  0
    7.3469   -0.6866   20.9415 N   0  0  0  0  0  0  0  0  0  0  0  0
    6.7180   -1.7370   21.5781 C   0  0  0  0  0  0  0  0  0  0  0  0
    5.7171   -1.9850   21.2502 H   0  0  0  0  0  0  0  0  0  0  0  0
    7.3214   -2.4555   22.5710 C   0  0  0  0  0  0  0  0  0  0  0  0
    6.6654   -3.5505   23.1846 N   0  0  0  0  0  0  0  0  0  0  0  0
    6.8790   -3.7483   24.1478 H   0  0  0  0  0  0  0  0  0  0  0  0
    5.7999   -4.4216   22.5635 C   0  0  0  0  0  0  0  0  0  0  0  0
    5.6339   -4.4347   21.3561 O   0  0  0  0  0  0  0  0  0  0  0  0
    5.0576   -5.3707   23.4868 C   0  0  0  0  0  0  0  0  0  0  0  0
    5.6617   -6.2509   23.7300 H   0  0  0  0  0  0  0  0  0  0  0  0
    4.1955   -5.7138   22.9170 H   0  0  0  0  0  0  0  0  0  0  0  0
    4.7143   -4.9149   24.4235 H   0  0  0  0  0  0  0  0  0  0  0  0
    8.6343   -2.0734   22.9951 C   0  0  0  0  0  0  0  0  0  0  0  0
    9.1177   -2.6389   23.7949 H   0  0  0  0  0  0  0  0  0  0  0  0
    9.2721   -1.0342   22.3846 C   0  0  0  0  0  0  0  0  0  0  0  0
   10.2675   -0.7005   22.6384 H   0  0  0  0  0  0  0  0  0  0  0  0
    8.6761   -0.2586   21.3023 C   0  0  0  0  0  0  0  0  0  0  0  0
    9.2351    0.6633   20.7333 O   0  0  0  0  0  0  0  0  0  0  0  0
    5.4252    0.6311   20.1489 C   0  0  0  0  0  0  0  0  0  0  0  0
    5.0322    0.6196   21.1674 H   0  0  0  0  0  0  0  0  0  0  0  0
    4.7986    1.3142   19.0995 C   0  0  0  0  0  0  0  0  0  0  0  0
    3.8710    1.8509   19.2489 H   0  0  0  0  0  0  0  0  0  0  0  0
  1  2  1  0
  2  3  2  0
  3  4  1  0
  4  5  1  0
  4  6  2  0
  6  7  1  0
  7  8  1  0
  8  9  1  0
  8 10  2  0
 10 11  1  0
 11 12  1  0
 11 13  1  0
 13 14  2  0
 13 15  1  0
 15 16  1  0
 15 17  1  0
 15 18  1  0
 10 19  1  0
 19 20  1  0
 19 21  2  0
 21 22  1  0
 21 23  1  0
 23 24  2  0
  6 25  1  0
 25 26  1  0
 25 27  2  0
 27 28  1  0
 27  2  1  0
 23  7  1  0
M  END
>  <cnnaffinity>  (1) 
-5.23113

>  <filename>  (1) 
CC(=O)Nc1ccc(=O)n(-c2cccnc2)c1

$$$$
