
     RDKit          3D

 39 40  0  0  0  0  0  0  0  0999 V2000
    4.9908    1.8263   16.9619 H   0  0  0  0  0  0  0  0  0  0  0  0
    5.4558    1.3069   17.7971 C   0  0  0  0  0  0  0  0  0  0  0  0
    6.6276    0.6997   17.5427 N   0  0  0  0  0  0  0  0  0  0  0  0
    7.2300    0.0548   18.5510 C   0  0  0  0  0  0  0  0  0  0  0  0
    8.1830   -0.4254   18.3272 H   0  0  0  0  0  0  0  0  0  0  0  0
    6.6872   -0.0524   19.8502 C   0  0  0  0  0  0  0  0  0  0  0  0
    7.3835   -0.7525   20.8898 N   0  0  0  0  0  0  0  0  0  0  0  0
    8.1984   -0.2885   21.2584 H   0  0  0  0  0  0  0  0  0  0  0  0
    6.7605   -1.5715   21.8192 C   0  0  0  0  0  0  0  0  0  0  0  0
    5.7023   -2.1199   21.5718 O   0  0  0  0  0  0  0  0  0  0  0  0
    7.5664   -1.8633   23.1409 C   0  0  0  0  0  0  0  0  0  0  0  0
    8.3880   -0.6454   23.6028 C   0  0  0  0  0  0  0  0  0  0  0  0
    7.7550    0.6071   23.7311 C   0  0  0  0  0  0  0  0  0  0  0  0
    6.6832    0.7040   23.5725 H   0  0  0  0  0  0  0  0  0  0  0  0
    8.4810    1.7534   24.0562 C   0  0  0  0  0  0  0  0  0  0  0  0
    7.9536    2.6967   24.1586 H   0  0  0  0  0  0  0  0  0  0  0  0
    9.8746    1.6969   24.2407 C   0  0  0  0  0  0  0  0  0  0  0  0
   10.7192    2.9461   24.3927 C   0  0  0  0  0  0  0  0  0  0  0  0
   11.9235    2.9216   24.2112 O   0  0  0  0  0  0  0  0  0  0  0  0
   10.0278    4.2523   24.7499 C   0  0  0  0  0  0  0  0  0  0  0  0
   10.7726    4.9945   25.0533 H   0  0  0  0  0  0  0  0  0  0  0  0
    9.4783    4.6198   23.8738 H   0  0  0  0  0  0  0  0  0  0  0  0
    9.3076    4.1108   25.5617 H   0  0  0  0  0  0  0  0  0  0  0  0
   10.4786    0.4251   24.2547 C   0  0  0  0  0  0  0  0  0  0  0  0
   11.5324    0.3426   24.4991 H   0  0  0  0  0  0  0  0  0  0  0  0
    9.7488   -0.7226   23.9475 C   0  0  0  0  0  0  0  0  0  0  0  0
   10.2595   -1.6818   23.9790 H   0  0  0  0  0  0  0  0  0  0  0  0
    6.5949   -2.2159   24.2947 C   0  0  0  0  0  0  0  0  0  0  0  0
    5.9610   -1.3632   24.5686 H   0  0  0  0  0  0  0  0  0  0  0  0
    7.1682   -2.4940   25.1862 H   0  0  0  0  0  0  0  0  0  0  0  0
    5.9470   -3.0523   24.0201 H   0  0  0  0  0  0  0  0  0  0  0  0
    8.4374   -3.1103   22.8189 C   0  0  0  0  0  0  0  0  0  0  0  0
    7.8044   -3.9329   22.4687 H   0  0  0  0  0  0  0  0  0  0  0  0
    8.9624   -3.4615   23.7141 H   0  0  0  0  0  0  0  0  0  0  0  0
    9.1895   -2.8982   22.0475 H   0  0  0  0  0  0  0  0  0  0  0  0
    5.4673    0.5883   20.0971 C   0  0  0  0  0  0  0  0  0  0  0  0
    5.0244    0.5290   21.0890 H   0  0  0  0  0  0  0  0  0  0  0  0
    4.8454    1.2808   19.0527 C   0  0  0  0  0  0  0  0  0  0  0  0
    3.9128    1.8075   19.2089 H   0  0  0  0  0  0  0  0  0  0  0  0
  1  2  1  0
  2  3  2  0
  3  4  1  0
  4  5  1  0
  4  6  2  0
  6  7  1  0
  7  8  1  0
  7  9  1  0
  9 10  2  0
  9 11  1  0
 11 12  1  0
 12 13  2  0
 13 14  1  0
 13 15  1  0
 15 16  1  0
 15 17  2  0
 17 18  1  0
 18 19  2  0
 18 20  1  0
 20 21  1  0
 20 22  1  0
 20 23  1  0
 17 24  1  0
 24 25  1  0
 24 26  2  0
 26 27  1  0
 11 28  1  0
 28 29  1  0
 28 30  1  0
 28 31  1  0
 11 32  1  0
 32 33  1  0
 32 34  1  0
 32 35  1  0
  6 36  1  0
 36 37  1  0
 36 38  2  0
 38 39  1  0
 38  2  1  0
 26 12  1  0
M  END
>  <cnnaffinity>  (1) 
-5.16421

>  <filename>  (1) 
CC(=O)c1ccc(C(C)(C)C(=O)Nc2cccnc2)cc1

$$$$
