
     RDKit          3D

 41 42  0  0  0  0  0  0  0  0999 V2000
    4.9740    1.8222   16.9503 H   0  0  0  0  0  0  0  0  0  0  0  0
    5.4484    1.3126   17.7874 C   0  0  0  0  0  0  0  0  0  0  0  0
    6.6189    0.7082   17.5257 N   0  0  0  0  0  0  0  0  0  0  0  0
    7.2275    0.0676   18.5348 C   0  0  0  0  0  0  0  0  0  0  0  0
    8.1763   -0.4083   18.3011 H   0  0  0  0  0  0  0  0  0  0  0  0
    6.7038   -0.0217   19.8462 C   0  0  0  0  0  0  0  0  0  0  0  0
    7.3992   -0.6897   20.9009 N   0  0  0  0  0  0  0  0  0  0  0  0
    8.2627   -0.2683   21.2120 H   0  0  0  0  0  0  0  0  0  0  0  0
    6.8020   -1.4891   21.8567 C   0  0  0  0  0  0  0  0  0  0  0  0
    5.7811   -2.1075   21.6211 O   0  0  0  0  0  0  0  0  0  0  0  0
    7.6013   -1.7014   23.1856 C   0  0  0  0  0  0  0  0  0  0  0  0
    8.4233   -0.4601   23.6143 C   0  0  0  0  0  0  0  0  0  0  0  0
    9.7792   -0.5647   23.9705 C   0  0  0  0  0  0  0  0  0  0  0  0
   10.2884   -1.5198   23.9143 H   0  0  0  0  0  0  0  0  0  0  0  0
   10.4998    0.5460   24.4169 C   0  0  0  0  0  0  0  0  0  0  0  0
   11.5475    0.4426   24.6853 H   0  0  0  0  0  0  0  0  0  0  0  0
    9.8820    1.7854   24.5496 C   0  0  0  0  0  0  0  0  0  0  0  0
   10.4169    2.6543   24.9098 H   0  0  0  0  0  0  0  0  0  0  0  0
    8.5277    1.9087   24.2274 C   0  0  0  0  0  0  0  0  0  0  0  0
    7.8837    3.1554   24.3549 N   0  0  0  0  0  0  0  0  0  0  0  0
    7.1762    3.3715   23.6765 H   0  0  0  0  0  0  0  0  0  0  0  0
    8.2137    4.1543   25.2347 C   0  0  0  0  0  0  0  0  0  0  0  0
    9.0051    4.0147   26.1419 O   0  0  0  0  0  0  0  0  0  0  0  0
    7.4682    5.4416   24.9724 C   0  0  0  0  0  0  0  0  0  0  0  0
    7.4209    5.6628   23.9031 H   0  0  0  0  0  0  0  0  0  0  0  0
    6.4527    5.3574   25.3656 H   0  0  0  0  0  0  0  0  0  0  0  0
    7.9669    6.2591   25.4887 H   0  0  0  0  0  0  0  0  0  0  0  0
    7.8071    0.7997   23.7551 C   0  0  0  0  0  0  0  0  0  0  0  0
    6.7544    0.9281   23.5221 H   0  0  0  0  0  0  0  0  0  0  0  0
    8.4775   -2.9518   22.9002 C   0  0  0  0  0  0  0  0  0  0  0  0
    7.8457   -3.7785   22.5611 H   0  0  0  0  0  0  0  0  0  0  0  0
    9.2264   -2.7530   22.1245 H   0  0  0  0  0  0  0  0  0  0  0  0
    8.9927   -3.2874   23.8069 H   0  0  0  0  0  0  0  0  0  0  0  0
    6.6378   -2.0554   24.3425 C   0  0  0  0  0  0  0  0  0  0  0  0
    6.0174   -2.9138   24.0737 H   0  0  0  0  0  0  0  0  0  0  0  0
    7.2163   -2.3089   25.2381 H   0  0  0  0  0  0  0  0  0  0  0  0
    5.9733   -1.2207   24.5939 H   0  0  0  0  0  0  0  0  0  0  0  0
    5.4702    0.5948   20.0914 C   0  0  0  0  0  0  0  0  0  0  0  0
    5.0283    0.5306   21.0869 H   0  0  0  0  0  0  0  0  0  0  0  0
    4.8419    1.2861   19.0480 C   0  0  0  0  0  0  0  0  0  0  0  0
    3.9036    1.8068   19.2014 H   0  0  0  0  0  0  0  0  0  0  0  0
  1  2  1  0
  2  3  2  0
  3  4  1  0
  4  5  1  0
  4  6  2  0
  6  7  1  0
  7  8  1  0
  7  9  1  0
  9 10  2  0
  9 11  1  0
 11 12  1  0
 12 13  2  0
 13 14  1  0
 13 15  1  0
 15 16  1  0
 15 17  2  0
 17 18  1  0
 17 19  1  0
 19 20  1  0
 20 21  1  0
 20 22  1  0
 22 23  2  0
 22 24  1  0
 24 25  1  0
 24 26  1  0
 24 27  1  0
 19 28  2  0
 28 29  1  0
 11 30  1  0
 30 31  1  0
 30 32  1  0
 30 33  1  0
 11 34  1  0
 34 35  1  0
 34 36  1  0
 34 37  1  0
  6 38  1  0
 38 39  1  0
 38 40  2  0
 40 41  1  0
 40  2  1  0
 28 12  1  0
M  END
>  <cnnaffinity>  (1) 
-5.4572

>  <filename>  (1) 
CC(=O)Nc1cccc(C(C)(C)C(=O)Nc2cccnc2)c1

$$$$
