
     RDKit          3D

 32 33  0  0  0  0  0  0  0  0999 V2000
    4.9809    1.7924   16.9747 H   0  0  0  0  0  0  0  0  0  0  0  0
    5.4309    1.2847   17.8238 C   0  0  0  0  0  0  0  0  0  0  0  0
    6.5895    0.6496   17.5914 N   0  0  0  0  0  0  0  0  0  0  0  0
    7.1775    0.0501   18.6288 C   0  0  0  0  0  0  0  0  0  0  0  0
    8.1284   -0.4491   18.4284 H   0  0  0  0  0  0  0  0  0  0  0  0
    6.6439    0.0284   19.9169 C   0  0  0  0  0  0  0  0  0  0  0  0
    7.3662   -0.6971   20.9760 C   0  0  0  0  0  0  0  0  0  0  0  0
    6.6597   -1.2177   21.8985 N   0  0  0  0  0  0  0  0  0  0  0  0
    7.1652   -2.0270   22.9192 C   0  0  0  0  0  0  0  0  0  0  0  0
    7.9956   -3.1361   22.7099 C   0  0  0  0  0  0  0  0  0  0  0  0
    8.3083   -3.3749   21.6987 H   0  0  0  0  0  0  0  0  0  0  0  0
    8.3903   -3.9037   23.8106 C   0  0  0  0  0  0  0  0  0  0  0  0
    9.0315   -4.7633   23.6592 H   0  0  0  0  0  0  0  0  0  0  0  0
    7.9479   -3.5878   25.0920 C   0  0  0  0  0  0  0  0  0  0  0  0
    8.2431   -4.1994   25.9413 H   0  0  0  0  0  0  0  0  0  0  0  0
    7.0740   -2.5005   25.3074 C   0  0  0  0  0  0  0  0  0  0  0  0
    6.5077   -2.3064   26.6965 C   0  0  0  0  0  0  0  0  0  0  0  0
    6.6575   -3.1736   27.5336 O   0  0  0  0  0  0  0  0  0  0  0  0
    5.6988   -1.0789   27.0382 C   0  0  0  0  0  0  0  0  0  0  0  0
    6.1949   -0.1531   26.7290 H   0  0  0  0  0  0  0  0  0  0  0  0
    5.5343   -1.0879   28.1206 H   0  0  0  0  0  0  0  0  0  0  0  0
    4.7360   -1.1608   26.5191 H   0  0  0  0  0  0  0  0  0  0  0  0
    6.7038   -1.7205   24.2062 C   0  0  0  0  0  0  0  0  0  0  0  0
    6.0379   -0.8622   24.2624 H   0  0  0  0  0  0  0  0  0  0  0  0
    8.8756   -0.7775   20.9236 C   0  0  0  0  0  0  0  0  0  0  0  0
    9.3079    0.1020   20.4437 H   0  0  0  0  0  0  0  0  0  0  0  0
    9.2852   -0.8449   21.9345 H   0  0  0  0  0  0  0  0  0  0  0  0
    9.1764   -1.6765   20.3771 H   0  0  0  0  0  0  0  0  0  0  0  0
    5.4076    0.6685   20.1403 C   0  0  0  0  0  0  0  0  0  0  0  0
    4.9604    0.6408   21.1344 H   0  0  0  0  0  0  0  0  0  0  0  0
    4.8002    1.3176   19.0742 C   0  0  0  0  0  0  0  0  0  0  0  0
    3.8646    1.8573   19.2010 H   0  0  0  0  0  0  0  0  0  0  0  0
  1  2  1  0
  2  3  2  0
  3  4  1  0
  4  5  1  0
  4  6  2  0
  6  7  1  0
  7  8  2  3
  8  9  1  0
  9 10  2  0
 10 11  1  0
 10 12  1  0
 12 13  1  0
 12 14  2  0
 14 15  1  0
 14 16  1  0
 16 17  1  0
 17 18  2  0
 17 19  1  0
 19 20  1  0
 19 21  1  0
 19 22  1  0
 16 23  2  0
 23 24  1  0
  7 25  1  0
 25 26  1  0
 25 27  1  0
 25 28  1  0
  6 29  1  0
 29 30  1  0
 29 31  2  0
 31 32  1  0
 31  2  1  0
 23  9  1  0
M  END
>  <cnnaffinity>  (1) 
-4.69267

>  <filename>  (1) 
CC(=O)c1cccc(N=C(C)c2cccnc2)c1

$$$$
