
     RDKit          3D

 36 38  0  0  0  0  0  0  0  0999 V2000
    5.0175    1.7895   16.9570 H   0  0  0  0  0  0  0  0  0  0  0  0
    5.4668    1.2788   17.8072 C   0  0  0  0  0  0  0  0  0  0  0  0
    6.6244    0.6454   17.5724 N   0  0  0  0  0  0  0  0  0  0  0  0
    7.2047    0.0210   18.6053 C   0  0  0  0  0  0  0  0  0  0  0  0
    8.1379   -0.4960   18.3958 H   0  0  0  0  0  0  0  0  0  0  0  0
    6.6641    0.0066   19.8995 C   0  0  0  0  0  0  0  0  0  0  0  0
    7.3652   -0.6854   20.9859 C   0  0  0  0  0  0  0  0  0  0  0  0
    8.4572   -1.3719   20.7482 N   0  0  0  0  0  0  0  0  0  0  0  0
    8.8121   -1.9208   21.9848 O   0  0  0  0  0  0  0  0  0  0  0  0
    7.9166   -1.5361   22.9074 C   0  0  0  0  0  0  0  0  0  0  0  0
    8.0541   -1.9775   24.1875 N   0  0  0  0  0  0  0  0  0  0  0  0
    9.2999   -2.6451   24.5790 C   0  0  0  0  0  0  0  0  0  0  0  0
   10.1476   -2.0346   24.2399 H   0  0  0  0  0  0  0  0  0  0  0  0
    9.3727   -3.6226   24.0797 H   0  0  0  0  0  0  0  0  0  0  0  0
    9.3840   -2.8333   26.0903 C   0  0  0  0  0  0  0  0  0  0  0  0
   10.2278   -3.4836   26.3205 H   0  0  0  0  0  0  0  0  0  0  0  0
    9.5507   -1.8640   26.5895 H   0  0  0  0  0  0  0  0  0  0  0  0
    8.1777   -3.4716   26.6355 N   0  0  0  0  0  0  0  0  0  0  0  0
    8.3556   -4.4439   27.6011 C   0  0  0  0  0  0  0  0  0  0  0  0
    9.4713   -4.7827   27.9718 O   0  0  0  0  0  0  0  0  0  0  0  0
    7.1275   -5.1165   28.1578 C   0  0  0  0  0  0  0  0  0  0  0  0
    6.7297   -5.7751   27.3830 H   0  0  0  0  0  0  0  0  0  0  0  0
    7.4307   -5.7229   29.0120 H   0  0  0  0  0  0  0  0  0  0  0  0
    6.3354   -4.4301   28.4632 H   0  0  0  0  0  0  0  0  0  0  0  0
    6.8772   -2.9359   26.1633 C   0  0  0  0  0  0  0  0  0  0  0  0
    6.3028   -3.7094   25.6357 H   0  0  0  0  0  0  0  0  0  0  0  0
    6.2660   -2.5997   27.0102 H   0  0  0  0  0  0  0  0  0  0  0  0
    7.0410   -1.7179   25.2141 C   0  0  0  0  0  0  0  0  0  0  0  0
    7.2987   -0.8234   25.8068 H   0  0  0  0  0  0  0  0  0  0  0  0
    6.0753   -1.5112   24.7404 H   0  0  0  0  0  0  0  0  0  0  0  0
    6.9756   -0.7347   22.3493 C   0  0  0  0  0  0  0  0  0  0  0  0
    6.1869   -0.2283   22.8675 H   0  0  0  0  0  0  0  0  0  0  0  0
    5.4433    0.6543   20.1246 C   0  0  0  0  0  0  0  0  0  0  0  0
    4.9860    0.6488   21.1147 H   0  0  0  0  0  0  0  0  0  0  0  0
    4.8341    1.3026   19.0542 C   0  0  0  0  0  0  0  0  0  0  0  0
    3.8966    1.8296   19.1822 H   0  0  0  0  0  0  0  0  0  0  0  0
  1  2  1  0
  2  3  2  0
  3  4  1  0
  4  5  1  0
  4  6  2  0
  6  7  1  0
  7  8  2  0
  8  9  1  0
  9 10  1  0
 10 11  1  0
 11 12  1  0
 12 13  1  0
 12 14  1  0
 12 15  1  0
 15 16  1  0
 15 17  1  0
 15 18  1  0
 18 19  1  0
 19 20  2  0
 19 21  1  0
 21 22  1  0
 21 23  1  0
 21 24  1  0
 18 25  1  0
 25 26  1  0
 25 27  1  0
 25 28  1  0
 28 29  1  0
 28 30  1  0
 10 31  2  0
 31 32  1  0
  6 33  1  0
 33 34  1  0
 33 35  2  0
 35 36  1  0
 35  2  1  0
 31  7  1  0
 28 11  1  0
M  END
>  <cnnaffinity>  (1) 
-4.77235

>  <filename>  (1) 
CC(=O)N1CCN(c2cc(-c3cccnc3)no2)CC1

$$$$
