
     RDKit          3D

 31 32  0  0  0  0  0  0  0  0999 V2000
    5.1239    1.8234   17.0791 H   0  0  0  0  0  0  0  0  0  0  0  0
    5.5346    1.1936   17.8615 C   0  0  0  0  0  0  0  0  0  0  0  0
    6.6512    0.5170   17.5459 N   0  0  0  0  0  0  0  0  0  0  0  0
    7.2056   -0.2302   18.5092 C   0  0  0  0  0  0  0  0  0  0  0  0
    8.1000   -0.7985   18.2550 H   0  0  0  0  0  0  0  0  0  0  0  0
    6.6882   -0.3236   19.8162 C   0  0  0  0  0  0  0  0  0  0  0  0
    7.4113   -1.0044   20.8534 N   0  0  0  0  0  0  0  0  0  0  0  0
    8.5888   -0.5747   21.4583 C   0  0  0  0  0  0  0  0  0  0  0  0
    9.2374    0.7202   21.0845 C   0  0  0  0  0  0  0  0  0  0  0  0
    9.6448    0.6222   20.0733 H   0  0  0  0  0  0  0  0  0  0  0  0
    8.4587    1.4874   21.0169 H   0  0  0  0  0  0  0  0  0  0  0  0
   10.3339    1.1851   22.0358 C   0  0  0  0  0  0  0  0  0  0  0  0
   10.6202    2.2114   21.7772 H   0  0  0  0  0  0  0  0  0  0  0  0
    9.9571    1.2434   23.0662 H   0  0  0  0  0  0  0  0  0  0  0  0
   11.4995    0.3190   21.9315 N   0  0  0  0  0  0  0  0  0  0  0  0
   11.3362   -0.6748   21.8176 H   0  0  0  0  0  0  0  0  0  0  0  0
   12.7163    0.6983   22.4159 C   0  0  0  0  0  0  0  0  0  0  0  0
   12.9410    1.8160   22.8432 O   0  0  0  0  0  0  0  0  0  0  0  0
   13.7942   -0.3618   22.3765 C   0  0  0  0  0  0  0  0  0  0  0  0
   14.4213   -0.1742   21.5029 H   0  0  0  0  0  0  0  0  0  0  0  0
   14.4074   -0.2370   23.2711 H   0  0  0  0  0  0  0  0  0  0  0  0
   13.4196   -1.3872   22.3064 H   0  0  0  0  0  0  0  0  0  0  0  0
    8.9629   -1.3929   22.3957 N   0  0  0  0  0  0  0  0  0  0  0  0
    7.9635   -2.3264   22.4217 N   0  0  0  0  0  0  0  0  0  0  0  0
    7.8935   -3.0374   23.1312 H   0  0  0  0  0  0  0  0  0  0  0  0
    6.9737   -2.1310   21.5294 C   0  0  0  0  0  0  0  0  0  0  0  0
    5.5869   -3.0346   21.3331 S   0  0  0  0  0  0  0  0  0  0  0  0
    5.4875    0.3283   20.1124 C   0  0  0  0  0  0  0  0  0  0  0  0
    5.0432    0.2266   21.1048 H   0  0  0  0  0  0  0  0  0  0  0  0
    4.9076    1.1207   19.1133 C   0  0  0  0  0  0  0  0  0  0  0  0
    3.9993    1.6906   19.2952 H   0  0  0  0  0  0  0  0  0  0  0  0
  1  2  1  0
  2  3  2  0
  3  4  1  0
  4  5  1  0
  4  6  2  0
  6  7  1  0
  7  8  1  0
  8  9  1  0
  9 10  1  0
  9 11  1  0
  9 12  1  0
 12 13  1  0
 12 14  1  0
 12 15  1  0
 15 16  1  0
 15 17  1  0
 17 18  2  0
 17 19  1  0
 19 20  1  0
 19 21  1  0
 19 22  1  0
  8 23  2  0
 23 24  1  0
 24 25  1  0
 24 26  1  0
 26 27  2  0
  6 28  1  0
 28 29  1  0
 28 30  2  0
 30 31  1  0
 30  2  1  0
 26  7  1  0
M  END
>  <cnnaffinity>  (1) 
-4.73188

>  <filename>  (1) 
CC(=O)NCCc1n[nH]c(=S)n1-c1cccnc1

$$$$
