
     RDKit          3D

 38 40  0  0  0  0  0  0  0  0999 V2000
    4.9826    1.8284   16.9511 H   0  0  0  0  0  0  0  0  0  0  0  0
    5.4334    1.3097   17.7929 C   0  0  0  0  0  0  0  0  0  0  0  0
    6.5830    0.6649   17.5377 N   0  0  0  0  0  0  0  0  0  0  0  0
    7.1636    0.0316   18.5654 C   0  0  0  0  0  0  0  0  0  0  0  0
    8.0878   -0.4967   18.3348 H   0  0  0  0  0  0  0  0  0  0  0  0
    6.6519   -0.0129   19.8799 C   0  0  0  0  0  0  0  0  0  0  0  0
    7.3946   -0.7100   20.9713 C   0  0  0  0  0  0  0  0  0  0  0  0
    8.8131   -0.5484   21.1101 C   0  0  0  0  0  0  0  0  0  0  0  0
    9.3365    0.1043   20.4093 H   0  0  0  0  0  0  0  0  0  0  0  0
    9.4950   -1.1766   22.1056 C   0  0  0  0  0  0  0  0  0  0  0  0
   10.5625   -1.0941   22.2497 H   0  0  0  0  0  0  0  0  0  0  0  0
    8.8425   -2.0545   23.0647 C   0  0  0  0  0  0  0  0  0  0  0  0
    9.4466   -2.6678   23.9292 O   0  0  0  0  0  0  0  0  0  0  0  0
    7.4264   -2.1406   22.9088 N   0  0  0  0  0  0  0  0  0  0  0  0
    6.6873   -2.9647   23.8155 C   0  0  0  0  0  0  0  0  0  0  0  0
    5.6885   -2.4186   24.6244 C   0  0  0  0  0  0  0  0  0  0  0  0
    5.5415   -1.3447   24.6043 H   0  0  0  0  0  0  0  0  0  0  0  0
    4.9229   -3.2457   25.4478 C   0  0  0  0  0  0  0  0  0  0  0  0
    4.1405   -2.8110   26.0616 H   0  0  0  0  0  0  0  0  0  0  0  0
    5.1506   -4.6288   25.4297 C   0  0  0  0  0  0  0  0  0  0  0  0
    4.3316   -5.4850   26.1868 N   0  0  0  0  0  0  0  0  0  0  0  0
    3.9494   -5.1302   27.0420 H   0  0  0  0  0  0  0  0  0  0  0  0
    3.9882   -6.7814   25.9100 C   0  0  0  0  0  0  0  0  0  0  0  0
    4.3186   -7.3690   24.8996 O   0  0  0  0  0  0  0  0  0  0  0  0
    3.1639   -7.4011   27.0176 C   0  0  0  0  0  0  0  0  0  0  0  0
    3.7061   -7.3786   27.9661 H   0  0  0  0  0  0  0  0  0  0  0  0
    2.2394   -6.8334   27.1533 H   0  0  0  0  0  0  0  0  0  0  0  0
    2.9376   -8.4377   26.7658 H   0  0  0  0  0  0  0  0  0  0  0  0
    6.1864   -5.1626   24.6570 C   0  0  0  0  0  0  0  0  0  0  0  0
    6.3521   -6.2280   24.6867 H   0  0  0  0  0  0  0  0  0  0  0  0
    6.9677   -4.3290   23.8709 C   0  0  0  0  0  0  0  0  0  0  0  0
    7.7909   -4.7218   23.2878 H   0  0  0  0  0  0  0  0  0  0  0  0
    6.7564   -1.5110   21.8781 C   0  0  0  0  0  0  0  0  0  0  0  0
    5.6928   -1.7204   21.8197 H   0  0  0  0  0  0  0  0  0  0  0  0
    5.4301    0.6444   20.1053 C   0  0  0  0  0  0  0  0  0  0  0  0
    4.9885    0.6419   21.1024 H   0  0  0  0  0  0  0  0  0  0  0  0
    4.8162    1.3222   19.0486 C   0  0  0  0  0  0  0  0  0  0  0  0
    3.8847    1.8613   19.1873 H   0  0  0  0  0  0  0  0  0  0  0  0
  1  2  1  0
  2  3  2  0
  3  4  1  0
  4  5  1  0
  4  6  2  0
  6  7  1  0
  7  8  1  0
  8  9  1  0
  8 10  2  0
 10 11  1  0
 10 12  1  0
 12 13  2  0
 12 14  1  0
 14 15  1  0
 15 16  2  0
 16 17  1  0
 16 18  1  0
 18 19  1  0
 18 20  2  0
 20 21  1  0
 21 22  1  0
 21 23  1  0
 23 24  2  0
 23 25  1  0
 25 26  1  0
 25 27  1  0
 25 28  1  0
 20 29  1  0
 29 30  1  0
 29 31  2  0
 31 32  1  0
 14 33  1  0
 33 34  1  0
  6 35  1  0
 35 36  1  0
 35 37  2  0
 37 38  1  0
 37  2  1  0
 33  7  2  0
 31 15  1  0
M  END
>  <cnnaffinity>  (1) 
-5.35013

>  <filename>  (1) 
CC(=O)Nc1ccc(-n2cc(-c3cccnc3)ccc2=O)cc1

$$$$
