
     RDKit          3D

 37 39  0  0  0  0  0  0  0  0999 V2000
    4.9281    1.8373   16.9984 H   0  0  0  0  0  0  0  0  0  0  0  0
    5.3997    1.3088   17.8224 C   0  0  0  0  0  0  0  0  0  0  0  0
    6.5564    0.6864   17.5416 N   0  0  0  0  0  0  0  0  0  0  0  0
    7.1661    0.0414   18.5479 C   0  0  0  0  0  0  0  0  0  0  0  0
    8.1036   -0.4596   18.3110 H   0  0  0  0  0  0  0  0  0  0  0  0
    6.6651   -0.0327   19.8731 C   0  0  0  0  0  0  0  0  0  0  0  0
    7.3275   -0.7317   20.8924 N   0  0  0  0  0  0  0  0  0  0  0  0
    6.7749   -1.0092   21.6965 H   0  0  0  0  0  0  0  0  0  0  0  0
    8.7175   -0.7392   21.0942 C   0  0  0  0  0  0  0  0  0  0  0  0
    9.7044    0.1980   20.7020 C   0  0  0  0  0  0  0  0  0  0  0  0
    9.5550    1.0898   20.1118 H   0  0  0  0  0  0  0  0  0  0  0  0
   10.9132   -0.1394   21.1391 N   0  0  0  0  0  0  0  0  0  0  0  0
   10.7138   -1.2812   21.8156 N   0  0  0  0  0  0  0  0  0  0  0  0
   11.5108   -1.7963   22.1707 H   0  0  0  0  0  0  0  0  0  0  0  0
    9.4160   -1.6939   21.8156 C   0  0  0  0  0  0  0  0  0  0  0  0
    8.9305   -2.9065   22.4762 C   0  0  0  0  0  0  0  0  0  0  0  0
    7.8822   -3.6575   21.9123 C   0  0  0  0  0  0  0  0  0  0  0  0
    7.4576   -3.3407   20.9693 H   0  0  0  0  0  0  0  0  0  0  0  0
    7.4004   -4.8003   22.5535 C   0  0  0  0  0  0  0  0  0  0  0  0
    6.5873   -5.3792   22.1250 H   0  0  0  0  0  0  0  0  0  0  0  0
    7.9314   -5.1780   23.7845 C   0  0  0  0  0  0  0  0  0  0  0  0
    7.5595   -6.0229   24.3488 H   0  0  0  0  0  0  0  0  0  0  0  0
    8.9660   -4.4243   24.3444 C   0  0  0  0  0  0  0  0  0  0  0  0
    9.5029   -4.7926   25.5830 N   0  0  0  0  0  0  0  0  0  0  0  0
   10.4442   -4.5013   25.7702 H   0  0  0  0  0  0  0  0  0  0  0  0
    8.7790   -5.1613   26.6840 C   0  0  0  0  0  0  0  0  0  0  0  0
    7.5776   -5.3388   26.6701 O   0  0  0  0  0  0  0  0  0  0  0  0
    9.6457   -5.2787   27.9072 C   0  0  0  0  0  0  0  0  0  0  0  0
   10.6270   -5.6927   27.6702 H   0  0  0  0  0  0  0  0  0  0  0  0
    9.8166   -4.2873   28.3102 H   0  0  0  0  0  0  0  0  0  0  0  0
    9.1364   -5.8876   28.6484 H   0  0  0  0  0  0  0  0  0  0  0  0
    9.4900   -3.3128   23.6938 C   0  0  0  0  0  0  0  0  0  0  0  0
   10.2793   -2.7311   24.1657 H   0  0  0  0  0  0  0  0  0  0  0  0
    5.4466    0.6107   20.1336 C   0  0  0  0  0  0  0  0  0  0  0  0
    5.0320    0.5836   21.1419 H   0  0  0  0  0  0  0  0  0  0  0  0
    4.8097    1.2963   19.0928 C   0  0  0  0  0  0  0  0  0  0  0  0
    3.8782    1.8294   19.2598 H   0  0  0  0  0  0  0  0  0  0  0  0
  1  2  1  0
  2  3  2  0
  3  4  1  0
  4  5  1  0
  4  6  2  0
  6  7  1  0
  7  8  1  0
  7  9  1  0
  9 10  1  0
 10 11  1  0
 10 12  2  0
 12 13  1  0
 13 14  1  0
 13 15  1  0
 15 16  1  0
 16 17  2  0
 17 18  1  0
 17 19  1  0
 19 20  1  0
 19 21  2  0
 21 22  1  0
 21 23  1  0
 23 24  1  0
 24 25  1  0
 24 26  1  0
 26 27  2  0
 26 28  1  0
 28 29  1  0
 28 30  1  0
 28 31  1  0
 23 32  2  0
 32 33  1  0
  6 34  1  0
 34 35  1  0
 34 36  2  0
 36 37  1  0
 36  2  1  0
 15  9  2  0
 32 16  1  0
M  END
>  <cnnaffinity>  (1) 
-5.82831

>  <filename>  (1) 
CC(=O)Nc1cccc(-c2[nH]ncc2Nc2cccnc2)c1

$$$$
