
     RDKit          3D

 38 40  0  0  0  0  0  0  0  0999 V2000
    4.9579    1.9126   16.9232 H   0  0  0  0  0  0  0  0  0  0  0  0
    5.3997    1.3635   17.7506 C   0  0  0  0  0  0  0  0  0  0  0  0
    6.5676    0.7524   17.4860 N   0  0  0  0  0  0  0  0  0  0  0  0
    7.1393    0.0860   18.4950 C   0  0  0  0  0  0  0  0  0  0  0  0
    8.0974   -0.3866   18.2733 H   0  0  0  0  0  0  0  0  0  0  0  0
    6.5748   -0.0533   19.7869 C   0  0  0  0  0  0  0  0  0  0  0  0
    7.2863   -0.7858   20.8681 C   0  0  0  0  0  0  0  0  0  0  0  0
    8.5818   -0.4842   21.0949 C   0  0  0  0  0  0  0  0  0  0  0  0
    9.0877    0.2956   20.5249 H   0  0  0  0  0  0  0  0  0  0  0  0
    9.3478   -1.1222   22.0587 N   0  0  0  0  0  0  0  0  0  0  0  0
   10.7353   -0.7918   22.1507 C   0  0  0  0  0  0  0  0  0  0  0  0
   11.7424   -1.7638   22.1504 C   0  0  0  0  0  0  0  0  0  0  0  0
   11.4858   -2.8176   22.1841 H   0  0  0  0  0  0  0  0  0  0  0  0
   13.0779   -1.3502   22.0705 C   0  0  0  0  0  0  0  0  0  0  0  0
   13.8723   -2.0917   22.0403 H   0  0  0  0  0  0  0  0  0  0  0  0
   13.3951    0.0102   22.0598 C   0  0  0  0  0  0  0  0  0  0  0  0
   14.4156    0.3635   21.9868 H   0  0  0  0  0  0  0  0  0  0  0  0
   12.3694    0.9585   22.0666 C   0  0  0  0  0  0  0  0  0  0  0  0
   12.6582    2.3419   22.0782 N   0  0  0  0  0  0  0  0  0  0  0  0
   12.1308    2.9371   21.4634 H   0  0  0  0  0  0  0  0  0  0  0  0
   13.2423    2.8616   23.1981 C   0  0  0  0  0  0  0  0  0  0  0  0
   13.6022    2.1422   24.1075 O   0  0  0  0  0  0  0  0  0  0  0  0
   13.3902    4.3599   23.2516 C   0  0  0  0  0  0  0  0  0  0  0  0
   12.6841    4.7606   23.9859 H   0  0  0  0  0  0  0  0  0  0  0  0
   14.3980    4.5719   23.6117 H   0  0  0  0  0  0  0  0  0  0  0  0
   13.2233    4.8496   22.2895 H   0  0  0  0  0  0  0  0  0  0  0  0
   11.0474    0.5664   22.1468 C   0  0  0  0  0  0  0  0  0  0  0  0
   10.2545    1.3030   22.2287 H   0  0  0  0  0  0  0  0  0  0  0  0
    8.7723   -2.0309   22.9544 C   0  0  0  0  0  0  0  0  0  0  0  0
    9.3572   -2.6567   23.8060 O   0  0  0  0  0  0  0  0  0  0  0  0
    7.4274   -2.1796   22.8152 N   0  0  0  0  0  0  0  0  0  0  0  0
    7.0780   -2.9493   23.3493 H   0  0  0  0  0  0  0  0  0  0  0  0
    6.6619   -1.8427   21.7164 C   0  0  0  0  0  0  0  0  0  0  0  0
    5.6255   -2.4413   21.5447 O   0  0  0  0  0  0  0  0  0  0  0  0
    5.3585    0.5948   20.0324 C   0  0  0  0  0  0  0  0  0  0  0  0
    4.9216    0.5479   21.0302 H   0  0  0  0  0  0  0  0  0  0  0  0
    4.7656    1.3218   18.9957 C   0  0  0  0  0  0  0  0  0  0  0  0
    3.8409    1.8670   19.1476 H   0  0  0  0  0  0  0  0  0  0  0  0
  1  2  1  0
  2  3  2  0
  3  4  1  0
  4  5  1  0
  4  6  2  0
  6  7  1  0
  7  8  2  0
  8  9  1  0
  8 10  1  0
 10 11  1  0
 11 12  2  0
 12 13  1  0
 12 14  1  0
 14 15  1  0
 14 16  2  0
 16 17  1  0
 16 18  1  0
 18 19  1  0
 19 20  1  0
 19 21  1  0
 21 22  2  0
 21 23  1  0
 23 24  1  0
 23 25  1  0
 23 26  1  0
 18 27  2  0
 27 28  1  0
 10 29  1  0
 29 30  2  0
 29 31  1  0
 31 32  1  0
 31 33  1  0
 33 34  2  0
  6 35  1  0
 35 36  1  0
 35 37  2  0
 37 38  1  0
 37  2  1  0
 33  7  1  0
 27 11  1  0
M  END
>  <cnnaffinity>  (1) 
-6.04719

>  <filename>  (1) 
CC(=O)Nc1cccc(-n2cc(-c3cccnc3)c(=O)[nH]c2=O)c1

$$$$
