
     RDKit          3D

 37 39  0  0  0  0  0  0  0  0999 V2000
    4.9156    1.8287   16.9673 H   0  0  0  0  0  0  0  0  0  0  0  0
    5.3907    1.3168   17.8014 C   0  0  0  0  0  0  0  0  0  0  0  0
    6.5533    0.6995   17.5342 N   0  0  0  0  0  0  0  0  0  0  0  0
    7.1670    0.0775   18.5485 C   0  0  0  0  0  0  0  0  0  0  0  0
    8.1163   -0.3918   18.2901 H   0  0  0  0  0  0  0  0  0  0  0  0
    6.6716    0.0243   19.8730 C   0  0  0  0  0  0  0  0  0  0  0  0
    7.3878   -0.6647   20.9709 C   0  0  0  0  0  0  0  0  0  0  0  0
    7.5132   -0.3553   22.3220 C   0  0  0  0  0  0  0  0  0  0  0  0
    6.9831    0.7820   22.9462 N   0  0  0  0  0  0  0  0  0  0  0  0
    7.0057    1.6189   22.3826 H   0  0  0  0  0  0  0  0  0  0  0  0
    6.7857    0.9823   24.3144 C   0  0  0  0  0  0  0  0  0  0  0  0
    7.0257    2.2665   24.8303 C   0  0  0  0  0  0  0  0  0  0  0  0
    7.3828    3.0473   24.1602 H   0  0  0  0  0  0  0  0  0  0  0  0
    6.8154    2.5085   26.1880 C   0  0  0  0  0  0  0  0  0  0  0  0
    7.0083    3.5000   26.5965 H   0  0  0  0  0  0  0  0  0  0  0  0
    6.3620    1.4891   27.0332 C   0  0  0  0  0  0  0  0  0  0  0  0
    6.2157    1.6459   28.0896 H   0  0  0  0  0  0  0  0  0  0  0  0
    6.1176    0.2102   26.5098 C   0  0  0  0  0  0  0  0  0  0  0  0
    5.6324   -0.8343   27.3190 N   0  0  0  0  0  0  0  0  0  0  0  0
    5.3570   -1.6680   26.8302 H   0  0  0  0  0  0  0  0  0  0  0  0
    5.7061   -0.9215   28.6880 C   0  0  0  0  0  0  0  0  0  0  0  0
    6.2397   -0.0757   29.3773 O   0  0  0  0  0  0  0  0  0  0  0  0
    5.0560   -2.1642   29.2571 C   0  0  0  0  0  0  0  0  0  0  0  0
    5.4877   -3.0604   28.8024 H   0  0  0  0  0  0  0  0  0  0  0  0
    3.9789   -2.1596   29.0634 H   0  0  0  0  0  0  0  0  0  0  0  0
    5.2242   -2.1849   30.3351 H   0  0  0  0  0  0  0  0  0  0  0  0
    6.3165   -0.0421   25.1489 C   0  0  0  0  0  0  0  0  0  0  0  0
    6.1387   -1.0190   24.7067 H   0  0  0  0  0  0  0  0  0  0  0  0
    8.2992   -1.4072   22.8656 C   0  0  0  0  0  0  0  0  0  0  0  0
    8.6429   -1.5196   23.8854 H   0  0  0  0  0  0  0  0  0  0  0  0
    8.6299   -2.3039   21.9408 N   0  0  0  0  0  0  0  0  0  0  0  0
    8.0826   -1.8272   20.8127 N   0  0  0  0  0  0  0  0  0  0  0  0
    8.1085   -2.4002   19.9813 H   0  0  0  0  0  0  0  0  0  0  0  0
    5.4456    0.6721   20.1188 C   0  0  0  0  0  0  0  0  0  0  0  0
    5.0099    0.6447   21.1176 H   0  0  0  0  0  0  0  0  0  0  0  0
    4.7978    1.3221   19.0675 C   0  0  0  0  0  0  0  0  0  0  0  0
    3.8586    1.8424   19.2162 H   0  0  0  0  0  0  0  0  0  0  0  0
  1  2  1  0
  2  3  2  0
  3  4  1  0
  4  5  1  0
  4  6  2  0
  6  7  1  0
  7  8  2  0
  8  9  1  0
  9 10  1  0
  9 11  1  0
 11 12  2  0
 12 13  1  0
 12 14  1  0
 14 15  1  0
 14 16  2  0
 16 17  1  0
 16 18  1  0
 18 19  1  0
 19 20  1  0
 19 21  1  0
 21 22  2  0
 21 23  1  0
 23 24  1  0
 23 25  1  0
 23 26  1  0
 18 27  2  0
 27 28  1  0
  8 29  1  0
 29 30  1  0
 29 31  2  0
 31 32  1  0
 32 33  1  0
  6 34  1  0
 34 35  1  0
 34 36  2  0
 36 37  1  0
 36  2  1  0
 32  7  1  0
 27 11  1  0
M  END
>  <cnnaffinity>  (1) 
-5.45172

>  <filename>  (1) 
CC(=O)Nc1cccc(Nc2cn[nH]c2-c2cccnc2)c1

$$$$
