
     RDKit          3D

 39 41  0  0  0  0  0  0  0  0999 V2000
    6.5800   -1.1494   21.7998 H   0  0  0  0  0  0  0  0  0  0  0  0
    7.2225   -0.6215   21.0894 C   0  0  0  0  0  0  0  0  0  0  0  0
    8.5255   -0.4444   21.3813 C   0  0  0  0  0  0  0  0  0  0  0  0
    9.3286   -1.0820   22.4513 C   0  0  0  0  0  0  0  0  0  0  0  0
    8.8541   -2.2658   23.2388 C   0  0  0  0  0  0  0  0  0  0  0  0
    9.1282   -2.3586   24.6166 C   0  0  0  0  0  0  0  0  0  0  0  0
    9.7066   -1.5722   25.0978 H   0  0  0  0  0  0  0  0  0  0  0  0
    8.6924   -3.4659   25.3487 C   0  0  0  0  0  0  0  0  0  0  0  0
    8.8949   -3.5258   26.4191 H   0  0  0  0  0  0  0  0  0  0  0  0
    8.0007   -4.5037   24.7073 C   0  0  0  0  0  0  0  0  0  0  0  0
    7.6636   -5.3755   25.2565 H   0  0  0  0  0  0  0  0  0  0  0  0
    7.7242   -4.4216   23.3366 C   0  0  0  0  0  0  0  0  0  0  0  0
    6.9660   -5.4296   22.6709 N   0  0  0  0  0  0  0  0  0  0  0  0
    6.0336   -5.1961   22.3957 H   0  0  0  0  0  0  0  0  0  0  0  0
    7.3442   -6.7434   22.5477 C   0  0  0  0  0  0  0  0  0  0  0  0
    8.4802   -7.1259   22.7290 O   0  0  0  0  0  0  0  0  0  0  0  0
    6.2076   -7.6739   22.2043 C   0  0  0  0  0  0  0  0  0  0  0  0
    6.6291   -8.6247   21.8793 H   0  0  0  0  0  0  0  0  0  0  0  0
    5.5630   -7.2768   21.4159 H   0  0  0  0  0  0  0  0  0  0  0  0
    5.5993   -7.8363   23.1014 H   0  0  0  0  0  0  0  0  0  0  0  0
    8.1418   -3.3076   22.6143 C   0  0  0  0  0  0  0  0  0  0  0  0
    7.9154   -3.2592   21.5544 H   0  0  0  0  0  0  0  0  0  0  0  0
   10.4851   -0.5542   22.6249 N   0  0  0  0  0  0  0  0  0  0  0  0
   10.6733    0.5389   21.6695 C   0  0  0  0  0  0  0  0  0  0  0  0
   11.6208    0.3918   21.1441 H   0  0  0  0  0  0  0  0  0  0  0  0
   10.7629    1.4699   22.2344 H   0  0  0  0  0  0  0  0  0  0  0  0
    9.4335    0.5765   20.7382 C   0  0  0  0  0  0  0  0  0  0  0  0
    9.6585    0.2751   19.7132 H   0  0  0  0  0  0  0  0  0  0  0  0
    8.9545    1.5595   20.7021 H   0  0  0  0  0  0  0  0  0  0  0  0
    6.5280   -0.0354   19.9253 C   0  0  0  0  0  0  0  0  0  0  0  0
    7.0941   -0.0088   18.6329 C   0  0  0  0  0  0  0  0  0  0  0  0
    8.0104   -0.5630   18.4371 H   0  0  0  0  0  0  0  0  0  0  0  0
    6.5725    0.6451   17.5867 N   0  0  0  0  0  0  0  0  0  0  0  0
    5.4212    1.3019   17.7902 C   0  0  0  0  0  0  0  0  0  0  0  0
    5.0229    1.8416   16.9334 H   0  0  0  0  0  0  0  0  0  0  0  0
    4.7312    1.2871   19.0092 C   0  0  0  0  0  0  0  0  0  0  0  0
    3.7983    1.8320   19.0991 H   0  0  0  0  0  0  0  0  0  0  0  0
    5.2791    0.5886   20.0858 C   0  0  0  0  0  0  0  0  0  0  0  0
    4.7773    0.5517   21.0545 H   0  0  0  0  0  0  0  0  0  0  0  0
  1  2  1  0
  2  3  2  3
  3  4  1  0
  4  5  1  0
  5  6  2  0
  6  7  1  0
  6  8  1  0
  8  9  1  0
  8 10  2  0
 10 11  1  0
 10 12  1  0
 12 13  1  0
 13 14  1  0
 13 15  1  0
 15 16  2  0
 15 17  1  0
 17 18  1  0
 17 19  1  0
 17 20  1  0
 12 21  2  0
 21 22  1  0
  4 23  2  0
 23 24  1  0
 24 25  1  0
 24 26  1  0
 24 27  1  0
 27 28  1  0
 27 29  1  0
  2 30  1  0
 30 31  2  0
 31 32  1  0
 31 33  1  0
 33 34  2  0
 34 35  1  0
 34 36  1  0
 36 37  1  0
 36 38  2  0
 38 39  1  0
 27  3  1  0
 38 30  1  0
 21  5  1  0
M  END
>  <cnnaffinity>  (1) 
-5.50125

>  <filename>  (1) 
CC(=O)Nc1cccc(C2=NCCC2=Cc2cccnc2)c1

$$$$
