
     RDKit          3D

 42 45  0  0  0  0  0  0  0  0999 V2000
    4.8882    1.9272   16.5672 H   0  0  0  0  0  0  0  0  0  0  0  0
    5.2282    1.4991   17.5068 C   0  0  0  0  0  0  0  0  0  0  0  0
    6.3822    0.8151   17.4481 N   0  0  0  0  0  0  0  0  0  0  0  0
    6.8388    0.3047   18.5973 C   0  0  0  0  0  0  0  0  0  0  0  0
    7.7860   -0.2305   18.5226 H   0  0  0  0  0  0  0  0  0  0  0  0
    6.1983    0.4311   19.8456 C   0  0  0  0  0  0  0  0  0  0  0  0
    6.8521   -0.1158   21.0910 C   0  0  1  0  0  0  0  0  0  0  0  0
    6.2485    0.1644   21.9619 H   0  0  0  0  0  0  0  0  0  0  0  0
    6.9698   -1.6754   21.0965 C   0  0  0  0  0  0  0  0  0  0  0  0
    6.7632   -2.1195   20.1152 H   0  0  0  0  0  0  0  0  0  0  0  0
    6.2754   -2.1302   21.8071 H   0  0  0  0  0  0  0  0  0  0  0  0
    8.3918   -1.8980   21.4874 C   0  0  0  0  0  0  0  0  0  0  0  0
    9.1007   -2.9846   21.7057 N   0  0  0  0  0  0  0  0  0  0  0  0
   10.3342   -2.4962   21.9620 N   0  0  0  0  0  0  0  0  0  0  0  0
   11.0584   -3.1636   22.1897 H   0  0  0  0  0  0  0  0  0  0  0  0
   10.4270   -1.1348   21.8813 C   0  0  0  0  0  0  0  0  0  0  0  0
   11.6731   -0.3680   22.0634 C   0  0  0  0  0  0  0  0  0  0  0  0
   12.9084   -0.9947   22.3097 C   0  0  0  0  0  0  0  0  0  0  0  0
   12.9932   -2.0768   22.2700 H   0  0  0  0  0  0  0  0  0  0  0  0
   14.0422   -0.2316   22.5787 C   0  0  0  0  0  0  0  0  0  0  0  0
   14.9912   -0.7263   22.7553 H   0  0  0  0  0  0  0  0  0  0  0  0
   13.9714    1.1647   22.5952 C   0  0  0  0  0  0  0  0  0  0  0  0
   14.8385    1.7720   22.8206 H   0  0  0  0  0  0  0  0  0  0  0  0
   12.7744    1.7944   22.2262 C   0  0  0  0  0  0  0  0  0  0  0  0
   12.7036    3.1851   21.9840 N   0  0  0  0  0  0  0  0  0  0  0  0
   12.1572    3.4623   21.1852 H   0  0  0  0  0  0  0  0  0  0  0  0
   13.4875    4.1665   22.5510 C   0  0  0  0  0  0  0  0  0  0  0  0
   14.0072    4.0573   23.6371 O   0  0  0  0  0  0  0  0  0  0  0  0
   13.6311    5.3982   21.6779 C   0  0  0  0  0  0  0  0  0  0  0  0
   14.2905    6.1051   22.1866 H   0  0  0  0  0  0  0  0  0  0  0  0
   12.6592    5.8653   21.4876 H   0  0  0  0  0  0  0  0  0  0  0  0
   14.0786    5.1123   20.7184 H   0  0  0  0  0  0  0  0  0  0  0  0
   11.6376    1.0319   21.9686 C   0  0  0  0  0  0  0  0  0  0  0  0
   10.7317    1.5388   21.6591 H   0  0  0  0  0  0  0  0  0  0  0  0
    9.1357   -0.7285   21.5860 C   0  0  0  0  0  0  0  0  0  0  0  0
    8.2914    0.4774   21.3013 C   0  0  0  0  0  0  0  0  0  0  0  0
    8.6342    1.0032   20.3978 H   0  0  0  0  0  0  0  0  0  0  0  0
    8.2900    1.2272   22.1051 H   0  0  0  0  0  0  0  0  0  0  0  0
    4.9744    1.1126   19.8680 C   0  0  0  0  0  0  0  0  0  0  0  0
    4.4318    1.2217   20.8094 H   0  0  0  0  0  0  0  0  0  0  0  0
    4.4815    1.6584   18.6792 C   0  0  0  0  0  0  0  0  0  0  0  0
    3.5497    2.2173   18.6551 H   0  0  0  0  0  0  0  0  0  0  0  0
  1  2  1  0
  2  3  2  0
  3  4  1  0
  4  5  1  0
  4  6  2  0
  6  7  1  0
  7  8  1  1
  7  9  1  0
  9 10  1  0
  9 11  1  0
  9 12  1  0
 12 13  2  0
 13 14  1  0
 14 15  1  0
 14 16  1  0
 16 17  1  0
 17 18  2  0
 18 19  1  0
 18 20  1  0
 20 21  1  0
 20 22  2  0
 22 23  1  0
 22 24  1  0
 24 25  1  0
 25 26  1  0
 25 27  1  0
 27 28  2  0
 27 29  1  0
 29 30  1  0
 29 31  1  0
 29 32  1  0
 24 33  2  0
 33 34  1  0
 16 35  2  0
 35 36  1  0
 36 37  1  0
 36 38  1  0
  6 39  1  0
 39 40  1  0
 39 41  2  0
 41 42  1  0
 41  2  1  0
 36  7  1  0
 35 12  1  0
 33 17  1  0
M  END
>  <cnnaffinity>  (1) 
-6.44081

>  <filename>  (1) 
CC(=O)Nc1cccc(-c2[nH]nc3c2C[C@@H](c2cccnc2)C3)c1

$$$$
