
     RDKit          3D

 34 36  0  0  0  0  0  0  0  0999 V2000
    5.6482   -1.5989   21.6471 H   0  0  0  0  0  0  0  0  0  0  0  0
    6.7333   -1.5225   21.7632 C   0  0  0  0  0  0  0  0  0  0  0  0
    7.4039   -0.6977   20.9437 C   0  0  0  0  0  0  0  0  0  0  0  0
    6.6547    0.0204   19.8763 C   0  0  0  0  0  0  0  0  0  0  0  0
    7.1603    0.0806   18.5695 C   0  0  0  0  0  0  0  0  0  0  0  0
    8.1130   -0.3997   18.3471 H   0  0  0  0  0  0  0  0  0  0  0  0
    6.5482    0.6885   17.5474 N   0  0  0  0  0  0  0  0  0  0  0  0
    5.3861    1.3060   17.8083 C   0  0  0  0  0  0  0  0  0  0  0  0
    4.9211    1.8150   16.9666 H   0  0  0  0  0  0  0  0  0  0  0  0
    4.7895    1.3203   19.0754 C   0  0  0  0  0  0  0  0  0  0  0  0
    3.8563    1.8530   19.2238 H   0  0  0  0  0  0  0  0  0  0  0  0
    5.4248    0.6566   20.1246 C   0  0  0  0  0  0  0  0  0  0  0  0
    5.0108    0.6466   21.1347 H   0  0  0  0  0  0  0  0  0  0  0  0
    8.8885   -0.4350   21.0839 C   0  0  0  0  0  0  0  0  0  0  0  0
    9.1435    0.5543   20.6928 H   0  0  0  0  0  0  0  0  0  0  0  0
    9.4962   -1.1768   20.5492 H   0  0  0  0  0  0  0  0  0  0  0  0
    9.1832   -0.4901   22.1392 H   0  0  0  0  0  0  0  0  0  0  0  0
    7.3235   -2.3560   22.8373 C   0  0  0  0  0  0  0  0  0  0  0  0
    8.4502   -3.2002   22.5863 C   0  0  0  0  0  0  0  0  0  0  0  0
    8.8587   -3.2243   21.5776 H   0  0  0  0  0  0  0  0  0  0  0  0
    9.0089   -3.9343   23.6021 C   0  0  0  0  0  0  0  0  0  0  0  0
    9.8698   -4.5643   23.4196 H   0  0  0  0  0  0  0  0  0  0  0  0
    8.4794   -3.8882   24.9254 C   0  0  0  0  0  0  0  0  0  0  0  0
    9.0226   -4.6638   25.9903 C   0  0  0  0  0  0  0  0  0  0  0  0
    9.8977   -5.2728   25.7830 H   0  0  0  0  0  0  0  0  0  0  0  0
    8.4143   -4.6939   27.2224 C   0  0  0  0  0  0  0  0  0  0  0  0
    8.8517   -5.2662   28.0358 H   0  0  0  0  0  0  0  0  0  0  0  0
    7.2182   -3.9517   27.4441 C   0  0  0  0  0  0  0  0  0  0  0  0
    6.6647   -4.1053   28.3653 H   0  0  0  0  0  0  0  0  0  0  0  0
    6.7246   -3.1142   26.4725 C   0  0  0  0  0  0  0  0  0  0  0  0
    5.8813   -2.4545   26.6674 H   0  0  0  0  0  0  0  0  0  0  0  0
    7.3260   -3.0759   25.1785 C   0  0  0  0  0  0  0  0  0  0  0  0
    6.7814   -2.3143   24.1056 C   0  0  0  0  0  0  0  0  0  0  0  0
    5.9175   -1.6793   24.2833 H   0  0  0  0  0  0  0  0  0  0  0  0
  1  2  1  0
  2  3  2  3
  3  4  1  0
  4  5  2  0
  5  6  1  0
  5  7  1  0
  7  8  2  0
  8  9  1  0
  8 10  1  0
 10 11  1  0
 10 12  2  0
 12 13  1  0
  3 14  1  0
 14 15  1  0
 14 16  1  0
 14 17  1  0
  2 18  1  0
 18 19  2  0
 19 20  1  0
 19 21  1  0
 21 22  1  0
 21 23  2  0
 23 24  1  0
 24 25  1  0
 24 26  2  0
 26 27  1  0
 26 28  1  0
 28 29  1  0
 28 30  2  0
 30 31  1  0
 30 32  1  0
 32 33  2  0
 33 34  1  0
 12  4  1  0
 33 18  1  0
 32 23  1  0
M  END
>  <cnnaffinity>  (1) 
-4.37374

>  <filename>  (1) 
CC(=Cc1ccc2ccccc2c1)c1cccnc1

$$$$
