
     RDKit          3D

 34 37  0  0  0  0  0  0  0  0999 V2000
    4.9181    1.7765   17.0012 H   0  0  0  0  0  0  0  0  0  0  0  0
    5.4049    1.2903   17.8418 C   0  0  0  0  0  0  0  0  0  0  0  0
    6.5704    0.6770   17.5742 N   0  0  0  0  0  0  0  0  0  0  0  0
    7.1734    0.0567   18.5891 C   0  0  0  0  0  0  0  0  0  0  0  0
    8.1229   -0.4336   18.3731 H   0  0  0  0  0  0  0  0  0  0  0  0
    6.6477    0.0101   19.8924 C   0  0  0  0  0  0  0  0  0  0  0  0
    7.4040   -0.6992   20.9176 C   0  0  0  0  0  0  0  0  0  0  0  0
    8.3302   -1.5982   20.6993 N   0  0  0  0  0  0  0  0  0  0  0  0
    8.8309   -2.0343   21.9055 N   0  0  0  0  0  0  0  0  0  0  0  0
    8.2006   -1.3540   22.8217 C   0  0  0  0  0  0  0  0  0  0  0  0
    8.2580   -1.0932   24.5399 S   0  0  0  0  0  0  0  0  0  0  0  0
    7.0268    0.1763   24.3223 C   0  0  0  0  0  0  0  0  0  0  0  0
    6.5313    0.9638   25.4746 C   0  0  0  0  0  0  0  0  0  0  0  0
    7.0124    0.7382   26.7835 C   0  0  0  0  0  0  0  0  0  0  0  0
    7.7643   -0.0245   26.9873 H   0  0  0  0  0  0  0  0  0  0  0  0
    6.5217    1.5026   27.8405 C   0  0  0  0  0  0  0  0  0  0  0  0
    6.8915    1.3278   28.8457 H   0  0  0  0  0  0  0  0  0  0  0  0
    5.5569    2.4930   27.6221 C   0  0  0  0  0  0  0  0  0  0  0  0
    5.1950    3.0711   28.4707 H   0  0  0  0  0  0  0  0  0  0  0  0
    5.0673    2.7311   26.3240 C   0  0  0  0  0  0  0  0  0  0  0  0
    4.0258    3.7862   26.0269 C   0  0  0  0  0  0  0  0  0  0  0  0
    3.6177    3.9649   24.8931 O   0  0  0  0  0  0  0  0  0  0  0  0
    3.4819    4.6250   27.1642 C   0  0  0  0  0  0  0  0  0  0  0  0
    2.7490    5.3238   26.7611 H   0  0  0  0  0  0  0  0  0  0  0  0
    3.0012    3.9964   27.9202 H   0  0  0  0  0  0  0  0  0  0  0  0
    4.2819    5.1865   27.6559 H   0  0  0  0  0  0  0  0  0  0  0  0
    5.5637    1.9586   25.2604 C   0  0  0  0  0  0  0  0  0  0  0  0
    5.1962    2.1326   24.2505 H   0  0  0  0  0  0  0  0  0  0  0  0
    6.6180    0.3532   23.1054 N   0  0  0  0  0  0  0  0  0  0  0  0
    7.2709   -0.5191   22.2820 N   0  0  0  0  0  0  0  0  0  0  0  0
    5.4313    0.6526   20.1622 C   0  0  0  0  0  0  0  0  0  0  0  0
    5.0088    0.6366   21.1712 H   0  0  0  0  0  0  0  0  0  0  0  0
    4.8048    1.3076   19.1080 C   0  0  0  0  0  0  0  0  0  0  0  0
    3.8742    1.8434   19.2611 H   0  0  0  0  0  0  0  0  0  0  0  0
  1  2  1  0
  2  3  2  0
  3  4  1  0
  4  5  1  0
  4  6  2  0
  6  7  1  0
  7  8  2  0
  8  9  1  0
  9 10  2  0
 10 11  1  0
 11 12  1  0
 12 13  1  0
 13 14  2  0
 14 15  1  0
 14 16  1  0
 16 17  1  0
 16 18  2  0
 18 19  1  0
 18 20  1  0
 20 21  1  0
 21 22  2  0
 21 23  1  0
 23 24  1  0
 23 25  1  0
 23 26  1  0
 20 27  2  0
 27 28  1  0
 12 29  2  0
 29 30  1  0
  6 31  1  0
 31 32  1  0
 31 33  2  0
 33 34  1  0
 33  2  1  0
 30  7  1  0
 30 10  1  0
 27 13  1  0
M  END
>  <cnnaffinity>  (1) 
-5.40371

>  <filename>  (1) 
CC(=O)c1cccc(-c2nn3c(-c4cccnc4)nnc3s2)c1

$$$$
