
     RDKit          3D

 32 34  0  0  0  0  0  0  0  0999 V2000
    4.9102    1.7823   16.9982 H   0  0  0  0  0  0  0  0  0  0  0  0
    5.3993    1.2929   17.8422 C   0  0  0  0  0  0  0  0  0  0  0  0
    6.5564    0.6719   17.5729 N   0  0  0  0  0  0  0  0  0  0  0  0
    7.1869    0.0607   18.5829 C   0  0  0  0  0  0  0  0  0  0  0  0
    8.1346   -0.4242   18.3645 H   0  0  0  0  0  0  0  0  0  0  0  0
    6.6912    0.0231   19.9036 C   0  0  0  0  0  0  0  0  0  0  0  0
    7.3022   -0.6873   20.9527 O   0  0  0  0  0  0  0  0  0  0  0  0
    8.6365   -0.7748   21.0781 C   0  0  0  0  0  0  0  0  0  0  0  0
    9.5548   -0.0781   20.4586 N   0  0  0  0  0  0  0  0  0  0  0  0
   10.7311   -0.5146   20.9712 N   0  0  0  0  0  0  0  0  0  0  0  0
   10.5561   -1.4380   21.8392 N   0  0  0  0  0  0  0  0  0  0  0  0
    9.2121   -1.6443   21.9343 N   0  0  0  0  0  0  0  0  0  0  0  0
    8.6595   -2.6248   22.8195 C   0  0  0  0  0  0  0  0  0  0  0  0
    9.3365   -2.9745   23.9993 C   0  0  0  0  0  0  0  0  0  0  0  0
   10.2987   -2.5279   24.2284 H   0  0  0  0  0  0  0  0  0  0  0  0
    8.7735   -3.9114   24.8691 C   0  0  0  0  0  0  0  0  0  0  0  0
    9.3197   -4.1699   25.7743 H   0  0  0  0  0  0  0  0  0  0  0  0
    7.5320   -4.5171   24.5869 C   0  0  0  0  0  0  0  0  0  0  0  0
    6.8820   -5.5314   25.5020 C   0  0  0  0  0  0  0  0  0  0  0  0
    5.8082   -6.0309   25.2209 O   0  0  0  0  0  0  0  0  0  0  0  0
    7.5859   -5.9300   26.7837 C   0  0  0  0  0  0  0  0  0  0  0  0
    6.9697   -6.6627   27.3060 H   0  0  0  0  0  0  0  0  0  0  0  0
    7.7418   -5.0632   27.4329 H   0  0  0  0  0  0  0  0  0  0  0  0
    8.5664   -6.3684   26.5737 H   0  0  0  0  0  0  0  0  0  0  0  0
    6.8777   -4.1562   23.3907 C   0  0  0  0  0  0  0  0  0  0  0  0
    5.9182   -4.6073   23.1534 H   0  0  0  0  0  0  0  0  0  0  0  0
    7.4308   -3.2304   22.5127 C   0  0  0  0  0  0  0  0  0  0  0  0
    6.9057   -2.9713   21.6021 H   0  0  0  0  0  0  0  0  0  0  0  0
    5.4663    0.6405   20.1718 C   0  0  0  0  0  0  0  0  0  0  0  0
    5.0310    0.6135   21.1738 H   0  0  0  0  0  0  0  0  0  0  0  0
    4.8197    1.3005   19.1175 C   0  0  0  0  0  0  0  0  0  0  0  0
    3.8842    1.8340   19.2688 H   0  0  0  0  0  0  0  0  0  0  0  0
  1  2  1  0
  2  3  2  0
  3  4  1  0
  4  5  1  0
  4  6  2  0
  6  7  1  0
  7  8  1  0
  8  9  2  0
  9 10  1  0
 10 11  2  0
 11 12  1  0
 12 13  1  0
 13 14  2  0
 14 15  1  0
 14 16  1  0
 16 17  1  0
 16 18  2  0
 18 19  1  0
 19 20  2  0
 19 21  1  0
 21 22  1  0
 21 23  1  0
 21 24  1  0
 18 25  1  0
 25 26  1  0
 25 27  2  0
 27 28  1  0
  6 29  1  0
 29 30  1  0
 29 31  2  0
 31 32  1  0
 31  2  1  0
 12  8  1  0
 27 13  1  0
M  END
>  <cnnaffinity>  (1) 
-5.31954

>  <filename>  (1) 
CC(=O)c1ccc(-n2nnnc2Oc2cccnc2)cc1

$$$$
