
     RDKit          3D

 40 43  0  0  0  0  0  0  0  0999 V2000
    4.9128    1.8312   16.9420 H   0  0  0  0  0  0  0  0  0  0  0  0
    5.4065    1.3283   17.7698 C   0  0  0  0  0  0  0  0  0  0  0  0
    6.5650    0.7138   17.4833 N   0  0  0  0  0  0  0  0  0  0  0  0
    7.1916    0.0977   18.4937 C   0  0  0  0  0  0  0  0  0  0  0  0
    8.1248   -0.4082   18.2407 H   0  0  0  0  0  0  0  0  0  0  0  0
    6.7214    0.0523   19.8200 C   0  0  0  0  0  0  0  0  0  0  0  0
    7.4770   -0.6590   20.9226 C   0  0  1  0  0  0  0  0  0  0  0  0
    8.4154   -1.0338   20.5003 H   0  0  0  0  0  0  0  0  0  0  0  0
    7.8474    0.2894   22.1213 C   0  0  0  0  0  0  0  0  0  0  0  0
    8.9292    0.4451   22.1804 H   0  0  0  0  0  0  0  0  0  0  0  0
    7.3950    1.2860   22.0335 H   0  0  0  0  0  0  0  0  0  0  0  0
    7.3408   -0.4606   23.3118 C   0  0  0  0  0  0  0  0  0  0  0  0
    7.3167   -0.2140   24.6072 N   0  0  0  0  0  0  0  0  0  0  0  0
    6.7331   -1.3260   25.1221 N   0  0  0  0  0  0  0  0  0  0  0  0
    6.4351   -1.3054   26.0866 H   0  0  0  0  0  0  0  0  0  0  0  0
    6.3583   -2.2429   24.1776 C   0  0  0  0  0  0  0  0  0  0  0  0
    5.7154   -3.5454   24.4519 C   0  0  0  0  0  0  0  0  0  0  0  0
    6.0498   -4.3566   25.5561 C   0  0  0  0  0  0  0  0  0  0  0  0
    6.8066   -4.0288   26.2644 H   0  0  0  0  0  0  0  0  0  0  0  0
    5.4454   -5.5972   25.7325 C   0  0  0  0  0  0  0  0  0  0  0  0
    5.7357   -6.2237   26.5732 H   0  0  0  0  0  0  0  0  0  0  0  0
    4.4717   -6.0681   24.8269 C   0  0  0  0  0  0  0  0  0  0  0  0
    3.7600   -7.3666   25.1199 C   0  0  0  0  0  0  0  0  0  0  0  0
    3.7949   -7.8642   26.2254 O   0  0  0  0  0  0  0  0  0  0  0  0
    2.9906   -8.0479   24.0058 C   0  0  0  0  0  0  0  0  0  0  0  0
    2.0185   -7.5616   23.8762 H   0  0  0  0  0  0  0  0  0  0  0  0
    3.5056   -7.9751   23.0472 H   0  0  0  0  0  0  0  0  0  0  0  0
    2.8369   -9.0931   24.2784 H   0  0  0  0  0  0  0  0  0  0  0  0
    4.1668   -5.2740   23.7075 C   0  0  0  0  0  0  0  0  0  0  0  0
    3.4705   -5.6358   22.9544 H   0  0  0  0  0  0  0  0  0  0  0  0
    4.7686   -4.0297   23.5340 C   0  0  0  0  0  0  0  0  0  0  0  0
    4.5013   -3.4207   22.6759 H   0  0  0  0  0  0  0  0  0  0  0  0
    6.7588   -1.6804   22.9809 C   0  0  0  0  0  0  0  0  0  0  0  0
    6.6943   -1.8939   21.5012 C   0  0  0  0  0  0  0  0  0  0  0  0
    5.6550   -1.9082   21.1335 H   0  0  0  0  0  0  0  0  0  0  0  0
    7.1494   -2.8392   21.1740 H   0  0  0  0  0  0  0  0  0  0  0  0
    5.4971    0.6847   20.0832 C   0  0  0  0  0  0  0  0  0  0  0  0
    5.0766    0.6670   21.0918 H   0  0  0  0  0  0  0  0  0  0  0  0
    4.8291    1.3324   19.0442 C   0  0  0  0  0  0  0  0  0  0  0  0
    3.8873    1.8439   19.2126 H   0  0  0  0  0  0  0  0  0  0  0  0
  1  2  1  0
  2  3  2  0
  3  4  1  0
  4  5  1  0
  4  6  2  0
  6  7  1  0
  7  8  1  6
  7  9  1  0
  9 10  1  0
  9 11  1  0
  9 12  1  0
 12 13  2  0
 13 14  1  0
 14 15  1  0
 14 16  1  0
 16 17  1  0
 17 18  2  0
 18 19  1  0
 18 20  1  0
 20 21  1  0
 20 22  2  0
 22 23  1  0
 23 24  2  0
 23 25  1  0
 25 26  1  0
 25 27  1  0
 25 28  1  0
 22 29  1  0
 29 30  1  0
 29 31  2  0
 31 32  1  0
 16 33  2  0
 33 34  1  0
 34 35  1  0
 34 36  1  0
  6 37  1  0
 37 38  1  0
 37 39  2  0
 39 40  1  0
 39  2  1  0
 34  7  1  0
 33 12  1  0
 31 17  1  0
M  END
>  <cnnaffinity>  (1) 
-5.39555

>  <filename>  (1) 
CC(=O)c1ccc(-c2[nH]nc3c2C[C@@H](c2cccnc2)C3)cc1

$$$$
