
     RDKit          3D

 39 42  0  0  0  0  0  0  0  0999 V2000
    5.0112    1.8336   16.8639 H   0  0  0  0  0  0  0  0  0  0  0  0
    5.4322    1.2950   17.7091 C   0  0  0  0  0  0  0  0  0  0  0  0
    6.5703    0.6286   17.4691 N   0  0  0  0  0  0  0  0  0  0  0  0
    7.1379   -0.0203   18.4911 C   0  0  0  0  0  0  0  0  0  0  0  0
    8.0620   -0.5505   18.2722 H   0  0  0  0  0  0  0  0  0  0  0  0
    6.6159   -0.0260   19.7969 C   0  0  0  0  0  0  0  0  0  0  0  0
    7.3888   -0.6115   20.9099 C   0  0  0  0  0  0  0  0  0  0  0  0
    8.5276   -1.2917   20.6946 N   0  0  0  0  0  0  0  0  0  0  0  0
    8.9558   -1.5613   21.9460 N   0  0  0  0  0  0  0  0  0  0  0  0
   10.0538   -2.2129   22.4897 C   0  0  0  0  0  0  0  0  0  0  0  0
   10.7861   -2.6756   21.8556 H   0  0  0  0  0  0  0  0  0  0  0  0
    9.9323   -2.0899   23.8358 C   0  0  0  0  0  0  0  0  0  0  0  0
   10.5427   -2.4725   24.6393 H   0  0  0  0  0  0  0  0  0  0  0  0
    8.7610   -1.3918   24.1332 N   0  0  0  0  0  0  0  0  0  0  0  0
    8.2753   -1.0019   25.4065 C   0  0  0  0  0  0  0  0  0  0  0  0
    9.1250   -0.6482   26.4692 C   0  0  0  0  0  0  0  0  0  0  0  0
   10.2015   -0.7414   26.3729 H   0  0  0  0  0  0  0  0  0  0  0  0
    8.5873   -0.1578   27.6603 C   0  0  0  0  0  0  0  0  0  0  0  0
    9.2252    0.0906   28.5022 H   0  0  0  0  0  0  0  0  0  0  0  0
    7.2063    0.0196   27.7824 C   0  0  0  0  0  0  0  0  0  0  0  0
    6.7059    0.5674   28.9726 N   0  0  0  0  0  0  0  0  0  0  0  0
    7.3371    0.5826   29.7506 H   0  0  0  0  0  0  0  0  0  0  0  0
    5.5903    1.3523   29.1166 C   0  0  0  0  0  0  0  0  0  0  0  0
    4.8634    1.6799   28.2031 O   0  0  0  0  0  0  0  0  0  0  0  0
    5.3754    1.8033   30.5472 C   0  0  0  0  0  0  0  0  0  0  0  0
    5.6764    1.0318   31.2637 H   0  0  0  0  0  0  0  0  0  0  0  0
    4.3163    2.0407   30.6787 H   0  0  0  0  0  0  0  0  0  0  0  0
    5.9801    2.7008   30.7269 H   0  0  0  0  0  0  0  0  0  0  0  0
    6.3500   -0.3876   26.7576 C   0  0  0  0  0  0  0  0  0  0  0  0
    5.2838   -0.2573   26.8892 H   0  0  0  0  0  0  0  0  0  0  0  0
    6.8832   -0.9206   25.5914 C   0  0  0  0  0  0  0  0  0  0  0  0
    6.2254   -1.2553   24.7943 H   0  0  0  0  0  0  0  0  0  0  0  0
    8.1585   -1.0805   22.9179 C   0  0  0  0  0  0  0  0  0  0  0  0
    7.0798   -0.4721   22.2865 C   0  0  0  0  0  0  0  0  0  0  0  0
    6.2123   -0.0054   22.7237 H   0  0  0  0  0  0  0  0  0  0  0  0
    5.3862    0.6223   20.0095 C   0  0  0  0  0  0  0  0  0  0  0  0
    4.8988    0.5998   20.9848 H   0  0  0  0  0  0  0  0  0  0  0  0
    4.7935    1.3074   18.9523 C   0  0  0  0  0  0  0  0  0  0  0  0
    3.8682    1.8587   19.0782 H   0  0  0  0  0  0  0  0  0  0  0  0
  1  2  1  0
  2  3  2  0
  3  4  1  0
  4  5  1  0
  4  6  2  0
  6  7  1  0
  7  8  2  0
  8  9  1  0
  9 10  1  0
 10 11  1  0
 10 12  2  0
 12 13  1  0
 12 14  1  0
 14 15  1  0
 15 16  2  0
 16 17  1  0
 16 18  1  0
 18 19  1  0
 18 20  2  0
 20 21  1  0
 21 22  1  0
 21 23  1  0
 23 24  2  0
 23 25  1  0
 25 26  1  0
 25 27  1  0
 25 28  1  0
 20 29  1  0
 29 30  1  0
 29 31  2  0
 31 32  1  0
 14 33  1  0
 33 34  2  0
 34 35  1  0
  6 36  1  0
 36 37  1  0
 36 38  2  0
 38 39  1  0
 38  2  1  0
 34  7  1  0
 33  9  1  0
 31 15  1  0
M  END
>  <cnnaffinity>  (1) 
-5.58868

>  <filename>  (1) 
CC(=O)Nc1ccc(-n2ccn3nc(-c4cccnc4)cc23)cc1

$$$$
