
     RDKit          3D

 34 36  0  0  0  0  0  0  0  0999 V2000
    4.9584    1.8100   16.9752 H   0  0  0  0  0  0  0  0  0  0  0  0
    5.4053    1.2854   17.8153 C   0  0  0  0  0  0  0  0  0  0  0  0
    6.5516    0.6310   17.5723 N   0  0  0  0  0  0  0  0  0  0  0  0
    7.1386    0.0051   18.5974 C   0  0  0  0  0  0  0  0  0  0  0  0
    8.0740   -0.5067   18.3699 H   0  0  0  0  0  0  0  0  0  0  0  0
    6.6389    0.0224   19.9106 C   0  0  0  0  0  0  0  0  0  0  0  0
    7.4055   -0.6405   20.9682 C   0  0  0  0  0  0  0  0  0  0  0  0
    7.9706   -1.8840   20.7760 N   0  0  0  0  0  0  0  0  0  0  0  0
    8.4693   -2.1862   21.9404 C   0  0  0  0  0  0  0  0  0  0  0  0
    9.2668   -3.5551   22.6805 S   0  0  0  0  0  0  0  0  0  0  0  0
    9.5346   -2.6289   24.1465 C   0  0  0  0  0  0  0  0  0  0  0  0
   10.1601   -3.0395   24.9272 H   0  0  0  0  0  0  0  0  0  0  0  0
    8.9472   -1.4228   24.0945 C   0  0  0  0  0  0  0  0  0  0  0  0
    8.8935   -0.6601   24.8595 H   0  0  0  0  0  0  0  0  0  0  0  0
    8.3371   -1.1880   22.8710 N   0  0  0  0  0  0  0  0  0  0  0  0
    7.6557   -0.1649   22.2466 C   0  0  0  0  0  0  0  0  0  0  0  0
    7.3138    1.0966   22.9479 C   0  0  0  0  0  0  0  0  0  0  0  0
    6.9841    1.8348   22.2121 H   0  0  0  0  0  0  0  0  0  0  0  0
    8.2039    1.5209   23.4269 H   0  0  0  0  0  0  0  0  0  0  0  0
    6.1987    0.9343   23.9950 C   0  0  0  0  0  0  0  0  0  0  0  0
    6.4825    0.2257   24.7788 H   0  0  0  0  0  0  0  0  0  0  0  0
    5.3208    0.5211   23.4981 H   0  0  0  0  0  0  0  0  0  0  0  0
    5.8010    2.2028   24.5714 N   0  0  0  0  0  0  0  0  0  0  0  0
    6.1315    2.4807   25.4794 H   0  0  0  0  0  0  0  0  0  0  0  0
    5.0423    3.0931   23.8743 C   0  0  0  0  0  0  0  0  0  0  0  0
    4.5675    2.8312   22.7784 O   0  0  0  0  0  0  0  0  0  0  0  0
    4.8154    4.3945   24.5997 C   0  0  0  0  0  0  0  0  0  0  0  0
    5.7460    4.7354   25.0625 H   0  0  0  0  0  0  0  0  0  0  0  0
    4.4540    5.1395   23.8892 H   0  0  0  0  0  0  0  0  0  0  0  0
    4.0666    4.2314   25.3823 H   0  0  0  0  0  0  0  0  0  0  0  0
    5.4263    0.7000   20.1413 C   0  0  0  0  0  0  0  0  0  0  0  0
    4.9850    0.7660   21.1380 H   0  0  0  0  0  0  0  0  0  0  0  0
    4.7950    1.3257   19.0703 C   0  0  0  0  0  0  0  0  0  0  0  0
    3.8667    1.8658   19.2137 H   0  0  0  0  0  0  0  0  0  0  0  0
  1  2  1  0
  2  3  2  0
  3  4  1  0
  4  5  1  0
  4  6  2  0
  6  7  1  0
  7  8  1  0
  8  9  2  0
  9 10  1  0
 10 11  1  0
 11 12  1  0
 11 13  2  0
 13 14  1  0
 13 15  1  0
 15 16  1  0
 16 17  1  0
 17 18  1  0
 17 19  1  0
 17 20  1  0
 20 21  1  0
 20 22  1  0
 20 23  1  0
 23 24  1  0
 23 25  1  0
 25 26  2  0
 25 27  1  0
 27 28  1  0
 27 29  1  0
 27 30  1  0
  6 31  1  0
 31 32  1  0
 31 33  2  0
 33 34  1  0
 33  2  1  0
 16  7  2  0
 15  9  1  0
M  END
>  <cnnaffinity>  (1) 
-5.59818

>  <filename>  (1) 
CC(=O)NCCc1c(-c2cccnc2)nc2sccn12

$$$$
