
     RDKit          3D

 40 43  0  0  0  0  0  0  0  0999 V2000
    4.9111    1.8340   16.9589 H   0  0  0  0  0  0  0  0  0  0  0  0
    5.3944    1.3196   17.7879 C   0  0  0  0  0  0  0  0  0  0  0  0
    6.5521    0.7032   17.5074 N   0  0  0  0  0  0  0  0  0  0  0  0
    7.1706    0.0836   18.5207 C   0  0  0  0  0  0  0  0  0  0  0  0
    8.1105   -0.4056   18.2652 H   0  0  0  0  0  0  0  0  0  0  0  0
    6.6941    0.0276   19.8449 C   0  0  0  0  0  0  0  0  0  0  0  0
    7.4538   -0.6893   20.9441 C   0  0  1  0  0  0  0  0  0  0  0  0
    8.3865   -1.0774   20.5227 H   0  0  0  0  0  0  0  0  0  0  0  0
    7.8419    0.2463   22.1409 C   0  0  0  0  0  0  0  0  0  0  0  0
    8.9264    0.3677   22.2056 H   0  0  0  0  0  0  0  0  0  0  0  0
    7.4261    1.2532   22.0558 H   0  0  0  0  0  0  0  0  0  0  0  0
    7.2955   -0.4662   23.3366 C   0  0  0  0  0  0  0  0  0  0  0  0
    7.2650   -0.2043   24.6312 N   0  0  0  0  0  0  0  0  0  0  0  0
    6.6534   -1.2992   25.1510 N   0  0  0  0  0  0  0  0  0  0  0  0
    6.5238   -1.3331   26.1543 H   0  0  0  0  0  0  0  0  0  0  0  0
    6.2807   -2.2283   24.2124 C   0  0  0  0  0  0  0  0  0  0  0  0
    5.6659   -3.5511   24.4933 C   0  0  0  0  0  0  0  0  0  0  0  0
    6.0735   -4.3370   25.5918 C   0  0  0  0  0  0  0  0  0  0  0  0
    6.7795   -3.9449   26.3228 H   0  0  0  0  0  0  0  0  0  0  0  0
    5.5812   -5.6330   25.7464 C   0  0  0  0  0  0  0  0  0  0  0  0
    5.9213   -6.2516   26.5752 H   0  0  0  0  0  0  0  0  0  0  0  0
    4.6460   -6.1527   24.8446 C   0  0  0  0  0  0  0  0  0  0  0  0
    4.3100   -7.1790   24.9806 H   0  0  0  0  0  0  0  0  0  0  0  0
    4.1538   -5.3626   23.7891 C   0  0  0  0  0  0  0  0  0  0  0  0
    3.0080   -5.8298   22.9128 C   0  0  0  0  0  0  0  0  0  0  0  0
    2.3905   -5.0450   22.2226 O   0  0  0  0  0  0  0  0  0  0  0  0
    2.5998   -7.2915   22.9553 C   0  0  0  0  0  0  0  0  0  0  0  0
    3.4702   -7.9445   23.0439 H   0  0  0  0  0  0  0  0  0  0  0  0
    2.0271   -7.5456   22.0599 H   0  0  0  0  0  0  0  0  0  0  0  0
    1.9650   -7.4422   23.8368 H   0  0  0  0  0  0  0  0  0  0  0  0
    4.7097   -4.0780   23.6059 C   0  0  0  0  0  0  0  0  0  0  0  0
    4.3840   -3.4672   22.7657 H   0  0  0  0  0  0  0  0  0  0  0  0
    6.7054   -1.6811   23.0166 C   0  0  0  0  0  0  0  0  0  0  0  0
    6.6706   -1.9092   21.5392 C   0  0  0  0  0  0  0  0  0  0  0  0
    5.6383   -1.9503   21.1677 H   0  0  0  0  0  0  0  0  0  0  0  0
    7.1324   -2.8580   21.2491 H   0  0  0  0  0  0  0  0  0  0  0  0
    5.4716    0.6670   20.1038 C   0  0  0  0  0  0  0  0  0  0  0  0
    5.0417    0.6642   21.1090 H   0  0  0  0  0  0  0  0  0  0  0  0
    4.8149    1.3206   19.0603 C   0  0  0  0  0  0  0  0  0  0  0  0
    3.8764    1.8382   19.2172 H   0  0  0  0  0  0  0  0  0  0  0  0
  1  2  1  0
  2  3  2  0
  3  4  1  0
  4  5  1  0
  4  6  2  0
  6  7  1  0
  7  8  1  6
  7  9  1  0
  9 10  1  0
  9 11  1  0
  9 12  1  0
 12 13  2  0
 13 14  1  0
 14 15  1  0
 14 16  1  0
 16 17  1  0
 17 18  2  0
 18 19  1  0
 18 20  1  0
 20 21  1  0
 20 22  2  0
 22 23  1  0
 22 24  1  0
 24 25  1  0
 25 26  2  0
 25 27  1  0
 27 28  1  0
 27 29  1  0
 27 30  1  0
 24 31  2  0
 31 32  1  0
 16 33  2  0
 33 34  1  0
 34 35  1  0
 34 36  1  0
  6 37  1  0
 37 38  1  0
 37 39  2  0
 39 40  1  0
 39  2  1  0
 34  7  1  0
 33 12  1  0
 31 17  1  0
M  END
>  <cnnaffinity>  (1) 
-5.55511

>  <filename>  (1) 
CC(=O)c1cccc(-c2[nH]nc3c2C[C@@H](c2cccnc2)C3)c1

$$$$
