
     RDKit          3D

 37 39  0  0  0  0  0  0  0  0999 V2000
    4.9707    1.8436   16.9395 H   0  0  0  0  0  0  0  0  0  0  0  0
    5.4292    1.3215   17.7767 C   0  0  0  0  0  0  0  0  0  0  0  0
    6.5868    0.6932   17.5177 N   0  0  0  0  0  0  0  0  0  0  0  0
    7.1764    0.0515   18.5338 C   0  0  0  0  0  0  0  0  0  0  0  0
    8.1193   -0.4439   18.2949 H   0  0  0  0  0  0  0  0  0  0  0  0
    6.6625   -0.0178   19.8420 C   0  0  0  0  0  0  0  0  0  0  0  0
    7.3965   -0.7406   20.9543 C   0  0  2  0  0  0  0  0  0  0  0  0
    8.2942   -1.2142   20.5279 H   0  0  0  0  0  0  0  0  0  0  0  0
    6.5791   -1.8542   21.6591 C   0  0  0  0  0  0  0  0  0  0  0  0
    6.8824   -2.8470   21.3098 H   0  0  0  0  0  0  0  0  0  0  0  0
    5.4997   -1.7577   21.4709 H   0  0  0  0  0  0  0  0  0  0  0  0
    6.8889   -1.6892   23.0706 N   0  0  0  0  0  0  0  0  0  0  0  0
    6.2705   -2.0301   23.7945 H   0  0  0  0  0  0  0  0  0  0  0  0
    7.4066   -0.4661   23.3835 C   0  0  0  0  0  0  0  0  0  0  0  0
    7.4509   -0.0242   24.5118 O   0  0  0  0  0  0  0  0  0  0  0  0
    7.8431    0.2155   22.0951 C   0  0  1  0  0  0  0  0  0  0  0  0
    7.2929    1.1623   22.0895 H   0  0  0  0  0  0  0  0  0  0  0  0
    9.3209    0.5633   22.0571 C   0  0  0  0  0  0  0  0  0  0  0  0
    9.7352    1.8757   21.7862 C   0  0  0  0  0  0  0  0  0  0  0  0
    8.9824    2.6445   21.6202 H   0  0  0  0  0  0  0  0  0  0  0  0
   11.0956    2.1870   21.7035 C   0  0  0  0  0  0  0  0  0  0  0  0
   11.4101    3.2133   21.5281 H   0  0  0  0  0  0  0  0  0  0  0  0
   12.0528    1.1866   21.8915 C   0  0  0  0  0  0  0  0  0  0  0  0
   13.1099    1.4418   21.8552 H   0  0  0  0  0  0  0  0  0  0  0  0
   11.6557   -0.1398   22.1303 C   0  0  0  0  0  0  0  0  0  0  0  0
   12.6377   -1.2770   22.2396 C   0  0  0  0  0  0  0  0  0  0  0  0
   12.2480   -2.4234   22.3375 O   0  0  0  0  0  0  0  0  0  0  0  0
   14.1201   -0.9616   22.2417 C   0  0  0  0  0  0  0  0  0  0  0  0
   14.6895   -1.8882   22.3109 H   0  0  0  0  0  0  0  0  0  0  0  0
   14.3903   -0.4237   21.3291 H   0  0  0  0  0  0  0  0  0  0  0  0
   14.3762   -0.3209   23.0924 H   0  0  0  0  0  0  0  0  0  0  0  0
   10.2842   -0.4293   22.2480 C   0  0  0  0  0  0  0  0  0  0  0  0
    9.9965   -1.4509   22.4985 H   0  0  0  0  0  0  0  0  0  0  0  0
    5.4491    0.6455   20.0827 C   0  0  0  0  0  0  0  0  0  0  0  0
    5.0093    0.6446   21.0820 H   0  0  0  0  0  0  0  0  0  0  0  0
    4.8207    1.3188   19.0349 C   0  0  0  0  0  0  0  0  0  0  0  0
    3.8877    1.8518   19.1805 H   0  0  0  0  0  0  0  0  0  0  0  0
  1  2  1  0
  2  3  2  0
  3  4  1  0
  4  5  1  0
  4  6  2  0
  6  7  1  0
  7  8  1  6
  7  9  1  0
  9 10  1  0
  9 11  1  0
  9 12  1  0
 12 13  1  0
 12 14  1  0
 14 15  2  0
 14 16  1  0
 16 17  1  6
 16 18  1  0
 18 19  2  0
 19 20  1  0
 19 21  1  0
 21 22  1  0
 21 23  2  0
 23 24  1  0
 23 25  1  0
 25 26  1  0
 26 27  2  0
 26 28  1  0
 28 29  1  0
 28 30  1  0
 28 31  1  0
 25 32  2  0
 32 33  1  0
  6 34  1  0
 34 35  1  0
 34 36  2  0
 36 37  1  0
 36  2  1  0
 16  7  1  0
 32 18  1  0
M  END
>  <cnnaffinity>  (1) 
-5.66655

>  <filename>  (1) 
CC(=O)c1cccc([C@@H]2C(=O)NC[C@H]2c2cccnc2)c1

$$$$
