
     RDKit          3D

 35 38  0  0  0  0  0  0  0  0999 V2000
    4.9317    1.7432   16.9796 H   0  0  0  0  0  0  0  0  0  0  0  0
    5.4121    1.2807   17.8392 C   0  0  0  0  0  0  0  0  0  0  0  0
    6.5771    0.6602   17.6018 N   0  0  0  0  0  0  0  0  0  0  0  0
    7.2016    0.1092   18.6469 C   0  0  0  0  0  0  0  0  0  0  0  0
    8.1499   -0.3696   18.4069 H   0  0  0  0  0  0  0  0  0  0  0  0
    6.7217    0.1350   19.9742 C   0  0  0  0  0  0  0  0  0  0  0  0
    7.5029   -0.5256   21.0426 C   0  0  0  0  0  0  0  0  0  0  0  0
    8.4317   -1.4915   20.8907 C   0  0  0  0  0  0  0  0  0  0  0  0
    8.8529   -1.8364   19.9619 H   0  0  0  0  0  0  0  0  0  0  0  0
    9.0156   -2.1501   22.3924 S   0  0  0  0  0  0  0  0  0  0  0  0
    8.0855   -0.9634   23.2614 C   0  0  0  0  0  0  0  0  0  0  0  0
    8.0440   -0.4616   24.4753 N   0  0  0  0  0  0  0  0  0  0  0  0
    7.2606    0.6423   24.2901 C   0  0  0  0  0  0  0  0  0  0  0  0
    7.0127    1.6385   25.3452 C   0  0  0  0  0  0  0  0  0  0  0  0
    6.2353    2.7783   25.0693 C   0  0  0  0  0  0  0  0  0  0  0  0
    5.8074    2.9203   24.0788 H   0  0  0  0  0  0  0  0  0  0  0  0
    6.0209    3.7219   26.0752 C   0  0  0  0  0  0  0  0  0  0  0  0
    5.4259    4.6052   25.8634 H   0  0  0  0  0  0  0  0  0  0  0  0
    6.5428    3.5257   27.3553 C   0  0  0  0  0  0  0  0  0  0  0  0
    6.3808    4.2649   28.1355 H   0  0  0  0  0  0  0  0  0  0  0  0
    7.2755    2.3610   27.6631 C   0  0  0  0  0  0  0  0  0  0  0  0
    7.6928    2.1063   29.1028 C   0  0  0  0  0  0  0  0  0  0  0  0
    7.6640    2.9903   29.9370 O   0  0  0  0  0  0  0  0  0  0  0  0
    8.0411    0.6933   29.5083 C   0  0  0  0  0  0  0  0  0  0  0  0
    8.5205    0.6961   30.4887 H   0  0  0  0  0  0  0  0  0  0  0  0
    7.0857    0.1598   29.5657 H   0  0  0  0  0  0  0  0  0  0  0  0
    8.6762    0.1495   28.8001 H   0  0  0  0  0  0  0  0  0  0  0  0
    7.5671    1.4625   26.6250 C   0  0  0  0  0  0  0  0  0  0  0  0
    8.2527    0.6266   26.7745 H   0  0  0  0  0  0  0  0  0  0  0  0
    6.7971    0.8183   23.0554 N   0  0  0  0  0  0  0  0  0  0  0  0
    7.3325   -0.2400   22.4019 N   0  0  0  0  0  0  0  0  0  0  0  0
    5.4898    0.7800   20.1966 C   0  0  0  0  0  0  0  0  0  0  0  0
    5.0762    0.8351   21.2034 H   0  0  0  0  0  0  0  0  0  0  0  0
    4.8325    1.3550   19.1096 C   0  0  0  0  0  0  0  0  0  0  0  0
    3.8911    1.8759   19.2330 H   0  0  0  0  0  0  0  0  0  0  0  0
  1  2  1  0
  2  3  2  0
  3  4  1  0
  4  5  1  0
  4  6  2  0
  6  7  1  0
  7  8  2  0
  8  9  1  0
  8 10  1  0
 10 11  1  0
 11 12  2  0
 12 13  1  0
 13 14  1  0
 14 15  2  0
 15 16  1  0
 15 17  1  0
 17 18  1  0
 17 19  2  0
 19 20  1  0
 19 21  1  0
 21 22  1  0
 22 23  2  0
 22 24  1  0
 24 25  1  0
 24 26  1  0
 24 27  1  0
 21 28  2  0
 28 29  1  0
 13 30  2  0
 30 31  1  0
  6 32  1  0
 32 33  1  0
 32 34  2  0
 34 35  1  0
 34  2  1  0
 31  7  1  0
 31 11  1  0
 28 14  1  0
M  END
>  <cnnaffinity>  (1) 
-5.19103

>  <filename>  (1) 
CC(=O)c1cccc(-c2nc3scc(-c4cccnc4)n3n2)c1

$$$$
