
     RDKit          3D

 26 27  0  0  0  0  0  0  0  0999 V2000
    4.9458    1.8020   17.0077 H   0  0  0  0  0  0  0  0  0  0  0  0
    5.4058    1.2801   17.8437 C   0  0  0  0  0  0  0  0  0  0  0  0
    6.5603    0.6422   17.5840 N   0  0  0  0  0  0  0  0  0  0  0  0
    7.1810    0.0186   18.5960 C   0  0  0  0  0  0  0  0  0  0  0  0
    8.1327   -0.4634   18.3713 H   0  0  0  0  0  0  0  0  0  0  0  0
    6.6580   -0.0250   19.9057 C   0  0  0  0  0  0  0  0  0  0  0  0
    7.3190   -0.7188   20.9713 N   0  0  0  0  0  0  0  0  0  0  0  0
    6.6996   -1.6766   21.7996 C   0  0  0  0  0  0  0  0  0  0  0  0
    5.6513   -1.9161   21.7421 H   0  0  0  0  0  0  0  0  0  0  0  0
    7.6451   -2.1175   22.6483 C   0  0  0  0  0  0  0  0  0  0  0  0
    7.6179   -3.0603   23.6641 N   0  0  0  0  0  0  0  0  0  0  0  0
    6.8161   -3.6614   23.7051 H   0  0  0  0  0  0  0  0  0  0  0  0
    8.5232   -3.1743   24.6907 C   0  0  0  0  0  0  0  0  0  0  0  0
    9.4542   -2.4053   24.8607 O   0  0  0  0  0  0  0  0  0  0  0  0
    8.2472   -4.3554   25.5805 C   0  0  0  0  0  0  0  0  0  0  0  0
    7.4214   -4.1209   26.2581 H   0  0  0  0  0  0  0  0  0  0  0  0
    7.9656   -5.2138   24.9683 H   0  0  0  0  0  0  0  0  0  0  0  0
    9.1446   -4.5840   26.1531 H   0  0  0  0  0  0  0  0  0  0  0  0
    8.8047   -1.4537   22.3708 N   0  0  0  0  0  0  0  0  0  0  0  0
    9.6288   -1.4820   22.9491 H   0  0  0  0  0  0  0  0  0  0  0  0
    8.6312   -0.5442   21.3773 C   0  0  0  0  0  0  0  0  0  0  0  0
    9.7890    0.5278   20.8761 S   0  0  0  0  0  0  0  0  0  0  0  0
    5.4502    0.6340   20.1573 C   0  0  0  0  0  0  0  0  0  0  0  0
    5.0488    0.6398   21.1738 H   0  0  0  0  0  0  0  0  0  0  0  0
    4.8083    1.3026   19.1101 C   0  0  0  0  0  0  0  0  0  0  0  0
    3.8796    1.8505   19.2634 H   0  0  0  0  0  0  0  0  0  0  0  0
  1  2  1  0
  2  3  2  0
  3  4  1  0
  4  5  1  0
  4  6  2  0
  6  7  1  0
  7  8  1  0
  8  9  1  0
  8 10  2  0
 10 11  1  0
 11 12  1  0
 11 13  1  0
 13 14  2  0
 13 15  1  0
 15 16  1  0
 15 17  1  0
 15 18  1  0
 10 19  1  0
 19 20  1  0
 19 21  1  0
 21 22  2  0
  6 23  1  0
 23 24  1  0
 23 25  2  0
 25 26  1  0
 25  2  1  0
 21  7  1  0
M  END
>  <cnnaffinity>  (1) 
-4.72083

>  <filename>  (1) 
CC(=O)Nc1cn(-c2cccnc2)c(=S)[nH]1

$$$$
