
     RDKit          3D

 29 30  0  0  0  0  0  0  0  0999 V2000
    4.9969    1.8827   17.0182 H   0  0  0  0  0  0  0  0  0  0  0  0
    5.4559    1.3054   17.8183 C   0  0  0  0  0  0  0  0  0  0  0  0
    6.6128    0.6941   17.5109 N   0  0  0  0  0  0  0  0  0  0  0  0
    7.2305    0.0021   18.4783 C   0  0  0  0  0  0  0  0  0  0  0  0
    8.1690   -0.4901   18.2122 H   0  0  0  0  0  0  0  0  0  0  0  0
    6.7172   -0.1246   19.7866 C   0  0  0  0  0  0  0  0  0  0  0  0
    7.4345   -0.8429   20.7971 N   0  0  0  0  0  0  0  0  0  0  0  0
    8.6984   -0.4724   21.2618 C   0  0  0  0  0  0  0  0  0  0  0  0
    9.1853    0.4248   20.9053 H   0  0  0  0  0  0  0  0  0  0  0  0
    9.0672   -1.3419   22.2319 C   0  0  0  0  0  0  0  0  0  0  0  0
   10.3653   -1.4545   22.9886 C   0  0  0  0  0  0  0  0  0  0  0  0
   11.1656   -1.0749   22.3433 H   0  0  0  0  0  0  0  0  0  0  0  0
   10.5855   -2.5115   23.1828 H   0  0  0  0  0  0  0  0  0  0  0  0
   10.4137   -0.7451   24.2660 N   0  0  0  0  0  0  0  0  0  0  0  0
    9.9949   -1.2187   25.0503 H   0  0  0  0  0  0  0  0  0  0  0  0
   10.3002    0.6237   24.3327 C   0  0  0  0  0  0  0  0  0  0  0  0
   10.3951    1.3428   23.3547 O   0  0  0  0  0  0  0  0  0  0  0  0
   10.0936    1.1006   25.7544 C   0  0  0  0  0  0  0  0  0  0  0  0
    9.2218    0.6150   26.2057 H   0  0  0  0  0  0  0  0  0  0  0  0
    9.9355    2.1758   25.7602 H   0  0  0  0  0  0  0  0  0  0  0  0
   10.9607    0.8503   26.3745 H   0  0  0  0  0  0  0  0  0  0  0  0
    7.9889   -2.2114   22.3727 N   0  0  0  0  0  0  0  0  0  0  0  0
    7.7932   -2.8478   23.1268 H   0  0  0  0  0  0  0  0  0  0  0  0
    6.9658   -1.9225   21.5196 C   0  0  0  0  0  0  0  0  0  0  0  0
    5.5410   -2.7828   21.4367 S   0  0  0  0  0  0  0  0  0  0  0  0
    5.4938    0.4907   20.0886 C   0  0  0  0  0  0  0  0  0  0  0  0
    5.0614    0.3979   21.0852 H   0  0  0  0  0  0  0  0  0  0  0  0
    4.8617    1.2337   19.0845 C   0  0  0  0  0  0  0  0  0  0  0  0
    3.9344    1.7676   19.2725 H   0  0  0  0  0  0  0  0  0  0  0  0
  1  2  1  0
  2  3  2  0
  3  4  1  0
  4  5  1  0
  4  6  2  0
  6  7  1  0
  7  8  1  0
  8  9  1  0
  8 10  2  0
 10 11  1  0
 11 12  1  0
 11 13  1  0
 11 14  1  0
 14 15  1  0
 14 16  1  0
 16 17  2  0
 16 18  1  0
 18 19  1  0
 18 20  1  0
 18 21  1  0
 10 22  1  0
 22 23  1  0
 22 24  1  0
 24 25  2  0
  6 26  1  0
 26 27  1  0
 26 28  2  0
 28 29  1  0
 28  2  1  0
 24  7  1  0
M  END
>  <cnnaffinity>  (1) 
-4.83794

>  <filename>  (1) 
CC(=O)NCc1cn(-c2cccnc2)c(=S)[nH]1

$$$$
