
     RDKit          3D

 32 33  0  0  0  0  0  0  0  0999 V2000
    4.9798    1.7551   17.0086 H   0  0  0  0  0  0  0  0  0  0  0  0
    5.4335    1.2710   17.8720 C   0  0  0  0  0  0  0  0  0  0  0  0
    6.5964    0.6383   17.6549 N   0  0  0  0  0  0  0  0  0  0  0  0
    7.1830    0.0402   18.6984 C   0  0  0  0  0  0  0  0  0  0  0  0
    8.1181   -0.4712   18.4744 H   0  0  0  0  0  0  0  0  0  0  0  0
    6.6566    0.0575   19.9980 C   0  0  0  0  0  0  0  0  0  0  0  0
    7.4206   -0.6721   21.0594 C   0  0  0  0  0  0  0  0  0  0  0  0
    8.0754   -1.6710   20.8060 O   0  0  0  0  0  0  0  0  0  0  0  0
    7.3495   -0.1660   22.3243 N   0  0  0  0  0  0  0  0  0  0  0  0
    8.0226   -0.7094   23.5006 C   0  0  0  0  0  0  0  0  0  0  0  0
    7.5823   -1.6426   23.8793 H   0  0  0  0  0  0  0  0  0  0  0  0
    9.0884   -0.9162   23.3423 H   0  0  0  0  0  0  0  0  0  0  0  0
    7.7015    0.6197   24.2358 C   0  0  0  0  0  0  0  0  0  0  0  0
    8.6032    1.1500   24.5658 H   0  0  0  0  0  0  0  0  0  0  0  0
    6.7579    0.5647   25.4259 C   0  0  0  0  0  0  0  0  0  0  0  0
    6.5433    1.5909   25.7571 H   0  0  0  0  0  0  0  0  0  0  0  0
    7.2696    0.0717   26.2646 H   0  0  0  0  0  0  0  0  0  0  0  0
    5.5055   -0.1246   25.1440 N   0  0  0  0  0  0  0  0  0  0  0  0
    5.3401   -0.5361   24.2382 H   0  0  0  0  0  0  0  0  0  0  0  0
    4.5536   -0.2614   26.1090 C   0  0  0  0  0  0  0  0  0  0  0  0
    4.7138    0.1965   27.2253 O   0  0  0  0  0  0  0  0  0  0  0  0
    3.3015   -1.0000   25.7112 C   0  0  0  0  0  0  0  0  0  0  0  0
    2.6237   -0.9677   26.5633 H   0  0  0  0  0  0  0  0  0  0  0  0
    3.5188   -2.0401   25.4574 H   0  0  0  0  0  0  0  0  0  0  0  0
    2.8157   -0.5310   24.8552 H   0  0  0  0  0  0  0  0  0  0  0  0
    7.1310    1.1706   22.8990 C   0  0  0  0  0  0  0  0  0  0  0  0
    6.0809    1.4948   22.9016 H   0  0  0  0  0  0  0  0  0  0  0  0
    7.7080    1.9780   22.4263 H   0  0  0  0  0  0  0  0  0  0  0  0
    5.4236    0.6970   20.2027 C   0  0  0  0  0  0  0  0  0  0  0  0
    4.9336    0.6961   21.1774 H   0  0  0  0  0  0  0  0  0  0  0  0
    4.8060    1.3186   19.1213 C   0  0  0  0  0  0  0  0  0  0  0  0
    3.8587    1.8365   19.2368 H   0  0  0  0  0  0  0  0  0  0  0  0
  1  2  1  0
  2  3  2  0
  3  4  1  0
  4  5  1  0
  4  6  2  0
  6  7  1  0
  7  8  2  0
  7  9  1  0
  9 10  1  0
 10 11  1  0
 10 12  1  0
 10 13  1  0
 13 14  1  0
 13 15  1  0
 15 16  1  0
 15 17  1  0
 15 18  1  0
 18 19  1  0
 18 20  1  0
 20 21  2  0
 20 22  1  0
 22 23  1  0
 22 24  1  0
 22 25  1  0
 13 26  1  0
 26 27  1  0
 26 28  1  0
  6 29  1  0
 29 30  1  0
 29 31  2  0
 31 32  1  0
 31  2  1  0
 26  9  1  0
M  END
>  <cnnaffinity>  (1) 
-4.03729

>  <filename>  (1) 
CC(=O)NCC1CN(C(=O)c2cccnc2)C1

$$$$
