
     RDKit          3D

 34 36  0  0  0  0  0  0  0  0999 V2000
    4.9630    1.8213   16.9008 H   0  0  0  0  0  0  0  0  0  0  0  0
    5.4129    1.3131   17.7499 C   0  0  0  0  0  0  0  0  0  0  0  0
    6.5766    0.6820   17.5206 N   0  0  0  0  0  0  0  0  0  0  0  0
    7.1540    0.0627   18.5556 C   0  0  0  0  0  0  0  0  0  0  0  0
    8.1051   -0.4256   18.3470 H   0  0  0  0  0  0  0  0  0  0  0  0
    6.6188    0.0341   19.8572 C   0  0  0  0  0  0  0  0  0  0  0  0
    7.3206   -0.6021   20.9641 C   0  0  0  0  0  0  0  0  0  0  0  0
    7.2218   -0.3999   22.2963 C   0  0  0  0  0  0  0  0  0  0  0  0
    6.5729    0.2593   22.8507 H   0  0  0  0  0  0  0  0  0  0  0  0
    8.1082   -1.2625   22.9357 N   0  0  0  0  0  0  0  0  0  0  0  0
    8.3092   -1.3899   24.3331 C   0  0  0  0  0  0  0  0  0  0  0  0
    8.3199   -0.2541   25.1482 C   0  0  0  0  0  0  0  0  0  0  0  0
    8.1747    0.7325   24.7149 H   0  0  0  0  0  0  0  0  0  0  0  0
    8.5321   -0.4083   26.5205 C   0  0  0  0  0  0  0  0  0  0  0  0
    8.5517    0.4636   27.1708 H   0  0  0  0  0  0  0  0  0  0  0  0
    8.6828   -1.6791   27.0758 C   0  0  0  0  0  0  0  0  0  0  0  0
    8.8316   -1.7505   28.1428 H   0  0  0  0  0  0  0  0  0  0  0  0
    8.6205   -2.8354   26.2700 C   0  0  0  0  0  0  0  0  0  0  0  0
    8.5916   -4.2273   26.8858 C   0  0  0  0  0  0  0  0  0  0  0  0
    8.2929   -4.4080   28.0458 O   0  0  0  0  0  0  0  0  0  0  0  0
    8.8749   -5.4130   25.9859 C   0  0  0  0  0  0  0  0  0  0  0  0
    9.6847   -5.2002   25.2846 H   0  0  0  0  0  0  0  0  0  0  0  0
    7.9718   -5.6432   25.4093 H   0  0  0  0  0  0  0  0  0  0  0  0
    9.1229   -6.2866   26.5882 H   0  0  0  0  0  0  0  0  0  0  0  0
    8.4918   -2.6640   24.8838 C   0  0  0  0  0  0  0  0  0  0  0  0
    8.5431   -3.4927   24.1874 H   0  0  0  0  0  0  0  0  0  0  0  0
    8.7195   -2.0747   21.9857 C   0  0  0  0  0  0  0  0  0  0  0  0
    9.4319   -3.0460   22.1351 O   0  0  0  0  0  0  0  0  0  0  0  0
    8.2969   -1.5748   20.7794 N   0  0  0  0  0  0  0  0  0  0  0  0
    8.4334   -2.1706   19.9832 H   0  0  0  0  0  0  0  0  0  0  0  0
    5.3902    0.6826   20.0684 C   0  0  0  0  0  0  0  0  0  0  0  0
    4.9300    0.6698   21.0566 H   0  0  0  0  0  0  0  0  0  0  0  0
    4.7820    1.3311   18.9975 C   0  0  0  0  0  0  0  0  0  0  0  0
    3.8472    1.8629   19.1208 H   0  0  0  0  0  0  0  0  0  0  0  0
  1  2  1  0
  2  3  2  0
  3  4  1  0
  4  5  1  0
  4  6  2  0
  6  7  1  0
  7  8  2  0
  8  9  1  0
  8 10  1  0
 10 11  1  0
 11 12  2  0
 12 13  1  0
 12 14  1  0
 14 15  1  0
 14 16  2  0
 16 17  1  0
 16 18  1  0
 18 19  1  0
 19 20  2  0
 19 21  1  0
 21 22  1  0
 21 23  1  0
 21 24  1  0
 18 25  2  0
 25 26  1  0
 10 27  1  0
 27 28  2  0
 27 29  1  0
 29 30  1  0
  6 31  1  0
 31 32  1  0
 31 33  2  0
 33 34  1  0
 33  2  1  0
 29  7  1  0
 25 11  1  0
M  END
>  <cnnaffinity>  (1) 
-5.32134

>  <filename>  (1) 
CC(=O)c1cccc(-n2cc(-c3cccnc3)[nH]c2=O)c1

$$$$
