
     RDKit          3D

 33 35  0  0  0  0  0  0  0  0999 V2000
    4.9263    1.7797   17.0006 H   0  0  0  0  0  0  0  0  0  0  0  0
    5.4061    1.2915   17.8448 C   0  0  0  0  0  0  0  0  0  0  0  0
    6.5700    0.6713   17.5916 N   0  0  0  0  0  0  0  0  0  0  0  0
    7.1703    0.0476   18.6083 C   0  0  0  0  0  0  0  0  0  0  0  0
    8.1165   -0.4401   18.3789 H   0  0  0  0  0  0  0  0  0  0  0  0
    6.6533    0.0218   19.9130 C   0  0  0  0  0  0  0  0  0  0  0  0
    7.3647   -0.6814   20.9660 C   0  0  0  0  0  0  0  0  0  0  0  0
    7.9627   -1.8868   20.7288 N   0  0  0  0  0  0  0  0  0  0  0  0
    8.3893   -2.2638   21.9017 C   0  0  0  0  0  0  0  0  0  0  0  0
    9.2203   -3.6343   22.5775 S   0  0  0  0  0  0  0  0  0  0  0  0
    9.2928   -2.8572   24.1378 C   0  0  0  0  0  0  0  0  0  0  0  0
    9.7994   -3.3644   24.9507 H   0  0  0  0  0  0  0  0  0  0  0  0
    8.6733   -1.6703   24.1417 C   0  0  0  0  0  0  0  0  0  0  0  0
    8.5534   -0.9633   24.9490 H   0  0  0  0  0  0  0  0  0  0  0  0
    8.1450   -1.3634   22.8940 N   0  0  0  0  0  0  0  0  0  0  0  0
    7.4791   -0.3028   22.2982 C   0  0  0  0  0  0  0  0  0  0  0  0
    7.1395    0.9355   22.9927 C   0  0  0  0  0  0  0  0  0  0  0  0
    6.7137    0.8091   24.2087 N   0  0  0  0  0  0  0  0  0  0  0  0
    6.3390    1.8772   24.9801 N   0  0  0  0  0  0  0  0  0  0  0  0
    6.2792    2.8430   24.6828 H   0  0  0  0  0  0  0  0  0  0  0  0
    5.9282    1.7789   26.2844 C   0  0  0  0  0  0  0  0  0  0  0  0
    5.4582    3.1400   27.1189 S   0  0  0  0  0  0  0  0  0  0  0  0
    5.9262    0.5755   26.8502 N   0  0  0  0  0  0  0  0  0  0  0  0
    5.6212    0.5555   27.8069 H   0  0  0  0  0  0  0  0  0  0  0  0
    6.1876   -0.2302   26.3060 H   0  0  0  0  0  0  0  0  0  0  0  0
    7.3318    2.2563   22.2640 C   0  0  0  0  0  0  0  0  0  0  0  0
    7.8149    2.0952   21.2952 H   0  0  0  0  0  0  0  0  0  0  0  0
    7.9619    2.9392   22.8486 H   0  0  0  0  0  0  0  0  0  0  0  0
    6.3705    2.7469   22.0756 H   0  0  0  0  0  0  0  0  0  0  0  0
    5.4320    0.6651   20.1624 C   0  0  0  0  0  0  0  0  0  0  0  0
    4.9968    0.6419   21.1626 H   0  0  0  0  0  0  0  0  0  0  0  0
    4.8039    1.3143   19.1059 C   0  0  0  0  0  0  0  0  0  0  0  0
    3.8721    1.8429   19.2552 H   0  0  0  0  0  0  0  0  0  0  0  0
  1  2  1  0
  2  3  2  0
  3  4  1  0
  4  5  1  0
  4  6  2  0
  6  7  1  0
  7  8  1  0
  8  9  2  0
  9 10  1  0
 10 11  1  0
 11 12  1  0
 11 13  2  0
 13 14  1  0
 13 15  1  0
 15 16  1  0
 16 17  1  0
 17 18  2  3
 18 19  1  0
 19 20  1  0
 19 21  1  0
 21 22  2  0
 21 23  1  0
 23 24  1  0
 23 25  1  0
 17 26  1  0
 26 27  1  0
 26 28  1  0
 26 29  1  0
  6 30  1  0
 30 31  1  0
 30 32  2  0
 32 33  1  0
 32  2  1  0
 16  7  2  0
 15  9  1  0
M  END
>  <cnnaffinity>  (1) 
-5.24736

>  <filename>  (1) 
CC(=NNC(N)=S)c1c(-c2cccnc2)nc2sccn12

$$$$
