
     RDKit          3D

 36 38  0  0  0  0  0  0  0  0999 V2000
    4.9376    1.8063   16.9674 H   0  0  0  0  0  0  0  0  0  0  0  0
    5.4053    1.3052   17.8106 C   0  0  0  0  0  0  0  0  0  0  0  0
    6.5659    0.6815   17.5612 N   0  0  0  0  0  0  0  0  0  0  0  0
    7.1744    0.0640   18.5814 C   0  0  0  0  0  0  0  0  0  0  0  0
    8.1086   -0.4288   18.3219 H   0  0  0  0  0  0  0  0  0  0  0  0
    6.6675    0.0161   19.8945 C   0  0  0  0  0  0  0  0  0  0  0  0
    7.3507   -0.7080   20.9763 C   0  0  0  0  0  0  0  0  0  0  0  0
    6.8357   -1.2412   22.1089 C   0  0  0  0  0  0  0  0  0  0  0  0
    5.8297   -1.3021   22.4569 H   0  0  0  0  0  0  0  0  0  0  0  0
    7.8481   -1.8340   22.8550 N   0  0  0  0  0  0  0  0  0  0  0  0
    7.6751   -2.4773   24.1175 C   0  0  0  0  0  0  0  0  0  0  0  0
    6.5087   -3.2181   24.3682 C   0  0  0  0  0  0  0  0  0  0  0  0
    5.7443   -3.2912   23.5985 H   0  0  0  0  0  0  0  0  0  0  0  0
    6.3336   -3.8848   25.5813 C   0  0  0  0  0  0  0  0  0  0  0  0
    5.4494   -4.4823   25.7757 H   0  0  0  0  0  0  0  0  0  0  0  0
    7.3216   -3.8015   26.5744 C   0  0  0  0  0  0  0  0  0  0  0  0
    7.1675   -4.4897   27.7979 N   0  0  0  0  0  0  0  0  0  0  0  0
    7.6062   -4.0925   28.6074 H   0  0  0  0  0  0  0  0  0  0  0  0
    6.5320   -5.6947   27.9716 C   0  0  0  0  0  0  0  0  0  0  0  0
    6.1480   -6.3787   27.0459 O   0  0  0  0  0  0  0  0  0  0  0  0
    6.3255   -6.1056   29.4086 C   0  0  0  0  0  0  0  0  0  0  0  0
    5.5256   -6.8456   29.4045 H   0  0  0  0  0  0  0  0  0  0  0  0
    6.0458   -5.2643   30.0453 H   0  0  0  0  0  0  0  0  0  0  0  0
    7.2323   -6.5621   29.8097 H   0  0  0  0  0  0  0  0  0  0  0  0
    8.4677   -3.0240   26.3515 C   0  0  0  0  0  0  0  0  0  0  0  0
    9.2286   -2.9626   27.1293 H   0  0  0  0  0  0  0  0  0  0  0  0
    8.6535   -2.3778   25.1216 C   0  0  0  0  0  0  0  0  0  0  0  0
    9.5504   -1.8045   24.9118 H   0  0  0  0  0  0  0  0  0  0  0  0
    9.0566   -1.6663   22.1728 C   0  0  0  0  0  0  0  0  0  0  0  0
   10.1840   -1.9900   22.4892 O   0  0  0  0  0  0  0  0  0  0  0  0
    8.7080   -1.0217   21.0092 N   0  0  0  0  0  0  0  0  0  0  0  0
    9.4747   -0.7122   20.4395 H   0  0  0  0  0  0  0  0  0  0  0  0
    5.4405    0.6726   20.1255 C   0  0  0  0  0  0  0  0  0  0  0  0
    5.0005    0.6832   21.1250 H   0  0  0  0  0  0  0  0  0  0  0  0
    4.8029    1.3247   19.0714 C   0  0  0  0  0  0  0  0  0  0  0  0
    3.8659    1.8508   19.2118 H   0  0  0  0  0  0  0  0  0  0  0  0
  1  2  1  0
  2  3  2  0
  3  4  1  0
  4  5  1  0
  4  6  2  0
  6  7  1  0
  7  8  2  0
  8  9  1  0
  8 10  1  0
 10 11  1  0
 11 12  2  0
 12 13  1  0
 12 14  1  0
 14 15  1  0
 14 16  2  0
 16 17  1  0
 17 18  1  0
 17 19  1  0
 19 20  2  0
 19 21  1  0
 21 22  1  0
 21 23  1  0
 21 24  1  0
 16 25  1  0
 25 26  1  0
 25 27  2  0
 27 28  1  0
 10 29  1  0
 29 30  2  0
 29 31  1  0
 31 32  1  0
  6 33  1  0
 33 34  1  0
 33 35  2  0
 35 36  1  0
 35  2  1  0
 31  7  1  0
 27 11  1  0
M  END
>  <cnnaffinity>  (1) 
-5.25139

>  <filename>  (1) 
CC(=O)Nc1ccc(-n2cc(-c3cccnc3)[nH]c2=O)cc1

$$$$
