
     RDKit          3D

 38 40  0  0  0  0  0  0  0  0999 V2000
    5.1280    1.8267   16.9601 H   0  0  0  0  0  0  0  0  0  0  0  0
    5.4882    1.2580   17.8163 C   0  0  0  0  0  0  0  0  0  0  0  0
    6.5983    0.5316   17.6191 N   0  0  0  0  0  0  0  0  0  0  0  0
    7.0717   -0.1592   18.6628 C   0  0  0  0  0  0  0  0  0  0  0  0
    7.9699   -0.7477   18.4772 H   0  0  0  0  0  0  0  0  0  0  0  0
    6.4984   -0.1477   19.9448 C   0  0  0  0  0  0  0  0  0  0  0  0
    7.2129   -0.7973   21.0510 C   0  0  0  0  0  0  0  0  0  0  0  0
    6.5706   -1.5001   21.9918 N   0  0  0  0  0  0  0  0  0  0  0  0
    7.5394   -1.8192   22.8567 N   0  0  0  0  0  0  0  0  0  0  0  0
    8.7450   -1.3342   22.5401 C   0  0  0  0  0  0  0  0  0  0  0  0
    8.6126   -0.6811   21.3313 C   0  0  0  0  0  0  0  0  0  0  0  0
    9.6416    0.2406   20.7356 C   0  0  0  0  0  0  0  0  0  0  0  0
    9.4810    0.3632   19.6623 H   0  0  0  0  0  0  0  0  0  0  0  0
   10.6499   -0.1765   20.8695 H   0  0  0  0  0  0  0  0  0  0  0  0
    9.6045    1.6262   21.3940 C   0  0  0  0  0  0  0  0  0  0  0  0
    9.6346    1.4885   22.4808 H   0  0  0  0  0  0  0  0  0  0  0  0
    8.6545    2.1139   21.1505 H   0  0  0  0  0  0  0  0  0  0  0  0
   10.7020    2.4822   20.9828 N   0  0  0  0  0  0  0  0  0  0  0  0
   10.4805    3.2250   20.3339 H   0  0  0  0  0  0  0  0  0  0  0  0
   11.7923    2.7512   21.7639 C   0  0  0  0  0  0  0  0  0  0  0  0
   12.0949    2.1008   22.7451 O   0  0  0  0  0  0  0  0  0  0  0  0
   12.5590    3.9601   21.2733 C   0  0  0  0  0  0  0  0  0  0  0  0
   12.6650    3.9376   20.1871 H   0  0  0  0  0  0  0  0  0  0  0  0
   13.5454    4.0024   21.7283 H   0  0  0  0  0  0  0  0  0  0  0  0
   12.0102    4.8698   21.5353 H   0  0  0  0  0  0  0  0  0  0  0  0
    9.6938   -1.4928   23.6822 C   0  0  0  0  0  0  0  0  0  0  0  0
   10.5762   -2.0522   23.3726 H   0  0  0  0  0  0  0  0  0  0  0  0
   10.0539   -0.5192   24.0303 H   0  0  0  0  0  0  0  0  0  0  0  0
    8.8489   -2.2282   24.7586 C   0  0  0  0  0  0  0  0  0  0  0  0
    9.2719   -3.2076   24.9728 H   0  0  0  0  0  0  0  0  0  0  0  0
    8.8062   -1.6673   25.6921 H   0  0  0  0  0  0  0  0  0  0  0  0
    7.4125   -2.3867   24.1793 C   0  0  0  0  0  0  0  0  0  0  0  0
    6.6594   -1.8263   24.7362 H   0  0  0  0  0  0  0  0  0  0  0  0
    7.0794   -3.4243   24.1205 H   0  0  0  0  0  0  0  0  0  0  0  0
    5.2892    0.5491   20.1079 C   0  0  0  0  0  0  0  0  0  0  0  0
    4.7736    0.5177   21.0702 H   0  0  0  0  0  0  0  0  0  0  0  0
    4.7935    1.2827   19.0304 C   0  0  0  0  0  0  0  0  0  0  0  0
    3.8868    1.8691   19.1187 H   0  0  0  0  0  0  0  0  0  0  0  0
  1  2  1  0
  2  3  2  0
  3  4  1  0
  4  5  1  0
  4  6  2  0
  6  7  1  0
  7  8  2  0
  8  9  1  0
  9 10  1  0
 10 11  2  0
 11 12  1  0
 12 13  1  0
 12 14  1  0
 12 15  1  0
 15 16  1  0
 15 17  1  0
 15 18  1  0
 18 19  1  0
 18 20  1  0
 20 21  2  0
 20 22  1  0
 22 23  1  0
 22 24  1  0
 22 25  1  0
 10 26  1  0
 26 27  1  0
 26 28  1  0
 26 29  1  0
 29 30  1  0
 29 31  1  0
 29 32  1  0
 32 33  1  0
 32 34  1  0
  6 35  1  0
 35 36  1  0
 35 37  2  0
 37 38  1  0
 37  2  1  0
 11  7  1  0
 32  9  1  0
M  END
>  <cnnaffinity>  (1) 
-5.4613

>  <filename>  (1) 
CC(=O)NCCc1c(-c2cccnc2)nn2c1CCC2

$$$$
