
     RDKit          3D

 36 38  0  0  0  0  0  0  0  0999 V2000
    4.9529    1.8609   16.9544 H   0  0  0  0  0  0  0  0  0  0  0  0
    5.4173    1.3385   17.7901 C   0  0  0  0  0  0  0  0  0  0  0  0
    6.5801    0.7186   17.5290 N   0  0  0  0  0  0  0  0  0  0  0  0
    7.1764    0.0721   18.5396 C   0  0  0  0  0  0  0  0  0  0  0  0
    8.1195   -0.4204   18.3079 H   0  0  0  0  0  0  0  0  0  0  0  0
    6.6401   -0.0169   19.8420 C   0  0  0  0  0  0  0  0  0  0  0  0
    7.3276   -0.7151   20.9045 N   0  0  0  0  0  0  0  0  0  0  0  0
    8.5824   -0.2636   21.2610 C   0  0  0  0  0  0  0  0  0  0  0  0
    8.9488    0.5866   20.6948 H   0  0  0  0  0  0  0  0  0  0  0  0
    9.3440   -0.8388   22.2356 C   0  0  0  0  0  0  0  0  0  0  0  0
   10.7401   -0.3435   22.4653 C   0  0  0  0  0  0  0  0  0  0  0  0
   11.8348   -1.2254   22.4014 C   0  0  0  0  0  0  0  0  0  0  0  0
   11.6675   -2.2762   22.1648 H   0  0  0  0  0  0  0  0  0  0  0  0
   13.1348   -0.7636   22.6407 C   0  0  0  0  0  0  0  0  0  0  0  0
   13.9619   -1.4696   22.6795 H   0  0  0  0  0  0  0  0  0  0  0  0
   13.3661    0.5846   22.9054 C   0  0  0  0  0  0  0  0  0  0  0  0
   14.3778    0.9325   23.1008 H   0  0  0  0  0  0  0  0  0  0  0  0
   12.2987    1.5068   22.9168 C   0  0  0  0  0  0  0  0  0  0  0  0
   12.5944    2.9810   23.1220 C   0  0  0  0  0  0  0  0  0  0  0  0
   13.6767    3.3632   23.5192 O   0  0  0  0  0  0  0  0  0  0  0  0
   11.5203    3.9883   22.8011 C   0  0  0  0  0  0  0  0  0  0  0  0
   10.6815    3.8996   23.4956 H   0  0  0  0  0  0  0  0  0  0  0  0
   11.1446    3.7903   21.7987 H   0  0  0  0  0  0  0  0  0  0  0  0
   11.9363    4.9956   22.8652 H   0  0  0  0  0  0  0  0  0  0  0  0
   10.9929    1.0216   22.7035 C   0  0  0  0  0  0  0  0  0  0  0  0
   10.1399    1.7010   22.7185 H   0  0  0  0  0  0  0  0  0  0  0  0
    8.7682   -1.9321   22.9686 C   0  0  0  0  0  0  0  0  0  0  0  0
    9.3420   -2.4040   23.7677 H   0  0  0  0  0  0  0  0  0  0  0  0
    7.5130   -2.3757   22.6750 C   0  0  0  0  0  0  0  0  0  0  0  0
    7.0306   -3.1978   23.1838 H   0  0  0  0  0  0  0  0  0  0  0  0
    6.7031   -1.8145   21.6001 C   0  0  0  0  0  0  0  0  0  0  0  0
    5.6125   -2.2571   21.2867 O   0  0  0  0  0  0  0  0  0  0  0  0
    5.4301    0.6332   20.0992 C   0  0  0  0  0  0  0  0  0  0  0  0
    5.0055    0.6001   21.1012 H   0  0  0  0  0  0  0  0  0  0  0  0
    4.8113    1.3237   19.0508 C   0  0  0  0  0  0  0  0  0  0  0  0
    3.8795    1.8564   19.2013 H   0  0  0  0  0  0  0  0  0  0  0  0
  1  2  1  0
  2  3  2  0
  3  4  1  0
  4  5  1  0
  4  6  2  0
  6  7  1  0
  7  8  1  0
  8  9  1  0
  8 10  2  0
 10 11  1  0
 11 12  2  0
 12 13  1  0
 12 14  1  0
 14 15  1  0
 14 16  2  0
 16 17  1  0
 16 18  1  0
 18 19  1  0
 19 20  2  0
 19 21  1  0
 21 22  1  0
 21 23  1  0
 21 24  1  0
 18 25  2  0
 25 26  1  0
 10 27  1  0
 27 28  1  0
 27 29  2  0
 29 30  1  0
 29 31  1  0
 31 32  2  0
  6 33  1  0
 33 34  1  0
 33 35  2  0
 35 36  1  0
 35  2  1  0
 31  7  1  0
 25 11  1  0
M  END
>  <cnnaffinity>  (1) 
-5.75887

>  <filename>  (1) 
CC(=O)c1cccc(-c2ccc(=O)n(-c3cccnc3)c2)c1

$$$$
