
     RDKit          3D

 39 41  0  0  0  0  0  0  0  0999 V2000
    4.9533    1.7701   17.0318 H   0  0  0  0  0  0  0  0  0  0  0  0
    5.4283    1.2658   17.8686 C   0  0  0  0  0  0  0  0  0  0  0  0
    6.5926    0.6474   17.6054 N   0  0  0  0  0  0  0  0  0  0  0  0
    7.2040    0.0277   18.6244 C   0  0  0  0  0  0  0  0  0  0  0  0
    8.1524   -0.4470   18.3766 H   0  0  0  0  0  0  0  0  0  0  0  0
    6.7037   -0.0352   19.9624 C   0  0  0  0  0  0  0  0  0  0  0  0
    7.3644   -0.6860   20.9778 N   0  0  0  0  0  0  0  0  0  0  0  0
    7.0442   -0.8782   22.3782 C   0  0  0  0  0  0  0  0  0  0  0  0
    6.9901    0.0383   22.9771 H   0  0  0  0  0  0  0  0  0  0  0  0
    6.1271   -1.4428   22.5747 H   0  0  0  0  0  0  0  0  0  0  0  0
    8.3594   -1.7031   22.5041 C   0  0  0  0  0  0  0  0  0  0  0  0
    9.1065   -1.2637   23.1738 H   0  0  0  0  0  0  0  0  0  0  0  0
    8.2039   -3.1790   22.8630 C   0  0  0  0  0  0  0  0  0  0  0  0
    8.6478   -4.0474   22.1351 O   0  0  0  0  0  0  0  0  0  0  0  0
    7.4890   -3.5393   24.1574 C   0  0  0  0  0  0  0  0  0  0  0  0
    7.0626   -4.8726   24.3476 C   0  0  0  0  0  0  0  0  0  0  0  0
    7.2612   -5.6079   23.5727 H   0  0  0  0  0  0  0  0  0  0  0  0
    6.3904   -5.2443   25.5126 C   0  0  0  0  0  0  0  0  0  0  0  0
    6.0664   -6.2747   25.6431 H   0  0  0  0  0  0  0  0  0  0  0  0
    6.1357   -4.3037   26.5174 C   0  0  0  0  0  0  0  0  0  0  0  0
    5.6195   -4.5853   27.4290 H   0  0  0  0  0  0  0  0  0  0  0  0
    6.5491   -2.9792   26.3415 C   0  0  0  0  0  0  0  0  0  0  0  0
    6.2895   -2.0174   27.3456 N   0  0  0  0  0  0  0  0  0  0  0  0
    6.2181   -2.3342   28.2935 H   0  0  0  0  0  0  0  0  0  0  0  0
    5.9986   -0.6983   27.1121 C   0  0  0  0  0  0  0  0  0  0  0  0
    5.7934   -0.2529   25.9987 O   0  0  0  0  0  0  0  0  0  0  0  0
    5.9399    0.1859   28.3372 C   0  0  0  0  0  0  0  0  0  0  0  0
    6.7119   -0.0414   29.0756 H   0  0  0  0  0  0  0  0  0  0  0  0
    6.0723    1.2101   27.9871 H   0  0  0  0  0  0  0  0  0  0  0  0
    4.9651    0.1114   28.8277 H   0  0  0  0  0  0  0  0  0  0  0  0
    7.2353   -2.6052   25.1796 C   0  0  0  0  0  0  0  0  0  0  0  0
    7.5472   -1.5666   25.1264 H   0  0  0  0  0  0  0  0  0  0  0  0
    8.6189   -1.4154   21.0051 C   0  0  0  0  0  0  0  0  0  0  0  0
    9.5048   -0.8174   20.7647 H   0  0  0  0  0  0  0  0  0  0  0  0
    8.6590   -2.3048   20.3795 H   0  0  0  0  0  0  0  0  0  0  0  0
    5.4743    0.6201   20.1972 C   0  0  0  0  0  0  0  0  0  0  0  0
    5.0327    0.6177   21.1936 H   0  0  0  0  0  0  0  0  0  0  0  0
    4.8393    1.2770   19.1388 C   0  0  0  0  0  0  0  0  0  0  0  0
    3.9029    1.8108   19.2882 H   0  0  0  0  0  0  0  0  0  0  0  0
  1  2  1  0
  2  3  2  0
  3  4  1  0
  4  5  1  0
  4  6  2  0
  6  7  1  0
  7  8  1  0
  8  9  1  0
  8 10  1  0
  8 11  1  0
 11 12  1  0
 11 13  1  0
 13 14  2  0
 13 15  1  0
 15 16  2  0
 16 17  1  0
 16 18  1  0
 18 19  1  0
 18 20  2  0
 20 21  1  0
 20 22  1  0
 22 23  1  0
 23 24  1  0
 23 25  1  0
 25 26  2  0
 25 27  1  0
 27 28  1  0
 27 29  1  0
 27 30  1  0
 22 31  2  0
 31 32  1  0
 11 33  1  0
 33 34  1  0
 33 35  1  0
  6 36  1  0
 36 37  1  0
 36 38  2  0
 38 39  1  0
 38  2  1  0
 33  7  1  0
 31 15  1  0
M  END
>  <cnnaffinity>  (1) 
-5.20958

>  <filename>  (1) 
CC(=O)Nc1cccc(C(=O)C2CN(c3cccnc3)C2)c1

$$$$
