
     RDKit          3D

 39 41  0  0  0  0  0  0  0  0999 V2000
    4.9405    1.8583   16.9303 H   0  0  0  0  0  0  0  0  0  0  0  0
    5.4015    1.3324   17.7659 C   0  0  0  0  0  0  0  0  0  0  0  0
    6.5609    0.7062   17.5065 N   0  0  0  0  0  0  0  0  0  0  0  0
    7.1503    0.0671   18.5241 C   0  0  0  0  0  0  0  0  0  0  0  0
    8.0970   -0.4189   18.2854 H   0  0  0  0  0  0  0  0  0  0  0  0
    6.6368    0.0004   19.8338 C   0  0  0  0  0  0  0  0  0  0  0  0
    7.3861   -0.6896   20.9501 C   0  0  2  0  0  0  0  0  0  0  0  0
    8.2832   -1.1356   20.4955 H   0  0  0  0  0  0  0  0  0  0  0  0
    6.6018   -1.8184   21.6739 C   0  0  0  0  0  0  0  0  0  0  0  0
    5.5673   -1.9163   21.3208 H   0  0  0  0  0  0  0  0  0  0  0  0
    7.0861   -2.7852   21.5017 H   0  0  0  0  0  0  0  0  0  0  0  0
    6.6285   -1.4665   23.0824 N   0  0  0  0  0  0  0  0  0  0  0  0
    5.8716   -1.7247   23.6996 H   0  0  0  0  0  0  0  0  0  0  0  0
    7.0708   -0.1959   23.3222 C   0  0  0  0  0  0  0  0  0  0  0  0
    6.8697    0.4055   24.3512 O   0  0  0  0  0  0  0  0  0  0  0  0
    7.8072    0.2883   22.0872 C   0  0  1  0  0  0  0  0  0  0  0  0
    7.4702    1.3196   21.9306 H   0  0  0  0  0  0  0  0  0  0  0  0
    9.3059    0.2856   22.2911 C   0  0  0  0  0  0  0  0  0  0  0  0
    9.9635   -0.9205   22.5887 C   0  0  0  0  0  0  0  0  0  0  0  0
    9.4031   -1.8310   22.7821 H   0  0  0  0  0  0  0  0  0  0  0  0
   11.3537   -0.9744   22.6559 C   0  0  0  0  0  0  0  0  0  0  0  0
   11.8490   -1.9334   22.7978 H   0  0  0  0  0  0  0  0  0  0  0  0
   12.1035    0.1871   22.4704 C   0  0  0  0  0  0  0  0  0  0  0  0
   13.1814    0.1819   22.5703 H   0  0  0  0  0  0  0  0  0  0  0  0
   11.4477    1.3922   22.1759 C   0  0  0  0  0  0  0  0  0  0  0  0
   12.1907    2.5712   21.9865 N   0  0  0  0  0  0  0  0  0  0  0  0
   11.8801    3.2206   21.2886 H   0  0  0  0  0  0  0  0  0  0  0  0
   13.2541    2.9394   22.7588 C   0  0  0  0  0  0  0  0  0  0  0  0
   13.6041    2.3028   23.7317 O   0  0  0  0  0  0  0  0  0  0  0  0
   13.9073    4.2195   22.3080 C   0  0  0  0  0  0  0  0  0  0  0  0
   13.3822    5.0651   22.7514 H   0  0  0  0  0  0  0  0  0  0  0  0
   13.8928    4.3387   21.2231 H   0  0  0  0  0  0  0  0  0  0  0  0
   14.9311    4.2338   22.6641 H   0  0  0  0  0  0  0  0  0  0  0  0
   10.0553    1.4426   22.0731 C   0  0  0  0  0  0  0  0  0  0  0  0
    9.5536    2.3817   21.8362 H   0  0  0  0  0  0  0  0  0  0  0  0
    5.4164    0.6435   20.0725 C   0  0  0  0  0  0  0  0  0  0  0  0
    4.9783    0.6341   21.0722 H   0  0  0  0  0  0  0  0  0  0  0  0
    4.7874    1.3170   19.0231 C   0  0  0  0  0  0  0  0  0  0  0  0
    3.8540    1.8498   19.1719 H   0  0  0  0  0  0  0  0  0  0  0  0
  1  2  1  0
  2  3  2  0
  3  4  1  0
  4  5  1  0
  4  6  2  0
  6  7  1  0
  7  8  1  6
  7  9  1  0
  9 10  1  0
  9 11  1  0
  9 12  1  0
 12 13  1  0
 12 14  1  0
 14 15  2  0
 14 16  1  0
 16 17  1  6
 16 18  1  0
 18 19  2  0
 19 20  1  0
 19 21  1  0
 21 22  1  0
 21 23  2  0
 23 24  1  0
 23 25  1  0
 25 26  1  0
 26 27  1  0
 26 28  1  0
 28 29  2  0
 28 30  1  0
 30 31  1  0
 30 32  1  0
 30 33  1  0
 25 34  2  0
 34 35  1  0
  6 36  1  0
 36 37  1  0
 36 38  2  0
 38 39  1  0
 38  2  1  0
 16  7  1  0
 34 18  1  0
M  END
>  <cnnaffinity>  (1) 
-5.76804

>  <filename>  (1) 
CC(=O)Nc1cccc([C@@H]2C(=O)NC[C@H]2c2cccnc2)c1

$$$$
