
     RDKit          3D

 37 38  0  0  0  0  0  0  0  0999 V2000
    4.9186    1.7927   16.6949 H   0  0  0  0  0  0  0  0  0  0  0  0
    5.4504    1.2869   17.4972 C   0  0  0  0  0  0  0  0  0  0  0  0
    6.6016    0.6960   17.1516 N   0  0  0  0  0  0  0  0  0  0  0  0
    7.3006    0.0993   18.1207 C   0  0  0  0  0  0  0  0  0  0  0  0
    8.2494   -0.3491   17.8298 H   0  0  0  0  0  0  0  0  0  0  0  0
    6.8844    0.0300   19.4512 C   0  0  0  0  0  0  0  0  0  0  0  0
    7.8557   -0.6340   20.3623 C   0  0  0  0  0  0  0  0  0  0  0  0
    9.0581   -0.5880   20.1457 O   0  0  0  0  0  0  0  0  0  0  0  0
    7.2895   -1.3126   21.3889 N   0  0  0  0  0  0  0  0  0  0  0  0
    6.2895   -1.2375   21.4269 H   0  0  0  0  0  0  0  0  0  0  0  0
    7.9893   -1.8493   22.5748 C   0  0  0  0  0  0  0  0  0  0  0  0
    9.0143   -2.8740   22.0739 C   0  0  0  0  0  0  0  0  0  0  0  0
    9.7252   -2.3679   21.4204 H   0  0  0  0  0  0  0  0  0  0  0  0
    9.5636   -3.3448   22.8888 H   0  0  0  0  0  0  0  0  0  0  0  0
    8.5115   -3.6516   21.4920 H   0  0  0  0  0  0  0  0  0  0  0  0
    8.6841   -0.6935   23.3081 C   0  0  0  0  0  0  0  0  0  0  0  0
    9.3625   -0.1817   22.6207 H   0  0  0  0  0  0  0  0  0  0  0  0
    9.2608   -1.0598   24.1595 H   0  0  0  0  0  0  0  0  0  0  0  0
    7.9453    0.0300   23.6713 H   0  0  0  0  0  0  0  0  0  0  0  0
    6.8316   -2.4789   23.4214 C   0  0  0  0  0  0  0  0  0  0  0  0
    6.0634   -1.6889   23.4396 H   0  0  0  0  0  0  0  0  0  0  0  0
    6.4195   -3.3010   22.8203 H   0  0  0  0  0  0  0  0  0  0  0  0
    6.9790   -2.9254   24.8517 C   0  0  0  0  0  0  0  0  0  0  0  0
    6.7149   -1.9931   25.9679 C   0  0  0  0  0  0  0  0  0  0  0  0
    6.5647   -0.9360   25.7583 H   0  0  0  0  0  0  0  0  0  0  0  0
    6.6078   -2.5371   27.1917 C   0  0  0  0  0  0  0  0  0  0  0  0
    6.2102   -2.0735   28.1077 H   0  0  0  0  0  0  0  0  0  0  0  0
    7.1115   -4.4965   26.9677 C   0  0  0  0  0  0  0  0  0  0  0  0
    7.4019   -4.2726   28.1170 H   0  0  0  0  0  0  0  0  0  0  0  0
    7.0088   -4.4965   26.9108 C   0  0  0  0  0  0  0  0  0  0  0  0
    6.9156   -5.7361   26.7295 H   0  0  0  0  0  0  0  0  0  0  0  0
    7.0309   -4.2639   25.3314 C   0  0  0  0  0  0  0  0  0  0  0  0
    5.9668   -5.4226   24.5038 Cl  0  0  0  0  0  0  0  0  0  0  0  0
    5.6655    0.6352   19.8045 C   0  0  0  0  0  0  0  0  0  0  0  0
    5.2955    0.6484   20.8354 H   0  0  0  0  0  0  0  0  0  0  0  0
    4.9420    1.2808   18.8025 C   0  0  0  0  0  0  0  0  0  0  0  0
    4.0049    1.7872   19.0124 H   0  0  0  0  0  0  0  0  0  0  0  0
  1  2  1  0
  2  3  2  0
  3  4  1  0
  4  5  1  0
  4  6  2  0
  6  7  1  0
  7  8  2  0
  7  9  1  0
  9 10  1  0
  9 11  1  0
 11 12  1  0
 12 13  1  0
 12 14  1  0
 12 15  1  0
 11 16  1  0
 16 17  1  0
 16 18  1  0
 16 19  1  0
 11 20  1  0
 20 21  1  0
 20 22  1  0
 20 23  1  0
 23 24  2  0
 24 25  1  0
 24 26  1  0
 26 27  1  0
 26 28  2  0
 28 29  1  0
 28 30  1  0
 30 31  1  0
 30 32  2  0
 32 33  1  0
  6 34  1  0
 34 35  1  0
 34 36  2  0
 36 37  1  0
 36  2  1  0
 32 23  1  0
M  END
>  <cnnaffinity>  (1) 
-5.04916

>  <filename>  (1) 
CC(C)(Cc1ccccc1Cl)NC(=O)c1cccnc1

$$$$
