
     RDKit          3D

 39 40  0  0  0  0  0  0  0  0999 V2000
    5.0470    1.7844   16.8108 H   0  0  0  0  0  0  0  0  0  0  0  0
    5.4934    1.2591   17.6549 C   0  0  0  0  0  0  0  0  0  0  0  0
    6.6475    0.6206   17.4247 N   0  0  0  0  0  0  0  0  0  0  0  0
    7.2308   -0.0055   18.4598 C   0  0  0  0  0  0  0  0  0  0  0  0
    8.1708   -0.4992   18.2243 H   0  0  0  0  0  0  0  0  0  0  0  0
    6.7291   -0.0431   19.7742 C   0  0  0  0  0  0  0  0  0  0  0  0
    7.4690   -0.7008   20.9592 C   0  0  0  0  0  0  0  0  0  0  0  0
    8.9321   -1.0742   20.6350 C   0  0  0  0  0  0  0  0  0  0  0  0
    9.5335   -0.1990   20.3647 H   0  0  0  0  0  0  0  0  0  0  0  0
    9.0024   -1.7741   19.8003 H   0  0  0  0  0  0  0  0  0  0  0  0
    9.3901   -1.5527   21.5096 H   0  0  0  0  0  0  0  0  0  0  0  0
    6.7129   -1.9829   21.3785 C   0  0  0  0  0  0  0  0  0  0  0  0
    5.6411   -1.7955   21.5108 H   0  0  0  0  0  0  0  0  0  0  0  0
    6.8139   -2.7728   20.6270 H   0  0  0  0  0  0  0  0  0  0  0  0
    7.1026   -2.3712   22.3275 H   0  0  0  0  0  0  0  0  0  0  0  0
    7.4912    0.2688   22.1767 C   0  0  0  0  0  0  0  0  0  0  0  0
    6.4608    0.4992   22.4790 H   0  0  0  0  0  0  0  0  0  0  0  0
    7.9388   -0.2565   23.0320 H   0  0  0  0  0  0  0  0  0  0  0  0
    8.2431    1.5865   21.9268 C   0  0  0  0  0  0  0  0  0  0  0  0
    7.7902    2.0889   21.0649 H   0  0  0  0  0  0  0  0  0  0  0  0
    9.2797    1.3830   21.6345 H   0  0  0  0  0  0  0  0  0  0  0  0
    8.2697    2.4918   23.1280 C   0  0  0  0  0  0  0  0  0  0  0  0
    9.0542    2.1462   24.2423 C   0  0  0  0  0  0  0  0  0  0  0  0
    9.6362    1.2260   24.2200 H   0  0  0  0  0  0  0  0  0  0  0  0
    9.0912    2.9640   25.3683 C   0  0  0  0  0  0  0  0  0  0  0  0
    9.7079    2.6840   26.2184 H   0  0  0  0  0  0  0  0  0  0  0  0
    8.3074    4.1306   25.4175 C   0  0  0  0  0  0  0  0  0  0  0  0
    8.3289    4.9821   26.6715 C   0  0  0  0  0  0  0  0  0  0  0  0
    7.7366    4.3578   27.7113 F   0  0  0  0  0  0  0  0  0  0  0  0
    9.5890    5.2622   27.0651 F   0  0  0  0  0  0  0  0  0  0  0  0
    7.7044    6.1647   26.5248 F   0  0  0  0  0  0  0  0  0  0  0  0
    7.4747    4.4499   24.3301 C   0  0  0  0  0  0  0  0  0  0  0  0
    6.8110    5.3123   24.3618 H   0  0  0  0  0  0  0  0  0  0  0  0
    7.4848    3.6495   23.1868 C   0  0  0  0  0  0  0  0  0  0  0  0
    6.8754    3.9223   22.3279 H   0  0  0  0  0  0  0  0  0  0  0  0
    5.4811    0.5857   19.9667 C   0  0  0  0  0  0  0  0  0  0  0  0
    4.9906    0.5713   20.9441 H   0  0  0  0  0  0  0  0  0  0  0  0
    4.8693    1.2570   18.9082 C   0  0  0  0  0  0  0  0  0  0  0  0
    3.9417    1.8007   19.0464 H   0  0  0  0  0  0  0  0  0  0  0  0
  1  2  1  0
  2  3  2  0
  3  4  1  0
  4  5  1  0
  4  6  2  0
  6  7  1  0
  7  8  1  0
  8  9  1  0
  8 10  1  0
  8 11  1  0
  7 12  1  0
 12 13  1  0
 12 14  1  0
 12 15  1  0
  7 16  1  0
 16 17  1  0
 16 18  1  0
 16 19  1  0
 19 20  1  0
 19 21  1  0
 19 22  1  0
 22 23  2  0
 23 24  1  0
 23 25  1  0
 25 26  1  0
 25 27  2  0
 27 28  1  0
 28 29  1  0
 28 30  1  0
 28 31  1  0
 27 32  1  0
 32 33  1  0
 32 34  2  0
 34 35  1  0
  6 36  1  0
 36 37  1  0
 36 38  2  0
 38 39  1  0
 38  2  1  0
 34 22  1  0
M  END
>  <cnnaffinity>  (1) 
-4.79507

>  <filename>  (1) 
CC(C)(CCc1ccc(C(F)(F)F)cc1)c1cccnc1

$$$$
