
     RDKit          3D

 36 38  0  0  0  0  0  0  0  0999 V2000
    5.0125    1.8363   16.8729 H   0  0  0  0  0  0  0  0  0  0  0  0
    5.4282    1.2886   17.7130 C   0  0  0  0  0  0  0  0  0  0  0  0
    6.5648    0.6135   17.4791 N   0  0  0  0  0  0  0  0  0  0  0  0
    7.1243   -0.0345   18.5048 C   0  0  0  0  0  0  0  0  0  0  0  0
    8.0438   -0.5734   18.2825 H   0  0  0  0  0  0  0  0  0  0  0  0
    6.5974   -0.0334   19.8122 C   0  0  0  0  0  0  0  0  0  0  0  0
    7.3601   -0.6056   20.9374 C   0  0  0  0  0  0  0  0  0  0  0  0
    8.4963   -1.2849   20.7281 N   0  0  0  0  0  0  0  0  0  0  0  0
    8.9491   -1.5091   21.9759 N   0  0  0  0  0  0  0  0  0  0  0  0
   10.0970   -2.0940   22.4869 C   0  0  0  0  0  0  0  0  0  0  0  0
   10.8065   -2.5649   21.8259 H   0  0  0  0  0  0  0  0  0  0  0  0
   10.0329   -1.8932   23.8234 C   0  0  0  0  0  0  0  0  0  0  0  0
   10.7130   -2.1091   24.6230 H   0  0  0  0  0  0  0  0  0  0  0  0
    8.8527   -1.2313   24.1382 N   0  0  0  0  0  0  0  0  0  0  0  0
    8.6798   -0.6214   25.3772 N   0  0  0  0  0  0  0  0  0  0  0  0
    8.5365    0.3774   25.2368 H   0  0  0  0  0  0  0  0  0  0  0  0
    7.5809   -1.0857   26.2584 C   0  0  0  0  0  0  0  0  0  0  0  0
    7.9168   -2.4780   26.7914 C   0  0  0  0  0  0  0  0  0  0  0  0
    7.1387   -2.8312   27.4772 H   0  0  0  0  0  0  0  0  0  0  0  0
    8.8725   -2.4839   27.3195 H   0  0  0  0  0  0  0  0  0  0  0  0
    7.9889   -3.1924   25.9660 H   0  0  0  0  0  0  0  0  0  0  0  0
    7.5467   -0.0261   27.3703 C   0  0  0  0  0  0  0  0  0  0  0  0
    7.2693    0.9492   26.9471 H   0  0  0  0  0  0  0  0  0  0  0  0
    6.8167   -0.2571   28.1545 H   0  0  0  0  0  0  0  0  0  0  0  0
    8.5323    0.0922   27.8328 H   0  0  0  0  0  0  0  0  0  0  0  0
    6.2253   -1.1249   25.5423 C   0  0  0  0  0  0  0  0  0  0  0  0
    6.2619   -1.7706   24.6609 H   0  0  0  0  0  0  0  0  0  0  0  0
    5.4568   -1.5029   26.2264 H   0  0  0  0  0  0  0  0  0  0  0  0
    5.9169   -0.1265   25.2177 H   0  0  0  0  0  0  0  0  0  0  0  0
    8.1759   -0.9929   22.9525 C   0  0  0  0  0  0  0  0  0  0  0  0
    7.0706   -0.4365   22.3164 C   0  0  0  0  0  0  0  0  0  0  0  0
    6.1682   -0.0444   22.7513 H   0  0  0  0  0  0  0  0  0  0  0  0
    5.3703    0.6207   20.0149 C   0  0  0  0  0  0  0  0  0  0  0  0
    4.8824    0.5837   20.9898 H   0  0  0  0  0  0  0  0  0  0  0  0
    4.7869    1.3056   18.9552 C   0  0  0  0  0  0  0  0  0  0  0  0
    3.8622    1.8589   19.0807 H   0  0  0  0  0  0  0  0  0  0  0  0
  1  2  1  0
  2  3  2  0
  3  4  1  0
  4  5  1  0
  4  6  2  0
  6  7  1  0
  7  8  2  0
  8  9  1  0
  9 10  1  0
 10 11  1  0
 10 12  2  0
 12 13  1  0
 12 14  1  0
 14 15  1  0
 15 16  1  0
 15 17  1  0
 17 18  1  0
 18 19  1  0
 18 20  1  0
 18 21  1  0
 17 22  1  0
 22 23  1  0
 22 24  1  0
 22 25  1  0
 17 26  1  0
 26 27  1  0
 26 28  1  0
 26 29  1  0
 14 30  1  0
 30 31  2  0
 31 32  1  0
  6 33  1  0
 33 34  1  0
 33 35  2  0
 35 36  1  0
 35  2  1  0
 31  7  1  0
 30  9  1  0
M  END
>  <cnnaffinity>  (1) 
-5.16864

>  <filename>  (1) 
CC(C)(C)Nn1ccn2nc(-c3cccnc3)cc12

$$$$
