
     RDKit          3D

 38 40  0  0  0  0  0  0  0  0999 V2000
    4.9558    1.7968   16.9567 H   0  0  0  0  0  0  0  0  0  0  0  0
    5.4020    1.2886   17.8096 C   0  0  0  0  0  0  0  0  0  0  0  0
    6.5619    0.6614   17.5718 N   0  0  0  0  0  0  0  0  0  0  0  0
    7.1663    0.0659   18.6148 C   0  0  0  0  0  0  0  0  0  0  0  0
    8.1134   -0.4084   18.3602 H   0  0  0  0  0  0  0  0  0  0  0  0
    6.6674    0.0382   19.9259 C   0  0  0  0  0  0  0  0  0  0  0  0
    7.3741   -0.7520   21.0503 C   0  0  0  0  0  0  0  0  0  0  0  0
    7.2200   -0.1171   22.3480 N   0  0  0  0  0  0  0  0  0  0  0  0
    6.6770   -0.6122   23.0358 H   0  0  0  0  0  0  0  0  0  0  0  0
    7.6771    1.1323   22.7346 C   0  0  0  0  0  0  0  0  0  0  0  0
    8.1312    2.0938   21.7759 C   0  0  0  0  0  0  0  0  0  0  0  0
    8.0932    1.8349   20.7253 H   0  0  0  0  0  0  0  0  0  0  0  0
    8.5559    3.3329   22.1895 C   0  0  0  0  0  0  0  0  0  0  0  0
    8.7700    4.1067   21.4666 H   0  0  0  0  0  0  0  0  0  0  0  0
    8.6330    3.6773   23.5685 C   0  0  0  0  0  0  0  0  0  0  0  0
    9.1473    4.9352   24.0069 C   0  0  0  0  0  0  0  0  0  0  0  0
    9.5267    5.6290   23.2611 H   0  0  0  0  0  0  0  0  0  0  0  0
    9.1541    5.2674   25.3420 C   0  0  0  0  0  0  0  0  0  0  0  0
    9.5314    6.2321   25.6736 H   0  0  0  0  0  0  0  0  0  0  0  0
    8.6427    4.3449   26.2994 C   0  0  0  0  0  0  0  0  0  0  0  0
    8.6289    4.6312   27.3456 H   0  0  0  0  0  0  0  0  0  0  0  0
    8.1581    3.1159   25.9124 C   0  0  0  0  0  0  0  0  0  0  0  0
    7.7701    2.4122   26.6453 H   0  0  0  0  0  0  0  0  0  0  0  0
    8.1440    2.7327   24.5335 C   0  0  0  0  0  0  0  0  0  0  0  0
    7.6508    1.4714   24.0771 C   0  0  0  0  0  0  0  0  0  0  0  0
    7.2451    0.7475   24.7831 H   0  0  0  0  0  0  0  0  0  0  0  0
    8.8855   -0.9628   20.7962 C   0  0  0  0  0  0  0  0  0  0  0  0
    9.4008   -0.0227   20.5713 H   0  0  0  0  0  0  0  0  0  0  0  0
    9.3387   -1.3801   21.7021 H   0  0  0  0  0  0  0  0  0  0  0  0
    9.0640   -1.6652   19.9770 H   0  0  0  0  0  0  0  0  0  0  0  0
    6.6844   -2.1185   21.1457 C   0  0  0  0  0  0  0  0  0  0  0  0
    5.6144   -1.9993   21.3544 H   0  0  0  0  0  0  0  0  0  0  0  0
    7.1364   -2.7428   21.9255 H   0  0  0  0  0  0  0  0  0  0  0  0
    6.7813   -2.6410   20.1893 H   0  0  0  0  0  0  0  0  0  0  0  0
    5.4279    0.6770   20.1379 C   0  0  0  0  0  0  0  0  0  0  0  0
    4.9693    0.6808   21.1284 H   0  0  0  0  0  0  0  0  0  0  0  0
    4.7964    1.3172   19.0705 C   0  0  0  0  0  0  0  0  0  0  0  0
    3.8593    1.8453   19.2073 H   0  0  0  0  0  0  0  0  0  0  0  0
  1  2  1  0
  2  3  2  0
  3  4  1  0
  4  5  1  0
  4  6  2  0
  6  7  1  0
  7  8  1  0
  8  9  1  0
  8 10  1  0
 10 11  2  0
 11 12  1  0
 11 13  1  0
 13 14  1  0
 13 15  2  0
 15 16  1  0
 16 17  1  0
 16 18  2  0
 18 19  1  0
 18 20  1  0
 20 21  1  0
 20 22  2  0
 22 23  1  0
 22 24  1  0
 24 25  2  0
 25 26  1  0
  7 27  1  0
 27 28  1  0
 27 29  1  0
 27 30  1  0
  7 31  1  0
 31 32  1  0
 31 33  1  0
 31 34  1  0
  6 35  1  0
 35 36  1  0
 35 37  2  0
 37 38  1  0
 37  2  1  0
 25 10  1  0
 24 15  1  0
M  END
>  <cnnaffinity>  (1) 
-4.63572

>  <filename>  (1) 
CC(C)(Nc1ccc2ccccc2c1)c1cccnc1

$$$$
