
     RDKit          3D

 35 37  0  0  0  0  0  0  0  0999 V2000
    4.9796    1.7840   16.9829 H   0  0  0  0  0  0  0  0  0  0  0  0
    5.4143    1.2791   17.8437 C   0  0  0  0  0  0  0  0  0  0  0  0
    6.5738    0.6467   17.6160 N   0  0  0  0  0  0  0  0  0  0  0  0
    7.1637    0.0394   18.6480 C   0  0  0  0  0  0  0  0  0  0  0  0
    8.1138   -0.4363   18.4210 H   0  0  0  0  0  0  0  0  0  0  0  0
    6.6271    0.0116   19.9439 C   0  0  0  0  0  0  0  0  0  0  0  0
    7.3733   -0.6936   20.9889 C   0  0  0  0  0  0  0  0  0  0  0  0
    8.5665   -1.3172   20.7520 N   0  0  0  0  0  0  0  0  0  0  0  0
    8.8502   -1.7917   21.9467 C   0  0  0  0  0  0  0  0  0  0  0  0
   10.1061   -2.7033   22.7415 S   0  0  0  0  0  0  0  0  0  0  0  0
    9.2003   -2.6343   24.2480 C   0  0  0  0  0  0  0  0  0  0  0  0
    9.6228   -3.0632   25.1468 H   0  0  0  0  0  0  0  0  0  0  0  0
    8.0411   -1.9500   24.1448 C   0  0  0  0  0  0  0  0  0  0  0  0
    7.0401   -1.5784   25.2051 C   0  0  0  0  0  0  0  0  0  0  0  0
    7.2191   -2.2285   26.0678 H   0  0  0  0  0  0  0  0  0  0  0  0
    6.0199   -1.7923   24.8626 H   0  0  0  0  0  0  0  0  0  0  0  0
    7.1314   -0.1002   25.6403 C   0  0  0  0  0  0  0  0  0  0  0  0
    6.8632    0.5288   24.7785 H   0  0  0  0  0  0  0  0  0  0  0  0
    6.3866    0.1059   26.4261 H   0  0  0  0  0  0  0  0  0  0  0  0
    8.5102    0.3371   26.1735 C   0  0  0  0  0  0  0  0  0  0  0  0
    9.2577    0.1134   25.3949 H   0  0  0  0  0  0  0  0  0  0  0  0
    8.5160    1.8661   26.3658 C   0  0  0  0  0  0  0  0  0  0  0  0
    8.2174    2.3882   25.4447 H   0  0  0  0  0  0  0  0  0  0  0  0
    9.5222    2.2198   26.5978 H   0  0  0  0  0  0  0  0  0  0  0  0
    7.8329    2.1866   27.1669 H   0  0  0  0  0  0  0  0  0  0  0  0
    8.9046   -0.4315   27.4567 C   0  0  0  0  0  0  0  0  0  0  0  0
    9.8953   -0.1471   27.8294 H   0  0  0  0  0  0  0  0  0  0  0  0
    8.9560   -1.5192   27.3001 H   0  0  0  0  0  0  0  0  0  0  0  0
    8.1716   -0.2394   28.2526 H   0  0  0  0  0  0  0  0  0  0  0  0
    7.8893   -1.4843   22.8369 N   0  0  0  0  0  0  0  0  0  0  0  0
    6.9208   -0.7638   22.2326 N   0  0  0  0  0  0  0  0  0  0  0  0
    5.4029    0.6673   20.1773 C   0  0  0  0  0  0  0  0  0  0  0  0
    4.9527    0.6752   21.1732 H   0  0  0  0  0  0  0  0  0  0  0  0
    4.7950    1.3112   19.1001 C   0  0  0  0  0  0  0  0  0  0  0  0
    3.8616    1.8520   19.2122 H   0  0  0  0  0  0  0  0  0  0  0  0
  1  2  1  0
  2  3  2  0
  3  4  1  0
  4  5  1  0
  4  6  2  0
  6  7  1  0
  7  8  1  0
  8  9  2  0
  9 10  1  0
 10 11  1  0
 11 12  1  0
 11 13  2  0
 13 14  1  0
 14 15  1  0
 14 16  1  0
 14 17  1  0
 17 18  1  0
 17 19  1  0
 17 20  1  0
 20 21  1  0
 20 22  1  0
 22 23  1  0
 22 24  1  0
 22 25  1  0
 20 26  1  0
 26 27  1  0
 26 28  1  0
 26 29  1  0
 13 30  1  0
 30 31  1  0
  6 32  1  0
 32 33  1  0
 32 34  2  0
 34 35  1  0
 34  2  1  0
 31  7  2  0
 30  9  1  0
M  END
>  <cnnaffinity>  (1) 
-5.58424

>  <filename>  (1) 
CC(C)CCc1csc2nc(-c3cccnc3)nn12

$$$$
