
     RDKit          3D

 46 48  0  0  0  0  0  0  0  0999 V2000
    4.9850    1.7747   16.8753 H   0  0  0  0  0  0  0  0  0  0  0  0
    5.4435    1.2758   17.7251 C   0  0  0  0  0  0  0  0  0  0  0  0
    6.5941    0.6394   17.4808 N   0  0  0  0  0  0  0  0  0  0  0  0
    7.1936    0.0266   18.5131 C   0  0  0  0  0  0  0  0  0  0  0  0
    8.1202   -0.4906   18.2681 H   0  0  0  0  0  0  0  0  0  0  0  0
    6.6981    0.0237   19.8296 C   0  0  0  0  0  0  0  0  0  0  0  0
    7.3866   -0.6978   21.0160 C   0  0  0  0  0  0  0  0  0  0  0  0
    7.3714    0.2598   22.2768 C   0  0  0  0  0  0  0  0  0  0  0  0
    7.8338    1.3835   22.2074 O   0  0  0  0  0  0  0  0  0  0  0  0
    6.8217   -0.2125   23.4998 N   0  0  0  0  0  0  0  0  0  0  0  0
    6.1661    0.8290   24.3230 C   0  0  0  0  0  0  0  0  0  0  0  0
    5.4607    1.3947   23.7021 H   0  0  0  0  0  0  0  0  0  0  0  0
    6.9070    1.5553   24.6921 H   0  0  0  0  0  0  0  0  0  0  0  0
    5.3949    0.2026   25.4915 C   0  0  0  0  0  0  0  0  0  0  0  0
    4.9856    1.0041   26.1124 H   0  0  0  0  0  0  0  0  0  0  0  0
    4.5299   -0.3551   25.1015 H   0  0  0  0  0  0  0  0  0  0  0  0
    6.2331   -0.6873   26.3056 N   0  0  0  0  0  0  0  0  0  0  0  0
    5.7063   -1.0344   27.5767 C   0  0  0  0  0  0  0  0  0  0  0  0
    5.4662   -0.0029   28.5028 C   0  0  0  0  0  0  0  0  0  0  0  0
    5.6737    1.0159   28.1889 H   0  0  0  0  0  0  0  0  0  0  0  0
    4.9865   -0.2861   29.7846 C   0  0  0  0  0  0  0  0  0  0  0  0
    4.7881    0.5261   30.4801 H   0  0  0  0  0  0  0  0  0  0  0  0
    4.7187   -1.6078   30.1590 C   0  0  0  0  0  0  0  0  0  0  0  0
    4.3719   -1.8367   31.1655 H   0  0  0  0  0  0  0  0  0  0  0  0
    4.9288   -2.6372   29.2375 C   0  0  0  0  0  0  0  0  0  0  0  0
    4.7181   -3.6691   29.5063 H   0  0  0  0  0  0  0  0  0  0  0  0
    5.4193   -2.3570   27.9554 C   0  0  0  0  0  0  0  0  0  0  0  0
    5.5722   -3.1434   27.2248 H   0  0  0  0  0  0  0  0  0  0  0  0
    6.8548   -1.7173   25.4623 C   0  0  0  0  0  0  0  0  0  0  0  0
    7.4922   -2.3603   26.0791 H   0  0  0  0  0  0  0  0  0  0  0  0
    6.1113   -2.3631   24.9559 H   0  0  0  0  0  0  0  0  0  0  0  0
    7.7004   -1.0327   24.3826 C   0  0  0  0  0  0  0  0  0  0  0  0
    8.4406   -0.3914   24.8912 H   0  0  0  0  0  0  0  0  0  0  0  0
    8.2604   -1.7744   23.8041 H   0  0  0  0  0  0  0  0  0  0  0  0
    6.6233   -2.0198   21.2614 C   0  0  0  0  0  0  0  0  0  0  0  0
    7.0442   -2.5732   22.1071 H   0  0  0  0  0  0  0  0  0  0  0  0
    6.6895   -2.6626   20.3763 H   0  0  0  0  0  0  0  0  0  0  0  0
    5.5609   -1.8336   21.4527 H   0  0  0  0  0  0  0  0  0  0  0  0
    8.8772   -1.0166   20.7522 C   0  0  0  0  0  0  0  0  0  0  0  0
    9.3001   -1.5600   21.6055 H   0  0  0  0  0  0  0  0  0  0  0  0
    9.4600   -0.1015   20.6038 H   0  0  0  0  0  0  0  0  0  0  0  0
    9.0066   -1.6562   19.8765 H   0  0  0  0  0  0  0  0  0  0  0  0
    5.4657    0.6607   20.0424 C   0  0  0  0  0  0  0  0  0  0  0  0
    5.0178    0.6596   21.0389 H   0  0  0  0  0  0  0  0  0  0  0  0
    4.8327    1.3062   18.9817 C   0  0  0  0  0  0  0  0  0  0  0  0
    3.8956    1.8292   19.1184 H   0  0  0  0  0  0  0  0  0  0  0  0
  1  2  1  0
  2  3  2  0
  3  4  1  0
  4  5  1  0
  4  6  2  0
  6  7  1  0
  7  8  1  0
  8  9  2  0
  8 10  1  0
 10 11  1  0
 11 12  1  0
 11 13  1  0
 11 14  1  0
 14 15  1  0
 14 16  1  0
 14 17  1  0
 17 18  1  0
 18 19  2  0
 19 20  1  0
 19 21  1  0
 21 22  1  0
 21 23  2  0
 23 24  1  0
 23 25  1  0
 25 26  1  0
 25 27  2  0
 27 28  1  0
 17 29  1  0
 29 30  1  0
 29 31  1  0
 29 32  1  0
 32 33  1  0
 32 34  1  0
  7 35  1  0
 35 36  1  0
 35 37  1  0
 35 38  1  0
  7 39  1  0
 39 40  1  0
 39 41  1  0
 39 42  1  0
  6 43  1  0
 43 44  1  0
 43 45  2  0
 45 46  1  0
 45  2  1  0
 32 10  1  0
 27 18  1  0
M  END
>  <cnnaffinity>  (1) 
-4.403

>  <filename>  (1) 
CC(C)(C(=O)N1CCN(c2ccccc2)CC1)c1cccnc1

$$$$
