
     RDKit          3D

 31 33  0  0  0  0  0  0  0  0999 V2000
    4.9671    1.8314   16.9456 H   0  0  0  0  0  0  0  0  0  0  0  0
    5.4120    1.2990   17.7825 C   0  0  0  0  0  0  0  0  0  0  0  0
    6.5642    0.6608   17.5313 N   0  0  0  0  0  0  0  0  0  0  0  0
    7.1457    0.0076   18.5428 C   0  0  0  0  0  0  0  0  0  0  0  0
    8.0978   -0.4708   18.3173 H   0  0  0  0  0  0  0  0  0  0  0  0
    6.6124   -0.0467   19.8435 C   0  0  0  0  0  0  0  0  0  0  0  0
    7.3721   -0.6793   20.9372 C   0  0  0  0  0  0  0  0  0  0  0  0
    8.4993   -1.3690   20.6986 N   0  0  0  0  0  0  0  0  0  0  0  0
    8.9265   -1.6809   21.9427 N   0  0  0  0  0  0  0  0  0  0  0  0
   10.0958   -2.2047   22.4732 C   0  0  0  0  0  0  0  0  0  0  0  0
   10.8520   -2.5904   21.8143 H   0  0  0  0  0  0  0  0  0  0  0  0
   10.0072   -2.0227   23.8185 C   0  0  0  0  0  0  0  0  0  0  0  0
   10.7135   -2.2712   24.5957 H   0  0  0  0  0  0  0  0  0  0  0  0
    8.7746   -1.4411   24.1185 N   0  0  0  0  0  0  0  0  0  0  0  0
    8.3403   -0.7749   25.3447 C   0  0  0  0  0  0  0  0  0  0  0  0
    7.2570   -0.6495   25.2276 H   0  0  0  0  0  0  0  0  0  0  0  0
    8.5606   -1.6259   26.5910 C   0  0  0  0  0  0  0  0  0  0  0  0
    8.0804   -2.6028   26.4935 H   0  0  0  0  0  0  0  0  0  0  0  0
    8.1229   -1.1261   27.4627 H   0  0  0  0  0  0  0  0  0  0  0  0
    9.6204   -1.7847   26.8077 H   0  0  0  0  0  0  0  0  0  0  0  0
    8.9755    0.6128   25.4294 C   0  0  0  0  0  0  0  0  0  0  0  0
    8.7313    1.1847   24.5279 H   0  0  0  0  0  0  0  0  0  0  0  0
    8.6072    1.1537   26.3066 H   0  0  0  0  0  0  0  0  0  0  0  0
   10.0676    0.5325   25.4893 H   0  0  0  0  0  0  0  0  0  0  0  0
    8.1363   -1.2040   22.9237 C   0  0  0  0  0  0  0  0  0  0  0  0
    7.0714   -0.5610   22.3180 C   0  0  0  0  0  0  0  0  0  0  0  0
    6.2370   -0.0479   22.7633 H   0  0  0  0  0  0  0  0  0  0  0  0
    5.3970    0.6217   20.0803 C   0  0  0  0  0  0  0  0  0  0  0  0
    4.9469    0.6480   21.0736 H   0  0  0  0  0  0  0  0  0  0  0  0
    4.7887    1.3047   19.0327 C   0  0  0  0  0  0  0  0  0  0  0  0
    3.8680    1.8589   19.1800 H   0  0  0  0  0  0  0  0  0  0  0  0
  1  2  1  0
  2  3  2  0
  3  4  1  0
  4  5  1  0
  4  6  2  0
  6  7  1  0
  7  8  2  0
  8  9  1  0
  9 10  1  0
 10 11  1  0
 10 12  2  0
 12 13  1  0
 12 14  1  0
 14 15  1  0
 15 16  1  0
 15 17  1  0
 17 18  1  0
 17 19  1  0
 17 20  1  0
 15 21  1  0
 21 22  1  0
 21 23  1  0
 21 24  1  0
 14 25  1  0
 25 26  2  0
 26 27  1  0
  6 28  1  0
 28 29  1  0
 28 30  2  0
 30 31  1  0
 30  2  1  0
 26  7  1  0
 25  9  1  0
M  END
>  <cnnaffinity>  (1) 
-5.05272

>  <filename>  (1) 
CC(C)n1ccn2nc(-c3cccnc3)cc12

$$$$
