
     RDKit          3D

 38 40  0  0  0  0  0  0  0  0999 V2000
    5.2140    1.7995   16.8464 H   0  0  0  0  0  0  0  0  0  0  0  0
    5.6083    1.3314   17.7482 C   0  0  0  0  0  0  0  0  0  0  0  0
    6.7690    0.6736   17.6139 N   0  0  0  0  0  0  0  0  0  0  0  0
    7.2818    0.0950   18.7080 C   0  0  0  0  0  0  0  0  0  0  0  0
    8.2165   -0.4478   18.5564 H   0  0  0  0  0  0  0  0  0  0  0  0
    6.6534    0.1119   19.9559 C   0  0  0  0  0  0  0  0  0  0  0  0
    7.2124   -0.6617   21.0963 C   0  0  0  0  0  0  0  0  0  0  0  0
    6.4975   -1.3476   21.8119 O   0  0  0  0  0  0  0  0  0  0  0  0
    8.5550   -0.5321   21.2767 N   0  0  0  0  0  0  0  0  0  0  0  0
    9.0565    0.0447   20.6302 H   0  0  0  0  0  0  0  0  0  0  0  0
    9.3490   -1.3423   22.2249 C   0  0  0  0  0  0  0  0  0  0  0  0
   10.8373   -0.9390   22.1486 C   0  0  0  0  0  0  0  0  0  0  0  0
   11.8706   -1.8854   22.1583 C   0  0  0  0  0  0  0  0  0  0  0  0
   11.6313   -2.9404   22.1575 H   0  0  0  0  0  0  0  0  0  0  0  0
   13.2391   -1.5344   22.2006 C   0  0  0  0  0  0  0  0  0  0  0  0
   13.9913   -2.3209   22.1949 H   0  0  0  0  0  0  0  0  0  0  0  0
   13.6316   -0.2090   22.2958 C   0  0  0  0  0  0  0  0  0  0  0  0
   14.6752    0.0767   22.3893 H   0  0  0  0  0  0  0  0  0  0  0  0
   12.6092    0.7560   22.2777 C   0  0  0  0  0  0  0  0  0  0  0  0
   11.2316    0.4305   22.1914 C   0  0  0  0  0  0  0  0  0  0  0  0
   10.5315    1.6953   22.1911 C   0  0  0  0  0  0  0  0  0  0  0  0
    9.4577    1.8244   22.1694 H   0  0  0  0  0  0  0  0  0  0  0  0
   11.4675    2.6891   22.2678 C   0  0  0  0  0  0  0  0  0  0  0  0
   11.3558    3.7695   22.2957 H   0  0  0  0  0  0  0  0  0  0  0  0
   12.7190    2.1178   22.3221 N   0  0  0  0  0  0  0  0  0  0  0  0
   13.6083    2.5919   22.3639 H   0  0  0  0  0  0  0  0  0  0  0  0
    9.1526   -2.8150   21.8255 C   0  0  0  0  0  0  0  0  0  0  0  0
    9.6170   -3.4816   22.5564 H   0  0  0  0  0  0  0  0  0  0  0  0
    9.5926   -2.9798   20.8381 H   0  0  0  0  0  0  0  0  0  0  0  0
    8.0870   -3.0325   21.7691 H   0  0  0  0  0  0  0  0  0  0  0  0
    8.8332   -1.1320   23.6626 C   0  0  0  0  0  0  0  0  0  0  0  0
    7.7731   -1.3783   23.7013 H   0  0  0  0  0  0  0  0  0  0  0  0
    9.3874   -1.7702   24.3605 H   0  0  0  0  0  0  0  0  0  0  0  0
    8.9610   -0.0877   23.9680 H   0  0  0  0  0  0  0  0  0  0  0  0
    5.4236    0.7742   20.0787 C   0  0  0  0  0  0  0  0  0  0  0  0
    4.8934    0.7813   21.0340 H   0  0  0  0  0  0  0  0  0  0  0  0
    4.9023    1.4095   18.9556 C   0  0  0  0  0  0  0  0  0  0  0  0
    3.9735    1.9664   18.9993 H   0  0  0  0  0  0  0  0  0  0  0  0
  1  2  1  0
  2  3  2  0
  3  4  1  0
  4  5  1  0
  4  6  2  0
  6  7  1  0
  7  8  2  0
  7  9  1  0
  9 10  1  0
  9 11  1  0
 11 12  1  0
 12 13  2  0
 13 14  1  0
 13 15  1  0
 15 16  1  0
 15 17  2  0
 17 18  1  0
 17 19  1  0
 19 20  2  0
 20 21  1  0
 21 22  1  0
 21 23  2  0
 23 24  1  0
 23 25  1  0
 25 26  1  0
 11 27  1  0
 27 28  1  0
 27 29  1  0
 27 30  1  0
 11 31  1  0
 31 32  1  0
 31 33  1  0
 31 34  1  0
  6 35  1  0
 35 36  1  0
 35 37  2  0
 37 38  1  0
 37  2  1  0
 20 12  1  0
 25 19  1  0
M  END
>  <cnnaffinity>  (1) 
-5.86427

>  <filename>  (1) 
CC(C)(NC(=O)c1cccnc1)c1cccc2[nH]ccc12

$$$$
