
     RDKit          3D

 37 39  0  0  0  0  0  0  0  0999 V2000
    5.4218    1.9188   16.4139 H   0  0  0  0  0  0  0  0  0  0  0  0
    5.8486    1.6057   17.3606 C   0  0  0  0  0  0  0  0  0  0  0  0
    6.8877    0.7657   17.2811 N   0  0  0  0  0  0  0  0  0  0  0  0
    7.4538    0.3593   18.4116 C   0  0  0  0  0  0  0  0  0  0  0  0
    8.3108   -0.3071   18.3082 H   0  0  0  0  0  0  0  0  0  0  0  0
    6.9796    0.7625   19.6568 C   0  0  0  0  0  0  0  0  0  0  0  0
    7.7080   -0.0999   21.0026 S   0  0  0  0  0  0  0  0  0  0  0  0
    8.7849   -0.9788   20.5316 O   0  0  0  0  0  0  0  0  0  0  0  0
    7.8853    0.7495   22.1755 O   0  0  0  0  0  0  0  0  0  0  0  0
    6.9010   -2.2777   22.7220 C   0  0  0  0  0  0  0  0  0  0  0  0
    6.4249   -3.4345   21.8256 C   0  0  0  0  0  0  0  0  0  0  0  0
    6.2892   -3.0593   20.4993 C   0  0  0  0  0  0  0  0  0  0  0  0
    6.7360   -2.1310   20.1600 H   0  0  0  0  0  0  0  0  0  0  0  0
    5.8430   -3.9691   19.5189 C   0  0  0  0  0  0  0  0  0  0  0  0
    5.7896   -3.6600   18.4754 H   0  0  0  0  0  0  0  0  0  0  0  0
    5.4986   -5.2674   19.8550 C   0  0  0  0  0  0  0  0  0  0  0  0
    5.1970   -6.0002   19.1100 H   0  0  0  0  0  0  0  0  0  0  0  0
    5.5210   -5.6143   21.2130 C   0  0  0  0  0  0  0  0  0  0  0  0
    5.9558   -4.7228   22.2162 C   0  0  0  0  0  0  0  0  0  0  0  0
    5.7970   -5.4520   23.4582 C   0  0  0  0  0  0  0  0  0  0  0  0
    6.0398   -5.1453   24.4664 H   0  0  0  0  0  0  0  0  0  0  0  0
    5.2918   -6.6926   23.1600 C   0  0  0  0  0  0  0  0  0  0  0  0
    5.0220   -7.5142   23.8096 H   0  0  0  0  0  0  0  0  0  0  0  0
    5.1262   -6.7844   21.8011 N   0  0  0  0  0  0  0  0  0  0  0  0
    4.8020   -7.5881   21.2882 H   0  0  0  0  0  0  0  0  0  0  0  0
    8.7700   -3.5666   21.9901 C   0  0  0  0  0  0  0  0  0  0  0  0
    8.8979   -3.4133   20.9151 H   0  0  0  0  0  0  0  0  0  0  0  0
    8.7068   -4.6372   22.2272 H   0  0  0  0  0  0  0  0  0  0  0  0
    9.6966   -3.1835   22.4969 H   0  0  0  0  0  0  0  0  0  0  0  0
    6.6871   -2.3298   23.0328 C   0  0  0  0  0  0  0  0  0  0  0  0
    6.1024   -1.3569   22.6656 H   0  0  0  0  0  0  0  0  0  0  0  0
    5.8388   -2.7917   24.0966 H   0  0  0  0  0  0  0  0  0  0  0  0
    7.6954   -2.5521   23.5878 H   0  0  0  0  0  0  0  0  0  0  0  0
    5.9387    1.6950   19.7658 C   0  0  0  0  0  0  0  0  0  0  0  0
    5.5936    2.1384   20.7029 H   0  0  0  0  0  0  0  0  0  0  0  0
    5.3483    2.0915   18.5681 C   0  0  0  0  0  0  0  0  0  0  0  0
    4.5171    2.7847   18.5586 H   0  0  0  0  0  0  0  0  0  0  0  0
  1  2  1  0
  2  3  2  0
  3  4  1  0
  4  5  1  0
  4  6  2  0
  6  7  1  0
  7  8  2  0
  7  9  2  0
  7 10  1  0
 10 11  1  0
 11 12  2  0
 12 13  1  0
 12 14  1  0
 14 15  1  0
 14 16  2  0
 16 17  1  0
 16 18  1  0
 18 19  2  0
 19 20  1  0
 20 21  1  0
 20 22  2  0
 22 23  1  0
 22 24  1  0
 24 25  1  0
 10 26  1  0
 26 27  1  0
 26 28  1  0
 26 29  1  0
 10 30  1  0
 30 31  1  0
 30 32  1  0
 30 33  1  0
  6 34  1  0
 34 35  1  0
 34 36  2  0
 36 37  1  0
 36  2  1  0
 19 11  1  0
 24 18  1  0
M  END
>  <cnnaffinity>  (1) 
-4.91144

>  <filename>  (1) 
CC(C)(c1cccc2[nH]ccc12)S(=O)(=O)c1cccnc1

$$$$
