
     RDKit          3D

 38 40  0  0  0  0  0  0  0  0999 V2000
    4.9683    1.8109   16.9741 H   0  0  0  0  0  0  0  0  0  0  0  0
    5.4517    1.3054   17.8090 C   0  0  0  0  0  0  0  0  0  0  0  0
    6.6227    0.7050   17.5394 N   0  0  0  0  0  0  0  0  0  0  0  0
    7.2461    0.0714   18.5436 C   0  0  0  0  0  0  0  0  0  0  0  0
    8.1935   -0.4027   18.2970 H   0  0  0  0  0  0  0  0  0  0  0  0
    6.7364   -0.0107   19.8607 C   0  0  0  0  0  0  0  0  0  0  0  0
    7.4286   -0.6776   20.9173 N   0  0  0  0  0  0  0  0  0  0  0  0
    8.3065   -0.2815   21.2224 H   0  0  0  0  0  0  0  0  0  0  0  0
    6.8458   -1.5364   21.8281 C   0  0  0  0  0  0  0  0  0  0  0  0
    5.8073   -2.1264   21.5850 O   0  0  0  0  0  0  0  0  0  0  0  0
    7.6840   -1.8547   23.1134 C   0  0  0  0  0  0  0  0  0  0  0  0
    8.6149   -0.7052   23.5425 C   0  0  0  0  0  0  0  0  0  0  0  0
    9.9774   -0.9047   23.7838 C   0  0  0  0  0  0  0  0  0  0  0  0
   10.4014   -1.8927   23.6416 H   0  0  0  0  0  0  0  0  0  0  0  0
   10.8269    0.1401   24.2111 C   0  0  0  0  0  0  0  0  0  0  0  0
   11.8794   -0.0758   24.3792 H   0  0  0  0  0  0  0  0  0  0  0  0
   10.3397    1.4226   24.4261 C   0  0  0  0  0  0  0  0  0  0  0  0
   10.9892    2.2314   24.7519 H   0  0  0  0  0  0  0  0  0  0  0  0
    8.9649    1.6356   24.2154 C   0  0  0  0  0  0  0  0  0  0  0  0
    8.0873    0.6031   23.7927 C   0  0  0  0  0  0  0  0  0  0  0  0
    6.7781    1.2166   23.7239 C   0  0  0  0  0  0  0  0  0  0  0  0
    5.8470    0.7316   23.4538 H   0  0  0  0  0  0  0  0  0  0  0  0
    6.9095    2.5319   24.0668 C   0  0  0  0  0  0  0  0  0  0  0  0
    6.1682    3.3231   24.1231 H   0  0  0  0  0  0  0  0  0  0  0  0
    8.2301    2.7844   24.3700 N   0  0  0  0  0  0  0  0  0  0  0  0
    8.6288    3.6747   24.6198 H   0  0  0  0  0  0  0  0  0  0  0  0
    8.4428   -3.1650   22.7496 C   0  0  0  0  0  0  0  0  0  0  0  0
    9.1580   -3.0000   21.9338 H   0  0  0  0  0  0  0  0  0  0  0  0
    8.9848   -3.5643   23.6155 H   0  0  0  0  0  0  0  0  0  0  0  0
    7.7246   -3.9276   22.4273 H   0  0  0  0  0  0  0  0  0  0  0  0
    6.7475   -2.1557   24.3069 C   0  0  0  0  0  0  0  0  0  0  0  0
    6.0296   -2.9397   24.0513 H   0  0  0  0  0  0  0  0  0  0  0  0
    7.3449   -2.4836   25.1660 H   0  0  0  0  0  0  0  0  0  0  0  0
    6.1909   -1.2631   24.6135 H   0  0  0  0  0  0  0  0  0  0  0  0
    5.5036    0.5997   20.1134 C   0  0  0  0  0  0  0  0  0  0  0  0
    5.0763    0.5344   21.1149 H   0  0  0  0  0  0  0  0  0  0  0  0
    4.8574    1.2834   19.0757 C   0  0  0  0  0  0  0  0  0  0  0  0
    3.9149    1.7971   19.2349 H   0  0  0  0  0  0  0  0  0  0  0  0
  1  2  1  0
  2  3  2  0
  3  4  1  0
  4  5  1  0
  4  6  2  0
  6  7  1  0
  7  8  1  0
  7  9  1  0
  9 10  2  0
  9 11  1  0
 11 12  1  0
 12 13  2  0
 13 14  1  0
 13 15  1  0
 15 16  1  0
 15 17  2  0
 17 18  1  0
 17 19  1  0
 19 20  2  0
 20 21  1  0
 21 22  1  0
 21 23  2  0
 23 24  1  0
 23 25  1  0
 25 26  1  0
 11 27  1  0
 27 28  1  0
 27 29  1  0
 27 30  1  0
 11 31  1  0
 31 32  1  0
 31 33  1  0
 31 34  1  0
  6 35  1  0
 35 36  1  0
 35 37  2  0
 37 38  1  0
 37  2  1  0
 20 12  1  0
 25 19  1  0
M  END
>  <cnnaffinity>  (1) 
-5.4163

>  <filename>  (1) 
CC(C)(C(=O)Nc1cccnc1)c1cccc2[nH]ccc12

$$$$
