
     RDKit          3D

 28 29  0  0  0  0  0  0  0  0999 V2000
    8.9218   -3.4040   21.8213 H   0  0  0  0  0  0  0  0  0  0  0  0
    8.4376   -2.4337   21.7835 C   0  0  0  0  0  0  0  0  0  0  0  0
    7.9442   -1.9302   20.7041 N   0  0  0  0  0  0  0  0  0  0  0  0
    7.3753   -0.7069   20.9704 C   0  0  0  0  0  0  0  0  0  0  0  0
    6.6549    0.0007   19.9032 C   0  0  0  0  0  0  0  0  0  0  0  0
    7.1736    0.0490   18.5983 C   0  0  0  0  0  0  0  0  0  0  0  0
    8.1227   -0.4334   18.3767 H   0  0  0  0  0  0  0  0  0  0  0  0
    6.5706    0.6790   17.5851 N   0  0  0  0  0  0  0  0  0  0  0  0
    5.4055    1.2919   17.8445 C   0  0  0  0  0  0  0  0  0  0  0  0
    4.9164    1.7769   17.0027 H   0  0  0  0  0  0  0  0  0  0  0  0
    4.8051    1.3126   19.1086 C   0  0  0  0  0  0  0  0  0  0  0  0
    3.8713    1.8436   19.2596 H   0  0  0  0  0  0  0  0  0  0  0  0
    5.4402    0.6542   20.1576 C   0  0  0  0  0  0  0  0  0  0  0  0
    5.0083    0.6310   21.1613 H   0  0  0  0  0  0  0  0  0  0  0  0
    7.5060   -0.2441   22.2677 C   0  0  0  0  0  0  0  0  0  0  0  0
    7.1193    0.9815   22.7850 N   0  0  0  0  0  0  0  0  0  0  0  0
    6.8949    1.0031   23.7717 H   0  0  0  0  0  0  0  0  0  0  0  0
    7.5611    2.2554   22.2275 C   0  0  0  0  0  0  0  0  0  0  0  0
    7.6916    2.1024   21.1516 H   0  0  0  0  0  0  0  0  0  0  0  0
    8.9034    2.6620   22.8274 C   0  0  0  0  0  0  0  0  0  0  0  0
    9.2587    3.6002   22.3872 H   0  0  0  0  0  0  0  0  0  0  0  0
    9.6567    1.8899   22.6471 H   0  0  0  0  0  0  0  0  0  0  0  0
    8.8111    2.8075   23.9103 H   0  0  0  0  0  0  0  0  0  0  0  0
    6.5020    3.3267   22.4468 C   0  0  0  0  0  0  0  0  0  0  0  0
    5.5495    3.0272   22.0005 H   0  0  0  0  0  0  0  0  0  0  0  0
    6.3457    3.5050   23.5166 H   0  0  0  0  0  0  0  0  0  0  0  0
    6.8072    4.2743   21.9880 H   0  0  0  0  0  0  0  0  0  0  0  0
    8.3007   -1.4782   23.2136 S   0  0  0  0  0  0  0  0  0  0  0  0
  1  2  1  0
  2  3  2  0
  3  4  1  0
  4  5  1  0
  5  6  2  0
  6  7  1  0
  6  8  1  0
  8  9  2  0
  9 10  1  0
  9 11  1  0
 11 12  1  0
 11 13  2  0
 13 14  1  0
  4 15  2  0
 15 16  1  0
 16 17  1  0
 16 18  1  0
 18 19  1  0
 18 20  1  0
 20 21  1  0
 20 22  1  0
 20 23  1  0
 18 24  1  0
 24 25  1  0
 24 26  1  0
 24 27  1  0
 15 28  1  0
 28  2  1  0
 13  5  1  0
M  END
>  <cnnaffinity>  (1) 
-4.62848

>  <filename>  (1) 
CC(C)Nc1scnc1-c1cccnc1

$$$$
