
     RDKit          3D

 34 35  0  0  0  0  0  0  0  0999 V2000
    5.0742    1.7925   16.9993 H   0  0  0  0  0  0  0  0  0  0  0  0
    5.5129    1.2937   17.8611 C   0  0  0  0  0  0  0  0  0  0  0  0
    6.6740    0.6609   17.6472 N   0  0  0  0  0  0  0  0  0  0  0  0
    7.2359    0.0459   18.6995 C   0  0  0  0  0  0  0  0  0  0  0  0
    8.1709   -0.4753   18.4902 H   0  0  0  0  0  0  0  0  0  0  0  0
    6.6881    0.0079   19.9961 C   0  0  0  0  0  0  0  0  0  0  0  0
    7.3917   -0.7029   21.1441 C   0  0  0  0  0  0  0  0  0  0  0  0
    7.8197   -1.6442   20.7736 H   0  0  0  0  0  0  0  0  0  0  0  0
    6.6476   -0.9994   21.8964 H   0  0  0  0  0  0  0  0  0  0  0  0
    8.4981    0.0873   21.8456 C   0  0  0  0  0  0  0  0  0  0  0  0
    8.1034    1.3418   22.4446 N   0  0  0  0  0  0  0  0  0  0  0  0
    7.3651    1.2854   23.1252 H   0  0  0  0  0  0  0  0  0  0  0  0
    8.1885    2.5264   21.7475 C   0  0  0  0  0  0  0  0  0  0  0  0
    8.8541    2.6089   20.7353 O   0  0  0  0  0  0  0  0  0  0  0  0
    7.3971    3.7119   22.3265 C   0  0  0  0  0  0  0  0  0  0  0  0
    7.3502    3.5718   23.4184 H   0  0  0  0  0  0  0  0  0  0  0  0
    5.9617    3.6893   21.7374 C   0  0  0  0  0  0  0  0  0  0  0  0
    5.9771    3.5238   20.6504 H   0  0  0  0  0  0  0  0  0  0  0  0
    5.4221    4.6297   21.9116 H   0  0  0  0  0  0  0  0  0  0  0  0
    5.3662    2.8790   22.1739 H   0  0  0  0  0  0  0  0  0  0  0  0
    8.1227    5.0471   22.0628 C   0  0  0  0  0  0  0  0  0  0  0  0
    7.6094    5.8922   22.5379 H   0  0  0  0  0  0  0  0  0  0  0  0
    9.1449    5.0208   22.4563 H   0  0  0  0  0  0  0  0  0  0  0  0
    8.1924    5.2548   20.9901 H   0  0  0  0  0  0  0  0  0  0  0  0
    9.5644   -0.6542   22.6113 C   0  0  0  0  0  0  0  0  0  0  0  0
    9.5263   -1.7396   22.6691 H   0  0  0  0  0  0  0  0  0  0  0  0
    9.9420   -0.1726   23.5084 H   0  0  0  0  0  0  0  0  0  0  0  0
    9.8930    0.0036   21.3039 C   0  0  0  0  0  0  0  0  0  0  0  0
   10.4728    0.9208   21.3061 H   0  0  0  0  0  0  0  0  0  0  0  0
   10.0552   -0.6172   20.4253 H   0  0  0  0  0  0  0  0  0  0  0  0
    5.4688    0.6759   20.1842 C   0  0  0  0  0  0  0  0  0  0  0  0
    5.0036    0.7024   21.1735 H   0  0  0  0  0  0  0  0  0  0  0  0
    4.8668    1.3263   19.1025 C   0  0  0  0  0  0  0  0  0  0  0  0
    3.9357    1.8759   19.2074 H   0  0  0  0  0  0  0  0  0  0  0  0
  1  2  1  0
  2  3  2  0
  3  4  1  0
  4  5  1  0
  4  6  2  0
  6  7  1  0
  7  8  1  0
  7  9  1  0
  7 10  1  0
 10 11  1  0
 11 12  1  0
 11 13  1  0
 13 14  2  0
 13 15  1  0
 15 16  1  0
 15 17  1  0
 17 18  1  0
 17 19  1  0
 17 20  1  0
 15 21  1  0
 21 22  1  0
 21 23  1  0
 21 24  1  0
 10 25  1  0
 25 26  1  0
 25 27  1  0
 25 28  1  0
 28 29  1  0
 28 30  1  0
  6 31  1  0
 31 32  1  0
 31 33  2  0
 33 34  1  0
 33  2  1  0
 28 10  1  0
M  END
>  <cnnaffinity>  (1) 
-4.55727

>  <filename>  (1) 
CC(C)C(=O)NC1(Cc2cccnc2)CC1

$$$$
