
     RDKit          3D

 40 41  0  0  0  0  0  0  0  0999 V2000
    4.9187    1.8099   16.9999 H   0  0  0  0  0  0  0  0  0  0  0  0
    5.3854    1.2919   17.8335 C   0  0  0  0  0  0  0  0  0  0  0  0
    6.5417    0.6680   17.5560 N   0  0  0  0  0  0  0  0  0  0  0  0
    7.1695    0.0511   18.5665 C   0  0  0  0  0  0  0  0  0  0  0  0
    8.1197   -0.4142   18.3272 H   0  0  0  0  0  0  0  0  0  0  0  0
    6.6729   -0.0080   19.8945 C   0  0  0  0  0  0  0  0  0  0  0  0
    7.3874   -0.6609   20.9338 N   0  0  0  0  0  0  0  0  0  0  0  0
    6.8601   -1.1048   21.6672 H   0  0  0  0  0  0  0  0  0  0  0  0
    8.7623   -0.6189   21.0901 C   0  0  0  0  0  0  0  0  0  0  0  0
    9.4439    0.1573   20.4428 O   0  0  0  0  0  0  0  0  0  0  0  0
    9.3656   -1.6239   22.1324 C   0  0  0  0  0  0  0  0  0  0  0  0
   10.9137   -1.5524   22.0642 C   0  0  0  0  0  0  0  0  0  0  0  0
   11.3641   -2.2151   22.8142 H   0  0  0  0  0  0  0  0  0  0  0  0
   11.2784   -0.5325   22.2322 H   0  0  0  0  0  0  0  0  0  0  0  0
   11.2770   -1.8659   21.0796 H   0  0  0  0  0  0  0  0  0  0  0  0
    8.9379   -3.0767   21.8107 C   0  0  0  0  0  0  0  0  0  0  0  0
    7.8580   -3.2464   21.8906 H   0  0  0  0  0  0  0  0  0  0  0  0
    9.2414   -3.3314   20.7937 H   0  0  0  0  0  0  0  0  0  0  0  0
    9.4215   -3.7688   22.5109 H   0  0  0  0  0  0  0  0  0  0  0  0
    8.8888   -1.2954   23.5734 C   0  0  0  0  0  0  0  0  0  0  0  0
    7.8137   -1.5154   23.6629 H   0  0  0  0  0  0  0  0  0  0  0  0
    9.3823   -1.9940   24.2685 H   0  0  0  0  0  0  0  0  0  0  0  0
    9.1541    0.1495   24.0297 C   0  0  0  0  0  0  0  0  0  0  0  0
    8.7530    0.8448   23.2800 H   0  0  0  0  0  0  0  0  0  0  0  0
   10.2376    0.3342   24.0632 H   0  0  0  0  0  0  0  0  0  0  0  0
    8.5300    0.4182   25.3827 C   0  0  0  0  0  0  0  0  0  0  0  0
    7.2019    0.8643   25.4783 C   0  0  0  0  0  0  0  0  0  0  0  0
    6.6411    1.0458   24.5636 H   0  0  0  0  0  0  0  0  0  0  0  0
    6.5957    1.0549   26.7270 C   0  0  0  0  0  0  0  0  0  0  0  0
    5.5710    1.4162   26.7805 H   0  0  0  0  0  0  0  0  0  0  0  0
    7.3063    0.7708   27.8964 C   0  0  0  0  0  0  0  0  0  0  0  0
    6.8629    0.9517   28.8745 H   0  0  0  0  0  0  0  0  0  0  0  0
    8.6098    0.2771   27.8119 C   0  0  0  0  0  0  0  0  0  0  0  0
    9.1691    0.0468   28.7175 H   0  0  0  0  0  0  0  0  0  0  0  0
    9.2247    0.1258   26.5635 C   0  0  0  0  0  0  0  0  0  0  0  0
   10.2617   -0.2016   26.5058 H   0  0  0  0  0  0  0  0  0  0  0  0
    5.4502    0.6260   20.1568 C   0  0  0  0  0  0  0  0  0  0  0  0
    5.0437    0.6138   21.1671 H   0  0  0  0  0  0  0  0  0  0  0  0
    4.8057    1.2963   19.1064 C   0  0  0  0  0  0  0  0  0  0  0  0
    3.8787    1.8325   19.2657 H   0  0  0  0  0  0  0  0  0  0  0  0
  1  2  1  0
  2  3  2  0
  3  4  1  0
  4  5  1  0
  4  6  2  0
  6  7  1  0
  7  8  1  0
  7  9  1  0
  9 10  2  0
  9 11  1  0
 11 12  1  0
 12 13  1  0
 12 14  1  0
 12 15  1  0
 11 16  1  0
 16 17  1  0
 16 18  1  0
 16 19  1  0
 11 20  1  0
 20 21  1  0
 20 22  1  0
 20 23  1  0
 23 24  1  0
 23 25  1  0
 23 26  1  0
 26 27  2  0
 27 28  1  0
 27 29  1  0
 29 30  1  0
 29 31  2  0
 31 32  1  0
 31 33  1  0
 33 34  1  0
 33 35  2  0
 35 36  1  0
  6 37  1  0
 37 38  1  0
 37 39  2  0
 39 40  1  0
 39  2  1  0
 35 26  1  0
M  END
>  <cnnaffinity>  (1) 
-4.75116

>  <filename>  (1) 
CC(C)(CCc1ccccc1)C(=O)Nc1cccnc1

$$$$
