
     RDKit          3D

 36 37  0  0  0  0  0  0  0  0999 V2000
    5.1274    1.7447   16.9523 H   0  0  0  0  0  0  0  0  0  0  0  0
    5.5159    1.2601   17.8454 C   0  0  0  0  0  0  0  0  0  0  0  0
    6.6571    0.5735   17.6967 N   0  0  0  0  0  0  0  0  0  0  0  0
    7.1530   -0.0454   18.7657 C   0  0  0  0  0  0  0  0  0  0  0  0
    8.0589   -0.6301   18.6052 H   0  0  0  0  0  0  0  0  0  0  0  0
    6.5542    0.0412   20.0168 C   0  0  0  0  0  0  0  0  0  0  0  0
    7.3803   -0.8540   21.2864 S   0  0  0  0  0  0  0  0  0  0  0  0
    6.4337   -1.0198   22.3865 O   0  0  0  0  0  0  0  0  0  0  0  0
    7.9289   -2.0489   20.6472 O   0  0  0  0  0  0  0  0  0  0  0  0
    8.8764    0.1926   21.8935 C   0  0  0  0  0  0  0  0  0  0  0  0
    8.4242    1.6309   22.2490 C   0  0  0  0  0  0  0  0  0  0  0  0
    7.1068    1.7903   22.7293 C   0  0  0  0  0  0  0  0  0  0  0  0
    6.5699    0.9281   23.1012 H   0  0  0  0  0  0  0  0  0  0  0  0
    6.4603    3.0244   22.6973 C   0  0  0  0  0  0  0  0  0  0  0  0
    5.3862    3.0896   22.8630 H   0  0  0  0  0  0  0  0  0  0  0  0
    7.2066    4.1705   22.4310 C   0  0  0  0  0  0  0  0  0  0  0  0
    6.7350    5.1468   22.4077 H   0  0  0  0  0  0  0  0  0  0  0  0
    8.5778    4.0554   22.2347 C   0  0  0  0  0  0  0  0  0  0  0  0
    9.1690    4.9595   22.1439 H   0  0  0  0  0  0  0  0  0  0  0  0
    9.2213    2.8031   22.1742 C   0  0  0  0  0  0  0  0  0  0  0  0
   10.7398    2.8412   22.0420 C   0  0  0  0  0  0  0  0  0  0  0  0
   11.2749    4.0113   22.4516 F   0  0  0  0  0  0  0  0  0  0  0  0
   11.3682    1.8960   22.7756 F   0  0  0  0  0  0  0  0  0  0  0  0
   11.1465    2.6706   20.7654 F   0  0  0  0  0  0  0  0  0  0  0  0
    9.9234    0.0966   20.7717 C   0  0  0  0  0  0  0  0  0  0  0  0
   10.8989    0.4464   21.1021 H   0  0  0  0  0  0  0  0  0  0  0  0
   10.0504   -0.9454   20.4580 H   0  0  0  0  0  0  0  0  0  0  0  0
    9.6082    0.6929   19.9075 H   0  0  0  0  0  0  0  0  0  0  0  0
    9.3819   -0.4913   23.1790 C   0  0  0  0  0  0  0  0  0  0  0  0
    9.6649   -1.5363   23.0024 H   0  0  0  0  0  0  0  0  0  0  0  0
    8.6117   -0.4575   23.9609 H   0  0  0  0  0  0  0  0  0  0  0  0
   10.2628    0.0483   23.5391 H   0  0  0  0  0  0  0  0  0  0  0  0
    5.3444    0.7217   20.1857 C   0  0  0  0  0  0  0  0  0  0  0  0
    4.8209    0.7811   21.1453 H   0  0  0  0  0  0  0  0  0  0  0  0
    4.8216    1.3431   19.0552 C   0  0  0  0  0  0  0  0  0  0  0  0
    3.8884    1.8940   19.0902 H   0  0  0  0  0  0  0  0  0  0  0  0
  1  2  1  0
  2  3  2  0
  3  4  1  0
  4  5  1  0
  4  6  2  0
  6  7  1  0
  7  8  2  0
  7  9  2  0
  7 10  1  0
 10 11  1  0
 11 12  2  0
 12 13  1  0
 12 14  1  0
 14 15  1  0
 14 16  2  0
 16 17  1  0
 16 18  1  0
 18 19  1  0
 18 20  2  0
 20 21  1  0
 21 22  1  0
 21 23  1  0
 21 24  1  0
 10 25  1  0
 25 26  1  0
 25 27  1  0
 25 28  1  0
 10 29  1  0
 29 30  1  0
 29 31  1  0
 29 32  1  0
  6 33  1  0
 33 34  1  0
 33 35  2  0
 35 36  1  0
 35  2  1  0
 20 11  1  0
M  END
>  <cnnaffinity>  (1) 
-4.95425

>  <filename>  (1) 
CC(C)(c1ccccc1C(F)(F)F)S(=O)(=O)c1cccnc1

$$$$
