
     RDKit          3D

 34 36  0  0  0  0  0  0  0  0999 V2000
    5.0018    1.8506   16.9971 H   0  0  0  0  0  0  0  0  0  0  0  0
    5.5193    1.3220   17.7955 C   0  0  0  0  0  0  0  0  0  0  0  0
    6.6740    0.7259   17.4556 N   0  0  0  0  0  0  0  0  0  0  0  0
    7.3548    0.0793   18.4113 C   0  0  0  0  0  0  0  0  0  0  0  0
    8.2919   -0.3781   18.0881 H   0  0  0  0  0  0  0  0  0  0  0  0
    6.8998   -0.0365   19.7403 C   0  0  0  0  0  0  0  0  0  0  0  0
    7.5903   -0.8129   20.7049 N   0  0  0  0  0  0  0  0  0  0  0  0
    8.9477   -0.7415   21.0104 C   0  0  0  0  0  0  0  0  0  0  0  0
    9.5693   -0.0384   20.4774 H   0  0  0  0  0  0  0  0  0  0  0  0
    9.2283   -1.6044   22.0226 C   0  0  0  0  0  0  0  0  0  0  0  0
   10.1264   -1.8352   22.5686 H   0  0  0  0  0  0  0  0  0  0  0  0
    8.0316   -2.2229   22.3398 N   0  0  0  0  0  0  0  0  0  0  0  0
    7.6393   -3.1806   23.2235 N   0  0  0  0  0  0  0  0  0  0  0  0
    6.3346   -3.3016   22.9696 C   0  0  0  0  0  0  0  0  0  0  0  0
    5.4632   -4.3054   23.6835 C   0  0  0  0  0  0  0  0  0  0  0  0
    4.4379   -3.9055   23.7088 H   0  0  0  0  0  0  0  0  0  0  0  0
    5.7972   -4.3972   24.7227 H   0  0  0  0  0  0  0  0  0  0  0  0
    5.4753   -5.7097   23.0219 C   0  0  0  0  0  0  0  0  0  0  0  0
    6.5145   -6.0658   23.0997 H   0  0  0  0  0  0  0  0  0  0  0  0
    4.5960   -6.7257   23.7633 C   0  0  0  0  0  0  0  0  0  0  0  0
    4.8624   -6.8038   24.8192 H   0  0  0  0  0  0  0  0  0  0  0  0
    3.5246   -6.4897   23.7085 H   0  0  0  0  0  0  0  0  0  0  0  0
    4.7170   -7.7269   23.3378 H   0  0  0  0  0  0  0  0  0  0  0  0
    5.0775   -5.6734   21.5394 C   0  0  0  0  0  0  0  0  0  0  0  0
    3.9846   -5.6319   21.4397 H   0  0  0  0  0  0  0  0  0  0  0  0
    5.4329   -6.5699   21.0228 H   0  0  0  0  0  0  0  0  0  0  0  0
    5.4899   -4.8083   21.0106 H   0  0  0  0  0  0  0  0  0  0  0  0
    5.8933   -2.4494   21.9361 C   0  0  0  0  0  0  0  0  0  0  0  0
    4.8864   -2.3789   21.5892 H   0  0  0  0  0  0  0  0  0  0  0  0
    7.0385   -1.7611   21.5553 C   0  0  0  0  0  0  0  0  0  0  0  0
    5.7044    0.6110   20.0889 C   0  0  0  0  0  0  0  0  0  0  0  0
    5.3626    0.5848   21.1243 H   0  0  0  0  0  0  0  0  0  0  0  0
    5.0008    1.2951   19.0949 C   0  0  0  0  0  0  0  0  0  0  0  0
    4.0749    1.8153   19.3195 H   0  0  0  0  0  0  0  0  0  0  0  0
  1  2  1  0
  2  3  2  0
  3  4  1  0
  4  5  1  0
  4  6  2  0
  6  7  1  0
  7  8  1  0
  8  9  1  0
  8 10  2  0
 10 11  1  0
 10 12  1  0
 12 13  1  0
 13 14  2  0
 14 15  1  0
 15 16  1  0
 15 17  1  0
 15 18  1  0
 18 19  1  0
 18 20  1  0
 20 21  1  0
 20 22  1  0
 20 23  1  0
 18 24  1  0
 24 25  1  0
 24 26  1  0
 24 27  1  0
 14 28  1  0
 28 29  1  0
 28 30  2  0
  6 31  1  0
 31 32  1  0
 31 33  2  0
 33 34  1  0
 33  2  1  0
 30  7  1  0
 30 12  1  0
M  END
>  <cnnaffinity>  (1) 
-5.12349

>  <filename>  (1) 
CC(C)Cc1cc2n(-c3cccnc3)ccn2n1

$$$$
