
     RDKit          3D

 42 45  0  0  0  0  0  0  0  0999 V2000
    4.9445    1.7773   16.9782 H   0  0  0  0  0  0  0  0  0  0  0  0
    5.4065    1.2909   17.8324 C   0  0  0  0  0  0  0  0  0  0  0  0
    6.5685    0.6616   17.5962 N   0  0  0  0  0  0  0  0  0  0  0  0
    7.1575    0.0828   18.6446 C   0  0  0  0  0  0  0  0  0  0  0  0
    8.1037   -0.4141   18.4299 H   0  0  0  0  0  0  0  0  0  0  0  0
    6.6530    0.1027   19.9623 C   0  0  0  0  0  0  0  0  0  0  0  0
    7.4296   -0.5874   21.0101 C   0  0  0  0  0  0  0  0  0  0  0  0
    8.2952   -1.6116   20.8402 C   0  0  0  0  0  0  0  0  0  0  0  0
    8.7106   -1.9719   19.9196 H   0  0  0  0  0  0  0  0  0  0  0  0
    8.8729   -2.3031   22.3271 S   0  0  0  0  0  0  0  0  0  0  0  0
    8.0773   -1.0390   23.2023 C   0  0  0  0  0  0  0  0  0  0  0  0
    8.1021   -0.5389   24.4142 N   0  0  0  0  0  0  0  0  0  0  0  0
    7.3443    0.5866   24.2597 C   0  0  0  0  0  0  0  0  0  0  0  0
    7.0946    1.5372   25.3559 C   0  0  0  0  0  0  0  0  0  0  0  0
    7.6302    1.3128   26.6365 C   0  0  0  0  0  0  0  0  0  0  0  0
    8.2534    0.4439   26.8305 H   0  0  0  0  0  0  0  0  0  0  0  0
    7.3701    2.2026   27.6714 C   0  0  0  0  0  0  0  0  0  0  0  0
    7.7921    2.0138   28.6532 H   0  0  0  0  0  0  0  0  0  0  0  0
    6.5704    3.3392   27.4714 C   0  0  0  0  0  0  0  0  0  0  0  0
    6.2324    4.3387   28.5805 C   0  0  0  0  0  0  0  0  0  0  0  0
    6.8017    5.7181   28.1850 C   0  0  0  0  0  0  0  0  0  0  0  0
    6.6099    6.4632   28.9644 H   0  0  0  0  0  0  0  0  0  0  0  0
    6.3606    6.0833   27.2513 H   0  0  0  0  0  0  0  0  0  0  0  0
    7.8841    5.6528   28.0224 H   0  0  0  0  0  0  0  0  0  0  0  0
    6.8053    3.9438   29.9510 C   0  0  0  0  0  0  0  0  0  0  0  0
    6.4807    4.6569   30.7150 H   0  0  0  0  0  0  0  0  0  0  0  0
    7.8963    3.9397   29.9619 H   0  0  0  0  0  0  0  0  0  0  0  0
    6.4674    2.9450   30.2498 H   0  0  0  0  0  0  0  0  0  0  0  0
    4.6989    4.4166   28.7470 C   0  0  0  0  0  0  0  0  0  0  0  0
    4.2958    3.4297   29.0034 H   0  0  0  0  0  0  0  0  0  0  0  0
    4.4312    5.1179   29.5450 H   0  0  0  0  0  0  0  0  0  0  0  0
    4.1971    4.7402   27.8307 H   0  0  0  0  0  0  0  0  0  0  0  0
    6.0602    3.5664   26.1793 C   0  0  0  0  0  0  0  0  0  0  0  0
    5.4516    4.4456   25.9812 H   0  0  0  0  0  0  0  0  0  0  0  0
    6.3127    2.6879   25.1359 C   0  0  0  0  0  0  0  0  0  0  0  0
    5.9128    2.8859   24.1466 H   0  0  0  0  0  0  0  0  0  0  0  0
    6.8570    0.7905   23.0376 N   0  0  0  0  0  0  0  0  0  0  0  0
    7.3304   -0.2853   22.3681 N   0  0  0  0  0  0  0  0  0  0  0  0
    5.4175    0.7451   20.1839 C   0  0  0  0  0  0  0  0  0  0  0  0
    4.9855    0.7834   21.1888 H   0  0  0  0  0  0  0  0  0  0  0  0
    4.7908    1.3380   19.0882 C   0  0  0  0  0  0  0  0  0  0  0  0
    3.8395    1.8463   19.1976 H   0  0  0  0  0  0  0  0  0  0  0  0
  1  2  1  0
  2  3  2  0
  3  4  1  0
  4  5  1  0
  4  6  2  0
  6  7  1  0
  7  8  2  0
  8  9  1  0
  8 10  1  0
 10 11  1  0
 11 12  2  0
 12 13  1  0
 13 14  1  0
 14 15  2  0
 15 16  1  0
 15 17  1  0
 17 18  1  0
 17 19  2  0
 19 20  1  0
 20 21  1  0
 21 22  1  0
 21 23  1  0
 21 24  1  0
 20 25  1  0
 25 26  1  0
 25 27  1  0
 25 28  1  0
 20 29  1  0
 29 30  1  0
 29 31  1  0
 29 32  1  0
 19 33  1  0
 33 34  1  0
 33 35  2  0
 35 36  1  0
 13 37  2  0
 37 38  1  0
  6 39  1  0
 39 40  1  0
 39 41  2  0
 41 42  1  0
 41  2  1  0
 38  7  1  0
 38 11  1  0
 35 14  1  0
M  END
>  <cnnaffinity>  (1) 
-5.2643

>  <filename>  (1) 
CC(C)(C)c1ccc(-c2nc3scc(-c4cccnc4)n3n2)cc1

$$$$
