
     RDKit          3D

 34 35  0  0  0  0  0  0  0  0999 V2000
    4.9321    1.7904   16.9875 H   0  0  0  0  0  0  0  0  0  0  0  0
    5.3963    1.2944   17.8369 C   0  0  0  0  0  0  0  0  0  0  0  0
    6.5515    0.6662   17.5792 N   0  0  0  0  0  0  0  0  0  0  0  0
    7.1469    0.0426   18.6009 C   0  0  0  0  0  0  0  0  0  0  0  0
    8.1119   -0.4139   18.3847 H   0  0  0  0  0  0  0  0  0  0  0  0
    6.6191   -0.0149   19.9012 C   0  0  0  0  0  0  0  0  0  0  0  0
    7.3252   -0.7345   20.9672 C   0  0  0  0  0  0  0  0  0  0  0  0
    6.6013   -1.5132   21.7454 N   0  0  0  0  0  0  0  0  0  0  0  0
    7.2010   -2.1884   22.7896 C   0  0  0  0  0  0  0  0  0  0  0  0
    6.3159   -3.0220   23.6988 C   0  0  0  0  0  0  0  0  0  0  0  0
    5.4225   -3.3063   23.1187 H   0  0  0  0  0  0  0  0  0  0  0  0
    6.8450   -3.9485   23.9744 H   0  0  0  0  0  0  0  0  0  0  0  0
    6.0097   -2.3122   24.9526 N   0  0  0  0  0  0  0  0  0  0  0  0
    5.4148   -1.5147   24.7193 H   0  0  0  0  0  0  0  0  0  0  0  0
    5.3434   -3.1035   25.9816 C   0  0  0  0  0  0  0  0  0  0  0  0
    5.8995   -4.0528   26.0553 H   0  0  0  0  0  0  0  0  0  0  0  0
    3.8796   -3.4044   25.6479 C   0  0  0  0  0  0  0  0  0  0  0  0
    3.4072   -3.9766   26.4534 H   0  0  0  0  0  0  0  0  0  0  0  0
    3.3180   -2.4677   25.5221 H   0  0  0  0  0  0  0  0  0  0  0  0
    3.7912   -3.9820   24.7212 H   0  0  0  0  0  0  0  0  0  0  0  0
    5.4819   -2.3788   27.3154 C   0  0  0  0  0  0  0  0  0  0  0  0
    4.9512   -1.4186   27.2904 H   0  0  0  0  0  0  0  0  0  0  0  0
    5.0647   -2.9796   28.1320 H   0  0  0  0  0  0  0  0  0  0  0  0
    6.5351   -2.1787   27.5273 H   0  0  0  0  0  0  0  0  0  0  0  0
    8.5393   -2.0975   23.0412 C   0  0  0  0  0  0  0  0  0  0  0  0
    9.0247   -2.6218   23.8568 H   0  0  0  0  0  0  0  0  0  0  0  0
    9.3079   -1.2962   22.2339 N   0  0  0  0  0  0  0  0  0  0  0  0
   10.3021   -1.1228   22.3153 H   0  0  0  0  0  0  0  0  0  0  0  0
    8.8131   -0.5499   21.1757 C   0  0  0  0  0  0  0  0  0  0  0  0
    9.6200    0.1421   20.5713 O   0  0  0  0  0  0  0  0  0  0  0  0
    5.4051    0.6449   20.1515 C   0  0  0  0  0  0  0  0  0  0  0  0
    4.9713    0.6396   21.1553 H   0  0  0  0  0  0  0  0  0  0  0  0
    4.7938    1.3208   19.0998 C   0  0  0  0  0  0  0  0  0  0  0  0
    3.8666    1.8590   19.2421 H   0  0  0  0  0  0  0  0  0  0  0  0
  1  2  1  0
  2  3  2  0
  3  4  1  0
  4  5  1  0
  4  6  2  0
  6  7  1  0
  7  8  2  0
  8  9  1  0
  9 10  1  0
 10 11  1  0
 10 12  1  0
 10 13  1  0
 13 14  1  0
 13 15  1  0
 15 16  1  0
 15 17  1  0
 17 18  1  0
 17 19  1  0
 17 20  1  0
 15 21  1  0
 21 22  1  0
 21 23  1  0
 21 24  1  0
  9 25  2  0
 25 26  1  0
 25 27  1  0
 27 28  1  0
 27 29  1  0
 29 30  2  0
  6 31  1  0
 31 32  1  0
 31 33  2  0
 33 34  1  0
 33  2  1  0
 29  7  1  0
M  END
>  <cnnaffinity>  (1) 
-5.00001

>  <filename>  (1) 
CC(C)NCc1c[nH]c(=O)c(-c2cccnc2)n1

$$$$
