
     RDKit          3D

 46 47  0  0  0  0  0  0  0  0999 V2000
    4.8072    1.8506   16.9598 H   0  0  0  0  0  0  0  0  0  0  0  0
    5.3241    1.3283   17.7601 C   0  0  0  0  0  0  0  0  0  0  0  0
    6.4686    0.7155   17.4144 N   0  0  0  0  0  0  0  0  0  0  0  0
    7.1507    0.0835   18.3790 C   0  0  0  0  0  0  0  0  0  0  0  0
    8.0674   -0.4152   18.0759 H   0  0  0  0  0  0  0  0  0  0  0  0
    6.7320    0.0332   19.7316 C   0  0  0  0  0  0  0  0  0  0  0  0
    7.4829   -0.5870   20.7552 N   0  0  0  0  0  0  0  0  0  0  0  0
    6.9900   -0.7847   21.6134 H   0  0  0  0  0  0  0  0  0  0  0  0
    8.8605   -0.5338   20.9126 C   0  0  0  0  0  0  0  0  0  0  0  0
    9.5574    0.1604   20.1996 O   0  0  0  0  0  0  0  0  0  0  0  0
    9.4086   -1.4959   22.0106 C   0  0  0  0  0  0  0  0  0  0  0  0
    8.7717   -1.1420   23.3672 C   0  0  0  0  0  0  0  0  0  0  0  0
    8.6867    0.1965   23.8131 C   0  0  0  0  0  0  0  0  0  0  0  0
    9.0926    1.0041   23.2029 H   0  0  0  0  0  0  0  0  0  0  0  0
    8.0581    0.5094   25.0261 C   0  0  0  0  0  0  0  0  0  0  0  0
    8.0057    1.5528   25.3398 H   0  0  0  0  0  0  0  0  0  0  0  0
    7.4938   -0.4979   25.8416 C   0  0  0  0  0  0  0  0  0  0  0  0
    6.7925   -0.1756   27.1828 C   0  0  0  0  0  0  0  0  0  0  0  0
    5.6925    0.8937   26.9916 C   0  0  0  0  0  0  0  0  0  0  0  0
    4.8738    0.5294   26.3602 H   0  0  0  0  0  0  0  0  0  0  0  0
    6.0852    1.8024   26.5270 H   0  0  0  0  0  0  0  0  0  0  0  0
    5.2716    1.1784   27.9633 H   0  0  0  0  0  0  0  0  0  0  0  0
    7.8572    0.3920   28.1569 C   0  0  0  0  0  0  0  0  0  0  0  0
    7.4316    0.5926   29.1484 H   0  0  0  0  0  0  0  0  0  0  0  0
    8.2617    1.3355   27.7706 H   0  0  0  0  0  0  0  0  0  0  0  0
    8.7033   -0.2923   28.2928 H   0  0  0  0  0  0  0  0  0  0  0  0
    6.1166   -1.4214   27.8137 C   0  0  0  0  0  0  0  0  0  0  0  0
    6.7982   -2.2707   27.8756 H   0  0  0  0  0  0  0  0  0  0  0  0
    5.7900   -1.2042   28.8345 H   0  0  0  0  0  0  0  0  0  0  0  0
    5.2381   -1.7536   27.2408 H   0  0  0  0  0  0  0  0  0  0  0  0
    7.6548   -1.8224   25.4123 C   0  0  0  0  0  0  0  0  0  0  0  0
    7.2726   -2.6387   26.0106 H   0  0  0  0  0  0  0  0  0  0  0  0
    8.2812   -2.1388   24.2121 C   0  0  0  0  0  0  0  0  0  0  0  0
    8.3618   -3.1833   23.9299 H   0  0  0  0  0  0  0  0  0  0  0  0
    9.0441   -2.9329   21.5461 C   0  0  0  0  0  0  0  0  0  0  0  0
    9.4273   -3.6749   22.2487 H   0  0  0  0  0  0  0  0  0  0  0  0
    9.4869   -3.1228   20.5693 H   0  0  0  0  0  0  0  0  0  0  0  0
    7.9643   -3.0987   21.4716 H   0  0  0  0  0  0  0  0  0  0  0  0
   10.9503   -1.4025   22.1279 C   0  0  0  0  0  0  0  0  0  0  0  0
   11.4331   -1.5563   21.1562 H   0  0  0  0  0  0  0  0  0  0  0  0
   11.2658   -0.4259   22.5130 H   0  0  0  0  0  0  0  0  0  0  0  0
   11.3212   -2.1698   22.8188 H   0  0  0  0  0  0  0  0  0  0  0  0
    5.5038    0.6202   20.0580 C   0  0  0  0  0  0  0  0  0  0  0  0
    5.1360    0.5582   21.0827 H   0  0  0  0  0  0  0  0  0  0  0  0
    4.7970    1.2952   19.0566 C   0  0  0  0  0  0  0  0  0  0  0  0
    3.8558    1.7937   19.2683 H   0  0  0  0  0  0  0  0  0  0  0  0
  1  2  1  0
  2  3  2  0
  3  4  1  0
  4  5  1  0
  4  6  2  0
  6  7  1  0
  7  8  1  0
  7  9  1  0
  9 10  2  0
  9 11  1  0
 11 12  1  0
 12 13  2  0
 13 14  1  0
 13 15  1  0
 15 16  1  0
 15 17  2  0
 17 18  1  0
 18 19  1  0
 19 20  1  0
 19 21  1  0
 19 22  1  0
 18 23  1  0
 23 24  1  0
 23 25  1  0
 23 26  1  0
 18 27  1  0
 27 28  1  0
 27 29  1  0
 27 30  1  0
 17 31  1  0
 31 32  1  0
 31 33  2  0
 33 34  1  0
 11 35  1  0
 35 36  1  0
 35 37  1  0
 35 38  1  0
 11 39  1  0
 39 40  1  0
 39 41  1  0
 39 42  1  0
  6 43  1  0
 43 44  1  0
 43 45  2  0
 45 46  1  0
 45  2  1  0
 33 12  1  0
M  END
>  <cnnaffinity>  (1) 
-5.59807

>  <filename>  (1) 
CC(C)(C)c1ccc(C(C)(C)C(=O)Nc2cccnc2)cc1

$$$$
