
     RDKit          3D

 47 50  0  0  0  0  0  0  0  0999 V2000
    4.9475    1.8243   16.9749 H   0  0  0  0  0  0  0  0  0  0  0  0
    5.4029    1.2943   17.8103 C   0  0  0  0  0  0  0  0  0  0  0  0
    6.5623    0.6653   17.5556 N   0  0  0  0  0  0  0  0  0  0  0  0
    7.1512    0.0155   18.5643 C   0  0  0  0  0  0  0  0  0  0  0  0
    8.1045   -0.4576   18.3283 H   0  0  0  0  0  0  0  0  0  0  0  0
    6.6234   -0.0361   19.8660 C   0  0  0  0  0  0  0  0  0  0  0  0
    7.3584   -0.6954   20.9517 C   0  0  0  0  0  0  0  0  0  0  0  0
    8.0854   -1.7899   20.7334 N   0  0  0  0  0  0  0  0  0  0  0  0
    8.5631   -2.0915   21.9384 N   0  0  0  0  0  0  0  0  0  0  0  0
    8.2368   -1.2571   22.9204 C   0  0  0  0  0  0  0  0  0  0  0  0
    7.4477   -0.2913   22.3223 C   0  0  0  0  0  0  0  0  0  0  0  0
    7.0787    0.9533   22.9657 C   0  0  0  0  0  0  0  0  0  0  0  0
    7.2728    2.1878   22.3242 C   0  0  0  0  0  0  0  0  0  0  0  0
    7.6754    2.2052   21.3123 H   0  0  0  0  0  0  0  0  0  0  0  0
    6.9605    3.3648   22.9828 C   0  0  0  0  0  0  0  0  0  0  0  0
    7.1132    4.3054   22.4607 H   0  0  0  0  0  0  0  0  0  0  0  0
    6.4480    3.3551   24.2979 C   0  0  0  0  0  0  0  0  0  0  0  0
    6.0982    4.6917   24.9663 C   0  0  0  0  0  0  0  0  0  0  0  0
    5.0269    5.4229   24.1175 C   0  0  0  0  0  0  0  0  0  0  0  0
    5.3909    5.6542   23.1085 H   0  0  0  0  0  0  0  0  0  0  0  0
    4.7436    6.3690   24.5926 H   0  0  0  0  0  0  0  0  0  0  0  0
    4.1222    4.8092   24.0084 H   0  0  0  0  0  0  0  0  0  0  0  0
    7.3731    5.5675   25.0554 C   0  0  0  0  0  0  0  0  0  0  0  0
    7.7799    5.7994   24.0631 H   0  0  0  0  0  0  0  0  0  0  0  0
    8.1624    5.0588   25.6253 H   0  0  0  0  0  0  0  0  0  0  0  0
    7.1491    6.5180   25.5531 H   0  0  0  0  0  0  0  0  0  0  0  0
    5.5385    4.5117   26.3920 C   0  0  0  0  0  0  0  0  0  0  0  0
    6.2659    4.0221   27.0538 H   0  0  0  0  0  0  0  0  0  0  0  0
    5.3026    5.4915   26.8194 H   0  0  0  0  0  0  0  0  0  0  0  0
    4.6172    3.9132   26.3930 H   0  0  0  0  0  0  0  0  0  0  0  0
    6.2782    2.1081   24.9287 C   0  0  0  0  0  0  0  0  0  0  0  0
    5.8924    2.0646   25.9412 H   0  0  0  0  0  0  0  0  0  0  0  0
    6.5996    0.9252   24.2784 C   0  0  0  0  0  0  0  0  0  0  0  0
    6.4728   -0.0359   24.7760 H   0  0  0  0  0  0  0  0  0  0  0  0
    9.0741   -1.5011   24.1505 C   0  0  0  0  0  0  0  0  0  0  0  0
    8.4640   -1.7025   25.0392 H   0  0  0  0  0  0  0  0  0  0  0  0
    9.6714   -0.6056   24.3655 H   0  0  0  0  0  0  0  0  0  0  0  0
    9.9450   -2.7192   23.7272 C   0  0  0  0  0  0  0  0  0  0  0  0
   11.0043   -2.4859   23.7833 H   0  0  0  0  0  0  0  0  0  0  0  0
    9.7627   -3.5887   24.3558 H   0  0  0  0  0  0  0  0  0  0  0  0
    9.5716   -3.0563   22.2581 C   0  0  0  0  0  0  0  0  0  0  0  0
    9.1497   -4.0581   22.1478 H   0  0  0  0  0  0  0  0  0  0  0  0
   10.4089   -2.9065   21.5741 H   0  0  0  0  0  0  0  0  0  0  0  0
    5.4100    0.6233   20.1109 C   0  0  0  0  0  0  0  0  0  0  0  0
    4.9962    0.6500   21.1199 H   0  0  0  0  0  0  0  0  0  0  0  0
    4.7872    1.2970   19.0651 C   0  0  0  0  0  0  0  0  0  0  0  0
    3.8624    1.8458   19.2214 H   0  0  0  0  0  0  0  0  0  0  0  0
  1  2  1  0
  2  3  2  0
  3  4  1  0
  4  5  1  0
  4  6  2  0
  6  7  1  0
  7  8  2  0
  8  9  1  0
  9 10  1  0
 10 11  2  0
 11 12  1  0
 12 13  2  0
 13 14  1  0
 13 15  1  0
 15 16  1  0
 15 17  2  0
 17 18  1  0
 18 19  1  0
 19 20  1  0
 19 21  1  0
 19 22  1  0
 18 23  1  0
 23 24  1  0
 23 25  1  0
 23 26  1  0
 18 27  1  0
 27 28  1  0
 27 29  1  0
 27 30  1  0
 17 31  1  0
 31 32  1  0
 31 33  2  0
 33 34  1  0
 10 35  1  0
 35 36  1  0
 35 37  1  0
 35 38  1  0
 38 39  1  0
 38 40  1  0
 38 41  1  0
 41 42  1  0
 41 43  1  0
  6 44  1  0
 44 45  1  0
 44 46  2  0
 46 47  1  0
 46  2  1  0
 11  7  1  0
 33 12  1  0
 41  9  1  0
M  END
>  <cnnaffinity>  (1) 
-5.72868

>  <filename>  (1) 
CC(C)(C)c1ccc(-c2c(-c3cccnc3)nn3c2CCC3)cc1

$$$$
