
     RDKit          3D

 39 40  0  0  0  0  0  0  0  0999 V2000
    4.9015    1.8195   16.9641 H   0  0  0  0  0  0  0  0  0  0  0  0
    5.3758    1.3192   17.8060 C   0  0  0  0  0  0  0  0  0  0  0  0
    6.5381    0.6973   17.5447 N   0  0  0  0  0  0  0  0  0  0  0  0
    7.1608    0.1014   18.5711 C   0  0  0  0  0  0  0  0  0  0  0  0
    8.1010   -0.4037   18.3400 H   0  0  0  0  0  0  0  0  0  0  0  0
    6.6880    0.1046   19.9136 C   0  0  0  0  0  0  0  0  0  0  0  0
    7.4352   -0.5228   20.9477 N   0  0  0  0  0  0  0  0  0  0  0  0
    7.5188   -1.9805   20.9373 C   0  0  0  0  0  0  0  0  0  0  0  0
    6.7682   -2.4436   21.6014 H   0  0  0  0  0  0  0  0  0  0  0  0
    7.2733   -2.3346   19.9417 H   0  0  0  0  0  0  0  0  0  0  0  0
    8.9230   -2.3851   21.3805 C   0  0  0  0  0  0  0  0  0  0  0  0
    9.6692   -1.9626   20.6935 H   0  0  0  0  0  0  0  0  0  0  0  0
    9.0295   -3.4727   21.3584 H   0  0  0  0  0  0  0  0  0  0  0  0
    9.1875   -1.8531   22.7964 C   0  0  0  0  0  0  0  0  0  0  0  0
   10.2489   -2.0081   23.0558 H   0  0  0  0  0  0  0  0  0  0  0  0
    8.3378   -2.5183   23.7297 O   0  0  0  0  0  0  0  0  0  0  0  0
    8.8494   -3.6876   24.3585 C   0  0  0  0  0  0  0  0  0  0  0  0
    9.3461   -4.3501   23.6272 H   0  0  0  0  0  0  0  0  0  0  0  0
    9.6094   -3.4062   25.1084 H   0  0  0  0  0  0  0  0  0  0  0  0
    7.7299   -4.4724   25.0569 C   0  0  0  0  0  0  0  0  0  0  0  0
    8.2453   -5.3110   25.5517 H   0  0  0  0  0  0  0  0  0  0  0  0
    7.0364   -3.6495   26.1519 C   0  0  0  0  0  0  0  0  0  0  0  0
    6.4909   -2.8015   25.7247 H   0  0  0  0  0  0  0  0  0  0  0  0
    6.3193   -4.2611   26.7115 H   0  0  0  0  0  0  0  0  0  0  0  0
    7.7603   -3.2460   26.8696 H   0  0  0  0  0  0  0  0  0  0  0  0
    6.7195   -5.0795   24.0711 C   0  0  0  0  0  0  0  0  0  0  0  0
    5.9954   -5.7155   24.5935 H   0  0  0  0  0  0  0  0  0  0  0  0
    6.1556   -4.3018   23.5438 H   0  0  0  0  0  0  0  0  0  0  0  0
    7.2153   -5.6993   23.3151 H   0  0  0  0  0  0  0  0  0  0  0  0
    8.8742   -0.3538   22.8828 C   0  0  0  0  0  0  0  0  0  0  0  0
    8.9664   -0.0283   23.9220 H   0  0  0  0  0  0  0  0  0  0  0  0
    9.6218    0.1998   22.3033 H   0  0  0  0  0  0  0  0  0  0  0  0
    7.4896   -0.0074   22.3156 C   0  0  0  0  0  0  0  0  0  0  0  0
    6.7070   -0.4504   22.9612 H   0  0  0  0  0  0  0  0  0  0  0  0
    7.3366    1.0783   22.3167 H   0  0  0  0  0  0  0  0  0  0  0  0
    5.4499    0.7264   20.1448 C   0  0  0  0  0  0  0  0  0  0  0  0
    5.0344    0.6943   21.1496 H   0  0  0  0  0  0  0  0  0  0  0  0
    4.7870    1.3434   19.0752 C   0  0  0  0  0  0  0  0  0  0  0  0
    3.8363    1.8470   19.2198 H   0  0  0  0  0  0  0  0  0  0  0  0
  1  2  1  0
  2  3  2  0
  3  4  1  0
  4  5  1  0
  4  6  2  0
  6  7  1  0
  7  8  1  0
  8  9  1  0
  8 10  1  0
  8 11  1  0
 11 12  1  0
 11 13  1  0
 11 14  1  0
 14 15  1  0
 14 16  1  0
 16 17  1  0
 17 18  1  0
 17 19  1  0
 17 20  1  0
 20 21  1  0
 20 22  1  0
 22 23  1  0
 22 24  1  0
 22 25  1  0
 20 26  1  0
 26 27  1  0
 26 28  1  0
 26 29  1  0
 14 30  1  0
 30 31  1  0
 30 32  1  0
 30 33  1  0
 33 34  1  0
 33 35  1  0
  6 36  1  0
 36 37  1  0
 36 38  2  0
 38 39  1  0
 38  2  1  0
 33  7  1  0
M  END
>  <cnnaffinity>  (1) 
-5.02901

>  <filename>  (1) 
CC(C)COC1CCN(c2cccnc2)CC1

$$$$
