
     RDKit          3D

 31 33  0  0  0  0  0  0  0  0999 V2000
    4.9731    1.7863   16.9792 H   0  0  0  0  0  0  0  0  0  0  0  0
    5.4135    1.2822   17.8359 C   0  0  0  0  0  0  0  0  0  0  0  0
    6.5744    0.6510   17.6062 N   0  0  0  0  0  0  0  0  0  0  0  0
    7.1680    0.0412   18.6356 C   0  0  0  0  0  0  0  0  0  0  0  0
    8.1192   -0.4368   18.4101 H   0  0  0  0  0  0  0  0  0  0  0  0
    6.6280    0.0140   19.9297 C   0  0  0  0  0  0  0  0  0  0  0  0
    7.3434   -0.6883   20.9963 C   0  0  0  0  0  0  0  0  0  0  0  0
    8.5330   -1.3310   20.7921 N   0  0  0  0  0  0  0  0  0  0  0  0
    8.7888   -1.8004   21.9905 C   0  0  0  0  0  0  0  0  0  0  0  0
   10.0474   -2.7349   22.7623 S   0  0  0  0  0  0  0  0  0  0  0  0
    9.1643   -2.6525   24.2912 C   0  0  0  0  0  0  0  0  0  0  0  0
    9.4876   -3.0919   25.2237 H   0  0  0  0  0  0  0  0  0  0  0  0
    8.0235   -1.9414   24.1766 C   0  0  0  0  0  0  0  0  0  0  0  0
    7.1486   -1.6120   25.1579 N   0  0  0  0  0  0  0  0  0  0  0  0
    6.3278   -1.1271   24.8171 H   0  0  0  0  0  0  0  0  0  0  0  0
    7.2030   -2.1606   26.5085 C   0  0  0  0  0  0  0  0  0  0  0  0
    8.2543   -2.0978   26.8498 H   0  0  0  0  0  0  0  0  0  0  0  0
    6.8020   -3.6422   26.5451 C   0  0  0  0  0  0  0  0  0  0  0  0
    7.4253   -4.2425   25.8701 H   0  0  0  0  0  0  0  0  0  0  0  0
    6.9139   -4.0445   27.5607 H   0  0  0  0  0  0  0  0  0  0  0  0
    5.7562   -3.7701   26.2374 H   0  0  0  0  0  0  0  0  0  0  0  0
    6.3193   -1.3017   27.4118 C   0  0  0  0  0  0  0  0  0  0  0  0
    5.2647   -1.3827   27.1139 H   0  0  0  0  0  0  0  0  0  0  0  0
    6.6224   -0.2482   27.3761 H   0  0  0  0  0  0  0  0  0  0  0  0
    6.3688   -1.6240   28.4552 H   0  0  0  0  0  0  0  0  0  0  0  0
    7.8201   -1.4739   22.8678 N   0  0  0  0  0  0  0  0  0  0  0  0
    6.8605   -0.7398   22.2290 N   0  0  0  0  0  0  0  0  0  0  0  0
    5.4055    0.6693   20.1646 C   0  0  0  0  0  0  0  0  0  0  0  0
    4.9652    0.6699   21.1642 H   0  0  0  0  0  0  0  0  0  0  0  0
    4.7957    1.3135   19.0923 C   0  0  0  0  0  0  0  0  0  0  0  0
    3.8618    1.8526   19.2132 H   0  0  0  0  0  0  0  0  0  0  0  0
  1  2  1  0
  2  3  2  0
  3  4  1  0
  4  5  1  0
  4  6  2  0
  6  7  1  0
  7  8  1  0
  8  9  2  0
  9 10  1  0
 10 11  1  0
 11 12  1  0
 11 13  2  0
 13 14  1  0
 14 15  1  0
 14 16  1  0
 16 17  1  0
 16 18  1  0
 18 19  1  0
 18 20  1  0
 18 21  1  0
 16 22  1  0
 22 23  1  0
 22 24  1  0
 22 25  1  0
 13 26  1  0
 26 27  1  0
  6 28  1  0
 28 29  1  0
 28 30  2  0
 30 31  1  0
 30  2  1  0
 27  7  2  0
 26  9  1  0
M  END
>  <cnnaffinity>  (1) 
-5.12737

>  <filename>  (1) 
CC(C)Nc1csc2nc(-c3cccnc3)nn12

$$$$
