
     RDKit          3D

 32 33  0  0  0  0  0  0  0  0999 V2000
    4.9106    1.8694   16.9934 H   0  0  0  0  0  0  0  0  0  0  0  0
    5.3773    1.3089   17.8000 C   0  0  0  0  0  0  0  0  0  0  0  0
    6.5248    0.6767   17.5084 N   0  0  0  0  0  0  0  0  0  0  0  0
    7.1515    0.0236   18.5040 C   0  0  0  0  0  0  0  0  0  0  0  0
    8.0950   -0.4564   18.2315 H   0  0  0  0  0  0  0  0  0  0  0  0
    6.6722   -0.0545   19.8434 C   0  0  0  0  0  0  0  0  0  0  0  0
    7.3279   -0.7333   20.8872 N   0  0  0  0  0  0  0  0  0  0  0  0
    6.6970   -1.0596   21.6120 H   0  0  0  0  0  0  0  0  0  0  0  0
    8.6758   -0.4412   21.4362 C   0  0  0  0  0  0  0  0  0  0  0  0
    8.5833   -0.3785   22.9813 C   0  0  0  0  0  0  0  0  0  0  0  0
    9.5978   -0.8770   23.8133 C   0  0  0  0  0  0  0  0  0  0  0  0
   10.4149   -1.4457   23.3801 H   0  0  0  0  0  0  0  0  0  0  0  0
    9.5649   -0.6911   25.1998 C   0  0  0  0  0  0  0  0  0  0  0  0
   10.3792   -0.9887   25.8384 H   0  0  0  0  0  0  0  0  0  0  0  0
    8.4825   -0.0569   25.7929 C   0  0  0  0  0  0  0  0  0  0  0  0
    8.4154    0.0614   27.1244 F   0  0  0  0  0  0  0  0  0  0  0  0
    7.4683    0.4630   24.9860 C   0  0  0  0  0  0  0  0  0  0  0  0
    6.4505    1.1211   25.5558 F   0  0  0  0  0  0  0  0  0  0  0  0
    7.5198    0.3142   23.6066 C   0  0  0  0  0  0  0  0  0  0  0  0
    6.7203    0.7740   23.0343 H   0  0  0  0  0  0  0  0  0  0  0  0
    9.5704   -1.5873   20.9290 C   0  0  0  0  0  0  0  0  0  0  0  0
   10.6420   -1.4263   21.0970 H   0  0  0  0  0  0  0  0  0  0  0  0
    9.2674   -2.5330   21.3831 H   0  0  0  0  0  0  0  0  0  0  0  0
    9.4201   -1.6774   19.8521 H   0  0  0  0  0  0  0  0  0  0  0  0
    9.2504    0.8950   20.9333 C   0  0  0  0  0  0  0  0  0  0  0  0
    8.5598    1.7172   21.1353 H   0  0  0  0  0  0  0  0  0  0  0  0
   10.2018    1.1242   21.4207 H   0  0  0  0  0  0  0  0  0  0  0  0
    9.4374    0.8552   19.8610 H   0  0  0  0  0  0  0  0  0  0  0  0
    5.4446    0.5799   20.0941 C   0  0  0  0  0  0  0  0  0  0  0  0
    5.0285    0.5574   21.1018 H   0  0  0  0  0  0  0  0  0  0  0  0
    4.7976    1.2817   19.0707 C   0  0  0  0  0  0  0  0  0  0  0  0
    3.8743    1.8189   19.2479 H   0  0  0  0  0  0  0  0  0  0  0  0
  1  2  1  0
  2  3  2  0
  3  4  1  0
  4  5  1  0
  4  6  2  0
  6  7  1  0
  7  8  1  0
  7  9  1  0
  9 10  1  0
 10 11  2  0
 11 12  1  0
 11 13  1  0
 13 14  1  0
 13 15  2  0
 15 16  1  0
 15 17  1  0
 17 18  1  0
 17 19  2  0
 19 20  1  0
  9 21  1  0
 21 22  1  0
 21 23  1  0
 21 24  1  0
  9 25  1  0
 25 26  1  0
 25 27  1  0
 25 28  1  0
  6 29  1  0
 29 30  1  0
 29 31  2  0
 31 32  1  0
 31  2  1  0
 19 10  1  0
M  END
>  <cnnaffinity>  (1) 
-4.71813

>  <filename>  (1) 
CC(C)(Nc1cccnc1)c1ccc(F)c(F)c1

$$$$
