
     RDKit          3D

 32 33  0  0  0  0  0  0  0  0999 V2000
    4.9064    1.7749   17.0016 H   0  0  0  0  0  0  0  0  0  0  0  0
    5.3993    1.2938   17.8404 C   0  0  0  0  0  0  0  0  0  0  0  0
    6.5664    0.6836   17.5698 N   0  0  0  0  0  0  0  0  0  0  0  0
    7.1865    0.0737   18.5890 C   0  0  0  0  0  0  0  0  0  0  0  0
    8.1271   -0.4369   18.3795 H   0  0  0  0  0  0  0  0  0  0  0  0
    6.6750    0.0285   19.8981 C   0  0  0  0  0  0  0  0  0  0  0  0
    7.3741   -0.6624   20.9430 N   0  0  0  0  0  0  0  0  0  0  0  0
    8.6596   -0.2533   21.2843 C   0  0  0  0  0  0  0  0  0  0  0  0
    9.0495    0.5873   20.7138 H   0  0  0  0  0  0  0  0  0  0  0  0
    9.3881   -0.8540   22.2821 C   0  0  0  0  0  0  0  0  0  0  0  0
   10.6735   -0.4720   22.6317 N   0  0  0  0  0  0  0  0  0  0  0  0
   11.1362   -1.0293   23.3294 H   0  0  0  0  0  0  0  0  0  0  0  0
   11.3643    0.7071   22.1404 C   0  0  0  0  0  0  0  0  0  0  0  0
   11.2482    0.7401   21.0488 H   0  0  0  0  0  0  0  0  0  0  0  0
   10.7763    1.9865   22.7355 C   0  0  0  0  0  0  0  0  0  0  0  0
   10.8942    1.9834   23.8254 H   0  0  0  0  0  0  0  0  0  0  0  0
    9.7098    2.0771   22.5117 H   0  0  0  0  0  0  0  0  0  0  0  0
   11.2849    2.8700   22.3361 H   0  0  0  0  0  0  0  0  0  0  0  0
   12.8568    0.6076   22.4332 C   0  0  0  0  0  0  0  0  0  0  0  0
   13.0476    0.6059   23.5111 H   0  0  0  0  0  0  0  0  0  0  0  0
   13.3823    1.4716   22.0155 H   0  0  0  0  0  0  0  0  0  0  0  0
   13.2922   -0.2931   21.9929 H   0  0  0  0  0  0  0  0  0  0  0  0
    8.7529   -1.9579   22.9641 C   0  0  0  0  0  0  0  0  0  0  0  0
    9.2928   -2.4633   23.7641 H   0  0  0  0  0  0  0  0  0  0  0  0
    7.5012   -2.3737   22.6403 C   0  0  0  0  0  0  0  0  0  0  0  0
    6.9954   -3.1971   23.1263 H   0  0  0  0  0  0  0  0  0  0  0  0
    6.7036   -1.7563   21.5936 C   0  0  0  0  0  0  0  0  0  0  0  0
    5.5906   -2.1385   21.2625 O   0  0  0  0  0  0  0  0  0  0  0  0
    5.4467    0.6515   20.1609 C   0  0  0  0  0  0  0  0  0  0  0  0
    5.0148    0.6184   21.1597 H   0  0  0  0  0  0  0  0  0  0  0  0
    4.8076    1.3133   19.1098 C   0  0  0  0  0  0  0  0  0  0  0  0
    3.8718    1.8446   19.2667 H   0  0  0  0  0  0  0  0  0  0  0  0
  1  2  1  0
  2  3  2  0
  3  4  1  0
  4  5  1  0
  4  6  2  0
  6  7  1  0
  7  8  1  0
  8  9  1  0
  8 10  2  0
 10 11  1  0
 11 12  1  0
 11 13  1  0
 13 14  1  0
 13 15  1  0
 15 16  1  0
 15 17  1  0
 15 18  1  0
 13 19  1  0
 19 20  1  0
 19 21  1  0
 19 22  1  0
 10 23  1  0
 23 24  1  0
 23 25  2  0
 25 26  1  0
 25 27  1  0
 27 28  2  0
  6 29  1  0
 29 30  1  0
 29 31  2  0
 31 32  1  0
 31  2  1  0
 27  7  1  0
M  END
>  <cnnaffinity>  (1) 
-4.90795

>  <filename>  (1) 
CC(C)Nc1ccc(=O)n(-c2cccnc2)c1

$$$$
