
     RDKit          3D

 32 33  0  0  0  0  0  0  0  0999 V2000
    4.9988    1.8000   17.0093 H   0  0  0  0  0  0  0  0  0  0  0  0
    5.4590    1.2723   17.8416 C   0  0  0  0  0  0  0  0  0  0  0  0
    6.6081    0.6282   17.5830 N   0  0  0  0  0  0  0  0  0  0  0  0
    7.1999   -0.0150   18.5997 C   0  0  0  0  0  0  0  0  0  0  0  0
    8.1291   -0.5350   18.3794 H   0  0  0  0  0  0  0  0  0  0  0  0
    6.6816   -0.0468   19.9087 C   0  0  0  0  0  0  0  0  0  0  0  0
    7.2398   -0.7637   20.9388 O   0  0  0  0  0  0  0  0  0  0  0  0
    8.6108   -0.8072   21.0759 C   0  0  0  0  0  0  0  0  0  0  0  0
    9.6359    0.0765   20.6647 C   0  0  0  0  0  0  0  0  0  0  0  0
    9.5622    0.9645   20.0521 H   0  0  0  0  0  0  0  0  0  0  0  0
   10.8140   -0.2941   21.1478 N   0  0  0  0  0  0  0  0  0  0  0  0
   10.5679   -1.4241   21.8391 N   0  0  0  0  0  0  0  0  0  0  0  0
   11.1973   -1.8214   22.5362 H   0  0  0  0  0  0  0  0  0  0  0  0
    9.2574   -1.7445   21.8393 C   0  0  0  0  0  0  0  0  0  0  0  0
    8.7313   -2.8464   22.5151 N   0  0  0  0  0  0  0  0  0  0  0  0
    7.7481   -3.0113   22.3734 H   0  0  0  0  0  0  0  0  0  0  0  0
    9.3732   -3.5368   23.5051 C   0  0  0  0  0  0  0  0  0  0  0  0
   10.4904   -3.2177   23.8939 O   0  0  0  0  0  0  0  0  0  0  0  0
    8.6213   -4.7499   24.0652 C   0  0  0  0  0  0  0  0  0  0  0  0
    9.3694   -5.2278   24.7011 H   0  0  0  0  0  0  0  0  0  0  0  0
    7.3868   -4.4305   24.9274 C   0  0  0  0  0  0  0  0  0  0  0  0
    6.5728   -4.0276   24.3156 H   0  0  0  0  0  0  0  0  0  0  0  0
    7.0229   -5.3673   25.3660 H   0  0  0  0  0  0  0  0  0  0  0  0
    7.5879   -3.7235   25.7372 H   0  0  0  0  0  0  0  0  0  0  0  0
    8.2014   -5.7645   22.9861 C   0  0  0  0  0  0  0  0  0  0  0  0
    7.2678   -5.4734   22.4887 H   0  0  0  0  0  0  0  0  0  0  0  0
    8.9657   -5.8981   22.2183 H   0  0  0  0  0  0  0  0  0  0  0  0
    8.0280   -6.7328   23.4639 H   0  0  0  0  0  0  0  0  0  0  0  0
    5.4808    0.6166   20.1677 C   0  0  0  0  0  0  0  0  0  0  0  0
    5.0709    0.6026   21.1777 H   0  0  0  0  0  0  0  0  0  0  0  0
    4.8626    1.2857   19.1098 C   0  0  0  0  0  0  0  0  0  0  0  0
    3.9356    1.8263   19.2632 H   0  0  0  0  0  0  0  0  0  0  0  0
  1  2  1  0
  2  3  2  0
  3  4  1  0
  4  5  1  0
  4  6  2  0
  6  7  1  0
  7  8  1  0
  8  9  1  0
  9 10  1  0
  9 11  2  0
 11 12  1  0
 12 13  1  0
 12 14  1  0
 14 15  1  0
 15 16  1  0
 15 17  1  0
 17 18  2  0
 17 19  1  0
 19 20  1  0
 19 21  1  0
 21 22  1  0
 21 23  1  0
 21 24  1  0
 19 25  1  0
 25 26  1  0
 25 27  1  0
 25 28  1  0
  6 29  1  0
 29 30  1  0
 29 31  2  0
 31 32  1  0
 31  2  1  0
 14  8  2  0
M  END
>  <cnnaffinity>  (1) 
-5.30934

>  <filename>  (1) 
CC(C)C(=O)Nc1[nH]ncc1Oc1cccnc1

$$$$
