
     RDKit          3D

 36 38  0  0  0  0  0  0  0  0999 V2000
    4.9264    1.8083   16.9558 H   0  0  0  0  0  0  0  0  0  0  0  0
    5.3687    1.2980   17.8093 C   0  0  0  0  0  0  0  0  0  0  0  0
    6.5191    0.6515   17.5786 N   0  0  0  0  0  0  0  0  0  0  0  0
    7.0918    0.0313   18.6209 C   0  0  0  0  0  0  0  0  0  0  0  0
    8.0289   -0.4749   18.4065 H   0  0  0  0  0  0  0  0  0  0  0  0
    6.5676    0.0020   19.9298 C   0  0  0  0  0  0  0  0  0  0  0  0
    7.3149   -0.8097   21.0048 C   0  0  0  0  0  0  0  0  0  0  0  0
    8.7744   -0.7541   20.7406 N   0  0  0  0  0  0  0  0  0  0  0  0
    9.2491   -1.5745   21.0954 H   0  0  0  0  0  0  0  0  0  0  0  0
    9.4946    0.4056   21.0892 C   0  0  0  0  0  0  0  0  0  0  0  0
    8.8416    1.6724   21.1151 C   0  0  0  0  0  0  0  0  0  0  0  0
    7.8031    1.7447   20.8409 H   0  0  0  0  0  0  0  0  0  0  0  0
    9.4704    2.8115   21.5644 C   0  0  0  0  0  0  0  0  0  0  0  0
    8.9127    3.7409   21.6390 H   0  0  0  0  0  0  0  0  0  0  0  0
   10.8393    2.7663   21.8790 C   0  0  0  0  0  0  0  0  0  0  0  0
   11.8225    3.7562   22.2250 C   0  0  0  0  0  0  0  0  0  0  0  0
   11.6678    4.8272   22.2837 H   0  0  0  0  0  0  0  0  0  0  0  0
   13.0002    3.0948   22.3867 C   0  0  0  0  0  0  0  0  0  0  0  0
   13.9910    3.4956   22.5638 H   0  0  0  0  0  0  0  0  0  0  0  0
   12.8028    1.7375   22.1943 N   0  0  0  0  0  0  0  0  0  0  0  0
   13.5384    1.0551   22.1213 H   0  0  0  0  0  0  0  0  0  0  0  0
   11.4978    1.5092   21.8260 C   0  0  0  0  0  0  0  0  0  0  0  0
   10.8417    0.3162   21.4476 C   0  0  0  0  0  0  0  0  0  0  0  0
   11.3795   -0.6288   21.4031 H   0  0  0  0  0  0  0  0  0  0  0  0
    6.8569   -2.2677   20.8959 C   0  0  0  0  0  0  0  0  0  0  0  0
    6.7804   -2.6008   19.8594 H   0  0  0  0  0  0  0  0  0  0  0  0
    5.8645   -2.3858   21.3465 H   0  0  0  0  0  0  0  0  0  0  0  0
    7.5437   -2.9265   21.4347 H   0  0  0  0  0  0  0  0  0  0  0  0
    7.0598   -0.3554   22.4622 C   0  0  0  0  0  0  0  0  0  0  0  0
    7.7559   -0.8976   23.1132 H   0  0  0  0  0  0  0  0  0  0  0  0
    7.2209    0.7106   22.6291 H   0  0  0  0  0  0  0  0  0  0  0  0
    6.0526   -0.5880   22.7952 H   0  0  0  0  0  0  0  0  0  0  0  0
    5.3427    0.6557   20.1334 C   0  0  0  0  0  0  0  0  0  0  0  0
    4.8610    0.6660   21.1127 H   0  0  0  0  0  0  0  0  0  0  0  0
    4.7415    1.3221   19.0578 C   0  0  0  0  0  0  0  0  0  0  0  0
    3.8106    1.8662   19.1737 H   0  0  0  0  0  0  0  0  0  0  0  0
  1  2  1  0
  2  3  2  0
  3  4  1  0
  4  5  1  0
  4  6  2  0
  6  7  1  0
  7  8  1  0
  8  9  1  0
  8 10  1  0
 10 11  2  0
 11 12  1  0
 11 13  1  0
 13 14  1  0
 13 15  2  0
 15 16  1  0
 16 17  1  0
 16 18  2  0
 18 19  1  0
 18 20  1  0
 20 21  1  0
 20 22  1  0
 22 23  2  0
 23 24  1  0
  7 25  1  0
 25 26  1  0
 25 27  1  0
 25 28  1  0
  7 29  1  0
 29 30  1  0
 29 31  1  0
 29 32  1  0
  6 33  1  0
 33 34  1  0
 33 35  2  0
 35 36  1  0
 35  2  1  0
 23 10  1  0
 22 15  1  0
M  END
>  <cnnaffinity>  (1) 
-5.39697

>  <filename>  (1) 
CC(C)(Nc1ccc2cc[nH]c2c1)c1cccnc1

$$$$
