
     RDKit          3D

 37 38  0  0  0  0  0  0  0  0999 V2000
    4.8752    1.8046   16.9865 H   0  0  0  0  0  0  0  0  0  0  0  0
    5.3722    1.2870   17.8049 C   0  0  0  0  0  0  0  0  0  0  0  0
    6.5271    0.6683   17.5107 N   0  0  0  0  0  0  0  0  0  0  0  0
    7.1858    0.0735   18.5151 C   0  0  0  0  0  0  0  0  0  0  0  0
    8.1065   -0.4405   18.2500 H   0  0  0  0  0  0  0  0  0  0  0  0
    6.7348    0.0717   19.8583 C   0  0  0  0  0  0  0  0  0  0  0  0
    7.4479   -0.5050   20.9388 N   0  0  0  0  0  0  0  0  0  0  0  0
    6.8797   -0.8439   21.6932 H   0  0  0  0  0  0  0  0  0  0  0  0
    8.8052   -0.4143   21.1653 C   0  0  0  0  0  0  0  0  0  0  0  0
    9.5243    0.2790   20.4757 O   0  0  0  0  0  0  0  0  0  0  0  0
    9.3416   -1.3894   22.2646 C   0  0  0  0  0  0  0  0  0  0  0  0
   10.7786   -0.9145   22.5940 C   0  0  0  0  0  0  0  0  0  0  0  0
   11.8760   -1.5684   22.0063 C   0  0  0  0  0  0  0  0  0  0  0  0
   11.6944   -2.3897   21.3349 H   0  0  0  0  0  0  0  0  0  0  0  0
   13.1976   -1.2004   22.2465 C   0  0  0  0  0  0  0  0  0  0  0  0
   14.0023   -1.7709   21.7848 H   0  0  0  0  0  0  0  0  0  0  0  0
   13.4619   -0.1150   23.0788 C   0  0  0  0  0  0  0  0  0  0  0  0
   14.4902    0.1650   23.2957 H   0  0  0  0  0  0  0  0  0  0  0  0
   12.3954    0.6033   23.6286 C   0  0  0  0  0  0  0  0  0  0  0  0
   12.6196    1.4591   24.2627 H   0  0  0  0  0  0  0  0  0  0  0  0
   11.0538    0.2432   23.3614 C   0  0  0  0  0  0  0  0  0  0  0  0
    9.9421    1.1108   23.9527 C   0  0  0  0  0  0  0  0  0  0  0  0
    9.4892    0.5966   25.1184 F   0  0  0  0  0  0  0  0  0  0  0  0
    8.8701    1.2523   23.1452 F   0  0  0  0  0  0  0  0  0  0  0  0
   10.3359    2.3669   24.2234 F   0  0  0  0  0  0  0  0  0  0  0  0
    8.4696   -1.5644   23.5524 C   0  0  0  0  0  0  0  0  0  0  0  0
    8.0099   -0.6510   23.9205 H   0  0  0  0  0  0  0  0  0  0  0  0
    9.0978   -1.9740   24.3527 H   0  0  0  0  0  0  0  0  0  0  0  0
    7.6766   -2.3076   23.3900 H   0  0  0  0  0  0  0  0  0  0  0  0
    9.2988   -2.7929   21.5953 C   0  0  0  0  0  0  0  0  0  0  0  0
    9.8571   -2.8255   20.6589 H   0  0  0  0  0  0  0  0  0  0  0  0
    9.6995   -3.5257   22.3025 H   0  0  0  0  0  0  0  0  0  0  0  0
    8.2677   -3.0701   21.3487 H   0  0  0  0  0  0  0  0  0  0  0  0
    5.4931    0.6585   20.1281 C   0  0  0  0  0  0  0  0  0  0  0  0
    5.0867    0.6197   21.1397 H   0  0  0  0  0  0  0  0  0  0  0  0
    4.8102    1.2908   19.0869 C   0  0  0  0  0  0  0  0  0  0  0  0
    3.8648    1.7913   19.2637 H   0  0  0  0  0  0  0  0  0  0  0  0
  1  2  1  0
  2  3  2  0
  3  4  1  0
  4  5  1  0
  4  6  2  0
  6  7  1  0
  7  8  1  0
  7  9  1  0
  9 10  2  0
  9 11  1  0
 11 12  1  0
 12 13  2  0
 13 14  1  0
 13 15  1  0
 15 16  1  0
 15 17  2  0
 17 18  1  0
 17 19  1  0
 19 20  1  0
 19 21  2  0
 21 22  1  0
 22 23  1  0
 22 24  1  0
 22 25  1  0
 11 26  1  0
 26 27  1  0
 26 28  1  0
 26 29  1  0
 11 30  1  0
 30 31  1  0
 30 32  1  0
 30 33  1  0
  6 34  1  0
 34 35  1  0
 34 36  2  0
 36 37  1  0
 36  2  1  0
 21 12  1  0
M  END
>  <cnnaffinity>  (1) 
-5.58461

>  <filename>  (1) 
CC(C)(C(=O)Nc1cccnc1)c1ccccc1C(F)(F)F

$$$$
