
     RDKit          3D

 42 45  0  0  0  0  0  0  0  0999 V2000
    4.9929    1.8520   16.8793 H   0  0  0  0  0  0  0  0  0  0  0  0
    5.4231    1.2993   17.7148 C   0  0  0  0  0  0  0  0  0  0  0  0
    6.5659    0.6384   17.4778 N   0  0  0  0  0  0  0  0  0  0  0  0
    7.1383   -0.0106   18.4986 C   0  0  0  0  0  0  0  0  0  0  0  0
    8.0648   -0.5307   18.2670 H   0  0  0  0  0  0  0  0  0  0  0  0
    6.6100   -0.0337   19.8011 C   0  0  0  0  0  0  0  0  0  0  0  0
    7.3707   -0.6284   20.9161 C   0  0  0  0  0  0  0  0  0  0  0  0
    8.5065   -1.3134   20.7067 N   0  0  0  0  0  0  0  0  0  0  0  0
    8.9276   -1.5775   21.9582 N   0  0  0  0  0  0  0  0  0  0  0  0
   10.0394   -2.2027   22.5051 C   0  0  0  0  0  0  0  0  0  0  0  0
   10.7853   -2.6665   21.8900 H   0  0  0  0  0  0  0  0  0  0  0  0
    9.9036   -2.0720   23.8474 C   0  0  0  0  0  0  0  0  0  0  0  0
   10.5195   -2.4247   24.6554 H   0  0  0  0  0  0  0  0  0  0  0  0
    8.7323   -1.3806   24.1356 N   0  0  0  0  0  0  0  0  0  0  0  0
    8.2550   -0.9964   25.4116 C   0  0  0  0  0  0  0  0  0  0  0  0
    9.1379   -0.6374   26.4465 C   0  0  0  0  0  0  0  0  0  0  0  0
   10.2154   -0.6961   26.3101 H   0  0  0  0  0  0  0  0  0  0  0  0
    8.6362   -0.1462   27.6467 C   0  0  0  0  0  0  0  0  0  0  0  0
    9.2827    0.1055   28.4792 H   0  0  0  0  0  0  0  0  0  0  0  0
    7.2574    0.0392   27.8319 C   0  0  0  0  0  0  0  0  0  0  0  0
    6.9265    0.7038   28.9698 O   0  0  0  0  0  0  0  0  0  0  0  0
    5.5819    0.7721   29.4514 C   0  0  0  0  0  0  0  0  0  0  0  0
    4.9060    1.0773   28.6356 H   0  0  0  0  0  0  0  0  0  0  0  0
    5.6260    1.8566   30.5157 C   0  0  0  0  0  0  0  0  0  0  0  0
    6.3560    1.5769   31.2823 H   0  0  0  0  0  0  0  0  0  0  0  0
    5.9375    2.8098   30.0804 H   0  0  0  0  0  0  0  0  0  0  0  0
    4.6560    1.9951   30.9977 H   0  0  0  0  0  0  0  0  0  0  0  0
    5.1913   -0.5870   30.0056 C   0  0  0  0  0  0  0  0  0  0  0  0
    4.1656   -0.5917   30.3811 H   0  0  0  0  0  0  0  0  0  0  0  0
    5.8634   -0.8347   30.8320 H   0  0  0  0  0  0  0  0  0  0  0  0
    5.2868   -1.3650   29.2430 H   0  0  0  0  0  0  0  0  0  0  0  0
    6.3727   -0.4052   26.8418 C   0  0  0  0  0  0  0  0  0  0  0  0
    5.3030   -0.2971   26.9857 H   0  0  0  0  0  0  0  0  0  0  0  0
    6.8718   -0.9183   25.6409 C   0  0  0  0  0  0  0  0  0  0  0  0
    6.1909   -1.2423   24.8554 H   0  0  0  0  0  0  0  0  0  0  0  0
    8.1277   -1.0870   22.9239 C   0  0  0  0  0  0  0  0  0  0  0  0
    7.0593   -0.4739   22.2886 C   0  0  0  0  0  0  0  0  0  0  0  0
    6.1855   -0.0095   22.7097 H   0  0  0  0  0  0  0  0  0  0  0  0
    5.3867    0.6222   20.0158 C   0  0  0  0  0  0  0  0  0  0  0  0
    4.9128    0.6043   20.9971 H   0  0  0  0  0  0  0  0  0  0  0  0
    4.7891    1.3066   18.9608 C   0  0  0  0  0  0  0  0  0  0  0  0
    3.8689    1.8627   19.1032 H   0  0  0  0  0  0  0  0  0  0  0  0
  1  2  1  0
  2  3  2  0
  3  4  1  0
  4  5  1  0
  4  6  2  0
  6  7  1  0
  7  8  2  0
  8  9  1  0
  9 10  1  0
 10 11  1  0
 10 12  2  0
 12 13  1  0
 12 14  1  0
 14 15  1  0
 15 16  2  0
 16 17  1  0
 16 18  1  0
 18 19  1  0
 18 20  2  0
 20 21  1  0
 21 22  1  0
 22 23  1  0
 22 24  1  0
 24 25  1  0
 24 26  1  0
 24 27  1  0
 22 28  1  0
 28 29  1  0
 28 30  1  0
 28 31  1  0
 20 32  1  0
 32 33  1  0
 32 34  2  0
 34 35  1  0
 14 36  1  0
 36 37  2  0
 37 38  1  0
  6 39  1  0
 39 40  1  0
 39 41  2  0
 41 42  1  0
 41  2  1  0
 37  7  1  0
 36  9  1  0
 34 15  1  0
M  END
>  <cnnaffinity>  (1) 
-5.49774

>  <filename>  (1) 
CC(C)Oc1ccc(-n2ccn3nc(-c4cccnc4)cc23)cc1

$$$$
