
     RDKit          3D

 44 47  0  0  0  0  0  0  0  0999 V2000
    5.0102    1.8430   16.9182 H   0  0  0  0  0  0  0  0  0  0  0  0
    5.4257    1.2878   17.7598 C   0  0  0  0  0  0  0  0  0  0  0  0
    6.5644    0.6191   17.5273 N   0  0  0  0  0  0  0  0  0  0  0  0
    7.1239   -0.0240   18.5549 C   0  0  0  0  0  0  0  0  0  0  0  0
    8.0369   -0.5698   18.3245 H   0  0  0  0  0  0  0  0  0  0  0  0
    6.6100   -0.0151   19.8672 C   0  0  0  0  0  0  0  0  0  0  0  0
    7.3694   -0.6443   20.9622 C   0  0  0  0  0  0  0  0  0  0  0  0
    8.0649   -1.7630   20.7628 N   0  0  0  0  0  0  0  0  0  0  0  0
    8.5688   -2.0411   21.9656 N   0  0  0  0  0  0  0  0  0  0  0  0
    8.2872   -1.1731   22.9322 C   0  0  0  0  0  0  0  0  0  0  0  0
    7.4968   -0.2089   22.3235 C   0  0  0  0  0  0  0  0  0  0  0  0
    7.0633    1.0224   22.9610 C   0  0  0  0  0  0  0  0  0  0  0  0
    6.5763    0.9850   24.2752 C   0  0  0  0  0  0  0  0  0  0  0  0
    6.4409    0.0252   24.7724 H   0  0  0  0  0  0  0  0  0  0  0  0
    6.2532    2.1648   24.9325 C   0  0  0  0  0  0  0  0  0  0  0  0
    5.8828    2.1168   25.9538 H   0  0  0  0  0  0  0  0  0  0  0  0
    6.4285    3.4092   24.3014 C   0  0  0  0  0  0  0  0  0  0  0  0
    6.0888    4.7020   25.0132 C   0  0  0  0  0  0  0  0  0  0  0  0
    6.3084    5.5289   24.3212 H   0  0  0  0  0  0  0  0  0  0  0  0
    6.9608    4.9042   26.2621 C   0  0  0  0  0  0  0  0  0  0  0  0
    6.7833    4.1138   27.0035 H   0  0  0  0  0  0  0  0  0  0  0  0
    6.7327    5.8687   26.7291 H   0  0  0  0  0  0  0  0  0  0  0  0
    8.0261    4.8811   26.0024 H   0  0  0  0  0  0  0  0  0  0  0  0
    4.5900    4.7583   25.3435 C   0  0  0  0  0  0  0  0  0  0  0  0
    4.3359    5.7212   25.7996 H   0  0  0  0  0  0  0  0  0  0  0  0
    3.9911    4.6247   24.4345 H   0  0  0  0  0  0  0  0  0  0  0  0
    4.3108    3.9592   26.0434 H   0  0  0  0  0  0  0  0  0  0  0  0
    6.9202    3.4330   22.9865 C   0  0  0  0  0  0  0  0  0  0  0  0
    7.0876    4.3884   22.4955 H   0  0  0  0  0  0  0  0  0  0  0  0
    7.2203    2.2566   22.3155 C   0  0  0  0  0  0  0  0  0  0  0  0
    7.5893    2.2807   21.2922 H   0  0  0  0  0  0  0  0  0  0  0  0
    9.0528   -1.5128   24.1968 C   0  0  0  0  0  0  0  0  0  0  0  0
    9.6995   -0.6895   24.5213 H   0  0  0  0  0  0  0  0  0  0  0  0
    8.3817   -1.7427   25.0309 H   0  0  0  0  0  0  0  0  0  0  0  0
    9.8903   -2.7537   23.7732 C   0  0  0  0  0  0  0  0  0  0  0  0
    9.7080   -3.6007   24.4368 H   0  0  0  0  0  0  0  0  0  0  0  0
   10.9552   -2.5335   23.8071 H   0  0  0  0  0  0  0  0  0  0  0  0
    9.5037   -3.0761   22.3044 C   0  0  0  0  0  0  0  0  0  0  0  0
    9.0241   -4.0500   22.1790 H   0  0  0  0  0  0  0  0  0  0  0  0
   10.3629   -2.9703   21.6416 H   0  0  0  0  0  0  0  0  0  0  0  0
    5.3783    0.6332   20.0751 C   0  0  0  0  0  0  0  0  0  0  0  0
    4.9020    0.6348   21.0579 H   0  0  0  0  0  0  0  0  0  0  0  0
    4.7855    1.2958   19.0021 C   0  0  0  0  0  0  0  0  0  0  0  0
    3.8512    1.8332   19.1143 H   0  0  0  0  0  0  0  0  0  0  0  0
  1  2  1  0
  2  3  2  0
  3  4  1  0
  4  5  1  0
  4  6  2  0
  6  7  1  0
  7  8  2  0
  8  9  1  0
  9 10  1  0
 10 11  2  0
 11 12  1  0
 12 13  2  0
 13 14  1  0
 13 15  1  0
 15 16  1  0
 15 17  2  0
 17 18  1  0
 18 19  1  0
 18 20  1  0
 20 21  1  0
 20 22  1  0
 20 23  1  0
 18 24  1  0
 24 25  1  0
 24 26  1  0
 24 27  1  0
 17 28  1  0
 28 29  1  0
 28 30  2  0
 30 31  1  0
 10 32  1  0
 32 33  1  0
 32 34  1  0
 32 35  1  0
 35 36  1  0
 35 37  1  0
 35 38  1  0
 38 39  1  0
 38 40  1  0
  6 41  1  0
 41 42  1  0
 41 43  2  0
 43 44  1  0
 43  2  1  0
 11  7  1  0
 30 12  1  0
 38  9  1  0
M  END
>  <cnnaffinity>  (1) 
-5.63885

>  <filename>  (1) 
CC(C)c1ccc(-c2c(-c3cccnc3)nn3c2CCC3)cc1

$$$$
