
     RDKit          3D

 41 42  0  0  0  0  0  0  0  0999 V2000
    4.9190    1.7943   16.9866 H   0  0  0  0  0  0  0  0  0  0  0  0
    5.3977    1.3029   17.8297 C   0  0  0  0  0  0  0  0  0  0  0  0
    6.5556    0.6831   17.5643 N   0  0  0  0  0  0  0  0  0  0  0  0
    7.1615    0.0678   18.5921 C   0  0  0  0  0  0  0  0  0  0  0  0
    8.1071   -0.4209   18.3553 H   0  0  0  0  0  0  0  0  0  0  0  0
    6.6599    0.0062   19.9066 C   0  0  0  0  0  0  0  0  0  0  0  0
    7.4023   -0.7189   20.9992 C   0  0  0  0  0  0  0  0  0  0  0  0
    6.6744   -1.1516   21.7019 H   0  0  0  0  0  0  0  0  0  0  0  0
    7.9558   -1.5691   20.5710 H   0  0  0  0  0  0  0  0  0  0  0  0
    8.4087    0.1372   21.8346 C   0  0  1  0  0  0  0  0  0  0  0  0
    9.1795   -0.7771   22.8054 C   0  0  0  0  0  0  0  0  0  0  0  0
    9.7887   -1.4858   22.2226 H   0  0  0  0  0  0  0  0  0  0  0  0
    9.8997   -0.1457   23.3496 H   0  0  0  0  0  0  0  0  0  0  0  0
    8.3162   -1.5300   23.8169 C   0  0  0  0  0  0  0  0  0  0  0  0
    7.7601   -2.3262   23.3020 H   0  0  0  0  0  0  0  0  0  0  0  0
    7.5482   -0.8521   24.2183 H   0  0  0  0  0  0  0  0  0  0  0  0
    9.1018   -2.1379   24.9860 C   0  0  0  0  0  0  0  0  0  0  0  0
    9.6749   -1.3239   25.4584 H   0  0  0  0  0  0  0  0  0  0  0  0
   10.0937   -3.2083   24.5138 C   0  0  0  0  0  0  0  0  0  0  0  0
    9.5729   -4.0019   23.9633 H   0  0  0  0  0  0  0  0  0  0  0  0
   10.8608   -2.8018   23.8473 H   0  0  0  0  0  0  0  0  0  0  0  0
   10.6022   -3.6832   25.3596 H   0  0  0  0  0  0  0  0  0  0  0  0
    8.1479   -2.7047   26.0406 C   0  0  0  0  0  0  0  0  0  0  0  0
    8.6988   -3.1133   26.8946 H   0  0  0  0  0  0  0  0  0  0  0  0
    7.4592   -1.9405   26.4198 H   0  0  0  0  0  0  0  0  0  0  0  0
    7.5402   -3.5165   25.6214 H   0  0  0  0  0  0  0  0  0  0  0  0
    9.4111    0.8975   20.9461 C   0  0  0  0  0  0  0  0  0  0  0  0
    9.6324    0.3373   20.0293 H   0  0  0  0  0  0  0  0  0  0  0  0
   10.3753    1.0323   21.4759 H   0  0  0  0  0  0  0  0  0  0  0  0
    8.7572    2.1590   20.6322 N   0  0  0  0  0  0  0  0  0  0  0  0
    9.4168    2.8999   20.4185 H   0  0  0  0  0  0  0  0  0  0  0  0
    7.8479    2.5642   21.6875 C   0  0  0  0  0  0  0  0  0  0  0  0
    6.8895    2.8983   21.2587 H   0  0  0  0  0  0  0  0  0  0  0  0
    8.2463    3.4167   22.2643 H   0  0  0  0  0  0  0  0  0  0  0  0
    7.7037    1.3103   22.5695 C   0  0  0  0  0  0  0  0  0  0  0  0
    8.1867    1.4852   23.5371 H   0  0  0  0  0  0  0  0  0  0  0  0
    6.6542    1.0997   22.7822 H   0  0  0  0  0  0  0  0  0  0  0  0
    5.4422    0.6550   20.1478 C   0  0  0  0  0  0  0  0  0  0  0  0
    5.0011    0.6386   21.1500 H   0  0  0  0  0  0  0  0  0  0  0  0
    4.8051    1.3189   19.0969 C   0  0  0  0  0  0  0  0  0  0  0  0
    3.8739    1.8443   19.2487 H   0  0  0  0  0  0  0  0  0  0  0  0
  1  2  1  0
  2  3  2  0
  3  4  1  0
  4  5  1  0
  4  6  2  0
  6  7  1  0
  7  8  1  0
  7  9  1  0
 10  7  1  6
 10 11  1  0
 11 12  1  0
 11 13  1  0
 11 14  1  0
 14 15  1  0
 14 16  1  0
 14 17  1  0
 17 18  1  0
 17 19  1  0
 19 20  1  0
 19 21  1  0
 19 22  1  0
 17 23  1  0
 23 24  1  0
 23 25  1  0
 23 26  1  0
 10 27  1  0
 27 28  1  0
 27 29  1  0
 27 30  1  0
 30 31  1  0
 30 32  1  0
 32 33  1  0
 32 34  1  0
 32 35  1  0
 35 36  1  0
 35 37  1  0
  6 38  1  0
 38 39  1  0
 38 40  2  0
 40 41  1  0
 40  2  1  0
 35 10  1  0
M  END
>  <cnnaffinity>  (1) 
-4.80139

>  <filename>  (1) 
CC(C)CC[C@@]1(Cc2cccnc2)CCNC1

$$$$
