
     RDKit          3D

 31 32  0  0  0  0  0  0  0  0999 V2000
    4.9904    1.8727   16.9521 H   0  0  0  0  0  0  0  0  0  0  0  0
    5.4762    1.3360   17.7642 C   0  0  0  0  0  0  0  0  0  0  0  0
    6.6530    0.7556   17.4689 N   0  0  0  0  0  0  0  0  0  0  0  0
    7.2742    0.0864   18.4461 C   0  0  0  0  0  0  0  0  0  0  0  0
    8.2346   -0.3689   18.2047 H   0  0  0  0  0  0  0  0  0  0  0  0
    6.7363   -0.0703   19.7396 C   0  0  0  0  0  0  0  0  0  0  0  0
    7.4009   -0.8471   20.7223 N   0  0  0  0  0  0  0  0  0  0  0  0
    6.8318   -1.7181   21.6656 C   0  0  0  0  0  0  0  0  0  0  0  0
    5.7057   -2.1910   21.5990 O   0  0  0  0  0  0  0  0  0  0  0  0
    7.9058   -1.9437   22.6374 C   0  0  0  0  0  0  0  0  0  0  0  0
    7.7389   -2.8087   23.8559 C   0  0  0  0  0  0  0  0  0  0  0  0
    6.9371   -2.4027   24.4856 H   0  0  0  0  0  0  0  0  0  0  0  0
    8.6535   -2.7734   24.4663 H   0  0  0  0  0  0  0  0  0  0  0  0
    7.4101   -4.2678   23.4810 C   0  0  0  0  0  0  0  0  0  0  0  0
    6.5125   -4.2330   22.8533 H   0  0  0  0  0  0  0  0  0  0  0  0
    8.5497   -4.8495   22.6533 C   0  0  0  0  0  0  0  0  0  0  0  0
    8.3725   -5.8871   22.3604 H   0  0  0  0  0  0  0  0  0  0  0  0
    8.6913   -4.2600   21.7441 H   0  0  0  0  0  0  0  0  0  0  0  0
    9.4790   -4.8126   23.2332 H   0  0  0  0  0  0  0  0  0  0  0  0
    7.1023   -5.1532   24.6880 C   0  0  0  0  0  0  0  0  0  0  0  0
    7.9612   -5.2518   25.3623 H   0  0  0  0  0  0  0  0  0  0  0  0
    6.8399   -6.1567   24.3439 H   0  0  0  0  0  0  0  0  0  0  0  0
    6.2560   -4.7782   25.2713 H   0  0  0  0  0  0  0  0  0  0  0  0
    9.0160   -1.3571   22.1432 C   0  0  0  0  0  0  0  0  0  0  0  0
   10.0149   -1.3712   22.5564 H   0  0  0  0  0  0  0  0  0  0  0  0
    8.7900   -0.7508   20.8945 N   0  0  0  0  0  0  0  0  0  0  0  0
    9.1105    0.2150   20.8040 H   0  0  0  0  0  0  0  0  0  0  0  0
    5.5200    0.5559   20.0435 C   0  0  0  0  0  0  0  0  0  0  0  0
    5.1116    0.4922   21.0509 H   0  0  0  0  0  0  0  0  0  0  0  0
    4.8798    1.2765   19.0289 C   0  0  0  0  0  0  0  0  0  0  0  0
    3.9463    1.8000   19.2123 H   0  0  0  0  0  0  0  0  0  0  0  0
  1  2  1  0
  2  3  2  0
  3  4  1  0
  4  5  1  0
  4  6  2  0
  6  7  1  0
  7  8  1  0
  8  9  2  0
  8 10  1  0
 10 11  1  0
 11 12  1  0
 11 13  1  0
 11 14  1  0
 14 15  1  0
 14 16  1  0
 16 17  1  0
 16 18  1  0
 16 19  1  0
 14 20  1  0
 20 21  1  0
 20 22  1  0
 20 23  1  0
 10 24  2  0
 24 25  1  0
 24 26  1  0
 26 27  1  0
  6 28  1  0
 28 29  1  0
 28 30  2  0
 30 31  1  0
 30  2  1  0
 26  7  1  0
M  END
>  <cnnaffinity>  (1) 
-4.70823

>  <filename>  (1) 
CC(C)Cc1c[nH]n(-c2cccnc2)c1=O

$$$$
