
     RDKit          3D

 32 33  0  0  0  0  0  0  0  0999 V2000
    5.0114    1.7907   17.0275 H   0  0  0  0  0  0  0  0  0  0  0  0
    5.4438    1.2867   17.8885 C   0  0  0  0  0  0  0  0  0  0  0  0
    6.5848    0.6142   17.6599 N   0  0  0  0  0  0  0  0  0  0  0  0
    7.1342   -0.0213   18.6922 C   0  0  0  0  0  0  0  0  0  0  0  0
    8.0414   -0.5928   18.4940 H   0  0  0  0  0  0  0  0  0  0  0  0
    6.6161    0.0212   19.9959 C   0  0  0  0  0  0  0  0  0  0  0  0
    7.3761   -0.6912   21.0225 C   0  0  0  0  0  0  0  0  0  0  0  0
    7.8442   -1.9125   20.9014 N   0  0  0  0  0  0  0  0  0  0  0  0
    8.5424   -2.1671   22.0272 N   0  0  0  0  0  0  0  0  0  0  0  0
    8.5439   -1.1469   22.8072 N   0  0  0  0  0  0  0  0  0  0  0  0
    7.8019   -0.1913   22.2068 N   0  0  0  0  0  0  0  0  0  0  0  0
    7.7767    1.1627   22.7610 C   0  0  0  0  0  0  0  0  0  0  0  0
    8.7779    1.6068   22.6518 H   0  0  0  0  0  0  0  0  0  0  0  0
    7.0577    1.7521   22.1934 H   0  0  0  0  0  0  0  0  0  0  0  0
    7.4105    1.1534   24.1546 N   0  0  0  0  0  0  0  0  0  0  0  0
    8.0074    0.5517   24.7010 H   0  0  0  0  0  0  0  0  0  0  0  0
    6.0899    1.0999   24.5523 C   0  0  0  0  0  0  0  0  0  0  0  0
    5.1644    1.3079   23.7907 O   0  0  0  0  0  0  0  0  0  0  0  0
    5.9278    0.8083   26.0601 C   0  0  0  0  0  0  0  0  0  0  0  0
    6.8130    1.2452   26.5445 H   0  0  0  0  0  0  0  0  0  0  0  0
    4.6897    1.4944   26.6523 C   0  0  0  0  0  0  0  0  0  0  0  0
    4.6664    1.3410   27.7379 H   0  0  0  0  0  0  0  0  0  0  0  0
    3.7688    1.0842   26.2265 H   0  0  0  0  0  0  0  0  0  0  0  0
    4.6937    2.5725   26.4645 H   0  0  0  0  0  0  0  0  0  0  0  0
    5.9324   -0.7018   26.3914 C   0  0  0  0  0  0  0  0  0  0  0  0
    5.8472   -0.8380   27.4768 H   0  0  0  0  0  0  0  0  0  0  0  0
    6.8591   -1.2012   26.0826 H   0  0  0  0  0  0  0  0  0  0  0  0
    5.0933   -1.2297   25.9238 H   0  0  0  0  0  0  0  0  0  0  0  0
    5.4204    0.7170   20.2281 C   0  0  0  0  0  0  0  0  0  0  0  0
    4.9918    0.7625   21.2354 H   0  0  0  0  0  0  0  0  0  0  0  0
    4.8143    1.3426   19.1374 C   0  0  0  0  0  0  0  0  0  0  0  0
    3.8721    1.8729   19.2417 H   0  0  0  0  0  0  0  0  0  0  0  0
  1  2  1  0
  2  3  2  0
  3  4  1  0
  4  5  1  0
  4  6  2  0
  6  7  1  0
  7  8  2  0
  8  9  1  0
  9 10  2  0
 10 11  1  0
 11 12  1  0
 12 13  1  0
 12 14  1  0
 12 15  1  0
 15 16  1  0
 15 17  1  0
 17 18  2  0
 17 19  1  0
 19 20  1  0
 19 21  1  0
 21 22  1  0
 21 23  1  0
 21 24  1  0
 19 25  1  0
 25 26  1  0
 25 27  1  0
 25 28  1  0
  6 29  1  0
 29 30  1  0
 29 31  2  0
 31 32  1  0
 31  2  1  0
 11  7  1  0
M  END
>  <cnnaffinity>  (1) 
-4.65724

>  <filename>  (1) 
CC(C)C(=O)NCn1nnnc1-c1cccnc1

$$$$
