
     RDKit          3D

 41 43  0  0  0  0  0  0  0  0999 V2000
    4.8963    1.8363   17.0360 H   0  0  0  0  0  0  0  0  0  0  0  0
    5.3846    1.2948   17.8445 C   0  0  0  0  0  0  0  0  0  0  0  0
    6.5265    0.6610   17.5321 N   0  0  0  0  0  0  0  0  0  0  0  0
    7.1625    0.0056   18.5208 C   0  0  0  0  0  0  0  0  0  0  0  0
    8.0839   -0.4992   18.2330 H   0  0  0  0  0  0  0  0  0  0  0  0
    6.7092   -0.0562   19.8671 C   0  0  0  0  0  0  0  0  0  0  0  0
    7.3599   -0.7199   20.9262 N   0  0  0  0  0  0  0  0  0  0  0  0
    6.6898   -0.9118   21.6600 H   0  0  0  0  0  0  0  0  0  0  0  0
    8.6866   -0.3905   21.4810 C   0  0  0  0  0  0  0  0  0  0  0  0
    9.6070   -1.5391   21.0440 C   0  0  0  0  0  0  0  0  0  0  0  0
   10.6546   -1.3621   21.3076 H   0  0  0  0  0  0  0  0  0  0  0  0
    9.5310   -1.6510   19.9603 H   0  0  0  0  0  0  0  0  0  0  0  0
    9.2923   -2.4872   21.4895 H   0  0  0  0  0  0  0  0  0  0  0  0
    9.2331    0.9460   20.9577 C   0  0  0  0  0  0  0  0  0  0  0  0
   10.1607    1.2223   21.4677 H   0  0  0  0  0  0  0  0  0  0  0  0
    9.4481    0.8655   19.8910 H   0  0  0  0  0  0  0  0  0  0  0  0
    8.5033    1.7520   21.0921 H   0  0  0  0  0  0  0  0  0  0  0  0
    8.5733   -0.3864   23.0352 C   0  0  0  0  0  0  0  0  0  0  0  0
    9.5801   -0.2643   23.4460 H   0  0  0  0  0  0  0  0  0  0  0  0
    8.2416   -1.3894   23.3366 H   0  0  0  0  0  0  0  0  0  0  0  0
    7.6651    0.6535   23.6759 C   0  0  0  0  0  0  0  0  0  0  0  0
    8.1272    1.9811   23.9326 C   0  0  0  0  0  0  0  0  0  0  0  0
    9.1690    2.2242   23.7283 H   0  0  0  0  0  0  0  0  0  0  0  0
    7.2775    2.9576   24.4064 C   0  0  0  0  0  0  0  0  0  0  0  0
    7.6264    3.9727   24.5587 H   0  0  0  0  0  0  0  0  0  0  0  0
    5.9031    2.6703   24.6683 C   0  0  0  0  0  0  0  0  0  0  0  0
    4.9614    3.6839   25.0431 C   0  0  0  0  0  0  0  0  0  0  0  0
    5.3167    4.7091   25.1275 H   0  0  0  0  0  0  0  0  0  0  0  0
    3.6395    3.3661   25.2594 C   0  0  0  0  0  0  0  0  0  0  0  0
    2.9135    4.1499   25.4726 H   0  0  0  0  0  0  0  0  0  0  0  0
    3.2049    2.0099   25.1821 C   0  0  0  0  0  0  0  0  0  0  0  0
    2.1651    1.7634   25.3859 H   0  0  0  0  0  0  0  0  0  0  0  0
    4.0902    1.0127   24.8402 C   0  0  0  0  0  0  0  0  0  0  0  0
    3.7649   -0.0264   24.8144 H   0  0  0  0  0  0  0  0  0  0  0  0
    5.4465    1.3230   24.5128 C   0  0  0  0  0  0  0  0  0  0  0  0
    6.3569    0.3464   24.0027 C   0  0  0  0  0  0  0  0  0  0  0  0
    5.9987   -0.6712   23.8847 H   0  0  0  0  0  0  0  0  0  0  0  0
    5.5001    0.5985   20.1484 C   0  0  0  0  0  0  0  0  0  0  0  0
    5.1331    0.5920   21.1788 H   0  0  0  0  0  0  0  0  0  0  0  0
    4.8261    1.2814   19.1297 C   0  0  0  0  0  0  0  0  0  0  0  0
    3.8927    1.8080   19.3190 H   0  0  0  0  0  0  0  0  0  0  0  0
  1  2  1  0
  2  3  2  0
  3  4  1  0
  4  5  1  0
  4  6  2  0
  6  7  1  0
  7  8  1  0
  7  9  1  0
  9 10  1  0
 10 11  1  0
 10 12  1  0
 10 13  1  0
  9 14  1  0
 14 15  1  0
 14 16  1  0
 14 17  1  0
  9 18  1  0
 18 19  1  0
 18 20  1  0
 18 21  1  0
 21 22  2  0
 22 23  1  0
 22 24  1  0
 24 25  1  0
 24 26  2  0
 26 27  1  0
 27 28  1  0
 27 29  2  0
 29 30  1  0
 29 31  1  0
 31 32  1  0
 31 33  2  0
 33 34  1  0
 33 35  1  0
 35 36  2  0
 36 37  1  0
  6 38  1  0
 38 39  1  0
 38 40  2  0
 40 41  1  0
 40  2  1  0
 36 21  1  0
 35 26  1  0
M  END
>  <cnnaffinity>  (1) 
-4.35728

>  <filename>  (1) 
CC(C)(Cc1ccc2ccccc2c1)Nc1cccnc1

$$$$
