
     RDKit          3D

 37 38  0  0  0  0  0  0  0  0999 V2000
   10.7519    4.6401   24.7710 H   0  0  0  0  0  0  0  0  0  0  0  0
    9.9932    4.0297   24.7774 O   0  0  0  0  0  0  0  0  0  0  0  0
   10.6621    2.9132   24.4348 C   0  0  0  0  0  0  0  0  0  0  0  0
   11.8632    2.9966   24.2962 O   0  0  0  0  0  0  0  0  0  0  0  0
    9.8275    1.6887   24.2643 C   0  0  0  0  0  0  0  0  0  0  0  0
   10.4647    0.4366   24.2385 C   0  0  0  0  0  0  0  0  0  0  0  0
   11.5312    0.3790   24.4436 H   0  0  0  0  0  0  0  0  0  0  0  0
    9.7448   -0.7177   23.9272 C   0  0  0  0  0  0  0  0  0  0  0  0
   10.2730   -1.6685   23.9311 H   0  0  0  0  0  0  0  0  0  0  0  0
    8.3804   -0.6585   23.5944 C   0  0  0  0  0  0  0  0  0  0  0  0
    7.5676   -1.8790   23.1289 C   0  0  0  0  0  0  0  0  0  0  0  0
    6.7645   -1.5879   21.8123 C   0  0  0  0  0  0  0  0  0  0  0  0
    5.7219   -2.1615   21.5608 O   0  0  0  0  0  0  0  0  0  0  0  0
    7.3735   -0.7450   20.8982 N   0  0  0  0  0  0  0  0  0  0  0  0
    8.1876   -0.2722   21.2673 H   0  0  0  0  0  0  0  0  0  0  0  0
    6.6958   -0.0526   19.8468 C   0  0  0  0  0  0  0  0  0  0  0  0
    7.2398    0.0489   18.5471 C   0  0  0  0  0  0  0  0  0  0  0  0
    8.1937   -0.4270   18.3217 H   0  0  0  0  0  0  0  0  0  0  0  0
    6.6403    0.6969   17.5384 N   0  0  0  0  0  0  0  0  0  0  0  0
    5.4658    1.3028   17.7919 C   0  0  0  0  0  0  0  0  0  0  0  0
    5.0036    1.8317   16.9602 H   0  0  0  0  0  0  0  0  0  0  0  0
    4.8485    1.2801   19.0471 C   0  0  0  0  0  0  0  0  0  0  0  0
    3.9089    1.8069   19.2001 H   0  0  0  0  0  0  0  0  0  0  0  0
    5.4687    0.5784   20.0870 C   0  0  0  0  0  0  0  0  0  0  0  0
    5.0240    0.5117   21.0791 H   0  0  0  0  0  0  0  0  0  0  0  0
    6.5955   -2.2321   24.2821 C   0  0  0  0  0  0  0  0  0  0  0  0
    5.9722   -1.3751   24.5666 H   0  0  0  0  0  0  0  0  0  0  0  0
    7.1725   -2.5126   25.1701 H   0  0  0  0  0  0  0  0  0  0  0  0
    5.9403   -3.0637   24.0077 H   0  0  0  0  0  0  0  0  0  0  0  0
    8.4397   -3.1239   22.8136 C   0  0  0  0  0  0  0  0  0  0  0  0
    8.9715   -3.4683   23.7078 H   0  0  0  0  0  0  0  0  0  0  0  0
    7.8078   -3.9487   22.4681 H   0  0  0  0  0  0  0  0  0  0  0  0
    9.1850   -2.9149   22.0368 H   0  0  0  0  0  0  0  0  0  0  0  0
    7.7228    0.5830   23.7331 C   0  0  0  0  0  0  0  0  0  0  0  0
    6.6469    0.6534   23.5587 H   0  0  0  0  0  0  0  0  0  0  0  0
    8.4333    1.7386   24.0525 C   0  0  0  0  0  0  0  0  0  0  0  0
    7.9171    2.6875   24.1373 H   0  0  0  0  0  0  0  0  0  0  0  0
  1  2  1  0
  2  3  1  0
  3  4  2  0
  3  5  1  0
  5  6  2  0
  6  7  1  0
  6  8  1  0
  8  9  1  0
  8 10  2  0
 10 11  1  0
 11 12  1  0
 12 13  2  0
 12 14  1  0
 14 15  1  0
 14 16  1  0
 16 17  2  0
 17 18  1  0
 17 19  1  0
 19 20  2  0
 20 21  1  0
 20 22  1  0
 22 23  1  0
 22 24  2  0
 24 25  1  0
 11 26  1  0
 26 27  1  0
 26 28  1  0
 26 29  1  0
 11 30  1  0
 30 31  1  0
 30 32  1  0
 30 33  1  0
 10 34  1  0
 34 35  1  0
 34 36  2  0
 36 37  1  0
 36  5  1  0
 24 16  1  0
M  END
>  <cnnaffinity>  (1) 
-4.96446

>  <filename>  (1) 
CC(C)(C(=O)Nc1cccnc1)c1ccc(C(=O)O)cc1

$$$$
