
     RDKit          3D

 42 43  0  0  0  0  0  0  0  0999 V2000
    4.9282    1.7660   17.0120 H   0  0  0  0  0  0  0  0  0  0  0  0
    5.4176    1.2810   17.8589 C   0  0  0  0  0  0  0  0  0  0  0  0
    6.5827    0.6608   17.6246 N   0  0  0  0  0  0  0  0  0  0  0  0
    7.1925    0.0405   18.6396 C   0  0  0  0  0  0  0  0  0  0  0  0
    8.1308   -0.4510   18.3884 H   0  0  0  0  0  0  0  0  0  0  0  0
    6.6544    0.0204   19.9176 C   0  0  0  0  0  0  0  0  0  0  0  0
    7.4728   -0.8995   21.1751 S   0  0  0  0  0  0  0  0  0  0  0  0
    6.5000   -1.0973   22.2478 O   0  0  0  0  0  0  0  0  0  0  0  0
    8.0973   -2.0532   20.5382 O   0  0  0  0  0  0  0  0  0  0  0  0
    8.8877    0.1765   21.8410 C   0  0  0  0  0  0  0  0  0  0  0  0
    9.3618   -0.4923   23.1444 C   0  0  0  0  0  0  0  0  0  0  0  0
    9.7514   -1.4973   22.9469 H   0  0  0  0  0  0  0  0  0  0  0  0
   10.1739    0.0927   23.5987 H   0  0  0  0  0  0  0  0  0  0  0  0
    8.5496   -0.5874   23.8720 H   0  0  0  0  0  0  0  0  0  0  0  0
   10.0343    0.1463   20.8259 C   0  0  0  0  0  0  0  0  0  0  0  0
    9.7213    0.6261   19.8928 H   0  0  0  0  0  0  0  0  0  0  0  0
   10.3545   -0.8781   20.6111 H   0  0  0  0  0  0  0  0  0  0  0  0
   10.9048    0.6912   21.2196 H   0  0  0  0  0  0  0  0  0  0  0  0
    8.4487    1.6528   22.0508 C   0  0  0  0  0  0  0  0  0  0  0  0
    8.1180    2.0438   21.0773 H   0  0  0  0  0  0  0  0  0  0  0  0
    9.3558    2.2387   22.2836 H   0  0  0  0  0  0  0  0  0  0  0  0
    7.3915    1.9525   23.1330 C   0  0  0  0  0  0  0  0  0  0  0  0
    6.7569    1.0640   23.2635 H   0  0  0  0  0  0  0  0  0  0  0  0
    8.0128    2.2872   24.5096 C   0  0  0  0  0  0  0  0  0  0  0  0
    8.6637    1.4751   24.8569 H   0  0  0  0  0  0  0  0  0  0  0  0
    8.6611    3.1716   24.3992 H   0  0  0  0  0  0  0  0  0  0  0  0
    6.9444    2.5875   25.5672 C   0  0  0  0  0  0  0  0  0  0  0  0
    6.3588    1.6748   25.7492 H   0  0  0  0  0  0  0  0  0  0  0  0
    7.4179    2.8524   26.5203 H   0  0  0  0  0  0  0  0  0  0  0  0
    6.0006    3.7087   25.1162 C   0  0  0  0  0  0  0  0  0  0  0  0
    6.5677    4.6484   25.0532 H   0  0  0  0  0  0  0  0  0  0  0  0
    5.2119    3.8659   25.8611 H   0  0  0  0  0  0  0  0  0  0  0  0
    5.3849    3.4092   23.7445 C   0  0  0  0  0  0  0  0  0  0  0  0
    4.7188    2.5379   23.8304 H   0  0  0  0  0  0  0  0  0  0  0  0
    4.7636    4.2499   23.4139 H   0  0  0  0  0  0  0  0  0  0  0  0
    6.4632    3.1081   22.6992 C   0  0  0  0  0  0  0  0  0  0  0  0
    7.0694    4.0111   22.5304 H   0  0  0  0  0  0  0  0  0  0  0  0
    5.9926    2.8688   21.7366 H   0  0  0  0  0  0  0  0  0  0  0  0
    5.4400    0.6565   20.1754 C   0  0  0  0  0  0  0  0  0  0  0  0
    4.9944    0.6290   21.1708 H   0  0  0  0  0  0  0  0  0  0  0  0
    4.8139    1.3088   19.1197 C   0  0  0  0  0  0  0  0  0  0  0  0
    3.8783    1.8385   19.2620 H   0  0  0  0  0  0  0  0  0  0  0  0
  1  2  1  0
  2  3  2  0
  3  4  1  0
  4  5  1  0
  4  6  2  0
  6  7  1  0
  7  8  2  0
  7  9  2  0
  7 10  1  0
 10 11  1  0
 11 12  1  0
 11 13  1  0
 11 14  1  0
 10 15  1  0
 15 16  1  0
 15 17  1  0
 15 18  1  0
 10 19  1  0
 19 20  1  0
 19 21  1  0
 19 22  1  0
 22 23  1  0
 22 24  1  0
 24 25  1  0
 24 26  1  0
 24 27  1  0
 27 28  1  0
 27 29  1  0
 27 30  1  0
 30 31  1  0
 30 32  1  0
 30 33  1  0
 33 34  1  0
 33 35  1  0
 33 36  1  0
 36 37  1  0
 36 38  1  0
  6 39  1  0
 39 40  1  0
 39 41  2  0
 41 42  1  0
 41  2  1  0
 36 22  1  0
M  END
>  <cnnaffinity>  (1) 
-4.98571

>  <filename>  (1) 
CC(C)(CC1CCCCC1)S(=O)(=O)c1cccnc1

$$$$
