
     RDKit          3D

 34 36  0  0  0  0  0  0  0  0999 V2000
    4.9157    1.7751   17.0025 H   0  0  0  0  0  0  0  0  0  0  0  0
    5.4046    1.2898   17.8431 C   0  0  0  0  0  0  0  0  0  0  0  0
    6.5703    0.6780   17.5779 N   0  0  0  0  0  0  0  0  0  0  0  0
    7.1755    0.0571   18.5911 C   0  0  0  0  0  0  0  0  0  0  0  0
    8.1250   -0.4349   18.3743 H   0  0  0  0  0  0  0  0  0  0  0  0
    6.6487    0.0122   19.8920 C   0  0  0  0  0  0  0  0  0  0  0  0
    7.4028   -0.7035   20.9186 C   0  0  0  0  0  0  0  0  0  0  0  0
    8.3220   -1.6102   20.6956 N   0  0  0  0  0  0  0  0  0  0  0  0
    8.8163   -2.0567   21.9004 N   0  0  0  0  0  0  0  0  0  0  0  0
    8.1823   -1.3776   22.8162 C   0  0  0  0  0  0  0  0  0  0  0  0
    8.2251   -1.1510   24.5395 S   0  0  0  0  0  0  0  0  0  0  0  0
    7.0192    0.1230   24.3278 C   0  0  0  0  0  0  0  0  0  0  0  0
    6.4597    0.8635   25.5023 C   0  0  0  0  0  0  0  0  0  0  0  0
    6.5250    1.9341   25.2829 H   0  0  0  0  0  0  0  0  0  0  0  0
    7.0887    0.6819   26.3789 H   0  0  0  0  0  0  0  0  0  0  0  0
    4.9988    0.4790   25.7965 C   0  0  0  0  0  0  0  0  0  0  0  0
    4.6311    1.1051   26.6208 H   0  0  0  0  0  0  0  0  0  0  0  0
    4.3994    0.7442   24.9160 H   0  0  0  0  0  0  0  0  0  0  0  0
    4.7689   -1.0021   26.1420 C   0  0  0  0  0  0  0  0  0  0  0  0
    5.1831   -1.6177   25.3296 H   0  0  0  0  0  0  0  0  0  0  0  0
    3.2712   -1.2985   26.2202 C   0  0  0  0  0  0  0  0  0  0  0  0
    2.7989   -0.7125   27.0182 H   0  0  0  0  0  0  0  0  0  0  0  0
    3.0912   -2.3578   26.4317 H   0  0  0  0  0  0  0  0  0  0  0  0
    2.7696   -1.0550   25.2778 H   0  0  0  0  0  0  0  0  0  0  0  0
    5.4659   -1.4090   27.4423 C   0  0  0  0  0  0  0  0  0  0  0  0
    5.2142   -2.4391   27.7166 H   0  0  0  0  0  0  0  0  0  0  0  0
    5.1525   -0.7628   28.2720 H   0  0  0  0  0  0  0  0  0  0  0  0
    6.5554   -1.3505   27.3629 H   0  0  0  0  0  0  0  0  0  0  0  0
    6.6155    0.3348   23.1187 N   0  0  0  0  0  0  0  0  0  0  0  0
    7.2707   -0.5275   22.2791 N   0  0  0  0  0  0  0  0  0  0  0  0
    5.4334    0.6523   20.1618 C   0  0  0  0  0  0  0  0  0  0  0  0
    5.0081    0.6349   21.1681 H   0  0  0  0  0  0  0  0  0  0  0  0
    4.8047    1.3087   19.1089 C   0  0  0  0  0  0  0  0  0  0  0  0
    3.8740    1.8435   19.2621 H   0  0  0  0  0  0  0  0  0  0  0  0
  1  2  1  0
  2  3  2  0
  3  4  1  0
  4  5  1  0
  4  6  2  0
  6  7  1  0
  7  8  2  0
  8  9  1  0
  9 10  2  0
 10 11  1  0
 11 12  1  0
 12 13  1  0
 13 14  1  0
 13 15  1  0
 13 16  1  0
 16 17  1  0
 16 18  1  0
 16 19  1  0
 19 20  1  0
 19 21  1  0
 21 22  1  0
 21 23  1  0
 21 24  1  0
 19 25  1  0
 25 26  1  0
 25 27  1  0
 25 28  1  0
 12 29  2  0
 29 30  1  0
  6 31  1  0
 31 32  1  0
 31 33  2  0
 33 34  1  0
 33  2  1  0
 30  7  1  0
 30 10  1  0
M  END
>  <cnnaffinity>  (1) 
-5.18281

>  <filename>  (1) 
CC(C)CCc1nn2c(-c3cccnc3)nnc2s1

$$$$
