
     RDKit          3D

 36 37  0  0  0  0  0  0  0  0999 V2000
    4.9559    1.9455   16.8298 H   0  0  0  0  0  0  0  0  0  0  0  0
    5.4186    1.4052   17.6529 C   0  0  0  0  0  0  0  0  0  0  0  0
    6.5824    0.7904   17.3806 N   0  0  0  0  0  0  0  0  0  0  0  0
    7.1833    0.1258   18.3775 C   0  0  0  0  0  0  0  0  0  0  0  0
    8.1271   -0.3645   18.1500 H   0  0  0  0  0  0  0  0  0  0  0  0
    6.6486    0.0228   19.6800 C   0  0  0  0  0  0  0  0  0  0  0  0
    7.2865   -0.7436   20.7450 N   0  0  0  0  0  0  0  0  0  0  0  0
    8.5372   -0.3508   21.2934 C   0  0  0  0  0  0  0  0  0  0  0  0
    9.1698    0.5475   20.7768 O   0  0  0  0  0  0  0  0  0  0  0  0
    8.9822   -1.0595   22.4816 C   0  0  0  0  0  0  0  0  0  0  0  0
    9.9266   -0.7212   22.8695 H   0  0  0  0  0  0  0  0  0  0  0  0
    8.2780   -2.0646   23.0321 C   0  0  0  0  0  0  0  0  0  0  0  0
    8.6633   -2.8895   24.2274 C   0  0  0  0  0  0  0  0  0  0  0  0
    7.9151   -2.7385   25.0146 H   0  0  0  0  0  0  0  0  0  0  0  0
    9.5998   -2.4800   24.6159 H   0  0  0  0  0  0  0  0  0  0  0  0
    8.8166   -4.3951   23.8995 C   0  0  0  0  0  0  0  0  0  0  0  0
    9.4767   -4.4757   23.0254 H   0  0  0  0  0  0  0  0  0  0  0  0
    7.8359   -4.7755   23.5909 H   0  0  0  0  0  0  0  0  0  0  0  0
    9.3772   -5.3426   24.9933 C   0  0  0  0  0  0  0  0  0  0  0  0
    9.7660   -6.2218   24.4579 H   0  0  0  0  0  0  0  0  0  0  0  0
    8.3152   -5.8508   25.9836 C   0  0  0  0  0  0  0  0  0  0  0  0
    7.8352   -5.0068   26.4907 H   0  0  0  0  0  0  0  0  0  0  0  0
    7.5237   -6.4132   25.4782 H   0  0  0  0  0  0  0  0  0  0  0  0
    8.7470   -6.5156   26.7468 H   0  0  0  0  0  0  0  0  0  0  0  0
   10.5581   -4.7164   25.7356 C   0  0  0  0  0  0  0  0  0  0  0  0
   10.9942   -5.4266   26.4446 H   0  0  0  0  0  0  0  0  0  0  0  0
   11.3486   -4.3850   25.0497 H   0  0  0  0  0  0  0  0  0  0  0  0
   10.2250   -3.8429   26.3072 H   0  0  0  0  0  0  0  0  0  0  0  0
    7.1063   -2.3940   22.4075 N   0  0  0  0  0  0  0  0  0  0  0  0
    6.4421   -3.0689   22.7413 H   0  0  0  0  0  0  0  0  0  0  0  0
    6.5865   -1.8134   21.2855 C   0  0  0  0  0  0  0  0  0  0  0  0
    5.5570   -2.2613   20.8324 O   0  0  0  0  0  0  0  0  0  0  0  0
    5.4279    0.6517   19.9369 C   0  0  0  0  0  0  0  0  0  0  0  0
    4.9771    0.5642   20.9242 H   0  0  0  0  0  0  0  0  0  0  0  0
    4.8044    1.3660   18.9089 C   0  0  0  0  0  0  0  0  0  0  0  0
    3.8599    1.8780   19.0677 H   0  0  0  0  0  0  0  0  0  0  0  0
  1  2  1  0
  2  3  2  0
  3  4  1  0
  4  5  1  0
  4  6  2  0
  6  7  1  0
  7  8  1  0
  8  9  2  0
  8 10  1  0
 10 11  1  0
 10 12  2  0
 12 13  1  0
 13 14  1  0
 13 15  1  0
 13 16  1  0
 16 17  1  0
 16 18  1  0
 16 19  1  0
 19 20  1  0
 19 21  1  0
 21 22  1  0
 21 23  1  0
 21 24  1  0
 19 25  1  0
 25 26  1  0
 25 27  1  0
 25 28  1  0
 12 29  1  0
 29 30  1  0
 29 31  1  0
 31 32  2  0
  6 33  1  0
 33 34  1  0
 33 35  2  0
 35 36  1  0
 35  2  1  0
 31  7  1  0
M  END
>  <cnnaffinity>  (1) 
-4.88094

>  <filename>  (1) 
CC(C)CCc1cc(=O)n(-c2cccnc2)c(=O)[nH]1

$$$$
