
     RDKit          3D

 33 35  0  0  0  0  0  0  0  0999 V2000
    4.9215    1.7839   16.9930 H   0  0  0  0  0  0  0  0  0  0  0  0
    5.4011    1.2948   17.8344 C   0  0  0  0  0  0  0  0  0  0  0  0
    6.5632    0.6747   17.5741 N   0  0  0  0  0  0  0  0  0  0  0  0
    7.1560    0.0433   18.5929 C   0  0  0  0  0  0  0  0  0  0  0  0
    8.1156   -0.4286   18.3723 H   0  0  0  0  0  0  0  0  0  0  0  0
    6.6375    0.0113   19.8903 C   0  0  0  0  0  0  0  0  0  0  0  0
    7.3635   -0.6964   20.9405 C   0  0  0  0  0  0  0  0  0  0  0  0
    7.0955   -2.0233   21.1176 N   0  0  0  0  0  0  0  0  0  0  0  0
    7.8442   -2.3690   22.1241 C   0  0  0  0  0  0  0  0  0  0  0  0
    8.1317   -3.8478   23.0122 S   0  0  0  0  0  0  0  0  0  0  0  0
    9.2942   -3.0001   24.0220 C   0  0  0  0  0  0  0  0  0  0  0  0
    9.8011   -3.5407   24.8078 H   0  0  0  0  0  0  0  0  0  0  0  0
    9.4268   -1.7045   23.6852 C   0  0  0  0  0  0  0  0  0  0  0  0
   10.0712   -0.9666   24.1451 H   0  0  0  0  0  0  0  0  0  0  0  0
    8.6104   -1.3467   22.6181 N   0  0  0  0  0  0  0  0  0  0  0  0
    8.3065   -0.2246   21.8430 C   0  0  0  0  0  0  0  0  0  0  0  0
    8.9305    1.1275   22.0583 C   0  0  0  0  0  0  0  0  0  0  0  0
    8.6160    1.6458   23.4775 C   0  0  0  0  0  0  0  0  0  0  0  0
    9.0414    1.0056   24.2517 H   0  0  0  0  0  0  0  0  0  0  0  0
    7.5329    1.6927   23.6279 H   0  0  0  0  0  0  0  0  0  0  0  0
    9.0218    2.6551   23.6092 H   0  0  0  0  0  0  0  0  0  0  0  0
    8.3855    2.1716   21.0622 C   0  0  0  0  0  0  0  0  0  0  0  0
    7.3084    2.3254   21.1644 H   0  0  0  0  0  0  0  0  0  0  0  0
    8.8839    3.1371   21.2154 H   0  0  0  0  0  0  0  0  0  0  0  0
    8.5334    1.8447   20.0374 H   0  0  0  0  0  0  0  0  0  0  0  0
   10.4620    1.0321   21.8590 C   0  0  0  0  0  0  0  0  0  0  0  0
   10.9265    2.0218   21.9404 H   0  0  0  0  0  0  0  0  0  0  0  0
   10.9338    0.3760   22.5935 H   0  0  0  0  0  0  0  0  0  0  0  0
   10.6902    0.6314   20.8698 H   0  0  0  0  0  0  0  0  0  0  0  0
    5.4178    0.6494   20.1490 C   0  0  0  0  0  0  0  0  0  0  0  0
    4.9996    0.6388   21.1623 H   0  0  0  0  0  0  0  0  0  0  0  0
    4.7980    1.3143   19.0961 C   0  0  0  0  0  0  0  0  0  0  0  0
    3.8707    1.8474   19.2562 H   0  0  0  0  0  0  0  0  0  0  0  0
  1  2  1  0
  2  3  2  0
  3  4  1  0
  4  5  1  0
  4  6  2  0
  6  7  1  0
  7  8  1  0
  8  9  2  0
  9 10  1  0
 10 11  1  0
 11 12  1  0
 11 13  2  0
 13 14  1  0
 13 15  1  0
 15 16  1  0
 16 17  1  0
 17 18  1  0
 18 19  1  0
 18 20  1  0
 18 21  1  0
 17 22  1  0
 22 23  1  0
 22 24  1  0
 22 25  1  0
 17 26  1  0
 26 27  1  0
 26 28  1  0
 26 29  1  0
  6 30  1  0
 30 31  1  0
 30 32  2  0
 32 33  1  0
 32  2  1  0
 16  7  2  0
 15  9  1  0
M  END
>  <cnnaffinity>  (1) 
-5.61497

>  <filename>  (1) 
CC(C)(C)c1c(-c2cccnc2)nc2sccn12

$$$$
