
     RDKit          3D

 40 42  0  0  0  0  0  0  0  0999 V2000
    4.9600    1.8404   16.9443 H   0  0  0  0  0  0  0  0  0  0  0  0
    5.3844    1.3074   17.7904 C   0  0  0  0  0  0  0  0  0  0  0  0
    6.5411    0.6611   17.5753 N   0  0  0  0  0  0  0  0  0  0  0  0
    7.0976    0.0327   18.6237 C   0  0  0  0  0  0  0  0  0  0  0  0
    8.0430   -0.4653   18.4045 H   0  0  0  0  0  0  0  0  0  0  0  0
    6.5272   -0.0179   19.9157 C   0  0  0  0  0  0  0  0  0  0  0  0
    7.2698   -0.6559   21.0237 C   0  0  0  0  0  0  0  0  0  0  0  0
    8.6221   -0.6099   21.2575 C   0  0  0  0  0  0  0  0  0  0  0  0
    8.8208   -1.1334   22.5335 C   0  0  0  0  0  0  0  0  0  0  0  0
    7.7110   -1.5908   23.0753 N   0  0  0  0  0  0  0  0  0  0  0  0
    6.7624   -1.2641   22.1477 N   0  0  0  0  0  0  0  0  0  0  0  0
    5.7973   -1.4553   22.3788 H   0  0  0  0  0  0  0  0  0  0  0  0
   10.2381   -0.9367   22.9945 C   0  0  0  0  0  0  0  0  0  0  0  0
   10.3341   -0.6270   24.0398 H   0  0  0  0  0  0  0  0  0  0  0  0
   10.7835   -1.8766   22.8866 H   0  0  0  0  0  0  0  0  0  0  0  0
   10.7602    0.1484   21.9982 C   0  0  2  0  0  0  0  0  0  0  0  0
   11.8030   -0.0591   21.7419 H   0  0  0  0  0  0  0  0  0  0  0  0
   10.6990    1.5735   22.5789 C   0  0  0  0  0  0  0  0  0  0  0  0
   11.3796    1.6253   23.4391 H   0  0  0  0  0  0  0  0  0  0  0  0
   11.1030    2.2669   21.8265 H   0  0  0  0  0  0  0  0  0  0  0  0
    9.3006    2.0487   22.9931 C   0  0  0  0  0  0  0  0  0  0  0  0
    8.5947    1.8854   22.1688 H   0  0  0  0  0  0  0  0  0  0  0  0
    8.9378    1.4374   23.8327 H   0  0  0  0  0  0  0  0  0  0  0  0
    9.2297    3.5286   23.3937 C   0  0  0  0  0  0  0  0  0  0  0  0
    9.6390    4.1197   22.5603 H   0  0  0  0  0  0  0  0  0  0  0  0
    7.7829    3.9816   23.6071 C   0  0  0  0  0  0  0  0  0  0  0  0
    7.1724    3.8349   22.7095 H   0  0  0  0  0  0  0  0  0  0  0  0
    7.7413    5.0466   23.8645 H   0  0  0  0  0  0  0  0  0  0  0  0
    7.3178    3.4200   24.4273 H   0  0  0  0  0  0  0  0  0  0  0  0
   10.0562    3.8166   24.6451 C   0  0  0  0  0  0  0  0  0  0  0  0
   11.1197    3.6084   24.4928 H   0  0  0  0  0  0  0  0  0  0  0  0
    9.7045    3.1929   25.4790 H   0  0  0  0  0  0  0  0  0  0  0  0
    9.9689    4.8646   24.9495 H   0  0  0  0  0  0  0  0  0  0  0  0
    9.8705    0.0042   20.7292 C   0  0  0  0  0  0  0  0  0  0  0  0
   10.3555   -0.6723   20.0280 H   0  0  0  0  0  0  0  0  0  0  0  0
    9.7156    0.9563   20.2080 H   0  0  0  0  0  0  0  0  0  0  0  0
    5.3069    0.6581   20.1026 C   0  0  0  0  0  0  0  0  0  0  0  0
    4.8487    0.6969   21.0904 H   0  0  0  0  0  0  0  0  0  0  0  0
    4.7305    1.3321   19.0270 C   0  0  0  0  0  0  0  0  0  0  0  0
    3.8149    1.9031   19.1469 H   0  0  0  0  0  0  0  0  0  0  0  0
  1  2  1  0
  2  3  2  0
  3  4  1  0
  4  5  1  0
  4  6  2  0
  6  7  1  0
  7  8  2  0
  8  9  1  0
  9 10  2  0
 10 11  1  0
 11 12  1  0
  9 13  1  0
 13 14  1  0
 13 15  1  0
 13 16  1  0
 16 17  1  6
 16 18  1  0
 18 19  1  0
 18 20  1  0
 18 21  1  0
 21 22  1  0
 21 23  1  0
 21 24  1  0
 24 25  1  0
 24 26  1  0
 26 27  1  0
 26 28  1  0
 26 29  1  0
 24 30  1  0
 30 31  1  0
 30 32  1  0
 30 33  1  0
 16 34  1  0
 34 35  1  0
 34 36  1  0
  6 37  1  0
 37 38  1  0
 37 39  2  0
 39 40  1  0
 39  2  1  0
 11  7  1  0
 34  8  1  0
M  END
>  <cnnaffinity>  (1) 
-5.70432

>  <filename>  (1) 
CC(C)CC[C@H]1Cc2n[nH]c(-c3cccnc3)c2C1

$$$$
