
     RDKit          3D

 29 30  0  0  0  0  0  0  0  0999 V2000
    4.9276    1.7802   17.0000 H   0  0  0  0  0  0  0  0  0  0  0  0
    5.4089    1.2911   17.8455 C   0  0  0  0  0  0  0  0  0  0  0  0
    6.5750    0.6708   17.5974 N   0  0  0  0  0  0  0  0  0  0  0  0
    7.1780    0.0402   18.6090 C   0  0  0  0  0  0  0  0  0  0  0  0
    8.1237   -0.4411   18.3769 H   0  0  0  0  0  0  0  0  0  0  0  0
    6.6548    0.0001   19.9121 C   0  0  0  0  0  0  0  0  0  0  0  0
    7.3638   -0.6741   20.9423 N   0  0  0  0  0  0  0  0  0  0  0  0
    7.9096   -1.8962   20.7239 N   0  0  0  0  0  0  0  0  0  0  0  0
    8.3621   -2.2734   21.9058 C   0  0  0  0  0  0  0  0  0  0  0  0
    8.8454   -3.2402   21.9917 H   0  0  0  0  0  0  0  0  0  0  0  0
    8.1389   -1.3120   22.9153 C   0  0  0  0  0  0  0  0  0  0  0  0
    8.4269   -1.3496   23.9573 H   0  0  0  0  0  0  0  0  0  0  0  0
    7.5173   -0.2790   22.2537 C   0  0  0  0  0  0  0  0  0  0  0  0
    7.0568    0.9415   22.7268 N   0  0  0  0  0  0  0  0  0  0  0  0
    6.9677    0.9353   23.7291 H   0  0  0  0  0  0  0  0  0  0  0  0
    7.6113    2.1985   22.2154 C   0  0  0  0  0  0  0  0  0  0  0  0
    7.7450    2.0664   21.1389 H   0  0  0  0  0  0  0  0  0  0  0  0
    6.5811    3.2915   22.4490 C   0  0  0  0  0  0  0  0  0  0  0  0
    6.4209    3.4482   23.5215 H   0  0  0  0  0  0  0  0  0  0  0  0
    5.6271    3.0089   21.9958 H   0  0  0  0  0  0  0  0  0  0  0  0
    6.9020    4.2417   22.0107 H   0  0  0  0  0  0  0  0  0  0  0  0
    8.9654    2.5610   22.8298 C   0  0  0  0  0  0  0  0  0  0  0  0
    8.8781    2.6999   23.9139 H   0  0  0  0  0  0  0  0  0  0  0  0
    9.3418    3.5012   22.4054 H   0  0  0  0  0  0  0  0  0  0  0  0
    9.7068    1.7808   22.6392 H   0  0  0  0  0  0  0  0  0  0  0  0
    5.4370    0.6466   20.1696 C   0  0  0  0  0  0  0  0  0  0  0  0
    5.0154    0.6338   21.1749 H   0  0  0  0  0  0  0  0  0  0  0  0
    4.8109    1.3053   19.1099 C   0  0  0  0  0  0  0  0  0  0  0  0
    3.8775    1.8375   19.2555 H   0  0  0  0  0  0  0  0  0  0  0  0
  1  2  1  0
  2  3  2  0
  3  4  1  0
  4  5  1  0
  4  6  2  0
  6  7  1  0
  7  8  1  0
  8  9  2  0
  9 10  1  0
  9 11  1  0
 11 12  1  0
 11 13  2  0
 13 14  1  0
 14 15  1  0
 14 16  1  0
 16 17  1  0
 16 18  1  0
 18 19  1  0
 18 20  1  0
 18 21  1  0
 16 22  1  0
 22 23  1  0
 22 24  1  0
 22 25  1  0
  6 26  1  0
 26 27  1  0
 26 28  2  0
 28 29  1  0
 28  2  1  0
 13  7  1  0
M  END
>  <cnnaffinity>  (1) 
-4.5308

>  <filename>  (1) 
CC(C)Nc1ccnn1-c1cccnc1

$$$$
