
     RDKit          3D

 41 43  0  0  0  0  0  0  0  0999 V2000
    4.8865    1.8381   16.9221 H   0  0  0  0  0  0  0  0  0  0  0  0
    5.3940    1.3284   17.7393 C   0  0  0  0  0  0  0  0  0  0  0  0
    6.5406    0.7045   17.4256 N   0  0  0  0  0  0  0  0  0  0  0  0
    7.2087    0.0898   18.4091 C   0  0  0  0  0  0  0  0  0  0  0  0
    8.1434   -0.4001   18.1460 H   0  0  0  0  0  0  0  0  0  0  0  0
    6.7644    0.0503   19.7412 C   0  0  0  0  0  0  0  0  0  0  0  0
    7.5106   -0.6488   20.7607 N   0  0  0  0  0  0  0  0  0  0  0  0
    6.9021   -1.7252   21.3618 C   0  0  0  0  0  0  0  0  0  0  0  0
    5.9236   -1.9647   20.9641 H   0  0  0  0  0  0  0  0  0  0  0  0
    7.4636   -2.4432   22.3895 C   0  0  0  0  0  0  0  0  0  0  0  0
    6.6757   -3.5063   23.0800 C   0  0  0  0  0  0  0  0  0  0  0  0
    5.2660   -3.4589   23.0263 C   0  0  0  0  0  0  0  0  0  0  0  0
    4.7742   -2.7581   22.3614 H   0  0  0  0  0  0  0  0  0  0  0  0
    4.4730   -4.2644   23.8280 C   0  0  0  0  0  0  0  0  0  0  0  0
    3.3958   -4.1394   23.8520 H   0  0  0  0  0  0  0  0  0  0  0  0
    5.0687   -5.2452   24.6346 C   0  0  0  0  0  0  0  0  0  0  0  0
    4.2210   -5.9599   25.4200 O   0  0  0  0  0  0  0  0  0  0  0  0
    4.5013   -7.3349   25.7054 C   0  0  0  0  0  0  0  0  0  0  0  0
    5.1687   -7.7359   24.9305 H   0  0  0  0  0  0  0  0  0  0  0  0
    3.1788   -8.0770   25.6549 C   0  0  0  0  0  0  0  0  0  0  0  0
    2.6333   -7.8206   24.7436 H   0  0  0  0  0  0  0  0  0  0  0  0
    2.5669   -7.8109   26.5224 H   0  0  0  0  0  0  0  0  0  0  0  0
    3.3493   -9.1586   25.6689 H   0  0  0  0  0  0  0  0  0  0  0  0
    5.1585   -7.4382   27.0730 C   0  0  0  0  0  0  0  0  0  0  0  0
    5.2412   -8.4764   27.4020 H   0  0  0  0  0  0  0  0  0  0  0  0
    4.5680   -6.8987   27.8197 H   0  0  0  0  0  0  0  0  0  0  0  0
    6.1751   -7.0395   27.0779 H   0  0  0  0  0  0  0  0  0  0  0  0
    6.4624   -5.4013   24.6149 C   0  0  0  0  0  0  0  0  0  0  0  0
    6.9129   -6.1919   25.2057 H   0  0  0  0  0  0  0  0  0  0  0  0
    7.2543   -4.5235   23.8648 C   0  0  0  0  0  0  0  0  0  0  0  0
    8.3356   -4.6421   23.9136 H   0  0  0  0  0  0  0  0  0  0  0  0
    8.7625   -2.0272   22.8312 C   0  0  0  0  0  0  0  0  0  0  0  0
    9.2393   -2.5490   23.6616 H   0  0  0  0  0  0  0  0  0  0  0  0
    9.3927   -0.9647   22.2576 C   0  0  0  0  0  0  0  0  0  0  0  0
   10.3581   -0.5993   22.5746 H   0  0  0  0  0  0  0  0  0  0  0  0
    8.8186   -0.2014   21.1562 C   0  0  0  0  0  0  0  0  0  0  0  0
    9.3818    0.7268   20.6078 O   0  0  0  0  0  0  0  0  0  0  0  0
    5.5528    0.6784   20.0519 C   0  0  0  0  0  0  0  0  0  0  0  0
    5.1869    0.6463   21.0785 H   0  0  0  0  0  0  0  0  0  0  0  0
    4.8601    1.3418   19.0322 C   0  0  0  0  0  0  0  0  0  0  0  0
    3.9264    1.8590   19.2229 H   0  0  0  0  0  0  0  0  0  0  0  0
  1  2  1  0
  2  3  2  0
  3  4  1  0
  4  5  1  0
  4  6  2  0
  6  7  1  0
  7  8  1  0
  8  9  1  0
  8 10  2  0
 10 11  1  0
 11 12  2  0
 12 13  1  0
 12 14  1  0
 14 15  1  0
 14 16  2  0
 16 17  1  0
 17 18  1  0
 18 19  1  0
 18 20  1  0
 20 21  1  0
 20 22  1  0
 20 23  1  0
 18 24  1  0
 24 25  1  0
 24 26  1  0
 24 27  1  0
 16 28  1  0
 28 29  1  0
 28 30  2  0
 30 31  1  0
 10 32  1  0
 32 33  1  0
 32 34  2  0
 34 35  1  0
 34 36  1  0
 36 37  2  0
  6 38  1  0
 38 39  1  0
 38 40  2  0
 40 41  1  0
 40  2  1  0
 36  7  1  0
 30 11  1  0
M  END
>  <cnnaffinity>  (1) 
-5.58914

>  <filename>  (1) 
CC(C)Oc1ccc(-c2ccc(=O)n(-c3cccnc3)c2)cc1

$$$$
