
     RDKit          3D

 40 42  0  0  0  0  0  0  0  0999 V2000
    5.1536    1.8020   16.8466 H   0  0  0  0  0  0  0  0  0  0  0  0
    5.5257    1.2922   17.7329 C   0  0  0  0  0  0  0  0  0  0  0  0
    6.6680    0.6013   17.5829 N   0  0  0  0  0  0  0  0  0  0  0  0
    7.1461   -0.0599   18.6439 C   0  0  0  0  0  0  0  0  0  0  0  0
    8.0557   -0.6375   18.4757 H   0  0  0  0  0  0  0  0  0  0  0  0
    6.5364   -0.0333   19.9108 C   0  0  0  0  0  0  0  0  0  0  0  0
    7.1253   -0.7424   21.0552 C   0  0  0  0  0  0  0  0  0  0  0  0
    7.5261   -2.0126   20.9492 N   0  0  0  0  0  0  0  0  0  0  0  0
    7.8758   -2.3305   22.1959 N   0  0  0  0  0  0  0  0  0  0  0  0
    7.7686   -1.3283   23.0799 C   0  0  0  0  0  0  0  0  0  0  0  0
    7.3019   -0.2321   22.3823 C   0  0  0  0  0  0  0  0  0  0  0  0
    7.0880    1.1676   22.9097 C   0  0  0  0  0  0  0  0  0  0  0  0
    6.9594    1.8586   22.0679 H   0  0  0  0  0  0  0  0  0  0  0  0
    6.1339    1.2001   23.4534 H   0  0  0  0  0  0  0  0  0  0  0  0
    8.2085    1.7044   23.8148 C   0  0  0  0  0  0  0  0  0  0  0  0
    8.3764    1.0234   24.6606 H   0  0  0  0  0  0  0  0  0  0  0  0
    9.1492    1.7032   23.2468 H   0  0  0  0  0  0  0  0  0  0  0  0
    7.9640    3.1192   24.3815 C   0  0  0  0  0  0  0  0  0  0  0  0
    7.7937    3.7974   23.5298 H   0  0  0  0  0  0  0  0  0  0  0  0
    6.7246    3.1703   25.2892 C   0  0  0  0  0  0  0  0  0  0  0  0
    5.8123    2.8562   24.7714 H   0  0  0  0  0  0  0  0  0  0  0  0
    6.5367    4.1822   25.6645 H   0  0  0  0  0  0  0  0  0  0  0  0
    6.8504    2.5095   26.1577 H   0  0  0  0  0  0  0  0  0  0  0  0
    9.2016    3.6308   25.1374 C   0  0  0  0  0  0  0  0  0  0  0  0
   10.1026    3.6050   24.5124 H   0  0  0  0  0  0  0  0  0  0  0  0
    9.4015    3.0183   26.0271 H   0  0  0  0  0  0  0  0  0  0  0  0
    9.0670    4.6662   25.4739 H   0  0  0  0  0  0  0  0  0  0  0  0
    8.3242   -1.7715   24.4012 C   0  0  0  0  0  0  0  0  0  0  0  0
    7.6386   -1.5898   25.2302 H   0  0  0  0  0  0  0  0  0  0  0  0
    9.2317   -1.1999   24.6175 H   0  0  0  0  0  0  0  0  0  0  0  0
    8.6093   -3.2877   24.1989 C   0  0  0  0  0  0  0  0  0  0  0  0
    7.8798   -3.8889   24.7432 H   0  0  0  0  0  0  0  0  0  0  0  0
    9.6049   -3.5771   24.5389 H   0  0  0  0  0  0  0  0  0  0  0  0
    8.4450   -3.5632   22.6828 C   0  0  0  0  0  0  0  0  0  0  0  0
    7.7754   -4.4031   22.4793 H   0  0  0  0  0  0  0  0  0  0  0  0
    9.3977   -3.7327   22.1870 H   0  0  0  0  0  0  0  0  0  0  0  0
    5.3364    0.6858   20.0417 C   0  0  0  0  0  0  0  0  0  0  0  0
    4.8251    0.7188   21.0065 H   0  0  0  0  0  0  0  0  0  0  0  0
    4.8138    1.3491   18.9365 C   0  0  0  0  0  0  0  0  0  0  0  0
    3.8850    1.9064   18.9961 H   0  0  0  0  0  0  0  0  0  0  0  0
  1  2  1  0
  2  3  2  0
  3  4  1  0
  4  5  1  0
  4  6  2  0
  6  7  1  0
  7  8  2  0
  8  9  1  0
  9 10  1  0
 10 11  2  0
 11 12  1  0
 12 13  1  0
 12 14  1  0
 12 15  1  0
 15 16  1  0
 15 17  1  0
 15 18  1  0
 18 19  1  0
 18 20  1  0
 20 21  1  0
 20 22  1  0
 20 23  1  0
 18 24  1  0
 24 25  1  0
 24 26  1  0
 24 27  1  0
 10 28  1  0
 28 29  1  0
 28 30  1  0
 28 31  1  0
 31 32  1  0
 31 33  1  0
 31 34  1  0
 34 35  1  0
 34 36  1  0
  6 37  1  0
 37 38  1  0
 37 39  2  0
 39 40  1  0
 39  2  1  0
 11  7  1  0
 34  9  1  0
M  END
>  <cnnaffinity>  (1) 
-5.42954

>  <filename>  (1) 
CC(C)CCc1c(-c2cccnc2)nn2c1CCC2

$$$$
