
     RDKit          3D

 36 38  0  0  0  0  0  0  0  0999 V2000
    4.9137    1.8577   17.0090 H   0  0  0  0  0  0  0  0  0  0  0  0
    5.3905    1.3046   17.8120 C   0  0  0  0  0  0  0  0  0  0  0  0
    6.5351    0.6761   17.5031 N   0  0  0  0  0  0  0  0  0  0  0  0
    7.1594    0.0132   18.4944 C   0  0  0  0  0  0  0  0  0  0  0  0
    8.0937   -0.4682   18.2232 H   0  0  0  0  0  0  0  0  0  0  0  0
    6.6867   -0.0543   19.8386 C   0  0  0  0  0  0  0  0  0  0  0  0
    7.3088   -0.6974   20.9098 N   0  0  0  0  0  0  0  0  0  0  0  0
    6.7060   -0.7032   21.7264 H   0  0  0  0  0  0  0  0  0  0  0  0
    8.7394   -0.6311   21.2860 C   0  0  0  0  0  0  0  0  0  0  0  0
    8.8140   -0.7214   22.8225 C   0  0  0  0  0  0  0  0  0  0  0  0
    9.5452   -1.7069   23.4972 C   0  0  0  0  0  0  0  0  0  0  0  0
   10.0907   -2.4585   22.9316 H   0  0  0  0  0  0  0  0  0  0  0  0
    9.6019   -1.7637   24.9056 C   0  0  0  0  0  0  0  0  0  0  0  0
   10.0765   -2.6264   25.3576 H   0  0  0  0  0  0  0  0  0  0  0  0
    9.0119   -0.7854   25.6922 C   0  0  0  0  0  0  0  0  0  0  0  0
    9.1062   -0.8091   26.7740 H   0  0  0  0  0  0  0  0  0  0  0  0
    8.2791    0.2202   25.0296 C   0  0  0  0  0  0  0  0  0  0  0  0
    8.1372    0.2524   23.6205 C   0  0  0  0  0  0  0  0  0  0  0  0
    7.2400    1.3573   23.3461 C   0  0  0  0  0  0  0  0  0  0  0  0
    6.8654    1.6617   22.3758 H   0  0  0  0  0  0  0  0  0  0  0  0
    6.9041    1.9323   24.5373 C   0  0  0  0  0  0  0  0  0  0  0  0
    6.2250    2.7523   24.7563 H   0  0  0  0  0  0  0  0  0  0  0  0
    7.5440    1.2528   25.5515 N   0  0  0  0  0  0  0  0  0  0  0  0
    7.4575    1.4230   26.5392 H   0  0  0  0  0  0  0  0  0  0  0  0
    9.4074   -1.8367   20.6159 C   0  0  0  0  0  0  0  0  0  0  0  0
   10.4649   -1.8958   20.8915 H   0  0  0  0  0  0  0  0  0  0  0  0
    9.3344   -1.7248   19.5331 H   0  0  0  0  0  0  0  0  0  0  0  0
    8.9083   -2.7614   20.9256 H   0  0  0  0  0  0  0  0  0  0  0  0
    9.4373    0.6621   20.7955 C   0  0  0  0  0  0  0  0  0  0  0  0
    9.4558    0.7000   19.7034 H   0  0  0  0  0  0  0  0  0  0  0  0
    8.9259    1.5599   21.1581 H   0  0  0  0  0  0  0  0  0  0  0  0
   10.4687    0.6839   21.1615 H   0  0  0  0  0  0  0  0  0  0  0  0
    5.4566    0.5624   20.1064 C   0  0  0  0  0  0  0  0  0  0  0  0
    5.0493    0.5071   21.1216 H   0  0  0  0  0  0  0  0  0  0  0  0
    4.8126    1.2615   19.0860 C   0  0  0  0  0  0  0  0  0  0  0  0
    3.8812    1.7814   19.2719 H   0  0  0  0  0  0  0  0  0  0  0  0
  1  2  1  0
  2  3  2  0
  3  4  1  0
  4  5  1  0
  4  6  2  0
  6  7  1  0
  7  8  1  0
  7  9  1  0
  9 10  1  0
 10 11  2  0
 11 12  1  0
 11 13  1  0
 13 14  1  0
 13 15  2  0
 15 16  1  0
 15 17  1  0
 17 18  2  0
 18 19  1  0
 19 20  1  0
 19 21  2  0
 21 22  1  0
 21 23  1  0
 23 24  1  0
  9 25  1  0
 25 26  1  0
 25 27  1  0
 25 28  1  0
  9 29  1  0
 29 30  1  0
 29 31  1  0
 29 32  1  0
  6 33  1  0
 33 34  1  0
 33 35  2  0
 35 36  1  0
 35  2  1  0
 18 10  1  0
 23 17  1  0
M  END
>  <cnnaffinity>  (1) 
-4.76762

>  <filename>  (1) 
CC(C)(Nc1cccnc1)c1cccc2[nH]ccc12

$$$$
