
     RDKit          3D

 44 47  0  0  0  0  0  0  0  0999 V2000
    4.9034    1.8815   16.9487 H   0  0  0  0  0  0  0  0  0  0  0  0
    5.3626    1.3219   17.7595 C   0  0  0  0  0  0  0  0  0  0  0  0
    6.5132    0.6924   17.4675 N   0  0  0  0  0  0  0  0  0  0  0  0
    7.1257    0.0350   18.4595 C   0  0  0  0  0  0  0  0  0  0  0  0
    8.0839   -0.4146   18.1916 H   0  0  0  0  0  0  0  0  0  0  0  0
    6.6304   -0.0538   19.7813 C   0  0  0  0  0  0  0  0  0  0  0  0
    7.3880   -0.6852   20.8915 C   0  0  0  0  0  0  0  0  0  0  0  0
    7.5905   -0.2265   22.1791 C   0  0  0  0  0  0  0  0  0  0  0  0
    8.5239   -1.0771   22.7580 C   0  0  0  0  0  0  0  0  0  0  0  0
    8.8877   -2.0574   21.9519 N   0  0  0  0  0  0  0  0  0  0  0  0
    8.1958   -1.7895   20.8152 N   0  0  0  0  0  0  0  0  0  0  0  0
    8.3710   -2.3724   20.0096 H   0  0  0  0  0  0  0  0  0  0  0  0
    8.9455   -0.6336   24.1273 C   0  0  0  0  0  0  0  0  0  0  0  0
   10.0178   -0.4239   24.1995 H   0  0  0  0  0  0  0  0  0  0  0  0
    8.7423   -1.4121   24.8681 H   0  0  0  0  0  0  0  0  0  0  0  0
    8.1145    0.6801   24.3542 C   0  0  2  0  0  0  0  0  0  0  0  0
    8.8241    1.5133   24.4418 H   0  0  0  0  0  0  0  0  0  0  0  0
    7.2758    0.6229   25.6158 C   0  0  0  0  0  0  0  0  0  0  0  0
    7.4582    1.5466   26.6539 C   0  0  0  0  0  0  0  0  0  0  0  0
    8.2192    2.3162   26.5490 H   0  0  0  0  0  0  0  0  0  0  0  0
    6.6741    1.4945   27.8067 C   0  0  0  0  0  0  0  0  0  0  0  0
    6.8430    2.2170   28.6029 H   0  0  0  0  0  0  0  0  0  0  0  0
    5.6754    0.5208   27.9620 C   0  0  0  0  0  0  0  0  0  0  0  0
    4.8297    0.4763   29.2293 C   0  0  0  0  0  0  0  0  0  0  0  0
    5.1648    1.2911   29.8859 H   0  0  0  0  0  0  0  0  0  0  0  0
    5.0484   -0.8326   30.0011 C   0  0  0  0  0  0  0  0  0  0  0  0
    4.4832   -0.8399   30.9388 H   0  0  0  0  0  0  0  0  0  0  0  0
    6.1045   -0.9544   30.2462 H   0  0  0  0  0  0  0  0  0  0  0  0
    4.7337   -1.7047   29.4160 H   0  0  0  0  0  0  0  0  0  0  0  0
    3.3395    0.7080   28.9385 C   0  0  0  0  0  0  0  0  0  0  0  0
    2.7615    0.7335   29.8687 H   0  0  0  0  0  0  0  0  0  0  0  0
    3.1744    1.6558   28.4166 H   0  0  0  0  0  0  0  0  0  0  0  0
    2.9301   -0.0942   28.3132 H   0  0  0  0  0  0  0  0  0  0  0  0
    5.4915   -0.4088   26.9209 C   0  0  0  0  0  0  0  0  0  0  0  0
    4.7317   -1.1828   27.0152 H   0  0  0  0  0  0  0  0  0  0  0  0
    6.2751   -0.3546   25.7666 C   0  0  0  0  0  0  0  0  0  0  0  0
    6.0994   -1.0739   24.9687 H   0  0  0  0  0  0  0  0  0  0  0  0
    7.2469    0.9261   23.0668 C   0  0  0  0  0  0  0  0  0  0  0  0
    7.4923    1.8997   22.6153 H   0  0  0  0  0  0  0  0  0  0  0  0
    6.1734    0.9345   23.2991 H   0  0  0  0  0  0  0  0  0  0  0  0
    5.4198    0.6158   20.0494 C   0  0  0  0  0  0  0  0  0  0  0  0
    5.0011    0.6121   21.0559 H   0  0  0  0  0  0  0  0  0  0  0  0
    4.7719    1.3074   19.0262 C   0  0  0  0  0  0  0  0  0  0  0  0
    3.8584    1.8659   19.2024 H   0  0  0  0  0  0  0  0  0  0  0  0
  1  2  1  0
  2  3  2  0
  3  4  1  0
  4  5  1  0
  4  6  2  0
  6  7  1  0
  7  8  2  0
  8  9  1  0
  9 10  2  0
 10 11  1  0
 11 12  1  0
  9 13  1  0
 13 14  1  0
 13 15  1  0
 13 16  1  0
 16 17  1  1
 16 18  1  0
 18 19  2  0
 19 20  1  0
 19 21  1  0
 21 22  1  0
 21 23  2  0
 23 24  1  0
 24 25  1  0
 24 26  1  0
 26 27  1  0
 26 28  1  0
 26 29  1  0
 24 30  1  0
 30 31  1  0
 30 32  1  0
 30 33  1  0
 23 34  1  0
 34 35  1  0
 34 36  2  0
 36 37  1  0
 16 38  1  0
 38 39  1  0
 38 40  1  0
  6 41  1  0
 41 42  1  0
 41 43  2  0
 43 44  1  0
 43  2  1  0
 11  7  1  0
 36 18  1  0
 38  8  1  0
M  END
>  <cnnaffinity>  (1) 
-5.52546

>  <filename>  (1) 
CC(C)c1ccc([C@H]2Cc3n[nH]c(-c4cccnc4)c3C2)cc1

$$$$
