
     RDKit          3D

 32 33  0  0  0  0  0  0  0  0999 V2000
    4.9135    1.8508   17.0077 H   0  0  0  0  0  0  0  0  0  0  0  0
    5.3884    1.3005   17.8168 C   0  0  0  0  0  0  0  0  0  0  0  0
    6.5322    0.6679   17.5187 N   0  0  0  0  0  0  0  0  0  0  0  0
    7.1604    0.0145   18.5123 C   0  0  0  0  0  0  0  0  0  0  0  0
    8.1025   -0.4550   18.2353 H   0  0  0  0  0  0  0  0  0  0  0  0
    6.6785   -0.0546   19.8509 C   0  0  0  0  0  0  0  0  0  0  0  0
    7.2970   -0.6930   20.9241 N   0  0  0  0  0  0  0  0  0  0  0  0
    6.6806   -0.7999   21.7188 H   0  0  0  0  0  0  0  0  0  0  0  0
    8.7194   -0.6348   21.2808 C   0  0  0  0  0  0  0  0  0  0  0  0
    8.8290   -0.6912   22.8236 C   0  0  0  0  0  0  0  0  0  0  0  0
    9.6267   -1.6722   23.4484 C   0  0  0  0  0  0  0  0  0  0  0  0
   10.1666   -2.4005   22.8530 H   0  0  0  0  0  0  0  0  0  0  0  0
    9.7489   -1.7678   24.8269 C   0  0  0  0  0  0  0  0  0  0  0  0
   10.2757   -2.6186   25.2375 H   0  0  0  0  0  0  0  0  0  0  0  0
    9.1734   -0.8067   25.6536 C   0  0  0  0  0  0  0  0  0  0  0  0
    9.3341   -0.8341   26.7246 H   0  0  0  0  0  0  0  0  0  0  0  0
    8.3943    0.2037   25.0861 C   0  0  0  0  0  0  0  0  0  0  0  0
    7.9179    0.9523   25.7129 H   0  0  0  0  0  0  0  0  0  0  0  0
    8.2051    0.2332   23.6980 C   0  0  0  0  0  0  0  0  0  0  0  0
    7.1245    1.4806   23.1128 Cl  0  0  0  0  0  0  0  0  0  0  0  0
    9.3687   -1.8602   20.6157 C   0  0  0  0  0  0  0  0  0  0  0  0
   10.4320   -1.9290   20.8689 H   0  0  0  0  0  0  0  0  0  0  0  0
    8.8558   -2.7793   20.9219 H   0  0  0  0  0  0  0  0  0  0  0  0
    9.2987   -1.7560   19.5339 H   0  0  0  0  0  0  0  0  0  0  0  0
    9.4426    0.6205   20.7473 C   0  0  0  0  0  0  0  0  0  0  0  0
    8.9344    1.5415   21.0363 H   0  0  0  0  0  0  0  0  0  0  0  0
   10.4708    0.6456   21.1197 H   0  0  0  0  0  0  0  0  0  0  0  0
    9.4875    0.5882   19.6582 H   0  0  0  0  0  0  0  0  0  0  0  0
    5.4545    0.5762   20.1151 C   0  0  0  0  0  0  0  0  0  0  0  0
    5.0701    0.5574   21.1346 H   0  0  0  0  0  0  0  0  0  0  0  0
    4.8124    1.2724   19.0896 C   0  0  0  0  0  0  0  0  0  0  0  0
    3.8860    1.8006   19.2737 H   0  0  0  0  0  0  0  0  0  0  0  0
  1  2  1  0
  2  3  2  0
  3  4  1  0
  4  5  1  0
  4  6  2  0
  6  7  1  0
  7  8  1  0
  7  9  1  0
  9 10  1  0
 10 11  2  0
 11 12  1  0
 11 13  1  0
 13 14  1  0
 13 15  2  0
 15 16  1  0
 15 17  1  0
 17 18  1  0
 17 19  2  0
 19 20  1  0
  9 21  1  0
 21 22  1  0
 21 23  1  0
 21 24  1  0
  9 25  1  0
 25 26  1  0
 25 27  1  0
 25 28  1  0
  6 29  1  0
 29 30  1  0
 29 31  2  0
 31 32  1  0
 31  2  1  0
 19 10  1  0
M  END
>  <cnnaffinity>  (1) 
-4.45892

>  <filename>  (1) 
CC(C)(Nc1cccnc1)c1ccccc1Cl

$$$$
