
     RDKit          3D

 31 32  0  0  0  0  0  0  0  0999 V2000
    4.8654    2.1404   16.8662 H   0  0  0  0  0  0  0  0  0  0  0  0
    5.3009    1.4668   17.6033 C   0  0  0  0  0  0  0  0  0  0  0  0
    6.4151    0.8139   17.2332 N   0  0  0  0  0  0  0  0  0  0  0  0
    6.9963    0.0198   18.1416 C   0  0  0  0  0  0  0  0  0  0  0  0
    7.9078   -0.4909   17.8372 H   0  0  0  0  0  0  0  0  0  0  0  0
    6.4968   -0.1730   19.4445 C   0  0  0  0  0  0  0  0  0  0  0  0
    7.2608   -0.8752   20.4314 N   0  0  0  0  0  0  0  0  0  0  0  0
    8.4549   -0.3562   20.9271 C   0  0  0  0  0  0  0  0  0  0  0  0
    8.8999    0.5168   20.4741 H   0  0  0  0  0  0  0  0  0  0  0  0
    8.8482   -1.1057   21.9784 C   0  0  0  0  0  0  0  0  0  0  0  0
    9.9577   -0.8940   22.9513 C   0  0  0  0  0  0  0  0  0  0  0  0
   10.8365   -0.5240   22.4081 H   0  0  0  0  0  0  0  0  0  0  0  0
   10.2432   -1.8641   23.3764 H   0  0  0  0  0  0  0  0  0  0  0  0
    9.6385    0.0933   24.1068 C   0  0  0  0  0  0  0  0  0  0  0  0
    8.6489   -0.1947   24.4987 H   0  0  0  0  0  0  0  0  0  0  0  0
   10.6439   -0.0644   25.2668 C   0  0  0  0  0  0  0  0  0  0  0  0
   10.1637    0.1280   26.2331 H   0  0  0  0  0  0  0  0  0  0  0  0
   11.0039   -1.0883   25.2953 H   0  0  0  0  0  0  0  0  0  0  0  0
   11.5427    0.5633   25.1788 H   0  0  0  0  0  0  0  0  0  0  0  0
    9.5915    1.5447   23.6180 C   0  0  0  0  0  0  0  0  0  0  0  0
    8.8086    1.7188   22.8690 H   0  0  0  0  0  0  0  0  0  0  0  0
   10.5549    1.8228   23.1691 H   0  0  0  0  0  0  0  0  0  0  0  0
    9.4282    2.2321   24.4539 H   0  0  0  0  0  0  0  0  0  0  0  0
    7.8815   -2.0976   22.0955 N   0  0  0  0  0  0  0  0  0  0  0  0
    7.8551   -2.9036   22.6962 H   0  0  0  0  0  0  0  0  0  0  0  0
    6.8797   -1.9669   21.1845 C   0  0  0  0  0  0  0  0  0  0  0  0
    5.5643   -2.9894   21.1042 S   0  0  0  0  0  0  0  0  0  0  0  0
    5.3026    0.4555   19.8017 C   0  0  0  0  0  0  0  0  0  0  0  0
    4.8794    0.2931   20.7950 H   0  0  0  0  0  0  0  0  0  0  0  0
    4.7149    1.3142   18.8652 C   0  0  0  0  0  0  0  0  0  0  0  0
    3.8296    1.8821   19.1141 H   0  0  0  0  0  0  0  0  0  0  0  0
  1  2  1  0
  2  3  2  0
  3  4  1  0
  4  5  1  0
  4  6  2  0
  6  7  1  0
  7  8  1  0
  8  9  1  0
  8 10  2  0
 10 11  1  0
 11 12  1  0
 11 13  1  0
 11 14  1  0
 14 15  1  0
 14 16  1  0
 16 17  1  0
 16 18  1  0
 16 19  1  0
 14 20  1  0
 20 21  1  0
 20 22  1  0
 20 23  1  0
 10 24  1  0
 24 25  1  0
 24 26  1  0
 26 27  2  0
  6 28  1  0
 28 29  1  0
 28 30  2  0
 30 31  1  0
 30  2  1  0
 26  7  1  0
M  END
>  <cnnaffinity>  (1) 
-5.18003

>  <filename>  (1) 
CC(C)Cc1cn(-c2cccnc2)c(=S)[nH]1

$$$$
