
     RDKit          3D

 36 37  0  0  0  0  0  0  0  0999 V2000
    5.0120    1.8443   16.8811 H   0  0  0  0  0  0  0  0  0  0  0  0
    5.4496    1.3104   17.7236 C   0  0  0  0  0  0  0  0  0  0  0  0
    6.5827    0.6348   17.4674 N   0  0  0  0  0  0  0  0  0  0  0  0
    7.1563   -0.0038   18.4953 C   0  0  0  0  0  0  0  0  0  0  0  0
    8.0738   -0.5489   18.2667 H   0  0  0  0  0  0  0  0  0  0  0  0
    6.6489   -0.0243   19.8104 C   0  0  0  0  0  0  0  0  0  0  0  0
    7.4017   -0.7104   20.8994 C   0  0  0  0  0  0  0  0  0  0  0  0
    8.8263   -0.5517   20.9990 C   0  0  0  0  0  0  0  0  0  0  0  0
    9.3090    0.0587   20.2327 H   0  0  0  0  0  0  0  0  0  0  0  0
    9.5621   -1.1120   22.0172 C   0  0  0  0  0  0  0  0  0  0  0  0
   11.0250   -0.8617   22.2626 C   0  0  0  0  0  0  0  0  0  0  0  0
   11.4439   -1.8026   22.6352 H   0  0  0  0  0  0  0  0  0  0  0  0
   11.5430   -0.6446   21.3156 H   0  0  0  0  0  0  0  0  0  0  0  0
   11.2558    0.3038   23.3015 C   0  0  0  0  0  0  0  0  0  0  0  0
   10.7270    1.1810   22.8109 H   0  0  0  0  0  0  0  0  0  0  0  0
   10.5489    0.0671   24.1401 H   0  0  0  0  0  0  0  0  0  0  0  0
   12.6489    0.8209   23.6794 C   0  0  0  0  0  0  0  0  0  0  0  0
   12.5291    1.5888   24.4976 H   0  0  0  0  0  0  0  0  0  0  0  0
   13.3546    1.3670   22.4566 C   0  0  0  0  0  0  0  0  0  0  0  0
   12.6003    1.6649   21.6791 H   0  0  0  0  0  0  0  0  0  0  0  0
   14.0842    0.7654   21.8355 H   0  0  0  0  0  0  0  0  0  0  0  0
   13.8744    2.3556   22.5802 H   0  0  0  0  0  0  0  0  0  0  0  0
   12.8352    0.5531   23.8409 C   0  0  0  0  0  0  0  0  0  0  0  0
   14.2233    0.6495   24.5579 H   0  0  0  0  0  0  0  0  0  0  0  0
   13.3369   -0.5206   23.6698 H   0  0  0  0  0  0  0  0  0  0  0  0
   12.6202   -0.2338   25.1735 H   0  0  0  0  0  0  0  0  0  0  0  0
    8.8663   -1.9518   23.0097 C   0  0  0  0  0  0  0  0  0  0  0  0
    9.3450   -2.5166   23.9837 O   0  0  0  0  0  0  0  0  0  0  0  0
    7.5004   -2.1103   22.8001 N   0  0  0  0  0  0  0  0  0  0  0  0
    7.1327   -2.6703   23.5552 H   0  0  0  0  0  0  0  0  0  0  0  0
    6.7676   -1.4938   21.8216 C   0  0  0  0  0  0  0  0  0  0  0  0
    5.6976   -1.6740   21.8010 H   0  0  0  0  0  0  0  0  0  0  0  0
    5.4391    0.6502   20.0394 C   0  0  0  0  0  0  0  0  0  0  0  0
    4.9967    0.6665   21.0354 H   0  0  0  0  0  0  0  0  0  0  0  0
    4.8383    1.3368   18.9823 C   0  0  0  0  0  0  0  0  0  0  0  0
    3.9216    1.8998   19.1206 H   0  0  0  0  0  0  0  0  0  0  0  0
  1  2  1  0
  2  3  2  0
  3  4  1  0
  4  5  1  0
  4  6  2  0
  6  7  1  0
  7  8  1  0
  8  9  1  0
  8 10  2  0
 10 11  1  0
 11 12  1  0
 11 13  1  0
 11 14  1  0
 14 15  1  0
 14 16  1  0
 14 17  1  0
 17 18  1  0
 17 19  1  0
 19 20  1  0
 19 21  1  0
 19 22  1  0
 17 23  1  0
 23 24  1  0
 23 25  1  0
 23 26  1  0
 10 27  1  0
 27 28  2  0
 27 29  1  0
 29 30  1  0
 29 31  1  0
 31 32  1  0
  6 33  1  0
 33 34  1  0
 33 35  2  0
 35 36  1  0
 35  2  1  0
 31  7  2  0
M  END
>  <cnnaffinity>  (1) 
-4.81603

>  <filename>  (1) 
CC(C)CCc1cc(-c2cccnc2)c[nH]c1=O

$$$$
