
     RDKit          3D

 40 42  0  0  0  0  0  0  0  0999 V2000
    4.9408    1.8077   16.9859 H   0  0  0  0  0  0  0  0  0  0  0  0
    5.3879    1.2962   17.8366 C   0  0  0  0  0  0  0  0  0  0  0  0
    6.5394    0.6594   17.5826 N   0  0  0  0  0  0  0  0  0  0  0  0
    7.1290    0.0284   18.6006 C   0  0  0  0  0  0  0  0  0  0  0  0
    8.1033   -0.4133   18.4003 H   0  0  0  0  0  0  0  0  0  0  0  0
    6.5949   -0.0385   19.8998 C   0  0  0  0  0  0  0  0  0  0  0  0
    7.3202   -0.7565   20.9908 C   0  0  0  0  0  0  0  0  0  0  0  0
    6.5776   -1.5189   21.7553 N   0  0  0  0  0  0  0  0  0  0  0  0
    7.1539   -2.1904   22.8079 N   0  0  0  0  0  0  0  0  0  0  0  0
    6.2829   -2.9913   23.6418 C   0  0  0  0  0  0  0  0  0  0  0  0
    5.1950   -3.6730   23.0714 C   0  0  0  0  0  0  0  0  0  0  0  0
    5.0318   -3.5387   22.0081 H   0  0  0  0  0  0  0  0  0  0  0  0
    4.3570   -4.4648   23.8610 C   0  0  0  0  0  0  0  0  0  0  0  0
    3.4993   -4.9967   23.4541 H   0  0  0  0  0  0  0  0  0  0  0  0
    4.5772   -4.5904   25.2470 C   0  0  0  0  0  0  0  0  0  0  0  0
    3.6679   -5.3658   25.9114 O   0  0  0  0  0  0  0  0  0  0  0  0
    3.8294   -5.6963   27.2997 C   0  0  0  0  0  0  0  0  0  0  0  0
    4.0766   -4.7781   27.8534 H   0  0  0  0  0  0  0  0  0  0  0  0
    4.9269   -6.7396   27.5041 C   0  0  0  0  0  0  0  0  0  0  0  0
    4.6872   -7.6551   26.9495 H   0  0  0  0  0  0  0  0  0  0  0  0
    5.9115   -6.3868   27.1790 H   0  0  0  0  0  0  0  0  0  0  0  0
    4.9933   -6.9943   28.5683 H   0  0  0  0  0  0  0  0  0  0  0  0
    2.4798   -6.2170   27.7868 C   0  0  0  0  0  0  0  0  0  0  0  0
    2.2008   -7.1268   27.2406 H   0  0  0  0  0  0  0  0  0  0  0  0
    2.5404   -6.4678   28.8533 H   0  0  0  0  0  0  0  0  0  0  0  0
    1.6858   -5.4746   27.6547 H   0  0  0  0  0  0  0  0  0  0  0  0
    5.6551   -3.9046   25.8266 C   0  0  0  0  0  0  0  0  0  0  0  0
    5.8387   -3.9881   26.8950 H   0  0  0  0  0  0  0  0  0  0  0  0
    6.4952   -3.1157   25.0244 C   0  0  0  0  0  0  0  0  0  0  0  0
    7.3128   -2.5631   25.4764 H   0  0  0  0  0  0  0  0  0  0  0  0
    8.5120   -2.1284   23.0308 C   0  0  0  0  0  0  0  0  0  0  0  0
    8.8648   -2.7519   23.8496 H   0  0  0  0  0  0  0  0  0  0  0  0
    9.3447   -1.3767   22.2867 C   0  0  0  0  0  0  0  0  0  0  0  0
   10.4081   -1.3121   22.4624 H   0  0  0  0  0  0  0  0  0  0  0  0
    8.8137   -0.5752   21.1890 C   0  0  0  0  0  0  0  0  0  0  0  0
    9.5250    0.1582   20.5108 O   0  0  0  0  0  0  0  0  0  0  0  0
    5.3870    0.6245   20.1494 C   0  0  0  0  0  0  0  0  0  0  0  0
    4.9720    0.6156   21.1601 H   0  0  0  0  0  0  0  0  0  0  0  0
    4.7791    1.3165   19.0968 C   0  0  0  0  0  0  0  0  0  0  0  0
    3.8586    1.8744   19.2286 H   0  0  0  0  0  0  0  0  0  0  0  0
  1  2  1  0
  2  3  2  0
  3  4  1  0
  4  5  1  0
  4  6  2  0
  6  7  1  0
  7  8  2  0
  8  9  1  0
  9 10  1  0
 10 11  2  0
 11 12  1  0
 11 13  1  0
 13 14  1  0
 13 15  2  0
 15 16  1  0
 16 17  1  0
 17 18  1  0
 17 19  1  0
 19 20  1  0
 19 21  1  0
 19 22  1  0
 17 23  1  0
 23 24  1  0
 23 25  1  0
 23 26  1  0
 15 27  1  0
 27 28  1  0
 27 29  2  0
 29 30  1  0
  9 31  1  0
 31 32  1  0
 31 33  2  0
 33 34  1  0
 33 35  1  0
 35 36  2  0
  6 37  1  0
 37 38  1  0
 37 39  2  0
 39 40  1  0
 39  2  1  0
 35  7  1  0
 29 10  1  0
M  END
>  <cnnaffinity>  (1) 
-5.47416

>  <filename>  (1) 
CC(C)Oc1ccc(-n2ccc(=O)c(-c3cccnc3)n2)cc1

$$$$
