
     RDKit          3D

 36 38  0  0  0  0  0  0  0  0999 V2000
    4.9643    1.8230   16.9760 H   0  0  0  0  0  0  0  0  0  0  0  0
    5.4132    1.2882   17.8107 C   0  0  0  0  0  0  0  0  0  0  0  0
    6.5624    0.6372   17.5667 N   0  0  0  0  0  0  0  0  0  0  0  0
    7.1531    0.0070   18.5883 C   0  0  0  0  0  0  0  0  0  0  0  0
    8.0825   -0.5136   18.3546 H   0  0  0  0  0  0  0  0  0  0  0  0
    6.6540    0.0152   19.9016 C   0  0  0  0  0  0  0  0  0  0  0  0
    7.4224   -0.6345   20.9682 C   0  0  0  0  0  0  0  0  0  0  0  0
    7.9925   -1.8758   20.7788 N   0  0  0  0  0  0  0  0  0  0  0  0
    8.4845   -2.1765   21.9483 C   0  0  0  0  0  0  0  0  0  0  0  0
    9.2709   -3.5511   22.6887 S   0  0  0  0  0  0  0  0  0  0  0  0
    9.5168   -2.6319   24.1631 C   0  0  0  0  0  0  0  0  0  0  0  0
   10.1431   -3.0228   24.9540 H   0  0  0  0  0  0  0  0  0  0  0  0
    8.9333   -1.4252   24.1073 C   0  0  0  0  0  0  0  0  0  0  0  0
    8.8606   -0.6645   24.8701 H   0  0  0  0  0  0  0  0  0  0  0  0
    8.3404   -1.1767   22.8741 N   0  0  0  0  0  0  0  0  0  0  0  0
    7.6607   -0.1549   22.2472 C   0  0  0  0  0  0  0  0  0  0  0  0
    7.2883    1.1026   22.9543 C   0  0  0  0  0  0  0  0  0  0  0  0
    6.9968    1.8416   22.2016 H   0  0  0  0  0  0  0  0  0  0  0  0
    8.1804    1.5097   23.4462 H   0  0  0  0  0  0  0  0  0  0  0  0
    6.1621    0.8915   23.9787 C   0  0  0  0  0  0  0  0  0  0  0  0
    5.3196    0.4365   23.4519 H   0  0  0  0  0  0  0  0  0  0  0  0
    6.4779    0.1356   24.7061 H   0  0  0  0  0  0  0  0  0  0  0  0
    5.6532    2.1545   24.6876 C   0  0  0  0  0  0  0  0  0  0  0  0
    6.5099    2.7331   25.0600 H   0  0  0  0  0  0  0  0  0  0  0  0
    4.8640    3.0321   23.7115 C   0  0  0  0  0  0  0  0  0  0  0  0
    5.4707    3.3541   22.8588 H   0  0  0  0  0  0  0  0  0  0  0  0
    4.4743    3.9346   24.1917 H   0  0  0  0  0  0  0  0  0  0  0  0
    4.0119    2.4656   23.3154 H   0  0  0  0  0  0  0  0  0  0  0  0
    4.7974    1.7847   25.9027 C   0  0  0  0  0  0  0  0  0  0  0  0
    5.3522    1.1735   26.6235 H   0  0  0  0  0  0  0  0  0  0  0  0
    3.9159    1.2130   25.5893 H   0  0  0  0  0  0  0  0  0  0  0  0
    4.4485    2.6764   26.4347 H   0  0  0  0  0  0  0  0  0  0  0  0
    5.4232    0.6601   20.1207 C   0  0  0  0  0  0  0  0  0  0  0  0
    4.9514    0.6469   21.1024 H   0  0  0  0  0  0  0  0  0  0  0  0
    4.7938    1.3062   19.0621 C   0  0  0  0  0  0  0  0  0  0  0  0
    3.8610    1.8411   19.1998 H   0  0  0  0  0  0  0  0  0  0  0  0
  1  2  1  0
  2  3  2  0
  3  4  1  0
  4  5  1  0
  4  6  2  0
  6  7  1  0
  7  8  1  0
  8  9  2  0
  9 10  1  0
 10 11  1  0
 11 12  1  0
 11 13  2  0
 13 14  1  0
 13 15  1  0
 15 16  1  0
 16 17  1  0
 17 18  1  0
 17 19  1  0
 17 20  1  0
 20 21  1  0
 20 22  1  0
 20 23  1  0
 23 24  1  0
 23 25  1  0
 25 26  1  0
 25 27  1  0
 25 28  1  0
 23 29  1  0
 29 30  1  0
 29 31  1  0
 29 32  1  0
  6 33  1  0
 33 34  1  0
 33 35  2  0
 35 36  1  0
 35  2  1  0
 16  7  2  0
 15  9  1  0
M  END
>  <cnnaffinity>  (1) 
-5.46723

>  <filename>  (1) 
CC(C)CCc1c(-c2cccnc2)nc2sccn12

$$$$
