
     RDKit          3D

 44 47  0  0  0  0  0  0  0  0999 V2000
    5.0026    1.8525   16.8560 H   0  0  0  0  0  0  0  0  0  0  0  0
    5.4267    1.3028   17.6944 C   0  0  0  0  0  0  0  0  0  0  0  0
    6.5656    0.6354   17.4564 N   0  0  0  0  0  0  0  0  0  0  0  0
    7.1340   -0.0159   18.4770 C   0  0  0  0  0  0  0  0  0  0  0  0
    8.0557   -0.5447   18.2444 H   0  0  0  0  0  0  0  0  0  0  0  0
    6.6107   -0.0292   19.7844 C   0  0  0  0  0  0  0  0  0  0  0  0
    7.3722   -0.6153   20.9076 C   0  0  0  0  0  0  0  0  0  0  0  0
    8.5142   -1.2910   20.7044 N   0  0  0  0  0  0  0  0  0  0  0  0
    8.9335   -1.5556   21.9574 N   0  0  0  0  0  0  0  0  0  0  0  0
   10.0342   -2.1999   22.5031 C   0  0  0  0  0  0  0  0  0  0  0  0
   10.7744   -2.6610   21.8740 H   0  0  0  0  0  0  0  0  0  0  0  0
    9.8947   -2.0869   23.8480 C   0  0  0  0  0  0  0  0  0  0  0  0
   10.5080   -2.4678   24.6472 H   0  0  0  0  0  0  0  0  0  0  0  0
    8.7165   -1.3960   24.1442 N   0  0  0  0  0  0  0  0  0  0  0  0
    8.2315   -1.0065   25.4233 C   0  0  0  0  0  0  0  0  0  0  0  0
    6.8472   -0.9212   25.6491 C   0  0  0  0  0  0  0  0  0  0  0  0
    6.1720   -1.2598   24.8713 H   0  0  0  0  0  0  0  0  0  0  0  0
    6.3440   -0.3992   26.8410 C   0  0  0  0  0  0  0  0  0  0  0  0
    5.2660   -0.3250   26.9614 H   0  0  0  0  0  0  0  0  0  0  0  0
    7.1968    0.0651   27.8567 C   0  0  0  0  0  0  0  0  0  0  0  0
    6.6180    0.8388   29.0672 C   0  0  0  0  0  0  0  0  0  0  0  0
    5.6072   -0.0086   29.8774 C   0  0  0  0  0  0  0  0  0  0  0  0
    5.1824    0.5874   30.6936 H   0  0  0  0  0  0  0  0  0  0  0  0
    4.7561   -0.3386   29.2746 H   0  0  0  0  0  0  0  0  0  0  0  0
    6.0537   -0.8977   30.3276 H   0  0  0  0  0  0  0  0  0  0  0  0
    5.8715    2.1145   28.5858 C   0  0  0  0  0  0  0  0  0  0  0  0
    6.5381    2.7718   28.0151 H   0  0  0  0  0  0  0  0  0  0  0  0
    5.0100    1.8883   27.9450 H   0  0  0  0  0  0  0  0  0  0  0  0
    5.5004    2.6847   29.4469 H   0  0  0  0  0  0  0  0  0  0  0  0
    7.7493    1.2983   30.0076 C   0  0  0  0  0  0  0  0  0  0  0  0
    7.3489    1.8068   30.8911 H   0  0  0  0  0  0  0  0  0  0  0  0
    8.3554    0.4477   30.3443 H   0  0  0  0  0  0  0  0  0  0  0  0
    8.4100    1.9950   29.4769 H   0  0  0  0  0  0  0  0  0  0  0  0
    8.5723   -0.1661   27.6709 C   0  0  0  0  0  0  0  0  0  0  0  0
    9.2616    0.0404   28.4820 H   0  0  0  0  0  0  0  0  0  0  0  0
    9.0911   -0.6659   26.4778 C   0  0  0  0  0  0  0  0  0  0  0  0
   10.1673   -0.7542   26.3869 H   0  0  0  0  0  0  0  0  0  0  0  0
    8.1246   -1.0803   22.9255 C   0  0  0  0  0  0  0  0  0  0  0  0
    7.0529   -0.4739   22.2831 C   0  0  0  0  0  0  0  0  0  0  0  0
    6.1672   -0.0270   22.7022 H   0  0  0  0  0  0  0  0  0  0  0  0
    5.3825    0.6228   19.9935 C   0  0  0  0  0  0  0  0  0  0  0  0
    4.9005    0.5975   20.9709 H   0  0  0  0  0  0  0  0  0  0  0  0
    4.7901    1.3103   18.9386 C   0  0  0  0  0  0  0  0  0  0  0  0
    3.8678    1.8645   19.0740 H   0  0  0  0  0  0  0  0  0  0  0  0
  1  2  1  0
  2  3  2  0
  3  4  1  0
  4  5  1  0
  4  6  2  0
  6  7  1  0
  7  8  2  0
  8  9  1  0
  9 10  1  0
 10 11  1  0
 10 12  2  0
 12 13  1  0
 12 14  1  0
 14 15  1  0
 15 16  2  0
 16 17  1  0
 16 18  1  0
 18 19  1  0
 18 20  2  0
 20 21  1  0
 21 22  1  0
 22 23  1  0
 22 24  1  0
 22 25  1  0
 21 26  1  0
 26 27  1  0
 26 28  1  0
 26 29  1  0
 21 30  1  0
 30 31  1  0
 30 32  1  0
 30 33  1  0
 20 34  1  0
 34 35  1  0
 34 36  2  0
 36 37  1  0
 14 38  1  0
 38 39  2  0
 39 40  1  0
  6 41  1  0
 41 42  1  0
 41 43  2  0
 43 44  1  0
 43  2  1  0
 39  7  1  0
 38  9  1  0
 36 15  1  0
M  END
>  <cnnaffinity>  (1) 
-5.54979

>  <filename>  (1) 
CC(C)(C)c1ccc(-n2ccn3nc(-c4cccnc4)cc23)cc1

$$$$
