
     RDKit          3D

 39 41  0  0  0  0  0  0  0  0999 V2000
    4.9229    1.7951   16.9942 H   0  0  0  0  0  0  0  0  0  0  0  0
    5.3937    1.2909   17.8336 C   0  0  0  0  0  0  0  0  0  0  0  0
    6.5508    0.6647   17.5646 N   0  0  0  0  0  0  0  0  0  0  0  0
    7.1716    0.0531   18.5793 C   0  0  0  0  0  0  0  0  0  0  0  0
    8.1279   -0.4178   18.3658 H   0  0  0  0  0  0  0  0  0  0  0  0
    6.6675    0.0061   19.8965 C   0  0  0  0  0  0  0  0  0  0  0  0
    7.3628   -0.6717   20.9385 N   0  0  0  0  0  0  0  0  0  0  0  0
    6.7679   -1.4462   21.9322 C   0  0  0  0  0  0  0  0  0  0  0  0
    5.6996   -1.6027   21.9400 H   0  0  0  0  0  0  0  0  0  0  0  0
    7.7276   -1.9455   22.7499 C   0  0  0  0  0  0  0  0  0  0  0  0
    7.6085   -2.7977   23.9439 C   0  0  0  0  0  0  0  0  0  0  0  0
    6.3723   -2.8839   24.6082 C   0  0  0  0  0  0  0  0  0  0  0  0
    5.5411   -2.2917   24.2414 H   0  0  0  0  0  0  0  0  0  0  0  0
    6.1831   -3.6968   25.7290 C   0  0  0  0  0  0  0  0  0  0  0  0
    5.2112   -3.7353   26.2123 H   0  0  0  0  0  0  0  0  0  0  0  0
    7.2586   -4.4522   26.2253 C   0  0  0  0  0  0  0  0  0  0  0  0
    7.2251   -5.2559   27.3229 O   0  0  0  0  0  0  0  0  0  0  0  0
    5.9961   -5.5442   28.0056 C   0  0  0  0  0  0  0  0  0  0  0  0
    5.4518   -4.6029   28.1702 H   0  0  0  0  0  0  0  0  0  0  0  0
    5.1257   -6.5153   27.2114 C   0  0  0  0  0  0  0  0  0  0  0  0
    4.8181   -6.1114   26.2417 H   0  0  0  0  0  0  0  0  0  0  0  0
    4.2213   -6.7477   27.7849 H   0  0  0  0  0  0  0  0  0  0  0  0
    5.6687   -7.4519   27.0392 H   0  0  0  0  0  0  0  0  0  0  0  0
    6.3872   -6.1289   29.3556 C   0  0  0  0  0  0  0  0  0  0  0  0
    5.4878   -6.3547   29.9383 H   0  0  0  0  0  0  0  0  0  0  0  0
    6.9992   -5.4335   29.9344 H   0  0  0  0  0  0  0  0  0  0  0  0
    6.9468   -7.0619   29.2217 H   0  0  0  0  0  0  0  0  0  0  0  0
    8.5079   -4.3750   25.5762 C   0  0  0  0  0  0  0  0  0  0  0  0
    9.3280   -4.9604   25.9839 H   0  0  0  0  0  0  0  0  0  0  0  0
    8.6754   -3.5650   24.4564 C   0  0  0  0  0  0  0  0  0  0  0  0
    9.6440   -3.5324   23.9627 H   0  0  0  0  0  0  0  0  0  0  0  0
    8.9317   -1.4801   22.2256 N   0  0  0  0  0  0  0  0  0  0  0  0
    9.8704   -1.5557   22.5633 H   0  0  0  0  0  0  0  0  0  0  0  0
    8.7530   -0.6788   21.1347 C   0  0  0  0  0  0  0  0  0  0  0  0
    9.6348   -0.1267   20.5104 O   0  0  0  0  0  0  0  0  0  0  0  0
    5.4488    0.6452   20.1576 C   0  0  0  0  0  0  0  0  0  0  0  0
    5.0296    0.6392   21.1668 H   0  0  0  0  0  0  0  0  0  0  0  0
    4.8101    1.3069   19.1046 C   0  0  0  0  0  0  0  0  0  0  0  0
    3.8796    1.8369   19.2620 H   0  0  0  0  0  0  0  0  0  0  0  0
  1  2  1  0
  2  3  2  0
  3  4  1  0
  4  5  1  0
  4  6  2  0
  6  7  1  0
  7  8  1  0
  8  9  1  0
  8 10  2  0
 10 11  1  0
 11 12  2  0
 12 13  1  0
 12 14  1  0
 14 15  1  0
 14 16  2  0
 16 17  1  0
 17 18  1  0
 18 19  1  0
 18 20  1  0
 20 21  1  0
 20 22  1  0
 20 23  1  0
 18 24  1  0
 24 25  1  0
 24 26  1  0
 24 27  1  0
 16 28  1  0
 28 29  1  0
 28 30  2  0
 30 31  1  0
 10 32  1  0
 32 33  1  0
 32 34  1  0
 34 35  2  0
  6 36  1  0
 36 37  1  0
 36 38  2  0
 38 39  1  0
 38  2  1  0
 34  7  1  0
 30 11  1  0
M  END
>  <cnnaffinity>  (1) 
-5.37069

>  <filename>  (1) 
CC(C)Oc1ccc(-c2cn(-c3cccnc3)c(=O)[nH]2)cc1

$$$$
