
     RDKit          3D

 34 35  0  0  0  0  0  0  0  0999 V2000
    4.9242    1.7969   16.9828 H   0  0  0  0  0  0  0  0  0  0  0  0
    5.3889    1.3009   17.8328 C   0  0  0  0  0  0  0  0  0  0  0  0
    6.5516    0.6814   17.5755 N   0  0  0  0  0  0  0  0  0  0  0  0
    7.1577    0.0707   18.6000 C   0  0  0  0  0  0  0  0  0  0  0  0
    8.1071   -0.4092   18.3618 H   0  0  0  0  0  0  0  0  0  0  0  0
    6.6488    0.0154   19.9099 C   0  0  0  0  0  0  0  0  0  0  0  0
    7.4192   -0.7051   20.9908 C   0  0  0  0  0  0  0  0  0  0  0  0
    7.5849   -1.7561   20.7248 H   0  0  0  0  0  0  0  0  0  0  0  0
    6.8576   -0.6951   21.9305 H   0  0  0  0  0  0  0  0  0  0  0  0
    8.7303   -0.1061   21.2354 N   0  0  0  0  0  0  0  0  0  0  0  0
    9.9575   -0.6158   20.9281 C   0  0  0  0  0  0  0  0  0  0  0  0
   10.0814   -1.5826   20.4666 H   0  0  0  0  0  0  0  0  0  0  0  0
   10.9066    0.2235   21.2463 N   0  0  0  0  0  0  0  0  0  0  0  0
   10.2994    1.3344   21.7718 N   0  0  0  0  0  0  0  0  0  0  0  0
    9.0089    1.1248   21.7778 C   0  0  0  0  0  0  0  0  0  0  0  0
    7.9724    2.0872   22.3037 C   0  0  0  0  0  0  0  0  0  0  0  0
    7.3170    2.3787   21.4692 H   0  0  0  0  0  0  0  0  0  0  0  0
    8.5221    2.9960   22.6022 H   0  0  0  0  0  0  0  0  0  0  0  0
    7.1184    1.5161   23.3624 N   0  0  0  0  0  0  0  0  0  0  0  0
    7.6559    1.3684   24.2164 H   0  0  0  0  0  0  0  0  0  0  0  0
    5.9592    2.3187   23.7385 C   0  0  0  0  0  0  0  0  0  0  0  0
    5.4767    2.6255   22.7956 H   0  0  0  0  0  0  0  0  0  0  0  0
    4.9902    1.4242   24.4992 C   0  0  0  0  0  0  0  0  0  0  0  0
    4.0522    1.9439   24.7316 H   0  0  0  0  0  0  0  0  0  0  0  0
    5.4355    1.0509   25.4315 H   0  0  0  0  0  0  0  0  0  0  0  0
    4.7700    0.5635   23.8757 H   0  0  0  0  0  0  0  0  0  0  0  0
    6.3308    3.5540   24.5588 C   0  0  0  0  0  0  0  0  0  0  0  0
    6.8500    3.2474   25.4786 H   0  0  0  0  0  0  0  0  0  0  0  0
    5.4309    4.1102   24.8451 H   0  0  0  0  0  0  0  0  0  0  0  0
    6.9923    4.2219   23.9959 H   0  0  0  0  0  0  0  0  0  0  0  0
    5.4287    0.6579   20.1524 C   0  0  0  0  0  0  0  0  0  0  0  0
    5.0045    0.6522   21.1620 H   0  0  0  0  0  0  0  0  0  0  0  0
    4.7931    1.3178   19.0969 C   0  0  0  0  0  0  0  0  0  0  0  0
    3.8646    1.8526   19.2374 H   0  0  0  0  0  0  0  0  0  0  0  0
  1  2  1  0
  2  3  2  0
  3  4  1  0
  4  5  1  0
  4  6  2  0
  6  7  1  0
  7  8  1  0
  7  9  1  0
  7 10  1  0
 10 11  1  0
 11 12  1  0
 11 13  2  0
 13 14  1  0
 14 15  2  0
 15 16  1  0
 16 17  1  0
 16 18  1  0
 16 19  1  0
 19 20  1  0
 19 21  1  0
 21 22  1  0
 21 23  1  0
 23 24  1  0
 23 25  1  0
 23 26  1  0
 21 27  1  0
 27 28  1  0
 27 29  1  0
 27 30  1  0
  6 31  1  0
 31 32  1  0
 31 33  2  0
 33 34  1  0
 33  2  1  0
 15 10  1  0
M  END
>  <cnnaffinity>  (1) 
-4.17594

>  <filename>  (1) 
CC(C)NCc1nncn1Cc1cccnc1

$$$$
