
     RDKit          3D

 33 34  0  0  0  0  0  0  0  0999 V2000
    4.9136    1.7900   16.9863 H   0  0  0  0  0  0  0  0  0  0  0  0
    5.3948    1.3001   17.8289 C   0  0  0  0  0  0  0  0  0  0  0  0
    6.5586    0.6849   17.5661 N   0  0  0  0  0  0  0  0  0  0  0  0
    7.1789    0.0759   18.5820 C   0  0  0  0  0  0  0  0  0  0  0  0
    8.1203   -0.4251   18.3564 H   0  0  0  0  0  0  0  0  0  0  0  0
    6.6563    0.0238   19.8879 C   0  0  0  0  0  0  0  0  0  0  0  0
    7.3507   -0.6701   20.9391 N   0  0  0  0  0  0  0  0  0  0  0  0
    8.6459   -0.2805   21.2624 C   0  0  0  0  0  0  0  0  0  0  0  0
    9.0280    0.5634   20.6887 H   0  0  0  0  0  0  0  0  0  0  0  0
    9.3617   -0.8827   22.2356 C   0  0  0  0  0  0  0  0  0  0  0  0
   10.7275   -0.4182   22.6461 C   0  0  0  0  0  0  0  0  0  0  0  0
   11.3445   -1.3001   22.8600 H   0  0  0  0  0  0  0  0  0  0  0  0
   11.2172    0.1212   21.8163 H   0  0  0  0  0  0  0  0  0  0  0  0
   10.7199    0.4991   23.8893 C   0  0  0  0  0  0  0  0  0  0  0  0
   10.1994   -0.0446   24.6917 H   0  0  0  0  0  0  0  0  0  0  0  0
   12.1519    0.7789   24.3514 C   0  0  0  0  0  0  0  0  0  0  0  0
   12.1537    1.4110   25.2434 H   0  0  0  0  0  0  0  0  0  0  0  0
   12.7247    1.2998   23.5726 H   0  0  0  0  0  0  0  0  0  0  0  0
   12.6830   -0.1468   24.5958 H   0  0  0  0  0  0  0  0  0  0  0  0
    9.9700    1.8110   23.6289 C   0  0  0  0  0  0  0  0  0  0  0  0
    8.9138    1.6383   23.3912 H   0  0  0  0  0  0  0  0  0  0  0  0
   10.0112    2.4689   24.5041 H   0  0  0  0  0  0  0  0  0  0  0  0
   10.4183    2.3529   22.7842 H   0  0  0  0  0  0  0  0  0  0  0  0
    8.7352   -1.9802   22.9970 C   0  0  0  0  0  0  0  0  0  0  0  0
    9.2129   -2.6142   23.9154 O   0  0  0  0  0  0  0  0  0  0  0  0
    7.4713   -2.3014   22.5915 N   0  0  0  0  0  0  0  0  0  0  0  0
    7.0234   -3.0522   23.0779 H   0  0  0  0  0  0  0  0  0  0  0  0
    6.7251   -1.7408   21.6125 C   0  0  0  0  0  0  0  0  0  0  0  0
    5.6292   -2.1888   21.3674 O   0  0  0  0  0  0  0  0  0  0  0  0
    5.4400    0.6558   20.1527 C   0  0  0  0  0  0  0  0  0  0  0  0
    5.0164    0.6129   21.1575 H   0  0  0  0  0  0  0  0  0  0  0  0
    4.8068    1.3183   19.0984 C   0  0  0  0  0  0  0  0  0  0  0  0
    3.8743    1.8437   19.2527 H   0  0  0  0  0  0  0  0  0  0  0  0
  1  2  1  0
  2  3  2  0
  3  4  1  0
  4  5  1  0
  4  6  2  0
  6  7  1  0
  7  8  1  0
  8  9  1  0
  8 10  2  0
 10 11  1  0
 11 12  1  0
 11 13  1  0
 11 14  1  0
 14 15  1  0
 14 16  1  0
 16 17  1  0
 16 18  1  0
 16 19  1  0
 14 20  1  0
 20 21  1  0
 20 22  1  0
 20 23  1  0
 10 24  1  0
 24 25  2  0
 24 26  1  0
 26 27  1  0
 26 28  1  0
 28 29  2  0
  6 30  1  0
 30 31  1  0
 30 32  2  0
 32 33  1  0
 32  2  1  0
 28  7  1  0
M  END
>  <cnnaffinity>  (1) 
-5.35348

>  <filename>  (1) 
CC(C)Cc1cn(-c2cccnc2)c(=O)[nH]c1=O

$$$$
