
     RDKit          3D

 39 41  0  0  0  0  0  0  0  0999 V2000
    4.8539    1.8161   16.8937 H   0  0  0  0  0  0  0  0  0  0  0  0
    5.3471    1.4105   17.7731 C   0  0  0  0  0  0  0  0  0  0  0  0
    6.5469    0.8474   17.5645 N   0  0  0  0  0  0  0  0  0  0  0  0
    7.1857    0.3523   18.6294 C   0  0  0  0  0  0  0  0  0  0  0  0
    8.1711   -0.0605   18.4158 H   0  0  0  0  0  0  0  0  0  0  0  0
    6.6682    0.3678   19.9402 C   0  0  0  0  0  0  0  0  0  0  0  0
    7.3647   -0.3605   21.0263 C   0  0  0  0  0  0  0  0  0  0  0  0
    7.0738    0.0651   22.3001 O   0  0  0  0  0  0  0  0  0  0  0  0
    7.6293   -0.5870   23.3836 C   0  0  0  0  0  0  0  0  0  0  0  0
    7.3685    0.0741   24.7021 C   0  0  0  0  0  0  0  0  0  0  0  0
    8.2721   -0.0586   25.7773 C   0  0  0  0  0  0  0  0  0  0  0  0
    9.2453   -0.5166   25.6158 H   0  0  0  0  0  0  0  0  0  0  0  0
    7.9575    0.4336   27.0477 C   0  0  0  0  0  0  0  0  0  0  0  0
    8.6718    0.2987   27.8585 H   0  0  0  0  0  0  0  0  0  0  0  0
    6.7331    1.0834   27.2902 C   0  0  0  0  0  0  0  0  0  0  0  0
    6.3675    1.6608   28.6598 C   0  0  0  0  0  0  0  0  0  0  0  0
    5.3490    2.0625   28.5890 H   0  0  0  0  0  0  0  0  0  0  0  0
    7.3120    2.8145   29.0362 C   0  0  0  0  0  0  0  0  0  0  0  0
    6.9457    3.4188   29.8725 H   0  0  0  0  0  0  0  0  0  0  0  0
    8.2735    2.3930   29.3408 H   0  0  0  0  0  0  0  0  0  0  0  0
    7.4931    3.4907   28.1967 H   0  0  0  0  0  0  0  0  0  0  0  0
    6.3540    0.6221   29.7971 C   0  0  0  0  0  0  0  0  0  0  0  0
    7.3690    0.3033   30.0604 H   0  0  0  0  0  0  0  0  0  0  0  0
    5.8991    1.0284   30.7088 H   0  0  0  0  0  0  0  0  0  0  0  0
    5.7862   -0.2718   29.5330 H   0  0  0  0  0  0  0  0  0  0  0  0
    5.8594    1.2535   26.2018 C   0  0  0  0  0  0  0  0  0  0  0  0
    4.9129    1.7599   26.3764 H   0  0  0  0  0  0  0  0  0  0  0  0
    6.1726    0.7783   24.9296 C   0  0  0  0  0  0  0  0  0  0  0  0
    5.4900    0.9473   24.1041 H   0  0  0  0  0  0  0  0  0  0  0  0
    8.2606   -1.7712   23.2258 C   0  0  0  0  0  0  0  0  0  0  0  0
    8.6189   -2.3692   24.0497 H   0  0  0  0  0  0  0  0  0  0  0  0
    8.4889   -2.3334   21.8951 C   0  0  0  0  0  0  0  0  0  0  0  0
    8.9489   -3.4499   21.7254 O   0  0  0  0  0  0  0  0  0  0  0  0
    8.1154   -1.4483   20.8029 C   0  0  0  0  0  0  0  0  0  0  0  0
    8.3789   -1.7341   19.7994 H   0  0  0  0  0  0  0  0  0  0  0  0
    5.4155    0.9672   20.1345 C   0  0  0  0  0  0  0  0  0  0  0  0
    4.9867    0.9857   21.1355 H   0  0  0  0  0  0  0  0  0  0  0  0
    4.7452    1.4926   19.0328 C   0  0  0  0  0  0  0  0  0  0  0  0
    3.7750    1.9637   19.1372 H   0  0  0  0  0  0  0  0  0  0  0  0
  1  2  1  0
  2  3  2  0
  3  4  1  0
  4  5  1  0
  4  6  2  0
  6  7  1  0
  7  8  1  0
  8  9  1  0
  9 10  1  0
 10 11  2  0
 11 12  1  0
 11 13  1  0
 13 14  1  0
 13 15  2  0
 15 16  1  0
 16 17  1  0
 16 18  1  0
 18 19  1  0
 18 20  1  0
 18 21  1  0
 16 22  1  0
 22 23  1  0
 22 24  1  0
 22 25  1  0
 15 26  1  0
 26 27  1  0
 26 28  2  0
 28 29  1  0
  9 30  2  0
 30 31  1  0
 30 32  1  0
 32 33  2  0
 32 34  1  0
 34 35  1  0
  6 36  1  0
 36 37  1  0
 36 38  2  0
 38 39  1  0
 38  2  1  0
 34  7  2  0
 28 10  1  0
M  END
>  <cnnaffinity>  (1) 
-5.21629

>  <filename>  (1) 
CC(C)c1ccc(-c2cc(=O)cc(-c3cccnc3)o2)cc1

$$$$
