
     RDKit          3D

 34 36  0  0  0  0  0  0  0  0999 V2000
    4.9006    1.8452   16.9808 H   0  0  0  0  0  0  0  0  0  0  0  0
    5.3804    1.3181   17.8018 C   0  0  0  0  0  0  0  0  0  0  0  0
    6.5337    0.6958   17.5126 N   0  0  0  0  0  0  0  0  0  0  0  0
    7.1553    0.0493   18.5120 C   0  0  0  0  0  0  0  0  0  0  0  0
    8.1039   -0.4270   18.2603 H   0  0  0  0  0  0  0  0  0  0  0  0
    6.6622   -0.0385   19.8395 C   0  0  0  0  0  0  0  0  0  0  0  0
    7.3066   -0.7433   20.8735 N   0  0  0  0  0  0  0  0  0  0  0  0
    6.6619   -1.2137   21.4984 H   0  0  0  0  0  0  0  0  0  0  0  0
    8.6525   -0.4759   21.4165 C   0  0  0  0  0  0  0  0  0  0  0  0
    8.7065   -0.5026   22.9548 C   0  0  0  0  0  0  0  0  0  0  0  0
    9.7749   -0.6413   23.6753 N   0  0  0  0  0  0  0  0  0  0  0  0
    9.3318   -0.4697   24.9845 C   0  0  0  0  0  0  0  0  0  0  0  0
   10.0044   -0.5329   26.2108 C   0  0  0  0  0  0  0  0  0  0  0  0
   11.0832   -0.6402   26.2117 H   0  0  0  0  0  0  0  0  0  0  0  0
    9.2584   -0.4224   27.3828 C   0  0  0  0  0  0  0  0  0  0  0  0
    9.7558   -0.5284   28.3457 H   0  0  0  0  0  0  0  0  0  0  0  0
    7.8716   -0.1648   27.3296 C   0  0  0  0  0  0  0  0  0  0  0  0
    7.3090   -0.0844   28.2582 H   0  0  0  0  0  0  0  0  0  0  0  0
    7.2043   -0.0056   26.1108 C   0  0  0  0  0  0  0  0  0  0  0  0
    6.1512    0.2438   26.0514 H   0  0  0  0  0  0  0  0  0  0  0  0
    7.9589   -0.2307   24.9629 C   0  0  0  0  0  0  0  0  0  0  0  0
    7.5565   -0.2559   23.6592 O   0  0  0  0  0  0  0  0  0  0  0  0
    9.5620   -1.5837   20.8566 C   0  0  0  0  0  0  0  0  0  0  0  0
    9.4655   -1.5600   19.7695 H   0  0  0  0  0  0  0  0  0  0  0  0
   10.6101   -1.4282   21.1361 H   0  0  0  0  0  0  0  0  0  0  0  0
    9.2354   -2.5673   21.2064 H   0  0  0  0  0  0  0  0  0  0  0  0
    9.2037    0.8994   20.9678 C   0  0  0  0  0  0  0  0  0  0  0  0
   10.1721    1.0975   21.4390 H   0  0  0  0  0  0  0  0  0  0  0  0
    9.3524    0.8979   19.8891 H   0  0  0  0  0  0  0  0  0  0  0  0
    8.5110    1.7066   21.2247 H   0  0  0  0  0  0  0  0  0  0  0  0
    5.4465    0.6076   20.1068 C   0  0  0  0  0  0  0  0  0  0  0  0
    5.0480    0.5868   21.1238 H   0  0  0  0  0  0  0  0  0  0  0  0
    4.8049    1.3035   19.0765 C   0  0  0  0  0  0  0  0  0  0  0  0
    3.8775    1.8379   19.2521 H   0  0  0  0  0  0  0  0  0  0  0  0
  1  2  1  0
  2  3  2  0
  3  4  1  0
  4  5  1  0
  4  6  2  0
  6  7  1  0
  7  8  1  0
  7  9  1  0
  9 10  1  0
 10 11  2  0
 11 12  1  0
 12 13  2  0
 13 14  1  0
 13 15  1  0
 15 16  1  0
 15 17  2  0
 17 18  1  0
 17 19  1  0
 19 20  1  0
 19 21  2  0
 21 22  1  0
  9 23  1  0
 23 24  1  0
 23 25  1  0
 23 26  1  0
  9 27  1  0
 27 28  1  0
 27 29  1  0
 27 30  1  0
  6 31  1  0
 31 32  1  0
 31 33  2  0
 33 34  1  0
 33  2  1  0
 22 10  1  0
 21 12  1  0
M  END
>  <cnnaffinity>  (1) 
-4.73855

>  <filename>  (1) 
CC(C)(Nc1cccnc1)c1nc2ccccc2o1

$$$$
