
     RDKit          3D

 39 40  0  0  0  0  0  0  0  0999 V2000
    5.1257    1.7849   17.0322 H   0  0  0  0  0  0  0  0  0  0  0  0
    5.5339    1.2587   17.8926 C   0  0  0  0  0  0  0  0  0  0  0  0
    6.6795    0.5873   17.6901 N   0  0  0  0  0  0  0  0  0  0  0  0
    7.2265   -0.0513   18.7185 C   0  0  0  0  0  0  0  0  0  0  0  0
    8.1398   -0.6137   18.5213 H   0  0  0  0  0  0  0  0  0  0  0  0
    6.6598   -0.0281   19.9843 C   0  0  0  0  0  0  0  0  0  0  0  0
    7.5094   -0.9840   21.1834 S   0  0  0  0  0  0  0  0  0  0  0  0
    6.5000   -1.5905   22.0456 O   0  0  0  0  0  0  0  0  0  0  0  0
    8.4575   -1.8256   20.4643 O   0  0  0  0  0  0  0  0  0  0  0  0
    8.5558    0.2066   22.1928 C   0  0  0  0  0  0  0  0  0  0  0  0
    7.6514    1.3066   22.7732 C   0  0  0  0  0  0  0  0  0  0  0  0
    6.8125    0.8708   23.3245 H   0  0  0  0  0  0  0  0  0  0  0  0
    8.2211    1.9321   23.4716 H   0  0  0  0  0  0  0  0  0  0  0  0
    7.2338    1.9640   21.9999 H   0  0  0  0  0  0  0  0  0  0  0  0
    9.1897   -0.6253   23.3241 C   0  0  0  0  0  0  0  0  0  0  0  0
    9.8056   -1.4363   22.9173 H   0  0  0  0  0  0  0  0  0  0  0  0
    9.8432    0.0156   23.9302 H   0  0  0  0  0  0  0  0  0  0  0  0
    8.4283   -1.0638   23.9781 H   0  0  0  0  0  0  0  0  0  0  0  0
    9.6865    0.7601   21.2669 C   0  0  0  0  0  0  0  0  0  0  0  0
   10.2358   -0.0850   20.8353 H   0  0  0  0  0  0  0  0  0  0  0  0
    9.2091    1.2758   20.4221 H   0  0  0  0  0  0  0  0  0  0  0  0
   10.6571    1.7329   21.9160 C   0  0  0  0  0  0  0  0  0  0  0  0
   11.9809    1.4148   22.2657 C   0  0  0  0  0  0  0  0  0  0  0  0
   12.3260    0.3865   22.1784 H   0  0  0  0  0  0  0  0  0  0  0  0
   12.8777    2.4005   22.6995 C   0  0  0  0  0  0  0  0  0  0  0  0
   13.9077    2.1300   22.9149 H   0  0  0  0  0  0  0  0  0  0  0  0
   12.4603    3.7399   22.8048 C   0  0  0  0  0  0  0  0  0  0  0  0
   13.4474    4.8715   23.0342 C   0  0  0  0  0  0  0  0  0  0  0  0
   12.8519    5.9909   23.4929 F   0  0  0  0  0  0  0  0  0  0  0  0
   14.3965    4.5399   23.9264 F   0  0  0  0  0  0  0  0  0  0  0  0
   14.0877    5.2187   21.8980 F   0  0  0  0  0  0  0  0  0  0  0  0
   11.1134    4.0409   22.5702 C   0  0  0  0  0  0  0  0  0  0  0  0
   10.7367    5.0480   22.7039 H   0  0  0  0  0  0  0  0  0  0  0  0
   10.2434    3.0574   22.1045 C   0  0  0  0  0  0  0  0  0  0  0  0
    9.2363    3.3341   21.8083 H   0  0  0  0  0  0  0  0  0  0  0  0
    5.4588    0.6485   20.2190 C   0  0  0  0  0  0  0  0  0  0  0  0
    4.9750    0.6696   21.1987 H   0  0  0  0  0  0  0  0  0  0  0  0
    4.8914    1.3081   19.1329 C   0  0  0  0  0  0  0  0  0  0  0  0
    3.9752    1.8787   19.2291 H   0  0  0  0  0  0  0  0  0  0  0  0
  1  2  1  0
  2  3  2  0
  3  4  1  0
  4  5  1  0
  4  6  2  0
  6  7  1  0
  7  8  2  0
  7  9  2  0
  7 10  1  0
 10 11  1  0
 11 12  1  0
 11 13  1  0
 11 14  1  0
 10 15  1  0
 15 16  1  0
 15 17  1  0
 15 18  1  0
 10 19  1  0
 19 20  1  0
 19 21  1  0
 19 22  1  0
 22 23  2  0
 23 24  1  0
 23 25  1  0
 25 26  1  0
 25 27  2  0
 27 28  1  0
 28 29  1  0
 28 30  1  0
 28 31  1  0
 27 32  1  0
 32 33  1  0
 32 34  2  0
 34 35  1  0
  6 36  1  0
 36 37  1  0
 36 38  2  0
 38 39  1  0
 38  2  1  0
 34 22  1  0
M  END
>  <cnnaffinity>  (1) 
-4.85616

>  <filename>  (1) 
CC(C)(Cc1ccc(C(F)(F)F)cc1)S(=O)(=O)c1cccnc1

$$$$
