
     RDKit          3D

 37 38  0  0  0  0  0  0  0  0999 V2000
   10.4662   -0.7558   22.4313 H   0  0  0  0  0  0  0  0  0  0  0  0
    9.4281   -1.0053   22.2657 C   0  0  0  0  0  0  0  0  0  0  0  0
    8.8728   -2.0381   22.9027 C   0  0  0  0  0  0  0  0  0  0  0  0
    9.5476   -2.9018   23.9313 C   0  0  0  0  0  0  0  0  0  0  0  0
   10.6338   -2.7971   23.8148 H   0  0  0  0  0  0  0  0  0  0  0  0
    9.3273   -3.9492   23.6965 H   0  0  0  0  0  0  0  0  0  0  0  0
    9.1744   -2.6268   25.4100 C   0  0  0  0  0  0  0  0  0  0  0  0
    8.1228   -2.8962   25.5732 H   0  0  0  0  0  0  0  0  0  0  0  0
    9.7542   -3.3413   26.0130 H   0  0  0  0  0  0  0  0  0  0  0  0
    9.4334   -1.1949   25.9360 C   0  0  0  0  0  0  0  0  0  0  0  0
   10.3935   -0.8630   25.5137 H   0  0  0  0  0  0  0  0  0  0  0  0
    9.5822   -1.1432   27.4629 C   0  0  0  0  0  0  0  0  0  0  0  0
   10.2050   -1.9479   27.8462 H   0  0  0  0  0  0  0  0  0  0  0  0
    8.6033   -1.2126   27.9499 H   0  0  0  0  0  0  0  0  0  0  0  0
   10.0473   -0.2008   27.7674 H   0  0  0  0  0  0  0  0  0  0  0  0
    8.3333   -0.1946   25.5571 C   0  0  0  0  0  0  0  0  0  0  0  0
    7.4155   -0.4517   26.1014 H   0  0  0  0  0  0  0  0  0  0  0  0
    8.0793   -0.1687   24.4940 H   0  0  0  0  0  0  0  0  0  0  0  0
    8.6195    0.8143   25.8730 H   0  0  0  0  0  0  0  0  0  0  0  0
    7.5319   -2.3094   22.6433 N   0  0  0  0  0  0  0  0  0  0  0  0
    7.0446   -3.0848   23.0427 H   0  0  0  0  0  0  0  0  0  0  0  0
    6.7655   -1.7492   21.6451 C   0  0  0  0  0  0  0  0  0  0  0  0
    5.6623   -2.2073   21.4177 O   0  0  0  0  0  0  0  0  0  0  0  0
    7.3671   -0.7130   20.9412 N   0  0  0  0  0  0  0  0  0  0  0  0
    6.6590   -0.0443   19.8909 C   0  0  0  0  0  0  0  0  0  0  0  0
    7.1851    0.0362   18.5834 C   0  0  0  0  0  0  0  0  0  0  0  0
    8.1336   -0.4530   18.3599 H   0  0  0  0  0  0  0  0  0  0  0  0
    6.5805    0.6736   17.5736 N   0  0  0  0  0  0  0  0  0  0  0  0
    5.4201    1.2945   17.8381 C   0  0  0  0  0  0  0  0  0  0  0  0
    4.9558    1.8183   17.0047 H   0  0  0  0  0  0  0  0  0  0  0  0
    4.8216    1.2869   19.1014 C   0  0  0  0  0  0  0  0  0  0  0  0
    3.8959    1.8233   19.2555 H   0  0  0  0  0  0  0  0  0  0  0  0
    5.4418    0.5946   20.1490 C   0  0  0  0  0  0  0  0  0  0  0  0
    5.0137    0.5520   21.1481 H   0  0  0  0  0  0  0  0  0  0  0  0
    8.6233   -0.0949   21.3868 C   0  0  0  0  0  0  0  0  0  0  0  0
    9.2083    0.1831   20.5011 H   0  0  0  0  0  0  0  0  0  0  0  0
    8.4177    0.8639   21.8979 H   0  0  0  0  0  0  0  0  0  0  0  0
  1  2  1  0
  2  3  2  0
  3  4  1  0
  4  5  1  0
  4  6  1  0
  4  7  1  0
  7  8  1  0
  7  9  1  0
  7 10  1  0
 10 11  1  0
 10 12  1  0
 12 13  1  0
 12 14  1  0
 12 15  1  0
 10 16  1  0
 16 17  1  0
 16 18  1  0
 16 19  1  0
  3 20  1  0
 20 21  1  0
 20 22  1  0
 22 23  2  0
 22 24  1  0
 24 25  1  0
 25 26  2  0
 26 27  1  0
 26 28  1  0
 28 29  2  0
 29 30  1  0
 29 31  1  0
 31 32  1  0
 31 33  2  0
 33 34  1  0
 24 35  1  0
 35 36  1  0
 35 37  1  0
 35  2  1  0
 33 25  1  0
M  END
>  <cnnaffinity>  (1) 
-4.90661

>  <filename>  (1) 
CC(C)CCC1=CCN(c2cccnc2)C(=O)N1

$$$$
