
     RDKit          3D

 42 44  0  0  0  0  0  0  0  0999 V2000
    4.9295    1.7906   16.9892 H   0  0  0  0  0  0  0  0  0  0  0  0
    5.3961    1.2961   17.8388 C   0  0  0  0  0  0  0  0  0  0  0  0
    6.5519    0.6685   17.5816 N   0  0  0  0  0  0  0  0  0  0  0  0
    7.1410    0.0378   18.5990 C   0  0  0  0  0  0  0  0  0  0  0  0
    8.1106   -0.4110   18.3946 H   0  0  0  0  0  0  0  0  0  0  0  0
    6.6010   -0.0317   19.8980 C   0  0  0  0  0  0  0  0  0  0  0  0
    7.3172   -0.7466   20.9888 C   0  0  0  0  0  0  0  0  0  0  0  0
    6.5784   -1.5100   21.7524 N   0  0  0  0  0  0  0  0  0  0  0  0
    7.1597   -2.1847   22.7971 N   0  0  0  0  0  0  0  0  0  0  0  0
    6.2915   -2.9958   23.6136 C   0  0  0  0  0  0  0  0  0  0  0  0
    6.5000   -3.1235   24.9982 C   0  0  0  0  0  0  0  0  0  0  0  0
    7.3134   -2.5807   25.4657 H   0  0  0  0  0  0  0  0  0  0  0  0
    5.6468   -3.9140   25.7697 C   0  0  0  0  0  0  0  0  0  0  0  0
    5.8398   -3.9914   26.8382 H   0  0  0  0  0  0  0  0  0  0  0  0
    4.5649   -4.6104   25.1995 C   0  0  0  0  0  0  0  0  0  0  0  0
    3.6540   -5.4722   26.1049 C   0  0  0  0  0  0  0  0  0  0  0  0
    2.5192   -6.1683   25.3260 C   0  0  0  0  0  0  0  0  0  0  0  0
    1.9054   -6.7691   26.0079 H   0  0  0  0  0  0  0  0  0  0  0  0
    1.8566   -5.4428   24.8385 H   0  0  0  0  0  0  0  0  0  0  0  0
    2.9106   -6.8416   24.5539 H   0  0  0  0  0  0  0  0  0  0  0  0
    3.0006   -4.5796   27.1894 C   0  0  0  0  0  0  0  0  0  0  0  0
    2.3193   -5.1638   27.8212 H   0  0  0  0  0  0  0  0  0  0  0  0
    3.7479   -4.1209   27.8466 H   0  0  0  0  0  0  0  0  0  0  0  0
    2.4230   -3.7666   26.7336 H   0  0  0  0  0  0  0  0  0  0  0  0
    4.4949   -6.5753   26.7951 C   0  0  0  0  0  0  0  0  0  0  0  0
    5.0014   -7.2051   26.0543 H   0  0  0  0  0  0  0  0  0  0  0  0
    5.2674   -6.1535   27.4478 H   0  0  0  0  0  0  0  0  0  0  0  0
    3.8608   -7.2248   27.4123 H   0  0  0  0  0  0  0  0  0  0  0  0
    4.3745   -4.4699   23.8117 C   0  0  0  0  0  0  0  0  0  0  0  0
    3.5406   -4.9816   23.3403 H   0  0  0  0  0  0  0  0  0  0  0  0
    5.2158   -3.6754   23.0275 C   0  0  0  0  0  0  0  0  0  0  0  0
    5.0546   -3.5515   21.9632 H   0  0  0  0  0  0  0  0  0  0  0  0
    8.5223   -2.1166   23.0185 C   0  0  0  0  0  0  0  0  0  0  0  0
    8.8836   -2.7375   23.8346 H   0  0  0  0  0  0  0  0  0  0  0  0
    9.3477   -1.3608   22.2750 C   0  0  0  0  0  0  0  0  0  0  0  0
   10.4160   -1.2859   22.4482 H   0  0  0  0  0  0  0  0  0  0  0  0
    8.8058   -0.5622   21.1847 C   0  0  0  0  0  0  0  0  0  0  0  0
    9.5104    0.1743   20.4991 O   0  0  0  0  0  0  0  0  0  0  0  0
    5.3995    0.6369   20.1555 C   0  0  0  0  0  0  0  0  0  0  0  0
    4.9926    0.6195   21.1699 H   0  0  0  0  0  0  0  0  0  0  0  0
    4.7932    1.3217   19.1025 C   0  0  0  0  0  0  0  0  0  0  0  0
    3.8658    1.8606   19.2422 H   0  0  0  0  0  0  0  0  0  0  0  0
  1  2  1  0
  2  3  2  0
  3  4  1  0
  4  5  1  0
  4  6  2  0
  6  7  1  0
  7  8  2  0
  8  9  1  0
  9 10  1  0
 10 11  2  0
 11 12  1  0
 11 13  1  0
 13 14  1  0
 13 15  2  0
 15 16  1  0
 16 17  1  0
 17 18  1  0
 17 19  1  0
 17 20  1  0
 16 21  1  0
 21 22  1  0
 21 23  1  0
 21 24  1  0
 16 25  1  0
 25 26  1  0
 25 27  1  0
 25 28  1  0
 15 29  1  0
 29 30  1  0
 29 31  2  0
 31 32  1  0
  9 33  1  0
 33 34  1  0
 33 35  2  0
 35 36  1  0
 35 37  1  0
 37 38  2  0
  6 39  1  0
 39 40  1  0
 39 41  2  0
 41 42  1  0
 41  2  1  0
 37  7  1  0
 31 10  1  0
M  END
>  <cnnaffinity>  (1) 
-5.62819

>  <filename>  (1) 
CC(C)(C)c1ccc(-n2ccc(=O)c(-c3cccnc3)n2)cc1

$$$$
