
     RDKit          3D

 34 35  0  0  0  0  0  0  0  0999 V2000
    7.0132    0.1390   24.4156 H   0  0  0  0  0  0  0  0  0  0  0  0
    7.1189   -0.3336   23.4409 C   0  0  0  0  0  0  0  0  0  0  0  0
    6.6360    0.3236   22.3893 N   0  0  0  0  0  0  0  0  0  0  0  0
    6.8527   -0.2297   21.1929 C   0  0  0  0  0  0  0  0  0  0  0  0
    6.3250    0.4699   20.0040 C   0  0  0  0  0  0  0  0  0  0  0  0
    7.0684    0.4269   18.8162 C   0  0  0  0  0  0  0  0  0  0  0  0
    8.0555   -0.0352   18.7938 H   0  0  0  0  0  0  0  0  0  0  0  0
    6.6589    0.9385   17.6522 N   0  0  0  0  0  0  0  0  0  0  0  0
    5.4680    1.5530   17.6383 C   0  0  0  0  0  0  0  0  0  0  0  0
    5.1491    1.9569   16.6803 H   0  0  0  0  0  0  0  0  0  0  0  0
    4.6617    1.6890   18.7736 C   0  0  0  0  0  0  0  0  0  0  0  0
    3.7197    2.2195   18.6982 H   0  0  0  0  0  0  0  0  0  0  0  0
    5.1003    1.1571   19.9839 C   0  0  0  0  0  0  0  0  0  0  0  0
    4.5155    1.2735   20.8991 H   0  0  0  0  0  0  0  0  0  0  0  0
    7.5594   -1.4221   21.0620 C   0  0  0  0  0  0  0  0  0  0  0  0
    7.8107   -1.7980   20.0807 H   0  0  0  0  0  0  0  0  0  0  0  0
    7.9570   -2.0617   22.2289 C   0  0  0  0  0  0  0  0  0  0  0  0
    8.7012   -3.3766   22.2387 C   0  0  0  0  0  0  0  0  0  0  0  0
    9.5166   -3.2514   22.9597 H   0  0  0  0  0  0  0  0  0  0  0  0
    9.1554   -3.5021   21.2503 H   0  0  0  0  0  0  0  0  0  0  0  0
    7.8705   -4.6380   22.6610 C   0  0  0  0  0  0  0  0  0  0  0  0
    8.6306   -5.3616   23.0845 H   0  0  0  0  0  0  0  0  0  0  0  0
    7.4291   -4.3130   23.6488 H   0  0  0  0  0  0  0  0  0  0  0  0
    6.6989   -5.2774   21.8837 C   0  0  0  0  0  0  0  0  0  0  0  0
    5.8983   -4.4642   21.8679 H   0  0  0  0  0  0  0  0  0  0  0  0
    6.4102   -6.5848   22.5783 C   0  0  0  0  0  0  0  0  0  0  0  0
    6.2303   -6.3701   23.6698 H   0  0  0  0  0  0  0  0  0  0  0  0
    7.1907   -7.3952   22.6984 H   0  0  0  0  0  0  0  0  0  0  0  0
    5.4644   -7.1431   22.3691 H   0  0  0  0  0  0  0  0  0  0  0  0
    6.8070   -5.3055   21.5375 C   0  0  0  0  0  0  0  0  0  0  0  0
    7.5811   -5.8498   20.7790 H   0  0  0  0  0  0  0  0  0  0  0  0
    5.7917   -5.7507   20.4067 H   0  0  0  0  0  0  0  0  0  0  0  0
    7.1177   -4.3321   20.3519 H   0  0  0  0  0  0  0  0  0  0  0  0
    7.7421   -1.5081   23.4296 N   0  0  0  0  0  0  0  0  0  0  0  0
  1  2  1  0
  2  3  2  0
  3  4  1  0
  4  5  1  0
  5  6  2  0
  6  7  1  0
  6  8  1  0
  8  9  2  0
  9 10  1  0
  9 11  1  0
 11 12  1  0
 11 13  2  0
 13 14  1  0
  4 15  2  0
 15 16  1  0
 15 17  1  0
 17 18  1  0
 18 19  1  0
 18 20  1  0
 18 21  1  0
 21 22  1  0
 21 23  1  0
 21 24  1  0
 24 25  1  0
 24 26  1  0
 26 27  1  0
 26 28  1  0
 26 29  1  0
 24 30  1  0
 30 31  1  0
 30 32  1  0
 30 33  1  0
 17 34  2  0
 34  2  1  0
 13  5  1  0
M  END
>  <cnnaffinity>  (1) 
-4.82755

>  <filename>  (1) 
CC(C)CCc1cc(-c2cccnc2)ncn1

$$$$
