
     RDKit          3D

 37 38  0  0  0  0  0  0  0  0999 V2000
    5.0296    1.7720   16.8690 H   0  0  0  0  0  0  0  0  0  0  0  0
    5.4640    1.2727   17.7302 C   0  0  0  0  0  0  0  0  0  0  0  0
    6.6165    0.6273   17.5172 N   0  0  0  0  0  0  0  0  0  0  0  0
    7.1771    0.0086   18.5672 C   0  0  0  0  0  0  0  0  0  0  0  0
    8.1290   -0.4745   18.3500 H   0  0  0  0  0  0  0  0  0  0  0  0
    6.6367   -0.0209   19.8570 C   0  0  0  0  0  0  0  0  0  0  0  0
    7.3427   -0.7984   20.9838 C   0  0  0  0  0  0  0  0  0  0  0  0
    7.2037   -0.1369   22.2664 N   0  0  0  0  0  0  0  0  0  0  0  0
    6.7344   -0.6621   22.9888 H   0  0  0  0  0  0  0  0  0  0  0  0
    7.5400    1.1584   22.5996 C   0  0  0  0  0  0  0  0  0  0  0  0
    7.9347    2.1334   21.6648 C   0  0  0  0  0  0  0  0  0  0  0  0
    7.9731    1.8763   20.6142 H   0  0  0  0  0  0  0  0  0  0  0  0
    8.2300    3.4273   22.0891 C   0  0  0  0  0  0  0  0  0  0  0  0
    8.5002    4.1826   21.3550 H   0  0  0  0  0  0  0  0  0  0  0  0
    8.1790    3.7693   23.4442 C   0  0  0  0  0  0  0  0  0  0  0  0
    8.4431    4.7789   23.7548 H   0  0  0  0  0  0  0  0  0  0  0  0
    7.8027    2.8009   24.3964 C   0  0  0  0  0  0  0  0  0  0  0  0
    7.7908    3.0638   25.8914 C   0  0  0  0  0  0  0  0  0  0  0  0
    7.8331    4.1488   26.0912 H   0  0  0  0  0  0  0  0  0  0  0  0
    6.8280    2.7063   26.2826 H   0  0  0  0  0  0  0  0  0  0  0  0
    8.8415    2.2769   26.5422 N   0  0  0  0  0  0  0  0  0  0  0  0
    8.8719    2.4502   27.5431 H   0  0  0  0  0  0  0  0  0  0  0  0
    9.7447    2.5302   26.1522 H   0  0  0  0  0  0  0  0  0  0  0  0
    7.4717    1.5153   23.9527 C   0  0  0  0  0  0  0  0  0  0  0  0
    7.2086    0.7583   24.6906 H   0  0  0  0  0  0  0  0  0  0  0  0
    8.8565   -0.9863   20.7195 C   0  0  0  0  0  0  0  0  0  0  0  0
    9.0534   -1.5581   19.8105 H   0  0  0  0  0  0  0  0  0  0  0  0
    9.3179   -1.5218   21.5556 H   0  0  0  0  0  0  0  0  0  0  0  0
    9.3634   -0.0183   20.6269 H   0  0  0  0  0  0  0  0  0  0  0  0
    6.6528   -2.1548   21.1932 C   0  0  0  0  0  0  0  0  0  0  0  0
    6.6579   -2.7820   20.2972 H   0  0  0  0  0  0  0  0  0  0  0  0
    5.6141   -1.9902   21.5004 H   0  0  0  0  0  0  0  0  0  0  0  0
    7.1512   -2.6992   22.0041 H   0  0  0  0  0  0  0  0  0  0  0  0
    5.4163    0.6543   20.0495 C   0  0  0  0  0  0  0  0  0  0  0  0
    4.9729    0.7152   21.0439 H   0  0  0  0  0  0  0  0  0  0  0  0
    4.8245    1.3104   18.9719 C   0  0  0  0  0  0  0  0  0  0  0  0
    3.8970    1.8565   19.0857 H   0  0  0  0  0  0  0  0  0  0  0  0
  1  2  1  0
  2  3  2  0
  3  4  1  0
  4  5  1  0
  4  6  2  0
  6  7  1  0
  7  8  1  0
  8  9  1  0
  8 10  1  0
 10 11  2  0
 11 12  1  0
 11 13  1  0
 13 14  1  0
 13 15  2  0
 15 16  1  0
 15 17  1  0
 17 18  1  0
 18 19  1  0
 18 20  1  0
 18 21  1  0
 21 22  1  0
 21 23  1  0
 17 24  2  0
 24 25  1  0
  7 26  1  0
 26 27  1  0
 26 28  1  0
 26 29  1  0
  7 30  1  0
 30 31  1  0
 30 32  1  0
 30 33  1  0
  6 34  1  0
 34 35  1  0
 34 36  2  0
 36 37  1  0
 36  2  1  0
 24 10  1  0
M  END
>  <cnnaffinity>  (1) 
-4.18666

>  <filename>  (1) 
CC(C)(Nc1cccc(CN)c1)c1cccnc1

$$$$
