
     RDKit          3D

 33 34  0  0  0  0  0  0  0  0999 V2000
    5.0054    1.7843   16.9597 H   0  0  0  0  0  0  0  0  0  0  0  0
    5.4602    1.3011   17.8203 C   0  0  0  0  0  0  0  0  0  0  0  0
    6.6274    0.6765   17.5937 N   0  0  0  0  0  0  0  0  0  0  0  0
    7.2103    0.0869   18.6394 C   0  0  0  0  0  0  0  0  0  0  0  0
    8.1369   -0.4534   18.4492 H   0  0  0  0  0  0  0  0  0  0  0  0
    6.6937    0.1167   19.9420 C   0  0  0  0  0  0  0  0  0  0  0  0
    7.4821   -0.5808   20.9668 C   0  0  0  0  0  0  0  0  0  0  0  0
    7.9913   -1.7742   20.7884 N   0  0  0  0  0  0  0  0  0  0  0  0
    8.5607   -2.1741   21.9693 N   0  0  0  0  0  0  0  0  0  0  0  0
    8.4032   -1.1959   22.8170 C   0  0  0  0  0  0  0  0  0  0  0  0
    8.7271   -1.2201   23.8494 H   0  0  0  0  0  0  0  0  0  0  0  0
    7.7332   -0.1429   22.2453 N   0  0  0  0  0  0  0  0  0  0  0  0
    7.6052    1.1932   22.8261 C   0  0  0  0  0  0  0  0  0  0  0  0
    7.0886    1.8432   22.1174 H   0  0  0  0  0  0  0  0  0  0  0  0
    7.0030    1.1255   23.7409 H   0  0  0  0  0  0  0  0  0  0  0  0
    8.8916    1.7959   23.1480 N   0  0  0  0  0  0  0  0  0  0  0  0
    9.3023    1.5080   24.0198 H   0  0  0  0  0  0  0  0  0  0  0  0
    9.8027    2.0296   22.1359 C   0  0  0  0  0  0  0  0  0  0  0  0
    9.4608    1.9787   20.9712 O   0  0  0  0  0  0  0  0  0  0  0  0
   11.2767    2.2237   22.5672 C   0  0  0  0  0  0  0  0  0  0  0  0
   11.3350    2.1219   23.6624 H   0  0  0  0  0  0  0  0  0  0  0  0
   11.9169    3.5800   22.1793 C   0  0  0  0  0  0  0  0  0  0  0  0
   12.9204    3.6330   22.6278 H   0  0  0  0  0  0  0  0  0  0  0  0
   11.3394    4.4464   22.5179 H   0  0  0  0  0  0  0  0  0  0  0  0
   12.0532    3.6811   21.0936 H   0  0  0  0  0  0  0  0  0  0  0  0
   12.0695    1.0868   21.8993 C   0  0  0  0  0  0  0  0  0  0  0  0
   11.7061    0.0984   22.2003 H   0  0  0  0  0  0  0  0  0  0  0  0
   13.1382    1.1510   22.1353 H   0  0  0  0  0  0  0  0  0  0  0  0
   11.9168    1.1778   20.8168 H   0  0  0  0  0  0  0  0  0  0  0  0
    5.4471    0.7244   20.1565 C   0  0  0  0  0  0  0  0  0  0  0  0
    4.9769    0.7021   21.1426 H   0  0  0  0  0  0  0  0  0  0  0  0
    4.8218    1.3305   19.0661 C   0  0  0  0  0  0  0  0  0  0  0  0
    3.8660    1.8319   19.1695 H   0  0  0  0  0  0  0  0  0  0  0  0
  1  2  1  0
  2  3  2  0
  3  4  1  0
  4  5  1  0
  4  6  2  0
  6  7  1  0
  7  8  2  0
  8  9  1  0
  9 10  2  0
 10 11  1  0
 10 12  1  0
 12 13  1  0
 13 14  1  0
 13 15  1  0
 13 16  1  0
 16 17  1  0
 16 18  1  0
 18 19  2  0
 18 20  1  0
 20 21  1  0
 20 22  1  0
 22 23  1  0
 22 24  1  0
 22 25  1  0
 20 26  1  0
 26 27  1  0
 26 28  1  0
 26 29  1  0
  6 30  1  0
 30 31  1  0
 30 32  2  0
 32 33  1  0
 32  2  1  0
 12  7  1  0
M  END
>  <cnnaffinity>  (1) 
-5.1334

>  <filename>  (1) 
CC(C)C(=O)NCn1cnnc1-c1cccnc1

$$$$
