
     RDKit          3D

 35 36  0  0  0  0  0  0  0  0999 V2000
    9.7537   -3.8707   25.2901 H   0  0  0  0  0  0  0  0  0  0  0  0
    9.7161   -3.4194   24.4426 O   0  0  0  0  0  0  0  0  0  0  0  0
    9.1538   -2.1974   24.6652 C   0  0  0  0  0  0  0  0  0  0  0  0
    8.7945   -1.8647   25.9755 C   0  0  0  0  0  0  0  0  0  0  0  0
    8.9332   -2.6099   26.7576 H   0  0  0  0  0  0  0  0  0  0  0  0
    8.2831   -0.6000   26.2576 C   0  0  0  0  0  0  0  0  0  0  0  0
    8.0055   -0.3392   27.2777 H   0  0  0  0  0  0  0  0  0  0  0  0
    8.1447    0.3263   25.2199 C   0  0  0  0  0  0  0  0  0  0  0  0
    7.7638    1.3202   25.4171 H   0  0  0  0  0  0  0  0  0  0  0  0
    8.4931   -0.0183   23.9122 C   0  0  0  0  0  0  0  0  0  0  0  0
    8.4092    0.7128   23.1073 H   0  0  0  0  0  0  0  0  0  0  0  0
    8.9622   -1.2995   23.5882 C   0  0  0  0  0  0  0  0  0  0  0  0
    9.3441   -1.6589   22.1335 C   0  0  0  0  0  0  0  0  0  0  0  0
    8.7598   -0.6383   21.0813 C   0  0  0  0  0  0  0  0  0  0  0  0
    9.4508    0.1359   20.4415 O   0  0  0  0  0  0  0  0  0  0  0  0
    7.3879   -0.6778   20.9153 N   0  0  0  0  0  0  0  0  0  0  0  0
    6.8608   -1.0849   21.6702 H   0  0  0  0  0  0  0  0  0  0  0  0
    6.6716   -0.0105   19.8886 C   0  0  0  0  0  0  0  0  0  0  0  0
    7.1687    0.0522   18.5631 C   0  0  0  0  0  0  0  0  0  0  0  0
    8.1200   -0.4182   18.3373 H   0  0  0  0  0  0  0  0  0  0  0  0
    6.5438    0.6721   17.5563 N   0  0  0  0  0  0  0  0  0  0  0  0
    5.3851    1.2935   17.8352 C   0  0  0  0  0  0  0  0  0  0  0  0
    4.9120    1.8116   17.0039 H   0  0  0  0  0  0  0  0  0  0  0  0
    4.8046    1.2974   19.1085 C   0  0  0  0  0  0  0  0  0  0  0  0
    3.8740    1.8334   19.2712 H   0  0  0  0  0  0  0  0  0  0  0  0
    5.4511    0.6254   20.1563 C   0  0  0  0  0  0  0  0  0  0  0  0
    5.0377    0.6137   21.1626 H   0  0  0  0  0  0  0  0  0  0  0  0
   10.8902   -1.6328   22.0327 C   0  0  0  0  0  0  0  0  0  0  0  0
   11.3174   -2.3620   22.7254 H   0  0  0  0  0  0  0  0  0  0  0  0
   11.2165   -1.8763   21.0176 H   0  0  0  0  0  0  0  0  0  0  0  0
   11.2766   -0.6376   22.2842 H   0  0  0  0  0  0  0  0  0  0  0  0
    8.8375   -3.0828   21.7870 C   0  0  0  0  0  0  0  0  0  0  0  0
    8.9844   -3.2637   20.7266 H   0  0  0  0  0  0  0  0  0  0  0  0
    7.7775   -3.2213   22.0356 H   0  0  0  0  0  0  0  0  0  0  0  0
    9.4063   -3.8223   22.3416 H   0  0  0  0  0  0  0  0  0  0  0  0
  1  2  1  0
  2  3  1  0
  3  4  2  0
  4  5  1  0
  4  6  1  0
  6  7  1  0
  6  8  2  0
  8  9  1  0
  8 10  1  0
 10 11  1  0
 10 12  2  0
 12 13  1  0
 13 14  1  0
 14 15  2  0
 14 16  1  0
 16 17  1  0
 16 18  1  0
 18 19  2  0
 19 20  1  0
 19 21  1  0
 21 22  2  0
 22 23  1  0
 22 24  1  0
 24 25  1  0
 24 26  2  0
 26 27  1  0
 13 28  1  0
 28 29  1  0
 28 30  1  0
 28 31  1  0
 13 32  1  0
 32 33  1  0
 32 34  1  0
 32 35  1  0
 12  3  1  0
 26 18  1  0
M  END
>  <cnnaffinity>  (1) 
-5.07922

>  <filename>  (1) 
CC(C)(C(=O)Nc1cccnc1)c1ccccc1O

$$$$
