
     RDKit          3D

 39 42  0  0  0  0  0  0  0  0999 V2000
    4.9097    1.7702   17.0071 H   0  0  0  0  0  0  0  0  0  0  0  0
    5.4056    1.2877   17.8485 C   0  0  0  0  0  0  0  0  0  0  0  0
    6.5746    0.6745   17.5945 N   0  0  0  0  0  0  0  0  0  0  0  0
    7.1847    0.0550   18.6126 C   0  0  0  0  0  0  0  0  0  0  0  0
    8.1318   -0.4368   18.3825 H   0  0  0  0  0  0  0  0  0  0  0  0
    6.6537    0.0118   19.9088 C   0  0  0  0  0  0  0  0  0  0  0  0
    7.3626   -0.6911   20.9675 C   0  0  0  0  0  0  0  0  0  0  0  0
    8.5471   -1.3285   20.7614 N   0  0  0  0  0  0  0  0  0  0  0  0
    8.7914   -1.8084   21.9603 C   0  0  0  0  0  0  0  0  0  0  0  0
    9.9847   -2.8240   22.7157 S   0  0  0  0  0  0  0  0  0  0  0  0
    9.0815   -2.7657   24.2050 C   0  0  0  0  0  0  0  0  0  0  0  0
    9.4531   -3.2881   25.0723 H   0  0  0  0  0  0  0  0  0  0  0  0
    7.9600   -2.0150   24.1246 C   0  0  0  0  0  0  0  0  0  0  0  0
    6.9731   -1.7653   25.1931 C   0  0  0  0  0  0  0  0  0  0  0  0
    6.2491   -0.5598   25.2768 C   0  0  0  0  0  0  0  0  0  0  0  0
    6.4032    0.2214   24.5397 H   0  0  0  0  0  0  0  0  0  0  0  0
    5.3387   -0.3639   26.3081 C   0  0  0  0  0  0  0  0  0  0  0  0
    4.7866    0.5718   26.3548 H   0  0  0  0  0  0  0  0  0  0  0  0
    5.1186   -1.3444   27.2895 C   0  0  0  0  0  0  0  0  0  0  0  0
    4.1213   -1.1133   28.4101 C   0  0  0  0  0  0  0  0  0  0  0  0
    3.6722   -0.1195   28.2718 H   0  0  0  0  0  0  0  0  0  0  0  0
    4.8141   -1.1105   29.7785 C   0  0  0  0  0  0  0  0  0  0  0  0
    5.2354   -2.0965   30.0068 H   0  0  0  0  0  0  0  0  0  0  0  0
    4.0994   -0.8541   30.5663 H   0  0  0  0  0  0  0  0  0  0  0  0
    5.6292   -0.3799   29.7971 H   0  0  0  0  0  0  0  0  0  0  0  0
    2.9801   -2.1367   28.3591 C   0  0  0  0  0  0  0  0  0  0  0  0
    2.5007   -2.1310   27.3749 H   0  0  0  0  0  0  0  0  0  0  0  0
    2.2249   -1.9022   29.1153 H   0  0  0  0  0  0  0  0  0  0  0  0
    3.3532   -3.1498   28.5504 H   0  0  0  0  0  0  0  0  0  0  0  0
    5.8510   -2.5420   27.2053 C   0  0  0  0  0  0  0  0  0  0  0  0
    5.7138   -3.3259   27.9468 H   0  0  0  0  0  0  0  0  0  0  0  0
    6.7641   -2.7506   26.1776 C   0  0  0  0  0  0  0  0  0  0  0  0
    7.3071   -3.6918   26.1318 H   0  0  0  0  0  0  0  0  0  0  0  0
    7.8270   -1.4734   22.8395 N   0  0  0  0  0  0  0  0  0  0  0  0
    6.8711   -0.7479   22.2032 N   0  0  0  0  0  0  0  0  0  0  0  0
    5.4371    0.6545   20.1635 C   0  0  0  0  0  0  0  0  0  0  0  0
    5.0069    0.6289   21.1638 H   0  0  0  0  0  0  0  0  0  0  0  0
    4.8058    1.3102   19.1138 C   0  0  0  0  0  0  0  0  0  0  0  0
    3.8715    1.8454   19.2674 H   0  0  0  0  0  0  0  0  0  0  0  0
  1  2  1  0
  2  3  2  0
  3  4  1  0
  4  5  1  0
  4  6  2  0
  6  7  1  0
  7  8  1  0
  8  9  2  0
  9 10  1  0
 10 11  1  0
 11 12  1  0
 11 13  2  0
 13 14  1  0
 14 15  2  0
 15 16  1  0
 15 17  1  0
 17 18  1  0
 17 19  2  0
 19 20  1  0
 20 21  1  0
 20 22  1  0
 22 23  1  0
 22 24  1  0
 22 25  1  0
 20 26  1  0
 26 27  1  0
 26 28  1  0
 26 29  1  0
 19 30  1  0
 30 31  1  0
 30 32  2  0
 32 33  1  0
 13 34  1  0
 34 35  1  0
  6 36  1  0
 36 37  1  0
 36 38  2  0
 38 39  1  0
 38  2  1  0
 35  7  2  0
 34  9  1  0
 32 14  1  0
M  END
>  <cnnaffinity>  (1) 
-5.6785

>  <filename>  (1) 
CC(C)c1ccc(-c2csc3nc(-c4cccnc4)nn23)cc1

$$$$
