
     RDKit          3D

 39 41  0  0  0  0  0  0  0  0999 V2000
    4.9184    1.7827   16.9927 H   0  0  0  0  0  0  0  0  0  0  0  0
    5.4014    1.2956   17.8373 C   0  0  0  0  0  0  0  0  0  0  0  0
    6.5640    0.6753   17.5775 N   0  0  0  0  0  0  0  0  0  0  0  0
    7.1751    0.0626   18.5985 C   0  0  0  0  0  0  0  0  0  0  0  0
    8.1142   -0.4367   18.3710 H   0  0  0  0  0  0  0  0  0  0  0  0
    6.6608    0.0060   19.9057 C   0  0  0  0  0  0  0  0  0  0  0  0
    7.3469   -0.6937   20.9516 N   0  0  0  0  0  0  0  0  0  0  0  0
    6.5592   -1.4287   21.7984 N   0  0  0  0  0  0  0  0  0  0  0  0
    7.1295   -2.0756   22.7888 C   0  0  0  0  0  0  0  0  0  0  0  0
    6.2344   -2.8474   23.7032 C   0  0  0  0  0  0  0  0  0  0  0  0
    5.1749   -3.5926   23.1616 C   0  0  0  0  0  0  0  0  0  0  0  0
    5.0201   -3.5672   22.0874 H   0  0  0  0  0  0  0  0  0  0  0  0
    4.3405   -4.3300   23.9960 C   0  0  0  0  0  0  0  0  0  0  0  0
    3.5029   -4.8783   23.5706 H   0  0  0  0  0  0  0  0  0  0  0  0
    4.5369   -4.3544   25.3868 C   0  0  0  0  0  0  0  0  0  0  0  0
    3.6035   -5.1475   26.2833 C   0  0  0  0  0  0  0  0  0  0  0  0
    2.8552   -5.6272   25.6408 H   0  0  0  0  0  0  0  0  0  0  0  0
    4.3477   -6.2647   27.0278 C   0  0  0  0  0  0  0  0  0  0  0  0
    3.6533   -6.8850   27.6048 H   0  0  0  0  0  0  0  0  0  0  0  0
    5.0832   -5.8510   27.7263 H   0  0  0  0  0  0  0  0  0  0  0  0
    4.8900   -6.9117   26.3315 H   0  0  0  0  0  0  0  0  0  0  0  0
    2.8477   -4.2328   27.2577 C   0  0  0  0  0  0  0  0  0  0  0  0
    2.1153   -4.7989   27.8430 H   0  0  0  0  0  0  0  0  0  0  0  0
    2.3209   -3.4360   26.7238 H   0  0  0  0  0  0  0  0  0  0  0  0
    3.5365   -3.7521   27.9610 H   0  0  0  0  0  0  0  0  0  0  0  0
    5.6122   -3.6205   25.9200 C   0  0  0  0  0  0  0  0  0  0  0  0
    5.7922   -3.6250   26.9937 H   0  0  0  0  0  0  0  0  0  0  0  0
    6.4517   -2.8829   25.0978 C   0  0  0  0  0  0  0  0  0  0  0  0
    7.2952   -2.3484   25.5305 H   0  0  0  0  0  0  0  0  0  0  0  0
    8.6227   -2.0901   23.0248 C   0  0  0  0  0  0  0  0  0  0  0  0
    9.1894   -2.7233   23.9081 O   0  0  0  0  0  0  0  0  0  0  0  0
    9.3715   -1.2588   22.0863 C   0  0  0  0  0  0  0  0  0  0  0  0
   10.4459   -1.2179   22.2152 H   0  0  0  0  0  0  0  0  0  0  0  0
    8.7151   -0.6110   21.1082 C   0  0  0  0  0  0  0  0  0  0  0  0
    9.2263    0.0349   20.3920 H   0  0  0  0  0  0  0  0  0  0  0  0
    5.4409    0.6450   20.1664 C   0  0  0  0  0  0  0  0  0  0  0  0
    5.0318    0.5988   21.1771 H   0  0  0  0  0  0  0  0  0  0  0  0
    4.8123    1.3121   19.1089 C   0  0  0  0  0  0  0  0  0  0  0  0
    3.8773    1.8422   19.2608 H   0  0  0  0  0  0  0  0  0  0  0  0
  1  2  1  0
  2  3  2  0
  3  4  1  0
  4  5  1  0
  4  6  2  0
  6  7  1  0
  7  8  1  0
  8  9  2  0
  9 10  1  0
 10 11  2  0
 11 12  1  0
 11 13  1  0
 13 14  1  0
 13 15  2  0
 15 16  1  0
 16 17  1  0
 16 18  1  0
 18 19  1  0
 18 20  1  0
 18 21  1  0
 16 22  1  0
 22 23  1  0
 22 24  1  0
 22 25  1  0
 15 26  1  0
 26 27  1  0
 26 28  2  0
 28 29  1  0
  9 30  1  0
 30 31  2  0
 30 32  1  0
 32 33  1  0
 32 34  2  0
 34 35  1  0
  6 36  1  0
 36 37  1  0
 36 38  2  0
 38 39  1  0
 38  2  1  0
 34  7  1  0
 28 10  1  0
M  END
>  <cnnaffinity>  (1) 
-5.32234

>  <filename>  (1) 
CC(C)c1ccc(-c2nn(-c3cccnc3)ccc2=O)cc1

$$$$
