
     RDKit          3D

 36 36  0  0  0  0  0  0  0  0999 V2000
   10.3793   -0.9973   27.7779 H   0  0  0  0  0  0  0  0  0  0  0  0
   10.5722   -0.3733   27.0519 O   0  0  0  0  0  0  0  0  0  0  0  0
    9.3643    0.1977   26.9780 C   0  0  0  0  0  0  0  0  0  0  0  0
    8.4776   -0.2346   27.6717 O   0  0  0  0  0  0  0  0  0  0  0  0
    9.2331    1.2521   25.9182 C   0  0  0  0  0  0  0  0  0  0  0  0
    8.2824    1.7518   26.1098 H   0  0  0  0  0  0  0  0  0  0  0  0
   10.0345    1.9897   25.9941 H   0  0  0  0  0  0  0  0  0  0  0  0
    9.2110    0.5726   24.5433 C   0  0  0  0  0  0  0  0  0  0  0  0
    8.9753    1.3124   23.7721 H   0  0  0  0  0  0  0  0  0  0  0  0
   10.2076    0.1802   24.3141 H   0  0  0  0  0  0  0  0  0  0  0  0
    8.1783   -0.5547   24.5436 C   0  0  0  0  0  0  0  0  0  0  0  0
    7.2235   -0.1261   24.8777 H   0  0  0  0  0  0  0  0  0  0  0  0
    8.4531   -1.3084   25.2988 H   0  0  0  0  0  0  0  0  0  0  0  0
    7.9533   -1.2747   23.2018 C   0  0  0  0  0  0  0  0  0  0  0  0
    7.3515   -0.2644   22.1796 C   0  0  0  0  0  0  0  0  0  0  0  0
    6.8574    0.7920   22.5394 O   0  0  0  0  0  0  0  0  0  0  0  0
    7.3622   -0.6493   20.8578 N   0  0  0  0  0  0  0  0  0  0  0  0
    7.8572   -1.4994   20.6465 H   0  0  0  0  0  0  0  0  0  0  0  0
    6.6778    0.0068   19.8017 C   0  0  0  0  0  0  0  0  0  0  0  0
    7.1799    0.0101   18.4809 C   0  0  0  0  0  0  0  0  0  0  0  0
    8.1146   -0.5035   18.2495 H   0  0  0  0  0  0  0  0  0  0  0  0
    6.5795    0.6364   17.4616 N   0  0  0  0  0  0  0  0  0  0  0  0
    5.4279    1.2830   17.7137 C   0  0  0  0  0  0  0  0  0  0  0  0
    4.9612    1.7914   16.8743 H   0  0  0  0  0  0  0  0  0  0  0  0
    4.8274    1.3057   18.9773 C   0  0  0  0  0  0  0  0  0  0  0  0
    3.8931    1.8390   19.1309 H   0  0  0  0  0  0  0  0  0  0  0  0
    5.4640    0.6679   20.0436 C   0  0  0  0  0  0  0  0  0  0  0  0
    5.0629    0.6884   21.0537 H   0  0  0  0  0  0  0  0  0  0  0  0
    9.2851   -1.9084   22.7372 C   0  0  0  0  0  0  0  0  0  0  0  0
    9.7321   -2.4695   23.5696 H   0  0  0  0  0  0  0  0  0  0  0  0
   10.0149   -1.1534   22.4226 H   0  0  0  0  0  0  0  0  0  0  0  0
    9.1520   -2.6201   21.9155 H   0  0  0  0  0  0  0  0  0  0  0  0
    6.9214   -2.3959   23.4834 C   0  0  0  0  0  0  0  0  0  0  0  0
    7.3277   -3.0916   24.2291 H   0  0  0  0  0  0  0  0  0  0  0  0
    6.6766   -2.9758   22.5886 H   0  0  0  0  0  0  0  0  0  0  0  0
    5.9906   -1.9890   23.8949 H   0  0  0  0  0  0  0  0  0  0  0  0
  1  2  1  0
  2  3  1  0
  3  4  2  0
  3  5  1  0
  5  6  1  0
  5  7  1  0
  5  8  1  0
  8  9  1  0
  8 10  1  0
  8 11  1  0
 11 12  1  0
 11 13  1  0
 11 14  1  0
 14 15  1  0
 15 16  2  0
 15 17  1  0
 17 18  1  0
 17 19  1  0
 19 20  2  0
 20 21  1  0
 20 22  1  0
 22 23  2  0
 23 24  1  0
 23 25  1  0
 25 26  1  0
 25 27  2  0
 27 28  1  0
 14 29  1  0
 29 30  1  0
 29 31  1  0
 29 32  1  0
 14 33  1  0
 33 34  1  0
 33 35  1  0
 33 36  1  0
 27 19  1  0
M  END
>  <cnnaffinity>  (1) 
-4.93676

>  <filename>  (1) 
CC(C)(CCCC(=O)O)C(=O)Nc1cccnc1

$$$$
