
     RDKit          3D

 34 35  0  0  0  0  0  0  0  0999 V2000
    4.9293    1.8013   16.9912 H   0  0  0  0  0  0  0  0  0  0  0  0
    5.4121    1.2958   17.8241 C   0  0  0  0  0  0  0  0  0  0  0  0
    6.5789    0.6830   17.5563 N   0  0  0  0  0  0  0  0  0  0  0  0
    7.2167    0.0703   18.5651 C   0  0  0  0  0  0  0  0  0  0  0  0
    8.1576   -0.4231   18.3187 H   0  0  0  0  0  0  0  0  0  0  0  0
    6.7088    0.0125   19.8847 C   0  0  0  0  0  0  0  0  0  0  0  0
    7.3741   -0.6678   20.9420 N   0  0  0  0  0  0  0  0  0  0  0  0
    8.3647   -0.5264   21.0577 H   0  0  0  0  0  0  0  0  0  0  0  0
    6.7784   -1.5190   21.8535 C   0  0  0  0  0  0  0  0  0  0  0  0
    5.7159   -2.0691   21.6334 O   0  0  0  0  0  0  0  0  0  0  0  0
    7.6475   -1.9110   23.1025 C   0  0  0  0  0  0  0  0  0  0  0  0
    8.6290   -0.8046   23.5714 C   0  0  0  0  0  0  0  0  0  0  0  0
   10.0005   -1.0748   23.7750 C   0  0  0  0  0  0  0  0  0  0  0  0
   10.3745   -2.0739   23.5795 H   0  0  0  0  0  0  0  0  0  0  0  0
   10.9024   -0.1054   24.2268 C   0  0  0  0  0  0  0  0  0  0  0  0
   11.9576   -0.3380   24.3437 H   0  0  0  0  0  0  0  0  0  0  0  0
   10.4531    1.1824   24.5139 C   0  0  0  0  0  0  0  0  0  0  0  0
   11.1556    1.9445   24.8516 H   0  0  0  0  0  0  0  0  0  0  0  0
    9.0976    1.4835   24.3604 C   0  0  0  0  0  0  0  0  0  0  0  0
    8.7232    2.4785   24.5753 H   0  0  0  0  0  0  0  0  0  0  0  0
    8.2014    0.5047   23.9068 C   0  0  0  0  0  0  0  0  0  0  0  0
    6.5259    1.0040   23.7685 Cl  0  0  0  0  0  0  0  0  0  0  0  0
    6.7428   -2.3080   24.2957 C   0  0  0  0  0  0  0  0  0  0  0  0
    6.0670   -3.1196   24.0056 H   0  0  0  0  0  0  0  0  0  0  0  0
    7.3794   -2.6580   25.1145 H   0  0  0  0  0  0  0  0  0  0  0  0
    6.1410   -1.4787   24.6801 H   0  0  0  0  0  0  0  0  0  0  0  0
    8.3632   -3.2058   22.6115 C   0  0  0  0  0  0  0  0  0  0  0  0
    8.8913   -3.7095   23.4290 H   0  0  0  0  0  0  0  0  0  0  0  0
    9.0772   -2.9948   21.8040 H   0  0  0  0  0  0  0  0  0  0  0  0
    7.6063   -3.8992   22.2267 H   0  0  0  0  0  0  0  0  0  0  0  0
    5.4821    0.6416   20.1345 C   0  0  0  0  0  0  0  0  0  0  0  0
    5.0603    0.5951   21.1341 H   0  0  0  0  0  0  0  0  0  0  0  0
    4.8233    1.3034   19.0919 C   0  0  0  0  0  0  0  0  0  0  0  0
    3.8835    1.8267   19.2544 H   0  0  0  0  0  0  0  0  0  0  0  0
  1  2  1  0
  2  3  2  0
  3  4  1  0
  4  5  1  0
  4  6  2  0
  6  7  1  0
  7  8  1  0
  7  9  1  0
  9 10  2  0
  9 11  1  0
 11 12  1  0
 12 13  2  0
 13 14  1  0
 13 15  1  0
 15 16  1  0
 15 17  2  0
 17 18  1  0
 17 19  1  0
 19 20  1  0
 19 21  2  0
 21 22  1  0
 11 23  1  0
 23 24  1  0
 23 25  1  0
 23 26  1  0
 11 27  1  0
 27 28  1  0
 27 29  1  0
 27 30  1  0
  6 31  1  0
 31 32  1  0
 31 33  2  0
 33 34  1  0
 33  2  1  0
 21 12  1  0
M  END
>  <cnnaffinity>  (1) 
-5.29467

>  <filename>  (1) 
CC(C)(C(=O)Nc1cccnc1)c1ccccc1Cl

$$$$
