
     RDKit          3D

 39 41  0  0  0  0  0  0  0  0999 V2000
    5.1469    1.8109   16.8780 H   0  0  0  0  0  0  0  0  0  0  0  0
    5.5672    1.3270   17.7581 C   0  0  0  0  0  0  0  0  0  0  0  0
    6.7303    0.6815   17.5908 N   0  0  0  0  0  0  0  0  0  0  0  0
    7.2720    0.0896   18.6622 C   0  0  0  0  0  0  0  0  0  0  0  0
    8.2050   -0.4411   18.4693 H   0  0  0  0  0  0  0  0  0  0  0  0
    6.6752    0.0916   19.9227 C   0  0  0  0  0  0  0  0  0  0  0  0
    7.2607   -0.6945   21.0376 C   0  0  0  0  0  0  0  0  0  0  0  0
    6.5484   -1.3792   21.7575 O   0  0  0  0  0  0  0  0  0  0  0  0
    8.6023   -0.5722   21.2177 N   0  0  0  0  0  0  0  0  0  0  0  0
    9.1093   -0.0017   20.5667 H   0  0  0  0  0  0  0  0  0  0  0  0
    9.3924   -1.3675   22.1720 C   0  0  0  0  0  0  0  0  0  0  0  0
   10.8608   -0.9179   22.1177 C   0  0  0  0  0  0  0  0  0  0  0  0
   11.8634   -1.8659   22.0886 C   0  0  0  0  0  0  0  0  0  0  0  0
   11.6230   -2.9171   22.0340 H   0  0  0  0  0  0  0  0  0  0  0  0
   13.2020   -1.6270   22.1838 N   0  0  0  0  0  0  0  0  0  0  0  0
   13.5813   -0.3887   22.3806 C   0  0  0  0  0  0  0  0  0  0  0  0
   14.6440   -0.2144   22.5374 H   0  0  0  0  0  0  0  0  0  0  0  0
   12.6824    0.7190   22.4437 C   0  0  0  0  0  0  0  0  0  0  0  0
   13.1593    2.0379   22.7071 C   0  0  0  0  0  0  0  0  0  0  0  0
   14.2276    2.1935   22.8388 H   0  0  0  0  0  0  0  0  0  0  0  0
   12.2832    3.0904   22.7825 C   0  0  0  0  0  0  0  0  0  0  0  0
   12.6398    4.0931   23.0081 H   0  0  0  0  0  0  0  0  0  0  0  0
   10.9003    2.8717   22.5585 C   0  0  0  0  0  0  0  0  0  0  0  0
   10.2230    3.7201   22.5526 H   0  0  0  0  0  0  0  0  0  0  0  0
   10.4154    1.6027   22.3061 C   0  0  0  0  0  0  0  0  0  0  0  0
    9.3585    1.4742   22.1256 H   0  0  0  0  0  0  0  0  0  0  0  0
   11.2857    0.4632   22.2781 C   0  0  0  0  0  0  0  0  0  0  0  0
    8.8809   -1.1798   23.6162 C   0  0  0  0  0  0  0  0  0  0  0  0
    9.5067   -1.7704   24.2945 H   0  0  0  0  0  0  0  0  0  0  0  0
    7.8367   -1.4861   23.7108 H   0  0  0  0  0  0  0  0  0  0  0  0
    8.9646   -0.1337   23.9342 H   0  0  0  0  0  0  0  0  0  0  0  0
    9.2107   -2.8401   21.7270 C   0  0  0  0  0  0  0  0  0  0  0  0
    9.6798   -2.9632   20.7413 H   0  0  0  0  0  0  0  0  0  0  0  0
    9.6210   -3.5609   22.4411 H   0  0  0  0  0  0  0  0  0  0  0  0
    8.1443   -3.0503   21.6412 H   0  0  0  0  0  0  0  0  0  0  0  0
    5.4479    0.7553   20.0866 C   0  0  0  0  0  0  0  0  0  0  0  0
    4.9423    0.7437   21.0549 H   0  0  0  0  0  0  0  0  0  0  0  0
    4.8968    1.3990   18.9847 C   0  0  0  0  0  0  0  0  0  0  0  0
    3.9610    1.9404   19.0605 H   0  0  0  0  0  0  0  0  0  0  0  0
  1  2  1  0
  2  3  2  0
  3  4  1  0
  4  5  1  0
  4  6  2  0
  6  7  1  0
  7  8  2  0
  7  9  1  0
  9 10  1  0
  9 11  1  0
 11 12  1  0
 12 13  2  0
 13 14  1  0
 13 15  1  0
 15 16  2  0
 16 17  1  0
 16 18  1  0
 18 19  2  0
 19 20  1  0
 19 21  1  0
 21 22  1  0
 21 23  2  0
 23 24  1  0
 23 25  1  0
 25 26  1  0
 25 27  2  0
 11 28  1  0
 28 29  1  0
 28 30  1  0
 28 31  1  0
 11 32  1  0
 32 33  1  0
 32 34  1  0
 32 35  1  0
  6 36  1  0
 36 37  1  0
 36 38  2  0
 38 39  1  0
 38  2  1  0
 27 12  1  0
 27 18  1  0
M  END
>  <cnnaffinity>  (1) 
-5.94183

>  <filename>  (1) 
CC(C)(NC(=O)c1cccnc1)c1cncc2ccccc12

$$$$
