
     RDKit          3D

 34 35  0  0  0  0  0  0  0  0999 V2000
    4.9630    1.8106   16.9686 H   0  0  0  0  0  0  0  0  0  0  0  0
    5.4440    1.3083   17.8067 C   0  0  0  0  0  0  0  0  0  0  0  0
    6.6144    0.7034   17.5379 N   0  0  0  0  0  0  0  0  0  0  0  0
    7.2237    0.0633   18.5465 C   0  0  0  0  0  0  0  0  0  0  0  0
    8.1728   -0.4130   18.3163 H   0  0  0  0  0  0  0  0  0  0  0  0
    6.7059   -0.0254   19.8593 C   0  0  0  0  0  0  0  0  0  0  0  0
    7.3903   -0.7184   20.9031 N   0  0  0  0  0  0  0  0  0  0  0  0
    8.2752   -0.3363   21.2091 H   0  0  0  0  0  0  0  0  0  0  0  0
    6.7898   -1.5655   21.8088 C   0  0  0  0  0  0  0  0  0  0  0  0
    5.7285   -2.1177   21.5701 O   0  0  0  0  0  0  0  0  0  0  0  0
    7.6429   -1.9505   23.0707 C   0  0  0  0  0  0  0  0  0  0  0  0
    8.6202   -0.8419   23.5419 C   0  0  0  0  0  0  0  0  0  0  0  0
    9.9883   -1.1238   23.7394 C   0  0  0  0  0  0  0  0  0  0  0  0
   10.3597   -2.1319   23.5751 H   0  0  0  0  0  0  0  0  0  0  0  0
   10.9092   -0.1495   24.1266 C   0  0  0  0  0  0  0  0  0  0  0  0
   11.9589   -0.3758   24.2553 H   0  0  0  0  0  0  0  0  0  0  0  0
   10.4718    1.1525   24.3496 C   0  0  0  0  0  0  0  0  0  0  0  0
   11.6289    2.4047   24.6724 Cl  0  0  0  0  0  0  0  0  0  0  0  0
    9.1180    1.4682   24.2732 C   0  0  0  0  0  0  0  0  0  0  0  0
    8.7743    2.4659   24.5218 H   0  0  0  0  0  0  0  0  0  0  0  0
    8.2095    0.4766   23.8747 C   0  0  0  0  0  0  0  0  0  0  0  0
    6.5446    1.0002   23.7695 Cl  0  0  0  0  0  0  0  0  0  0  0  0
    6.7288   -2.3190   24.2619 C   0  0  0  0  0  0  0  0  0  0  0  0
    6.0222   -3.1021   23.9727 H   0  0  0  0  0  0  0  0  0  0  0  0
    7.3452   -2.6938   25.0877 H   0  0  0  0  0  0  0  0  0  0  0  0
    6.1569   -1.4613   24.6261 H   0  0  0  0  0  0  0  0  0  0  0  0
    8.3779   -3.2523   22.6200 C   0  0  0  0  0  0  0  0  0  0  0  0
    9.0933   -3.0525   21.8116 H   0  0  0  0  0  0  0  0  0  0  0  0
    7.6501   -3.9840   22.2542 H   0  0  0  0  0  0  0  0  0  0  0  0
    8.9140   -3.7166   23.4568 H   0  0  0  0  0  0  0  0  0  0  0  0
    5.4839    0.6064   20.1198 C   0  0  0  0  0  0  0  0  0  0  0  0
    5.0671    0.5752   21.1273 H   0  0  0  0  0  0  0  0  0  0  0  0
    4.8509    1.2891   19.0730 C   0  0  0  0  0  0  0  0  0  0  0  0
    3.9130    1.8094   19.2296 H   0  0  0  0  0  0  0  0  0  0  0  0
  1  2  1  0
  2  3  2  0
  3  4  1  0
  4  5  1  0
  4  6  2  0
  6  7  1  0
  7  8  1  0
  7  9  1  0
  9 10  2  0
  9 11  1  0
 11 12  1  0
 12 13  2  0
 13 14  1  0
 13 15  1  0
 15 16  1  0
 15 17  2  0
 17 18  1  0
 17 19  1  0
 19 20  1  0
 19 21  2  0
 21 22  1  0
 11 23  1  0
 23 24  1  0
 23 25  1  0
 23 26  1  0
 11 27  1  0
 27 28  1  0
 27 29  1  0
 27 30  1  0
  6 31  1  0
 31 32  1  0
 31 33  2  0
 33 34  1  0
 33  2  1  0
 21 12  1  0
M  END
>  <cnnaffinity>  (1) 
-5.40601

>  <filename>  (1) 
CC(C)(C(=O)Nc1cccnc1)c1ccc(Cl)cc1Cl

$$$$
