
     RDKit          3D

 33 34  0  0  0  0  0  0  0  0999 V2000
    4.9912    1.9018   16.9129 H   0  0  0  0  0  0  0  0  0  0  0  0
    5.4372    1.3720   17.7511 C   0  0  0  0  0  0  0  0  0  0  0  0
    6.6187    0.7909   17.5030 N   0  0  0  0  0  0  0  0  0  0  0  0
    7.2170    0.1586   18.5143 C   0  0  0  0  0  0  0  0  0  0  0  0
    8.2112   -0.2418   18.3202 H   0  0  0  0  0  0  0  0  0  0  0  0
    6.6345   -0.0104   19.7878 C   0  0  0  0  0  0  0  0  0  0  0  0
    7.3920   -0.8082   20.7923 C   0  0  0  0  0  0  0  0  0  0  0  0
    8.6917   -0.5777   20.8043 N   0  0  0  0  0  0  0  0  0  0  0  0
    9.4188   -1.0636   21.8015 N   0  0  0  0  0  0  0  0  0  0  0  0
   10.7528   -0.8524   21.5824 O   0  0  0  0  0  0  0  0  0  0  0  0
   11.6840   -1.1978   22.6372 C   0  0  0  0  0  0  0  0  0  0  0  0
   11.6662   -2.2931   22.7478 H   0  0  0  0  0  0  0  0  0  0  0  0
   11.3398   -0.7087   23.5650 H   0  0  0  0  0  0  0  0  0  0  0  0
   13.1070   -0.7206   22.2790 C   0  0  0  0  0  0  0  0  0  0  0  0
   13.7637   -1.0646   23.0778 H   0  0  0  0  0  0  0  0  0  0  0  0
   13.2077    0.8092   22.3539 C   0  0  0  0  0  0  0  0  0  0  0  0
   12.5548    1.3004   21.6268 H   0  0  0  0  0  0  0  0  0  0  0  0
   14.2371    1.1520   22.2042 H   0  0  0  0  0  0  0  0  0  0  0  0
   12.9057    1.1461   23.3550 H   0  0  0  0  0  0  0  0  0  0  0  0
   13.6337   -1.4047   21.0058 C   0  0  0  0  0  0  0  0  0  0  0  0
   13.8770   -2.4559   21.2052 H   0  0  0  0  0  0  0  0  0  0  0  0
   14.5359   -0.9154   20.6227 H   0  0  0  0  0  0  0  0  0  0  0  0
   12.8764   -1.3941   20.2178 H   0  0  0  0  0  0  0  0  0  0  0  0
    8.9343   -1.8601   22.8027 C   0  0  0  0  0  0  0  0  0  0  0  0
    9.6594   -2.1112   23.5675 H   0  0  0  0  0  0  0  0  0  0  0  0
    7.6463   -2.2688   22.7990 C   0  0  0  0  0  0  0  0  0  0  0  0
    7.2486   -2.9371   23.5492 H   0  0  0  0  0  0  0  0  0  0  0  0
    6.7629   -1.8709   21.7036 C   0  0  0  0  0  0  0  0  0  0  0  0
    5.6529   -2.3662   21.5537 O   0  0  0  0  0  0  0  0  0  0  0  0
    5.3981    0.6155   20.0330 C   0  0  0  0  0  0  0  0  0  0  0  0
    4.9230    0.5661   21.0137 H   0  0  0  0  0  0  0  0  0  0  0  0
    4.7982    1.3244   18.9910 C   0  0  0  0  0  0  0  0  0  0  0  0
    3.8676    1.8596   19.1221 H   0  0  0  0  0  0  0  0  0  0  0  0
  1  2  1  0
  2  3  2  0
  3  4  1  0
  4  5  1  0
  4  6  2  0
  6  7  1  0
  7  8  2  0
  8  9  1  0
  9 10  1  0
 10 11  1  0
 11 12  1  0
 11 13  1  0
 11 14  1  0
 14 15  1  0
 14 16  1  0
 16 17  1  0
 16 18  1  0
 16 19  1  0
 14 20  1  0
 20 21  1  0
 20 22  1  0
 20 23  1  0
  9 24  1  0
 24 25  1  0
 24 26  2  0
 26 27  1  0
 26 28  1  0
 28 29  2  0
  6 30  1  0
 30 31  1  0
 30 32  2  0
 32 33  1  0
 32  2  1  0
 28  7  1  0
M  END
>  <cnnaffinity>  (1) 
-4.89334

>  <filename>  (1) 
CC(C)COn1ccc(=O)c(-c2cccnc2)n1

$$$$
