
     RDKit          3D

 44 46  0  0  0  0  0  0  0  0999 V2000
    4.9449    1.7887   16.9649 H   0  0  0  0  0  0  0  0  0  0  0  0
    5.4023    1.2831   17.8141 C   0  0  0  0  0  0  0  0  0  0  0  0
    6.5466    0.6333   17.5577 N   0  0  0  0  0  0  0  0  0  0  0  0
    7.1527    0.0247   18.5867 C   0  0  0  0  0  0  0  0  0  0  0  0
    8.0895   -0.4794   18.3454 H   0  0  0  0  0  0  0  0  0  0  0  0
    6.6757    0.0321   19.9143 C   0  0  0  0  0  0  0  0  0  0  0  0
    7.4403   -0.6006   21.0813 C   0  0  2  0  0  0  0  0  0  0  0  0
    7.0504   -0.1549   22.0075 H   0  0  0  0  0  0  0  0  0  0  0  0
    8.9457   -0.2770   21.0667 C   0  0  0  0  0  0  0  0  0  0  0  0
    9.5008    0.8018   20.9801 O   0  0  0  0  0  0  0  0  0  0  0  0
    9.6198   -1.4448   21.1733 N   0  0  0  0  0  0  0  0  0  0  0  0
   10.6103   -1.3336   21.3058 H   0  0  0  0  0  0  0  0  0  0  0  0
    8.8331   -2.6148   21.4754 C   0  0  0  0  0  0  0  0  0  0  0  0
    9.1361   -3.4694   20.8585 H   0  0  0  0  0  0  0  0  0  0  0  0
    8.9312   -2.9008   22.5378 H   0  0  0  0  0  0  0  0  0  0  0  0
    7.3910   -2.1629   21.1339 C   0  0  1  0  0  0  0  0  0  0  0  0
    7.1623   -2.4669   20.1089 H   0  0  0  0  0  0  0  0  0  0  0  0
    6.3577   -2.8412   22.0155 C   0  0  0  0  0  0  0  0  0  0  0  0
    5.3879   -3.6678   21.4305 C   0  0  0  0  0  0  0  0  0  0  0  0
    5.3954   -3.7769   20.3499 H   0  0  0  0  0  0  0  0  0  0  0  0
    4.4600   -4.3611   22.2061 C   0  0  0  0  0  0  0  0  0  0  0  0
    3.7592   -5.0371   21.7269 H   0  0  0  0  0  0  0  0  0  0  0  0
    4.4429   -4.2522   23.6061 C   0  0  0  0  0  0  0  0  0  0  0  0
    3.3596   -4.9871   24.4251 C   0  0  0  0  0  0  0  0  0  0  0  0
    1.9620   -4.3880   24.1299 C   0  0  0  0  0  0  0  0  0  0  0  0
    1.7117   -4.4634   23.0653 H   0  0  0  0  0  0  0  0  0  0  0  0
    1.9070   -3.3308   24.4161 H   0  0  0  0  0  0  0  0  0  0  0  0
    1.1879   -4.9298   24.6876 H   0  0  0  0  0  0  0  0  0  0  0  0
    3.3242   -6.4845   24.0357 C   0  0  0  0  0  0  0  0  0  0  0  0
    4.2884   -6.9747   24.2130 H   0  0  0  0  0  0  0  0  0  0  0  0
    2.5560   -7.0066   24.6180 H   0  0  0  0  0  0  0  0  0  0  0  0
    3.0781   -6.6228   22.9774 H   0  0  0  0  0  0  0  0  0  0  0  0
    3.6069   -4.8851   25.9447 C   0  0  0  0  0  0  0  0  0  0  0  0
    2.8158   -5.4116   26.4898 H   0  0  0  0  0  0  0  0  0  0  0  0
    3.6035   -3.8406   26.2844 H   0  0  0  0  0  0  0  0  0  0  0  0
    4.5708   -5.3273   26.2297 H   0  0  0  0  0  0  0  0  0  0  0  0
    5.4420   -3.4538   24.1907 C   0  0  0  0  0  0  0  0  0  0  0  0
    5.5183   -3.4030   25.2692 H   0  0  0  0  0  0  0  0  0  0  0  0
    6.3805   -2.7682   23.4132 C   0  0  0  0  0  0  0  0  0  0  0  0
    7.1615   -2.1997   23.9090 H   0  0  0  0  0  0  0  0  0  0  0  0
    5.4593    0.6858   20.1415 C   0  0  0  0  0  0  0  0  0  0  0  0
    5.0337    0.6895   21.1458 H   0  0  0  0  0  0  0  0  0  0  0  0
    4.8115    1.3254   19.0801 C   0  0  0  0  0  0  0  0  0  0  0  0
    3.8810    1.8625   19.2202 H   0  0  0  0  0  0  0  0  0  0  0  0
  1  2  1  0
  2  3  2  0
  3  4  1  0
  4  5  1  0
  4  6  2  0
  6  7  1  0
  7  8  1  1
  7  9  1  0
  9 10  2  0
  9 11  1  0
 11 12  1  0
 11 13  1  0
 13 14  1  0
 13 15  1  0
 13 16  1  0
 16 17  1  6
 16 18  1  0
 18 19  2  0
 19 20  1  0
 19 21  1  0
 21 22  1  0
 21 23  2  0
 23 24  1  0
 24 25  1  0
 25 26  1  0
 25 27  1  0
 25 28  1  0
 24 29  1  0
 29 30  1  0
 29 31  1  0
 29 32  1  0
 24 33  1  0
 33 34  1  0
 33 35  1  0
 33 36  1  0
 23 37  1  0
 37 38  1  0
 37 39  2  0
 39 40  1  0
  6 41  1  0
 41 42  1  0
 41 43  2  0
 43 44  1  0
 43  2  1  0
 16  7  1  0
 39 18  1  0
M  END
>  <cnnaffinity>  (1) 
-4.93176

>  <filename>  (1) 
CC(C)(C)c1ccc([C@@H]2CNC(=O)[C@H]2c2cccnc2)cc1

$$$$
