
     RDKit          3D

 37 38  0  0  0  0  0  0  0  0999 V2000
    5.0905    1.8049   16.9834 H   0  0  0  0  0  0  0  0  0  0  0  0
    5.5454    1.2958   17.8316 C   0  0  0  0  0  0  0  0  0  0  0  0
    6.7405    0.7204   17.6043 N   0  0  0  0  0  0  0  0  0  0  0  0
    7.3393    0.0943   18.6226 C   0  0  0  0  0  0  0  0  0  0  0  0
    8.3191   -0.3388   18.4288 H   0  0  0  0  0  0  0  0  0  0  0  0
    6.7540   -0.0359   19.8945 C   0  0  0  0  0  0  0  0  0  0  0  0
    7.4306   -0.7648   20.9184 N   0  0  0  0  0  0  0  0  0  0  0  0
    8.8099   -0.5347   20.9629 N   0  0  0  0  0  0  0  0  0  0  0  0
    9.4513   -0.8877   22.0217 C   0  0  0  0  0  0  0  0  0  0  0  0
   10.9334   -0.5752   22.0761 C   0  0  0  0  0  0  0  0  0  0  0  0
   11.4018   -1.2103   22.8344 H   0  0  0  0  0  0  0  0  0  0  0  0
   11.3748   -0.8682   21.1164 H   0  0  0  0  0  0  0  0  0  0  0  0
   11.2252    0.9239   22.3370 C   0  0  0  0  0  0  0  0  0  0  0  0
   10.6558    1.2720   23.2142 H   0  0  0  0  0  0  0  0  0  0  0  0
   10.8287    1.4734   21.4741 H   0  0  0  0  0  0  0  0  0  0  0  0
   12.6912    1.3478   22.5550 C   0  0  0  0  0  0  0  0  0  0  0  0
   13.3138    0.9543   21.7384 H   0  0  0  0  0  0  0  0  0  0  0  0
   12.7900    2.8828   22.5614 C   0  0  0  0  0  0  0  0  0  0  0  0
   12.0711    3.2867   23.2868 H   0  0  0  0  0  0  0  0  0  0  0  0
   12.5640    3.3175   21.5789 H   0  0  0  0  0  0  0  0  0  0  0  0
   13.7847    3.2298   22.8718 H   0  0  0  0  0  0  0  0  0  0  0  0
   13.2899    0.7937   23.8472 C   0  0  0  0  0  0  0  0  0  0  0  0
   13.2142   -0.2924   23.8966 H   0  0  0  0  0  0  0  0  0  0  0  0
   14.3528    1.0375   23.8759 H   0  0  0  0  0  0  0  0  0  0  0  0
   12.8285    1.2115   24.7522 H   0  0  0  0  0  0  0  0  0  0  0  0
    8.7335   -1.4977   23.2178 C   0  0  0  0  0  0  0  0  0  0  0  0
    8.3575   -0.6673   23.8358 H   0  0  0  0  0  0  0  0  0  0  0  0
    9.4388   -2.0579   23.8462 H   0  0  0  0  0  0  0  0  0  0  0  0
    7.5499   -2.3771   22.7842 C   0  0  0  0  0  0  0  0  0  0  0  0
    7.8557   -3.3912   22.4979 H   0  0  0  0  0  0  0  0  0  0  0  0
    6.8156   -2.4962   23.5849 H   0  0  0  0  0  0  0  0  0  0  0  0
    6.7757   -1.8158   21.6012 C   0  0  0  0  0  0  0  0  0  0  0  0
    5.6968   -2.2702   21.2668 O   0  0  0  0  0  0  0  0  0  0  0  0
    5.5054    0.5583   20.1245 C   0  0  0  0  0  0  0  0  0  0  0  0
    5.0258    0.4807   21.0987 H   0  0  0  0  0  0  0  0  0  0  0  0
    4.9019    1.2546   19.0716 C   0  0  0  0  0  0  0  0  0  0  0  0
    3.9484    1.7620   19.1936 H   0  0  0  0  0  0  0  0  0  0  0  0
  1  2  1  0
  2  3  2  0
  3  4  1  0
  4  5  1  0
  4  6  2  0
  6  7  1  0
  7  8  1  0
  8  9  2  0
  9 10  1  0
 10 11  1  0
 10 12  1  0
 10 13  1  0
 13 14  1  0
 13 15  1  0
 13 16  1  0
 16 17  1  0
 16 18  1  0
 18 19  1  0
 18 20  1  0
 18 21  1  0
 16 22  1  0
 22 23  1  0
 22 24  1  0
 22 25  1  0
  9 26  1  0
 26 27  1  0
 26 28  1  0
 26 29  1  0
 29 30  1  0
 29 31  1  0
 29 32  1  0
 32 33  2  0
  6 34  1  0
 34 35  1  0
 34 36  2  0
 36 37  1  0
 36  2  1  0
 32  7  1  0
M  END
>  <cnnaffinity>  (1) 
-5.15717

>  <filename>  (1) 
CC(C)CCC1=NN(c2cccnc2)C(=O)CC1

$$$$
