
     RDKit          3D

 33 34  0  0  0  0  0  0  0  0999 V2000
    5.0508    1.7518   17.0143 H   0  0  0  0  0  0  0  0  0  0  0  0
    5.4815    1.2494   17.8794 C   0  0  0  0  0  0  0  0  0  0  0  0
    6.6236    0.5796   17.6605 N   0  0  0  0  0  0  0  0  0  0  0  0
    7.1975   -0.0560   18.6888 C   0  0  0  0  0  0  0  0  0  0  0  0
    8.1330   -0.5783   18.4817 H   0  0  0  0  0  0  0  0  0  0  0  0
    6.6458   -0.0681   19.9866 C   0  0  0  0  0  0  0  0  0  0  0  0
    7.2783   -0.7766   21.0569 N   0  0  0  0  0  0  0  0  0  0  0  0
    6.6868   -1.8201   21.7903 C   0  0  0  0  0  0  0  0  0  0  0  0
    5.6422   -2.0492   21.6684 H   0  0  0  0  0  0  0  0  0  0  0  0
    7.6135   -2.2665   22.6716 C   0  0  0  0  0  0  0  0  0  0  0  0
    7.7695   -3.2518   23.6245 N   0  0  0  0  0  0  0  0  0  0  0  0
    8.4092   -2.9167   24.3298 H   0  0  0  0  0  0  0  0  0  0  0  0
    6.6359   -3.9480   24.2442 C   0  0  0  0  0  0  0  0  0  0  0  0
    5.9795   -4.8156   23.1632 C   0  0  0  0  0  0  0  0  0  0  0  0
    5.0932   -5.3399   23.5373 H   0  0  0  0  0  0  0  0  0  0  0  0
    5.6668   -4.2046   22.3099 H   0  0  0  0  0  0  0  0  0  0  0  0
    6.6949   -5.5662   22.8036 H   0  0  0  0  0  0  0  0  0  0  0  0
    5.6636   -2.9300   24.8611 C   0  0  0  0  0  0  0  0  0  0  0  0
    5.4826   -2.1224   24.1528 H   0  0  0  0  0  0  0  0  0  0  0  0
    6.0931   -2.4701   25.7627 H   0  0  0  0  0  0  0  0  0  0  0  0
    4.7132   -3.4029   25.1294 H   0  0  0  0  0  0  0  0  0  0  0  0
    7.2218   -4.8167   25.3624 C   0  0  0  0  0  0  0  0  0  0  0  0
    7.6756   -4.1776   26.1326 H   0  0  0  0  0  0  0  0  0  0  0  0
    6.4448   -5.4288   25.8386 H   0  0  0  0  0  0  0  0  0  0  0  0
    8.0017   -5.4842   24.9799 H   0  0  0  0  0  0  0  0  0  0  0  0
    8.7179   -1.4713   22.4977 N   0  0  0  0  0  0  0  0  0  0  0  0
    9.5918   -1.5515   22.9816 H   0  0  0  0  0  0  0  0  0  0  0  0
    8.5632   -0.5618   21.5094 C   0  0  0  0  0  0  0  0  0  0  0  0
    9.7296    0.5073   20.9935 S   0  0  0  0  0  0  0  0  0  0  0  0
    5.4511    0.6295   20.2047 C   0  0  0  0  0  0  0  0  0  0  0  0
    5.0020    0.6367   21.1979 H   0  0  0  0  0  0  0  0  0  0  0  0
    4.8593    1.3052   19.1303 C   0  0  0  0  0  0  0  0  0  0  0  0
    3.9380    1.8681   19.2430 H   0  0  0  0  0  0  0  0  0  0  0  0
  1  2  1  0
  2  3  2  0
  3  4  1  0
  4  5  1  0
  4  6  2  0
  6  7  1  0
  7  8  1  0
  8  9  1  0
  8 10  2  0
 10 11  1  0
 11 12  1  0
 11 13  1  0
 13 14  1  0
 14 15  1  0
 14 16  1  0
 14 17  1  0
 13 18  1  0
 18 19  1  0
 18 20  1  0
 18 21  1  0
 13 22  1  0
 22 23  1  0
 22 24  1  0
 22 25  1  0
 10 26  1  0
 26 27  1  0
 26 28  1  0
 28 29  2  0
  6 30  1  0
 30 31  1  0
 30 32  2  0
 32 33  1  0
 32  2  1  0
 28  7  1  0
M  END
>  <cnnaffinity>  (1) 
-5.03174

>  <filename>  (1) 
CC(C)(C)Nc1cn(-c2cccnc2)c(=S)[nH]1

$$$$
