
     RDKit          3D

 39 40  0  0  0  0  0  0  0  0999 V2000
    4.9498    1.8178   17.0133 H   0  0  0  0  0  0  0  0  0  0  0  0
    5.4315    1.2936   17.8355 C   0  0  0  0  0  0  0  0  0  0  0  0
    6.5919    0.6792   17.5561 N   0  0  0  0  0  0  0  0  0  0  0  0
    7.2096    0.0405   18.5645 C   0  0  0  0  0  0  0  0  0  0  0  0
    8.1528   -0.4470   18.3241 H   0  0  0  0  0  0  0  0  0  0  0  0
    6.7175   -0.0322   19.8923 C   0  0  0  0  0  0  0  0  0  0  0  0
    7.3650   -0.7364   20.9396 N   0  0  0  0  0  0  0  0  0  0  0  0
    6.6562   -0.9902   21.6313 H   0  0  0  0  0  0  0  0  0  0  0  0
    8.5314   -0.1511   21.6502 C   0  0  0  0  0  0  0  0  0  0  0  0
    8.8132   -1.1384   22.7918 C   0  0  0  0  0  0  0  0  0  0  0  0
    9.7208   -0.8897   23.3545 H   0  0  0  0  0  0  0  0  0  0  0  0
    7.9725   -1.1543   23.4985 H   0  0  0  0  0  0  0  0  0  0  0  0
    8.9336   -2.1479   22.3837 H   0  0  0  0  0  0  0  0  0  0  0  0
    9.7029   -0.1033   20.6715 C   0  0  0  0  0  0  0  0  0  0  0  0
   10.6439    0.1348   21.1727 H   0  0  0  0  0  0  0  0  0  0  0  0
    9.5338    0.6667   19.9124 H   0  0  0  0  0  0  0  0  0  0  0  0
    9.7984   -1.0715   20.1725 H   0  0  0  0  0  0  0  0  0  0  0  0
    8.1538    1.2513   22.1980 C   0  0  0  0  0  0  0  0  0  0  0  0
    7.8739    1.8977   21.3553 H   0  0  0  0  0  0  0  0  0  0  0  0
    7.2522    1.1554   22.8177 H   0  0  0  0  0  0  0  0  0  0  0  0
    9.2013    1.9762   23.0136 C   0  0  0  0  0  0  0  0  0  0  0  0
    8.7580    2.8831   23.4521 H   0  0  0  0  0  0  0  0  0  0  0  0
    9.5946    1.3632   23.8389 H   0  0  0  0  0  0  0  0  0  0  0  0
   10.2587    2.3476   22.1402 O   0  0  0  0  0  0  0  0  0  0  0  0
   11.2699    3.1223   22.6165 C   0  0  0  0  0  0  0  0  0  0  0  0
   12.3413    3.3258   21.7317 C   0  0  0  0  0  0  0  0  0  0  0  0
   12.2734    2.8834   20.7450 H   0  0  0  0  0  0  0  0  0  0  0  0
   13.4317    4.1023   22.1230 C   0  0  0  0  0  0  0  0  0  0  0  0
   14.2742    4.2390   21.4451 H   0  0  0  0  0  0  0  0  0  0  0  0
   13.4490    4.7088   23.3822 C   0  0  0  0  0  0  0  0  0  0  0  0
   14.2957    5.3219   23.6722 H   0  0  0  0  0  0  0  0  0  0  0  0
   12.3678    4.5365   24.2469 C   0  0  0  0  0  0  0  0  0  0  0  0
   12.3682    4.9975   25.2323 H   0  0  0  0  0  0  0  0  0  0  0  0
   11.2866    3.7311   23.8788 C   0  0  0  0  0  0  0  0  0  0  0  0
   10.4601    3.5858   24.5660 H   0  0  0  0  0  0  0  0  0  0  0  0
    5.4882    0.5990   20.1465 C   0  0  0  0  0  0  0  0  0  0  0  0
    5.0714    0.5804   21.1553 H   0  0  0  0  0  0  0  0  0  0  0  0
    4.8450    1.2752   19.1071 C   0  0  0  0  0  0  0  0  0  0  0  0
    3.9061    1.7917   19.2710 H   0  0  0  0  0  0  0  0  0  0  0  0
  1  2  1  0
  2  3  2  0
  3  4  1  0
  4  5  1  0
  4  6  2  0
  6  7  1  0
  7  8  1  0
  7  9  1  0
  9 10  1  0
 10 11  1  0
 10 12  1  0
 10 13  1  0
  9 14  1  0
 14 15  1  0
 14 16  1  0
 14 17  1  0
  9 18  1  0
 18 19  1  0
 18 20  1  0
 18 21  1  0
 21 22  1  0
 21 23  1  0
 21 24  1  0
 24 25  1  0
 25 26  2  0
 26 27  1  0
 26 28  1  0
 28 29  1  0
 28 30  2  0
 30 31  1  0
 30 32  1  0
 32 33  1  0
 32 34  2  0
 34 35  1  0
  6 36  1  0
 36 37  1  0
 36 38  2  0
 38 39  1  0
 38  2  1  0
 34 25  1  0
M  END
>  <cnnaffinity>  (1) 
-4.51142

>  <filename>  (1) 
CC(C)(CCOc1ccccc1)Nc1cccnc1

$$$$
