
     RDKit          3D

 33 35  0  0  0  0  0  0  0  0999 V2000
    4.9477    1.7801   16.9937 H   0  0  0  0  0  0  0  0  0  0  0  0
    5.4072    1.2847   17.8467 C   0  0  0  0  0  0  0  0  0  0  0  0
    6.5684    0.6616   17.6018 N   0  0  0  0  0  0  0  0  0  0  0  0
    7.1700    0.0504   18.6241 C   0  0  0  0  0  0  0  0  0  0  0  0
    8.1189   -0.4256   18.3774 H   0  0  0  0  0  0  0  0  0  0  0  0
    6.6446    0.0101   19.9279 C   0  0  0  0  0  0  0  0  0  0  0  0
    7.3477   -0.6898   21.0141 C   0  0  0  0  0  0  0  0  0  0  0  0
    6.8680   -0.7459   22.2154 N   0  0  0  0  0  0  0  0  0  0  0  0
    7.7152   -1.4614   23.0011 N   0  0  0  0  0  0  0  0  0  0  0  0
    7.7433   -1.8763   24.3213 C   0  0  0  0  0  0  0  0  0  0  0  0
    6.7383   -1.5899   25.2614 N   0  0  0  0  0  0  0  0  0  0  0  0
    5.8636   -1.2145   24.9244 H   0  0  0  0  0  0  0  0  0  0  0  0
    6.8717   -1.8011   26.6213 C   0  0  0  0  0  0  0  0  0  0  0  0
    7.9447   -2.0842   27.1264 O   0  0  0  0  0  0  0  0  0  0  0  0
    5.6012   -1.6718   27.4773 C   0  0  0  0  0  0  0  0  0  0  0  0
    5.9679   -1.9647   28.4638 H   0  0  0  0  0  0  0  0  0  0  0  0
    4.4807   -2.6543   27.0766 C   0  0  0  0  0  0  0  0  0  0  0  0
    4.0603   -2.4135   26.0932 H   0  0  0  0  0  0  0  0  0  0  0  0
    3.6564   -2.6244   27.8018 H   0  0  0  0  0  0  0  0  0  0  0  0
    4.8496   -3.6860   27.0363 H   0  0  0  0  0  0  0  0  0  0  0  0
    5.0978   -0.2203   27.5831 C   0  0  0  0  0  0  0  0  0  0  0  0
    5.8962    0.4529   27.9168 H   0  0  0  0  0  0  0  0  0  0  0  0
    4.2770   -0.1463   28.3094 H   0  0  0  0  0  0  0  0  0  0  0  0
    4.7217    0.1479   26.6214 H   0  0  0  0  0  0  0  0  0  0  0  0
    8.9039   -2.6167   24.4192 C   0  0  0  0  0  0  0  0  0  0  0  0
    9.2459   -3.0972   25.3237 H   0  0  0  0  0  0  0  0  0  0  0  0
    9.5871   -2.6753   23.2301 N   0  0  0  0  0  0  0  0  0  0  0  0
    8.8414   -1.9688   22.4203 C   0  0  0  0  0  0  0  0  0  0  0  0
    8.8940   -1.5141   20.7596 S   0  0  0  0  0  0  0  0  0  0  0  0
    5.4196    0.6604   20.1708 C   0  0  0  0  0  0  0  0  0  0  0  0
    4.9860    0.6495   21.1734 H   0  0  0  0  0  0  0  0  0  0  0  0
    4.8010    1.3105   19.1062 C   0  0  0  0  0  0  0  0  0  0  0  0
    3.8705    1.8461   19.2406 H   0  0  0  0  0  0  0  0  0  0  0  0
  1  2  1  0
  2  3  2  0
  3  4  1  0
  4  5  1  0
  4  6  2  0
  6  7  1  0
  7  8  2  0
  8  9  1  0
  9 10  1  0
 10 11  1  0
 11 12  1  0
 11 13  1  0
 13 14  2  0
 13 15  1  0
 15 16  1  0
 15 17  1  0
 17 18  1  0
 17 19  1  0
 17 20  1  0
 15 21  1  0
 21 22  1  0
 21 23  1  0
 21 24  1  0
 10 25  2  0
 25 26  1  0
 25 27  1  0
 27 28  2  0
 28 29  1  0
  6 30  1  0
 30 31  1  0
 30 32  2  0
 32 33  1  0
 32  2  1  0
 29  7  1  0
 28  9  1  0
M  END
>  <cnnaffinity>  (1) 
-5.21934

>  <filename>  (1) 
CC(C)C(=O)Nc1cnc2sc(-c3cccnc3)nn12

$$$$
