
     RDKit          3D

 35 37  0  0  0  0  0  0  0  0999 V2000
    5.4195    1.9028   16.8136 H   0  0  0  0  0  0  0  0  0  0  0  0
    5.6822    1.3461   17.7102 C   0  0  0  0  0  0  0  0  0  0  0  0
    6.8166    0.6316   17.6528 N   0  0  0  0  0  0  0  0  0  0  0  0
    7.1726   -0.0457   18.7509 C   0  0  0  0  0  0  0  0  0  0  0  0
    8.1106   -0.5931   18.6901 H   0  0  0  0  0  0  0  0  0  0  0  0
    6.4164   -0.0871   19.9427 C   0  0  0  0  0  0  0  0  0  0  0  0
    6.8279   -0.9256   21.0976 C   0  0  0  0  0  0  0  0  0  0  0  0
    6.1038   -1.9163   21.6630 C   0  0  0  0  0  0  0  0  0  0  0  0
    5.1088   -2.2451   21.4042 H   0  0  0  0  0  0  0  0  0  0  0  0
    6.9409   -2.7539   22.9422 S   0  0  0  0  0  0  0  0  0  0  0  0
    8.3431   -1.7725   22.6525 C   0  0  0  0  0  0  0  0  0  0  0  0
    9.6200   -1.7919   22.9833 N   0  0  0  0  0  0  0  0  0  0  0  0
   10.1281   -0.8140   22.1803 C   0  0  0  0  0  0  0  0  0  0  0  0
   11.6058   -0.5978   22.0657 C   0  0  0  0  0  0  0  0  0  0  0  0
   11.8252   -0.5810   20.9900 H   0  0  0  0  0  0  0  0  0  0  0  0
   12.0821   -1.5011   22.4646 H   0  0  0  0  0  0  0  0  0  0  0  0
   12.2543    0.6063   22.7932 C   0  0  0  0  0  0  0  0  0  0  0  0
   12.3637    0.3618   23.8582 H   0  0  0  0  0  0  0  0  0  0  0  0
   13.2778    0.7072   22.3950 H   0  0  0  0  0  0  0  0  0  0  0  0
   11.5759    1.9798   22.6789 C   0  0  0  0  0  0  0  0  0  0  0  0
   10.5344    1.8866   23.0098 H   0  0  0  0  0  0  0  0  0  0  0  0
   11.5500    2.4690   21.2342 C   0  0  0  0  0  0  0  0  0  0  0  0
   12.4706    2.2231   20.7073 H   0  0  0  0  0  0  0  0  0  0  0  0
   11.4613    3.5511   21.1900 H   0  0  0  0  0  0  0  0  0  0  0  0
   10.7172    2.0156   20.6903 H   0  0  0  0  0  0  0  0  0  0  0  0
   12.2394    2.9867   23.6323 C   0  0  0  0  0  0  0  0  0  0  0  0
   12.0879    2.6607   24.6666 H   0  0  0  0  0  0  0  0  0  0  0  0
   11.7866    3.9825   23.5363 H   0  0  0  0  0  0  0  0  0  0  0  0
   13.3204    3.0868   23.4556 H   0  0  0  0  0  0  0  0  0  0  0  0
    9.2488   -0.1992   21.3962 N   0  0  0  0  0  0  0  0  0  0  0  0
    8.0922   -0.8499   21.7027 N   0  0  0  0  0  0  0  0  0  0  0  0
    5.2253    0.6603   19.9700 C   0  0  0  0  0  0  0  0  0  0  0  0
    4.6111    0.6874   20.8720 H   0  0  0  0  0  0  0  0  0  0  0  0
    4.8636    1.3995   18.8439 C   0  0  0  0  0  0  0  0  0  0  0  0
    3.9767    2.0269   18.8322 H   0  0  0  0  0  0  0  0  0  0  0  0
  1  2  1  0
  2  3  2  0
  3  4  1  0
  4  5  1  0
  4  6  2  0
  6  7  1  0
  7  8  2  0
  8  9  1  0
  8 10  1  0
 10 11  1  0
 11 12  2  0
 12 13  1  0
 13 14  1  0
 14 15  1  0
 14 16  1  0
 14 17  1  0
 17 18  1  0
 17 19  1  0
 17 20  1  0
 20 21  1  0
 20 22  1  0
 22 23  1  0
 22 24  1  0
 22 25  1  0
 20 26  1  0
 26 27  1  0
 26 28  1  0
 26 29  1  0
 13 30  2  0
 30 31  1  0
  6 32  1  0
 32 33  1  0
 32 34  2  0
 34 35  1  0
 34  2  1  0
 31  7  1  0
 31 11  1  0
M  END
>  <cnnaffinity>  (1) 
-5.41286

>  <filename>  (1) 
CC(C)CCc1nc2scc(-c3cccnc3)n2n1

$$$$
