
     RDKit          3D

 32 33  0  0  0  0  0  0  0  0999 V2000
    5.0767    1.8523   17.0603 H   0  0  0  0  0  0  0  0  0  0  0  0
    5.4911    1.2633   17.8775 C   0  0  0  0  0  0  0  0  0  0  0  0
    6.6285    0.5986   17.6177 N   0  0  0  0  0  0  0  0  0  0  0  0
    7.1790   -0.0984   18.6198 C   0  0  0  0  0  0  0  0  0  0  0  0
    8.0948   -0.6475   18.4006 H   0  0  0  0  0  0  0  0  0  0  0  0
    6.6313   -0.1740   19.9134 C   0  0  0  0  0  0  0  0  0  0  0  0
    7.2898   -0.9168   20.9503 N   0  0  0  0  0  0  0  0  0  0  0  0
    8.4263   -0.5347   21.6689 C   0  0  0  0  0  0  0  0  0  0  0  0
    9.2845    0.6254   21.1939 C   0  0  0  0  0  0  0  0  0  0  0  0
    8.5816    1.4038   20.8588 H   0  0  0  0  0  0  0  0  0  0  0  0
    9.7755    0.2528   20.2751 H   0  0  0  0  0  0  0  0  0  0  0  0
   10.2847    1.2288   22.0899 N   0  0  0  0  0  0  0  0  0  0  0  0
   10.0904    0.9951   23.0644 H   0  0  0  0  0  0  0  0  0  0  0  0
   11.6873    0.9116   21.8101 C   0  0  0  0  0  0  0  0  0  0  0  0
   11.8686    1.2265   20.7688 H   0  0  0  0  0  0  0  0  0  0  0  0
   11.9756   -0.5836   21.9525 C   0  0  0  0  0  0  0  0  0  0  0  0
   13.0358   -0.8006   21.7772 H   0  0  0  0  0  0  0  0  0  0  0  0
   11.7073   -0.9321   22.9613 H   0  0  0  0  0  0  0  0  0  0  0  0
   11.3858   -1.1540   21.2288 H   0  0  0  0  0  0  0  0  0  0  0  0
   12.5938    1.7572   22.7020 C   0  0  0  0  0  0  0  0  0  0  0  0
   13.6516    1.5153   22.5367 H   0  0  0  0  0  0  0  0  0  0  0  0
   12.3841    1.5801   23.7645 H   0  0  0  0  0  0  0  0  0  0  0  0
   12.4558    2.8236   22.5029 H   0  0  0  0  0  0  0  0  0  0  0  0
    8.6297   -1.3374   22.6747 N   0  0  0  0  0  0  0  0  0  0  0  0
    7.6144   -2.2440   22.5771 N   0  0  0  0  0  0  0  0  0  0  0  0
    7.5384   -3.0529   23.1685 H   0  0  0  0  0  0  0  0  0  0  0  0
    6.7861   -2.0713   21.5308 C   0  0  0  0  0  0  0  0  0  0  0  0
    5.5451   -3.0754   21.0534 S   0  0  0  0  0  0  0  0  0  0  0  0
    5.4258    0.4929   20.1696 C   0  0  0  0  0  0  0  0  0  0  0  0
    4.9526    0.4292   21.1527 H   0  0  0  0  0  0  0  0  0  0  0  0
    4.8572    1.2355   19.1261 C   0  0  0  0  0  0  0  0  0  0  0  0
    3.9492    1.8098   19.2760 H   0  0  0  0  0  0  0  0  0  0  0  0
  1  2  1  0
  2  3  2  0
  3  4  1  0
  4  5  1  0
  4  6  2  0
  6  7  1  0
  7  8  1  0
  8  9  1  0
  9 10  1  0
  9 11  1  0
  9 12  1  0
 12 13  1  0
 12 14  1  0
 14 15  1  0
 14 16  1  0
 16 17  1  0
 16 18  1  0
 16 19  1  0
 14 20  1  0
 20 21  1  0
 20 22  1  0
 20 23  1  0
  8 24  2  0
 24 25  1  0
 25 26  1  0
 25 27  1  0
 27 28  2  0
  6 29  1  0
 29 30  1  0
 29 31  2  0
 31 32  1  0
 31  2  1  0
 27  7  1  0
M  END
>  <cnnaffinity>  (1) 
-4.64453

>  <filename>  (1) 
CC(C)NCc1n[nH]c(=S)n1-c1cccnc1

$$$$
