
     RDKit          3D

 35 36  0  0  0  0  0  0  0  0999 V2000
    4.9307    1.7839   16.9920 H   0  0  0  0  0  0  0  0  0  0  0  0
    5.4047    1.2897   17.8384 C   0  0  0  0  0  0  0  0  0  0  0  0
    6.5591    0.6639   17.5900 N   0  0  0  0  0  0  0  0  0  0  0  0
    7.1532    0.0385   18.6197 C   0  0  0  0  0  0  0  0  0  0  0  0
    8.1042   -0.4230   18.3663 H   0  0  0  0  0  0  0  0  0  0  0  0
    6.6524   -0.0114   19.9280 C   0  0  0  0  0  0  0  0  0  0  0  0
    7.3674   -0.7569   21.0544 C   0  0  0  0  0  0  0  0  0  0  0  0
    6.6070   -1.9989   21.2416 N   0  0  0  0  0  0  0  0  0  0  0  0
    5.6480   -1.7243   21.4220 H   0  0  0  0  0  0  0  0  0  0  0  0
    7.0411   -2.9037   22.3091 C   0  0  0  0  0  0  0  0  0  0  0  0
    8.0431   -3.2625   22.0426 H   0  0  0  0  0  0  0  0  0  0  0  0
    7.1258   -2.4148   23.2955 H   0  0  0  0  0  0  0  0  0  0  0  0
    6.1064   -4.0968   22.4129 C   0  0  0  0  0  0  0  0  0  0  0  0
    6.3593   -5.2532   21.6491 C   0  0  0  0  0  0  0  0  0  0  0  0
    7.2399   -5.2839   21.0059 H   0  0  0  0  0  0  0  0  0  0  0  0
    5.5134   -6.3652   21.7138 C   0  0  0  0  0  0  0  0  0  0  0  0
    5.7231   -7.2553   21.1429 H   0  0  0  0  0  0  0  0  0  0  0  0
    4.3753   -6.3436   22.5229 C   0  0  0  0  0  0  0  0  0  0  0  0
    3.7186   -7.2089   22.5904 H   0  0  0  0  0  0  0  0  0  0  0  0
    4.0984   -5.2136   23.2849 C   0  0  0  0  0  0  0  0  0  0  0  0
    3.2363   -5.1450   23.9406 H   0  0  0  0  0  0  0  0  0  0  0  0
    4.9836   -4.1328   23.2678 C   0  0  0  0  0  0  0  0  0  0  0  0
    4.6642   -2.9037   24.4770 Cl  0  0  0  0  0  0  0  0  0  0  0  0
    7.3756    0.1061   22.3387 C   0  0  0  0  0  0  0  0  0  0  0  0
    7.6858    1.1261   22.0940 H   0  0  0  0  0  0  0  0  0  0  0  0
    8.0734   -0.2991   23.0781 H   0  0  0  0  0  0  0  0  0  0  0  0
    6.3848    0.1512   22.8062 H   0  0  0  0  0  0  0  0  0  0  0  0
    8.8191   -1.1062   20.7072 C   0  0  0  0  0  0  0  0  0  0  0  0
    9.3456   -1.5028   21.5812 H   0  0  0  0  0  0  0  0  0  0  0  0
    9.3573   -0.2258   20.3512 H   0  0  0  0  0  0  0  0  0  0  0  0
    8.8615   -1.8685   19.9333 H   0  0  0  0  0  0  0  0  0  0  0  0
    5.4324    0.6452   20.1548 C   0  0  0  0  0  0  0  0  0  0  0  0
    4.9807    0.6532   21.1483 H   0  0  0  0  0  0  0  0  0  0  0  0
    4.8065    1.3113   19.1011 C   0  0  0  0  0  0  0  0  0  0  0  0
    3.8771    1.8420   19.2525 H   0  0  0  0  0  0  0  0  0  0  0  0
  1  2  1  0
  2  3  2  0
  3  4  1  0
  4  5  1  0
  4  6  2  0
  6  7  1  0
  7  8  1  0
  8  9  1  0
  8 10  1  0
 10 11  1  0
 10 12  1  0
 10 13  1  0
 13 14  2  0
 14 15  1  0
 14 16  1  0
 16 17  1  0
 16 18  2  0
 18 19  1  0
 18 20  1  0
 20 21  1  0
 20 22  2  0
 22 23  1  0
  7 24  1  0
 24 25  1  0
 24 26  1  0
 24 27  1  0
  7 28  1  0
 28 29  1  0
 28 30  1  0
 28 31  1  0
  6 32  1  0
 32 33  1  0
 32 34  2  0
 34 35  1  0
 34  2  1  0
 22 13  1  0
M  END
>  <cnnaffinity>  (1) 
-4.65894

>  <filename>  (1) 
CC(C)(NCc1ccccc1Cl)c1cccnc1

$$$$
