
     RDKit          3D

 34 35  0  0  0  0  0  0  0  0999 V2000
    4.9556    1.7894   16.9202 H   0  0  0  0  0  0  0  0  0  0  0  0
    5.3909    1.3485   17.8127 C   0  0  0  0  0  0  0  0  0  0  0  0
    6.5699    0.7380   17.6419 N   0  0  0  0  0  0  0  0  0  0  0  0
    7.1280    0.1593   18.7079 C   0  0  0  0  0  0  0  0  0  0  0  0
    8.0658   -0.3707   18.5353 H   0  0  0  0  0  0  0  0  0  0  0  0
    6.5690    0.1940   19.9947 C   0  0  0  0  0  0  0  0  0  0  0  0
    7.2916   -0.5360   21.0680 C   0  0  0  0  0  0  0  0  0  0  0  0
    7.8399   -1.6742   20.7112 N   0  0  0  0  0  0  0  0  0  0  0  0
    8.4009   -2.4505   21.6779 C   0  0  0  0  0  0  0  0  0  0  0  0
    8.6909   -3.6224   21.5680 O   0  0  0  0  0  0  0  0  0  0  0  0
    8.6894   -1.8547   22.9047 N   0  0  0  0  0  0  0  0  0  0  0  0
    9.0326   -2.4986   23.5806 H   0  0  0  0  0  0  0  0  0  0  0  0
    8.0025   -0.7808   23.3043 C   0  0  0  0  0  0  0  0  0  0  0  0
    8.0053   -0.4731   24.6125 N   0  0  0  0  0  0  0  0  0  0  0  0
    7.4867    0.3859   24.7254 H   0  0  0  0  0  0  0  0  0  0  0  0
    7.8168   -1.3809   25.7627 C   0  0  0  0  0  0  0  0  0  0  0  0
    9.1773   -1.8546   26.2746 C   0  0  0  0  0  0  0  0  0  0  0  0
    9.8260   -1.0002   26.4839 H   0  0  0  0  0  0  0  0  0  0  0  0
    9.0643   -2.4454   27.1926 H   0  0  0  0  0  0  0  0  0  0  0  0
    9.6884   -2.4886   25.5430 H   0  0  0  0  0  0  0  0  0  0  0  0
    7.1356   -0.4974   26.8141 C   0  0  0  0  0  0  0  0  0  0  0  0
    7.7628    0.3726   27.0386 H   0  0  0  0  0  0  0  0  0  0  0  0
    6.9408   -1.0260   27.7511 H   0  0  0  0  0  0  0  0  0  0  0  0
    6.1742   -0.1306   26.4361 H   0  0  0  0  0  0  0  0  0  0  0  0
    6.9394   -2.6039   25.4397 C   0  0  0  0  0  0  0  0  0  0  0  0
    7.4410   -3.3070   24.7674 H   0  0  0  0  0  0  0  0  0  0  0  0
    6.0102   -2.2911   24.9571 H   0  0  0  0  0  0  0  0  0  0  0  0
    6.6967   -3.1533   26.3569 H   0  0  0  0  0  0  0  0  0  0  0  0
    7.3379   -0.0287   22.3769 C   0  0  0  0  0  0  0  0  0  0  0  0
    6.8648    0.8965   22.6608 H   0  0  0  0  0  0  0  0  0  0  0  0
    5.3390    0.8532   20.1639 C   0  0  0  0  0  0  0  0  0  0  0  0
    4.8386    0.9129   21.1328 H   0  0  0  0  0  0  0  0  0  0  0  0
    4.7328    1.4225   19.0431 C   0  0  0  0  0  0  0  0  0  0  0  0
    3.7753    1.9248   19.0947 H   0  0  0  0  0  0  0  0  0  0  0  0
  1  2  1  0
  2  3  2  0
  3  4  1  0
  4  5  1  0
  4  6  2  0
  6  7  1  0
  7  8  2  0
  8  9  1  0
  9 10  2  0
  9 11  1  0
 11 12  1  0
 11 13  1  0
 13 14  1  0
 14 15  1  0
 14 16  1  0
 16 17  1  0
 17 18  1  0
 17 19  1  0
 17 20  1  0
 16 21  1  0
 21 22  1  0
 21 23  1  0
 21 24  1  0
 16 25  1  0
 25 26  1  0
 25 27  1  0
 25 28  1  0
 13 29  2  0
 29 30  1  0
  6 31  1  0
 31 32  1  0
 31 33  2  0
 33 34  1  0
 33  2  1  0
 29  7  1  0
M  END
>  <cnnaffinity>  (1) 
-5.02827

>  <filename>  (1) 
CC(C)(C)Nc1cc(-c2cccnc2)nc(=O)[nH]1

$$$$
