
     RDKit          3D

 35 36  0  0  0  0  0  0  0  0999 V2000
    5.0144    1.6505   16.9483 H   0  0  0  0  0  0  0  0  0  0  0  0
    5.5627    1.1949   17.7721 C   0  0  0  0  0  0  0  0  0  0  0  0
    6.6748    0.5234   17.4363 N   0  0  0  0  0  0  0  0  0  0  0  0
    7.3968    0.0005   18.4260 C   0  0  0  0  0  0  0  0  0  0  0  0
    8.2871   -0.5492   18.1335 H   0  0  0  0  0  0  0  0  0  0  0  0
    7.0925    0.1492   19.7930 C   0  0  0  0  0  0  0  0  0  0  0  0
    8.1432   -0.3371   20.7530 C   0  0  0  0  0  0  0  0  0  0  0  0
    9.0456   -1.0317   20.3249 O   0  0  0  0  0  0  0  0  0  0  0  0
    8.0754   -0.0082   22.2949 C   0  0  0  0  0  0  0  0  0  0  0  0
    7.7664    1.4874   22.5494 C   0  0  0  0  0  0  0  0  0  0  0  0
    8.4335    2.4836   21.8088 C   0  0  0  0  0  0  0  0  0  0  0  0
    9.2320    2.1973   21.1225 H   0  0  0  0  0  0  0  0  0  0  0  0
    8.0751    3.8267   21.9432 C   0  0  0  0  0  0  0  0  0  0  0  0
    8.5289    4.5900   21.3258 H   0  0  0  0  0  0  0  0  0  0  0  0
    7.0691    4.2222   22.8255 C   0  0  0  0  0  0  0  0  0  0  0  0
    6.7966    5.2745   22.8775 H   0  0  0  0  0  0  0  0  0  0  0  0
    6.4355    3.2540   23.6119 C   0  0  0  0  0  0  0  0  0  0  0  0
    5.2315    3.6072   24.4531 C   0  0  0  0  0  0  0  0  0  0  0  0
    5.1162    2.8158   25.5376 F   0  0  0  0  0  0  0  0  0  0  0  0
    5.2530    4.8793   24.8914 F   0  0  0  0  0  0  0  0  0  0  0  0
    4.0924    3.4535   23.7429 F   0  0  0  0  0  0  0  0  0  0  0  0
    6.8238    1.9082   23.5036 C   0  0  0  0  0  0  0  0  0  0  0  0
    6.3842    1.1843   24.1809 H   0  0  0  0  0  0  0  0  0  0  0  0
    9.4285   -0.3670   22.9478 C   0  0  0  0  0  0  0  0  0  0  0  0
   10.2529    0.2476   22.5718 H   0  0  0  0  0  0  0  0  0  0  0  0
    9.6642   -1.4100   22.7246 H   0  0  0  0  0  0  0  0  0  0  0  0
    9.3674   -0.2560   24.0349 H   0  0  0  0  0  0  0  0  0  0  0  0
    7.0304   -0.9823   22.9008 C   0  0  0  0  0  0  0  0  0  0  0  0
    7.3829   -2.0100   22.7814 H   0  0  0  0  0  0  0  0  0  0  0  0
    6.9084   -0.8297   23.9793 H   0  0  0  0  0  0  0  0  0  0  0  0
    6.0518   -0.9184   22.4237 H   0  0  0  0  0  0  0  0  0  0  0  0
    5.8881    0.7923   20.1236 C   0  0  0  0  0  0  0  0  0  0  0  0
    5.5541    0.9262   21.1543 H   0  0  0  0  0  0  0  0  0  0  0  0
    5.1217    1.3306   19.0915 C   0  0  0  0  0  0  0  0  0  0  0  0
    4.2095    1.8783   19.3080 H   0  0  0  0  0  0  0  0  0  0  0  0
  1  2  1  0
  2  3  2  0
  3  4  1  0
  4  5  1  0
  4  6  2  0
  6  7  1  0
  7  8  2  0
  7  9  1  0
  9 10  1  0
 10 11  2  0
 11 12  1  0
 11 13  1  0
 13 14  1  0
 13 15  2  0
 15 16  1  0
 15 17  1  0
 17 18  1  0
 18 19  1  0
 18 20  1  0
 18 21  1  0
 17 22  2  0
 22 23  1  0
  9 24  1  0
 24 25  1  0
 24 26  1  0
 24 27  1  0
  9 28  1  0
 28 29  1  0
 28 30  1  0
 28 31  1  0
  6 32  1  0
 32 33  1  0
 32 34  2  0
 34 35  1  0
 34  2  1  0
 22 10  1  0
M  END
>  <cnnaffinity>  (1) 
-4.81492

>  <filename>  (1) 
CC(C)(C(=O)c1cccnc1)c1cccc(C(F)(F)F)c1

$$$$
