
     RDKit          3D

 34 35  0  0  0  0  0  0  0  0999 V2000
    5.0047    1.7447   16.9604 H   0  0  0  0  0  0  0  0  0  0  0  0
    5.5178    1.2527   17.7822 C   0  0  0  0  0  0  0  0  0  0  0  0
    6.6408    0.5474   17.5382 N   0  0  0  0  0  0  0  0  0  0  0  0
    7.2310   -0.0716   18.5888 C   0  0  0  0  0  0  0  0  0  0  0  0
    8.1317   -0.6461   18.3990 H   0  0  0  0  0  0  0  0  0  0  0  0
    6.7361   -0.0111   19.9208 C   0  0  0  0  0  0  0  0  0  0  0  0
    7.3247   -0.6893   21.0132 N   0  0  0  0  0  0  0  0  0  0  0  0
    7.9301   -1.4858   20.8215 H   0  0  0  0  0  0  0  0  0  0  0  0
    7.0561   -0.4144   22.3612 C   0  0  0  0  0  0  0  0  0  0  0  0
    6.4149    0.5838   22.6804 O   0  0  0  0  0  0  0  0  0  0  0  0
    7.6156   -1.3383   23.4657 C   0  0  0  0  0  0  0  0  0  0  0  0
    8.9918   -0.8020   23.8453 C   0  0  0  0  0  0  0  0  0  0  0  0
    9.3217   -0.5039   25.1789 C   0  0  0  0  0  0  0  0  0  0  0  0
    8.5657   -0.6002   25.9497 H   0  0  0  0  0  0  0  0  0  0  0  0
   10.6181   -0.1131   25.5342 C   0  0  0  0  0  0  0  0  0  0  0  0
   10.8744    0.0671   26.5778 H   0  0  0  0  0  0  0  0  0  0  0  0
   11.5895    0.0264   24.5422 C   0  0  0  0  0  0  0  0  0  0  0  0
   13.3756    0.4501   25.0132 Br  0  0  0  0  0  0  0  0  0  0  0  0
   11.2626   -0.1884   23.2032 C   0  0  0  0  0  0  0  0  0  0  0  0
   12.0269   -0.0344   22.4470 H   0  0  0  0  0  0  0  0  0  0  0  0
    9.9727   -0.6050   22.8582 C   0  0  0  0  0  0  0  0  0  0  0  0
    9.7439   -0.7871   21.8148 H   0  0  0  0  0  0  0  0  0  0  0  0
    7.7430   -2.7879   22.9386 C   0  0  0  0  0  0  0  0  0  0  0  0
    6.7916   -3.1112   22.5084 H   0  0  0  0  0  0  0  0  0  0  0  0
    8.0071   -3.4893   23.7371 H   0  0  0  0  0  0  0  0  0  0  0  0
    8.5050   -2.8531   22.1554 H   0  0  0  0  0  0  0  0  0  0  0  0
    6.6706   -1.3726   24.7003 C   0  0  0  0  0  0  0  0  0  0  0  0
    6.4753   -0.3548   25.0559 H   0  0  0  0  0  0  0  0  0  0  0  0
    5.7060   -1.8332   24.4569 H   0  0  0  0  0  0  0  0  0  0  0  0
    7.1259   -1.9401   25.5208 H   0  0  0  0  0  0  0  0  0  0  0  0
    5.5869    0.7463   20.1448 C   0  0  0  0  0  0  0  0  0  0  0  0
    5.1656    0.8277   21.1437 H   0  0  0  0  0  0  0  0  0  0  0  0
    4.9716    1.3830   19.0664 C   0  0  0  0  0  0  0  0  0  0  0  0
    4.0738    1.9747   19.2220 H   0  0  0  0  0  0  0  0  0  0  0  0
  1  2  1  0
  2  3  2  0
  3  4  1  0
  4  5  1  0
  4  6  2  0
  6  7  1  0
  7  8  1  0
  7  9  1  0
  9 10  2  0
  9 11  1  0
 11 12  1  0
 12 13  2  0
 13 14  1  0
 13 15  1  0
 15 16  1  0
 15 17  2  0
 17 18  1  0
 17 19  1  0
 19 20  1  0
 19 21  2  0
 21 22  1  0
 11 23  1  0
 23 24  1  0
 23 25  1  0
 23 26  1  0
 11 27  1  0
 27 28  1  0
 27 29  1  0
 27 30  1  0
  6 31  1  0
 31 32  1  0
 31 33  2  0
 33 34  1  0
 33  2  1  0
 21 12  1  0
M  END
>  <cnnaffinity>  (1) 
-5.57822

>  <filename>  (1) 
CC(C)(C(=O)Nc1cccnc1)c1ccc(Br)cc1

$$$$
