
     RDKit          3D

 35 36  0  0  0  0  0  0  0  0999 V2000
    8.4160   -3.6065   24.0193 H   0  0  0  0  0  0  0  0  0  0  0  0
    8.9123   -2.6406   24.0598 C   0  0  0  0  0  0  0  0  0  0  0  0
    8.3601   -1.6488   23.3925 N   0  0  0  0  0  0  0  0  0  0  0  0
    8.9920   -0.5053   23.1620 C   0  0  0  0  0  0  0  0  0  0  0  0
    8.3010    0.4131   22.1396 C   0  0  0  0  0  0  0  0  0  0  0  0
    7.3561    1.4288   22.8233 C   0  0  0  0  0  0  0  0  0  0  0  0
    7.9520    2.0764   23.4725 H   0  0  0  0  0  0  0  0  0  0  0  0
    6.5837    0.9488   23.4349 H   0  0  0  0  0  0  0  0  0  0  0  0
    6.8776    2.0870   22.0871 H   0  0  0  0  0  0  0  0  0  0  0  0
    9.2623    1.1551   21.1803 C   0  0  0  0  0  0  0  0  0  0  0  0
   10.0287    0.4792   20.7878 H   0  0  0  0  0  0  0  0  0  0  0  0
    9.7484    2.0013   21.6621 H   0  0  0  0  0  0  0  0  0  0  0  0
    8.6844    1.5665   20.3494 H   0  0  0  0  0  0  0  0  0  0  0  0
    7.4007   -0.8797   21.0733 S   0  0  0  0  0  0  0  0  0  0  0  0
    8.4824   -1.6603   20.4759 O   0  0  0  0  0  0  0  0  0  0  0  0
    6.2876   -1.5177   21.7636 O   0  0  0  0  0  0  0  0  0  0  0  0
    6.6400    0.0587   19.8277 C   0  0  0  0  0  0  0  0  0  0  0  0
    7.1983    0.0178   18.5623 C   0  0  0  0  0  0  0  0  0  0  0  0
    8.1192   -0.5244   18.3468 H   0  0  0  0  0  0  0  0  0  0  0  0
    6.6303    0.6443   17.5329 N   0  0  0  0  0  0  0  0  0  0  0  0
    5.4854    1.3079   17.7510 C   0  0  0  0  0  0  0  0  0  0  0  0
    5.0442    1.8011   16.8883 H   0  0  0  0  0  0  0  0  0  0  0  0
    4.8581    1.3750   18.9990 C   0  0  0  0  0  0  0  0  0  0  0  0
    3.9312    1.9240   19.1090 H   0  0  0  0  0  0  0  0  0  0  0  0
    5.4420    0.7315   20.0806 C   0  0  0  0  0  0  0  0  0  0  0  0
    4.9723    0.7428   21.0697 H   0  0  0  0  0  0  0  0  0  0  0  0
   10.1591   -0.2206   23.9107 C   0  0  0  0  0  0  0  0  0  0  0  0
   10.9480    1.0415   23.7814 C   0  0  0  0  0  0  0  0  0  0  0  0
   11.8321    1.2181   24.7850 F   0  0  0  0  0  0  0  0  0  0  0  0
   11.6638    1.0457   22.6369 F   0  0  0  0  0  0  0  0  0  0  0  0
   10.1823    2.1523   23.7722 F   0  0  0  0  0  0  0  0  0  0  0  0
   10.6861   -1.2158   24.7474 C   0  0  0  0  0  0  0  0  0  0  0  0
   11.5738   -0.9908   25.3388 H   0  0  0  0  0  0  0  0  0  0  0  0
   10.0831   -2.4709   24.7794 C   0  0  0  0  0  0  0  0  0  0  0  0
   10.4686   -3.3069   25.3435 H   0  0  0  0  0  0  0  0  0  0  0  0
  1  2  1  0
  2  3  2  0
  3  4  1  0
  4  5  1  0
  5  6  1  0
  6  7  1  0
  6  8  1  0
  6  9  1  0
  5 10  1  0
 10 11  1  0
 10 12  1  0
 10 13  1  0
  5 14  1  0
 14 15  2  0
 14 16  2  0
 14 17  1  0
 17 18  2  0
 18 19  1  0
 18 20  1  0
 20 21  2  0
 21 22  1  0
 21 23  1  0
 23 24  1  0
 23 25  2  0
 25 26  1  0
  4 27  2  0
 27 28  1  0
 28 29  1  0
 28 30  1  0
 28 31  1  0
 27 32  1  0
 32 33  1  0
 32 34  2  0
 34 35  1  0
 34  2  1  0
 25 17  1  0
M  END
>  <cnnaffinity>  (1) 
-5.36311

>  <filename>  (1) 
CC(C)(c1ncccc1C(F)(F)F)S(=O)(=O)c1cccnc1

$$$$
