
     RDKit          3D

 42 44  0  0  0  0  0  0  0  0999 V2000
    4.9171    1.7821   16.9936 H   0  0  0  0  0  0  0  0  0  0  0  0
    5.4016    1.2953   17.8375 C   0  0  0  0  0  0  0  0  0  0  0  0
    6.5648    0.6755   17.5771 N   0  0  0  0  0  0  0  0  0  0  0  0
    7.1750    0.0626   18.5987 C   0  0  0  0  0  0  0  0  0  0  0  0
    8.1142   -0.4372   18.3735 H   0  0  0  0  0  0  0  0  0  0  0  0
    6.6604    0.0062   19.9057 C   0  0  0  0  0  0  0  0  0  0  0  0
    7.3462   -0.6937   20.9500 N   0  0  0  0  0  0  0  0  0  0  0  0
    6.5596   -1.4301   21.7972 N   0  0  0  0  0  0  0  0  0  0  0  0
    7.1291   -2.0770   22.7868 C   0  0  0  0  0  0  0  0  0  0  0  0
    6.2362   -2.8486   23.7028 C   0  0  0  0  0  0  0  0  0  0  0  0
    5.1744   -3.5966   23.1723 C   0  0  0  0  0  0  0  0  0  0  0  0
    5.0164   -3.5738   22.0991 H   0  0  0  0  0  0  0  0  0  0  0  0
    4.3424   -4.3311   24.0115 C   0  0  0  0  0  0  0  0  0  0  0  0
    3.5144   -4.8698   23.5595 H   0  0  0  0  0  0  0  0  0  0  0  0
    4.5349   -4.3598   25.4082 C   0  0  0  0  0  0  0  0  0  0  0  0
    3.5666   -5.1788   26.2844 C   0  0  0  0  0  0  0  0  0  0  0  0
    3.5999   -6.6618   25.8481 C   0  0  0  0  0  0  0  0  0  0  0  0
    4.6159   -7.0659   25.9158 H   0  0  0  0  0  0  0  0  0  0  0  0
    3.2642   -6.7927   24.8144 H   0  0  0  0  0  0  0  0  0  0  0  0
    2.9502   -7.2730   26.4852 H   0  0  0  0  0  0  0  0  0  0  0  0
    3.9208   -5.1221   27.7818 C   0  0  0  0  0  0  0  0  0  0  0  0
    4.9236   -5.5180   27.9762 H   0  0  0  0  0  0  0  0  0  0  0  0
    3.2134   -5.7205   28.3660 H   0  0  0  0  0  0  0  0  0  0  0  0
    3.8819   -4.0983   28.1697 H   0  0  0  0  0  0  0  0  0  0  0  0
    2.1303   -4.6308   26.1182 C   0  0  0  0  0  0  0  0  0  0  0  0
    1.4271   -5.1703   26.7631 H   0  0  0  0  0  0  0  0  0  0  0  0
    2.0845   -3.5688   26.3829 H   0  0  0  0  0  0  0  0  0  0  0  0
    1.7720   -4.7258   25.0882 H   0  0  0  0  0  0  0  0  0  0  0  0
    5.6153   -3.6174   25.9221 C   0  0  0  0  0  0  0  0  0  0  0  0
    5.8026   -3.6140   26.9916 H   0  0  0  0  0  0  0  0  0  0  0  0
    6.4529   -2.8807   25.0944 C   0  0  0  0  0  0  0  0  0  0  0  0
    7.2930   -2.3446   25.5312 H   0  0  0  0  0  0  0  0  0  0  0  0
    8.6213   -2.0897   23.0235 C   0  0  0  0  0  0  0  0  0  0  0  0
    9.1880   -2.7235   23.9072 O   0  0  0  0  0  0  0  0  0  0  0  0
    9.3696   -1.2587   22.0855 C   0  0  0  0  0  0  0  0  0  0  0  0
   10.4444   -1.2183   22.2152 H   0  0  0  0  0  0  0  0  0  0  0  0
    8.7155   -0.6106   21.1076 C   0  0  0  0  0  0  0  0  0  0  0  0
    9.2293    0.0348   20.3931 H   0  0  0  0  0  0  0  0  0  0  0  0
    5.4403    0.6457   20.1664 C   0  0  0  0  0  0  0  0  0  0  0  0
    5.0288    0.6013   21.1762 H   0  0  0  0  0  0  0  0  0  0  0  0
    4.8124    1.3122   19.1090 C   0  0  0  0  0  0  0  0  0  0  0  0
    3.8776    1.8419   19.2616 H   0  0  0  0  0  0  0  0  0  0  0  0
  1  2  1  0
  2  3  2  0
  3  4  1  0
  4  5  1  0
  4  6  2  0
  6  7  1  0
  7  8  1  0
  8  9  2  0
  9 10  1  0
 10 11  2  0
 11 12  1  0
 11 13  1  0
 13 14  1  0
 13 15  2  0
 15 16  1  0
 16 17  1  0
 17 18  1  0
 17 19  1  0
 17 20  1  0
 16 21  1  0
 21 22  1  0
 21 23  1  0
 21 24  1  0
 16 25  1  0
 25 26  1  0
 25 27  1  0
 25 28  1  0
 15 29  1  0
 29 30  1  0
 29 31  2  0
 31 32  1  0
  9 33  1  0
 33 34  2  0
 33 35  1  0
 35 36  1  0
 35 37  2  0
 37 38  1  0
  6 39  1  0
 39 40  1  0
 39 41  2  0
 41 42  1  0
 41  2  1  0
 37  7  1  0
 31 10  1  0
M  END
>  <cnnaffinity>  (1) 
-5.54137

>  <filename>  (1) 
CC(C)(C)c1ccc(-c2nn(-c3cccnc3)ccc2=O)cc1

$$$$
