
     RDKit          3D

 38 41  0  0  0  0  0  0  0  0999 V2000
    4.9166    1.7757   17.0018 H   0  0  0  0  0  0  0  0  0  0  0  0
    5.4045    1.2900   17.8426 C   0  0  0  0  0  0  0  0  0  0  0  0
    6.5698    0.6779   17.5770 N   0  0  0  0  0  0  0  0  0  0  0  0
    7.1745    0.0567   18.5900 C   0  0  0  0  0  0  0  0  0  0  0  0
    8.1242   -0.4344   18.3741 H   0  0  0  0  0  0  0  0  0  0  0  0
    6.6478    0.0110   19.8911 C   0  0  0  0  0  0  0  0  0  0  0  0
    7.4041   -0.7016   20.9177 C   0  0  0  0  0  0  0  0  0  0  0  0
    8.3305   -1.6016   20.6985 N   0  0  0  0  0  0  0  0  0  0  0  0
    8.8305   -2.0359   21.9054 N   0  0  0  0  0  0  0  0  0  0  0  0
    8.1966   -1.3553   22.8189 C   0  0  0  0  0  0  0  0  0  0  0  0
    8.2618   -1.0988   24.5355 S   0  0  0  0  0  0  0  0  0  0  0  0
    7.0324    0.1700   24.3211 C   0  0  0  0  0  0  0  0  0  0  0  0
    6.5356    0.9587   25.4685 C   0  0  0  0  0  0  0  0  0  0  0  0
    7.0059    0.7413   26.7813 C   0  0  0  0  0  0  0  0  0  0  0  0
    7.7547   -0.0200   26.9939 H   0  0  0  0  0  0  0  0  0  0  0  0
    6.5157    1.5061   27.8369 C   0  0  0  0  0  0  0  0  0  0  0  0
    6.8957    1.3161   28.8377 H   0  0  0  0  0  0  0  0  0  0  0  0
    5.5493    2.5049   27.6267 C   0  0  0  0  0  0  0  0  0  0  0  0
    5.0147    3.3383   28.7781 C   0  0  0  0  0  0  0  0  0  0  0  0
    4.2791    4.0440   28.3718 H   0  0  0  0  0  0  0  0  0  0  0  0
    6.1255    4.1693   29.4333 C   0  0  0  0  0  0  0  0  0  0  0  0
    6.8727    3.5228   29.9075 H   0  0  0  0  0  0  0  0  0  0  0  0
    5.7156    4.8303   30.2042 H   0  0  0  0  0  0  0  0  0  0  0  0
    6.6440    4.7839   28.6910 H   0  0  0  0  0  0  0  0  0  0  0  0
    4.2850    2.4684   29.8098 C   0  0  0  0  0  0  0  0  0  0  0  0
    3.8290    3.0866   30.5901 H   0  0  0  0  0  0  0  0  0  0  0  0
    4.9763    1.7702   30.2956 H   0  0  0  0  0  0  0  0  0  0  0  0
    3.4974    1.8752   29.3349 H   0  0  0  0  0  0  0  0  0  0  0  0
    5.0880    2.7135   26.3176 C   0  0  0  0  0  0  0  0  0  0  0  0
    4.3418    3.4811   26.1335 H   0  0  0  0  0  0  0  0  0  0  0  0
    5.5673    1.9585   25.2515 C   0  0  0  0  0  0  0  0  0  0  0  0
    5.1966    2.1405   24.2469 H   0  0  0  0  0  0  0  0  0  0  0  0
    6.6206    0.3522   23.1033 N   0  0  0  0  0  0  0  0  0  0  0  0
    7.2701   -0.5212   22.2789 N   0  0  0  0  0  0  0  0  0  0  0  0
    5.4332    0.6523   20.1617 C   0  0  0  0  0  0  0  0  0  0  0  0
    5.0091    0.6351   21.1689 H   0  0  0  0  0  0  0  0  0  0  0  0
    4.8046    1.3085   19.1086 C   0  0  0  0  0  0  0  0  0  0  0  0
    3.8739    1.8437   19.2614 H   0  0  0  0  0  0  0  0  0  0  0  0
  1  2  1  0
  2  3  2  0
  3  4  1  0
  4  5  1  0
  4  6  2  0
  6  7  1  0
  7  8  2  0
  8  9  1  0
  9 10  2  0
 10 11  1  0
 11 12  1  0
 12 13  1  0
 13 14  2  0
 14 15  1  0
 14 16  1  0
 16 17  1  0
 16 18  2  0
 18 19  1  0
 19 20  1  0
 19 21  1  0
 21 22  1  0
 21 23  1  0
 21 24  1  0
 19 25  1  0
 25 26  1  0
 25 27  1  0
 25 28  1  0
 18 29  1  0
 29 30  1  0
 29 31  2  0
 31 32  1  0
 12 33  2  0
 33 34  1  0
  6 35  1  0
 35 36  1  0
 35 37  2  0
 37 38  1  0
 37  2  1  0
 34  7  1  0
 34 10  1  0
 31 13  1  0
M  END
>  <cnnaffinity>  (1) 
-5.44407

>  <filename>  (1) 
CC(C)c1ccc(-c2nn3c(-c4cccnc4)nnc3s2)cc1

$$$$
