
     RDKit          3D

 31 32  0  0  0  0  0  0  0  0999 V2000
    5.0296    1.7518   17.0170 H   0  0  0  0  0  0  0  0  0  0  0  0
    5.4952    1.2385   17.8537 C   0  0  0  0  0  0  0  0  0  0  0  0
    6.6414    0.5899   17.6015 N   0  0  0  0  0  0  0  0  0  0  0  0
    7.2239   -0.0623   18.6239 C   0  0  0  0  0  0  0  0  0  0  0  0
    8.1492   -0.5876   18.3957 H   0  0  0  0  0  0  0  0  0  0  0  0
    6.6876   -0.0891   19.9261 C   0  0  0  0  0  0  0  0  0  0  0  0
    7.2137   -0.7806   20.9906 O   0  0  0  0  0  0  0  0  0  0  0  0
    8.5646   -0.9729   21.0935 C   0  0  0  0  0  0  0  0  0  0  0  0
    9.1555   -2.2217   21.3357 C   0  0  0  0  0  0  0  0  0  0  0  0
    8.6590   -3.1809   21.4334 H   0  0  0  0  0  0  0  0  0  0  0  0
   10.4791   -2.1086   21.4089 N   0  0  0  0  0  0  0  0  0  0  0  0
   10.7162   -0.8054   21.2343 N   0  0  0  0  0  0  0  0  0  0  0  0
   11.6734   -0.4921   21.1382 H   0  0  0  0  0  0  0  0  0  0  0  0
    9.5924   -0.0466   21.0708 C   0  0  0  0  0  0  0  0  0  0  0  0
    9.5955    1.4438   20.9560 C   0  0  0  0  0  0  0  0  0  0  0  0
    8.7435    1.7082   20.3199 H   0  0  0  0  0  0  0  0  0  0  0  0
   10.5160    1.7335   20.4325 H   0  0  0  0  0  0  0  0  0  0  0  0
    9.4746    2.2781   22.2554 C   0  0  0  0  0  0  0  0  0  0  0  0
    9.4447    3.3275   21.9248 H   0  0  0  0  0  0  0  0  0  0  0  0
    8.1301    2.0079   22.9501 C   0  0  0  0  0  0  0  0  0  0  0  0
    7.9721    2.6765   23.8049 H   0  0  0  0  0  0  0  0  0  0  0  0
    7.3022    2.1747   22.2436 H   0  0  0  0  0  0  0  0  0  0  0  0
    8.0425    0.9707   23.2995 H   0  0  0  0  0  0  0  0  0  0  0  0
   10.7219    2.1692   23.1460 C   0  0  0  0  0  0  0  0  0  0  0  0
   11.6278    2.3561   22.5492 H   0  0  0  0  0  0  0  0  0  0  0  0
   10.8331    1.1855   23.6173 H   0  0  0  0  0  0  0  0  0  0  0  0
   10.6960    2.9236   23.9412 H   0  0  0  0  0  0  0  0  0  0  0  0
    5.4993    0.5981   20.1775 C   0  0  0  0  0  0  0  0  0  0  0  0
    5.0960    0.5934   21.1906 H   0  0  0  0  0  0  0  0  0  0  0  0
    4.8890    1.2687   19.1179 C   0  0  0  0  0  0  0  0  0  0  0  0
    3.9622    1.8087   19.2688 H   0  0  0  0  0  0  0  0  0  0  0  0
  1  2  1  0
  2  3  2  0
  3  4  1  0
  4  5  1  0
  4  6  2  0
  6  7  1  0
  7  8  1  0
  8  9  1  0
  9 10  1  0
  9 11  2  0
 11 12  1  0
 12 13  1  0
 12 14  1  0
 14 15  1  0
 15 16  1  0
 15 17  1  0
 15 18  1  0
 18 19  1  0
 18 20  1  0
 20 21  1  0
 20 22  1  0
 20 23  1  0
 18 24  1  0
 24 25  1  0
 24 26  1  0
 24 27  1  0
  6 28  1  0
 28 29  1  0
 28 30  2  0
 30 31  1  0
 30  2  1  0
 14  8  2  0
M  END
>  <cnnaffinity>  (1) 
-5.05392

>  <filename>  (1) 
CC(C)Cc1[nH]ncc1Oc1cccnc1

$$$$
