
     RDKit          3D

 33 34  0  0  0  0  0  0  0  0999 V2000
    4.9084    1.7795   16.9959 H   0  0  0  0  0  0  0  0  0  0  0  0
    5.3988    1.2959   17.8354 C   0  0  0  0  0  0  0  0  0  0  0  0
    6.5635    0.6831   17.5654 N   0  0  0  0  0  0  0  0  0  0  0  0
    7.1848    0.0769   18.5845 C   0  0  0  0  0  0  0  0  0  0  0  0
    8.1233   -0.4339   18.3732 H   0  0  0  0  0  0  0  0  0  0  0  0
    6.6729    0.0333   19.8938 C   0  0  0  0  0  0  0  0  0  0  0  0
    7.3631   -0.6641   20.9429 N   0  0  0  0  0  0  0  0  0  0  0  0
    8.6469   -0.2679   21.2765 C   0  0  0  0  0  0  0  0  0  0  0  0
    9.0428    0.5776   20.7105 H   0  0  0  0  0  0  0  0  0  0  0  0
    9.3601   -0.8895   22.2604 C   0  0  0  0  0  0  0  0  0  0  0  0
   10.7293   -0.3914   22.6365 C   0  0  0  0  0  0  0  0  0  0  0  0
   11.3061   -0.2058   21.7193 H   0  0  0  0  0  0  0  0  0  0  0  0
   11.2619   -1.1817   23.1775 H   0  0  0  0  0  0  0  0  0  0  0  0
   10.6950    0.8854   23.4974 C   0  0  0  0  0  0  0  0  0  0  0  0
   10.0924    1.6322   22.9608 H   0  0  0  0  0  0  0  0  0  0  0  0
   10.0370    0.6451   24.8568 C   0  0  0  0  0  0  0  0  0  0  0  0
   10.0530    1.5545   25.4675 H   0  0  0  0  0  0  0  0  0  0  0  0
    8.9927    0.3293   24.7596 H   0  0  0  0  0  0  0  0  0  0  0  0
   10.5708   -0.1353   25.4142 H   0  0  0  0  0  0  0  0  0  0  0  0
   12.1015    1.4509   23.6642 C   0  0  0  0  0  0  0  0  0  0  0  0
   12.5598    1.6656   22.6924 H   0  0  0  0  0  0  0  0  0  0  0  0
   12.0837    2.3799   24.2430 H   0  0  0  0  0  0  0  0  0  0  0  0
   12.7461    0.7367   24.1914 H   0  0  0  0  0  0  0  0  0  0  0  0
    8.7410   -1.9621   22.9699 C   0  0  0  0  0  0  0  0  0  0  0  0
    9.2867   -2.4477   23.7809 H   0  0  0  0  0  0  0  0  0  0  0  0
    7.4805   -2.3745   22.6559 C   0  0  0  0  0  0  0  0  0  0  0  0
    6.9759   -3.1856   23.1490 H   0  0  0  0  0  0  0  0  0  0  0  0
    6.6995   -1.7555   21.6042 C   0  0  0  0  0  0  0  0  0  0  0  0
    5.5874   -2.1347   21.2757 O   0  0  0  0  0  0  0  0  0  0  0  0
    5.4472    0.6548   20.1583 C   0  0  0  0  0  0  0  0  0  0  0  0
    5.0183    0.6137   21.1623 H   0  0  0  0  0  0  0  0  0  0  0  0
    4.8078    1.3146   19.1058 C   0  0  0  0  0  0  0  0  0  0  0  0
    3.8719    1.8443   19.2627 H   0  0  0  0  0  0  0  0  0  0  0  0
  1  2  1  0
  2  3  2  0
  3  4  1  0
  4  5  1  0
  4  6  2  0
  6  7  1  0
  7  8  1  0
  8  9  1  0
  8 10  2  0
 10 11  1  0
 11 12  1  0
 11 13  1  0
 11 14  1  0
 14 15  1  0
 14 16  1  0
 16 17  1  0
 16 18  1  0
 16 19  1  0
 14 20  1  0
 20 21  1  0
 20 22  1  0
 20 23  1  0
 10 24  1  0
 24 25  1  0
 24 26  2  0
 26 27  1  0
 26 28  1  0
 28 29  2  0
  6 30  1  0
 30 31  1  0
 30 32  2  0
 32 33  1  0
 32  2  1  0
 28  7  1  0
M  END
>  <cnnaffinity>  (1) 
-5.27579

>  <filename>  (1) 
CC(C)Cc1ccc(=O)n(-c2cccnc2)c1

$$$$
