
     RDKit          3D

 34 35  0  0  0  0  0  0  0  0999 V2000
    6.8673    4.4741   21.6585 H   0  0  0  0  0  0  0  0  0  0  0  0
    6.7925    3.5280   22.1891 C   0  0  0  0  0  0  0  0  0  0  0  0
    7.5561    2.5268   21.7399 N   0  0  0  0  0  0  0  0  0  0  0  0
    7.5714    1.4266   22.4783 C   0  0  0  0  0  0  0  0  0  0  0  0
    8.6135    0.4005   22.1320 C   0  0  0  0  0  0  0  0  0  0  0  0
    9.7198    0.8962   21.1820 C   0  0  0  0  0  0  0  0  0  0  0  0
    9.2575    1.3466   20.3086 H   0  0  0  0  0  0  0  0  0  0  0  0
   10.3571    1.6500   21.6608 H   0  0  0  0  0  0  0  0  0  0  0  0
   10.3294    0.0533   20.8572 H   0  0  0  0  0  0  0  0  0  0  0  0
    9.2229   -0.3407   23.3362 C   0  0  0  0  0  0  0  0  0  0  0  0
    8.4370   -0.7517   23.9740 H   0  0  0  0  0  0  0  0  0  0  0  0
    9.8430   -1.1627   22.9659 H   0  0  0  0  0  0  0  0  0  0  0  0
    9.8479    0.3346   23.9342 H   0  0  0  0  0  0  0  0  0  0  0  0
    7.4669   -0.7359   21.2510 S   0  0  0  0  0  0  0  0  0  0  0  0
    8.3479   -1.6843   20.5656 O   0  0  0  0  0  0  0  0  0  0  0  0
    6.4425   -1.2301   22.1455 O   0  0  0  0  0  0  0  0  0  0  0  0
    6.6314    0.1492   19.9991 C   0  0  0  0  0  0  0  0  0  0  0  0
    7.1854    0.0809   18.7309 C   0  0  0  0  0  0  0  0  0  0  0  0
    8.1063   -0.4766   18.5476 H   0  0  0  0  0  0  0  0  0  0  0  0
    6.6024    0.6529   17.6784 N   0  0  0  0  0  0  0  0  0  0  0  0
    5.4351    1.2887   17.8666 C   0  0  0  0  0  0  0  0  0  0  0  0
    4.9941    1.7640   16.9899 H   0  0  0  0  0  0  0  0  0  0  0  0
    4.7826    1.3361   19.1051 C   0  0  0  0  0  0  0  0  0  0  0  0
    3.8318    1.8514   19.1973 H   0  0  0  0  0  0  0  0  0  0  0  0
    5.3756    0.7244   20.2023 C   0  0  0  0  0  0  0  0  0  0  0  0
    4.8776    0.6784   21.1755 H   0  0  0  0  0  0  0  0  0  0  0  0
    6.7325    1.1561   23.4715 N   0  0  0  0  0  0  0  0  0  0  0  0
    5.9671    2.1538   23.9423 C   0  0  0  0  0  0  0  0  0  0  0  0
    5.0450    1.9251   25.1804 C   0  0  0  0  0  0  0  0  0  0  0  0
    3.7444    1.9776   24.8186 F   0  0  0  0  0  0  0  0  0  0  0  0
    5.2306    2.9151   26.0814 F   0  0  0  0  0  0  0  0  0  0  0  0
    5.2340    0.7685   25.8198 F   0  0  0  0  0  0  0  0  0  0  0  0
    5.9727    3.4017   23.3054 C   0  0  0  0  0  0  0  0  0  0  0  0
    5.3854    4.2381   23.6594 H   0  0  0  0  0  0  0  0  0  0  0  0
  1  2  1  0
  2  3  2  0
  3  4  1  0
  4  5  1  0
  5  6  1  0
  6  7  1  0
  6  8  1  0
  6  9  1  0
  5 10  1  0
 10 11  1  0
 10 12  1  0
 10 13  1  0
  5 14  1  0
 14 15  2  0
 14 16  2  0
 14 17  1  0
 17 18  2  0
 18 19  1  0
 18 20  1  0
 20 21  2  0
 21 22  1  0
 21 23  1  0
 23 24  1  0
 23 25  2  0
 25 26  1  0
  4 27  2  0
 27 28  1  0
 28 29  1  0
 29 30  1  0
 29 31  1  0
 29 32  1  0
 28 33  2  0
 33 34  1  0
 33  2  1  0
 25 17  1  0
M  END
>  <cnnaffinity>  (1) 
-5.15766

>  <filename>  (1) 
CC(C)(c1nccc(C(F)(F)F)n1)S(=O)(=O)c1cccnc1

$$$$
