
     RDKit          3D

 35 36  0  0  0  0  0  0  0  0999 V2000
    4.9160    1.7791   16.9961 H   0  0  0  0  0  0  0  0  0  0  0  0
    5.4023    1.2916   17.8391 C   0  0  0  0  0  0  0  0  0  0  0  0
    6.5681    0.6709   17.5826 N   0  0  0  0  0  0  0  0  0  0  0  0
    7.1906    0.0676   18.6054 C   0  0  0  0  0  0  0  0  0  0  0  0
    8.1316   -0.4284   18.3838 H   0  0  0  0  0  0  0  0  0  0  0  0
    6.6689    0.0156   19.9097 C   0  0  0  0  0  0  0  0  0  0  0  0
    7.3761   -0.6673   20.9446 N   0  0  0  0  0  0  0  0  0  0  0  0
    8.7456   -0.5297   20.9381 N   0  0  0  0  0  0  0  0  0  0  0  0
    9.4322   -1.1217   21.8807 C   0  0  0  0  0  0  0  0  0  0  0  0
   10.9313   -0.9034   21.9319 C   0  0  0  0  0  0  0  0  0  0  0  0
   11.2826   -0.6199   20.9343 H   0  0  0  0  0  0  0  0  0  0  0  0
   11.4217   -1.8488   22.1923 H   0  0  0  0  0  0  0  0  0  0  0  0
   11.3424    0.1536   22.9792 C   0  0  0  0  0  0  0  0  0  0  0  0
   12.4381    0.2477   22.9783 H   0  0  0  0  0  0  0  0  0  0  0  0
   11.0769   -0.2144   23.9797 H   0  0  0  0  0  0  0  0  0  0  0  0
   10.7255    1.5416   22.7674 C   0  0  0  0  0  0  0  0  0  0  0  0
    9.6318    1.4357   22.7476 H   0  0  0  0  0  0  0  0  0  0  0  0
   11.1523    2.1506   21.4351 C   0  0  0  0  0  0  0  0  0  0  0  0
   10.7786    3.1680   21.3613 H   0  0  0  0  0  0  0  0  0  0  0  0
   12.2436    2.2063   21.3476 H   0  0  0  0  0  0  0  0  0  0  0  0
   10.7572    1.5911   20.5841 H   0  0  0  0  0  0  0  0  0  0  0  0
   11.0768    2.4746   23.9262 C   0  0  0  0  0  0  0  0  0  0  0  0
   12.1608    2.6304   23.9894 H   0  0  0  0  0  0  0  0  0  0  0  0
   10.6077    3.4569   23.7984 H   0  0  0  0  0  0  0  0  0  0  0  0
   10.7359    2.0614   24.8811 H   0  0  0  0  0  0  0  0  0  0  0  0
    8.8257   -1.9761   22.9583 C   0  0  0  0  0  0  0  0  0  0  0  0
    9.4739   -2.5334   23.8384 O   0  0  0  0  0  0  0  0  0  0  0  0
    7.3885   -2.1051   22.8478 C   0  0  0  0  0  0  0  0  0  0  0  0
    6.8869   -2.7197   23.5857 H   0  0  0  0  0  0  0  0  0  0  0  0
    6.7326   -1.4581   21.8635 C   0  0  0  0  0  0  0  0  0  0  0  0
    5.6503   -1.5477   21.7360 H   0  0  0  0  0  0  0  0  0  0  0  0
    5.4384    0.6451   20.1628 C   0  0  0  0  0  0  0  0  0  0  0  0
    5.0160    0.6359   21.1690 H   0  0  0  0  0  0  0  0  0  0  0  0
    4.8087    1.3108   19.1066 C   0  0  0  0  0  0  0  0  0  0  0  0
    3.8744    1.8423   19.2615 H   0  0  0  0  0  0  0  0  0  0  0  0
  1  2  1  0
  2  3  2  0
  3  4  1  0
  4  5  1  0
  4  6  2  0
  6  7  1  0
  7  8  1  0
  8  9  2  0
  9 10  1  0
 10 11  1  0
 10 12  1  0
 10 13  1  0
 13 14  1  0
 13 15  1  0
 13 16  1  0
 16 17  1  0
 16 18  1  0
 18 19  1  0
 18 20  1  0
 18 21  1  0
 16 22  1  0
 22 23  1  0
 22 24  1  0
 22 25  1  0
  9 26  1  0
 26 27  2  0
 26 28  1  0
 28 29  1  0
 28 30  2  0
 30 31  1  0
  6 32  1  0
 32 33  1  0
 32 34  2  0
 34 35  1  0
 34  2  1  0
 30  7  1  0
M  END
>  <cnnaffinity>  (1) 
-5.27424

>  <filename>  (1) 
CC(C)CCc1nn(-c2cccnc2)ccc1=O

$$$$
