
     RDKit          3D

 39 41  0  0  0  0  0  0  0  0999 V2000
    4.9335    1.8067   16.9921 H   0  0  0  0  0  0  0  0  0  0  0  0
    5.3969    1.2897   17.8288 C   0  0  0  0  0  0  0  0  0  0  0  0
    6.5519    0.6548   17.5679 N   0  0  0  0  0  0  0  0  0  0  0  0
    7.1749    0.0361   18.5806 C   0  0  0  0  0  0  0  0  0  0  0  0
    8.1249   -0.4441   18.3530 H   0  0  0  0  0  0  0  0  0  0  0  0
    6.6574   -0.0068   19.8937 C   0  0  0  0  0  0  0  0  0  0  0  0
    7.3285   -0.6948   20.9573 N   0  0  0  0  0  0  0  0  0  0  0  0
    6.7292   -1.6248   21.8046 C   0  0  0  0  0  0  0  0  0  0  0  0
    5.6788   -1.8492   21.6843 H   0  0  0  0  0  0  0  0  0  0  0  0
    7.6642   -2.0898   22.6745 C   0  0  0  0  0  0  0  0  0  0  0  0
    7.5474   -3.0362   23.7989 C   0  0  0  0  0  0  0  0  0  0  0  0
    8.6456   -3.7180   24.3714 C   0  0  0  0  0  0  0  0  0  0  0  0
    9.6509   -3.5560   23.9882 H   0  0  0  0  0  0  0  0  0  0  0  0
    8.4612   -4.6177   25.4180 C   0  0  0  0  0  0  0  0  0  0  0  0
    9.2866   -5.1556   25.8660 H   0  0  0  0  0  0  0  0  0  0  0  0
    7.1786   -4.8665   25.9343 C   0  0  0  0  0  0  0  0  0  0  0  0
    7.1149   -5.7852   26.9372 O   0  0  0  0  0  0  0  0  0  0  0  0
    5.8856   -6.0111   27.6410 C   0  0  0  0  0  0  0  0  0  0  0  0
    5.0789   -6.1303   26.9033 H   0  0  0  0  0  0  0  0  0  0  0  0
    5.5694   -4.8667   28.5955 C   0  0  0  0  0  0  0  0  0  0  0  0
    6.3898   -4.7279   29.3081 H   0  0  0  0  0  0  0  0  0  0  0  0
    4.6580   -5.1101   29.1514 H   0  0  0  0  0  0  0  0  0  0  0  0
    5.4047   -3.9178   28.0834 H   0  0  0  0  0  0  0  0  0  0  0  0
    6.0176   -7.3143   28.4137 C   0  0  0  0  0  0  0  0  0  0  0  0
    6.9375   -7.3137   29.0059 H   0  0  0  0  0  0  0  0  0  0  0  0
    5.1704   -7.4272   29.0986 H   0  0  0  0  0  0  0  0  0  0  0  0
    6.0280   -8.1857   27.7589 H   0  0  0  0  0  0  0  0  0  0  0  0
    6.0842   -4.1916   25.3793 C   0  0  0  0  0  0  0  0  0  0  0  0
    5.0901   -4.3700   25.7606 H   0  0  0  0  0  0  0  0  0  0  0  0
    6.2727   -3.2898   24.3317 C   0  0  0  0  0  0  0  0  0  0  0  0
    5.4100   -2.7622   23.9316 H   0  0  0  0  0  0  0  0  0  0  0  0
    8.8364   -1.4244   22.3274 N   0  0  0  0  0  0  0  0  0  0  0  0
    9.7352   -1.4014   22.7749 H   0  0  0  0  0  0  0  0  0  0  0  0
    8.6439   -0.5176   21.3368 C   0  0  0  0  0  0  0  0  0  0  0  0
    9.7885    0.5659   20.8235 S   0  0  0  0  0  0  0  0  0  0  0  0
    5.4451    0.6487   20.1467 C   0  0  0  0  0  0  0  0  0  0  0  0
    5.0428    0.6411   21.1603 H   0  0  0  0  0  0  0  0  0  0  0  0
    4.8019    1.3133   19.0967 C   0  0  0  0  0  0  0  0  0  0  0  0
    3.8698    1.8533   19.2517 H   0  0  0  0  0  0  0  0  0  0  0  0
  1  2  1  0
  2  3  2  0
  3  4  1  0
  4  5  1  0
  4  6  2  0
  6  7  1  0
  7  8  1  0
  8  9  1  0
  8 10  2  0
 10 11  1  0
 11 12  2  0
 12 13  1  0
 12 14  1  0
 14 15  1  0
 14 16  2  0
 16 17  1  0
 17 18  1  0
 18 19  1  0
 18 20  1  0
 20 21  1  0
 20 22  1  0
 20 23  1  0
 18 24  1  0
 24 25  1  0
 24 26  1  0
 24 27  1  0
 16 28  1  0
 28 29  1  0
 28 30  2  0
 30 31  1  0
 10 32  1  0
 32 33  1  0
 32 34  1  0
 34 35  2  0
  6 36  1  0
 36 37  1  0
 36 38  2  0
 38 39  1  0
 38  2  1  0
 34  7  1  0
 30 11  1  0
M  END
>  <cnnaffinity>  (1) 
-5.58991

>  <filename>  (1) 
CC(C)Oc1ccc(-c2cn(-c3cccnc3)c(=S)[nH]2)cc1

$$$$
