
     RDKit          3D

 32 34  0  0  0  0  0  0  0  0999 V2000
    4.9319    1.7908   16.9896 H   0  0  0  0  0  0  0  0  0  0  0  0
    5.4005    1.2894   17.8358 C   0  0  0  0  0  0  0  0  0  0  0  0
    6.5626    0.6666   17.5840 N   0  0  0  0  0  0  0  0  0  0  0  0
    7.1658    0.0474   18.6019 C   0  0  0  0  0  0  0  0  0  0  0  0
    8.1137   -0.4369   18.3643 H   0  0  0  0  0  0  0  0  0  0  0  0
    6.6423    0.0223   19.9081 C   0  0  0  0  0  0  0  0  0  0  0  0
    7.3951   -0.6606   20.9630 C   0  0  0  0  0  0  0  0  0  0  0  0
    8.2989   -1.5838   20.7470 N   0  0  0  0  0  0  0  0  0  0  0  0
    8.8098   -2.0106   21.9481 N   0  0  0  0  0  0  0  0  0  0  0  0
    8.1966   -1.3122   22.8617 C   0  0  0  0  0  0  0  0  0  0  0  0
    8.3024   -1.1335   24.5786 S   0  0  0  0  0  0  0  0  0  0  0  0
    7.1093    0.1585   24.3898 C   0  0  0  0  0  0  0  0  0  0  0  0
    6.6681    0.9646   25.4161 N   0  0  0  0  0  0  0  0  0  0  0  0
    6.0602    1.7053   25.1082 H   0  0  0  0  0  0  0  0  0  0  0  0
    6.9557    0.7452   26.7432 C   0  0  0  0  0  0  0  0  0  0  0  0
    7.5603   -0.2553   27.0781 O   0  0  0  0  0  0  0  0  0  0  0  0
    6.5003    1.8052   27.7657 C   0  0  0  0  0  0  0  0  0  0  0  0
    6.9248    1.4080   28.6976 H   0  0  0  0  0  0  0  0  0  0  0  0
    7.1081    3.2031   27.5188 C   0  0  0  0  0  0  0  0  0  0  0  0
    8.1999    3.1556   27.4454 H   0  0  0  0  0  0  0  0  0  0  0  0
    6.7281    3.6627   26.5980 H   0  0  0  0  0  0  0  0  0  0  0  0
    6.8616    3.8816   28.3454 H   0  0  0  0  0  0  0  0  0  0  0  0
    4.9665    1.8726   27.9278 C   0  0  0  0  0  0  0  0  0  0  0  0
    4.5432    0.8882   28.1596 H   0  0  0  0  0  0  0  0  0  0  0  0
    4.6973    2.5458   28.7519 H   0  0  0  0  0  0  0  0  0  0  0  0
    4.4742    2.2535   27.0240 H   0  0  0  0  0  0  0  0  0  0  0  0
    6.6543    0.4080   23.2022 N   0  0  0  0  0  0  0  0  0  0  0  0
    7.2837   -0.4549   22.3280 N   0  0  0  0  0  0  0  0  0  0  0  0
    5.4228    0.6597   20.1582 C   0  0  0  0  0  0  0  0  0  0  0  0
    5.0017    0.6536   21.1630 H   0  0  0  0  0  0  0  0  0  0  0  0
    4.7972    1.3087   19.0968 C   0  0  0  0  0  0  0  0  0  0  0  0
    3.8693    1.8454   19.2407 H   0  0  0  0  0  0  0  0  0  0  0  0
  1  2  1  0
  2  3  2  0
  3  4  1  0
  4  5  1  0
  4  6  2  0
  6  7  1  0
  7  8  2  0
  8  9  1  0
  9 10  2  0
 10 11  1  0
 11 12  1  0
 12 13  1  0
 13 14  1  0
 13 15  1  0
 15 16  2  0
 15 17  1  0
 17 18  1  0
 17 19  1  0
 19 20  1  0
 19 21  1  0
 19 22  1  0
 17 23  1  0
 23 24  1  0
 23 25  1  0
 23 26  1  0
 12 27  2  0
 27 28  1  0
  6 29  1  0
 29 30  1  0
 29 31  2  0
 31 32  1  0
 31  2  1  0
 28  7  1  0
 28 10  1  0
M  END
>  <cnnaffinity>  (1) 
-5.00011

>  <filename>  (1) 
CC(C)C(=O)Nc1nn2c(-c3cccnc3)nnc2s1

$$$$
