
     RDKit          3D

 27 27  0  0  0  0  0  0  0  0999 V2000
   11.7031   -0.9999   20.0203 H   0  0  0  0  0  0  0  0  0  0  0  0
   11.4824   -0.5828   20.8700 O   0  0  0  0  0  0  0  0  0  0  0  0
   10.0612   -0.4879   20.9249 C   0  0  0  0  0  0  0  0  0  0  0  0
    9.5960   -1.4829   20.8244 H   0  0  0  0  0  0  0  0  0  0  0  0
    9.6743    0.1618   20.1266 H   0  0  0  0  0  0  0  0  0  0  0  0
    9.5643    0.1368   22.2442 C   0  0  0  0  0  0  0  0  0  0  0  0
    8.1085    0.3449   22.1422 N   0  0  0  0  0  0  0  0  0  0  0  0
    7.7435    0.8880   22.9133 H   0  0  0  0  0  0  0  0  0  0  0  0
    6.9564   -0.7581   21.5604 S   0  0  0  0  0  0  0  0  0  0  0  0
    6.3307    0.1090   20.1151 C   0  0  0  0  0  0  0  0  0  0  0  0
    7.0564    0.0597   18.9184 C   0  0  0  0  0  0  0  0  0  0  0  0
    7.9931   -0.4940   18.8679 H   0  0  0  0  0  0  0  0  0  0  0  0
    6.6676    0.6422   17.7750 N   0  0  0  0  0  0  0  0  0  0  0  0
    5.5009    1.3045   17.7896 C   0  0  0  0  0  0  0  0  0  0  0  0
    5.1932    1.7560   16.8460 H   0  0  0  0  0  0  0  0  0  0  0  0
    4.6910    1.4079   18.9285 C   0  0  0  0  0  0  0  0  0  0  0  0
    3.7600    1.9598   18.8726 H   0  0  0  0  0  0  0  0  0  0  0  0
    5.1078    0.7950   20.1193 C   0  0  0  0  0  0  0  0  0  0  0  0
    4.5150    0.8552   21.0309 H   0  0  0  0  0  0  0  0  0  0  0  0
    9.9285   -0.7410   23.4494 C   0  0  0  0  0  0  0  0  0  0  0  0
   11.0170   -0.7822   23.5537 H   0  0  0  0  0  0  0  0  0  0  0  0
    9.5112   -0.3079   24.3653 H   0  0  0  0  0  0  0  0  0  0  0  0
    9.5443   -1.7612   23.3562 H   0  0  0  0  0  0  0  0  0  0  0  0
   10.1527    1.5412   22.4497 C   0  0  0  0  0  0  0  0  0  0  0  0
   11.2426    1.4967   22.4723 H   0  0  0  0  0  0  0  0  0  0  0  0
    9.7915    1.9532   23.4012 H   0  0  0  0  0  0  0  0  0  0  0  0
    9.8482    2.2144   21.6404 H   0  0  0  0  0  0  0  0  0  0  0  0
  1  2  1  0
  2  3  1  0
  3  4  1  0
  3  5  1  0
  3  6  1  0
  6  7  1  0
  7  8  1  0
  7  9  1  0
  9 10  1  0
 10 11  2  0
 11 12  1  0
 11 13  1  0
 13 14  2  0
 14 15  1  0
 14 16  1  0
 16 17  1  0
 16 18  2  0
 18 19  1  0
  6 20  1  0
 20 21  1  0
 20 22  1  0
 20 23  1  0
  6 24  1  0
 24 25  1  0
 24 26  1  0
 24 27  1  0
 18 10  1  0
M  END
>  <cnnaffinity>  (1) 
-4.00767

>  <filename>  (1) 
CC(C)(CO)NSc1cccnc1

$$$$
