
     RDKit          3D

 38 40  0  0  0  0  0  0  0  0999 V2000
    4.9572    1.8314   16.9669 H   0  0  0  0  0  0  0  0  0  0  0  0
    5.3993    1.2942   17.8053 C   0  0  0  0  0  0  0  0  0  0  0  0
    6.5475    0.6418   17.5609 N   0  0  0  0  0  0  0  0  0  0  0  0
    7.1359    0.0057   18.5791 C   0  0  0  0  0  0  0  0  0  0  0  0
    8.0718   -0.5034   18.3536 H   0  0  0  0  0  0  0  0  0  0  0  0
    6.6337    0.0003   19.8881 C   0  0  0  0  0  0  0  0  0  0  0  0
    7.4155   -0.6422   20.9445 C   0  0  0  0  0  0  0  0  0  0  0  0
    7.9975   -1.8817   20.7764 N   0  0  0  0  0  0  0  0  0  0  0  0
    8.5061   -2.1422   21.9457 C   0  0  0  0  0  0  0  0  0  0  0  0
    8.4072   -1.1128   22.8248 N   0  0  0  0  0  0  0  0  0  0  0  0
    7.6746   -0.1341   22.2084 C   0  0  0  0  0  0  0  0  0  0  0  0
    7.2968    1.1182   22.9166 C   0  0  0  0  0  0  0  0  0  0  0  0
    6.9826    1.8590   22.1767 H   0  0  0  0  0  0  0  0  0  0  0  0
    8.1967    1.5346   23.3895 H   0  0  0  0  0  0  0  0  0  0  0  0
    6.2056    0.9305   23.9827 C   0  0  0  0  0  0  0  0  0  0  0  0
    5.3215    0.4778   23.5180 H   0  0  0  0  0  0  0  0  0  0  0  0
    6.5559    0.1989   24.7212 H   0  0  0  0  0  0  0  0  0  0  0  0
    5.7769    2.2293   24.6781 C   0  0  0  0  0  0  0  0  0  0  0  0
    6.6838    2.7640   25.0004 H   0  0  0  0  0  0  0  0  0  0  0  0
    5.0013    3.1327   23.7120 C   0  0  0  0  0  0  0  0  0  0  0  0
    4.1124    2.6125   23.3322 H   0  0  0  0  0  0  0  0  0  0  0  0
    5.6022    3.4272   22.8449 H   0  0  0  0  0  0  0  0  0  0  0  0
    4.6667    4.0537   24.1983 H   0  0  0  0  0  0  0  0  0  0  0  0
    4.9523    1.9290   25.9331 C   0  0  0  0  0  0  0  0  0  0  0  0
    4.0327    1.3900   25.6749 H   0  0  0  0  0  0  0  0  0  0  0  0
    5.5091    1.3097   26.6457 H   0  0  0  0  0  0  0  0  0  0  0  0
    4.6664    2.8494   26.4533 H   0  0  0  0  0  0  0  0  0  0  0  0
    9.0344   -1.2641   24.1202 C   0  0  0  0  0  0  0  0  0  0  0  0
    9.5421   -0.3399   24.4138 H   0  0  0  0  0  0  0  0  0  0  0  0
    8.2843   -1.4962   24.8822 H   0  0  0  0  0  0  0  0  0  0  0  0
   10.0268   -2.4185   23.9173 C   0  0  0  0  0  0  0  0  0  0  0  0
   10.9497   -2.0505   23.4625 H   0  0  0  0  0  0  0  0  0  0  0  0
   10.2589   -2.9645   24.8328 H   0  0  0  0  0  0  0  0  0  0  0  0
    9.2424   -3.5443   22.7026 S   0  0  0  0  0  0  0  0  0  0  0  0
    5.4077    0.6520   20.1158 C   0  0  0  0  0  0  0  0  0  0  0  0
    4.9515    0.6498   21.1047 H   0  0  0  0  0  0  0  0  0  0  0  0
    4.7797    1.3085   19.0585 C   0  0  0  0  0  0  0  0  0  0  0  0
    3.8522    1.8545   19.1988 H   0  0  0  0  0  0  0  0  0  0  0  0
  1  2  1  0
  2  3  2  0
  3  4  1  0
  4  5  1  0
  4  6  2  0
  6  7  1  0
  7  8  1  0
  8  9  2  0
  9 10  1  0
 10 11  1  0
 11 12  1  0
 12 13  1  0
 12 14  1  0
 12 15  1  0
 15 16  1  0
 15 17  1  0
 15 18  1  0
 18 19  1  0
 18 20  1  0
 20 21  1  0
 20 22  1  0
 20 23  1  0
 18 24  1  0
 24 25  1  0
 24 26  1  0
 24 27  1  0
 10 28  1  0
 28 29  1  0
 28 30  1  0
 28 31  1  0
 31 32  1  0
 31 33  1  0
 31 34  1  0
  6 35  1  0
 35 36  1  0
 35 37  2  0
 37 38  1  0
 37  2  1  0
 11  7  2  0
 34  9  1  0
M  END
>  <cnnaffinity>  (1) 
-5.25852

>  <filename>  (1) 
CC(C)CCc1c(-c2cccnc2)nc2n1CCS2

$$$$
