
     RDKit          3D

 38 39  0  0  0  0  0  0  0  0999 V2000
    5.1384    1.7345   16.3665 H   0  0  0  0  0  0  0  0  0  0  0  0
    5.4376    1.1802   17.2540 C   0  0  0  0  0  0  0  0  0  0  0  0
    6.6122    0.5480   17.1932 N   0  0  0  0  0  0  0  0  0  0  0  0
    7.0168   -0.1130   18.2890 C   0  0  0  0  0  0  0  0  0  0  0  0
    7.9763   -0.6157   18.1817 H   0  0  0  0  0  0  0  0  0  0  0  0
    6.3063   -0.1824   19.4926 C   0  0  0  0  0  0  0  0  0  0  0  0
    6.8602   -0.9096   20.7240 C   0  0  0  0  0  0  0  0  0  0  0  0
    6.4276   -0.1817   21.9315 N   0  0  0  0  0  0  0  0  0  0  0  0
    6.5941   -0.7812   22.7309 H   0  0  0  0  0  0  0  0  0  0  0  0
    6.9953    1.1383   22.2128 C   0  0  0  0  0  0  0  0  0  0  0  0
    6.3489    1.6000   22.9668 H   0  0  0  0  0  0  0  0  0  0  0  0
    6.8843    1.7589   21.3162 H   0  0  0  0  0  0  0  0  0  0  0  0
    8.4403    1.1748   22.6969 C   0  0  0  0  0  0  0  0  0  0  0  0
    9.4182    1.8312   21.9338 C   0  0  0  0  0  0  0  0  0  0  0  0
    9.1079    2.4259   21.0782 H   0  0  0  0  0  0  0  0  0  0  0  0
   10.7714    1.7161   22.2430 C   0  0  0  0  0  0  0  0  0  0  0  0
   11.5072    2.2104   21.6158 H   0  0  0  0  0  0  0  0  0  0  0  0
   11.1743    0.9915   23.3749 C   0  0  0  0  0  0  0  0  0  0  0  0
   12.6466    0.9156   23.6982 C   0  0  0  0  0  0  0  0  0  0  0  0
   12.8993    0.2111   24.8158 F   0  0  0  0  0  0  0  0  0  0  0  0
   13.1724    2.1457   23.8686 F   0  0  0  0  0  0  0  0  0  0  0  0
   13.3396    0.3414   22.6954 F   0  0  0  0  0  0  0  0  0  0  0  0
   10.2012    0.3826   24.1849 C   0  0  0  0  0  0  0  0  0  0  0  0
   10.4768   -0.1637   25.0825 H   0  0  0  0  0  0  0  0  0  0  0  0
    8.8510    0.4934   23.8559 C   0  0  0  0  0  0  0  0  0  0  0  0
    8.1147    0.0416   24.5205 H   0  0  0  0  0  0  0  0  0  0  0  0
    8.3958   -1.0787   20.6814 C   0  0  0  0  0  0  0  0  0  0  0  0
    8.6946   -1.8878   20.0181 H   0  0  0  0  0  0  0  0  0  0  0  0
    8.9098   -0.1722   20.3533 H   0  0  0  0  0  0  0  0  0  0  0  0
    8.7669   -1.3253   21.6808 H   0  0  0  0  0  0  0  0  0  0  0  0
    6.2406   -2.3049   20.8729 C   0  0  0  0  0  0  0  0  0  0  0  0
    6.7402   -2.8336   21.6949 H   0  0  0  0  0  0  0  0  0  0  0  0
    5.1842   -2.2246   21.1294 H   0  0  0  0  0  0  0  0  0  0  0  0
    6.3474   -2.9030   19.9618 H   0  0  0  0  0  0  0  0  0  0  0  0
    5.0503    0.4553   19.5120 C   0  0  0  0  0  0  0  0  0  0  0  0
    4.4498    0.4395   20.4214 H   0  0  0  0  0  0  0  0  0  0  0  0
    4.6154    1.1499   18.3830 C   0  0  0  0  0  0  0  0  0  0  0  0
    3.6804    1.6965   18.3801 H   0  0  0  0  0  0  0  0  0  0  0  0
  1  2  1  0
  2  3  2  0
  3  4  1  0
  4  5  1  0
  4  6  2  0
  6  7  1  0
  7  8  1  0
  8  9  1  0
  8 10  1  0
 10 11  1  0
 10 12  1  0
 10 13  1  0
 13 14  2  0
 14 15  1  0
 14 16  1  0
 16 17  1  0
 16 18  2  0
 18 19  1  0
 19 20  1  0
 19 21  1  0
 19 22  1  0
 18 23  1  0
 23 24  1  0
 23 25  2  0
 25 26  1  0
  7 27  1  0
 27 28  1  0
 27 29  1  0
 27 30  1  0
  7 31  1  0
 31 32  1  0
 31 33  1  0
 31 34  1  0
  6 35  1  0
 35 36  1  0
 35 37  2  0
 37 38  1  0
 37  2  1  0
 25 13  1  0
M  END
>  <cnnaffinity>  (1) 
-5.07189

>  <filename>  (1) 
CC(C)(NCc1ccc(C(F)(F)F)cc1)c1cccnc1

$$$$
