
     RDKit          3D

 44 47  0  0  0  0  0  0  0  0999 V2000
    4.9457    1.8896   16.8804 H   0  0  0  0  0  0  0  0  0  0  0  0
    5.4020    1.3519   17.7096 C   0  0  0  0  0  0  0  0  0  0  0  0
    6.5517    0.7171   17.4444 N   0  0  0  0  0  0  0  0  0  0  0  0
    7.1408    0.0700   18.4581 C   0  0  0  0  0  0  0  0  0  0  0  0
    8.0670   -0.4402   18.2002 H   0  0  0  0  0  0  0  0  0  0  0  0
    6.6469    0.0056   19.7765 C   0  0  0  0  0  0  0  0  0  0  0  0
    7.3645   -0.7840   20.8599 C   0  0  1  0  0  0  0  0  0  0  0  0
    6.9655   -1.8071   20.8212 H   0  0  0  0  0  0  0  0  0  0  0  0
    8.9202   -0.8965   20.7346 C   0  0  0  0  0  0  0  0  0  0  0  0
    9.3201    0.0830   20.4457 H   0  0  0  0  0  0  0  0  0  0  0  0
    9.2538   -1.6412   20.0082 H   0  0  0  0  0  0  0  0  0  0  0  0
    9.3219   -1.2266   22.1455 C   0  0  0  0  0  0  0  0  0  0  0  0
   10.3642   -1.7747   22.7445 N   0  0  0  0  0  0  0  0  0  0  0  0
    9.9800   -1.8212   24.0491 N   0  0  0  0  0  0  0  0  0  0  0  0
   10.6671   -2.0894   24.7427 H   0  0  0  0  0  0  0  0  0  0  0  0
    8.7296   -1.3012   24.2832 C   0  0  0  0  0  0  0  0  0  0  0  0
    7.9402   -1.3520   25.5362 C   0  0  0  0  0  0  0  0  0  0  0  0
    7.8769   -2.5184   26.3184 C   0  0  0  0  0  0  0  0  0  0  0  0
    8.5348   -3.3568   26.1150 H   0  0  0  0  0  0  0  0  0  0  0  0
    6.9546   -2.6182   27.3551 C   0  0  0  0  0  0  0  0  0  0  0  0
    6.8535   -3.5778   27.8578 H   0  0  0  0  0  0  0  0  0  0  0  0
    6.1599   -1.5251   27.7529 C   0  0  0  0  0  0  0  0  0  0  0  0
    5.2916   -1.5784   29.0126 C   0  0  0  0  0  0  0  0  0  0  0  0
    5.5254   -2.4998   29.5580 H   0  0  0  0  0  0  0  0  0  0  0  0
    3.7898   -1.6328   28.6877 C   0  0  0  0  0  0  0  0  0  0  0  0
    3.2033   -1.7003   29.6147 H   0  0  0  0  0  0  0  0  0  0  0  0
    3.4846   -0.7198   28.1628 H   0  0  0  0  0  0  0  0  0  0  0  0
    3.5413   -2.4936   28.0562 H   0  0  0  0  0  0  0  0  0  0  0  0
    5.5675   -0.4030   29.9748 C   0  0  0  0  0  0  0  0  0  0  0  0
    4.9800   -0.5096   30.8968 H   0  0  0  0  0  0  0  0  0  0  0  0
    5.2910    0.5521   29.5124 H   0  0  0  0  0  0  0  0  0  0  0  0
    6.6222   -0.3300   30.2579 H   0  0  0  0  0  0  0  0  0  0  0  0
    6.2128   -0.3666   26.9603 C   0  0  0  0  0  0  0  0  0  0  0  0
    5.5495    0.4732   27.1723 H   0  0  0  0  0  0  0  0  0  0  0  0
    7.0835   -0.2832   25.8725 C   0  0  0  0  0  0  0  0  0  0  0  0
    7.1003    0.6201   25.2728 H   0  0  0  0  0  0  0  0  0  0  0  0
    8.3064   -0.8855   23.0404 C   0  0  0  0  0  0  0  0  0  0  0  0
    7.1505   -0.2755   22.3163 C   0  0  0  0  0  0  0  0  0  0  0  0
    6.1774   -0.5400   22.7405 H   0  0  0  0  0  0  0  0  0  0  0  0
    7.2267    0.8209   22.3085 H   0  0  0  0  0  0  0  0  0  0  0  0
    5.4178    0.6497   20.0133 C   0  0  0  0  0  0  0  0  0  0  0  0
    4.9536    0.6201   21.0023 H   0  0  0  0  0  0  0  0  0  0  0  0
    4.7952    1.3354   18.9691 C   0  0  0  0  0  0  0  0  0  0  0  0
    3.8626    1.8674   19.1203 H   0  0  0  0  0  0  0  0  0  0  0  0
  1  2  1  0
  2  3  2  0
  3  4  1  0
  4  5  1  0
  4  6  2  0
  6  7  1  0
  7  8  1  1
  7  9  1  0
  9 10  1  0
  9 11  1  0
  9 12  1  0
 12 13  2  0
 13 14  1  0
 14 15  1  0
 14 16  1  0
 16 17  1  0
 17 18  2  0
 18 19  1  0
 18 20  1  0
 20 21  1  0
 20 22  2  0
 22 23  1  0
 23 24  1  0
 23 25  1  0
 25 26  1  0
 25 27  1  0
 25 28  1  0
 23 29  1  0
 29 30  1  0
 29 31  1  0
 29 32  1  0
 22 33  1  0
 33 34  1  0
 33 35  2  0
 35 36  1  0
 16 37  2  0
 37 38  1  0
 38 39  1  0
 38 40  1  0
  6 41  1  0
 41 42  1  0
 41 43  2  0
 43 44  1  0
 43  2  1  0
 38  7  1  0
 37 12  1  0
 35 17  1  0
M  END
>  <cnnaffinity>  (1) 
-5.28291

>  <filename>  (1) 
CC(C)c1ccc(-c2[nH]nc3c2C[C@@H](c2cccnc2)C3)cc1

$$$$
