
     RDKit          3D

 36 38  0  0  0  0  0  0  0  0999 V2000
    4.9950    1.8550   17.0017 H   0  0  0  0  0  0  0  0  0  0  0  0
    5.5164    1.3315   17.7992 C   0  0  0  0  0  0  0  0  0  0  0  0
    6.6738    0.7387   17.4575 N   0  0  0  0  0  0  0  0  0  0  0  0
    7.3472    0.0757   18.4066 C   0  0  0  0  0  0  0  0  0  0  0  0
    8.2895   -0.3760   18.0934 H   0  0  0  0  0  0  0  0  0  0  0  0
    6.8796   -0.0658   19.7286 C   0  0  0  0  0  0  0  0  0  0  0  0
    7.5414   -0.8924   20.6704 N   0  0  0  0  0  0  0  0  0  0  0  0
    8.8800   -0.8390   21.0522 C   0  0  0  0  0  0  0  0  0  0  0  0
    9.5214   -0.0919   20.6151 H   0  0  0  0  0  0  0  0  0  0  0  0
    9.0998   -1.7485   22.0441 C   0  0  0  0  0  0  0  0  0  0  0  0
    9.9638   -2.0191   22.6197 H   0  0  0  0  0  0  0  0  0  0  0  0
    7.8836   -2.3658   22.2781 N   0  0  0  0  0  0  0  0  0  0  0  0
    7.4123   -3.2907   23.1577 N   0  0  0  0  0  0  0  0  0  0  0  0
    6.0942   -3.3064   22.8962 C   0  0  0  0  0  0  0  0  0  0  0  0
    5.1027   -4.2247   23.6168 C   0  0  0  0  0  0  0  0  0  0  0  0
    5.6230   -4.6558   24.4889 H   0  0  0  0  0  0  0  0  0  0  0  0
    4.8905   -5.0687   22.9426 H   0  0  0  0  0  0  0  0  0  0  0  0
    3.7814   -3.6276   23.9583 N   0  0  0  0  0  0  0  0  0  0  0  0
    3.8811   -2.9789   24.7378 H   0  0  0  0  0  0  0  0  0  0  0  0
    2.7006   -4.5654   24.2929 C   0  0  0  0  0  0  0  0  0  0  0  0
    2.5639   -5.2161   23.4141 H   0  0  0  0  0  0  0  0  0  0  0  0
    1.3977   -3.7917   24.5205 C   0  0  0  0  0  0  0  0  0  0  0  0
    1.0929   -3.1959   23.6559 H   0  0  0  0  0  0  0  0  0  0  0  0
    1.5028   -3.1162   25.3802 H   0  0  0  0  0  0  0  0  0  0  0  0
    0.5781   -4.4827   24.7567 H   0  0  0  0  0  0  0  0  0  0  0  0
    2.9792   -5.4575   25.5141 C   0  0  0  0  0  0  0  0  0  0  0  0
    2.1435   -6.1567   25.6563 H   0  0  0  0  0  0  0  0  0  0  0  0
    3.8971   -6.0456   25.3997 H   0  0  0  0  0  0  0  0  0  0  0  0
    3.0683   -4.8488   26.4271 H   0  0  0  0  0  0  0  0  0  0  0  0
    5.7443   -2.4428   21.8426 C   0  0  0  0  0  0  0  0  0  0  0  0
    4.7329   -2.2648   21.5723 H   0  0  0  0  0  0  0  0  0  0  0  0
    6.9361   -1.8541   21.4669 C   0  0  0  0  0  0  0  0  0  0  0  0
    5.6932    0.5987   20.0860 C   0  0  0  0  0  0  0  0  0  0  0  0
    5.3531    0.5712   21.1223 H   0  0  0  0  0  0  0  0  0  0  0  0
    4.9981    1.2983   19.0987 C   0  0  0  0  0  0  0  0  0  0  0  0
    4.0713    1.8193   19.3234 H   0  0  0  0  0  0  0  0  0  0  0  0
  1  2  1  0
  2  3  2  0
  3  4  1  0
  4  5  1  0
  4  6  2  0
  6  7  1  0
  7  8  1  0
  8  9  1  0
  8 10  2  0
 10 11  1  0
 10 12  1  0
 12 13  1  0
 13 14  2  0
 14 15  1  0
 15 16  1  0
 15 17  1  0
 15 18  1  0
 18 19  1  0
 18 20  1  0
 20 21  1  0
 20 22  1  0
 22 23  1  0
 22 24  1  0
 22 25  1  0
 20 26  1  0
 26 27  1  0
 26 28  1  0
 26 29  1  0
 14 30  1  0
 30 31  1  0
 30 32  2  0
  6 33  1  0
 33 34  1  0
 33 35  2  0
 35 36  1  0
 35  2  1  0
 32  7  1  0
 32 12  1  0
M  END
>  <cnnaffinity>  (1) 
-4.74028

>  <filename>  (1) 
CC(C)NCc1cc2n(-c3cccnc3)ccn2n1

$$$$
