
     RDKit          3D

 34 35  0  0  0  0  0  0  0  0999 V2000
    4.9129    1.8188   16.9700 H   0  0  0  0  0  0  0  0  0  0  0  0
    5.4054    1.3085   17.7937 C   0  0  0  0  0  0  0  0  0  0  0  0
    6.5506    0.6728   17.5020 N   0  0  0  0  0  0  0  0  0  0  0  0
    7.1864    0.0468   18.5005 C   0  0  0  0  0  0  0  0  0  0  0  0
    8.1062   -0.4690   18.2396 H   0  0  0  0  0  0  0  0  0  0  0  0
    6.7165    0.0269   19.8286 C   0  0  0  0  0  0  0  0  0  0  0  0
    7.4221   -0.6445   20.8965 N   0  0  0  0  0  0  0  0  0  0  0  0
    6.7505   -1.6801   21.5330 C   0  0  0  0  0  0  0  0  0  0  0  0
    5.7355   -1.8897   21.2066 H   0  0  0  0  0  0  0  0  0  0  0  0
    7.3100   -2.4190   22.5134 C   0  0  0  0  0  0  0  0  0  0  0  0
    6.6068   -3.5339   23.0431 N   0  0  0  0  0  0  0  0  0  0  0  0
    6.8058   -3.7848   24.0002 H   0  0  0  0  0  0  0  0  0  0  0  0
    5.5810   -4.2445   22.4387 C   0  0  0  0  0  0  0  0  0  0  0  0
    5.2786   -4.1040   21.2686 O   0  0  0  0  0  0  0  0  0  0  0  0
    4.9009   -5.2626   23.3550 C   0  0  0  0  0  0  0  0  0  0  0  0
    5.0111   -4.8845   24.3786 H   0  0  0  0  0  0  0  0  0  0  0  0
    5.6215   -6.6161   23.2429 C   0  0  0  0  0  0  0  0  0  0  0  0
    5.3797   -7.1101   22.2968 H   0  0  0  0  0  0  0  0  0  0  0  0
    5.3038   -7.2858   24.0468 H   0  0  0  0  0  0  0  0  0  0  0  0
    6.7107   -6.5098   23.2994 H   0  0  0  0  0  0  0  0  0  0  0  0
    3.3999   -5.3972   23.0727 C   0  0  0  0  0  0  0  0  0  0  0  0
    2.8820   -4.4490   23.2437 H   0  0  0  0  0  0  0  0  0  0  0  0
    2.9607   -6.1516   23.7350 H   0  0  0  0  0  0  0  0  0  0  0  0
    3.2221   -5.6993   22.0349 H   0  0  0  0  0  0  0  0  0  0  0  0
    8.6654   -2.0159   23.0284 C   0  0  0  0  0  0  0  0  0  0  0  0
    9.2924   -2.4946   23.9506 O   0  0  0  0  0  0  0  0  0  0  0  0
    9.2342   -0.9770   22.3347 N   0  0  0  0  0  0  0  0  0  0  0  0
   10.1687   -0.7366   22.5982 H   0  0  0  0  0  0  0  0  0  0  0  0
    8.7407   -0.2768   21.2771 C   0  0  0  0  0  0  0  0  0  0  0  0
    9.4137    0.5683   20.7405 O   0  0  0  0  0  0  0  0  0  0  0  0
    5.4946    0.6511   20.1060 C   0  0  0  0  0  0  0  0  0  0  0  0
    5.0774    0.6084   21.1149 H   0  0  0  0  0  0  0  0  0  0  0  0
    4.8347    1.3182   19.0713 C   0  0  0  0  0  0  0  0  0  0  0  0
    3.8954    1.8332   19.2454 H   0  0  0  0  0  0  0  0  0  0  0  0
  1  2  1  0
  2  3  2  0
  3  4  1  0
  4  5  1  0
  4  6  2  0
  6  7  1  0
  7  8  1  0
  8  9  1  0
  8 10  2  0
 10 11  1  0
 11 12  1  0
 11 13  1  0
 13 14  2  0
 13 15  1  0
 15 16  1  0
 15 17  1  0
 17 18  1  0
 17 19  1  0
 17 20  1  0
 15 21  1  0
 21 22  1  0
 21 23  1  0
 21 24  1  0
 10 25  1  0
 25 26  2  0
 25 27  1  0
 27 28  1  0
 27 29  1  0
 29 30  2  0
  6 31  1  0
 31 32  1  0
 31 33  2  0
 33 34  1  0
 33  2  1  0
 29  7  1  0
M  END
>  <cnnaffinity>  (1) 
-5.25221

>  <filename>  (1) 
CC(C)C(=O)Nc1cn(-c2cccnc2)c(=O)[nH]c1=O

$$$$
