
     RDKit          3D

 31 32  0  0  0  0  0  0  0  0999 V2000
    8.1905   -3.7462   24.6000 H   0  0  0  0  0  0  0  0  0  0  0  0
    7.3801   -4.1900   24.2788 O   0  0  0  0  0  0  0  0  0  0  0  0
    6.5472   -3.1311   23.8675 C   0  0  0  0  0  0  0  0  0  0  0  0
    7.2754   -2.2587   22.8671 C   0  0  0  0  0  0  0  0  0  0  0  0
    6.6793   -1.5768   21.8244 C   0  0  0  0  0  0  0  0  0  0  0  0
    5.6150   -1.6989   21.6290 H   0  0  0  0  0  0  0  0  0  0  0  0
    7.4104   -0.7148   20.9476 C   0  0  0  0  0  0  0  0  0  0  0  0
    6.6901    0.0213   19.8560 C   0  0  0  0  0  0  0  0  0  0  0  0
    7.1730    0.0796   18.5313 C   0  0  0  0  0  0  0  0  0  0  0  0
    8.0989   -0.4272   18.2646 H   0  0  0  0  0  0  0  0  0  0  0  0
    6.5518    0.6994   17.5167 N   0  0  0  0  0  0  0  0  0  0  0  0
    5.3965    1.3226   17.7933 C   0  0  0  0  0  0  0  0  0  0  0  0
    4.9148    1.8346   16.9611 H   0  0  0  0  0  0  0  0  0  0  0  0
    4.8146    1.3241   19.0641 C   0  0  0  0  0  0  0  0  0  0  0  0
    3.8773    1.8422   19.2175 H   0  0  0  0  0  0  0  0  0  0  0  0
    5.4605    0.6567   20.1063 C   0  0  0  0  0  0  0  0  0  0  0  0
    5.0326    0.6495   21.1109 H   0  0  0  0  0  0  0  0  0  0  0  0
    8.7568   -0.5825   21.1622 C   0  0  0  0  0  0  0  0  0  0  0  0
    9.3992    0.0578   20.5620 H   0  0  0  0  0  0  0  0  0  0  0  0
    9.3460   -1.2565   22.2087 N   0  0  0  0  0  0  0  0  0  0  0  0
   10.3175   -1.1807   22.4670 H   0  0  0  0  0  0  0  0  0  0  0  0
    8.6908   -2.0494   23.1329 C   0  0  0  0  0  0  0  0  0  0  0  0
    9.3581   -2.4820   24.0789 O   0  0  0  0  0  0  0  0  0  0  0  0
    6.1945   -2.3013   25.1148 C   0  0  0  0  0  0  0  0  0  0  0  0
    5.6947   -2.9391   25.8514 H   0  0  0  0  0  0  0  0  0  0  0  0
    7.1178   -1.9115   25.5627 H   0  0  0  0  0  0  0  0  0  0  0  0
    5.5425   -1.4534   24.8695 H   0  0  0  0  0  0  0  0  0  0  0  0
    5.3260   -3.8183   23.2505 C   0  0  0  0  0  0  0  0  0  0  0  0
    4.5176   -3.1203   23.0287 H   0  0  0  0  0  0  0  0  0  0  0  0
    4.9455   -4.5776   23.9387 H   0  0  0  0  0  0  0  0  0  0  0  0
    5.6213   -4.3073   22.3164 H   0  0  0  0  0  0  0  0  0  0  0  0
  1  2  1  0
  2  3  1  0
  3  4  1  0
  4  5  2  0
  5  6  1  0
  5  7  1  0
  7  8  1  0
  8  9  2  0
  9 10  1  0
  9 11  1  0
 11 12  2  0
 12 13  1  0
 12 14  1  0
 14 15  1  0
 14 16  2  0
 16 17  1  0
  7 18  2  0
 18 19  1  0
 18 20  1  0
 20 21  1  0
 20 22  1  0
 22 23  2  0
  3 24  1  0
 24 25  1  0
 24 26  1  0
 24 27  1  0
  3 28  1  0
 28 29  1  0
 28 30  1  0
 28 31  1  0
 22  4  1  0
 16  8  1  0
M  END
>  <cnnaffinity>  (1) 
-4.30966

>  <filename>  (1) 
CC(C)(O)c1cc(-c2cccnc2)c[nH]c1=O

$$$$
