
     RDKit          3D

 33 34  0  0  0  0  0  0  0  0999 V2000
    4.9926    1.7810   17.0028 H   0  0  0  0  0  0  0  0  0  0  0  0
    5.4434    1.2694   17.8492 C   0  0  0  0  0  0  0  0  0  0  0  0
    6.6004    0.6422   17.5999 N   0  0  0  0  0  0  0  0  0  0  0  0
    7.1996    0.0254   18.6220 C   0  0  0  0  0  0  0  0  0  0  0  0
    8.1647   -0.4393   18.4225 H   0  0  0  0  0  0  0  0  0  0  0  0
    6.6610   -0.0354   19.9163 C   0  0  0  0  0  0  0  0  0  0  0  0
    7.4108   -0.8050   20.9533 C   0  0  0  0  0  0  0  0  0  0  0  0
    8.7576   -0.7811   20.8704 N   0  0  0  0  0  0  0  0  0  0  0  0
    9.4916   -1.3686   21.8139 N   0  0  0  0  0  0  0  0  0  0  0  0
    8.9067   -1.9887   22.8446 C   0  0  0  0  0  0  0  0  0  0  0  0
    9.5948   -2.4172   23.5601 H   0  0  0  0  0  0  0  0  0  0  0  0
    7.4928   -2.0901   22.9825 C   0  0  0  0  0  0  0  0  0  0  0  0
    6.7980   -2.7134   24.0115 N   0  0  0  0  0  0  0  0  0  0  0  0
    5.8031   -2.7543   23.8300 H   0  0  0  0  0  0  0  0  0  0  0  0
    7.0985   -2.6865   25.4563 C   0  0  0  0  0  0  0  0  0  0  0  0
    8.0540   -3.8400   25.7728 C   0  0  0  0  0  0  0  0  0  0  0  0
    7.6188   -4.7905   25.4479 H   0  0  0  0  0  0  0  0  0  0  0  0
    8.2593   -3.8977   26.8482 H   0  0  0  0  0  0  0  0  0  0  0  0
    9.0048   -3.7095   25.2505 H   0  0  0  0  0  0  0  0  0  0  0  0
    5.7520   -2.9230   26.1506 C   0  0  0  0  0  0  0  0  0  0  0  0
    5.0355   -2.1326   25.8968 H   0  0  0  0  0  0  0  0  0  0  0  0
    5.8620   -2.9434   27.2409 H   0  0  0  0  0  0  0  0  0  0  0  0
    5.3226   -3.8788   25.8317 H   0  0  0  0  0  0  0  0  0  0  0  0
    7.6948   -1.3491   25.9326 C   0  0  0  0  0  0  0  0  0  0  0  0
    7.0627   -0.5092   25.6278 H   0  0  0  0  0  0  0  0  0  0  0  0
    7.7776   -1.3316   27.0250 H   0  0  0  0  0  0  0  0  0  0  0  0
    8.6988   -1.1847   25.5321 H   0  0  0  0  0  0  0  0  0  0  0  0
    6.7508   -1.5254   21.9500 C   0  0  0  0  0  0  0  0  0  0  0  0
    5.6763   -1.6534   21.9078 H   0  0  0  0  0  0  0  0  0  0  0  0
    5.4524    0.6395   20.1670 C   0  0  0  0  0  0  0  0  0  0  0  0
    5.0156    0.6913   21.1675 H   0  0  0  0  0  0  0  0  0  0  0  0
    4.8303    1.2988   19.1056 C   0  0  0  0  0  0  0  0  0  0  0  0
    3.8939    1.8331   19.2343 H   0  0  0  0  0  0  0  0  0  0  0  0
  1  2  1  0
  2  3  2  0
  3  4  1  0
  4  5  1  0
  4  6  2  0
  6  7  1  0
  7  8  2  0
  8  9  1  0
  9 10  2  0
 10 11  1  0
 10 12  1  0
 12 13  1  0
 13 14  1  0
 13 15  1  0
 15 16  1  0
 16 17  1  0
 16 18  1  0
 16 19  1  0
 15 20  1  0
 20 21  1  0
 20 22  1  0
 20 23  1  0
 15 24  1  0
 24 25  1  0
 24 26  1  0
 24 27  1  0
 12 28  2  0
 28 29  1  0
  6 30  1  0
 30 31  1  0
 30 32  2  0
 32 33  1  0
 32  2  1  0
 28  7  1  0
M  END
>  <cnnaffinity>  (1) 
-5.05166

>  <filename>  (1) 
CC(C)(C)Nc1cnnc(-c2cccnc2)c1

$$$$
