
     RDKit          3D

 34 36  0  0  0  0  0  0  0  0999 V2000
    4.9453    1.8074   16.9719 H   0  0  0  0  0  0  0  0  0  0  0  0
    5.3991    1.2972   17.8200 C   0  0  0  0  0  0  0  0  0  0  0  0
    6.5565    0.6650   17.5681 N   0  0  0  0  0  0  0  0  0  0  0  0
    7.1524    0.0353   18.5845 C   0  0  0  0  0  0  0  0  0  0  0  0
    8.1033   -0.4413   18.3546 H   0  0  0  0  0  0  0  0  0  0  0  0
    6.6379    0.0055   19.8921 C   0  0  0  0  0  0  0  0  0  0  0  0
    7.3869   -0.6535   20.9574 C   0  0  0  0  0  0  0  0  0  0  0  0
    8.1571   -1.7751   20.7322 N   0  0  0  0  0  0  0  0  0  0  0  0
    8.6122   -2.0756   21.9148 C   0  0  0  0  0  0  0  0  0  0  0  0
    9.7135   -3.2467   22.5662 S   0  0  0  0  0  0  0  0  0  0  0  0
    9.6508   -2.4997   24.1379 C   0  0  0  0  0  0  0  0  0  0  0  0
   10.2732   -2.9358   24.9077 H   0  0  0  0  0  0  0  0  0  0  0  0
    8.8063   -1.4551   24.1689 C   0  0  0  0  0  0  0  0  0  0  0  0
    8.5160   -0.8200   25.0011 H   0  0  0  0  0  0  0  0  0  0  0  0
    8.2193   -1.2237   22.9197 N   0  0  0  0  0  0  0  0  0  0  0  0
    7.4348   -0.2757   22.3012 C   0  0  0  0  0  0  0  0  0  0  0  0
    6.9622    0.8219   23.0145 N   0  0  0  0  0  0  0  0  0  0  0  0
    6.8818    1.6971   22.5254 H   0  0  0  0  0  0  0  0  0  0  0  0
    6.3652    0.7709   24.2644 C   0  0  0  0  0  0  0  0  0  0  0  0
    6.1122   -0.2715   24.8337 O   0  0  0  0  0  0  0  0  0  0  0  0
    6.0533    2.1446   24.8690 C   0  0  0  0  0  0  0  0  0  0  0  0
    6.6133    2.8981   24.2939 H   0  0  0  0  0  0  0  0  0  0  0  0
    4.5370    2.4468   24.7575 C   0  0  0  0  0  0  0  0  0  0  0  0
    4.1834    2.4747   23.7182 H   0  0  0  0  0  0  0  0  0  0  0  0
    3.9624    1.6749   25.2850 H   0  0  0  0  0  0  0  0  0  0  0  0
    4.2880    3.4137   25.2163 H   0  0  0  0  0  0  0  0  0  0  0  0
    6.5090    2.1749   26.3440 C   0  0  0  0  0  0  0  0  0  0  0  0
    6.3025    3.1481   26.8035 H   0  0  0  0  0  0  0  0  0  0  0  0
    7.5799    1.9687   26.4693 H   0  0  0  0  0  0  0  0  0  0  0  0
    5.9644    1.4083   26.9079 H   0  0  0  0  0  0  0  0  0  0  0  0
    5.4147    0.6546   20.1352 C   0  0  0  0  0  0  0  0  0  0  0  0
    4.9740    0.6354   21.1348 H   0  0  0  0  0  0  0  0  0  0  0  0
    4.7906    1.3140   19.0805 C   0  0  0  0  0  0  0  0  0  0  0  0
    3.8591    1.8503   19.2215 H   0  0  0  0  0  0  0  0  0  0  0  0
  1  2  1  0
  2  3  2  0
  3  4  1  0
  4  5  1  0
  4  6  2  0
  6  7  1  0
  7  8  1  0
  8  9  2  0
  9 10  1  0
 10 11  1  0
 11 12  1  0
 11 13  2  0
 13 14  1  0
 13 15  1  0
 15 16  1  0
 16 17  1  0
 17 18  1  0
 17 19  1  0
 19 20  2  0
 19 21  1  0
 21 22  1  0
 21 23  1  0
 23 24  1  0
 23 25  1  0
 23 26  1  0
 21 27  1  0
 27 28  1  0
 27 29  1  0
 27 30  1  0
  6 31  1  0
 31 32  1  0
 31 33  2  0
 33 34  1  0
 33  2  1  0
 16  7  2  0
 15  9  1  0
M  END
>  <cnnaffinity>  (1) 
-5.28002

>  <filename>  (1) 
CC(C)C(=O)Nc1c(-c2cccnc2)nc2sccn12

$$$$
