
     RDKit          3D

 34 35  0  0  0  0  0  0  0  0999 V2000
    4.9681    1.8003   16.9904 H   0  0  0  0  0  0  0  0  0  0  0  0
    5.3983    1.3087   17.8595 C   0  0  0  0  0  0  0  0  0  0  0  0
    6.5573    0.6651   17.6479 N   0  0  0  0  0  0  0  0  0  0  0  0
    7.1088    0.0453   18.6990 C   0  0  0  0  0  0  0  0  0  0  0  0
    8.0504   -0.4698   18.5088 H   0  0  0  0  0  0  0  0  0  0  0  0
    6.5658    0.0507   19.9980 C   0  0  0  0  0  0  0  0  0  0  0  0
    7.2622   -0.6971   21.0749 C   0  0  0  0  0  0  0  0  0  0  0  0
    7.5594   -2.0405   21.1398 C   0  0  0  0  0  0  0  0  0  0  0  0
    7.1666   -2.8230   20.5066 H   0  0  0  0  0  0  0  0  0  0  0  0
    8.4056   -2.1723   22.2576 C   0  0  0  0  0  0  0  0  0  0  0  0
    8.8503   -3.0796   22.6440 H   0  0  0  0  0  0  0  0  0  0  0  0
    8.6026   -1.0153   22.8622 N   0  0  0  0  0  0  0  0  0  0  0  0
    7.8689   -0.1186   22.1662 N   0  0  0  0  0  0  0  0  0  0  0  0
    7.8623    1.2605   22.6480 C   0  0  0  0  0  0  0  0  0  0  0  0
    8.8645    1.6725   22.4960 H   0  0  0  0  0  0  0  0  0  0  0  0
    7.1417    1.8246   22.0577 H   0  0  0  0  0  0  0  0  0  0  0  0
    7.5474    1.3900   24.0696 N   0  0  0  0  0  0  0  0  0  0  0  0
    8.2244    0.8765   24.6204 H   0  0  0  0  0  0  0  0  0  0  0  0
    6.2564    1.1440   24.5074 C   0  0  0  0  0  0  0  0  0  0  0  0
    5.3041    1.1184   23.7504 O   0  0  0  0  0  0  0  0  0  0  0  0
    6.1201    0.9917   26.0376 C   0  0  0  0  0  0  0  0  0  0  0  0
    7.0081    1.4756   26.4674 H   0  0  0  0  0  0  0  0  0  0  0  0
    4.8709    1.7265   26.5560 C   0  0  0  0  0  0  0  0  0  0  0  0
    4.8333    1.6810   27.6527 H   0  0  0  0  0  0  0  0  0  0  0  0
    4.8650    2.7819   26.2600 H   0  0  0  0  0  0  0  0  0  0  0  0
    3.9605    1.2618   26.1590 H   0  0  0  0  0  0  0  0  0  0  0  0
    6.1111   -0.4763   26.5215 C   0  0  0  0  0  0  0  0  0  0  0  0
    6.0308   -0.5007   27.6176 H   0  0  0  0  0  0  0  0  0  0  0  0
    7.0267   -1.0189   26.2564 H   0  0  0  0  0  0  0  0  0  0  0  0
    5.2557   -1.0320   26.1189 H   0  0  0  0  0  0  0  0  0  0  0  0
    5.3636    0.7407   20.1986 C   0  0  0  0  0  0  0  0  0  0  0  0
    4.9444    0.7863   21.2070 H   0  0  0  0  0  0  0  0  0  0  0  0
    4.7595    1.3656   19.1018 C   0  0  0  0  0  0  0  0  0  0  0  0
    3.8226    1.9032   19.2009 H   0  0  0  0  0  0  0  0  0  0  0  0
  1  2  1  0
  2  3  2  0
  3  4  1  0
  4  5  1  0
  4  6  2  0
  6  7  1  0
  7  8  2  0
  8  9  1  0
  8 10  1  0
 10 11  1  0
 10 12  2  0
 12 13  1  0
 13 14  1  0
 14 15  1  0
 14 16  1  0
 14 17  1  0
 17 18  1  0
 17 19  1  0
 19 20  2  0
 19 21  1  0
 21 22  1  0
 21 23  1  0
 23 24  1  0
 23 25  1  0
 23 26  1  0
 21 27  1  0
 27 28  1  0
 27 29  1  0
 27 30  1  0
  6 31  1  0
 31 32  1  0
 31 33  2  0
 33 34  1  0
 33  2  1  0
 13  7  1  0
M  END
>  <cnnaffinity>  (1) 
-4.60558

>  <filename>  (1) 
CC(C)C(=O)NCn1nccc1-c1cccnc1

$$$$
