
     RDKit          3D

 41 42  0  0  0  0  0  0  0  0999 V2000
    4.9256    1.7833   16.9902 H   0  0  0  0  0  0  0  0  0  0  0  0
    5.4048    1.2960   17.8359 C   0  0  0  0  0  0  0  0  0  0  0  0
    6.5605    0.6704   17.5825 N   0  0  0  0  0  0  0  0  0  0  0  0
    7.1642    0.0588   18.6075 C   0  0  0  0  0  0  0  0  0  0  0  0
    8.1081   -0.4282   18.3691 H   0  0  0  0  0  0  0  0  0  0  0  0
    6.6454    0.0255   19.9100 C   0  0  0  0  0  0  0  0  0  0  0  0
    7.3221   -0.7490   21.0014 C   0  0  0  0  0  0  0  0  0  0  0  0
    6.6939   -1.6082   21.5876 O   0  0  0  0  0  0  0  0  0  0  0  0
    8.8126   -0.5029   21.3929 C   0  0  0  0  0  0  0  0  0  0  0  0
    9.3764    0.8220   20.8489 C   0  0  0  0  0  0  0  0  0  0  0  0
    9.5161    0.7826   19.7686 H   0  0  0  0  0  0  0  0  0  0  0  0
   10.3574    1.0401   21.2882 H   0  0  0  0  0  0  0  0  0  0  0  0
    8.7178    1.6720   21.0555 H   0  0  0  0  0  0  0  0  0  0  0  0
    9.6068   -1.6793   20.7874 C   0  0  0  0  0  0  0  0  0  0  0  0
   10.6801   -1.5750   20.9933 H   0  0  0  0  0  0  0  0  0  0  0  0
    9.2757   -2.6467   21.1796 H   0  0  0  0  0  0  0  0  0  0  0  0
    9.4547   -1.6968   19.7054 H   0  0  0  0  0  0  0  0  0  0  0  0
    8.9800   -0.5567   22.9362 C   0  0  0  0  0  0  0  0  0  0  0  0
   10.0488   -0.7288   23.1385 H   0  0  0  0  0  0  0  0  0  0  0  0
    8.4536   -1.4469   23.3012 H   0  0  0  0  0  0  0  0  0  0  0  0
    8.5399    0.6660   23.7580 C   0  0  0  0  0  0  0  0  0  0  0  0
    9.1192    1.5374   23.4130 H   0  0  0  0  0  0  0  0  0  0  0  0
    8.9109    0.4510   25.2420 C   0  0  0  0  0  0  0  0  0  0  0  0
    9.9908    0.2685   25.3385 H   0  0  0  0  0  0  0  0  0  0  0  0
    8.4148   -0.4629   25.6012 H   0  0  0  0  0  0  0  0  0  0  0  0
    8.4984    1.6304   26.1297 C   0  0  0  0  0  0  0  0  0  0  0  0
    8.7391    1.4186   27.1765 H   0  0  0  0  0  0  0  0  0  0  0  0
    9.0840    2.5160   25.8482 H   0  0  0  0  0  0  0  0  0  0  0  0
    7.0053    1.9438   25.9878 C   0  0  0  0  0  0  0  0  0  0  0  0
    6.7322    2.8087   26.6068 H   0  0  0  0  0  0  0  0  0  0  0  0
    6.4257    1.0945   26.3748 H   0  0  0  0  0  0  0  0  0  0  0  0
    6.6274    2.1848   24.5220 C   0  0  0  0  0  0  0  0  0  0  0  0
    7.1195    3.1028   24.1736 H   0  0  0  0  0  0  0  0  0  0  0  0
    5.5488    2.3628   24.4296 H   0  0  0  0  0  0  0  0  0  0  0  0
    7.0459    1.0196   23.6170 C   0  0  0  0  0  0  0  0  0  0  0  0
    6.4477    0.1334   23.8689 H   0  0  0  0  0  0  0  0  0  0  0  0
    6.8046    1.2683   22.5755 H   0  0  0  0  0  0  0  0  0  0  0  0
    5.4258    0.6649   20.1574 C   0  0  0  0  0  0  0  0  0  0  0  0
    4.9824    0.6347   21.1574 H   0  0  0  0  0  0  0  0  0  0  0  0
    4.8023    1.3208   19.1009 C   0  0  0  0  0  0  0  0  0  0  0  0
    3.8676    1.8492   19.2508 H   0  0  0  0  0  0  0  0  0  0  0  0
  1  2  1  0
  2  3  2  0
  3  4  1  0
  4  5  1  0
  4  6  2  0
  6  7  1  0
  7  8  2  0
  7  9  1  0
  9 10  1  0
 10 11  1  0
 10 12  1  0
 10 13  1  0
  9 14  1  0
 14 15  1  0
 14 16  1  0
 14 17  1  0
  9 18  1  0
 18 19  1  0
 18 20  1  0
 18 21  1  0
 21 22  1  0
 21 23  1  0
 23 24  1  0
 23 25  1  0
 23 26  1  0
 26 27  1  0
 26 28  1  0
 26 29  1  0
 29 30  1  0
 29 31  1  0
 29 32  1  0
 32 33  1  0
 32 34  1  0
 32 35  1  0
 35 36  1  0
 35 37  1  0
  6 38  1  0
 38 39  1  0
 38 40  2  0
 40 41  1  0
 40  2  1  0
 35 21  1  0
M  END
>  <cnnaffinity>  (1) 
-4.82155

>  <filename>  (1) 
CC(C)(CC1CCCCC1)C(=O)c1cccnc1

$$$$
