
     RDKit          3D

 39 41  0  0  0  0  0  0  0  0999 V2000
    4.9116    1.7993   16.9789 H   0  0  0  0  0  0  0  0  0  0  0  0
    5.3880    1.3055   17.8196 C   0  0  0  0  0  0  0  0  0  0  0  0
    6.5526    0.6907   17.5509 N   0  0  0  0  0  0  0  0  0  0  0  0
    7.1578    0.0651   18.5664 C   0  0  0  0  0  0  0  0  0  0  0  0
    8.1149   -0.3994   18.3336 H   0  0  0  0  0  0  0  0  0  0  0  0
    6.6502    0.0131   19.8822 C   0  0  0  0  0  0  0  0  0  0  0  0
    7.3697   -0.6575   20.9724 C   0  0  0  0  0  0  0  0  0  0  0  0
    7.5158   -0.3240   22.3142 C   0  0  0  0  0  0  0  0  0  0  0  0
    7.0265    0.8333   22.9253 N   0  0  0  0  0  0  0  0  0  0  0  0
    6.9848    1.6473   22.3376 H   0  0  0  0  0  0  0  0  0  0  0  0
    6.8215    1.0332   24.2879 C   0  0  0  0  0  0  0  0  0  0  0  0
    7.0453    2.2943   24.8603 C   0  0  0  0  0  0  0  0  0  0  0  0
    7.4015    3.1136   24.2419 H   0  0  0  0  0  0  0  0  0  0  0  0
    6.8348    2.4773   26.2278 C   0  0  0  0  0  0  0  0  0  0  0  0
    7.0089    3.4504   26.6825 H   0  0  0  0  0  0  0  0  0  0  0  0
    6.3828    1.4353   27.0521 C   0  0  0  0  0  0  0  0  0  0  0  0
    6.1406    1.6649   28.5385 C   0  0  0  0  0  0  0  0  0  0  0  0
    6.3915    2.7070   28.7695 H   0  0  0  0  0  0  0  0  0  0  0  0
    4.6626    1.4430   28.9100 C   0  0  0  0  0  0  0  0  0  0  0  0
    4.0065    2.0736   28.3029 H   0  0  0  0  0  0  0  0  0  0  0  0
    4.4793    1.6699   29.9680 H   0  0  0  0  0  0  0  0  0  0  0  0
    4.3576    0.4017   28.7403 H   0  0  0  0  0  0  0  0  0  0  0  0
    7.0424    0.7687   29.3952 C   0  0  0  0  0  0  0  0  0  0  0  0
    8.1022    0.8745   29.1325 H   0  0  0  0  0  0  0  0  0  0  0  0
    6.9331    0.9703   30.4689 H   0  0  0  0  0  0  0  0  0  0  0  0
    6.7315   -0.2633   29.2173 H   0  0  0  0  0  0  0  0  0  0  0  0
    6.1485    0.1867   26.4545 C   0  0  0  0  0  0  0  0  0  0  0  0
    5.7967   -0.6530   27.0476 H   0  0  0  0  0  0  0  0  0  0  0  0
    6.3563   -0.0137   25.0954 C   0  0  0  0  0  0  0  0  0  0  0  0
    6.1757   -0.9713   24.6203 H   0  0  0  0  0  0  0  0  0  0  0  0
    8.2888   -1.3776   22.8629 C   0  0  0  0  0  0  0  0  0  0  0  0
    8.6229   -1.4673   23.8864 H   0  0  0  0  0  0  0  0  0  0  0  0
    8.6040   -2.2908   21.9522 N   0  0  0  0  0  0  0  0  0  0  0  0
    8.0486   -1.8254   20.8233 N   0  0  0  0  0  0  0  0  0  0  0  0
    8.1321   -2.3623   19.9774 H   0  0  0  0  0  0  0  0  0  0  0  0
    5.4321    0.6616   20.1411 C   0  0  0  0  0  0  0  0  0  0  0  0
    5.0181    0.6255   21.1514 H   0  0  0  0  0  0  0  0  0  0  0  0
    4.7941    1.3190   19.0887 C   0  0  0  0  0  0  0  0  0  0  0  0
    3.8643    1.8490   19.2443 H   0  0  0  0  0  0  0  0  0  0  0  0
  1  2  1  0
  2  3  2  0
  3  4  1  0
  4  5  1  0
  4  6  2  0
  6  7  1  0
  7  8  2  0
  8  9  1  0
  9 10  1  0
  9 11  1  0
 11 12  2  0
 12 13  1  0
 12 14  1  0
 14 15  1  0
 14 16  2  0
 16 17  1  0
 17 18  1  0
 17 19  1  0
 19 20  1  0
 19 21  1  0
 19 22  1  0
 17 23  1  0
 23 24  1  0
 23 25  1  0
 23 26  1  0
 16 27  1  0
 27 28  1  0
 27 29  2  0
 29 30  1  0
  8 31  1  0
 31 32  1  0
 31 33  2  0
 33 34  1  0
 34 35  1  0
  6 36  1  0
 36 37  1  0
 36 38  2  0
 38 39  1  0
 38  2  1  0
 34  7  1  0
 29 11  1  0
M  END
>  <cnnaffinity>  (1) 
-5.5301

>  <filename>  (1) 
CC(C)c1ccc(Nc2cn[nH]c2-c2cccnc2)cc1

$$$$
