
     RDKit          3D

 36 38  0  0  0  0  0  0  0  0999 V2000
    4.9187    1.7790   16.9937 H   0  0  0  0  0  0  0  0  0  0  0  0
    5.4070    1.2899   17.8330 C   0  0  0  0  0  0  0  0  0  0  0  0
    6.5658    0.6704   17.5779 N   0  0  0  0  0  0  0  0  0  0  0  0
    7.1722    0.0652   18.6120 C   0  0  0  0  0  0  0  0  0  0  0  0
    8.1133   -0.4199   18.3675 H   0  0  0  0  0  0  0  0  0  0  0  0
    6.6687    0.0184   19.9096 C   0  0  0  0  0  0  0  0  0  0  0  0
    7.3582   -0.7668   21.0273 C   0  0  0  0  0  0  0  0  0  0  0  0
    7.2316   -0.0303   22.2736 N   0  0  0  0  0  0  0  0  0  0  0  0
    6.7739   -0.4755   23.0498 H   0  0  0  0  0  0  0  0  0  0  0  0
    7.6815    1.2636   22.4803 C   0  0  0  0  0  0  0  0  0  0  0  0
    8.2099    2.1487   21.5718 C   0  0  0  0  0  0  0  0  0  0  0  0
    8.3570    2.0209   20.5070 H   0  0  0  0  0  0  0  0  0  0  0  0
    8.5167    3.3359   22.2187 N   0  0  0  0  0  0  0  0  0  0  0  0
    8.9145    4.1648   21.8036 H   0  0  0  0  0  0  0  0  0  0  0  0
    8.1809    3.2332   23.5450 C   0  0  0  0  0  0  0  0  0  0  0  0
    8.3041    4.1769   24.5826 C   0  0  0  0  0  0  0  0  0  0  0  0
    8.7193    5.1665   24.3822 H   0  0  0  0  0  0  0  0  0  0  0  0
    7.8733    3.7907   25.8501 C   0  0  0  0  0  0  0  0  0  0  0  0
    7.9508    4.4937   26.6776 H   0  0  0  0  0  0  0  0  0  0  0  0
    7.3319    2.4977   26.0848 C   0  0  0  0  0  0  0  0  0  0  0  0
    7.0039    2.2232   27.0838 H   0  0  0  0  0  0  0  0  0  0  0  0
    7.2158    1.5739   25.0481 C   0  0  0  0  0  0  0  0  0  0  0  0
    6.8029    0.5798   25.2236 H   0  0  0  0  0  0  0  0  0  0  0  0
    7.6442    1.9389   23.7570 C   0  0  0  0  0  0  0  0  0  0  0  0
    6.6383   -2.1119   21.1636 C   0  0  0  0  0  0  0  0  0  0  0  0
    7.0914   -2.7308   21.9438 H   0  0  0  0  0  0  0  0  0  0  0  0
    6.7064   -2.6644   20.2215 H   0  0  0  0  0  0  0  0  0  0  0  0
    5.5719   -1.9842   21.3764 H   0  0  0  0  0  0  0  0  0  0  0  0
    8.8544   -1.0188   20.7857 C   0  0  0  0  0  0  0  0  0  0  0  0
    9.3045   -1.4181   21.6995 H   0  0  0  0  0  0  0  0  0  0  0  0
    9.0151   -1.7439   19.9899 H   0  0  0  0  0  0  0  0  0  0  0  0
    9.3792   -0.0962   20.5272 H   0  0  0  0  0  0  0  0  0  0  0  0
    5.4350    0.6499   20.1466 C   0  0  0  0  0  0  0  0  0  0  0  0
    5.0026    0.6403   21.1514 H   0  0  0  0  0  0  0  0  0  0  0  0
    4.8026    1.3094   19.0970 C   0  0  0  0  0  0  0  0  0  0  0  0
    3.8703    1.8448   19.2558 H   0  0  0  0  0  0  0  0  0  0  0  0
  1  2  1  0
  2  3  2  0
  3  4  1  0
  4  5  1  0
  4  6  2  0
  6  7  1  0
  7  8  1  0
  8  9  1  0
  8 10  1  0
 10 11  2  0
 11 12  1  0
 11 13  1  0
 13 14  1  0
 13 15  1  0
 15 16  2  0
 16 17  1  0
 16 18  1  0
 18 19  1  0
 18 20  2  0
 20 21  1  0
 20 22  1  0
 22 23  1  0
 22 24  2  0
  7 25  1  0
 25 26  1  0
 25 27  1  0
 25 28  1  0
  7 29  1  0
 29 30  1  0
 29 31  1  0
 29 32  1  0
  6 33  1  0
 33 34  1  0
 33 35  2  0
 35 36  1  0
 35  2  1  0
 24 10  1  0
 24 15  1  0
M  END
>  <cnnaffinity>  (1) 
-5.0238

>  <filename>  (1) 
CC(C)(Nc1c[nH]c2ccccc12)c1cccnc1

$$$$
