
     RDKit          3D

 34 35  0  0  0  0  0  0  0  0999 V2000
    5.0848    1.7727   16.9154 H   0  0  0  0  0  0  0  0  0  0  0  0
    5.5139    1.2802   17.7872 C   0  0  0  0  0  0  0  0  0  0  0  0
    6.6814    0.6453   17.6015 N   0  0  0  0  0  0  0  0  0  0  0  0
    7.2400    0.0564   18.6702 C   0  0  0  0  0  0  0  0  0  0  0  0
    8.1948   -0.4364   18.4992 H   0  0  0  0  0  0  0  0  0  0  0  0
    6.6609    0.0305   19.9579 C   0  0  0  0  0  0  0  0  0  0  0  0
    7.3126   -0.6773   21.0791 C   0  0  0  0  0  0  0  0  0  0  0  0
    8.6327   -0.7196   21.4846 C   0  0  0  0  0  0  0  0  0  0  0  0
    9.6546    0.0848   20.9371 N   0  0  0  0  0  0  0  0  0  0  0  0
    9.5896    1.0630   21.2079 H   0  0  0  0  0  0  0  0  0  0  0  0
   10.9960   -0.1842   21.3696 C   0  0  0  0  0  0  0  0  0  0  0  0
   11.6945   -0.2043   20.5281 H   0  0  0  0  0  0  0  0  0  0  0  0
   11.0783   -1.1564   21.8898 H   0  0  0  0  0  0  0  0  0  0  0  0
   11.2723    0.9601   22.2076 N   0  0  0  0  0  0  0  0  0  0  0  0
   10.6520    0.8862   23.0083 H   0  0  0  0  0  0  0  0  0  0  0  0
   12.6394    1.1911   22.6435 C   0  0  0  0  0  0  0  0  0  0  0  0
   13.2477    1.3578   21.7438 H   0  0  0  0  0  0  0  0  0  0  0  0
   12.6421    2.4669   23.4794 C   0  0  0  0  0  0  0  0  0  0  0  0
   12.2304    3.3091   22.9129 H   0  0  0  0  0  0  0  0  0  0  0  0
   12.0144    2.3248   24.3693 H   0  0  0  0  0  0  0  0  0  0  0  0
   13.6485    2.7251   23.8231 H   0  0  0  0  0  0  0  0  0  0  0  0
   13.2528    0.0169   23.4070 C   0  0  0  0  0  0  0  0  0  0  0  0
   12.7756   -0.0934   24.3899 H   0  0  0  0  0  0  0  0  0  0  0  0
   14.3291    0.1629   23.5606 H   0  0  0  0  0  0  0  0  0  0  0  0
   13.1123   -0.9204   22.8581 H   0  0  0  0  0  0  0  0  0  0  0  0
    8.6595   -1.7183   22.5062 C   0  0  0  0  0  0  0  0  0  0  0  0
    9.4923   -2.1031   23.0806 H   0  0  0  0  0  0  0  0  0  0  0  0
    7.4479   -2.2037   22.7504 N   0  0  0  0  0  0  0  0  0  0  0  0
    6.6540   -1.5485   21.8916 N   0  0  0  0  0  0  0  0  0  0  0  0
    5.6532   -1.6721   21.9461 H   0  0  0  0  0  0  0  0  0  0  0  0
    5.4346    0.6907   20.1211 C   0  0  0  0  0  0  0  0  0  0  0  0
    4.9595    0.7070   21.1037 H   0  0  0  0  0  0  0  0  0  0  0  0
    4.8624    1.3330   19.0253 C   0  0  0  0  0  0  0  0  0  0  0  0
    3.9345    1.8820   19.1202 H   0  0  0  0  0  0  0  0  0  0  0  0
  1  2  1  0
  2  3  2  0
  3  4  1  0
  4  5  1  0
  4  6  2  0
  6  7  1  0
  7  8  2  0
  8  9  1  0
  9 10  1  0
  9 11  1  0
 11 12  1  0
 11 13  1  0
 11 14  1  0
 14 15  1  0
 14 16  1  0
 16 17  1  0
 16 18  1  0
 18 19  1  0
 18 20  1  0
 18 21  1  0
 16 22  1  0
 22 23  1  0
 22 24  1  0
 22 25  1  0
  8 26  1  0
 26 27  1  0
 26 28  2  0
 28 29  1  0
 29 30  1  0
  6 31  1  0
 31 32  1  0
 31 33  2  0
 33 34  1  0
 33  2  1  0
 29  7  1  0
M  END
>  <cnnaffinity>  (1) 
-4.75435

>  <filename>  (1) 
CC(C)NCNc1cn[nH]c1-c1cccnc1

$$$$
