
     RDKit          3D

 47 50  0  0  0  0  0  0  0  0999 V2000
    4.9640    1.8711   16.9320 H   0  0  0  0  0  0  0  0  0  0  0  0
    5.4095    1.3162   17.7586 C   0  0  0  0  0  0  0  0  0  0  0  0
    6.5536    0.6706   17.5002 N   0  0  0  0  0  0  0  0  0  0  0  0
    7.1346    0.0178   18.5170 C   0  0  0  0  0  0  0  0  0  0  0  0
    8.0709   -0.4740   18.2656 H   0  0  0  0  0  0  0  0  0  0  0  0
    6.6335   -0.0578   19.8315 C   0  0  0  0  0  0  0  0  0  0  0  0
    7.3708   -0.8202   20.9319 C   0  0  1  0  0  0  0  0  0  0  0  0
    7.0178   -1.8594   20.9245 H   0  0  0  0  0  0  0  0  0  0  0  0
    8.9330   -0.8783   20.7834 C   0  0  0  0  0  0  0  0  0  0  0  0
    9.3064   -0.0385   20.1886 H   0  0  0  0  0  0  0  0  0  0  0  0
    9.2754   -1.8083   20.3204 H   0  0  0  0  0  0  0  0  0  0  0  0
    9.4206   -0.7381   22.1957 C   0  0  0  0  0  0  0  0  0  0  0  0
   10.6010   -0.8336   22.7814 N   0  0  0  0  0  0  0  0  0  0  0  0
   10.3263   -0.5516   24.0794 N   0  0  0  0  0  0  0  0  0  0  0  0
   11.1035   -0.4236   24.7133 H   0  0  0  0  0  0  0  0  0  0  0  0
    9.0114   -0.2473   24.3180 C   0  0  0  0  0  0  0  0  0  0  0  0
    8.4336    0.1211   25.6270 C   0  0  0  0  0  0  0  0  0  0  0  0
    7.1596    0.7239   25.6542 C   0  0  0  0  0  0  0  0  0  0  0  0
    6.6127    0.8678   24.7292 H   0  0  0  0  0  0  0  0  0  0  0  0
    6.5916    1.1775   26.8415 C   0  0  0  0  0  0  0  0  0  0  0  0
    5.6218    1.6691   26.7866 H   0  0  0  0  0  0  0  0  0  0  0  0
    7.2590    1.0383   28.0722 C   0  0  0  0  0  0  0  0  0  0  0  0
    6.6567    1.6507   29.3582 C   0  0  0  0  0  0  0  0  0  0  0  0
    5.3690    0.8752   29.7233 C   0  0  0  0  0  0  0  0  0  0  0  0
    4.6187    0.9489   28.9263 H   0  0  0  0  0  0  0  0  0  0  0  0
    4.9185    1.2580   30.6486 H   0  0  0  0  0  0  0  0  0  0  0  0
    5.5938   -0.1885   29.8721 H   0  0  0  0  0  0  0  0  0  0  0  0
    6.3242    3.1526   29.1492 C   0  0  0  0  0  0  0  0  0  0  0  0
    5.6003    3.3201   28.3434 H   0  0  0  0  0  0  0  0  0  0  0  0
    7.2323    3.7153   28.8971 H   0  0  0  0  0  0  0  0  0  0  0  0
    5.9028    3.5838   30.0674 H   0  0  0  0  0  0  0  0  0  0  0  0
    7.6355    1.5758   30.5483 C   0  0  0  0  0  0  0  0  0  0  0  0
    8.5598    2.1234   30.3259 H   0  0  0  0  0  0  0  0  0  0  0  0
    7.9056    0.5404   30.7850 H   0  0  0  0  0  0  0  0  0  0  0  0
    7.1916    2.0165   31.4483 H   0  0  0  0  0  0  0  0  0  0  0  0
    8.4764    0.3273   28.0495 C   0  0  0  0  0  0  0  0  0  0  0  0
    9.0071    0.1378   28.9773 H   0  0  0  0  0  0  0  0  0  0  0  0
    9.0785   -0.0856   26.8608 C   0  0  0  0  0  0  0  0  0  0  0  0
   10.0610   -0.5489   26.9271 H   0  0  0  0  0  0  0  0  0  0  0  0
    8.4110   -0.3726   23.0752 C   0  0  0  0  0  0  0  0  0  0  0  0
    7.0963   -0.2625   22.3688 C   0  0  0  0  0  0  0  0  0  0  0  0
    6.2977   -0.8232   22.8683 H   0  0  0  0  0  0  0  0  0  0  0  0
    6.7818    0.7868   22.3165 H   0  0  0  0  0  0  0  0  0  0  0  0
    5.4119    0.6027   20.0596 C   0  0  0  0  0  0  0  0  0  0  0  0
    4.9523    0.6073   21.0501 H   0  0  0  0  0  0  0  0  0  0  0  0
    4.7992    1.2968   19.0138 C   0  0  0  0  0  0  0  0  0  0  0  0
    3.8863    1.8557   19.1742 H   0  0  0  0  0  0  0  0  0  0  0  0
  1  2  1  0
  2  3  2  0
  3  4  1  0
  4  5  1  0
  4  6  2  0
  6  7  1  0
  7  8  1  1
  7  9  1  0
  9 10  1  0
  9 11  1  0
  9 12  1  0
 12 13  2  0
 13 14  1  0
 14 15  1  0
 14 16  1  0
 16 17  1  0
 17 18  2  0
 18 19  1  0
 18 20  1  0
 20 21  1  0
 20 22  2  0
 22 23  1  0
 23 24  1  0
 24 25  1  0
 24 26  1  0
 24 27  1  0
 23 28  1  0
 28 29  1  0
 28 30  1  0
 28 31  1  0
 23 32  1  0
 32 33  1  0
 32 34  1  0
 32 35  1  0
 22 36  1  0
 36 37  1  0
 36 38  2  0
 38 39  1  0
 16 40  2  0
 40 41  1  0
 41 42  1  0
 41 43  1  0
  6 44  1  0
 44 45  1  0
 44 46  2  0
 46 47  1  0
 46  2  1  0
 41  7  1  0
 40 12  1  0
 38 17  1  0
M  END
>  <cnnaffinity>  (1) 
-5.23412

>  <filename>  (1) 
CC(C)(C)c1ccc(-c2[nH]nc3c2C[C@@H](c2cccnc2)C3)cc1

$$$$
