
     RDKit          3D

 34 35  0  0  0  0  0  0  0  0999 V2000
    5.1138    1.7934   16.9004 H   0  0  0  0  0  0  0  0  0  0  0  0
    5.5370    1.3149   17.7813 C   0  0  0  0  0  0  0  0  0  0  0  0
    6.6958    0.6644   17.6010 N   0  0  0  0  0  0  0  0  0  0  0  0
    7.2504    0.0787   18.6684 C   0  0  0  0  0  0  0  0  0  0  0  0
    8.1823   -0.4523   18.4579 H   0  0  0  0  0  0  0  0  0  0  0  0
    6.6664    0.0867   19.9356 C   0  0  0  0  0  0  0  0  0  0  0  0
    7.2581   -0.6904   21.0531 C   0  0  0  0  0  0  0  0  0  0  0  0
    6.5622   -1.4132   21.7517 O   0  0  0  0  0  0  0  0  0  0  0  0
    8.5903   -0.5147   21.2392 N   0  0  0  0  0  0  0  0  0  0  0  0
    9.0769    0.0261   20.5476 H   0  0  0  0  0  0  0  0  0  0  0  0
    9.3939   -1.3346   22.1566 C   0  0  0  0  0  0  0  0  0  0  0  0
   10.8777   -0.8898   22.0985 C   0  0  0  0  0  0  0  0  0  0  0  0
   11.9109   -1.8580   22.1105 C   0  0  0  0  0  0  0  0  0  0  0  0
   11.6437   -2.9084   22.0924 H   0  0  0  0  0  0  0  0  0  0  0  0
   13.2687   -1.5271   22.1371 C   0  0  0  0  0  0  0  0  0  0  0  0
   14.0212   -2.3146   22.1227 H   0  0  0  0  0  0  0  0  0  0  0  0
   13.6487   -0.1871   22.2010 C   0  0  0  0  0  0  0  0  0  0  0  0
   14.6956    0.1065   22.2210 H   0  0  0  0  0  0  0  0  0  0  0  0
   12.6613    0.7981   22.2366 C   0  0  0  0  0  0  0  0  0  0  0  0
   12.9427    1.8400   22.3141 H   0  0  0  0  0  0  0  0  0  0  0  0
   11.3046    0.4581   22.1687 C   0  0  0  0  0  0  0  0  0  0  0  0
   10.2023    1.8216   22.2202 Cl  0  0  0  0  0  0  0  0  0  0  0  0
    8.9085   -1.1733   23.6091 C   0  0  0  0  0  0  0  0  0  0  0  0
    8.9538   -0.1159   23.8882 H   0  0  0  0  0  0  0  0  0  0  0  0
    7.8809   -1.5249   23.7188 H   0  0  0  0  0  0  0  0  0  0  0  0
    9.5652   -1.7388   24.2826 H   0  0  0  0  0  0  0  0  0  0  0  0
    9.2201   -2.7933   21.6735 C   0  0  0  0  0  0  0  0  0  0  0  0
    9.6282   -3.5256   22.3763 H   0  0  0  0  0  0  0  0  0  0  0  0
    8.1594   -3.0099   21.5515 H   0  0  0  0  0  0  0  0  0  0  0  0
    9.7031   -2.8863   20.6936 H   0  0  0  0  0  0  0  0  0  0  0  0
    5.4377    0.7418   20.1126 C   0  0  0  0  0  0  0  0  0  0  0  0
    4.9384    0.7372   21.0858 H   0  0  0  0  0  0  0  0  0  0  0  0
    4.8711    1.3803   19.0124 C   0  0  0  0  0  0  0  0  0  0  0  0
    3.9293    1.9119   19.0867 H   0  0  0  0  0  0  0  0  0  0  0  0
  1  2  1  0
  2  3  2  0
  3  4  1  0
  4  5  1  0
  4  6  2  0
  6  7  1  0
  7  8  2  0
  7  9  1  0
  9 10  1  0
  9 11  1  0
 11 12  1  0
 12 13  2  0
 13 14  1  0
 13 15  1  0
 15 16  1  0
 15 17  2  0
 17 18  1  0
 17 19  1  0
 19 20  1  0
 19 21  2  0
 21 22  1  0
 11 23  1  0
 23 24  1  0
 23 25  1  0
 23 26  1  0
 11 27  1  0
 27 28  1  0
 27 29  1  0
 27 30  1  0
  6 31  1  0
 31 32  1  0
 31 33  2  0
 33 34  1  0
 33  2  1  0
 21 12  1  0
M  END
>  <cnnaffinity>  (1) 
-5.40442

>  <filename>  (1) 
CC(C)(NC(=O)c1cccnc1)c1ccccc1Cl

$$$$
