
     RDKit          3D

 30 32  0  0  0  0  0  0  0  0999 V2000
    5.1144    1.7986   16.8283 H   0  0  0  0  0  0  0  0  0  0  0  0
    5.4984    1.3070   17.7205 C   0  0  0  0  0  0  0  0  0  0  0  0
    6.6702    0.6698   17.5980 N   0  0  0  0  0  0  0  0  0  0  0  0
    7.1641    0.0686   18.6861 C   0  0  0  0  0  0  0  0  0  0  0  0
    8.1278   -0.4201   18.5752 H   0  0  0  0  0  0  0  0  0  0  0  0
    6.5009    0.0444   19.9235 C   0  0  0  0  0  0  0  0  0  0  0  0
    7.0646   -0.7011   21.0539 C   0  0  0  0  0  0  0  0  0  0  0  0
    6.3627   -1.1981   22.0416 N   0  0  0  0  0  0  0  0  0  0  0  0
    7.2048   -1.8209   22.9346 N   0  0  0  0  0  0  0  0  0  0  0  0
    8.4036   -1.6589   22.4524 C   0  0  0  0  0  0  0  0  0  0  0  0
   10.0365   -1.9857   22.9588 S   0  0  0  0  0  0  0  0  0  0  0  0
   10.5381   -1.1609   21.4796 C   0  0  0  0  0  0  0  0  0  0  0  0
   11.8208   -0.9864   21.1323 N   0  0  0  0  0  0  0  0  0  0  0  0
   11.8754   -0.7638   20.1515 H   0  0  0  0  0  0  0  0  0  0  0  0
   12.9951   -1.4698   21.8221 C   0  0  0  0  0  0  0  0  0  0  0  0
   12.6791   -2.2640   22.5049 H   0  0  0  0  0  0  0  0  0  0  0  0
   13.9157   -2.0592   20.7696 C   0  0  0  0  0  0  0  0  0  0  0  0
   14.4672   -1.2764   20.2448 H   0  0  0  0  0  0  0  0  0  0  0  0
   14.6247   -2.7689   21.1926 H   0  0  0  0  0  0  0  0  0  0  0  0
   13.3223   -2.6162   20.0383 H   0  0  0  0  0  0  0  0  0  0  0  0
   13.5929   -0.3129   22.6190 C   0  0  0  0  0  0  0  0  0  0  0  0
   14.5000   -0.5911   23.1632 H   0  0  0  0  0  0  0  0  0  0  0  0
   12.8628    0.0644   23.3420 H   0  0  0  0  0  0  0  0  0  0  0  0
   13.8380    0.5018   21.9297 H   0  0  0  0  0  0  0  0  0  0  0  0
    9.6109   -0.6998   20.6913 N   0  0  0  0  0  0  0  0  0  0  0  0
    8.3978   -0.9947   21.2699 N   0  0  0  0  0  0  0  0  0  0  0  0
    5.2809    0.7236   20.0445 C   0  0  0  0  0  0  0  0  0  0  0  0
    4.7503    0.7443   20.9991 H   0  0  0  0  0  0  0  0  0  0  0  0
    4.7749    1.3682   18.9171 C   0  0  0  0  0  0  0  0  0  0  0  0
    3.8461    1.9228   18.9582 H   0  0  0  0  0  0  0  0  0  0  0  0
  1  2  1  0
  2  3  2  0
  3  4  1  0
  4  5  1  0
  4  6  2  0
  6  7  1  0
  7  8  2  0
  8  9  1  0
  9 10  2  0
 10 11  1  0
 11 12  1  0
 12 13  1  0
 13 14  1  0
 13 15  1  0
 15 16  1  0
 15 17  1  0
 17 18  1  0
 17 19  1  0
 17 20  1  0
 15 21  1  0
 21 22  1  0
 21 23  1  0
 21 24  1  0
 12 25  2  0
 25 26  1  0
  6 27  1  0
 27 28  1  0
 27 29  2  0
 29 30  1  0
 29  2  1  0
 26  7  1  0
 26 10  1  0
M  END
>  <cnnaffinity>  (1) 
-5.71319

>  <filename>  (1) 
CC(C)Nc1nn2c(-c3cccnc3)nnc2s1

$$$$
