
     RDKit          3D

 32 33  0  0  0  0  0  0  0  0999 V2000
    5.0398    1.8509   16.7972 H   0  0  0  0  0  0  0  0  0  0  0  0
    5.4145    1.3490   17.6888 C   0  0  0  0  0  0  0  0  0  0  0  0
    6.5665    0.6777   17.5379 N   0  0  0  0  0  0  0  0  0  0  0  0
    7.0566    0.0684   18.6204 C   0  0  0  0  0  0  0  0  0  0  0  0
    7.9866   -0.4756   18.4917 H   0  0  0  0  0  0  0  0  0  0  0  0
    6.4457    0.0954   19.8910 C   0  0  0  0  0  0  0  0  0  0  0  0
    7.1268   -0.5658   21.0013 C   0  0  0  0  0  0  0  0  0  0  0  0
    8.3110   -1.2449   20.7181 N   0  0  0  0  0  0  0  0  0  0  0  0
    8.6982   -1.7143   21.8504 C   0  0  0  0  0  0  0  0  0  0  0  0
    9.8824   -2.5605   22.1293 C   0  0  0  0  0  0  0  0  0  0  0  0
    9.5001   -3.5451   22.4233 H   0  0  0  0  0  0  0  0  0  0  0  0
   10.4118   -2.6674   21.1823 H   0  0  0  0  0  0  0  0  0  0  0  0
   10.8272   -2.0227   23.2033 C   0  0  0  0  0  0  0  0  0  0  0  0
   10.2684   -1.8528   24.1320 H   0  0  0  0  0  0  0  0  0  0  0  0
   11.5245   -2.8544   23.3780 H   0  0  0  0  0  0  0  0  0  0  0  0
   11.6299   -0.7477   22.8303 C   0  0  0  0  0  0  0  0  0  0  0  0
   12.1886   -0.4357   23.7277 H   0  0  0  0  0  0  0  0  0  0  0  0
   12.6791   -1.0934   21.7622 C   0  0  0  0  0  0  0  0  0  0  0  0
   13.1400   -2.0584   22.0055 H   0  0  0  0  0  0  0  0  0  0  0  0
   12.2474   -1.1912   20.7564 H   0  0  0  0  0  0  0  0  0  0  0  0
   13.4867   -0.3541   21.7261 H   0  0  0  0  0  0  0  0  0  0  0  0
   10.7610    0.4723   22.4879 C   0  0  0  0  0  0  0  0  0  0  0  0
   10.1999    0.3541   21.5533 H   0  0  0  0  0  0  0  0  0  0  0  0
   10.0383    0.6611   23.2907 H   0  0  0  0  0  0  0  0  0  0  0  0
   11.3785    1.3735   22.3982 H   0  0  0  0  0  0  0  0  0  0  0  0
    7.8886   -1.4096   22.8854 O   0  0  0  0  0  0  0  0  0  0  0  0
    6.8755   -0.6704   22.3370 C   0  0  0  0  0  0  0  0  0  0  0  0
    6.1253   -0.3460   23.0425 H   0  0  0  0  0  0  0  0  0  0  0  0
    5.2350    0.7901   20.0281 C   0  0  0  0  0  0  0  0  0  0  0  0
    4.7323    0.8482   20.9956 H   0  0  0  0  0  0  0  0  0  0  0  0
    4.7096    1.4177   18.8961 C   0  0  0  0  0  0  0  0  0  0  0  0
    3.7781    1.9743   18.9319 H   0  0  0  0  0  0  0  0  0  0  0  0
  1  2  1  0
  2  3  2  0
  3  4  1  0
  4  5  1  0
  4  6  2  0
  6  7  1  0
  7  8  1  0
  8  9  2  0
  9 10  1  0
 10 11  1  0
 10 12  1  0
 10 13  1  0
 13 14  1  0
 13 15  1  0
 13 16  1  0
 16 17  1  0
 16 18  1  0
 18 19  1  0
 18 20  1  0
 18 21  1  0
 16 22  1  0
 22 23  1  0
 22 24  1  0
 22 25  1  0
  9 26  1  0
 26 27  1  0
 27 28  1  0
  6 29  1  0
 29 30  1  0
 29 31  2  0
 31 32  1  0
 31  2  1  0
 27  7  2  0
M  END
>  <cnnaffinity>  (1) 
-4.95681

>  <filename>  (1) 
CC(C)CCc1nc(-c2cccnc2)co1

$$$$
