
     RDKit          3D

 34 35  0  0  0  0  0  0  0  0999 V2000
    5.1843    1.8090   16.8492 H   0  0  0  0  0  0  0  0  0  0  0  0
    5.5803    1.3359   17.7437 C   0  0  0  0  0  0  0  0  0  0  0  0
    6.7360    0.6706   17.5993 N   0  0  0  0  0  0  0  0  0  0  0  0
    7.2476    0.0834   18.6856 C   0  0  0  0  0  0  0  0  0  0  0  0
    8.1796   -0.4564   18.5232 H   0  0  0  0  0  0  0  0  0  0  0  0
    6.6379    0.1120   19.9419 C   0  0  0  0  0  0  0  0  0  0  0  0
    7.2199   -0.6686   21.0649 C   0  0  0  0  0  0  0  0  0  0  0  0
    6.5185   -1.3936   21.7542 O   0  0  0  0  0  0  0  0  0  0  0  0
    8.5545   -0.5074   21.2541 N   0  0  0  0  0  0  0  0  0  0  0  0
    9.0204    0.1082   20.6164 H   0  0  0  0  0  0  0  0  0  0  0  0
    9.3648   -1.2840   22.1993 C   0  0  0  0  0  0  0  0  0  0  0  0
   10.8431   -0.8140   22.1551 C   0  0  0  0  0  0  0  0  0  0  0  0
   11.8904   -1.7563   22.0746 C   0  0  0  0  0  0  0  0  0  0  0  0
   11.6579   -2.8010   21.9470 H   0  0  0  0  0  0  0  0  0  0  0  0
   13.2331   -1.4127   22.1917 C   0  0  0  0  0  0  0  0  0  0  0  0
   13.9901   -2.1901   22.1344 H   0  0  0  0  0  0  0  0  0  0  0  0
   13.5818   -0.0904   22.4348 C   0  0  0  0  0  0  0  0  0  0  0  0
   14.6081    0.2121   22.5929 H   0  0  0  0  0  0  0  0  0  0  0  0
   12.5872    0.8864   22.5003 C   0  0  0  0  0  0  0  0  0  0  0  0
   13.0941    2.5103   22.8428 Cl  0  0  0  0  0  0  0  0  0  0  0  0
   11.2319    0.5374   22.3442 C   0  0  0  0  0  0  0  0  0  0  0  0
   10.0538    1.8169   22.3988 Cl  0  0  0  0  0  0  0  0  0  0  0  0
    9.2294   -2.7564   21.7662 C   0  0  0  0  0  0  0  0  0  0  0  0
    8.1724   -3.0073   21.6783 H   0  0  0  0  0  0  0  0  0  0  0  0
    9.6995   -3.4260   22.4936 H   0  0  0  0  0  0  0  0  0  0  0  0
    9.6991   -2.8704   20.7838 H   0  0  0  0  0  0  0  0  0  0  0  0
    8.8172   -1.1256   23.6295 C   0  0  0  0  0  0  0  0  0  0  0  0
    8.8563   -0.0852   23.9590 H   0  0  0  0  0  0  0  0  0  0  0  0
    9.4100   -1.7244   24.3279 H   0  0  0  0  0  0  0  0  0  0  0  0
    7.7784   -1.4554   23.6545 H   0  0  0  0  0  0  0  0  0  0  0  0
    5.4079    0.7770   20.0733 C   0  0  0  0  0  0  0  0  0  0  0  0
    4.8766    0.7785   21.0278 H   0  0  0  0  0  0  0  0  0  0  0  0
    4.8854    1.4182   18.9557 C   0  0  0  0  0  0  0  0  0  0  0  0
    3.9565    1.9778   19.0040 H   0  0  0  0  0  0  0  0  0  0  0  0
  1  2  1  0
  2  3  2  0
  3  4  1  0
  4  5  1  0
  4  6  2  0
  6  7  1  0
  7  8  2  0
  7  9  1  0
  9 10  1  0
  9 11  1  0
 11 12  1  0
 12 13  2  0
 13 14  1  0
 13 15  1  0
 15 16  1  0
 15 17  2  0
 17 18  1  0
 17 19  1  0
 19 20  1  0
 19 21  2  0
 21 22  1  0
 11 23  1  0
 23 24  1  0
 23 25  1  0
 23 26  1  0
 11 27  1  0
 27 28  1  0
 27 29  1  0
 27 30  1  0
  6 31  1  0
 31 32  1  0
 31 33  2  0
 33 34  1  0
 33  2  1  0
 21 12  1  0
M  END
>  <cnnaffinity>  (1) 
-5.6895

>  <filename>  (1) 
CC(C)(NC(=O)c1cccnc1)c1cccc(Cl)c1Cl

$$$$
