
     RDKit          3D

 33 34  0  0  0  0  0  0  0  0999 V2000
    7.8880   -0.5996   24.7271 C   0  0  0  0  0  0  0  0  0  0  0  0
    7.9657   -1.2073   23.3083 C   0  0  0  0  0  0  0  0  0  0  0  0
    7.1121   -2.5082   23.2869 C   0  0  0  0  0  0  0  0  0  0  0  0
    7.3626   -3.1383   22.4273 H   0  0  0  0  0  0  0  0  0  0  0  0
    7.3000   -3.0952   24.1864 H   0  0  0  0  0  0  0  0  0  0  0  0
    6.0426   -2.2776   23.2582 H   0  0  0  0  0  0  0  0  0  0  0  0
    7.3515   -0.1680   22.2815 C   0  0  0  0  0  0  0  0  0  0  0  0
    6.9874    0.9488   22.5944 O   0  0  0  0  0  0  0  0  0  0  0  0
    7.2972   -0.6319   20.9814 N   0  0  0  0  0  0  0  0  0  0  0  0
    6.6573    0.0030   19.8863 C   0  0  0  0  0  0  0  0  0  0  0  0
    5.4366    0.6514   20.1202 C   0  0  0  0  0  0  0  0  0  0  0  0
    4.8019    1.2992   19.0593 C   0  0  0  0  0  0  0  0  0  0  0  0
    5.4073    1.2901   17.8010 C   0  0  0  0  0  0  0  0  0  0  0  0
    6.5673    0.6575   17.5497 N   0  0  0  0  0  0  0  0  0  0  0  0
    7.1722    0.0284   18.5678 C   0  0  0  0  0  0  0  0  0  0  0  0
    8.1262   -0.4496   18.3286 H   0  0  0  0  0  0  0  0  0  0  0  0
    4.9470    1.8119   16.9646 H   0  0  0  0  0  0  0  0  0  0  0  0
    3.8694    1.8342   19.2186 H   0  0  0  0  0  0  0  0  0  0  0  0
    5.0339    0.6581   21.1277 H   0  0  0  0  0  0  0  0  0  0  0  0
    7.8573   -1.4510   20.8217 H   0  0  0  0  0  0  0  0  0  0  0  0
    9.4470   -1.5280   22.9769 C   0  0  0  0  0  0  0  0  0  0  0  0
   10.2500   -0.6278   22.2674 C   0  0  0  0  0  0  0  0  0  0  0  0
   11.5816   -0.9375   21.9683 C   0  0  0  0  0  0  0  0  0  0  0  0
   12.0588   -2.1864   22.3478 C   0  0  0  0  0  0  0  0  0  0  0  0
   11.3504   -3.0352   23.1065 N   0  0  0  0  0  0  0  0  0  0  0  0
   10.1387   -2.6730   23.4472 C   0  0  0  0  0  0  0  0  0  0  0  0
    9.5428   -3.4995   24.3188 F   0  0  0  0  0  0  0  0  0  0  0  0
   13.0610   -2.5121   22.0885 H   0  0  0  0  0  0  0  0  0  0  0  0
   12.2239   -0.2245   21.4714 H   0  0  0  0  0  0  0  0  0  0  0  0
    9.8278    0.3293   21.9648 H   0  0  0  0  0  0  0  0  0  0  0  0
    6.8515   -0.3658   24.9912 H   0  0  0  0  0  0  0  0  0  0  0  0
    8.2797   -1.3122   25.4579 H   0  0  0  0  0  0  0  0  0  0  0  0
    8.4689    0.3251   24.7972 H   0  0  0  0  0  0  0  0  0  0  0  0
  1  2  1  0
  2  3  1  0
  3  4  1  0
  3  5  1  0
  3  6  1  0
  2  7  1  0
  7  8  2  0
  7  9  1  0
  9 10  1  0
 10 11  2  0
 11 12  1  0
 12 13  2  0
 13 14  1  0
 14 15  2  0
 15 16  1  0
 13 17  1  0
 12 18  1  0
 11 19  1  0
  9 20  1  0
  2 21  1  0
 21 22  2  0
 22 23  1  0
 23 24  2  0
 24 25  1  0
 25 26  2  0
 26 27  1  0
 24 28  1  0
 23 29  1  0
 22 30  1  0
  1 31  1  0
  1 32  1  0
  1 33  1  0
 15 10  1  0
 26 21  1  0
M  END
>  <cnnaffinity>  (1) 
-5.36279

>  <filename>  (1) 
CC(C)(C(=O)Nc1cccnc1)c1cccnc1F

$$$$
