
     RDKit          3D

 39 41  0  0  0  0  0  0  0  0999 V2000
    5.0931    1.8129   16.8836 H   0  0  0  0  0  0  0  0  0  0  0  0
    5.4945    1.3109   17.7623 C   0  0  0  0  0  0  0  0  0  0  0  0
    6.6476    0.6450   17.5890 N   0  0  0  0  0  0  0  0  0  0  0  0
    7.1605   -0.0013   18.6424 C   0  0  0  0  0  0  0  0  0  0  0  0
    8.0826   -0.5525   18.4539 H   0  0  0  0  0  0  0  0  0  0  0  0
    6.5723    0.0051   19.9212 C   0  0  0  0  0  0  0  0  0  0  0  0
    7.1836   -0.7183   21.0461 C   0  0  0  0  0  0  0  0  0  0  0  0
    7.7489   -1.9165   20.8816 N   0  0  0  0  0  0  0  0  0  0  0  0
    8.1054   -2.2686   22.1208 N   0  0  0  0  0  0  0  0  0  0  0  0
    7.8205   -1.3535   23.0532 C   0  0  0  0  0  0  0  0  0  0  0  0
    7.2489   -0.2799   22.4028 C   0  0  0  0  0  0  0  0  0  0  0  0
    6.9349    1.0644   22.9986 C   0  0  0  0  0  0  0  0  0  0  0  0
    6.9645    1.8211   22.1943 H   0  0  0  0  0  0  0  0  0  0  0  0
    5.9060    1.0680   23.3928 H   0  0  0  0  0  0  0  0  0  0  0  0
    7.8227    1.3791   24.1154 N   0  0  0  0  0  0  0  0  0  0  0  0
    8.7374    1.6409   23.7539 H   0  0  0  0  0  0  0  0  0  0  0  0
    7.3952    2.4302   25.0341 C   0  0  0  0  0  0  0  0  0  0  0  0
    6.3849    2.1670   25.3834 H   0  0  0  0  0  0  0  0  0  0  0  0
    8.3327    2.3766   26.2359 C   0  0  0  0  0  0  0  0  0  0  0  0
    8.3823    1.3533   26.6218 H   0  0  0  0  0  0  0  0  0  0  0  0
    8.0231    3.0417   27.0484 H   0  0  0  0  0  0  0  0  0  0  0  0
    9.3479    2.6644   25.9422 H   0  0  0  0  0  0  0  0  0  0  0  0
    7.3334    3.8193   24.3873 C   0  0  0  0  0  0  0  0  0  0  0  0
    8.3287    4.1442   24.0558 H   0  0  0  0  0  0  0  0  0  0  0  0
    6.6723    3.8197   23.5127 H   0  0  0  0  0  0  0  0  0  0  0  0
    6.9552    4.5655   25.0945 H   0  0  0  0  0  0  0  0  0  0  0  0
    8.3896   -1.7573   24.3748 C   0  0  0  0  0  0  0  0  0  0  0  0
    9.1945   -1.0648   24.6307 H   0  0  0  0  0  0  0  0  0  0  0  0
    7.6534   -1.6986   25.1766 H   0  0  0  0  0  0  0  0  0  0  0  0
    8.8825   -3.2050   24.1098 C   0  0  0  0  0  0  0  0  0  0  0  0
    9.8410   -3.4259   24.5850 H   0  0  0  0  0  0  0  0  0  0  0  0
    8.1480   -3.9123   24.4953 H   0  0  0  0  0  0  0  0  0  0  0  0
    8.9457   -3.3602   22.5692 C   0  0  0  0  0  0  0  0  0  0  0  0
    8.5620   -4.3249   22.2246 H   0  0  0  0  0  0  0  0  0  0  0  0
    9.9540   -3.2101   22.1784 H   0  0  0  0  0  0  0  0  0  0  0  0
    5.3639    0.7054   20.0783 C   0  0  0  0  0  0  0  0  0  0  0  0
    4.8631    0.7316   21.0467 H   0  0  0  0  0  0  0  0  0  0  0  0
    4.8099    1.3553   18.9794 C   0  0  0  0  0  0  0  0  0  0  0  0
    3.8734    1.8983   19.0567 H   0  0  0  0  0  0  0  0  0  0  0  0
  1  2  1  0
  2  3  2  0
  3  4  1  0
  4  5  1  0
  4  6  2  0
  6  7  1  0
  7  8  2  0
  8  9  1  0
  9 10  1  0
 10 11  2  0
 11 12  1  0
 12 13  1  0
 12 14  1  0
 12 15  1  0
 15 16  1  0
 15 17  1  0
 17 18  1  0
 17 19  1  0
 19 20  1  0
 19 21  1  0
 19 22  1  0
 17 23  1  0
 23 24  1  0
 23 25  1  0
 23 26  1  0
 10 27  1  0
 27 28  1  0
 27 29  1  0
 27 30  1  0
 30 31  1  0
 30 32  1  0
 30 33  1  0
 33 34  1  0
 33 35  1  0
  6 36  1  0
 36 37  1  0
 36 38  2  0
 38 39  1  0
 38  2  1  0
 11  7  1  0
 33  9  1  0
M  END
>  <cnnaffinity>  (1) 
-5.0674

>  <filename>  (1) 
CC(C)NCc1c(-c2cccnc2)nn2c1CCC2

$$$$
