
     RDKit          3D

 39 41  0  0  0  0  0  0  0  0999 V2000
    4.9204    1.7990   16.9710 H   0  0  0  0  0  0  0  0  0  0  0  0
    5.3928    1.3025   17.8173 C   0  0  0  0  0  0  0  0  0  0  0  0
    6.5580    0.6840   17.5616 N   0  0  0  0  0  0  0  0  0  0  0  0
    7.1706    0.0730   18.5851 C   0  0  0  0  0  0  0  0  0  0  0  0
    8.1074   -0.4219   18.3322 H   0  0  0  0  0  0  0  0  0  0  0  0
    6.6656    0.0214   19.9007 C   0  0  0  0  0  0  0  0  0  0  0  0
    7.3387   -0.6996   20.9878 C   0  0  0  0  0  0  0  0  0  0  0  0
    6.8255   -1.2327   22.1152 C   0  0  0  0  0  0  0  0  0  0  0  0
    5.8068   -1.2645   22.4134 H   0  0  0  0  0  0  0  0  0  0  0  0
    7.8327   -1.8287   22.8649 N   0  0  0  0  0  0  0  0  0  0  0  0
    7.6490   -2.4834   24.1204 C   0  0  0  0  0  0  0  0  0  0  0  0
    6.4957   -3.2350   24.3730 C   0  0  0  0  0  0  0  0  0  0  0  0
    5.7308   -3.3070   23.6057 H   0  0  0  0  0  0  0  0  0  0  0  0
    6.3247   -3.9014   25.5947 C   0  0  0  0  0  0  0  0  0  0  0  0
    5.4229   -4.4740   25.7775 H   0  0  0  0  0  0  0  0  0  0  0  0
    7.3081   -3.8088   26.5894 C   0  0  0  0  0  0  0  0  0  0  0  0
    7.2585   -4.3884   27.8254 O   0  0  0  0  0  0  0  0  0  0  0  0
    6.2060   -5.2929   28.2074 C   0  0  0  0  0  0  0  0  0  0  0  0
    5.2356   -4.8619   27.9209 H   0  0  0  0  0  0  0  0  0  0  0  0
    6.3918   -6.6539   27.5477 C   0  0  0  0  0  0  0  0  0  0  0  0
    6.3592   -6.6075   26.4541 H   0  0  0  0  0  0  0  0  0  0  0  0
    7.3647   -7.0464   27.8590 H   0  0  0  0  0  0  0  0  0  0  0  0
    5.6142   -7.3518   27.8821 H   0  0  0  0  0  0  0  0  0  0  0  0
    6.2568   -5.4228   29.7285 C   0  0  0  0  0  0  0  0  0  0  0  0
    7.2123   -5.8515   30.0531 H   0  0  0  0  0  0  0  0  0  0  0  0
    6.1179   -4.4577   30.2244 H   0  0  0  0  0  0  0  0  0  0  0  0
    5.4641   -6.0983   30.0736 H   0  0  0  0  0  0  0  0  0  0  0  0
    8.4553   -3.0330   26.3357 C   0  0  0  0  0  0  0  0  0  0  0  0
    9.2095   -2.9739   27.1100 H   0  0  0  0  0  0  0  0  0  0  0  0
    8.6263   -2.3779   25.1196 C   0  0  0  0  0  0  0  0  0  0  0  0
    9.5176   -1.7977   24.9041 H   0  0  0  0  0  0  0  0  0  0  0  0
    9.0439   -1.6580   22.1745 C   0  0  0  0  0  0  0  0  0  0  0  0
   10.1774   -1.9912   22.4540 O   0  0  0  0  0  0  0  0  0  0  0  0
    8.6914   -0.9935   21.0243 N   0  0  0  0  0  0  0  0  0  0  0  0
    9.4283   -0.7062   20.4126 H   0  0  0  0  0  0  0  0  0  0  0  0
    5.4360    0.6657   20.1360 C   0  0  0  0  0  0  0  0  0  0  0  0
    5.0041    0.6604   21.1384 H   0  0  0  0  0  0  0  0  0  0  0  0
    4.7977    1.3207   19.0838 C   0  0  0  0  0  0  0  0  0  0  0  0
    3.8642    1.8510   19.2340 H   0  0  0  0  0  0  0  0  0  0  0  0
  1  2  1  0
  2  3  2  0
  3  4  1  0
  4  5  1  0
  4  6  2  0
  6  7  1  0
  7  8  2  0
  8  9  1  0
  8 10  1  0
 10 11  1  0
 11 12  2  0
 12 13  1  0
 12 14  1  0
 14 15  1  0
 14 16  2  0
 16 17  1  0
 17 18  1  0
 18 19  1  0
 18 20  1  0
 20 21  1  0
 20 22  1  0
 20 23  1  0
 18 24  1  0
 24 25  1  0
 24 26  1  0
 24 27  1  0
 16 28  1  0
 28 29  1  0
 28 30  2  0
 30 31  1  0
 10 32  1  0
 32 33  2  0
 32 34  1  0
 34 35  1  0
  6 36  1  0
 36 37  1  0
 36 38  2  0
 38 39  1  0
 38  2  1  0
 34  7  1  0
 30 11  1  0
M  END
>  <cnnaffinity>  (1) 
-5.36248

>  <filename>  (1) 
CC(C)Oc1ccc(-n2cc(-c3cccnc3)[nH]c2=O)cc1

$$$$
