
     RDKit          3D

 34 35  0  0  0  0  0  0  0  0999 V2000
    4.9243    1.9200   16.8693 H   0  0  0  0  0  0  0  0  0  0  0  0
    5.3996    1.3853   17.6904 C   0  0  0  0  0  0  0  0  0  0  0  0
    6.5595    0.7728   17.3977 N   0  0  0  0  0  0  0  0  0  0  0  0
    7.1845    0.1265   18.3904 C   0  0  0  0  0  0  0  0  0  0  0  0
    8.1188   -0.3681   18.1392 H   0  0  0  0  0  0  0  0  0  0  0  0
    6.6859    0.0498   19.7092 C   0  0  0  0  0  0  0  0  0  0  0  0
    7.3915   -0.6225   20.7865 N   0  0  0  0  0  0  0  0  0  0  0  0
    8.6673   -0.1550   21.2497 C   0  0  0  0  0  0  0  0  0  0  0  0
    9.2243    0.7305   20.6336 O   0  0  0  0  0  0  0  0  0  0  0  0
    9.2007   -0.7952   22.4254 C   0  0  0  0  0  0  0  0  0  0  0  0
   10.0946   -0.3481   22.8220 H   0  0  0  0  0  0  0  0  0  0  0  0
    8.6572   -1.9406   22.8700 C   0  0  0  0  0  0  0  0  0  0  0  0
    9.1478   -2.7052   23.9036 N   0  0  0  0  0  0  0  0  0  0  0  0
    9.8932   -2.2670   24.4183 H   0  0  0  0  0  0  0  0  0  0  0  0
    8.7447   -3.9877   24.2551 C   0  0  0  0  0  0  0  0  0  0  0  0
    8.0036   -4.6546   23.5503 O   0  0  0  0  0  0  0  0  0  0  0  0
    9.2799   -4.5233   25.5913 C   0  0  0  0  0  0  0  0  0  0  0  0
    9.3654   -3.6494   26.2508 H   0  0  0  0  0  0  0  0  0  0  0  0
    8.3258   -5.5555   26.2249 C   0  0  0  0  0  0  0  0  0  0  0  0
    8.7430   -5.9546   27.1590 H   0  0  0  0  0  0  0  0  0  0  0  0
    7.3449   -5.1230   26.4445 H   0  0  0  0  0  0  0  0  0  0  0  0
    8.1615   -6.3891   25.5328 H   0  0  0  0  0  0  0  0  0  0  0  0
   10.6757   -5.1351   25.4009 C   0  0  0  0  0  0  0  0  0  0  0  0
   10.6353   -5.9855   24.7123 H   0  0  0  0  0  0  0  0  0  0  0  0
   11.3940   -4.4047   25.0156 H   0  0  0  0  0  0  0  0  0  0  0  0
   11.0452   -5.5070   26.3600 H   0  0  0  0  0  0  0  0  0  0  0  0
    7.5268   -2.3953   22.2948 N   0  0  0  0  0  0  0  0  0  0  0  0
    7.1678   -3.2972   22.5380 H   0  0  0  0  0  0  0  0  0  0  0  0
    6.8122   -1.7541   21.3349 C   0  0  0  0  0  0  0  0  0  0  0  0
    5.7496   -2.2264   20.9942 O   0  0  0  0  0  0  0  0  0  0  0  0
    5.4480    0.6326   19.9795 C   0  0  0  0  0  0  0  0  0  0  0  0
    5.0148    0.5163   20.9732 H   0  0  0  0  0  0  0  0  0  0  0  0
    4.8014    1.3385   18.9558 C   0  0  0  0  0  0  0  0  0  0  0  0
    3.8546    1.8432   19.1277 H   0  0  0  0  0  0  0  0  0  0  0  0
  1  2  1  0
  2  3  2  0
  3  4  1  0
  4  5  1  0
  4  6  2  0
  6  7  1  0
  7  8  1  0
  8  9  2  0
  8 10  1  0
 10 11  1  0
 10 12  2  0
 12 13  1  0
 13 14  1  0
 13 15  1  0
 15 16  2  0
 15 17  1  0
 17 18  1  0
 17 19  1  0
 19 20  1  0
 19 21  1  0
 19 22  1  0
 17 23  1  0
 23 24  1  0
 23 25  1  0
 23 26  1  0
 12 27  1  0
 27 28  1  0
 27 29  1  0
 29 30  2  0
  6 31  1  0
 31 32  1  0
 31 33  2  0
 33 34  1  0
 33  2  1  0
 29  7  1  0
M  END
>  <cnnaffinity>  (1) 
-5.00072

>  <filename>  (1) 
CC(C)C(=O)Nc1cc(=O)n(-c2cccnc2)c(=O)[nH]1

$$$$
