
     RDKit          3D

 32 33  0  0  0  0  0  0  0  0999 V2000
    4.9355    1.7782   16.9965 H   0  0  0  0  0  0  0  0  0  0  0  0
    5.4138    1.2848   17.8416 C   0  0  0  0  0  0  0  0  0  0  0  0
    6.5828    0.6715   17.5863 N   0  0  0  0  0  0  0  0  0  0  0  0
    7.2157    0.0858   18.6101 C   0  0  0  0  0  0  0  0  0  0  0  0
    8.1558   -0.4069   18.3760 H   0  0  0  0  0  0  0  0  0  0  0  0
    6.6906    0.0409   19.9149 C   0  0  0  0  0  0  0  0  0  0  0  0
    7.3779   -0.6580   20.9536 N   0  0  0  0  0  0  0  0  0  0  0  0
    8.7180   -0.3824   21.0444 N   0  0  0  0  0  0  0  0  0  0  0  0
    9.4028   -0.9135   22.0240 C   0  0  0  0  0  0  0  0  0  0  0  0
   10.8454   -0.4820   22.2024 C   0  0  0  0  0  0  0  0  0  0  0  0
   11.4087   -1.3303   22.6135 H   0  0  0  0  0  0  0  0  0  0  0  0
   11.2695   -0.2612   21.2149 H   0  0  0  0  0  0  0  0  0  0  0  0
   11.0535    0.7390   23.1437 C   0  0  0  0  0  0  0  0  0  0  0  0
   12.1413    0.9264   23.1709 H   0  0  0  0  0  0  0  0  0  0  0  0
   10.6002    0.4554   24.5856 C   0  0  0  0  0  0  0  0  0  0  0  0
   10.8550    1.2921   25.2484 H   0  0  0  0  0  0  0  0  0  0  0  0
   11.0708   -0.4472   24.9976 H   0  0  0  0  0  0  0  0  0  0  0  0
    9.5132    0.3168   24.6524 H   0  0  0  0  0  0  0  0  0  0  0  0
   10.3742    1.9964   22.5856 C   0  0  0  0  0  0  0  0  0  0  0  0
   10.6313    2.8848   23.1753 H   0  0  0  0  0  0  0  0  0  0  0  0
   10.6606    2.1751   21.5416 H   0  0  0  0  0  0  0  0  0  0  0  0
    9.2830    1.8892   22.5932 H   0  0  0  0  0  0  0  0  0  0  0  0
    8.8185   -1.8883   22.9141 C   0  0  0  0  0  0  0  0  0  0  0  0
    9.4595   -2.3096   23.6869 H   0  0  0  0  0  0  0  0  0  0  0  0
    7.5162   -2.2486   22.7648 C   0  0  0  0  0  0  0  0  0  0  0  0
    7.0020   -2.9835   23.3679 H   0  0  0  0  0  0  0  0  0  0  0  0
    6.6930   -1.6684   21.7139 C   0  0  0  0  0  0  0  0  0  0  0  0
    5.5503   -2.0188   21.4623 O   0  0  0  0  0  0  0  0  0  0  0  0
    5.4610    0.6551   20.1689 C   0  0  0  0  0  0  0  0  0  0  0  0
    5.0189    0.6011   21.1632 H   0  0  0  0  0  0  0  0  0  0  0  0
    4.8248    1.3079   19.1082 C   0  0  0  0  0  0  0  0  0  0  0  0
    3.8873    1.8289   19.2546 H   0  0  0  0  0  0  0  0  0  0  0  0
  1  2  1  0
  2  3  2  0
  3  4  1  0
  4  5  1  0
  4  6  2  0
  6  7  1  0
  7  8  1  0
  8  9  2  0
  9 10  1  0
 10 11  1  0
 10 12  1  0
 10 13  1  0
 13 14  1  0
 13 15  1  0
 15 16  1  0
 15 17  1  0
 15 18  1  0
 13 19  1  0
 19 20  1  0
 19 21  1  0
 19 22  1  0
  9 23  1  0
 23 24  1  0
 23 25  2  0
 25 26  1  0
 25 27  1  0
 27 28  2  0
  6 29  1  0
 29 30  1  0
 29 31  2  0
 31 32  1  0
 31  2  1  0
 27  7  1  0
M  END
>  <cnnaffinity>  (1) 
-5.28827

>  <filename>  (1) 
CC(C)Cc1ccc(=O)n(-c2cccnc2)n1

$$$$
