
     RDKit          3D

 32 33  0  0  0  0  0  0  0  0999 V2000
    5.0936    1.7849   16.9225 H   0  0  0  0  0  0  0  0  0  0  0  0
    5.5205    1.2784   17.7878 C   0  0  0  0  0  0  0  0  0  0  0  0
    6.6732    0.6246   17.5804 N   0  0  0  0  0  0  0  0  0  0  0  0
    7.2352    0.0078   18.6317 C   0  0  0  0  0  0  0  0  0  0  0  0
    8.1578   -0.5396   18.4366 H   0  0  0  0  0  0  0  0  0  0  0  0
    6.6860    0.0054   19.9285 C   0  0  0  0  0  0  0  0  0  0  0  0
    7.3618   -0.6865   21.0410 C   0  0  0  0  0  0  0  0  0  0  0  0
    8.6902   -0.7355   21.4432 C   0  0  0  0  0  0  0  0  0  0  0  0
    9.7160    0.0634   20.8953 N   0  0  0  0  0  0  0  0  0  0  0  0
    9.3616    1.0002   20.7545 H   0  0  0  0  0  0  0  0  0  0  0  0
   11.0269    0.1055   21.5188 C   0  0  0  0  0  0  0  0  0  0  0  0
   11.7551    0.4758   20.7907 H   0  0  0  0  0  0  0  0  0  0  0  0
   11.3206   -0.9210   21.7561 H   0  0  0  0  0  0  0  0  0  0  0  0
   11.1884    0.9932   22.7701 C   0  0  0  0  0  0  0  0  0  0  0  0
   10.4901    0.6523   23.5495 H   0  0  0  0  0  0  0  0  0  0  0  0
   10.8749    2.4739   22.5002 C   0  0  0  0  0  0  0  0  0  0  0  0
   11.0779    3.0679   23.3988 H   0  0  0  0  0  0  0  0  0  0  0  0
   11.4885    2.8891   21.6898 H   0  0  0  0  0  0  0  0  0  0  0  0
    9.8265    2.6568   22.2329 H   0  0  0  0  0  0  0  0  0  0  0  0
   12.6210    0.8321   23.3115 C   0  0  0  0  0  0  0  0  0  0  0  0
   13.3623    1.1612   22.5685 H   0  0  0  0  0  0  0  0  0  0  0  0
   12.8558   -0.2127   23.5514 H   0  0  0  0  0  0  0  0  0  0  0  0
   12.7728    1.4258   24.2224 H   0  0  0  0  0  0  0  0  0  0  0  0
    8.7072   -1.7030   22.4871 C   0  0  0  0  0  0  0  0  0  0  0  0
    9.5514   -2.0671   23.0537 H   0  0  0  0  0  0  0  0  0  0  0  0
    7.4859   -2.1584   22.7602 N   0  0  0  0  0  0  0  0  0  0  0  0
    6.6952   -1.5181   21.8881 N   0  0  0  0  0  0  0  0  0  0  0  0
    5.6933   -1.6331   21.9510 H   0  0  0  0  0  0  0  0  0  0  0  0
    5.4663    0.6741   20.1117 C   0  0  0  0  0  0  0  0  0  0  0  0
    5.0179    0.6987   21.1035 H   0  0  0  0  0  0  0  0  0  0  0  0
    4.8755    1.3271   19.0301 C   0  0  0  0  0  0  0  0  0  0  0  0
    3.9442    1.8708   19.1385 H   0  0  0  0  0  0  0  0  0  0  0  0
  1  2  1  0
  2  3  2  0
  3  4  1  0
  4  5  1  0
  4  6  2  0
  6  7  1  0
  7  8  2  0
  8  9  1  0
  9 10  1  0
  9 11  1  0
 11 12  1  0
 11 13  1  0
 11 14  1  0
 14 15  1  0
 14 16  1  0
 16 17  1  0
 16 18  1  0
 16 19  1  0
 14 20  1  0
 20 21  1  0
 20 22  1  0
 20 23  1  0
  8 24  1  0
 24 25  1  0
 24 26  2  0
 26 27  1  0
 27 28  1  0
  6 29  1  0
 29 30  1  0
 29 31  2  0
 31 32  1  0
 31  2  1  0
 27  7  1  0
M  END
>  <cnnaffinity>  (1) 
-5.16124

>  <filename>  (1) 
CC(C)CNc1cn[nH]c1-c1cccnc1

$$$$
