
     RDKit          3D

 45 48  0  0  0  0  0  0  0  0999 V2000
    4.9555    1.8288   16.9692 H   0  0  0  0  0  0  0  0  0  0  0  0
    5.4043    1.2941   17.8022 C   0  0  0  0  0  0  0  0  0  0  0  0
    6.5587    0.6540   17.5522 N   0  0  0  0  0  0  0  0  0  0  0  0
    7.1472    0.0155   18.5688 C   0  0  0  0  0  0  0  0  0  0  0  0
    8.0908   -0.4788   18.3356 H   0  0  0  0  0  0  0  0  0  0  0  0
    6.6277   -0.0115   19.8769 C   0  0  0  0  0  0  0  0  0  0  0  0
    7.3657   -0.6633   20.9711 C   0  0  0  0  0  0  0  0  0  0  0  0
    8.0754   -1.7684   20.7584 N   0  0  0  0  0  0  0  0  0  0  0  0
    8.5566   -2.0701   21.9600 N   0  0  0  0  0  0  0  0  0  0  0  0
    8.2463   -1.2237   22.9367 C   0  0  0  0  0  0  0  0  0  0  0  0
    7.4589   -0.2542   22.3445 C   0  0  0  0  0  0  0  0  0  0  0  0
    7.0700    0.9952   22.9759 C   0  0  0  0  0  0  0  0  0  0  0  0
    7.2541    2.2246   22.3221 C   0  0  0  0  0  0  0  0  0  0  0  0
    7.6605    2.2455   21.3108 H   0  0  0  0  0  0  0  0  0  0  0  0
    6.9407    3.4187   22.9623 C   0  0  0  0  0  0  0  0  0  0  0  0
    7.0873    4.3611   22.4474 H   0  0  0  0  0  0  0  0  0  0  0  0
    6.4336    3.3927   24.2719 C   0  0  0  0  0  0  0  0  0  0  0  0
    6.0884    4.4789   25.0090 O   0  0  0  0  0  0  0  0  0  0  0  0
    6.0840    5.7797   24.4228 C   0  0  0  0  0  0  0  0  0  0  0  0
    7.0232    5.9207   23.8703 H   0  0  0  0  0  0  0  0  0  0  0  0
    6.0459    6.7511   25.5839 C   0  0  0  0  0  0  0  0  0  0  0  0
    5.1359    6.5916   26.1674 H   0  0  0  0  0  0  0  0  0  0  0  0
    6.0570    7.7829   25.2215 H   0  0  0  0  0  0  0  0  0  0  0  0
    6.9010    6.6048   26.2463 H   0  0  0  0  0  0  0  0  0  0  0  0
    4.8916    5.9602   23.4949 C   0  0  0  0  0  0  0  0  0  0  0  0
    4.9140    5.2697   22.6483 H   0  0  0  0  0  0  0  0  0  0  0  0
    4.8891    6.9803   23.0994 H   0  0  0  0  0  0  0  0  0  0  0  0
    3.9576    5.7866   24.0393 H   0  0  0  0  0  0  0  0  0  0  0  0
    6.2641    2.1667   24.9350 C   0  0  0  0  0  0  0  0  0  0  0  0
    5.8809    2.1878   25.9496 H   0  0  0  0  0  0  0  0  0  0  0  0
    6.5861    0.9833   24.2932 C   0  0  0  0  0  0  0  0  0  0  0  0
    6.4590    0.0260   24.7989 H   0  0  0  0  0  0  0  0  0  0  0  0
    9.0749   -1.4947   24.1604 C   0  0  0  0  0  0  0  0  0  0  0  0
    9.6834   -0.6181   24.4061 H   0  0  0  0  0  0  0  0  0  0  0  0
    8.4547   -1.7049   25.0328 H   0  0  0  0  0  0  0  0  0  0  0  0
    9.9308   -2.7181   23.7329 C   0  0  0  0  0  0  0  0  0  0  0  0
   10.9874   -2.4819   23.7854 H   0  0  0  0  0  0  0  0  0  0  0  0
    9.7464   -3.5792   24.3707 H   0  0  0  0  0  0  0  0  0  0  0  0
    9.5534   -3.0512   22.2699 C   0  0  0  0  0  0  0  0  0  0  0  0
   10.3914   -2.9181   21.5865 H   0  0  0  0  0  0  0  0  0  0  0  0
    9.1294   -4.0469   22.1403 H   0  0  0  0  0  0  0  0  0  0  0  0
    5.4028    0.6365   20.1072 C   0  0  0  0  0  0  0  0  0  0  0  0
    4.9814    0.6553   21.1118 H   0  0  0  0  0  0  0  0  0  0  0  0
    4.7820    1.3017   19.0542 C   0  0  0  0  0  0  0  0  0  0  0  0
    3.8555    1.8491   19.2050 H   0  0  0  0  0  0  0  0  0  0  0  0
  1  2  1  0
  2  3  2  0
  3  4  1  0
  4  5  1  0
  4  6  2  0
  6  7  1  0
  7  8  2  0
  8  9  1  0
  9 10  1  0
 10 11  2  0
 11 12  1  0
 12 13  2  0
 13 14  1  0
 13 15  1  0
 15 16  1  0
 15 17  2  0
 17 18  1  0
 18 19  1  0
 19 20  1  0
 19 21  1  0
 21 22  1  0
 21 23  1  0
 21 24  1  0
 19 25  1  0
 25 26  1  0
 25 27  1  0
 25 28  1  0
 17 29  1  0
 29 30  1  0
 29 31  2  0
 31 32  1  0
 10 33  1  0
 33 34  1  0
 33 35  1  0
 33 36  1  0
 36 37  1  0
 36 38  1  0
 36 39  1  0
 39 40  1  0
 39 41  1  0
  6 42  1  0
 42 43  1  0
 42 44  2  0
 44 45  1  0
 44  2  1  0
 11  7  1  0
 31 12  1  0
 39  9  1  0
M  END
>  <cnnaffinity>  (1) 
-5.6177

>  <filename>  (1) 
CC(C)Oc1ccc(-c2c(-c3cccnc3)nn3c2CCC3)cc1

$$$$
