
     RDKit          3D

 40 42  0  0  0  0  0  0  0  0999 V2000
    4.9112    1.8099   16.9699 H   0  0  0  0  0  0  0  0  0  0  0  0
    5.3833    1.3086   17.8150 C   0  0  0  0  0  0  0  0  0  0  0  0
    6.5462    0.6906   17.5482 N   0  0  0  0  0  0  0  0  0  0  0  0
    7.1546    0.0669   18.5642 C   0  0  0  0  0  0  0  0  0  0  0  0
    8.1122   -0.3930   18.3217 H   0  0  0  0  0  0  0  0  0  0  0  0
    6.6544    0.0158   19.8843 C   0  0  0  0  0  0  0  0  0  0  0  0
    7.3772   -0.6490   20.9799 C   0  0  0  0  0  0  0  0  0  0  0  0
    7.5196   -0.3200   22.3283 C   0  0  0  0  0  0  0  0  0  0  0  0
    7.0253    0.8341   22.9450 N   0  0  0  0  0  0  0  0  0  0  0  0
    6.9839    1.6404   22.3408 H   0  0  0  0  0  0  0  0  0  0  0  0
    6.8128    1.0269   24.3141 C   0  0  0  0  0  0  0  0  0  0  0  0
    7.0287    2.2808   24.9068 C   0  0  0  0  0  0  0  0  0  0  0  0
    7.3888    3.0982   24.2856 H   0  0  0  0  0  0  0  0  0  0  0  0
    6.8133    2.4648   26.2734 C   0  0  0  0  0  0  0  0  0  0  0  0
    6.9876    3.4235   26.7509 H   0  0  0  0  0  0  0  0  0  0  0  0
    6.3550    1.4065   27.0854 C   0  0  0  0  0  0  0  0  0  0  0  0
    6.1973    1.7025   28.4105 O   0  0  0  0  0  0  0  0  0  0  0  0
    5.6181    0.7613   29.3314 C   0  0  0  0  0  0  0  0  0  0  0  0
    6.0877   -0.2226   29.1828 H   0  0  0  0  0  0  0  0  0  0  0  0
    4.1060    0.6453   29.1417 C   0  0  0  0  0  0  0  0  0  0  0  0
    3.8353    0.2747   28.1483 H   0  0  0  0  0  0  0  0  0  0  0  0
    3.6334    1.6225   29.2885 H   0  0  0  0  0  0  0  0  0  0  0  0
    3.6914   -0.0448   29.8863 H   0  0  0  0  0  0  0  0  0  0  0  0
    5.9582    1.2565   30.7343 C   0  0  0  0  0  0  0  0  0  0  0  0
    5.5109    2.2405   30.9159 H   0  0  0  0  0  0  0  0  0  0  0  0
    5.5562    0.5657   31.4857 H   0  0  0  0  0  0  0  0  0  0  0  0
    7.0386    1.3299   30.8893 H   0  0  0  0  0  0  0  0  0  0  0  0
    6.1215    0.1586   26.4894 C   0  0  0  0  0  0  0  0  0  0  0  0
    5.7793   -0.6808   27.0826 H   0  0  0  0  0  0  0  0  0  0  0  0
    6.3463   -0.0179   25.1190 C   0  0  0  0  0  0  0  0  0  0  0  0
    6.1794   -0.9685   24.6253 H   0  0  0  0  0  0  0  0  0  0  0  0
    8.2942   -1.3749   22.8762 C   0  0  0  0  0  0  0  0  0  0  0  0
    8.6326   -1.4838   23.9000 H   0  0  0  0  0  0  0  0  0  0  0  0
    8.6044   -2.2868   21.9599 N   0  0  0  0  0  0  0  0  0  0  0  0
    8.0500   -1.8216   20.8310 N   0  0  0  0  0  0  0  0  0  0  0  0
    8.1286   -2.3690   19.9827 H   0  0  0  0  0  0  0  0  0  0  0  0
    5.4316    0.6626   20.1339 C   0  0  0  0  0  0  0  0  0  0  0  0
    5.0181    0.6287   21.1429 H   0  0  0  0  0  0  0  0  0  0  0  0
    4.7911    1.3200   19.0829 C   0  0  0  0  0  0  0  0  0  0  0  0
    3.8615    1.8503   19.2359 H   0  0  0  0  0  0  0  0  0  0  0  0
  1  2  1  0
  2  3  2  0
  3  4  1  0
  4  5  1  0
  4  6  2  0
  6  7  1  0
  7  8  2  0
  8  9  1  0
  9 10  1  0
  9 11  1  0
 11 12  2  0
 12 13  1  0
 12 14  1  0
 14 15  1  0
 14 16  2  0
 16 17  1  0
 17 18  1  0
 18 19  1  0
 18 20  1  0
 20 21  1  0
 20 22  1  0
 20 23  1  0
 18 24  1  0
 24 25  1  0
 24 26  1  0
 24 27  1  0
 16 28  1  0
 28 29  1  0
 28 30  2  0
 30 31  1  0
  8 32  1  0
 32 33  1  0
 32 34  2  0
 34 35  1  0
 35 36  1  0
  6 37  1  0
 37 38  1  0
 37 39  2  0
 39 40  1  0
 39  2  1  0
 35  7  1  0
 30 11  1  0
M  END
>  <cnnaffinity>  (1) 
-5.56223

>  <filename>  (1) 
CC(C)Oc1ccc(Nc2cn[nH]c2-c2cccnc2)cc1

$$$$
