
     RDKit          3D

 36 37  0  0  0  0  0  0  0  0999 V2000
    5.0116    1.9926   16.9180 H   0  0  0  0  0  0  0  0  0  0  0  0
    5.4216    1.3930   17.7280 C   0  0  0  0  0  0  0  0  0  0  0  0
    6.5632    0.7387   17.4549 N   0  0  0  0  0  0  0  0  0  0  0  0
    7.1022    0.0168   18.4409 C   0  0  0  0  0  0  0  0  0  0  0  0
    8.0442   -0.4830   18.2186 H   0  0  0  0  0  0  0  0  0  0  0  0
    6.5234   -0.1335   19.7201 C   0  0  0  0  0  0  0  0  0  0  0  0
    7.2154   -0.8633   20.7589 N   0  0  0  0  0  0  0  0  0  0  0  0
    8.5407   -0.5193   21.0037 C   0  0  0  0  0  0  0  0  0  0  0  0
    8.9193    0.3113   20.4064 H   0  0  0  0  0  0  0  0  0  0  0  0
    9.2927   -1.1270   21.9400 C   0  0  0  0  0  0  0  0  0  0  0  0
   10.6859   -0.6552   22.2512 C   0  0  0  0  0  0  0  0  0  0  0  0
   11.2852   -0.6156   21.3304 H   0  0  0  0  0  0  0  0  0  0  0  0
   11.1693   -1.4066   22.8838 H   0  0  0  0  0  0  0  0  0  0  0  0
   10.7079    0.7343   22.9280 C   0  0  0  0  0  0  0  0  0  0  0  0
   10.2259    1.4640   22.2587 H   0  0  0  0  0  0  0  0  0  0  0  0
   11.7609    1.0405   23.0132 H   0  0  0  0  0  0  0  0  0  0  0  0
   10.0412    0.7964   24.3168 C   0  0  0  0  0  0  0  0  0  0  0  0
   10.2675   -0.1515   24.8322 H   0  0  0  0  0  0  0  0  0  0  0  0
    8.5104    0.9524   24.2998 C   0  0  0  0  0  0  0  0  0  0  0  0
    7.9818    0.2081   23.7000 H   0  0  0  0  0  0  0  0  0  0  0  0
    8.1392    0.8339   25.3255 H   0  0  0  0  0  0  0  0  0  0  0  0
    8.2186    1.9449   23.9223 H   0  0  0  0  0  0  0  0  0  0  0  0
   10.6488    1.9210   25.1597 C   0  0  0  0  0  0  0  0  0  0  0  0
   10.4479    2.9143   24.7350 H   0  0  0  0  0  0  0  0  0  0  0  0
   10.2151    1.8899   26.1646 H   0  0  0  0  0  0  0  0  0  0  0  0
   11.7384    1.8314   25.2312 H   0  0  0  0  0  0  0  0  0  0  0  0
    8.6530   -2.1335   22.8072 C   0  0  0  0  0  0  0  0  0  0  0  0
    9.1521   -2.7034   23.7564 O   0  0  0  0  0  0  0  0  0  0  0  0
    7.3541   -2.4223   22.4916 N   0  0  0  0  0  0  0  0  0  0  0  0
    6.8829   -3.0634   23.0975 H   0  0  0  0  0  0  0  0  0  0  0  0
    6.5931   -1.8996   21.4950 C   0  0  0  0  0  0  0  0  0  0  0  0
    5.4885   -2.3449   21.2908 O   0  0  0  0  0  0  0  0  0  0  0  0
    5.3187    0.5242   19.9840 C   0  0  0  0  0  0  0  0  0  0  0  0
    4.8501    0.4179   20.9646 H   0  0  0  0  0  0  0  0  0  0  0  0
    4.7712    1.3174   18.9661 C   0  0  0  0  0  0  0  0  0  0  0  0
    3.8577    1.8809   19.1256 H   0  0  0  0  0  0  0  0  0  0  0  0
  1  2  1  0
  2  3  2  0
  3  4  1  0
  4  5  1  0
  4  6  2  0
  6  7  1  0
  7  8  1  0
  8  9  1  0
  8 10  2  0
 10 11  1  0
 11 12  1  0
 11 13  1  0
 11 14  1  0
 14 15  1  0
 14 16  1  0
 14 17  1  0
 17 18  1  0
 17 19  1  0
 19 20  1  0
 19 21  1  0
 19 22  1  0
 17 23  1  0
 23 24  1  0
 23 25  1  0
 23 26  1  0
 10 27  1  0
 27 28  2  0
 27 29  1  0
 29 30  1  0
 29 31  1  0
 31 32  2  0
  6 33  1  0
 33 34  1  0
 33 35  2  0
 35 36  1  0
 35  2  1  0
 31  7  1  0
M  END
>  <cnnaffinity>  (1) 
-5.41432

>  <filename>  (1) 
CC(C)CCc1cn(-c2cccnc2)c(=O)[nH]c1=O

$$$$
