
     RDKit          3D

 41 44  0  0  0  0  0  0  0  0999 V2000
    4.9094    1.8414   16.9508 H   0  0  0  0  0  0  0  0  0  0  0  0
    5.3979    1.3248   17.7764 C   0  0  0  0  0  0  0  0  0  0  0  0
    6.5547    0.7088   17.4914 N   0  0  0  0  0  0  0  0  0  0  0  0
    7.1741    0.0891   18.5037 C   0  0  0  0  0  0  0  0  0  0  0  0
    8.1105   -0.4046   18.2434 H   0  0  0  0  0  0  0  0  0  0  0  0
    6.7037    0.0364   19.8303 C   0  0  0  0  0  0  0  0  0  0  0  0
    7.4674   -0.6723   20.9319 C   0  0  1  0  0  0  0  0  0  0  0  0
    8.4006   -1.0567   20.5095 H   0  0  0  0  0  0  0  0  0  0  0  0
    7.8561    0.2626   22.1276 C   0  0  0  0  0  0  0  0  0  0  0  0
    7.4077    1.2576   22.0547 H   0  0  0  0  0  0  0  0  0  0  0  0
    8.9384    0.4067   22.1743 H   0  0  0  0  0  0  0  0  0  0  0  0
    7.3488   -0.4718   23.3284 C   0  0  0  0  0  0  0  0  0  0  0  0
    7.2989   -0.1986   24.6175 N   0  0  0  0  0  0  0  0  0  0  0  0
    6.6754   -1.2830   25.1431 N   0  0  0  0  0  0  0  0  0  0  0  0
    6.4876   -1.2844   26.1392 H   0  0  0  0  0  0  0  0  0  0  0  0
    6.3119   -2.2184   24.2106 C   0  0  0  0  0  0  0  0  0  0  0  0
    5.6691   -3.5282   24.4839 C   0  0  0  0  0  0  0  0  0  0  0  0
    6.0392   -4.3362   25.5724 C   0  0  0  0  0  0  0  0  0  0  0  0
    6.7552   -3.9835   26.3099 H   0  0  0  0  0  0  0  0  0  0  0  0
    5.5179   -5.6230   25.7011 C   0  0  0  0  0  0  0  0  0  0  0  0
    5.8441   -6.2650   26.5202 H   0  0  0  0  0  0  0  0  0  0  0  0
    4.5875   -6.1346   24.7875 C   0  0  0  0  0  0  0  0  0  0  0  0
    4.0410   -7.5292   24.9768 C   0  0  0  0  0  0  0  0  0  0  0  0
    4.2825   -7.9130   25.9709 H   0  0  0  0  0  0  0  0  0  0  0  0
    4.4526   -8.2234   24.2329 H   0  0  0  0  0  0  0  0  0  0  0  0
    2.9493   -7.5590   24.8850 H   0  0  0  0  0  0  0  0  0  0  0  0
    4.1888   -5.3268   23.6928 C   0  0  0  0  0  0  0  0  0  0  0  0
    3.2048   -5.8616   22.6775 C   0  0  0  0  0  0  0  0  0  0  0  0
    3.5631   -6.8001   22.2345 H   0  0  0  0  0  0  0  0  0  0  0  0
    3.0276   -5.1561   21.8655 H   0  0  0  0  0  0  0  0  0  0  0  0
    2.2287   -6.0753   23.1313 H   0  0  0  0  0  0  0  0  0  0  0  0
    4.7329   -4.0421   23.5671 C   0  0  0  0  0  0  0  0  0  0  0  0
    4.4240   -3.4128   22.7345 H   0  0  0  0  0  0  0  0  0  0  0  0
    6.7593   -1.6909   23.0093 C   0  0  0  0  0  0  0  0  0  0  0  0
    6.6925   -1.8958   21.5307 C   0  0  0  0  0  0  0  0  0  0  0  0
    5.6506   -1.9207   21.1873 H   0  0  0  0  0  0  0  0  0  0  0  0
    7.1432   -2.8403   21.2117 H   0  0  0  0  0  0  0  0  0  0  0  0
    5.4805    0.6720   20.0929 C   0  0  0  0  0  0  0  0  0  0  0  0
    5.0511    0.6705   21.0999 H   0  0  0  0  0  0  0  0  0  0  0  0
    4.8214    1.3232   19.0499 C   0  0  0  0  0  0  0  0  0  0  0  0
    3.8823    1.8362   19.2108 H   0  0  0  0  0  0  0  0  0  0  0  0
  1  2  1  0
  2  3  2  0
  3  4  1  0
  4  5  1  0
  4  6  2  0
  6  7  1  0
  7  8  1  6
  7  9  1  0
  9 10  1  0
  9 11  1  0
  9 12  1  0
 12 13  2  0
 13 14  1  0
 14 15  1  0
 14 16  1  0
 16 17  1  0
 17 18  2  0
 18 19  1  0
 18 20  1  0
 20 21  1  0
 20 22  2  0
 22 23  1  0
 23 24  1  0
 23 25  1  0
 23 26  1  0
 22 27  1  0
 27 28  1  0
 28 29  1  0
 28 30  1  0
 28 31  1  0
 27 32  2  0
 32 33  1  0
 16 34  2  0
 34 35  1  0
 35 36  1  0
 35 37  1  0
  6 38  1  0
 38 39  1  0
 38 40  2  0
 40 41  1  0
 40  2  1  0
 35  7  1  0
 34 12  1  0
 32 17  1  0
M  END
>  <cnnaffinity>  (1) 
-5.50591

>  <filename>  (1) 
Cc1ccc(-c2[nH]nc3c2C[C@@H](c2cccnc2)C3)cc1C

$$$$
