
     RDKit          3D

 38 40  0  0  0  0  0  0  0  0999 V2000
    5.3493   -2.3733   20.9845 H   0  0  0  0  0  0  0  0  0  0  0  0
    5.9100   -2.3839   21.9224 C   0  0  0  0  0  0  0  0  0  0  0  0
    7.0623   -1.6870   21.9720 C   0  0  0  0  0  0  0  0  0  0  0  0
    7.5534   -0.7021   20.9679 C   0  0  0  0  0  0  0  0  0  0  0  0
    6.7185   -0.0247   19.9346 C   0  0  0  0  0  0  0  0  0  0  0  0
    7.2418    0.0512   18.6346 C   0  0  0  0  0  0  0  0  0  0  0  0
    8.2052   -0.4004   18.4064 H   0  0  0  0  0  0  0  0  0  0  0  0
    6.6309    0.6483   17.6098 N   0  0  0  0  0  0  0  0  0  0  0  0
    5.4595    1.2554   17.8609 C   0  0  0  0  0  0  0  0  0  0  0  0
    4.9836    1.7529   17.0162 H   0  0  0  0  0  0  0  0  0  0  0  0
    4.8517    1.2512   19.1184 C   0  0  0  0  0  0  0  0  0  0  0  0
    3.9139    1.7800   19.2506 H   0  0  0  0  0  0  0  0  0  0  0  0
    5.4789    0.5914   20.1783 C   0  0  0  0  0  0  0  0  0  0  0  0
    5.0288    0.5812   21.1728 H   0  0  0  0  0  0  0  0  0  0  0  0
    8.8156   -0.4851   21.0365 N   0  0  0  0  0  0  0  0  0  0  0  0
    9.3903   -1.2446   22.1539 C   0  0  0  0  0  0  0  0  0  0  0  0
   10.0140   -0.6008   22.7791 H   0  0  0  0  0  0  0  0  0  0  0  0
   10.0565   -2.0197   21.7541 H   0  0  0  0  0  0  0  0  0  0  0  0
    8.2094   -1.8423   22.9578 C   0  0  0  0  0  0  0  0  0  0  0  0
    8.0361   -1.2332   23.8560 H   0  0  0  0  0  0  0  0  0  0  0  0
    8.3792   -2.8742   23.2756 H   0  0  0  0  0  0  0  0  0  0  0  0
    5.2930   -3.1872   23.0078 C   0  0  0  0  0  0  0  0  0  0  0  0
    5.3978   -2.8566   24.3715 C   0  0  0  0  0  0  0  0  0  0  0  0
    5.9726   -1.9838   24.6699 H   0  0  0  0  0  0  0  0  0  0  0  0
    4.7503   -3.6229   25.3454 C   0  0  0  0  0  0  0  0  0  0  0  0
    4.8139   -3.3224   26.3910 H   0  0  0  0  0  0  0  0  0  0  0  0
    4.0263   -4.7766   25.0117 C   0  0  0  0  0  0  0  0  0  0  0  0
    3.4312   -5.6471   26.0981 C   0  0  0  0  0  0  0  0  0  0  0  0
    3.7232   -5.3088   27.0985 H   0  0  0  0  0  0  0  0  0  0  0  0
    3.7399   -6.6967   25.9981 H   0  0  0  0  0  0  0  0  0  0  0  0
    2.3355   -5.6381   26.0635 H   0  0  0  0  0  0  0  0  0  0  0  0
    3.8790   -5.1065   23.6370 C   0  0  0  0  0  0  0  0  0  0  0  0
    3.0716   -6.3096   23.1933 C   0  0  0  0  0  0  0  0  0  0  0  0
    2.0837   -6.3145   23.6665 H   0  0  0  0  0  0  0  0  0  0  0  0
    2.9164   -6.3004   22.1098 H   0  0  0  0  0  0  0  0  0  0  0  0
    3.5578   -7.2629   23.4448 H   0  0  0  0  0  0  0  0  0  0  0  0
    4.5018   -4.3040   22.6754 C   0  0  0  0  0  0  0  0  0  0  0  0
    4.4145   -4.5880   21.6314 H   0  0  0  0  0  0  0  0  0  0  0  0
  1  2  1  0
  2  3  2  3
  3  4  1  0
  4  5  1  0
  5  6  2  0
  6  7  1  0
  6  8  1  0
  8  9  2  0
  9 10  1  0
  9 11  1  0
 11 12  1  0
 11 13  2  0
 13 14  1  0
  4 15  2  0
 15 16  1  0
 16 17  1  0
 16 18  1  0
 16 19  1  0
 19 20  1  0
 19 21  1  0
  2 22  1  0
 22 23  2  0
 23 24  1  0
 23 25  1  0
 25 26  1  0
 25 27  2  0
 27 28  1  0
 28 29  1  0
 28 30  1  0
 28 31  1  0
 27 32  1  0
 32 33  1  0
 33 34  1  0
 33 35  1  0
 33 36  1  0
 32 37  2  0
 37 38  1  0
 19  3  1  0
 37 22  1  0
 13  5  1  0
M  END
>  <cnnaffinity>  (1) 
-5.2292

>  <filename>  (1) 
Cc1ccc(C=C2CCN=C2c2cccnc2)cc1C

$$$$
