
     RDKit          3D

 30 31  0  0  0  0  0  0  0  0999 V2000
    4.9146    1.7791   16.9978 H   0  0  0  0  0  0  0  0  0  0  0  0
    5.4013    1.2910   17.8441 C   0  0  0  0  0  0  0  0  0  0  0  0
    6.5699    0.6719   17.5954 N   0  0  0  0  0  0  0  0  0  0  0  0
    7.1780    0.0571   18.6126 C   0  0  0  0  0  0  0  0  0  0  0  0
    8.1227   -0.4360   18.3908 H   0  0  0  0  0  0  0  0  0  0  0  0
    6.6698   -0.0041   19.9342 C   0  0  0  0  0  0  0  0  0  0  0  0
    7.4036   -0.7138   20.8470 O   0  0  0  0  0  0  0  0  0  0  0  0
    7.0413   -0.7331   22.2487 C   0  0  2  0  0  0  0  0  0  0  0  0
    6.0040   -1.0581   22.3408 H   0  0  0  0  0  0  0  0  0  0  0  0
    7.1636    0.6325   22.9295 C   0  0  0  0  0  0  0  0  0  0  0  0
    6.1969    0.9843   23.7996 N   0  0  0  0  0  0  0  0  0  0  0  0
    6.3297    2.1730   24.4099 C   0  0  0  0  0  0  0  0  0  0  0  0
    5.5403    2.4531   25.0987 H   0  0  0  0  0  0  0  0  0  0  0  0
    7.4006    3.0378   24.2001 C   0  0  0  0  0  0  0  0  0  0  0  0
    7.4450    3.9932   24.7085 H   0  0  0  0  0  0  0  0  0  0  0  0
    8.4146    2.6653   23.3158 C   0  0  0  0  0  0  0  0  0  0  0  0
    9.5754    3.5636   23.0305 C   0  0  0  0  0  0  0  0  0  0  0  0
    9.8017    4.2061   23.8847 H   0  0  0  0  0  0  0  0  0  0  0  0
    9.3359    4.2113   22.1837 H   0  0  0  0  0  0  0  0  0  0  0  0
   10.4753    2.9939   22.7800 H   0  0  0  0  0  0  0  0  0  0  0  0
    8.2792    1.4330   22.6771 C   0  0  0  0  0  0  0  0  0  0  0  0
    9.0360    1.0958   21.9780 H   0  0  0  0  0  0  0  0  0  0  0  0
    7.9437   -1.7705   22.9049 C   0  0  0  0  0  0  0  0  0  0  0  0
    7.8204   -2.7519   22.4390 H   0  0  0  0  0  0  0  0  0  0  0  0
    8.9953   -1.4776   22.8221 H   0  0  0  0  0  0  0  0  0  0  0  0
    7.6995   -1.8645   23.9672 H   0  0  0  0  0  0  0  0  0  0  0  0
    5.4475    0.6449   20.1814 C   0  0  0  0  0  0  0  0  0  0  0  0
    5.0056    0.6326   21.1793 H   0  0  0  0  0  0  0  0  0  0  0  0
    4.8165    1.3038   19.1129 C   0  0  0  0  0  0  0  0  0  0  0  0
    3.8811    1.8370   19.2622 H   0  0  0  0  0  0  0  0  0  0  0  0
  1  2  1  0
  2  3  2  0
  3  4  1  0
  4  5  1  0
  4  6  2  0
  6  7  1  0
  7  8  1  0
  8  9  1  6
  8 10  1  0
 10 11  2  0
 11 12  1  0
 12 13  1  0
 12 14  2  0
 14 15  1  0
 14 16  1  0
 16 17  1  0
 17 18  1  0
 17 19  1  0
 17 20  1  0
 16 21  2  0
 21 22  1  0
  8 23  1  0
 23 24  1  0
 23 25  1  0
 23 26  1  0
  6 27  1  0
 27 28  1  0
 27 29  2  0
 29 30  1  0
 29  2  1  0
 21 10  1  0
M  END
>  <cnnaffinity>  (1) 
-4.47654

>  <filename>  (1) 
Cc1ccnc([C@H](C)Oc2cccnc2)c1

$$$$
