
     RDKit          3D

 38 40  0  0  0  0  0  0  0  0999 V2000
    4.9428    1.8086   16.9513 H   0  0  0  0  0  0  0  0  0  0  0  0
    5.3860    1.3194   17.8137 C   0  0  0  0  0  0  0  0  0  0  0  0
    6.5512    0.6905   17.5961 N   0  0  0  0  0  0  0  0  0  0  0  0
    7.1428    0.1067   18.6410 C   0  0  0  0  0  0  0  0  0  0  0  0
    8.0669   -0.4475   18.4635 H   0  0  0  0  0  0  0  0  0  0  0  0
    6.6244    0.1556   19.9400 C   0  0  0  0  0  0  0  0  0  0  0  0
    7.3696   -0.5433   21.0041 C   0  0  0  0  0  0  0  0  0  0  0  0
    8.0248   -1.6059   20.6242 N   0  0  0  0  0  0  0  0  0  0  0  0
    8.4848   -2.4543   21.5800 C   0  0  0  0  0  0  0  0  0  0  0  0
    8.8264   -3.5938   21.3763 O   0  0  0  0  0  0  0  0  0  0  0  0
    8.5350   -1.9982   22.8886 N   0  0  0  0  0  0  0  0  0  0  0  0
    9.1179   -2.5292   23.4999 H   0  0  0  0  0  0  0  0  0  0  0  0
    7.9540   -0.8480   23.2733 C   0  0  0  0  0  0  0  0  0  0  0  0
    8.0455   -0.5313   24.5888 N   0  0  0  0  0  0  0  0  0  0  0  0
    8.5237    0.7942   24.9822 C   0  0  0  0  0  0  0  0  0  0  0  0
    8.5027    1.4767   24.1220 H   0  0  0  0  0  0  0  0  0  0  0  0
    9.5793    0.7370   25.3100 H   0  0  0  0  0  0  0  0  0  0  0  0
    7.6629    1.3458   26.1148 C   0  0  0  0  0  0  0  0  0  0  0  0
    6.6450    1.4914   25.7266 H   0  0  0  0  0  0  0  0  0  0  0  0
    8.0396    2.3322   26.4161 H   0  0  0  0  0  0  0  0  0  0  0  0
    7.6009    0.3783   27.3089 C   0  0  0  0  0  0  0  0  0  0  0  0
    8.6213    0.2606   27.7134 H   0  0  0  0  0  0  0  0  0  0  0  0
    6.7086    0.9341   28.4188 C   0  0  0  0  0  0  0  0  0  0  0  0
    7.0725    1.9076   28.7663 H   0  0  0  0  0  0  0  0  0  0  0  0
    5.6815    1.0727   28.0580 H   0  0  0  0  0  0  0  0  0  0  0  0
    6.6719    0.2632   29.2837 H   0  0  0  0  0  0  0  0  0  0  0  0
    7.1190   -0.9975   26.8122 C   0  0  0  0  0  0  0  0  0  0  0  0
    6.0875   -0.9048   26.4443 H   0  0  0  0  0  0  0  0  0  0  0  0
    7.0985   -1.7292   27.6299 H   0  0  0  0  0  0  0  0  0  0  0  0
    7.9792   -1.5304   25.6584 C   0  0  0  0  0  0  0  0  0  0  0  0
    7.5483   -2.4662   25.2762 H   0  0  0  0  0  0  0  0  0  0  0  0
    8.9904   -1.7643   26.0325 H   0  0  0  0  0  0  0  0  0  0  0  0
    7.3230   -0.0810   22.3326 C   0  0  0  0  0  0  0  0  0  0  0  0
    6.8003    0.8144   22.6208 H   0  0  0  0  0  0  0  0  0  0  0  0
    5.3804    0.7627   20.1455 C   0  0  0  0  0  0  0  0  0  0  0  0
    4.9082    0.7237   21.1292 H   0  0  0  0  0  0  0  0  0  0  0  0
    4.7505    1.3632   19.0589 C   0  0  0  0  0  0  0  0  0  0  0  0
    3.8003    1.8731   19.1686 H   0  0  0  0  0  0  0  0  0  0  0  0
  1  2  1  0
  2  3  2  0
  3  4  1  0
  4  5  1  0
  4  6  2  0
  6  7  1  0
  7  8  2  0
  8  9  1  0
  9 10  2  0
  9 11  1  0
 11 12  1  0
 11 13  1  0
 13 14  1  0
 14 15  1  0
 15 16  1  0
 15 17  1  0
 15 18  1  0
 18 19  1  0
 18 20  1  0
 18 21  1  0
 21 22  1  0
 21 23  1  0
 23 24  1  0
 23 25  1  0
 23 26  1  0
 21 27  1  0
 27 28  1  0
 27 29  1  0
 27 30  1  0
 30 31  1  0
 30 32  1  0
 13 33  2  0
 33 34  1  0
  6 35  1  0
 35 36  1  0
 35 37  2  0
 37 38  1  0
 37  2  1  0
 33  7  1  0
 30 14  1  0
M  END
>  <cnnaffinity>  (1) 
-5.18952

>  <filename>  (1) 
CC1CCN(c2cc(-c3cccnc3)nc(=O)[nH]2)CC1

$$$$
