
     RDKit          3D

 36 39  0  0  0  0  0  0  0  0999 V2000
    4.9098    1.7703   17.0071 H   0  0  0  0  0  0  0  0  0  0  0  0
    5.4057    1.2877   17.8485 C   0  0  0  0  0  0  0  0  0  0  0  0
    6.5747    0.6744   17.5944 N   0  0  0  0  0  0  0  0  0  0  0  0
    7.1847    0.0550   18.6126 C   0  0  0  0  0  0  0  0  0  0  0  0
    8.1318   -0.4367   18.3825 H   0  0  0  0  0  0  0  0  0  0  0  0
    6.6536    0.0118   19.9088 C   0  0  0  0  0  0  0  0  0  0  0  0
    7.3625   -0.6910   20.9673 C   0  0  0  0  0  0  0  0  0  0  0  0
    8.5484   -1.3262   20.7619 N   0  0  0  0  0  0  0  0  0  0  0  0
    8.7923   -1.8069   21.9608 C   0  0  0  0  0  0  0  0  0  0  0  0
    9.9863   -2.8211   22.7175 S   0  0  0  0  0  0  0  0  0  0  0  0
    9.0808   -2.7649   24.2054 C   0  0  0  0  0  0  0  0  0  0  0  0
    9.4518   -3.2876   25.0727 H   0  0  0  0  0  0  0  0  0  0  0  0
    7.9585   -2.0152   24.1236 C   0  0  0  0  0  0  0  0  0  0  0  0
    6.9703   -1.7722   25.1916 C   0  0  0  0  0  0  0  0  0  0  0  0
    6.7593   -2.7639   26.1622 C   0  0  0  0  0  0  0  0  0  0  0  0
    7.2958   -3.7066   26.1121 H   0  0  0  0  0  0  0  0  0  0  0  0
    5.8458   -2.5580   27.1901 C   0  0  0  0  0  0  0  0  0  0  0  0
    5.6961   -3.3415   27.9304 H   0  0  0  0  0  0  0  0  0  0  0  0
    5.1196   -1.3663   27.2876 C   0  0  0  0  0  0  0  0  0  0  0  0
    4.1363   -1.1768   28.4100 C   0  0  0  0  0  0  0  0  0  0  0  0
    4.1768   -2.0029   29.1244 H   0  0  0  0  0  0  0  0  0  0  0  0
    3.1140   -1.1211   28.0198 H   0  0  0  0  0  0  0  0  0  0  0  0
    4.3417   -0.2516   28.9584 H   0  0  0  0  0  0  0  0  0  0  0  0
    5.3231   -0.3569   26.3101 C   0  0  0  0  0  0  0  0  0  0  0  0
    4.5697    0.9481   26.3709 C   0  0  0  0  0  0  0  0  0  0  0  0
    4.7588    1.5654   25.4879 H   0  0  0  0  0  0  0  0  0  0  0  0
    4.8741    1.5226   27.2528 H   0  0  0  0  0  0  0  0  0  0  0  0
    3.4904    0.7761   26.4323 H   0  0  0  0  0  0  0  0  0  0  0  0
    6.2478   -0.5685   25.2879 C   0  0  0  0  0  0  0  0  0  0  0  0
    6.4209    0.2118   24.5484 H   0  0  0  0  0  0  0  0  0  0  0  0
    7.8262   -1.4740   22.8388 N   0  0  0  0  0  0  0  0  0  0  0  0
    6.8699   -0.7494   22.2024 N   0  0  0  0  0  0  0  0  0  0  0  0
    5.4371    0.6545   20.1635 C   0  0  0  0  0  0  0  0  0  0  0  0
    5.0069    0.6288   21.1638 H   0  0  0  0  0  0  0  0  0  0  0  0
    4.8058    1.3102   19.1138 C   0  0  0  0  0  0  0  0  0  0  0  0
    3.8714    1.8454   19.2673 H   0  0  0  0  0  0  0  0  0  0  0  0
  1  2  1  0
  2  3  2  0
  3  4  1  0
  4  5  1  0
  4  6  2  0
  6  7  1  0
  7  8  1  0
  8  9  2  0
  9 10  1  0
 10 11  1  0
 11 12  1  0
 11 13  2  0
 13 14  1  0
 14 15  2  0
 15 16  1  0
 15 17  1  0
 17 18  1  0
 17 19  2  0
 19 20  1  0
 20 21  1  0
 20 22  1  0
 20 23  1  0
 19 24  1  0
 24 25  1  0
 25 26  1  0
 25 27  1  0
 25 28  1  0
 24 29  2  0
 29 30  1  0
 13 31  1  0
 31 32  1  0
  6 33  1  0
 33 34  1  0
 33 35  2  0
 35 36  1  0
 35  2  1  0
 32  7  2  0
 31  9  1  0
 29 14  1  0
M  END
>  <cnnaffinity>  (1) 
-5.6835

>  <filename>  (1) 
Cc1ccc(-c2csc3nc(-c4cccnc4)nn23)cc1C

$$$$
