
     RDKit          3D

 38 41  0  0  0  0  0  0  0  0999 V2000
    4.9482    1.8245   16.9749 H   0  0  0  0  0  0  0  0  0  0  0  0
    5.4018    1.2944   17.8111 C   0  0  0  0  0  0  0  0  0  0  0  0
    6.5619    0.6675   17.5577 N   0  0  0  0  0  0  0  0  0  0  0  0
    7.1504    0.0153   18.5651 C   0  0  0  0  0  0  0  0  0  0  0  0
    8.1058   -0.4541   18.3285 H   0  0  0  0  0  0  0  0  0  0  0  0
    6.6199   -0.0380   19.8663 C   0  0  0  0  0  0  0  0  0  0  0  0
    7.3551   -0.6913   20.9532 C   0  0  0  0  0  0  0  0  0  0  0  0
    8.0832   -1.7844   20.7345 N   0  0  0  0  0  0  0  0  0  0  0  0
    8.5677   -2.0825   21.9386 N   0  0  0  0  0  0  0  0  0  0  0  0
    8.2412   -1.2465   22.9196 C   0  0  0  0  0  0  0  0  0  0  0  0
    7.4494   -0.2815   22.3244 C   0  0  0  0  0  0  0  0  0  0  0  0
    7.0858    0.9640   22.9784 C   0  0  0  0  0  0  0  0  0  0  0  0
    6.6170    0.9243   24.2979 C   0  0  0  0  0  0  0  0  0  0  0  0
    6.5018   -0.0440   24.7861 H   0  0  0  0  0  0  0  0  0  0  0  0
    6.3025    2.1125   24.9479 C   0  0  0  0  0  0  0  0  0  0  0  0
    5.9263    2.0846   25.9681 H   0  0  0  0  0  0  0  0  0  0  0  0
    6.4770    3.3362   24.2848 C   0  0  0  0  0  0  0  0  0  0  0  0
    6.2152    4.2657   24.7791 H   0  0  0  0  0  0  0  0  0  0  0  0
    6.9738    3.3987   22.9715 C   0  0  0  0  0  0  0  0  0  0  0  0
    7.1766    4.7178   22.2622 C   0  0  0  0  0  0  0  0  0  0  0  0
    8.2034    5.0894   22.3766 H   0  0  0  0  0  0  0  0  0  0  0  0
    6.4971    5.4849   22.6455 H   0  0  0  0  0  0  0  0  0  0  0  0
    6.9770    4.6199   21.1914 H   0  0  0  0  0  0  0  0  0  0  0  0
    7.2753    2.1944   22.3340 C   0  0  0  0  0  0  0  0  0  0  0  0
    7.6585    2.1898   21.3152 H   0  0  0  0  0  0  0  0  0  0  0  0
    9.0859   -1.4862   24.1490 C   0  0  0  0  0  0  0  0  0  0  0  0
    9.6856   -0.5900   24.3546 H   0  0  0  0  0  0  0  0  0  0  0  0
    8.4835   -1.6860   25.0441 H   0  0  0  0  0  0  0  0  0  0  0  0
    9.9578   -2.7054   23.7252 C   0  0  0  0  0  0  0  0  0  0  0  0
   11.0182   -2.4744   23.7715 H   0  0  0  0  0  0  0  0  0  0  0  0
    9.7800   -3.5763   24.3549 H   0  0  0  0  0  0  0  0  0  0  0  0
    9.5775   -3.0471   22.2583 C   0  0  0  0  0  0  0  0  0  0  0  0
   10.4112   -2.8963   21.5682 H   0  0  0  0  0  0  0  0  0  0  0  0
    9.1520   -4.0490   22.1563 H   0  0  0  0  0  0  0  0  0  0  0  0
    5.4050    0.6182   20.1115 C   0  0  0  0  0  0  0  0  0  0  0  0
    4.9902    0.6422   21.1191 H   0  0  0  0  0  0  0  0  0  0  0  0
    4.7860    1.2943   19.0650 C   0  0  0  0  0  0  0  0  0  0  0  0
    3.8629    1.8427   19.2213 H   0  0  0  0  0  0  0  0  0  0  0  0
  1  2  1  0
  2  3  2  0
  3  4  1  0
  4  5  1  0
  4  6  2  0
  6  7  1  0
  7  8  2  0
  8  9  1  0
  9 10  1  0
 10 11  2  0
 11 12  1  0
 12 13  2  0
 13 14  1  0
 13 15  1  0
 15 16  1  0
 15 17  2  0
 17 18  1  0
 17 19  1  0
 19 20  1  0
 20 21  1  0
 20 22  1  0
 20 23  1  0
 19 24  2  0
 24 25  1  0
 10 26  1  0
 26 27  1  0
 26 28  1  0
 26 29  1  0
 29 30  1  0
 29 31  1  0
 29 32  1  0
 32 33  1  0
 32 34  1  0
  6 35  1  0
 35 36  1  0
 35 37  2  0
 37 38  1  0
 37  2  1  0
 11  7  1  0
 24 12  1  0
 32  9  1  0
M  END
>  <cnnaffinity>  (1) 
-5.4452

>  <filename>  (1) 
Cc1cccc(-c2c(-c3cccnc3)nn3c2CCC3)c1

$$$$
