
     RDKit          3D

 40 42  0  0  0  0  0  0  0  0999 V2000
    4.9497    1.7685   17.0298 H   0  0  0  0  0  0  0  0  0  0  0  0
    5.4269    1.2662   17.8695 C   0  0  0  0  0  0  0  0  0  0  0  0
    6.5892    0.6495   17.6112 N   0  0  0  0  0  0  0  0  0  0  0  0
    7.2035    0.0280   18.6286 C   0  0  0  0  0  0  0  0  0  0  0  0
    8.1495   -0.4437   18.3744 H   0  0  0  0  0  0  0  0  0  0  0  0
    6.7044   -0.0387   19.9700 C   0  0  0  0  0  0  0  0  0  0  0  0
    7.3660   -0.6957   20.9842 N   0  0  0  0  0  0  0  0  0  0  0  0
    7.0456   -0.8901   22.3874 C   0  0  0  0  0  0  0  0  0  0  0  0
    6.1184   -1.4422   22.5696 H   0  0  0  0  0  0  0  0  0  0  0  0
    6.9992    0.0310   22.9811 H   0  0  0  0  0  0  0  0  0  0  0  0
    8.3514   -1.7190   22.5218 C   0  0  0  0  0  0  0  0  0  0  0  0
    9.1106   -1.2751   23.1736 H   0  0  0  0  0  0  0  0  0  0  0  0
    8.1817   -3.1951   22.8806 C   0  0  0  0  0  0  0  0  0  0  0  0
    8.6727   -4.0708   22.1853 O   0  0  0  0  0  0  0  0  0  0  0  0
    7.4506   -3.5072   24.0134 N   0  0  0  0  0  0  0  0  0  0  0  0
    7.1736   -2.5918   25.1288 C   0  0  0  0  0  0  0  0  0  0  0  0
    7.8960   -1.7673   25.1234 H   0  0  0  0  0  0  0  0  0  0  0  0
    6.1631   -2.1546   25.0327 H   0  0  0  0  0  0  0  0  0  0  0  0
    7.2553   -3.3155   26.4854 C   0  0  0  0  0  0  0  0  0  0  0  0
    6.9663   -2.6144   27.2799 H   0  0  0  0  0  0  0  0  0  0  0  0
    8.2963   -3.6182   26.6808 H   0  0  0  0  0  0  0  0  0  0  0  0
    6.3579   -4.5630   26.5385 C   0  0  0  0  0  0  0  0  0  0  0  0
    5.3091   -4.2431   26.3928 H   0  0  0  0  0  0  0  0  0  0  0  0
    6.4561   -5.2850   27.8879 C   0  0  0  0  0  0  0  0  0  0  0  0
    6.1703   -4.6259   28.7163 H   0  0  0  0  0  0  0  0  0  0  0  0
    7.4826   -5.6286   28.0753 H   0  0  0  0  0  0  0  0  0  0  0  0
    5.8027   -6.1658   27.9203 H   0  0  0  0  0  0  0  0  0  0  0  0
    6.7450   -5.4837   25.3706 C   0  0  0  0  0  0  0  0  0  0  0  0
    6.0751   -6.3537   25.3462 H   0  0  0  0  0  0  0  0  0  0  0  0
    7.7652   -5.8668   25.5301 H   0  0  0  0  0  0  0  0  0  0  0  0
    6.6692   -4.7605   24.0240 C   0  0  0  0  0  0  0  0  0  0  0  0
    7.0526   -5.3992   23.2234 H   0  0  0  0  0  0  0  0  0  0  0  0
    5.6124   -4.5301   23.7979 H   0  0  0  0  0  0  0  0  0  0  0  0
    8.6178   -1.4365   21.0195 C   0  0  0  0  0  0  0  0  0  0  0  0
    9.5089   -0.8415   20.7791 H   0  0  0  0  0  0  0  0  0  0  0  0
    8.6546   -2.3280   20.3950 H   0  0  0  0  0  0  0  0  0  0  0  0
    5.4738    0.6196   20.1997 C   0  0  0  0  0  0  0  0  0  0  0  0
    5.0303    0.6178   21.1940 H   0  0  0  0  0  0  0  0  0  0  0  0
    4.8405    1.2778   19.1391 C   0  0  0  0  0  0  0  0  0  0  0  0
    3.9079    1.8100   19.2860 H   0  0  0  0  0  0  0  0  0  0  0  0
  1  2  1  0
  2  3  2  0
  3  4  1  0
  4  5  1  0
  4  6  2  0
  6  7  1  0
  7  8  1  0
  8  9  1  0
  8 10  1  0
  8 11  1  0
 11 12  1  0
 11 13  1  0
 13 14  2  0
 13 15  1  0
 15 16  1  0
 16 17  1  0
 16 18  1  0
 16 19  1  0
 19 20  1  0
 19 21  1  0
 19 22  1  0
 22 23  1  0
 22 24  1  0
 24 25  1  0
 24 26  1  0
 24 27  1  0
 22 28  1  0
 28 29  1  0
 28 30  1  0
 28 31  1  0
 31 32  1  0
 31 33  1  0
 11 34  1  0
 34 35  1  0
 34 36  1  0
  6 37  1  0
 37 38  1  0
 37 39  2  0
 39 40  1  0
 39  2  1  0
 34  7  1  0
 31 15  1  0
M  END
>  <cnnaffinity>  (1) 
-5.11516

>  <filename>  (1) 
CC1CCN(C(=O)C2CN(c3cccnc3)C2)CC1

$$$$
