
     RDKit          3D

 31 33  0  0  0  0  0  0  0  0999 V2000
    4.9156    1.7801   16.9988 H   0  0  0  0  0  0  0  0  0  0  0  0
    5.4042    1.2903   17.8422 C   0  0  0  0  0  0  0  0  0  0  0  0
    6.5649    0.6702   17.5850 N   0  0  0  0  0  0  0  0  0  0  0  0
    7.1860    0.0552   18.5998 C   0  0  0  0  0  0  0  0  0  0  0  0
    8.1277   -0.4358   18.3656 H   0  0  0  0  0  0  0  0  0  0  0  0
    6.6884    0.0116   19.9160 C   0  0  0  0  0  0  0  0  0  0  0  0
    7.2848   -0.6979   20.9446 O   0  0  0  0  0  0  0  0  0  0  0  0
    8.6484   -0.7748   21.0994 C   0  0  0  0  0  0  0  0  0  0  0  0
    9.6614    0.0801   20.6339 C   0  0  0  0  0  0  0  0  0  0  0  0
    9.5545    0.9485   20.0039 H   0  0  0  0  0  0  0  0  0  0  0  0
   10.8478   -0.3044   21.0852 N   0  0  0  0  0  0  0  0  0  0  0  0
   10.6057   -1.3800   21.8232 N   0  0  0  0  0  0  0  0  0  0  0  0
   11.3707   -1.8439   22.2905 H   0  0  0  0  0  0  0  0  0  0  0  0
    9.2873   -1.7183   21.8929 C   0  0  0  0  0  0  0  0  0  0  0  0
    8.7732   -2.8547   22.6756 C   0  0  0  0  0  0  0  0  0  0  0  0
    9.5738   -3.3782   23.6348 N   0  0  0  0  0  0  0  0  0  0  0  0
    9.1049   -4.3913   24.3695 C   0  0  0  0  0  0  0  0  0  0  0  0
    9.9922   -4.9578   25.4468 C   0  0  0  0  0  0  0  0  0  0  0  0
   10.2242   -6.0081   25.2434 H   0  0  0  0  0  0  0  0  0  0  0  0
   10.9287   -4.4054   25.5265 H   0  0  0  0  0  0  0  0  0  0  0  0
    9.4899   -4.9374   26.4193 H   0  0  0  0  0  0  0  0  0  0  0  0
    7.8286   -4.9493   24.1548 C   0  0  0  0  0  0  0  0  0  0  0  0
    7.4996   -5.7761   24.7727 H   0  0  0  0  0  0  0  0  0  0  0  0
    7.0156   -4.4344   23.1501 C   0  0  0  0  0  0  0  0  0  0  0  0
    6.0233   -4.8454   22.9590 H   0  0  0  0  0  0  0  0  0  0  0  0
    7.4972   -3.3690   22.3924 C   0  0  0  0  0  0  0  0  0  0  0  0
    6.9136   -2.9253   21.5965 H   0  0  0  0  0  0  0  0  0  0  0  0
    5.4618    0.6412   20.1737 C   0  0  0  0  0  0  0  0  0  0  0  0
    5.0288    0.6148   21.1734 H   0  0  0  0  0  0  0  0  0  0  0  0
    4.8215    1.3008   19.1153 C   0  0  0  0  0  0  0  0  0  0  0  0
    3.8858    1.8324   19.2673 H   0  0  0  0  0  0  0  0  0  0  0  0
  1  2  1  0
  2  3  2  0
  3  4  1  0
  4  5  1  0
  4  6  2  0
  6  7  1  0
  7  8  1  0
  8  9  1  0
  9 10  1  0
  9 11  2  0
 11 12  1  0
 12 13  1  0
 12 14  1  0
 14 15  1  0
 15 16  2  0
 16 17  1  0
 17 18  1  0
 18 19  1  0
 18 20  1  0
 18 21  1  0
 17 22  2  0
 22 23  1  0
 22 24  1  0
 24 25  1  0
 24 26  2  0
 26 27  1  0
  6 28  1  0
 28 29  1  0
 28 30  2  0
 30 31  1  0
 30  2  1  0
 14  8  2  0
 26 15  1  0
M  END
>  <cnnaffinity>  (1) 
-5.58414

>  <filename>  (1) 
Cc1cccc(-c2[nH]ncc2Oc2cccnc2)n1

$$$$
