
     RDKit          3D

 30 32  0  0  0  0  0  0  0  0999 V2000
    4.9190    1.7806   16.9983 H   0  0  0  0  0  0  0  0  0  0  0  0
    5.4017    1.2939   17.8403 C   0  0  0  0  0  0  0  0  0  0  0  0
    6.5673    0.6822   17.5768 N   0  0  0  0  0  0  0  0  0  0  0  0
    7.1687    0.0541   18.5883 C   0  0  0  0  0  0  0  0  0  0  0  0
    8.1170   -0.4344   18.3710 H   0  0  0  0  0  0  0  0  0  0  0  0
    6.6468    0.0091   19.8883 C   0  0  0  0  0  0  0  0  0  0  0  0
    7.3809   -0.7305   20.9034 C   0  0  0  0  0  0  0  0  0  0  0  0
    7.9758   -1.8648   20.6845 N   0  0  0  0  0  0  0  0  0  0  0  0
    8.4744   -2.2092   21.9016 N   0  0  0  0  0  0  0  0  0  0  0  0
    9.0174   -3.0424   22.0520 H   0  0  0  0  0  0  0  0  0  0  0  0
    8.2628   -1.3066   22.8758 C   0  0  0  0  0  0  0  0  0  0  0  0
    8.8083   -1.3779   24.4387 S   0  0  0  0  0  0  0  0  0  0  0  0
    7.5084   -0.3312   22.2313 N   0  0  0  0  0  0  0  0  0  0  0  0
    7.1218    0.9347   22.8113 C   0  0  0  0  0  0  0  0  0  0  0  0
    6.3667    1.0156   23.9939 C   0  0  0  0  0  0  0  0  0  0  0  0
    6.0638    0.1007   24.4969 H   0  0  0  0  0  0  0  0  0  0  0  0
    5.9914    2.1679   24.5674 N   0  0  0  0  0  0  0  0  0  0  0  0
    6.3536    3.3219   23.9886 C   0  0  0  0  0  0  0  0  0  0  0  0
    5.9251    4.6125   24.6357 C   0  0  0  0  0  0  0  0  0  0  0  0
    6.7878    5.2598   24.8271 H   0  0  0  0  0  0  0  0  0  0  0  0
    5.4074    4.4343   25.5797 H   0  0  0  0  0  0  0  0  0  0  0  0
    5.2563    5.1719   23.9725 H   0  0  0  0  0  0  0  0  0  0  0  0
    7.1107    3.3374   22.8041 C   0  0  0  0  0  0  0  0  0  0  0  0
    7.3701    4.2920   22.3590 H   0  0  0  0  0  0  0  0  0  0  0  0
    7.5079    2.1399   22.2127 C   0  0  0  0  0  0  0  0  0  0  0  0
    8.0778    2.1367   21.2830 H   0  0  0  0  0  0  0  0  0  0  0  0
    5.4272    0.6513   20.1541 C   0  0  0  0  0  0  0  0  0  0  0  0
    5.0136    0.6373   21.1672 H   0  0  0  0  0  0  0  0  0  0  0  0
    4.8000    1.3102   19.1038 C   0  0  0  0  0  0  0  0  0  0  0  0
    3.8714    1.8445   19.2567 H   0  0  0  0  0  0  0  0  0  0  0  0
  1  2  1  0
  2  3  2  0
  3  4  1  0
  4  5  1  0
  4  6  2  0
  6  7  1  0
  7  8  2  0
  8  9  1  0
  9 10  1  0
  9 11  1  0
 11 12  2  0
 11 13  1  0
 13 14  1  0
 14 15  2  0
 15 16  1  0
 15 17  1  0
 17 18  2  0
 18 19  1  0
 19 20  1  0
 19 21  1  0
 19 22  1  0
 18 23  1  0
 23 24  1  0
 23 25  2  0
 25 26  1  0
  6 27  1  0
 27 28  1  0
 27 29  2  0
 29 30  1  0
 29  2  1  0
 13  7  1  0
 25 14  1  0
M  END
>  <cnnaffinity>  (1) 
-5.20747

>  <filename>  (1) 
Cc1ccc(-n2c(-c3cccnc3)n[nH]c2=S)cn1

$$$$
