
     RDKit          3D

 32 34  0  0  0  0  0  0  0  0999 V2000
    4.9179    1.8022   16.9685 H   0  0  0  0  0  0  0  0  0  0  0  0
    5.3915    1.3046   17.8147 C   0  0  0  0  0  0  0  0  0  0  0  0
    6.5564    0.6864   17.5593 N   0  0  0  0  0  0  0  0  0  0  0  0
    7.1701    0.0723   18.5801 C   0  0  0  0  0  0  0  0  0  0  0  0
    8.1064   -0.4217   18.3266 H   0  0  0  0  0  0  0  0  0  0  0  0
    6.6662    0.0182   19.8936 C   0  0  0  0  0  0  0  0  0  0  0  0
    7.3384   -0.7042   20.9802 C   0  0  0  0  0  0  0  0  0  0  0  0
    6.8214   -1.2308   22.1081 C   0  0  0  0  0  0  0  0  0  0  0  0
    5.8040   -1.2977   22.4113 H   0  0  0  0  0  0  0  0  0  0  0  0
    7.8430   -1.7922   22.8595 N   0  0  0  0  0  0  0  0  0  0  0  0
    7.6450   -2.4511   24.1147 C   0  0  0  0  0  0  0  0  0  0  0  0
    8.2551   -3.6859   24.3515 C   0  0  0  0  0  0  0  0  0  0  0  0
    8.8790   -4.1253   23.5788 H   0  0  0  0  0  0  0  0  0  0  0  0
    8.0768   -4.3012   25.5909 C   0  0  0  0  0  0  0  0  0  0  0  0
    8.5693   -5.2472   25.7950 H   0  0  0  0  0  0  0  0  0  0  0  0
    7.2878   -3.6943   26.5740 C   0  0  0  0  0  0  0  0  0  0  0  0
    7.1540   -4.1745   27.5397 H   0  0  0  0  0  0  0  0  0  0  0  0
    6.6548   -2.4650   26.3368 C   0  0  0  0  0  0  0  0  0  0  0  0
    5.8094   -1.8146   27.4071 C   0  0  0  0  0  0  0  0  0  0  0  0
    6.4080   -1.1458   28.0366 H   0  0  0  0  0  0  0  0  0  0  0  0
    4.9978   -1.2185   26.9771 H   0  0  0  0  0  0  0  0  0  0  0  0
    5.3579   -2.5590   28.0712 H   0  0  0  0  0  0  0  0  0  0  0  0
    6.8397   -1.8514   25.0904 C   0  0  0  0  0  0  0  0  0  0  0  0
    6.3627   -0.8995   24.8697 H   0  0  0  0  0  0  0  0  0  0  0  0
    9.0393   -1.6077   22.2012 C   0  0  0  0  0  0  0  0  0  0  0  0
   10.6095   -1.9750   22.5964 S   0  0  0  0  0  0  0  0  0  0  0  0
    8.6923   -0.9768   21.0452 N   0  0  0  0  0  0  0  0  0  0  0  0
    9.4276   -0.6702   20.4326 H   0  0  0  0  0  0  0  0  0  0  0  0
    5.4388    0.6652   20.1323 C   0  0  0  0  0  0  0  0  0  0  0  0
    5.0092    0.6600   21.1341 H   0  0  0  0  0  0  0  0  0  0  0  0
    4.7974    1.3221   19.0812 C   0  0  0  0  0  0  0  0  0  0  0  0
    3.8637    1.8522   19.2311 H   0  0  0  0  0  0  0  0  0  0  0  0
  1  2  1  0
  2  3  2  0
  3  4  1  0
  4  5  1  0
  4  6  2  0
  6  7  1  0
  7  8  2  0
  8  9  1  0
  8 10  1  0
 10 11  1  0
 11 12  2  0
 12 13  1  0
 12 14  1  0
 14 15  1  0
 14 16  2  0
 16 17  1  0
 16 18  1  0
 18 19  1  0
 19 20  1  0
 19 21  1  0
 19 22  1  0
 18 23  2  0
 23 24  1  0
 10 25  1  0
 25 26  2  0
 25 27  1  0
 27 28  1  0
  6 29  1  0
 29 30  1  0
 29 31  2  0
 31 32  1  0
 31  2  1  0
 27  7  1  0
 23 11  1  0
M  END
>  <cnnaffinity>  (1) 
-5.60897

>  <filename>  (1) 
Cc1cccc(-n2cc(-c3cccnc3)[nH]c2=S)c1

$$$$
