
     RDKit          3D

 37 40  0  0  0  0  0  0  0  0999 V2000
    5.0008    1.8181   16.9571 H   0  0  0  0  0  0  0  0  0  0  0  0
    5.4342    1.2721   17.7929 C   0  0  0  0  0  0  0  0  0  0  0  0
    6.5762    0.6074   17.5596 N   0  0  0  0  0  0  0  0  0  0  0  0
    7.1521   -0.0267   18.5883 C   0  0  0  0  0  0  0  0  0  0  0  0
    8.0751   -0.5601   18.3626 H   0  0  0  0  0  0  0  0  0  0  0  0
    6.6424   -0.0010   19.8982 C   0  0  0  0  0  0  0  0  0  0  0  0
    7.3824   -0.6565   20.9826 C   0  0  0  0  0  0  0  0  0  0  0  0
    8.0220   -1.8588   20.7841 N   0  0  0  0  0  0  0  0  0  0  0  0
    8.4441   -2.2006   21.9721 C   0  0  0  0  0  0  0  0  0  0  0  0
    9.2557   -3.5696   22.7075 S   0  0  0  0  0  0  0  0  0  0  0  0
    9.3681   -2.7057   24.2290 C   0  0  0  0  0  0  0  0  0  0  0  0
    9.9576   -3.1056   25.0421 H   0  0  0  0  0  0  0  0  0  0  0  0
    8.7393   -1.5192   24.1815 C   0  0  0  0  0  0  0  0  0  0  0  0
    8.6456   -0.7694   24.9551 H   0  0  0  0  0  0  0  0  0  0  0  0
    8.1829   -1.2659   22.9348 N   0  0  0  0  0  0  0  0  0  0  0  0
    7.5023   -0.2383   22.3078 C   0  0  0  0  0  0  0  0  0  0  0  0
    7.0734    0.9765   22.9933 C   0  0  0  0  0  0  0  0  0  0  0  0
    6.4421    0.9270   24.2444 C   0  0  0  0  0  0  0  0  0  0  0  0
    6.2393   -0.0356   24.6979 H   0  0  0  0  0  0  0  0  0  0  0  0
    6.0449    2.0975   24.8823 C   0  0  0  0  0  0  0  0  0  0  0  0
    5.5483    2.0262   25.8476 H   0  0  0  0  0  0  0  0  0  0  0  0
    6.2586    3.3495   24.2948 C   0  0  0  0  0  0  0  0  0  0  0  0
    5.7977    4.6069   24.9826 C   0  0  0  0  0  0  0  0  0  0  0  0
    4.9914    5.0861   24.4137 H   0  0  0  0  0  0  0  0  0  0  0  0
    6.6214    5.3238   25.0612 H   0  0  0  0  0  0  0  0  0  0  0  0
    5.4228    4.4254   25.9933 H   0  0  0  0  0  0  0  0  0  0  0  0
    6.8920    3.4154   23.0264 C   0  0  0  0  0  0  0  0  0  0  0  0
    7.1355    4.7445   22.3503 C   0  0  0  0  0  0  0  0  0  0  0  0
    7.5796    4.6308   21.3595 H   0  0  0  0  0  0  0  0  0  0  0  0
    6.1959    5.2938   22.2221 H   0  0  0  0  0  0  0  0  0  0  0  0
    7.8076    5.3838   22.9363 H   0  0  0  0  0  0  0  0  0  0  0  0
    7.2719    2.2306   22.3945 C   0  0  0  0  0  0  0  0  0  0  0  0
    7.7189    2.2694   21.4027 H   0  0  0  0  0  0  0  0  0  0  0  0
    5.4136    0.6555   20.1080 C   0  0  0  0  0  0  0  0  0  0  0  0
    4.9591    0.6864   21.0988 H   0  0  0  0  0  0  0  0  0  0  0  0
    4.8013    1.2977   19.0367 C   0  0  0  0  0  0  0  0  0  0  0  0
    3.8653    1.8296   19.1596 H   0  0  0  0  0  0  0  0  0  0  0  0
  1  2  1  0
  2  3  2  0
  3  4  1  0
  4  5  1  0
  4  6  2  0
  6  7  1  0
  7  8  1  0
  8  9  2  0
  9 10  1  0
 10 11  1  0
 11 12  1  0
 11 13  2  0
 13 14  1  0
 13 15  1  0
 15 16  1  0
 16 17  1  0
 17 18  2  0
 18 19  1  0
 18 20  1  0
 20 21  1  0
 20 22  2  0
 22 23  1  0
 23 24  1  0
 23 25  1  0
 23 26  1  0
 22 27  1  0
 27 28  1  0
 28 29  1  0
 28 30  1  0
 28 31  1  0
 27 32  2  0
 32 33  1  0
  6 34  1  0
 34 35  1  0
 34 36  2  0
 36 37  1  0
 36  2  1  0
 16  7  2  0
 32 17  1  0
 15  9  1  0
M  END
>  <cnnaffinity>  (1) 
-5.78606

>  <filename>  (1) 
Cc1ccc(-c2c(-c3cccnc3)nc3sccn23)cc1C

$$$$
