
     RDKit          3D

 34 36  0  0  0  0  0  0  0  0999 V2000
    5.0368    1.8627   16.8711 H   0  0  0  0  0  0  0  0  0  0  0  0
    5.4588    1.3208   17.7149 C   0  0  0  0  0  0  0  0  0  0  0  0
    6.5928    0.6442   17.4698 N   0  0  0  0  0  0  0  0  0  0  0  0
    7.1464   -0.0013   18.5027 C   0  0  0  0  0  0  0  0  0  0  0  0
    8.0743   -0.5314   18.2897 H   0  0  0  0  0  0  0  0  0  0  0  0
    6.6175   -0.0396   19.8088 C   0  0  0  0  0  0  0  0  0  0  0  0
    7.3704   -0.7226   20.8941 C   0  0  0  0  0  0  0  0  0  0  0  0
    6.7381   -1.5836   21.8397 C   0  0  0  0  0  0  0  0  0  0  0  0
    5.6615   -1.7272   21.7727 H   0  0  0  0  0  0  0  0  0  0  0  0
    7.4747   -2.2131   22.7964 C   0  0  0  0  0  0  0  0  0  0  0  0
    7.0587   -2.8686   23.5430 H   0  0  0  0  0  0  0  0  0  0  0  0
    8.9130   -2.0243   22.9280 C   0  0  0  0  0  0  0  0  0  0  0  0
    9.5851   -2.6405   23.7370 O   0  0  0  0  0  0  0  0  0  0  0  0
    9.4588   -1.0435   22.0524 N   0  0  0  0  0  0  0  0  0  0  0  0
   10.8065   -0.5784   22.2217 C   0  0  0  0  0  0  0  0  0  0  0  0
   11.0303    0.7917   22.4169 C   0  0  0  0  0  0  0  0  0  0  0  0
   10.1714    1.4375   22.5713 H   0  0  0  0  0  0  0  0  0  0  0  0
   12.3322    1.2941   22.3873 C   0  0  0  0  0  0  0  0  0  0  0  0
   12.5087    2.3617   22.4976 H   0  0  0  0  0  0  0  0  0  0  0  0
   13.4025    0.4195   22.2068 C   0  0  0  0  0  0  0  0  0  0  0  0
   14.4251    0.7880   22.1676 H   0  0  0  0  0  0  0  0  0  0  0  0
   13.1787   -0.9569   22.0434 C   0  0  0  0  0  0  0  0  0  0  0  0
   14.3513   -1.8543   21.8165 C   0  0  0  0  0  0  0  0  0  0  0  0
   15.1041   -1.6392   22.5796 H   0  0  0  0  0  0  0  0  0  0  0  0
   14.1014   -2.9143   21.8837 H   0  0  0  0  0  0  0  0  0  0  0  0
   14.7925   -1.6895   20.8267 H   0  0  0  0  0  0  0  0  0  0  0  0
   11.8777   -1.4633   22.0939 C   0  0  0  0  0  0  0  0  0  0  0  0
   11.6978   -2.5322   22.0325 H   0  0  0  0  0  0  0  0  0  0  0  0
    8.7097   -0.4932   21.0371 C   0  0  0  0  0  0  0  0  0  0  0  0
    9.2534    0.1767   20.3800 H   0  0  0  0  0  0  0  0  0  0  0  0
    5.4093    0.6434   20.0307 C   0  0  0  0  0  0  0  0  0  0  0  0
    4.9494    0.6524   21.0215 H   0  0  0  0  0  0  0  0  0  0  0  0
    4.8319    1.3447   18.9670 C   0  0  0  0  0  0  0  0  0  0  0  0
    3.9219    1.9210   19.0917 H   0  0  0  0  0  0  0  0  0  0  0  0
  1  2  1  0
  2  3  2  0
  3  4  1  0
  4  5  1  0
  4  6  2  0
  6  7  1  0
  7  8  1  0
  8  9  1  0
  8 10  2  0
 10 11  1  0
 10 12  1  0
 12 13  2  0
 12 14  1  0
 14 15  1  0
 15 16  2  0
 16 17  1  0
 16 18  1  0
 18 19  1  0
 18 20  2  0
 20 21  1  0
 20 22  1  0
 22 23  1  0
 23 24  1  0
 23 25  1  0
 23 26  1  0
 22 27  2  0
 27 28  1  0
 14 29  1  0
 29 30  1  0
  6 31  1  0
 31 32  1  0
 31 33  2  0
 33 34  1  0
 33  2  1  0
 29  7  2  0
 27 15  1  0
M  END
>  <cnnaffinity>  (1) 
-5.60542

>  <filename>  (1) 
Cc1cccc(-n2cc(-c3cccnc3)ccc2=O)c1

$$$$
