
     RDKit          3D

 31 33  0  0  0  0  0  0  0  0999 V2000
    4.9162    1.7805   16.9989 H   0  0  0  0  0  0  0  0  0  0  0  0
    5.4046    1.2903   17.8421 C   0  0  0  0  0  0  0  0  0  0  0  0
    6.5648    0.6698   17.5846 N   0  0  0  0  0  0  0  0  0  0  0  0
    7.1868    0.0554   18.5998 C   0  0  0  0  0  0  0  0  0  0  0  0
    8.1275   -0.4357   18.3653 H   0  0  0  0  0  0  0  0  0  0  0  0
    6.6888    0.0126   19.9157 C   0  0  0  0  0  0  0  0  0  0  0  0
    7.2841   -0.6978   20.9439 O   0  0  0  0  0  0  0  0  0  0  0  0
    8.6468   -0.7785   21.0954 C   0  0  0  0  0  0  0  0  0  0  0  0
    9.6621    0.0742   20.6319 C   0  0  0  0  0  0  0  0  0  0  0  0
    9.5599    0.9435   20.0032 H   0  0  0  0  0  0  0  0  0  0  0  0
   10.8471   -0.3151   21.0841 N   0  0  0  0  0  0  0  0  0  0  0  0
   10.6010   -1.3899   21.8201 N   0  0  0  0  0  0  0  0  0  0  0  0
   11.3631   -1.8550   22.2881 H   0  0  0  0  0  0  0  0  0  0  0  0
    9.2826   -1.7245   21.8876 C   0  0  0  0  0  0  0  0  0  0  0  0
    8.7752   -2.8576   22.6742 C   0  0  0  0  0  0  0  0  0  0  0  0
    9.5718   -3.3648   23.6408 N   0  0  0  0  0  0  0  0  0  0  0  0
    9.0799   -4.3682   24.3711 C   0  0  0  0  0  0  0  0  0  0  0  0
    9.7212   -4.7495   25.1587 H   0  0  0  0  0  0  0  0  0  0  0  0
    7.8226   -4.9398   24.1652 C   0  0  0  0  0  0  0  0  0  0  0  0
    7.4790   -5.7543   24.7886 H   0  0  0  0  0  0  0  0  0  0  0  0
    7.0112   -4.4450   23.1432 C   0  0  0  0  0  0  0  0  0  0  0  0
    5.6445   -4.9986   22.8840 C   0  0  0  0  0  0  0  0  0  0  0  0
    5.3828   -4.9276   21.8246 H   0  0  0  0  0  0  0  0  0  0  0  0
    4.8967   -4.4394   23.4551 H   0  0  0  0  0  0  0  0  0  0  0  0
    5.5834   -6.0468   23.1842 H   0  0  0  0  0  0  0  0  0  0  0  0
    7.5095   -3.3841   22.3916 C   0  0  0  0  0  0  0  0  0  0  0  0
    6.9305   -2.9464   21.5910 H   0  0  0  0  0  0  0  0  0  0  0  0
    5.4622    0.6411   20.1739 C   0  0  0  0  0  0  0  0  0  0  0  0
    5.0300    0.6139   21.1747 H   0  0  0  0  0  0  0  0  0  0  0  0
    4.8218    1.3005   19.1154 C   0  0  0  0  0  0  0  0  0  0  0  0
    3.8866    1.8321   19.2670 H   0  0  0  0  0  0  0  0  0  0  0  0
  1  2  1  0
  2  3  2  0
  3  4  1  0
  4  5  1  0
  4  6  2  0
  6  7  1  0
  7  8  1  0
  8  9  1  0
  9 10  1  0
  9 11  2  0
 11 12  1  0
 12 13  1  0
 12 14  1  0
 14 15  1  0
 15 16  2  0
 16 17  1  0
 17 18  1  0
 17 19  2  0
 19 20  1  0
 19 21  1  0
 21 22  1  0
 22 23  1  0
 22 24  1  0
 22 25  1  0
 21 26  2  0
 26 27  1  0
  6 28  1  0
 28 29  1  0
 28 30  2  0
 30 31  1  0
 30  2  1  0
 14  8  2  0
 26 15  1  0
M  END
>  <cnnaffinity>  (1) 
-5.44918

>  <filename>  (1) 
Cc1ccnc(-c2[nH]ncc2Oc2cccnc2)c1

$$$$
