
     RDKit          3D

 29 30  0  0  0  0  0  0  0  0999 V2000
    4.9131    1.7849   16.9930 H   0  0  0  0  0  0  0  0  0  0  0  0
    5.3986    1.2973   17.8335 C   0  0  0  0  0  0  0  0  0  0  0  0
    6.5649    0.6855   17.5704 N   0  0  0  0  0  0  0  0  0  0  0  0
    7.1627    0.0643   18.5912 C   0  0  0  0  0  0  0  0  0  0  0  0
    8.1132   -0.4201   18.3691 H   0  0  0  0  0  0  0  0  0  0  0  0
    6.6473   -0.0067   19.8950 C   0  0  0  0  0  0  0  0  0  0  0  0
    7.3983   -0.7029   21.0017 C   0  0  0  0  0  0  0  0  0  0  0  0
    7.9301   -1.5780   20.6007 H   0  0  0  0  0  0  0  0  0  0  0  0
    6.6868   -1.0793   21.7499 H   0  0  0  0  0  0  0  0  0  0  0  0
    8.4026    0.1998   21.7676 C   0  0  1  0  0  0  0  0  0  0  0  0
    8.8655   -0.3885   22.5591 H   0  0  0  0  0  0  0  0  0  0  0  0
    9.7629    0.6358   20.6765 Cl  0  0  0  0  0  0  0  0  0  0  0  0
    7.7683    1.4308   22.3962 C   0  0  0  0  0  0  0  0  0  0  0  0
    7.3476    1.2897   23.6642 N   0  0  0  0  0  0  0  0  0  0  0  0
    6.7407    2.3351   24.2471 C   0  0  0  0  0  0  0  0  0  0  0  0
    6.2765    2.1683   25.6657 C   0  0  0  0  0  0  0  0  0  0  0  0
    5.1843    2.1644   25.7131 H   0  0  0  0  0  0  0  0  0  0  0  0
    6.6067    3.0024   26.2906 H   0  0  0  0  0  0  0  0  0  0  0  0
    6.6421    1.2395   26.1029 H   0  0  0  0  0  0  0  0  0  0  0  0
    6.5133    3.5503   23.5769 C   0  0  0  0  0  0  0  0  0  0  0  0
    6.0101    4.3595   24.0948 H   0  0  0  0  0  0  0  0  0  0  0  0
    6.9354    3.6942   22.2582 C   0  0  0  0  0  0  0  0  0  0  0  0
    6.7592    4.6230   21.7075 H   0  0  0  0  0  0  0  0  0  0  0  0
    7.5844    2.6115   21.6659 C   0  0  0  0  0  0  0  0  0  0  0  0
    7.9116    2.6014   20.6365 H   0  0  0  0  0  0  0  0  0  0  0  0
    5.4252    0.6352   20.1440 C   0  0  0  0  0  0  0  0  0  0  0  0
    5.0081    0.6309   21.1580 H   0  0  0  0  0  0  0  0  0  0  0  0
    4.7984    1.3106   19.0973 C   0  0  0  0  0  0  0  0  0  0  0  0
    3.8675    1.8476   19.2536 H   0  0  0  0  0  0  0  0  0  0  0  0
  1  2  1  0
  2  3  2  0
  3  4  1  0
  4  5  1  0
  4  6  2  0
  6  7  1  0
  7  8  1  0
  7  9  1  0
  7 10  1  0
 10 11  1  1
 10 12  1  0
 10 13  1  0
 13 14  2  0
 14 15  1  0
 15 16  1  0
 16 17  1  0
 16 18  1  0
 16 19  1  0
 15 20  2  0
 20 21  1  0
 20 22  1  0
 22 23  1  0
 22 24  2  0
 24 25  1  0
  6 26  1  0
 26 27  1  0
 26 28  2  0
 28 29  1  0
 28  2  1  0
 24 13  1  0
M  END
>  <cnnaffinity>  (1) 
-4.30698

>  <filename>  (1) 
Cc1cccc([C@H](Cl)Cc2cccnc2)n1

$$$$
