
     RDKit          3D

 33 35  0  0  0  0  0  0  0  0999 V2000
    4.9164    1.8529   16.9486 H   0  0  0  0  0  0  0  0  0  0  0  0
    5.3966    1.3399   17.7805 C   0  0  0  0  0  0  0  0  0  0  0  0
    6.5663    0.7386   17.5047 N   0  0  0  0  0  0  0  0  0  0  0  0
    7.1758    0.1040   18.5127 C   0  0  0  0  0  0  0  0  0  0  0  0
    8.1233   -0.3720   18.2603 H   0  0  0  0  0  0  0  0  0  0  0  0
    6.6575   -0.0041   19.8269 C   0  0  0  0  0  0  0  0  0  0  0  0
    7.4003   -0.7108   20.9066 C   0  0  0  0  0  0  0  0  0  0  0  0
    8.6912   -0.3951   21.1279 C   0  0  0  0  0  0  0  0  0  0  0  0
    9.1981    0.3652   20.5291 H   0  0  0  0  0  0  0  0  0  0  0  0
    9.4422   -1.0210   22.1027 N   0  0  0  0  0  0  0  0  0  0  0  0
   10.8058   -0.7231   22.2751 C   0  0  0  0  0  0  0  0  0  0  0  0
   11.6393   -1.7478   22.1918 N   0  0  0  0  0  0  0  0  0  0  0  0
   12.9401   -1.4597   22.3085 C   0  0  0  0  0  0  0  0  0  0  0  0
   13.6275   -2.3005   22.2285 H   0  0  0  0  0  0  0  0  0  0  0  0
   13.4368   -0.1790   22.5528 C   0  0  0  0  0  0  0  0  0  0  0  0
   14.5067   -0.0447   22.6685 H   0  0  0  0  0  0  0  0  0  0  0  0
   12.5422    0.9018   22.6132 C   0  0  0  0  0  0  0  0  0  0  0  0
   12.9825    2.3226   22.8078 C   0  0  0  0  0  0  0  0  0  0  0  0
   13.9711    2.3825   23.2647 H   0  0  0  0  0  0  0  0  0  0  0  0
   12.2711    2.8563   23.4425 H   0  0  0  0  0  0  0  0  0  0  0  0
   13.0177    2.8631   21.8582 H   0  0  0  0  0  0  0  0  0  0  0  0
   11.1852    0.5972   22.4956 C   0  0  0  0  0  0  0  0  0  0  0  0
   10.4135    1.3476   22.5942 H   0  0  0  0  0  0  0  0  0  0  0  0
    8.9096   -1.9510   22.9983 C   0  0  0  0  0  0  0  0  0  0  0  0
    9.4834   -2.4502   23.9308 O   0  0  0  0  0  0  0  0  0  0  0  0
    7.6118   -2.2404   22.7483 N   0  0  0  0  0  0  0  0  0  0  0  0
    7.2211   -2.9449   23.3393 H   0  0  0  0  0  0  0  0  0  0  0  0
    6.7901   -1.7764   21.7496 C   0  0  0  0  0  0  0  0  0  0  0  0
    5.6976   -2.2931   21.6358 O   0  0  0  0  0  0  0  0  0  0  0  0
    5.4354    0.6328   20.0829 C   0  0  0  0  0  0  0  0  0  0  0  0
    5.0137    0.5934   21.0883 H   0  0  0  0  0  0  0  0  0  0  0  0
    4.7996    1.3202   19.0450 C   0  0  0  0  0  0  0  0  0  0  0  0
    3.8644    1.8476   19.2022 H   0  0  0  0  0  0  0  0  0  0  0  0
  1  2  1  0
  2  3  2  0
  3  4  1  0
  4  5  1  0
  4  6  2  0
  6  7  1  0
  7  8  2  0
  8  9  1  0
  8 10  1  0
 10 11  1  0
 11 12  2  0
 12 13  1  0
 13 14  1  0
 13 15  2  0
 15 16  1  0
 15 17  1  0
 17 18  1  0
 18 19  1  0
 18 20  1  0
 18 21  1  0
 17 22  2  0
 22 23  1  0
 10 24  1  0
 24 25  2  0
 24 26  1  0
 26 27  1  0
 26 28  1  0
 28 29  2  0
  6 30  1  0
 30 31  1  0
 30 32  2  0
 32 33  1  0
 32  2  1  0
 28  7  1  0
 22 11  1  0
M  END
>  <cnnaffinity>  (1) 
-5.20394

>  <filename>  (1) 
Cc1ccnc(-n2cc(-c3cccnc3)c(=O)[nH]c2=O)c1

$$$$
