
     RDKit          3D

 36 38  0  0  0  0  0  0  0  0999 V2000
    4.9171    1.7818   16.9936 H   0  0  0  0  0  0  0  0  0  0  0  0
    5.4014    1.2952   17.8379 C   0  0  0  0  0  0  0  0  0  0  0  0
    6.5645    0.6756   17.5784 N   0  0  0  0  0  0  0  0  0  0  0  0
    7.1761    0.0626   18.5985 C   0  0  0  0  0  0  0  0  0  0  0  0
    8.1149   -0.4367   18.3722 H   0  0  0  0  0  0  0  0  0  0  0  0
    6.6610    0.0061   19.9054 C   0  0  0  0  0  0  0  0  0  0  0  0
    7.3455   -0.6929   20.9502 N   0  0  0  0  0  0  0  0  0  0  0  0
    6.5585   -1.4271   21.7990 N   0  0  0  0  0  0  0  0  0  0  0  0
    7.1284   -2.0762   22.7873 C   0  0  0  0  0  0  0  0  0  0  0  0
    6.2419   -2.8447   23.7079 C   0  0  0  0  0  0  0  0  0  0  0  0
    6.4626   -2.8683   25.0983 C   0  0  0  0  0  0  0  0  0  0  0  0
    7.3006   -2.3259   25.5294 H   0  0  0  0  0  0  0  0  0  0  0  0
    5.6229   -3.6103   25.9200 C   0  0  0  0  0  0  0  0  0  0  0  0
    5.7892   -3.6200   26.9964 H   0  0  0  0  0  0  0  0  0  0  0  0
    4.5548   -4.3493   25.3964 C   0  0  0  0  0  0  0  0  0  0  0  0
    3.6498   -5.1265   26.3146 C   0  0  0  0  0  0  0  0  0  0  0  0
    3.5459   -6.1692   25.9973 H   0  0  0  0  0  0  0  0  0  0  0  0
    4.0225   -5.1302   27.3414 H   0  0  0  0  0  0  0  0  0  0  0  0
    2.6409   -4.6996   26.3359 H   0  0  0  0  0  0  0  0  0  0  0  0
    4.3328   -4.3369   23.9961 C   0  0  0  0  0  0  0  0  0  0  0  0
    3.1851   -5.0943   23.3804 C   0  0  0  0  0  0  0  0  0  0  0  0
    2.2328   -4.8360   23.8533 H   0  0  0  0  0  0  0  0  0  0  0  0
    3.3208   -6.1740   23.4926 H   0  0  0  0  0  0  0  0  0  0  0  0
    3.0919   -4.8838   22.3125 H   0  0  0  0  0  0  0  0  0  0  0  0
    5.1856   -3.5955   23.1789 C   0  0  0  0  0  0  0  0  0  0  0  0
    5.0328   -3.5730   22.1018 H   0  0  0  0  0  0  0  0  0  0  0  0
    8.6202   -2.0904   23.0218 C   0  0  0  0  0  0  0  0  0  0  0  0
    9.1871   -2.7247   23.9061 O   0  0  0  0  0  0  0  0  0  0  0  0
    9.3686   -1.2596   22.0848 C   0  0  0  0  0  0  0  0  0  0  0  0
   10.4438   -1.2201   22.2149 H   0  0  0  0  0  0  0  0  0  0  0  0
    8.7157   -0.6113   21.1073 C   0  0  0  0  0  0  0  0  0  0  0  0
    9.2298    0.0335   20.3924 H   0  0  0  0  0  0  0  0  0  0  0  0
    5.4408    0.6455   20.1657 C   0  0  0  0  0  0  0  0  0  0  0  0
    5.0306    0.6002   21.1764 H   0  0  0  0  0  0  0  0  0  0  0  0
    4.8117    1.3124   19.1093 C   0  0  0  0  0  0  0  0  0  0  0  0
    3.8772    1.8423   19.2615 H   0  0  0  0  0  0  0  0  0  0  0  0
  1  2  1  0
  2  3  2  0
  3  4  1  0
  4  5  1  0
  4  6  2  0
  6  7  1  0
  7  8  1  0
  8  9  2  0
  9 10  1  0
 10 11  2  0
 11 12  1  0
 11 13  1  0
 13 14  1  0
 13 15  2  0
 15 16  1  0
 16 17  1  0
 16 18  1  0
 16 19  1  0
 15 20  1  0
 20 21  1  0
 21 22  1  0
 21 23  1  0
 21 24  1  0
 20 25  2  0
 25 26  1  0
  9 27  1  0
 27 28  2  0
 27 29  1  0
 29 30  1  0
 29 31  2  0
 31 32  1  0
  6 33  1  0
 33 34  1  0
 33 35  2  0
 35 36  1  0
 35  2  1  0
 31  7  1  0
 25 10  1  0
M  END
>  <cnnaffinity>  (1) 
-5.2403

>  <filename>  (1) 
Cc1ccc(-c2nn(-c3cccnc3)ccc2=O)cc1C

$$$$
