
     RDKit          3D

 32 34  0  0  0  0  0  0  0  0999 V2000
    4.9153    1.7826   16.9916 H   0  0  0  0  0  0  0  0  0  0  0  0
    5.3995    1.2964   17.8323 C   0  0  0  0  0  0  0  0  0  0  0  0
    6.5618    0.6776   17.5664 N   0  0  0  0  0  0  0  0  0  0  0  0
    7.1701    0.0739   18.5931 C   0  0  0  0  0  0  0  0  0  0  0  0
    8.1110   -0.4261   18.3702 H   0  0  0  0  0  0  0  0  0  0  0  0
    6.6560    0.0174   19.8968 C   0  0  0  0  0  0  0  0  0  0  0  0
    7.3787   -0.7052   20.9627 C   0  0  0  0  0  0  0  0  0  0  0  0
    8.7585   -0.5504   21.1167 C   0  0  0  0  0  0  0  0  0  0  0  0
    9.3245    0.1014   20.4606 H   0  0  0  0  0  0  0  0  0  0  0  0
    9.3711   -1.2321   22.1620 C   0  0  0  0  0  0  0  0  0  0  0  0
   10.4417   -1.1369   22.3034 H   0  0  0  0  0  0  0  0  0  0  0  0
    8.7289   -2.0483   23.0070 N   0  0  0  0  0  0  0  0  0  0  0  0
    7.3858   -2.1864   22.8850 C   0  0  0  0  0  0  0  0  0  0  0  0
    6.6240   -3.0733   23.8657 C   0  0  0  0  0  0  0  0  0  0  0  0
    5.3501   -2.7271   24.1477 N   0  0  0  0  0  0  0  0  0  0  0  0
    4.6489   -3.4217   25.0421 C   0  0  0  0  0  0  0  0  0  0  0  0
    3.6399   -3.0681   25.2429 H   0  0  0  0  0  0  0  0  0  0  0  0
    5.1526   -4.5552   25.6777 C   0  0  0  0  0  0  0  0  0  0  0  0
    4.5445   -5.1024   26.3883 H   0  0  0  0  0  0  0  0  0  0  0  0
    6.4443   -4.9637   25.3517 C   0  0  0  0  0  0  0  0  0  0  0  0
    6.8743   -5.8470   25.8241 H   0  0  0  0  0  0  0  0  0  0  0  0
    7.2066   -4.2440   24.4226 C   0  0  0  0  0  0  0  0  0  0  0  0
    8.5854   -4.7420   24.0720 C   0  0  0  0  0  0  0  0  0  0  0  0
    8.7373   -5.7702   24.4119 H   0  0  0  0  0  0  0  0  0  0  0  0
    8.7693   -4.6978   22.9947 H   0  0  0  0  0  0  0  0  0  0  0  0
    9.3495   -4.1051   24.5255 H   0  0  0  0  0  0  0  0  0  0  0  0
    6.6973   -1.5352   21.8531 C   0  0  0  0  0  0  0  0  0  0  0  0
    5.6293   -1.6712   21.7400 H   0  0  0  0  0  0  0  0  0  0  0  0
    5.4311    0.6542   20.1489 C   0  0  0  0  0  0  0  0  0  0  0  0
    5.0137    0.6323   21.1609 H   0  0  0  0  0  0  0  0  0  0  0  0
    4.8020    1.3184   19.0996 C   0  0  0  0  0  0  0  0  0  0  0  0
    3.8686    1.8473   19.2560 H   0  0  0  0  0  0  0  0  0  0  0  0
  1  2  1  0
  2  3  2  0
  3  4  1  0
  4  5  1  0
  4  6  2  0
  6  7  1  0
  7  8  2  0
  8  9  1  0
  8 10  1  0
 10 11  1  0
 10 12  2  0
 12 13  1  0
 13 14  1  0
 14 15  2  0
 15 16  1  0
 16 17  1  0
 16 18  2  0
 18 19  1  0
 18 20  1  0
 20 21  1  0
 20 22  2  0
 22 23  1  0
 23 24  1  0
 23 25  1  0
 23 26  1  0
 13 27  2  0
 27 28  1  0
  6 29  1  0
 29 30  1  0
 29 31  2  0
 31 32  1  0
 31  2  1  0
 27  7  1  0
 22 14  1  0
M  END
>  <cnnaffinity>  (1) 
-5.14865

>  <filename>  (1) 
Cc1cccnc1-c1cc(-c2cccnc2)ccn1

$$$$
