
     RDKit          3D

 38 41  0  0  0  0  0  0  0  0999 V2000
    4.9824    1.8679   16.8862 H   0  0  0  0  0  0  0  0  0  0  0  0
    5.4150    1.3076   17.7146 C   0  0  0  0  0  0  0  0  0  0  0  0
    6.5587    0.6513   17.4647 N   0  0  0  0  0  0  0  0  0  0  0  0
    7.1321   -0.0043   18.4808 C   0  0  0  0  0  0  0  0  0  0  0  0
    8.0650   -0.5161   18.2512 H   0  0  0  0  0  0  0  0  0  0  0  0
    6.6024   -0.0431   19.7844 C   0  0  0  0  0  0  0  0  0  0  0  0
    7.3603   -0.6522   20.8931 C   0  0  0  0  0  0  0  0  0  0  0  0
    8.4956   -1.3329   20.6712 N   0  0  0  0  0  0  0  0  0  0  0  0
    8.9317   -1.5991   21.9196 N   0  0  0  0  0  0  0  0  0  0  0  0
   10.0505   -2.2164   22.4603 C   0  0  0  0  0  0  0  0  0  0  0  0
   10.7924   -2.6767   21.8342 H   0  0  0  0  0  0  0  0  0  0  0  0
    9.9276   -2.0868   23.8050 C   0  0  0  0  0  0  0  0  0  0  0  0
   10.5585   -2.4536   24.5989 H   0  0  0  0  0  0  0  0  0  0  0  0
    8.7580   -1.3869   24.1035 N   0  0  0  0  0  0  0  0  0  0  0  0
    8.2812   -0.9941   25.3831 C   0  0  0  0  0  0  0  0  0  0  0  0
    9.1859   -0.6576   26.4021 C   0  0  0  0  0  0  0  0  0  0  0  0
   10.2622   -0.6813   26.2389 H   0  0  0  0  0  0  0  0  0  0  0  0
    8.6924   -0.2000   27.6279 C   0  0  0  0  0  0  0  0  0  0  0  0
    9.3858    0.0131   28.4411 H   0  0  0  0  0  0  0  0  0  0  0  0
    7.3236   -0.0031   27.8416 C   0  0  0  0  0  0  0  0  0  0  0  0
    6.8647    0.7393   29.0751 C   0  0  0  0  0  0  0  0  0  0  0  0
    6.3057    1.6344   28.7753 H   0  0  0  0  0  0  0  0  0  0  0  0
    7.7099    1.0745   29.6861 H   0  0  0  0  0  0  0  0  0  0  0  0
    6.2068    0.1427   29.7170 H   0  0  0  0  0  0  0  0  0  0  0  0
    6.4070   -0.4308   26.8472 C   0  0  0  0  0  0  0  0  0  0  0  0
    4.9177   -0.3391   27.0829 C   0  0  0  0  0  0  0  0  0  0  0  0
    4.6102   -0.9407   27.9445 H   0  0  0  0  0  0  0  0  0  0  0  0
    4.3519   -0.6838   26.2153 H   0  0  0  0  0  0  0  0  0  0  0  0
    4.5930    0.6851   27.2960 H   0  0  0  0  0  0  0  0  0  0  0  0
    6.8978   -0.9158   25.6290 C   0  0  0  0  0  0  0  0  0  0  0  0
    6.2028   -1.2213   24.8437 H   0  0  0  0  0  0  0  0  0  0  0  0
    8.1427   -1.1068   22.8932 C   0  0  0  0  0  0  0  0  0  0  0  0
    7.0669   -0.5021   22.2685 C   0  0  0  0  0  0  0  0  0  0  0  0
    6.1939   -0.0429   22.6941 H   0  0  0  0  0  0  0  0  0  0  0  0
    5.3838    0.6163   20.0142 C   0  0  0  0  0  0  0  0  0  0  0  0
    4.9211    0.6106   21.0030 H   0  0  0  0  0  0  0  0  0  0  0  0
    4.7862    1.3048   18.9635 C   0  0  0  0  0  0  0  0  0  0  0  0
    3.8704    1.8650   19.1142 H   0  0  0  0  0  0  0  0  0  0  0  0
  1  2  1  0
  2  3  2  0
  3  4  1  0
  4  5  1  0
  4  6  2  0
  6  7  1  0
  7  8  2  0
  8  9  1  0
  9 10  1  0
 10 11  1  0
 10 12  2  0
 12 13  1  0
 12 14  1  0
 14 15  1  0
 15 16  2  0
 16 17  1  0
 16 18  1  0
 18 19  1  0
 18 20  2  0
 20 21  1  0
 21 22  1  0
 21 23  1  0
 21 24  1  0
 20 25  1  0
 25 26  1  0
 26 27  1  0
 26 28  1  0
 26 29  1  0
 25 30  2  0
 30 31  1  0
 14 32  1  0
 32 33  2  0
 33 34  1  0
  6 35  1  0
 35 36  1  0
 35 37  2  0
 37 38  1  0
 37  2  1  0
 33  7  1  0
 32  9  1  0
 30 15  1  0
M  END
>  <cnnaffinity>  (1) 
-5.48897

>  <filename>  (1) 
Cc1ccc(-n2ccn3nc(-c4cccnc4)cc23)cc1C

$$$$
