
     RDKit          3D

 37 40  0  0  0  0  0  0  0  0999 V2000
    4.9831    1.8165   16.8999 H   0  0  0  0  0  0  0  0  0  0  0  0
    5.4027    1.2895   17.7546 C   0  0  0  0  0  0  0  0  0  0  0  0
    6.5616    0.6468   17.5416 N   0  0  0  0  0  0  0  0  0  0  0  0
    7.1175    0.0266   18.5860 C   0  0  0  0  0  0  0  0  0  0  0  0
    8.0430   -0.5090   18.3795 H   0  0  0  0  0  0  0  0  0  0  0  0
    6.5828    0.0450   19.8872 C   0  0  0  0  0  0  0  0  0  0  0  0
    7.3632   -0.5424   20.9853 C   0  0  0  0  0  0  0  0  0  0  0  0
    7.9973   -1.6953   20.7796 N   0  0  0  0  0  0  0  0  0  0  0  0
    8.5525   -1.9827   21.9532 N   0  0  0  0  0  0  0  0  0  0  0  0
    8.3720   -1.0750   22.9052 C   0  0  0  0  0  0  0  0  0  0  0  0
    7.5903   -0.0811   22.3221 C   0  0  0  0  0  0  0  0  0  0  0  0
    7.2058    1.1666   22.9595 C   0  0  0  0  0  0  0  0  0  0  0  0
    7.1175    2.2788   22.2096 N   0  0  0  0  0  0  0  0  0  0  0  0
    6.8261    3.4314   22.8192 C   0  0  0  0  0  0  0  0  0  0  0  0
    6.6781    4.6232   21.9063 C   0  0  0  0  0  0  0  0  0  0  0  0
    6.1726    4.3033   20.9879 H   0  0  0  0  0  0  0  0  0  0  0  0
    7.6564    5.0247   21.6254 H   0  0  0  0  0  0  0  0  0  0  0  0
    6.1082    5.4375   22.3631 H   0  0  0  0  0  0  0  0  0  0  0  0
    6.6629    3.5325   24.2113 C   0  0  0  0  0  0  0  0  0  0  0  0
    6.4685    4.4994   24.6595 H   0  0  0  0  0  0  0  0  0  0  0  0
    6.7306    2.3777   24.9888 C   0  0  0  0  0  0  0  0  0  0  0  0
    6.5825    2.4095   26.0678 H   0  0  0  0  0  0  0  0  0  0  0  0
    6.9872    1.1723   24.3474 C   0  0  0  0  0  0  0  0  0  0  0  0
    7.0277    0.2369   24.8955 H   0  0  0  0  0  0  0  0  0  0  0  0
    9.1985   -1.4200   24.1215 C   0  0  0  0  0  0  0  0  0  0  0  0
    8.5673   -1.6267   24.9910 H   0  0  0  0  0  0  0  0  0  0  0  0
    9.8686   -0.5995   24.3916 H   0  0  0  0  0  0  0  0  0  0  0  0
    9.9829   -2.6846   23.6761 C   0  0  0  0  0  0  0  0  0  0  0  0
    9.8178   -3.5125   24.3656 H   0  0  0  0  0  0  0  0  0  0  0  0
   11.0515   -2.4920   23.6455 H   0  0  0  0  0  0  0  0  0  0  0  0
    9.5009   -3.0265   22.2422 C   0  0  0  0  0  0  0  0  0  0  0  0
    9.0187   -4.0033   22.1665 H   0  0  0  0  0  0  0  0  0  0  0  0
   10.3092   -2.9405   21.5162 H   0  0  0  0  0  0  0  0  0  0  0  0
    5.3226    0.6380   20.0665 C   0  0  0  0  0  0  0  0  0  0  0  0
    4.8291    0.6248   21.0406 H   0  0  0  0  0  0  0  0  0  0  0  0
    4.7366    1.2897   18.9825 C   0  0  0  0  0  0  0  0  0  0  0  0
    3.7876    1.8053   19.0755 H   0  0  0  0  0  0  0  0  0  0  0  0
  1  2  1  0
  2  3  2  0
  3  4  1  0
  4  5  1  0
  4  6  2  0
  6  7  1  0
  7  8  2  0
  8  9  1  0
  9 10  1  0
 10 11  2  0
 11 12  1  0
 12 13  2  0
 13 14  1  0
 14 15  1  0
 15 16  1  0
 15 17  1  0
 15 18  1  0
 14 19  2  0
 19 20  1  0
 19 21  1  0
 21 22  1  0
 21 23  2  0
 23 24  1  0
 10 25  1  0
 25 26  1  0
 25 27  1  0
 25 28  1  0
 28 29  1  0
 28 30  1  0
 28 31  1  0
 31 32  1  0
 31 33  1  0
  6 34  1  0
 34 35  1  0
 34 36  2  0
 36 37  1  0
 36  2  1  0
 11  7  1  0
 23 12  1  0
 31  9  1  0
M  END
>  <cnnaffinity>  (1) 
-5.51922

>  <filename>  (1) 
Cc1cccc(-c2c(-c3cccnc3)nn3c2CCC3)n1

$$$$
