
     RDKit          3D

 37 40  0  0  0  0  0  0  0  0999 V2000
    4.9408    1.8003   16.9855 H   0  0  0  0  0  0  0  0  0  0  0  0
    5.3988    1.2943   17.8342 C   0  0  0  0  0  0  0  0  0  0  0  0
    6.5520    0.6581   17.5785 N   0  0  0  0  0  0  0  0  0  0  0  0
    7.1507    0.0294   18.5926 C   0  0  0  0  0  0  0  0  0  0  0  0
    8.0957   -0.4568   18.3621 H   0  0  0  0  0  0  0  0  0  0  0  0
    6.6505    0.0046   19.9007 C   0  0  0  0  0  0  0  0  0  0  0  0
    7.4278   -0.6744   20.9356 C   0  0  0  0  0  0  0  0  0  0  0  0
    7.8465   -1.9780   20.8022 N   0  0  0  0  0  0  0  0  0  0  0  0
    8.4262   -2.2306   21.9448 C   0  0  0  0  0  0  0  0  0  0  0  0
    9.2128   -3.5946   22.6920 S   0  0  0  0  0  0  0  0  0  0  0  0
    9.6785   -2.6015   24.0604 C   0  0  0  0  0  0  0  0  0  0  0  0
   10.3065   -3.0302   24.8308 H   0  0  0  0  0  0  0  0  0  0  0  0
    9.1815   -1.3549   23.9700 C   0  0  0  0  0  0  0  0  0  0  0  0
    9.2464   -0.5351   24.6765 H   0  0  0  0  0  0  0  0  0  0  0  0
    8.4727   -1.1538   22.7909 N   0  0  0  0  0  0  0  0  0  0  0  0
    7.8362   -0.1179   22.1376 C   0  0  0  0  0  0  0  0  0  0  0  0
    7.6809    1.2607   22.6957 C   0  0  0  0  0  0  0  0  0  0  0  0
    7.7258    1.9717   21.8651 H   0  0  0  0  0  0  0  0  0  0  0  0
    8.5358    1.4951   23.3484 H   0  0  0  0  0  0  0  0  0  0  0  0
    6.3762    1.4926   23.4532 C   0  0  0  0  0  0  0  0  0  0  0  0
    6.0177    0.6671   24.5246 C   0  0  0  0  0  0  0  0  0  0  0  0
    6.6725   -0.1597   24.7956 H   0  0  0  0  0  0  0  0  0  0  0  0
    4.8254    0.8794   25.2243 C   0  0  0  0  0  0  0  0  0  0  0  0
    4.5666    0.2268   26.0555 H   0  0  0  0  0  0  0  0  0  0  0  0
    3.9541    1.9213   24.8725 C   0  0  0  0  0  0  0  0  0  0  0  0
    2.6577    2.1380   25.6206 C   0  0  0  0  0  0  0  0  0  0  0  0
    2.7360    1.8169   26.6654 H   0  0  0  0  0  0  0  0  0  0  0  0
    1.8356    1.5711   25.1668 H   0  0  0  0  0  0  0  0  0  0  0  0
    2.3672    3.1941   25.6167 H   0  0  0  0  0  0  0  0  0  0  0  0
    4.3175    2.7491   23.7969 C   0  0  0  0  0  0  0  0  0  0  0  0
    3.6593    3.5684   23.5149 H   0  0  0  0  0  0  0  0  0  0  0  0
    5.5114    2.5366   23.0982 C   0  0  0  0  0  0  0  0  0  0  0  0
    5.7616    3.1631   22.2404 H   0  0  0  0  0  0  0  0  0  0  0  0
    5.4357    0.6662   20.1540 C   0  0  0  0  0  0  0  0  0  0  0  0
    4.9951    0.6627   21.1529 H   0  0  0  0  0  0  0  0  0  0  0  0
    4.7993    1.3192   19.0987 C   0  0  0  0  0  0  0  0  0  0  0  0
    3.8639    1.8511   19.2337 H   0  0  0  0  0  0  0  0  0  0  0  0
  1  2  1  0
  2  3  2  0
  3  4  1  0
  4  5  1  0
  4  6  2  0
  6  7  1  0
  7  8  1  0
  8  9  2  0
  9 10  1  0
 10 11  1  0
 11 12  1  0
 11 13  2  0
 13 14  1  0
 13 15  1  0
 15 16  1  0
 16 17  1  0
 17 18  1  0
 17 19  1  0
 17 20  1  0
 20 21  2  0
 21 22  1  0
 21 23  1  0
 23 24  1  0
 23 25  2  0
 25 26  1  0
 26 27  1  0
 26 28  1  0
 26 29  1  0
 25 30  1  0
 30 31  1  0
 30 32  2  0
 32 33  1  0
  6 34  1  0
 34 35  1  0
 34 36  2  0
 36 37  1  0
 36  2  1  0
 16  7  2  0
 32 20  1  0
 15  9  1  0
M  END
>  <cnnaffinity>  (1) 
-5.43295

>  <filename>  (1) 
Cc1ccc(Cc2c(-c3cccnc3)nc3sccn23)cc1

$$$$
