
     RDKit          3D

 32 35  0  0  0  0  0  0  0  0999 V2000
    4.9522    1.7643   16.9862 H   0  0  0  0  0  0  0  0  0  0  0  0
    5.4132    1.2854   17.8460 C   0  0  0  0  0  0  0  0  0  0  0  0
    6.5769    0.6555   17.6177 N   0  0  0  0  0  0  0  0  0  0  0  0
    7.1633    0.0815   18.6694 C   0  0  0  0  0  0  0  0  0  0  0  0
    8.1087   -0.4168   18.4609 H   0  0  0  0  0  0  0  0  0  0  0  0
    6.6590    0.1014   19.9869 C   0  0  0  0  0  0  0  0  0  0  0  0
    7.4393   -0.5913   21.0331 C   0  0  0  0  0  0  0  0  0  0  0  0
    8.3031   -1.6145   20.8778 C   0  0  0  0  0  0  0  0  0  0  0  0
    8.7127   -2.0015   19.9631 H   0  0  0  0  0  0  0  0  0  0  0  0
    8.8825   -2.2794   22.3773 S   0  0  0  0  0  0  0  0  0  0  0  0
    8.0788   -1.0106   23.2401 C   0  0  0  0  0  0  0  0  0  0  0  0
    8.0880   -0.4949   24.4503 N   0  0  0  0  0  0  0  0  0  0  0  0
    7.3244    0.6163   24.2622 C   0  0  0  0  0  0  0  0  0  0  0  0
    7.0519    1.5758   25.3071 C   0  0  0  0  0  0  0  0  0  0  0  0
    7.5809    1.3553   26.5791 C   0  0  0  0  0  0  0  0  0  0  0  0
    8.2008    0.4890   26.7883 H   0  0  0  0  0  0  0  0  0  0  0  0
    7.3648    2.1769   27.6050 N   0  0  0  0  0  0  0  0  0  0  0  0
    6.6106    3.2636   27.3995 C   0  0  0  0  0  0  0  0  0  0  0  0
    6.3780    4.1568   28.5727 C   0  0  0  0  0  0  0  0  0  0  0  0
    6.8989    3.7561   29.4424 H   0  0  0  0  0  0  0  0  0  0  0  0
    6.7394    5.1679   28.3654 H   0  0  0  0  0  0  0  0  0  0  0  0
    5.3091    4.2303   28.7934 H   0  0  0  0  0  0  0  0  0  0  0  0
    6.0512    3.5707   26.1450 C   0  0  0  0  0  0  0  0  0  0  0  0
    5.4538    4.4671   26.0324 H   0  0  0  0  0  0  0  0  0  0  0  0
    6.2736    2.7211   25.0782 C   0  0  0  0  0  0  0  0  0  0  0  0
    5.8688    2.9202   24.0847 H   0  0  0  0  0  0  0  0  0  0  0  0
    6.8482    0.8061   23.0388 N   0  0  0  0  0  0  0  0  0  0  0  0
    7.3363   -0.2716   22.3886 N   0  0  0  0  0  0  0  0  0  0  0  0
    5.4240    0.7490   20.2041 C   0  0  0  0  0  0  0  0  0  0  0  0
    4.9873    0.7947   21.2067 H   0  0  0  0  0  0  0  0  0  0  0  0
    4.7980    1.3358   19.1041 C   0  0  0  0  0  0  0  0  0  0  0  0
    3.8437    1.8412   19.2045 H   0  0  0  0  0  0  0  0  0  0  0  0
  1  2  1  0
  2  3  2  0
  3  4  1  0
  4  5  1  0
  4  6  2  0
  6  7  1  0
  7  8  2  0
  8  9  1  0
  8 10  1  0
 10 11  1  0
 11 12  2  0
 12 13  1  0
 13 14  1  0
 14 15  2  0
 15 16  1  0
 15 17  1  0
 17 18  2  0
 18 19  1  0
 19 20  1  0
 19 21  1  0
 19 22  1  0
 18 23  1  0
 23 24  1  0
 23 25  2  0
 25 26  1  0
 13 27  2  0
 27 28  1  0
  6 29  1  0
 29 30  1  0
 29 31  2  0
 31 32  1  0
 31  2  1  0
 28  7  1  0
 28 11  1  0
 25 14  1  0
M  END
>  <cnnaffinity>  (1) 
-5.31006

>  <filename>  (1) 
Cc1ccc(-c2nc3scc(-c4cccnc4)n3n2)cn1

$$$$
