
     RDKit          3D

 29 30  0  0  0  0  0  0  0  0999 V2000
    4.9185    1.7980   16.9854 H   0  0  0  0  0  0  0  0  0  0  0  0
    5.3902    1.2986   17.8280 C   0  0  0  0  0  0  0  0  0  0  0  0
    6.5538    0.6845   17.5577 N   0  0  0  0  0  0  0  0  0  0  0  0
    7.1504    0.0403   18.5669 C   0  0  0  0  0  0  0  0  0  0  0  0
    8.1159   -0.4192   18.3702 H   0  0  0  0  0  0  0  0  0  0  0  0
    6.6174   -0.0492   19.8653 C   0  0  0  0  0  0  0  0  0  0  0  0
    7.6007   -0.8511   21.1045 S   0  0  0  0  0  0  0  0  0  0  0  0
    8.8322    0.7344   21.6831 S   0  0  0  0  0  0  0  0  0  0  0  0
    7.7891    1.5051   22.8947 C   0  0  0  0  0  0  0  0  0  0  0  0
    7.8141    0.9894   24.1902 C   0  0  0  0  0  0  0  0  0  0  0  0
    8.4920    0.1700   24.4157 H   0  0  0  0  0  0  0  0  0  0  0  0
    6.9413    1.5032   25.1475 C   0  0  0  0  0  0  0  0  0  0  0  0
    6.9723    1.1143   26.1626 H   0  0  0  0  0  0  0  0  0  0  0  0
    6.0324    2.5192   24.8324 C   0  0  0  0  0  0  0  0  0  0  0  0
    5.1208    3.0612   25.9044 C   0  0  0  0  0  0  0  0  0  0  0  0
    5.3578    2.6325   26.8803 H   0  0  0  0  0  0  0  0  0  0  0  0
    4.0701    2.8376   25.6909 H   0  0  0  0  0  0  0  0  0  0  0  0
    5.2007    4.1502   25.9890 H   0  0  0  0  0  0  0  0  0  0  0  0
    5.9884    3.0262   23.5112 C   0  0  0  0  0  0  0  0  0  0  0  0
    5.0133    4.1129   23.1243 C   0  0  0  0  0  0  0  0  0  0  0  0
    3.9808    3.8618   23.3946 H   0  0  0  0  0  0  0  0  0  0  0  0
    5.0393    4.3073   22.0494 H   0  0  0  0  0  0  0  0  0  0  0  0
    5.2470    5.0555   23.6329 H   0  0  0  0  0  0  0  0  0  0  0  0
    6.8822    2.5210   22.5566 C   0  0  0  0  0  0  0  0  0  0  0  0
    6.8173    2.8788   21.5302 H   0  0  0  0  0  0  0  0  0  0  0  0
    5.4096    0.6023   20.1399 C   0  0  0  0  0  0  0  0  0  0  0  0
    5.0161    0.6153   21.1598 H   0  0  0  0  0  0  0  0  0  0  0  0
    4.7920    1.2995   19.0938 C   0  0  0  0  0  0  0  0  0  0  0  0
    3.8708    1.8487   19.2474 H   0  0  0  0  0  0  0  0  0  0  0  0
  1  2  1  0
  2  3  2  0
  3  4  1  0
  4  5  1  0
  4  6  2  0
  6  7  1  0
  7  8  1  0
  8  9  1  0
  9 10  2  0
 10 11  1  0
 10 12  1  0
 12 13  1  0
 12 14  2  0
 14 15  1  0
 15 16  1  0
 15 17  1  0
 15 18  1  0
 14 19  1  0
 19 20  1  0
 20 21  1  0
 20 22  1  0
 20 23  1  0
 19 24  2  0
 24 25  1  0
  6 26  1  0
 26 27  1  0
 26 28  2  0
 28 29  1  0
 28  2  1  0
 24  9  1  0
M  END
>  <cnnaffinity>  (1) 
-4.8559

>  <filename>  (1) 
Cc1ccc(SSc2cccnc2)cc1C

$$$$
