
     RDKit          3D

 32 34  0  0  0  0  0  0  0  0999 V2000
    4.9108    1.7946   16.9832 H   0  0  0  0  0  0  0  0  0  0  0  0
    5.3896    1.3036   17.8237 C   0  0  0  0  0  0  0  0  0  0  0  0
    6.5553    0.6909   17.5536 N   0  0  0  0  0  0  0  0  0  0  0  0
    7.1599    0.0645   18.5684 C   0  0  0  0  0  0  0  0  0  0  0  0
    8.1174   -0.4040   18.3394 H   0  0  0  0  0  0  0  0  0  0  0  0
    6.6507    0.0107   19.8818 C   0  0  0  0  0  0  0  0  0  0  0  0
    7.3669   -0.6616   20.9678 C   0  0  0  0  0  0  0  0  0  0  0  0
    7.5118   -0.3208   22.3061 C   0  0  0  0  0  0  0  0  0  0  0  0
    7.0341    0.8472   22.9108 N   0  0  0  0  0  0  0  0  0  0  0  0
    6.9923    1.6562   22.3046 H   0  0  0  0  0  0  0  0  0  0  0  0
    6.8182    1.0456   24.2792 C   0  0  0  0  0  0  0  0  0  0  0  0
    6.3642    0.0196   25.1408 C   0  0  0  0  0  0  0  0  0  0  0  0
    6.1752   -0.9652   24.7199 H   0  0  0  0  0  0  0  0  0  0  0  0
    6.1410    0.1634   26.4563 N   0  0  0  0  0  0  0  0  0  0  0  0
    6.3577    1.3665   27.0003 C   0  0  0  0  0  0  0  0  0  0  0  0
    6.0870    1.5281   28.4716 C   0  0  0  0  0  0  0  0  0  0  0  0
    6.9180    2.0327   28.9731 H   0  0  0  0  0  0  0  0  0  0  0  0
    5.2012    2.1512   28.6317 H   0  0  0  0  0  0  0  0  0  0  0  0
    5.9178    0.5633   28.9551 H   0  0  0  0  0  0  0  0  0  0  0  0
    6.7977    2.4566   26.2252 C   0  0  0  0  0  0  0  0  0  0  0  0
    6.9426    3.4102   26.7137 H   0  0  0  0  0  0  0  0  0  0  0  0
    7.0266    2.3100   24.8572 C   0  0  0  0  0  0  0  0  0  0  0  0
    7.3745    3.1440   24.2444 H   0  0  0  0  0  0  0  0  0  0  0  0
    8.2844   -1.3733   22.8580 C   0  0  0  0  0  0  0  0  0  0  0  0
    8.6198   -1.4555   23.8807 H   0  0  0  0  0  0  0  0  0  0  0  0
    8.6027   -2.2890   21.9496 N   0  0  0  0  0  0  0  0  0  0  0  0
    8.0484   -1.8276   20.8190 N   0  0  0  0  0  0  0  0  0  0  0  0
    8.1366   -2.3638   19.9702 H   0  0  0  0  0  0  0  0  0  0  0  0
    5.4331    0.6612   20.1426 C   0  0  0  0  0  0  0  0  0  0  0  0
    5.0168    0.6252   21.1528 H   0  0  0  0  0  0  0  0  0  0  0  0
    4.7954    1.3185   19.0909 C   0  0  0  0  0  0  0  0  0  0  0  0
    3.8656    1.8483   19.2484 H   0  0  0  0  0  0  0  0  0  0  0  0
  1  2  1  0
  2  3  2  0
  3  4  1  0
  4  5  1  0
  4  6  2  0
  6  7  1  0
  7  8  2  0
  8  9  1  0
  9 10  1  0
  9 11  1  0
 11 12  2  0
 12 13  1  0
 12 14  1  0
 14 15  2  0
 15 16  1  0
 16 17  1  0
 16 18  1  0
 16 19  1  0
 15 20  1  0
 20 21  1  0
 20 22  2  0
 22 23  1  0
  8 24  1  0
 24 25  1  0
 24 26  2  0
 26 27  1  0
 27 28  1  0
  6 29  1  0
 29 30  1  0
 29 31  2  0
 31 32  1  0
 31  2  1  0
 27  7  1  0
 22 11  1  0
M  END
>  <cnnaffinity>  (1) 
-5.41879

>  <filename>  (1) 
Cc1ccc(Nc2cn[nH]c2-c2cccnc2)cn1

$$$$
