
     RDKit          3D

 31 33  0  0  0  0  0  0  0  0999 V2000
    8.3260   -4.0245   24.3020 C   0  0  0  0  0  0  0  0  0  0  0  0
    8.5196   -2.7073   25.0181 C   0  0  0  0  0  0  0  0  0  0  0  0
    8.8684   -2.6713   26.3790 C   0  0  0  0  0  0  0  0  0  0  0  0
    9.1754   -4.1524   27.2512 Cl  0  0  0  0  0  0  0  0  0  0  0  0
    8.9898   -1.4777   27.0916 C   0  0  0  0  0  0  0  0  0  0  0  0
    8.7753   -0.2672   26.4385 C   0  0  0  0  0  0  0  0  0  0  0  0
    8.4663   -0.2588   25.0857 C   0  0  0  0  0  0  0  0  0  0  0  0
    8.3630   -1.4585   24.3635 C   0  0  0  0  0  0  0  0  0  0  0  0
    8.1035   -1.3580   22.9149 C   0  0  0  0  0  0  0  0  0  0  0  0
    7.2370   -0.4935   22.2831 C   0  0  0  0  0  0  0  0  0  0  0  0
    7.3651   -0.6886   20.9413 N   0  0  0  0  0  0  0  0  0  0  0  0
    6.6657   -0.0028   19.9100 C   0  0  0  0  0  0  0  0  0  0  0  0
    5.4487    0.6455   20.1678 C   0  0  0  0  0  0  0  0  0  0  0  0
    4.8130    1.3034   19.1119 C   0  0  0  0  0  0  0  0  0  0  0  0
    5.4058    1.2894   17.8442 C   0  0  0  0  0  0  0  0  0  0  0  0
    6.5734    0.6725   17.5925 N   0  0  0  0  0  0  0  0  0  0  0  0
    7.1846    0.0507   18.6052 C   0  0  0  0  0  0  0  0  0  0  0  0
    8.1283   -0.4337   18.3751 H   0  0  0  0  0  0  0  0  0  0  0  0
    4.9175    1.7770   16.9993 H   0  0  0  0  0  0  0  0  0  0  0  0
    3.8783    1.8395   19.2663 H   0  0  0  0  0  0  0  0  0  0  0  0
    4.9954    0.6276   21.1630 H   0  0  0  0  0  0  0  0  0  0  0  0
    8.3027   -1.6185   20.6587 N   0  0  0  0  0  0  0  0  0  0  0  0
    8.7338   -2.0222   21.8407 C   0  0  0  0  0  0  0  0  0  0  0  0
    9.5073   -2.7684   21.9274 H   0  0  0  0  0  0  0  0  0  0  0  0
    6.5677    0.2483   22.7006 H   0  0  0  0  0  0  0  0  0  0  0  0
    8.3220    0.6819   24.5598 H   0  0  0  0  0  0  0  0  0  0  0  0
    8.8580    0.6654   26.9864 H   0  0  0  0  0  0  0  0  0  0  0  0
    9.2496   -1.4820   28.1418 H   0  0  0  0  0  0  0  0  0  0  0  0
    7.9526   -4.7937   24.9787 H   0  0  0  0  0  0  0  0  0  0  0  0
    7.6231   -3.9232   23.4720 H   0  0  0  0  0  0  0  0  0  0  0  0
    9.2788   -4.3855   23.9005 H   0  0  0  0  0  0  0  0  0  0  0  0
  1  2  1  0
  2  3  2  0
  3  4  1  0
  3  5  1  0
  5  6  2  0
  6  7  1  0
  7  8  2  0
  8  9  1  0
  9 10  2  0
 10 11  1  0
 11 12  1  0
 12 13  2  0
 13 14  1  0
 14 15  2  0
 15 16  1  0
 16 17  2  0
 17 18  1  0
 15 19  1  0
 14 20  1  0
 13 21  1  0
 11 22  1  0
 22 23  2  0
 23 24  1  0
 10 25  1  0
  7 26  1  0
  6 27  1  0
  5 28  1  0
  1 29  1  0
  1 30  1  0
  1 31  1  0
  8  2  1  0
 23  9  1  0
 17 12  1  0
M  END
>  <cnnaffinity>  (1) 
-5.38739

>  <filename>  (1) 
Cc1c(Cl)cccc1-c1cnn(-c2cccnc2)c1

$$$$
