
     RDKit          3D

 40 42  0  0  0  0  0  0  0  0999 V2000
    5.0168    1.7636   16.6152 H   0  0  0  0  0  0  0  0  0  0  0  0
    5.3520    1.3730   17.5732 C   0  0  0  0  0  0  0  0  0  0  0  0
    6.5506    0.7687   17.5851 N   0  0  0  0  0  0  0  0  0  0  0  0
    7.0009    0.3044   18.7624 C   0  0  0  0  0  0  0  0  0  0  0  0
    7.9668   -0.1969   18.7288 H   0  0  0  0  0  0  0  0  0  0  0  0
    6.2996    0.4071   19.9905 C   0  0  0  0  0  0  0  0  0  0  0  0
    6.7843   -0.0964   21.2368 N   0  0  0  0  0  0  0  0  0  0  0  0
    6.2917   -1.4491   21.5390 C   0  0  0  0  0  0  0  0  0  0  0  0
    6.3881   -2.1104   20.6675 H   0  0  0  0  0  0  0  0  0  0  0  0
    5.2150   -1.3978   21.6523 H   0  0  0  0  0  0  0  0  0  0  0  0
    6.9514   -2.1362   22.7572 C   0  0  0  0  0  0  0  0  0  0  0  0
    6.3644   -3.0002   23.0840 H   0  0  0  0  0  0  0  0  0  0  0  0
    6.9346   -1.4237   23.5983 H   0  0  0  0  0  0  0  0  0  0  0  0
    8.3255   -2.6116   22.4951 N   0  0  0  0  0  0  0  0  0  0  0  0
    9.0343   -3.2347   23.4940 C   0  0  0  0  0  0  0  0  0  0  0  0
    8.3375   -3.8612   24.4597 N   0  0  0  0  0  0  0  0  0  0  0  0
    9.0153   -4.5791   25.3637 C   0  0  0  0  0  0  0  0  0  0  0  0
    8.2445   -5.2763   26.4467 C   0  0  0  0  0  0  0  0  0  0  0  0
    7.1703   -5.2407   26.2587 H   0  0  0  0  0  0  0  0  0  0  0  0
    8.4564   -4.7979   27.4098 H   0  0  0  0  0  0  0  0  0  0  0  0
    8.5615   -6.3232   26.5338 H   0  0  0  0  0  0  0  0  0  0  0  0
   10.4082   -4.7238   25.3421 C   0  0  0  0  0  0  0  0  0  0  0  0
   10.8899   -5.3824   26.0575 H   0  0  0  0  0  0  0  0  0  0  0  0
   11.1213   -4.0281   24.3732 C   0  0  0  0  0  0  0  0  0  0  0  0
   12.1934   -4.0953   24.2951 H   0  0  0  0  0  0  0  0  0  0  0  0
   10.4450   -3.2465   23.4567 C   0  0  0  0  0  0  0  0  0  0  0  0
   10.9736   -2.6641   22.7174 H   0  0  0  0  0  0  0  0  0  0  0  0
    8.9769   -2.1557   21.2662 C   0  0  0  0  0  0  0  0  0  0  0  0
    9.8489   -2.7740   21.0407 H   0  0  0  0  0  0  0  0  0  0  0  0
    8.2901   -2.3564   20.4459 H   0  0  0  0  0  0  0  0  0  0  0  0
    9.3154   -0.6630   21.2662 C   0  0  0  0  0  0  0  0  0  0  0  0
    9.6694   -0.3963   20.2615 H   0  0  0  0  0  0  0  0  0  0  0  0
   10.1525   -0.4703   21.9512 H   0  0  0  0  0  0  0  0  0  0  0  0
    8.1389    0.2510   21.6956 C   0  0  0  0  0  0  0  0  0  0  0  0
    8.0959    0.2795   22.7933 H   0  0  0  0  0  0  0  0  0  0  0  0
    8.3366    1.2819   21.3880 H   0  0  0  0  0  0  0  0  0  0  0  0
    5.0252    1.0028   19.9332 C   0  0  0  0  0  0  0  0  0  0  0  0
    4.4343    1.0725   20.8455 H   0  0  0  0  0  0  0  0  0  0  0  0
    4.5551    1.5056   18.7148 C   0  0  0  0  0  0  0  0  0  0  0  0
    3.5892    1.9925   18.6337 H   0  0  0  0  0  0  0  0  0  0  0  0
  1  2  1  0
  2  3  2  0
  3  4  1  0
  4  5  1  0
  4  6  2  0
  6  7  1  0
  7  8  1  0
  8  9  1  0
  8 10  1  0
  8 11  1  0
 11 12  1  0
 11 13  1  0
 11 14  1  0
 14 15  1  0
 15 16  2  0
 16 17  1  0
 17 18  1  0
 18 19  1  0
 18 20  1  0
 18 21  1  0
 17 22  2  0
 22 23  1  0
 22 24  1  0
 24 25  1  0
 24 26  2  0
 26 27  1  0
 14 28  1  0
 28 29  1  0
 28 30  1  0
 28 31  1  0
 31 32  1  0
 31 33  1  0
 31 34  1  0
 34 35  1  0
 34 36  1  0
  6 37  1  0
 37 38  1  0
 37 39  2  0
 39 40  1  0
 39  2  1  0
 34  7  1  0
 26 15  1  0
M  END
>  <cnnaffinity>  (1) 
-5.26727

>  <filename>  (1) 
Cc1cccc(N2CCCN(c3cccnc3)CC2)n1

$$$$
