
     RDKit          3D

 32 35  0  0  0  0  0  0  0  0999 V2000
    4.9216    1.7718   17.0043 H   0  0  0  0  0  0  0  0  0  0  0  0
    5.4090    1.2859   17.8473 C   0  0  0  0  0  0  0  0  0  0  0  0
    6.5743    0.6694   17.5952 N   0  0  0  0  0  0  0  0  0  0  0  0
    7.1819    0.0539   18.6142 C   0  0  0  0  0  0  0  0  0  0  0  0
    8.1273   -0.4335   18.3841 H   0  0  0  0  0  0  0  0  0  0  0  0
    6.6484    0.0150   19.9098 C   0  0  0  0  0  0  0  0  0  0  0  0
    7.3630   -0.6893   20.9670 C   0  0  0  0  0  0  0  0  0  0  0  0
    8.5477   -1.3275   20.7587 N   0  0  0  0  0  0  0  0  0  0  0  0
    8.7969   -1.8156   21.9584 C   0  0  0  0  0  0  0  0  0  0  0  0
    9.9890   -2.8188   22.7285 S   0  0  0  0  0  0  0  0  0  0  0  0
    9.0735   -2.7676   24.2073 C   0  0  0  0  0  0  0  0  0  0  0  0
    9.4582   -3.2866   25.0755 H   0  0  0  0  0  0  0  0  0  0  0  0
    7.9541   -2.0206   24.1224 C   0  0  0  0  0  0  0  0  0  0  0  0
    6.9722   -1.7519   25.1920 C   0  0  0  0  0  0  0  0  0  0  0  0
    6.7472   -2.7031   26.2045 C   0  0  0  0  0  0  0  0  0  0  0  0
    7.2889   -3.6471   26.1895 H   0  0  0  0  0  0  0  0  0  0  0  0
    5.8790   -2.5479   27.2137 N   0  0  0  0  0  0  0  0  0  0  0  0
    5.1791   -1.4055   27.2662 C   0  0  0  0  0  0  0  0  0  0  0  0
    4.2110   -1.2155   28.3970 C   0  0  0  0  0  0  0  0  0  0  0  0
    4.5345   -0.3963   29.0467 H   0  0  0  0  0  0  0  0  0  0  0  0
    4.1214   -2.1179   29.0017 H   0  0  0  0  0  0  0  0  0  0  0  0
    3.2177   -0.9448   28.0257 H   0  0  0  0  0  0  0  0  0  0  0  0
    5.3379   -0.3897   26.3050 C   0  0  0  0  0  0  0  0  0  0  0  0
    4.7552    0.5205   26.3844 H   0  0  0  0  0  0  0  0  0  0  0  0
    6.2356   -0.5544   25.2626 C   0  0  0  0  0  0  0  0  0  0  0  0
    6.3733    0.2179   24.5056 H   0  0  0  0  0  0  0  0  0  0  0  0
    7.8310   -1.4801   22.8355 N   0  0  0  0  0  0  0  0  0  0  0  0
    6.8794   -0.7491   22.2042 N   0  0  0  0  0  0  0  0  0  0  0  0
    5.4288    0.6577   20.1666 C   0  0  0  0  0  0  0  0  0  0  0  0
    5.0012    0.6326   21.1733 H   0  0  0  0  0  0  0  0  0  0  0  0
    4.8045    1.3103   19.1103 C   0  0  0  0  0  0  0  0  0  0  0  0
    3.8737    1.8435   19.2612 H   0  0  0  0  0  0  0  0  0  0  0  0
  1  2  1  0
  2  3  2  0
  3  4  1  0
  4  5  1  0
  4  6  2  0
  6  7  1  0
  7  8  1  0
  8  9  2  0
  9 10  1  0
 10 11  1  0
 11 12  1  0
 11 13  2  0
 13 14  1  0
 14 15  2  0
 15 16  1  0
 15 17  1  0
 17 18  2  0
 18 19  1  0
 19 20  1  0
 19 21  1  0
 19 22  1  0
 18 23  1  0
 23 24  1  0
 23 25  2  0
 25 26  1  0
 13 27  1  0
 27 28  1  0
  6 29  1  0
 29 30  1  0
 29 31  2  0
 31 32  1  0
 31  2  1  0
 28  7  2  0
 27  9  1  0
 25 14  1  0
M  END
>  <cnnaffinity>  (1) 
-5.60486

>  <filename>  (1) 
Cc1ccc(-c2csc3nc(-c4cccnc4)nn23)cn1

$$$$
