
     RDKit          3D

 43 45  0  0  0  0  0  0  0  0999 V2000
    9.3692    0.6495   20.7714 C   0  0  0  0  0  0  0  0  0  0  0  0
    8.5849   -0.4836   21.3808 C   0  0  0  0  0  0  0  0  0  0  0  0
    9.1001   -1.2588   22.4095 C   0  0  0  0  0  0  0  0  0  0  0  0
    8.4404   -2.2167   23.0314 N   0  0  0  0  0  0  0  0  0  0  0  0
    7.1902   -2.4387   22.6049 C   0  0  0  0  0  0  0  0  0  0  0  0
    6.4902   -3.4246   23.2133 N   0  0  0  0  0  0  0  0  0  0  0  0
    7.0234   -4.0761   24.4222 C   0  0  0  0  0  0  0  0  0  0  0  0
    5.8871   -4.3409   25.4018 C   0  0  0  0  0  0  0  0  0  0  0  0
    4.7833   -5.2264   24.7946 C   0  0  0  0  0  0  0  0  0  0  0  0
    4.7449   -5.1664   23.2531 C   0  0  0  0  0  0  0  0  0  0  0  0
    3.3824   -5.6242   22.6988 C   0  0  0  0  0  0  0  0  0  0  0  0
    2.8947   -6.9838   23.1844 C   0  0  0  0  0  0  0  0  0  0  0  0
    2.1142   -7.6020   22.2772 F   0  0  0  0  0  0  0  0  0  0  0  0
    3.9015   -7.8361   23.4696 F   0  0  0  0  0  0  0  0  0  0  0  0
    2.1680   -6.8418   24.3175 F   0  0  0  0  0  0  0  0  0  0  0  0
    2.5958   -4.9093   22.9715 H   0  0  0  0  0  0  0  0  0  0  0  0
    3.4183   -5.6541   21.6120 H   0  0  0  0  0  0  0  0  0  0  0  0
    5.1579   -3.7914   22.7093 C   0  0  0  0  0  0  0  0  0  0  0  0
    4.4070   -3.0369   22.9845 H   0  0  0  0  0  0  0  0  0  0  0  0
    5.1777   -3.8105   21.6101 H   0  0  0  0  0  0  0  0  0  0  0  0
    5.5242   -5.8466   22.8788 H   0  0  0  0  0  0  0  0  0  0  0  0
    4.9339   -6.2709   25.0842 H   0  0  0  0  0  0  0  0  0  0  0  0
    3.8176   -4.9222   25.2143 H   0  0  0  0  0  0  0  0  0  0  0  0
    6.2805   -4.8063   26.3103 H   0  0  0  0  0  0  0  0  0  0  0  0
    5.4857   -3.3656   25.7073 H   0  0  0  0  0  0  0  0  0  0  0  0
    7.7725   -3.4325   24.8884 H   0  0  0  0  0  0  0  0  0  0  0  0
    7.5279   -5.0152   24.1432 H   0  0  0  0  0  0  0  0  0  0  0  0
    6.5766   -1.7869   21.6141 N   0  0  0  0  0  0  0  0  0  0  0  0
    7.2629   -0.8177   21.0294 C   0  0  0  0  0  0  0  0  0  0  0  0
    6.5501   -0.0853   19.9735 C   0  0  0  0  0  0  0  0  0  0  0  0
    5.3415    0.5917   20.1850 C   0  0  0  0  0  0  0  0  0  0  0  0
    4.7952    1.2937   19.1105 C   0  0  0  0  0  0  0  0  0  0  0  0
    5.4477    1.2663   17.8720 C   0  0  0  0  0  0  0  0  0  0  0  0
    6.5845    0.5890   17.6527 N   0  0  0  0  0  0  0  0  0  0  0  0
    7.1084   -0.0645   18.6949 C   0  0  0  0  0  0  0  0  0  0  0  0
    8.0404   -0.5947   18.4970 H   0  0  0  0  0  0  0  0  0  0  0  0
    5.0373    1.8051   17.0189 H   0  0  0  0  0  0  0  0  0  0  0  0
    3.8812    1.8673   19.2212 H   0  0  0  0  0  0  0  0  0  0  0  0
    4.8554    0.5776   21.1632 H   0  0  0  0  0  0  0  0  0  0  0  0
   10.1145   -1.0652   22.7743 H   0  0  0  0  0  0  0  0  0  0  0  0
   10.2646    0.8847   21.3560 H   0  0  0  0  0  0  0  0  0  0  0  0
    9.6593    0.3941   19.7525 H   0  0  0  0  0  0  0  0  0  0  0  0
    8.7470    1.5447   20.6843 H   0  0  0  0  0  0  0  0  0  0  0  0
  1  2  1  0
  2  3  2  0
  3  4  1  0
  4  5  2  0
  5  6  1  0
  6  7  1  0
  7  8  1  0
  8  9  1  0
  9 10  1  0
 10 11  1  0
 11 12  1  0
 12 13  1  0
 12 14  1  0
 12 15  1  0
 11 16  1  0
 11 17  1  0
 10 18  1  0
 18 19  1  0
 18 20  1  0
 10 21  1  0
  9 22  1  0
  9 23  1  0
  8 24  1  0
  8 25  1  0
  7 26  1  0
  7 27  1  0
  5 28  1  0
 28 29  2  0
 29 30  1  0
 30 31  2  0
 31 32  1  0
 32 33  2  0
 33 34  1  0
 34 35  2  0
 35 36  1  0
 33 37  1  0
 32 38  1  0
 31 39  1  0
  3 40  1  0
  1 41  1  0
  1 42  1  0
  1 43  1  0
 29  2  1  0
 35 30  1  0
 18  6  1  0
M  END
>  <cnnaffinity>  (1) 
-5.77812

>  <filename>  (1) 
Cc1cnc(N2CCCC(CC(F)(F)F)C2)nc1-c1cccnc1

$$$$
