
     RDKit          3D

 34 37  0  0  0  0  0  0  0  0999 V2000
    4.9884    1.8632   16.8863 H   0  0  0  0  0  0  0  0  0  0  0  0
    5.4194    1.3041   17.7160 C   0  0  0  0  0  0  0  0  0  0  0  0
    6.5622    0.6458   17.4684 N   0  0  0  0  0  0  0  0  0  0  0  0
    7.1358   -0.0075   18.4847 C   0  0  0  0  0  0  0  0  0  0  0  0
    8.0663   -0.5215   18.2524 H   0  0  0  0  0  0  0  0  0  0  0  0
    6.6091   -0.0428   19.7898 C   0  0  0  0  0  0  0  0  0  0  0  0
    7.3702   -0.6502   20.8988 C   0  0  0  0  0  0  0  0  0  0  0  0
    8.5058   -1.3320   20.6781 N   0  0  0  0  0  0  0  0  0  0  0  0
    8.9452   -1.5941   21.9265 N   0  0  0  0  0  0  0  0  0  0  0  0
   10.0596   -2.2165   22.4660 C   0  0  0  0  0  0  0  0  0  0  0  0
   10.7958   -2.6797   21.8307 H   0  0  0  0  0  0  0  0  0  0  0  0
    9.9451   -2.0812   23.8100 C   0  0  0  0  0  0  0  0  0  0  0  0
   10.5735   -2.4529   24.6034 H   0  0  0  0  0  0  0  0  0  0  0  0
    8.7753   -1.3708   24.1134 N   0  0  0  0  0  0  0  0  0  0  0  0
    8.2821   -0.9691   25.3830 C   0  0  0  0  0  0  0  0  0  0  0  0
    9.1451   -0.5694   26.4189 C   0  0  0  0  0  0  0  0  0  0  0  0
   10.2243   -0.5185   26.2986 H   0  0  0  0  0  0  0  0  0  0  0  0
    8.5771   -0.1970   27.6358 C   0  0  0  0  0  0  0  0  0  0  0  0
    9.2076    0.0802   28.4782 H   0  0  0  0  0  0  0  0  0  0  0  0
    7.2577   -0.1520   27.8731 N   0  0  0  0  0  0  0  0  0  0  0  0
    6.4347   -0.4826   26.8710 C   0  0  0  0  0  0  0  0  0  0  0  0
    4.9616   -0.3281   27.1355 C   0  0  0  0  0  0  0  0  0  0  0  0
    4.4513    0.1287   26.2811 H   0  0  0  0  0  0  0  0  0  0  0  0
    4.7966    0.2966   28.0166 H   0  0  0  0  0  0  0  0  0  0  0  0
    4.4970   -1.3013   27.3184 H   0  0  0  0  0  0  0  0  0  0  0  0
    6.9030   -0.9362   25.6320 C   0  0  0  0  0  0  0  0  0  0  0  0
    6.2074   -1.2508   24.8584 H   0  0  0  0  0  0  0  0  0  0  0  0
    8.1561   -1.0998   22.8990 C   0  0  0  0  0  0  0  0  0  0  0  0
    7.0772   -0.4996   22.2754 C   0  0  0  0  0  0  0  0  0  0  0  0
    6.2060   -0.0382   22.7032 H   0  0  0  0  0  0  0  0  0  0  0  0
    5.3889    0.6161   20.0166 C   0  0  0  0  0  0  0  0  0  0  0  0
    4.9224    0.6064   21.0031 H   0  0  0  0  0  0  0  0  0  0  0  0
    4.7905    1.3031   18.9653 C   0  0  0  0  0  0  0  0  0  0  0  0
    3.8727    1.8611   19.1129 H   0  0  0  0  0  0  0  0  0  0  0  0
  1  2  1  0
  2  3  2  0
  3  4  1  0
  4  5  1  0
  4  6  2  0
  6  7  1  0
  7  8  2  0
  8  9  1  0
  9 10  1  0
 10 11  1  0
 10 12  2  0
 12 13  1  0
 12 14  1  0
 14 15  1  0
 15 16  2  0
 16 17  1  0
 16 18  1  0
 18 19  1  0
 18 20  2  0
 20 21  1  0
 21 22  1  0
 22 23  1  0
 22 24  1  0
 22 25  1  0
 21 26  2  0
 26 27  1  0
 14 28  1  0
 28 29  2  0
 29 30  1  0
  6 31  1  0
 31 32  1  0
 31 33  2  0
 33 34  1  0
 33  2  1  0
 29  7  1  0
 28  9  1  0
 26 15  1  0
M  END
>  <cnnaffinity>  (1) 
-5.46769

>  <filename>  (1) 
Cc1cc(-n2ccn3nc(-c4cccnc4)cc23)ccn1

$$$$
