
     RDKit          3D

 33 35  0  0  0  0  0  0  0  0999 V2000
    4.9260    1.8191   16.9620 H   0  0  0  0  0  0  0  0  0  0  0  0
    5.3901    1.3099   17.8012 C   0  0  0  0  0  0  0  0  0  0  0  0
    6.5497    0.6832   17.5451 N   0  0  0  0  0  0  0  0  0  0  0  0
    7.1521    0.0717   18.5743 C   0  0  0  0  0  0  0  0  0  0  0  0
    8.0963   -0.4228   18.3465 H   0  0  0  0  0  0  0  0  0  0  0  0
    6.6371    0.0120   19.8858 C   0  0  0  0  0  0  0  0  0  0  0  0
    7.3723   -0.7141   20.9700 C   0  0  0  0  0  0  0  0  0  0  0  0
    8.7823   -0.5546   21.1173 C   0  0  0  0  0  0  0  0  0  0  0  0
    9.3125    0.1085   20.4296 H   0  0  0  0  0  0  0  0  0  0  0  0
    9.4729   -1.1997   22.1226 C   0  0  0  0  0  0  0  0  0  0  0  0
   10.9066   -1.0619   22.3031 C   0  0  0  0  0  0  0  0  0  0  0  0
   11.6141   -2.1884   22.1471 N   0  0  0  0  0  0  0  0  0  0  0  0
   12.9435   -2.0864   22.1644 C   0  0  0  0  0  0  0  0  0  0  0  0
   13.5230   -2.9935   22.0521 H   0  0  0  0  0  0  0  0  0  0  0  0
   13.6313   -0.9037   22.4223 C   0  0  0  0  0  0  0  0  0  0  0  0
   14.7108   -0.9309   22.5005 H   0  0  0  0  0  0  0  0  0  0  0  0
   12.8923    0.2644   22.5965 C   0  0  0  0  0  0  0  0  0  0  0  0
   13.3827    1.2182   22.7901 H   0  0  0  0  0  0  0  0  0  0  0  0
   11.4984    0.2152   22.5209 C   0  0  0  0  0  0  0  0  0  0  0  0
   10.6982    1.4958   22.6526 C   0  0  0  0  0  0  0  0  0  0  0  0
    9.7443    1.3338   23.1693 H   0  0  0  0  0  0  0  0  0  0  0  0
   11.2641    2.2573   23.2001 H   0  0  0  0  0  0  0  0  0  0  0  0
   10.4720    1.9063   21.6595 H   0  0  0  0  0  0  0  0  0  0  0  0
    8.8066   -2.1029   23.0384 C   0  0  0  0  0  0  0  0  0  0  0  0
    9.2372   -2.7395   23.9804 O   0  0  0  0  0  0  0  0  0  0  0  0
    7.4298   -2.2159   22.8022 N   0  0  0  0  0  0  0  0  0  0  0  0
    7.0464   -2.7907   23.5379 H   0  0  0  0  0  0  0  0  0  0  0  0
    6.7190   -1.5467   21.8450 C   0  0  0  0  0  0  0  0  0  0  0  0
    5.6414   -1.7132   21.7926 H   0  0  0  0  0  0  0  0  0  0  0  0
    5.4161    0.6701   20.1186 C   0  0  0  0  0  0  0  0  0  0  0  0
    4.9841    0.6823   21.1219 H   0  0  0  0  0  0  0  0  0  0  0  0
    4.7840    1.3319   19.0624 C   0  0  0  0  0  0  0  0  0  0  0  0
    3.8497    1.8661   19.2093 H   0  0  0  0  0  0  0  0  0  0  0  0
  1  2  1  0
  2  3  2  0
  3  4  1  0
  4  5  1  0
  4  6  2  0
  6  7  1  0
  7  8  1  0
  8  9  1  0
  8 10  2  0
 10 11  1  0
 11 12  2  0
 12 13  1  0
 13 14  1  0
 13 15  2  0
 15 16  1  0
 15 17  1  0
 17 18  1  0
 17 19  2  0
 19 20  1  0
 20 21  1  0
 20 22  1  0
 20 23  1  0
 10 24  1  0
 24 25  2  0
 24 26  1  0
 26 27  1  0
 26 28  1  0
 28 29  1  0
  6 30  1  0
 30 31  1  0
 30 32  2  0
 32 33  1  0
 32  2  1  0
 28  7  2  0
 19 11  1  0
M  END
>  <cnnaffinity>  (1) 
-5.79872

>  <filename>  (1) 
Cc1cccnc1-c1cc(-c2cccnc2)c[nH]c1=O

$$$$
