
     RDKit          3D

 37 39  0  0  0  0  0  0  0  0999 V2000
    4.1933   -0.8244   25.7421 C   0  0  0  0  0  0  0  0  0  0  0  0
    5.6426   -1.0830   25.4014 C   0  0  0  0  0  0  0  0  0  0  0  0
    6.3803   -1.9080   26.2858 C   0  0  0  0  0  0  0  0  0  0  0  0
    7.6740   -2.1591   26.1594 N   0  0  0  0  0  0  0  0  0  0  0  0
    8.3597   -1.6240   25.1432 N   0  0  0  0  0  0  0  0  0  0  0  0
    7.7401   -0.8726   24.2101 C   0  0  0  0  0  0  0  0  0  0  0  0
    8.5276   -0.3970   23.1920 N   0  0  0  0  0  0  0  0  0  0  0  0
    9.9892   -0.5065   23.2409 C   0  0  0  0  0  0  0  0  0  0  0  0
   10.4604    0.0831   21.9114 C   0  0  0  0  0  0  0  0  0  0  0  0
    9.2867    0.9399   21.4307 C   0  0  0  0  0  0  0  0  0  0  0  0
    8.0288    0.2591   21.9930 C   0  0  0  0  0  0  0  0  0  0  0  0
    7.3582   -0.7239   20.9979 C   0  0  0  0  0  0  0  0  0  0  0  0
    6.6340   -0.0307   19.8586 C   0  0  0  0  0  0  0  0  0  0  0  0
    5.4192    0.6366   20.0976 C   0  0  0  0  0  0  0  0  0  0  0  0
    4.7938    1.3111   19.0517 C   0  0  0  0  0  0  0  0  0  0  0  0
    5.3996    1.3079   17.7927 C   0  0  0  0  0  0  0  0  0  0  0  0
    6.5503    0.6718   17.5296 N   0  0  0  0  0  0  0  0  0  0  0  0
    7.1431    0.0269   18.5452 C   0  0  0  0  0  0  0  0  0  0  0  0
    8.0885   -0.4640   18.2996 H   0  0  0  0  0  0  0  0  0  0  0  0
    4.9419    1.8429   16.9648 H   0  0  0  0  0  0  0  0  0  0  0  0
    3.8687    1.8567   19.2019 H   0  0  0  0  0  0  0  0  0  0  0  0
    4.9804    0.6453   21.0989 H   0  0  0  0  0  0  0  0  0  0  0  0
    8.1289   -1.4137   20.6256 H   0  0  0  0  0  0  0  0  0  0  0  0
    6.6491   -1.3424   21.5604 H   0  0  0  0  0  0  0  0  0  0  0  0
    7.3013    1.0312   22.2781 H   0  0  0  0  0  0  0  0  0  0  0  0
    9.2401    1.0118   20.3399 H   0  0  0  0  0  0  0  0  0  0  0  0
    9.3576    1.9525   21.8394 H   0  0  0  0  0  0  0  0  0  0  0  0
   10.6674   -0.7270   21.2052 H   0  0  0  0  0  0  0  0  0  0  0  0
   11.3780    0.6678   22.0313 H   0  0  0  0  0  0  0  0  0  0  0  0
   10.3878    0.0388   24.1080 H   0  0  0  0  0  0  0  0  0  0  0  0
   10.2841   -1.5554   23.3673 H   0  0  0  0  0  0  0  0  0  0  0  0
    6.3402   -0.5863   24.3090 C   0  0  0  0  0  0  0  0  0  0  0  0
    5.8723   -0.0141   23.5086 H   0  0  0  0  0  0  0  0  0  0  0  0
    5.8750   -2.3840   27.1194 H   0  0  0  0  0  0  0  0  0  0  0  0
    3.7846   -1.6907   26.2756 H   0  0  0  0  0  0  0  0  0  0  0  0
    3.5654   -0.6580   24.8689 H   0  0  0  0  0  0  0  0  0  0  0  0
    4.0894    0.0491   26.3972 H   0  0  0  0  0  0  0  0  0  0  0  0
  1  2  1  0
  2  3  2  0
  3  4  1  0
  4  5  2  0
  5  6  1  0
  6  7  1  0
  7  8  1  0
  8  9  1  0
  9 10  1  0
 10 11  1  0
 11 12  1  0
 12 13  1  0
 13 14  2  0
 14 15  1  0
 15 16  2  0
 16 17  1  0
 17 18  2  0
 18 19  1  0
 16 20  1  0
 15 21  1  0
 14 22  1  0
 12 23  1  0
 12 24  1  0
 11 25  1  0
 10 26  1  0
 10 27  1  0
  9 28  1  0
  9 29  1  0
  8 30  1  0
  8 31  1  0
  6 32  2  0
 32 33  1  0
  3 34  1  0
  1 35  1  0
  1 36  1  0
  1 37  1  0
 32  2  1  0
 11  7  1  0
 18 13  1  0
M  END
>  <cnnaffinity>  (1) 
-5.1483

>  <filename>  (1) 
Cc1cnnc(N2CCCC2Cc2cccnc2)c1

$$$$
