
     RDKit          3D

 33 35  0  0  0  0  0  0  0  0999 V2000
    4.9276    1.8193   16.9956 H   0  0  0  0  0  0  0  0  0  0  0  0
    5.3937    1.2985   17.8288 C   0  0  0  0  0  0  0  0  0  0  0  0
    6.5547    0.6794   17.5593 N   0  0  0  0  0  0  0  0  0  0  0  0
    7.1645    0.0447   18.5698 C   0  0  0  0  0  0  0  0  0  0  0  0
    8.1176   -0.4301   18.3426 H   0  0  0  0  0  0  0  0  0  0  0  0
    6.6551   -0.0354   19.8926 C   0  0  0  0  0  0  0  0  0  0  0  0
    7.3230   -0.7333   20.9099 N   0  0  0  0  0  0  0  0  0  0  0  0
    6.7883   -1.0918   21.6960 H   0  0  0  0  0  0  0  0  0  0  0  0
    8.7085   -0.7317   21.1118 C   0  0  0  0  0  0  0  0  0  0  0  0
    9.6959    0.1829   20.6689 C   0  0  0  0  0  0  0  0  0  0  0  0
    9.5580    1.0472   20.0323 H   0  0  0  0  0  0  0  0  0  0  0  0
   10.9066   -0.1517   21.1074 N   0  0  0  0  0  0  0  0  0  0  0  0
   10.7047   -1.2696   21.8283 N   0  0  0  0  0  0  0  0  0  0  0  0
   11.5051   -1.7357   22.2388 H   0  0  0  0  0  0  0  0  0  0  0  0
    9.3959   -1.6572   21.8816 C   0  0  0  0  0  0  0  0  0  0  0  0
    8.8592   -2.8300   22.6103 C   0  0  0  0  0  0  0  0  0  0  0  0
    8.0450   -3.7404   21.9103 C   0  0  0  0  0  0  0  0  0  0  0  0
    7.7992   -3.4917   20.8801 H   0  0  0  0  0  0  0  0  0  0  0  0
    7.5603   -4.8996   22.5264 C   0  0  0  0  0  0  0  0  0  0  0  0
    6.9158   -5.5850   21.9810 H   0  0  0  0  0  0  0  0  0  0  0  0
    7.8851   -5.1561   23.8649 C   0  0  0  0  0  0  0  0  0  0  0  0
    7.5154   -6.0448   24.3759 H   0  0  0  0  0  0  0  0  0  0  0  0
    8.6665   -4.2368   24.5674 C   0  0  0  0  0  0  0  0  0  0  0  0
    8.9436   -4.4219   25.6029 H   0  0  0  0  0  0  0  0  0  0  0  0
    9.1284   -3.0535   23.9783 C   0  0  0  0  0  0  0  0  0  0  0  0
    9.9224   -2.1117   24.8399 C   0  0  0  0  0  0  0  0  0  0  0  0
    9.6002   -2.1849   25.8822 H   0  0  0  0  0  0  0  0  0  0  0  0
   10.9669   -2.4196   24.7799 H   0  0  0  0  0  0  0  0  0  0  0  0
    9.8498   -1.0645   24.5382 H   0  0  0  0  0  0  0  0  0  0  0  0
    5.4408    0.6179   20.1455 C   0  0  0  0  0  0  0  0  0  0  0  0
    5.0352    0.6068   21.1575 H   0  0  0  0  0  0  0  0  0  0  0  0
    4.8032    1.2965   19.0996 C   0  0  0  0  0  0  0  0  0  0  0  0
    3.8734    1.8374   19.2590 H   0  0  0  0  0  0  0  0  0  0  0  0
  1  2  1  0
  2  3  2  0
  3  4  1  0
  4  5  1  0
  4  6  2  0
  6  7  1  0
  7  8  1  0
  7  9  1  0
  9 10  1  0
 10 11  1  0
 10 12  2  0
 12 13  1  0
 13 14  1  0
 13 15  1  0
 15 16  1  0
 16 17  2  0
 17 18  1  0
 17 19  1  0
 19 20  1  0
 19 21  2  0
 21 22  1  0
 21 23  1  0
 23 24  1  0
 23 25  2  0
 25 26  1  0
 26 27  1  0
 26 28  1  0
 26 29  1  0
  6 30  1  0
 30 31  1  0
 30 32  2  0
 32 33  1  0
 32  2  1  0
 15  9  2  0
 25 16  1  0
M  END
>  <cnnaffinity>  (1) 
-5.47674

>  <filename>  (1) 
Cc1ccccc1-c1[nH]ncc1Nc1cccnc1

$$$$
