
     RDKit          3D

 32 34  0  0  0  0  0  0  0  0999 V2000
    4.9371    1.7955   16.9873 H   0  0  0  0  0  0  0  0  0  0  0  0
    5.3940    1.2937   17.8379 C   0  0  0  0  0  0  0  0  0  0  0  0
    6.5474    0.6625   17.5879 N   0  0  0  0  0  0  0  0  0  0  0  0
    7.1437    0.0366   18.6081 C   0  0  0  0  0  0  0  0  0  0  0  0
    8.1095   -0.4170   18.3911 H   0  0  0  0  0  0  0  0  0  0  0  0
    6.6144   -0.0195   19.9084 C   0  0  0  0  0  0  0  0  0  0  0  0
    7.3150   -0.7439   20.9880 C   0  0  0  0  0  0  0  0  0  0  0  0
    6.5939   -1.5132   21.7816 N   0  0  0  0  0  0  0  0  0  0  0  0
    7.1867   -2.2226   22.8144 C   0  0  0  0  0  0  0  0  0  0  0  0
    6.3135   -3.1185   23.6819 C   0  0  0  0  0  0  0  0  0  0  0  0
    6.9045   -3.7474   24.7242 N   0  0  0  0  0  0  0  0  0  0  0  0
    6.1569   -4.5228   25.5213 C   0  0  0  0  0  0  0  0  0  0  0  0
    6.8496   -5.2840   26.6222 C   0  0  0  0  0  0  0  0  0  0  0  0
    6.6814   -6.3642   26.5011 H   0  0  0  0  0  0  0  0  0  0  0  0
    6.4269   -4.9966   27.5939 H   0  0  0  0  0  0  0  0  0  0  0  0
    7.9265   -5.0843   26.6187 H   0  0  0  0  0  0  0  0  0  0  0  0
    4.7643   -4.6466   25.3604 C   0  0  0  0  0  0  0  0  0  0  0  0
    4.2208   -5.2849   26.0506 H   0  0  0  0  0  0  0  0  0  0  0  0
    4.1444   -4.0027   24.2927 C   0  0  0  0  0  0  0  0  0  0  0  0
    3.0623   -4.0495   24.1606 H   0  0  0  0  0  0  0  0  0  0  0  0
    4.9505   -3.2948   23.3966 C   0  0  0  0  0  0  0  0  0  0  0  0
    4.5697   -2.8702   22.4781 H   0  0  0  0  0  0  0  0  0  0  0  0
    8.5373   -2.1346   23.0616 C   0  0  0  0  0  0  0  0  0  0  0  0
    9.0366   -2.6682   23.8628 H   0  0  0  0  0  0  0  0  0  0  0  0
    9.2897   -1.3350   22.2494 N   0  0  0  0  0  0  0  0  0  0  0  0
   10.2855   -1.1591   22.3115 H   0  0  0  0  0  0  0  0  0  0  0  0
    8.8007   -0.5803   21.1920 C   0  0  0  0  0  0  0  0  0  0  0  0
    9.6166    0.1025   20.5920 O   0  0  0  0  0  0  0  0  0  0  0  0
    5.3997    0.6377   20.1525 C   0  0  0  0  0  0  0  0  0  0  0  0
    4.9620    0.6307   21.1533 H   0  0  0  0  0  0  0  0  0  0  0  0
    4.7886    1.3185   19.0995 C   0  0  0  0  0  0  0  0  0  0  0  0
    3.8640    1.8642   19.2361 H   0  0  0  0  0  0  0  0  0  0  0  0
  1  2  1  0
  2  3  2  0
  3  4  1  0
  4  5  1  0
  4  6  2  0
  6  7  1  0
  7  8  2  0
  8  9  1  0
  9 10  1  0
 10 11  2  0
 11 12  1  0
 12 13  1  0
 13 14  1  0
 13 15  1  0
 13 16  1  0
 12 17  2  0
 17 18  1  0
 17 19  1  0
 19 20  1  0
 19 21  2  0
 21 22  1  0
  9 23  2  0
 23 24  1  0
 23 25  1  0
 25 26  1  0
 25 27  1  0
 27 28  2  0
  6 29  1  0
 29 30  1  0
 29 31  2  0
 31 32  1  0
 31  2  1  0
 27  7  1  0
 21 10  1  0
M  END
>  <cnnaffinity>  (1) 
-5.25894

>  <filename>  (1) 
Cc1cccc(-c2c[nH]c(=O)c(-c3cccnc3)n2)n1

$$$$
