
     RDKit          3D

 37 40  0  0  0  0  0  0  0  0999 V2000
    4.9401    1.5982   16.8504 H   0  0  0  0  0  0  0  0  0  0  0  0
    5.4463    1.1580   17.7074 C   0  0  0  0  0  0  0  0  0  0  0  0
    6.6267    0.5651   17.4621 N   0  0  0  0  0  0  0  0  0  0  0  0
    7.2957    0.0480   18.4993 C   0  0  0  0  0  0  0  0  0  0  0  0
    8.2412   -0.4370   18.2561 H   0  0  0  0  0  0  0  0  0  0  0  0
    6.8425    0.1212   19.8337 C   0  0  0  0  0  0  0  0  0  0  0  0
    7.6281   -0.3405   20.9166 N   0  0  0  0  0  0  0  0  0  0  0  0
    8.5377   -1.3930   20.8635 C   0  0  0  0  0  0  0  0  0  0  0  0
    8.6423   -1.9347   19.9437 H   0  0  0  0  0  0  0  0  0  0  0  0
    9.1279   -1.5523   22.0738 C   0  0  0  0  0  0  0  0  0  0  0  0
    9.8453   -2.2448   22.4820 H   0  0  0  0  0  0  0  0  0  0  0  0
    8.6018   -0.5598   22.8783 N   0  0  0  0  0  0  0  0  0  0  0  0
    8.8490   -0.1265   24.1381 N   0  0  0  0  0  0  0  0  0  0  0  0
    8.0307    0.9234   24.2458 C   0  0  0  0  0  0  0  0  0  0  0  0
    8.0855    1.6202   25.4356 N   0  0  0  0  0  0  0  0  0  0  0  0
    8.9148    1.3626   25.9496 H   0  0  0  0  0  0  0  0  0  0  0  0
    7.4311    2.8488   25.6502 C   0  0  0  0  0  0  0  0  0  0  0  0
    6.0351    2.8890   25.5410 C   0  0  0  0  0  0  0  0  0  0  0  0
    5.5186    1.9496   25.3598 H   0  0  0  0  0  0  0  0  0  0  0  0
    5.3450    4.0990   25.6745 C   0  0  0  0  0  0  0  0  0  0  0  0
    4.2636    4.1175   25.5487 H   0  0  0  0  0  0  0  0  0  0  0  0
    6.0242    5.3025   25.9336 C   0  0  0  0  0  0  0  0  0  0  0  0
    5.2478    6.6035   26.0524 C   0  0  0  0  0  0  0  0  0  0  0  0
    4.2258    6.4263   26.4035 H   0  0  0  0  0  0  0  0  0  0  0  0
    5.1528    7.1366   25.0975 H   0  0  0  0  0  0  0  0  0  0  0  0
    5.7046    7.3057   26.7576 H   0  0  0  0  0  0  0  0  0  0  0  0
    7.4244    5.2444   26.0752 C   0  0  0  0  0  0  0  0  0  0  0  0
    7.9758    6.1643   26.2717 H   0  0  0  0  0  0  0  0  0  0  0  0
    8.1227    4.0310   25.9467 C   0  0  0  0  0  0  0  0  0  0  0  0
    9.2028    3.9962   26.0666 H   0  0  0  0  0  0  0  0  0  0  0  0
    7.2565    1.1709   23.0866 C   0  0  0  0  0  0  0  0  0  0  0  0
    6.6057    2.0147   22.9585 H   0  0  0  0  0  0  0  0  0  0  0  0
    7.6880    0.1762   22.2105 C   0  0  0  0  0  0  0  0  0  0  0  0
    5.5824    0.6889   20.0665 C   0  0  0  0  0  0  0  0  0  0  0  0
    5.1842    0.7055   21.0796 H   0  0  0  0  0  0  0  0  0  0  0  0
    4.8781    1.2201   18.9833 C   0  0  0  0  0  0  0  0  0  0  0  0
    3.9086    1.6863   19.1234 H   0  0  0  0  0  0  0  0  0  0  0  0
  1  2  1  0
  2  3  2  0
  3  4  1  0
  4  5  1  0
  4  6  2  0
  6  7  1  0
  7  8  1  0
  8  9  1  0
  8 10  2  0
 10 11  1  0
 10 12  1  0
 12 13  1  0
 13 14  2  0
 14 15  1  0
 15 16  1  0
 15 17  1  0
 17 18  2  0
 18 19  1  0
 18 20  1  0
 20 21  1  0
 20 22  2  0
 22 23  1  0
 23 24  1  0
 23 25  1  0
 23 26  1  0
 22 27  1  0
 27 28  1  0
 27 29  2  0
 29 30  1  0
 14 31  1  0
 31 32  1  0
 31 33  2  0
  6 34  1  0
 34 35  1  0
 34 36  2  0
 36 37  1  0
 36  2  1  0
 33  7  1  0
 33 12  1  0
 29 17  1  0
M  END
>  <cnnaffinity>  (1) 
-5.23624

>  <filename>  (1) 
Cc1ccc(Nc2cc3n(-c4cccnc4)ccn3n2)cc1

$$$$
