
     RDKit          3D

 33 35  0  0  0  0  0  0  0  0999 V2000
    4.9190    1.8178   16.9622 H   0  0  0  0  0  0  0  0  0  0  0  0
    5.3879    1.3099   17.8048 C   0  0  0  0  0  0  0  0  0  0  0  0
    6.5489    0.6874   17.5436 N   0  0  0  0  0  0  0  0  0  0  0  0
    7.1610    0.0760   18.5671 C   0  0  0  0  0  0  0  0  0  0  0  0
    8.1002   -0.4138   18.3210 H   0  0  0  0  0  0  0  0  0  0  0  0
    6.6596    0.0158   19.8822 C   0  0  0  0  0  0  0  0  0  0  0  0
    7.3870   -0.6997   20.9691 C   0  0  0  0  0  0  0  0  0  0  0  0
    6.6926   -1.5594   21.8802 C   0  0  0  0  0  0  0  0  0  0  0  0
    5.6216   -1.6850   21.7316 H   0  0  0  0  0  0  0  0  0  0  0  0
    7.3565   -2.2144   22.8678 C   0  0  0  0  0  0  0  0  0  0  0  0
    6.8847   -2.8625   23.5916 H   0  0  0  0  0  0  0  0  0  0  0  0
    8.7927   -2.0788   23.0611 C   0  0  0  0  0  0  0  0  0  0  0  0
    9.4079   -2.6635   23.9363 O   0  0  0  0  0  0  0  0  0  0  0  0
    9.4316   -1.1997   22.1337 N   0  0  0  0  0  0  0  0  0  0  0  0
   10.8416   -0.9999   22.2296 C   0  0  0  0  0  0  0  0  0  0  0  0
   11.6986   -2.0954   22.1647 C   0  0  0  0  0  0  0  0  0  0  0  0
   11.2870   -3.0899   22.2030 H   0  0  0  0  0  0  0  0  0  0  0  0
   13.0665   -1.8453   22.1419 C   0  0  0  0  0  0  0  0  0  0  0  0
   13.7829   -2.6606   22.0366 H   0  0  0  0  0  0  0  0  0  0  0  0
   13.6032   -0.6273   22.3207 N   0  0  0  0  0  0  0  0  0  0  0  0
   12.7662    0.4079   22.4729 C   0  0  0  0  0  0  0  0  0  0  0  0
   13.3649    1.7621   22.6987 C   0  0  0  0  0  0  0  0  0  0  0  0
   13.0278    2.4245   21.8933 H   0  0  0  0  0  0  0  0  0  0  0  0
   13.0263    2.2009   23.6448 H   0  0  0  0  0  0  0  0  0  0  0  0
   14.4558    1.6981   22.6957 H   0  0  0  0  0  0  0  0  0  0  0  0
   11.3723    0.2733   22.3795 C   0  0  0  0  0  0  0  0  0  0  0  0
   10.7209    1.1410   22.4301 H   0  0  0  0  0  0  0  0  0  0  0  0
    8.7329   -0.5567   21.1342 C   0  0  0  0  0  0  0  0  0  0  0  0
    9.3313    0.0792   20.4885 H   0  0  0  0  0  0  0  0  0  0  0  0
    5.4361    0.6641   20.1222 C   0  0  0  0  0  0  0  0  0  0  0  0
    5.0140    0.6581   21.1288 H   0  0  0  0  0  0  0  0  0  0  0  0
    4.7926    1.3258   19.0728 C   0  0  0  0  0  0  0  0  0  0  0  0
    3.8556    1.8557   19.2223 H   0  0  0  0  0  0  0  0  0  0  0  0
  1  2  1  0
  2  3  2  0
  3  4  1  0
  4  5  1  0
  4  6  2  0
  6  7  1  0
  7  8  1  0
  8  9  1  0
  8 10  2  0
 10 11  1  0
 10 12  1  0
 12 13  2  0
 12 14  1  0
 14 15  1  0
 15 16  2  0
 16 17  1  0
 16 18  1  0
 18 19  1  0
 18 20  2  0
 20 21  1  0
 21 22  1  0
 22 23  1  0
 22 24  1  0
 22 25  1  0
 21 26  2  0
 26 27  1  0
 14 28  1  0
 28 29  1  0
  6 30  1  0
 30 31  1  0
 30 32  2  0
 32 33  1  0
 32  2  1  0
 28  7  2  0
 26 15  1  0
M  END
>  <cnnaffinity>  (1) 
-5.73905

>  <filename>  (1) 
Cc1cc(-n2cc(-c3cccnc3)ccc2=O)ccn1

$$$$
