
     RDKit          3D

 32 34  0  0  0  0  0  0  0  0999 V2000
    4.9205    1.7972   16.9750 H   0  0  0  0  0  0  0  0  0  0  0  0
    5.3928    1.2989   17.8193 C   0  0  0  0  0  0  0  0  0  0  0  0
    6.5566    0.6789   17.5640 N   0  0  0  0  0  0  0  0  0  0  0  0
    7.1617    0.0562   18.5840 C   0  0  0  0  0  0  0  0  0  0  0  0
    8.1203   -0.4035   18.3426 H   0  0  0  0  0  0  0  0  0  0  0  0
    6.6464    0.0056   19.8942 C   0  0  0  0  0  0  0  0  0  0  0  0
    7.3346   -0.6546   21.0075 C   0  0  0  0  0  0  0  0  0  0  0  0
    7.2398   -0.4375   22.3358 C   0  0  0  0  0  0  0  0  0  0  0  0
    6.6472    0.2935   22.8625 H   0  0  0  0  0  0  0  0  0  0  0  0
    8.0915   -1.3168   22.9958 N   0  0  0  0  0  0  0  0  0  0  0  0
    8.2710   -1.3953   24.4003 C   0  0  0  0  0  0  0  0  0  0  0  0
    8.2520   -0.2170   25.1574 C   0  0  0  0  0  0  0  0  0  0  0  0
    8.1055    0.7438   24.6728 H   0  0  0  0  0  0  0  0  0  0  0  0
    8.4453   -0.2902   26.5341 C   0  0  0  0  0  0  0  0  0  0  0  0
    8.4403    0.6119   27.1396 H   0  0  0  0  0  0  0  0  0  0  0  0
    8.6488   -1.5294   27.1443 C   0  0  0  0  0  0  0  0  0  0  0  0
    8.8292   -1.5658   28.2084 H   0  0  0  0  0  0  0  0  0  0  0  0
    8.6464   -2.7174   26.3990 C   0  0  0  0  0  0  0  0  0  0  0  0
    8.8909   -4.0530   27.0622 C   0  0  0  0  0  0  0  0  0  0  0  0
    8.5392   -4.0653   28.0975 H   0  0  0  0  0  0  0  0  0  0  0  0
    8.3772   -4.8655   26.5376 H   0  0  0  0  0  0  0  0  0  0  0  0
    9.9596   -4.3019   27.0815 H   0  0  0  0  0  0  0  0  0  0  0  0
    8.4577   -2.6374   25.0142 C   0  0  0  0  0  0  0  0  0  0  0  0
    8.4826   -3.5268   24.3924 H   0  0  0  0  0  0  0  0  0  0  0  0
    8.7328   -2.1209   22.0506 C   0  0  0  0  0  0  0  0  0  0  0  0
    9.5206   -3.0321   22.1840 O   0  0  0  0  0  0  0  0  0  0  0  0
    8.2642   -1.6638   20.8459 N   0  0  0  0  0  0  0  0  0  0  0  0
    8.5451   -2.1516   20.0178 H   0  0  0  0  0  0  0  0  0  0  0  0
    5.4275    0.6602   20.1346 C   0  0  0  0  0  0  0  0  0  0  0  0
    4.9920    0.6400   21.1364 H   0  0  0  0  0  0  0  0  0  0  0  0
    4.7952    1.3190   19.0836 C   0  0  0  0  0  0  0  0  0  0  0  0
    3.8646    1.8512   19.2371 H   0  0  0  0  0  0  0  0  0  0  0  0
  1  2  1  0
  2  3  2  0
  3  4  1  0
  4  5  1  0
  4  6  2  0
  6  7  1  0
  7  8  2  0
  8  9  1  0
  8 10  1  0
 10 11  1  0
 11 12  2  0
 12 13  1  0
 12 14  1  0
 14 15  1  0
 14 16  2  0
 16 17  1  0
 16 18  1  0
 18 19  1  0
 19 20  1  0
 19 21  1  0
 19 22  1  0
 18 23  2  0
 23 24  1  0
 10 25  1  0
 25 26  2  0
 25 27  1  0
 27 28  1  0
  6 29  1  0
 29 30  1  0
 29 31  2  0
 31 32  1  0
 31  2  1  0
 27  7  1  0
 23 11  1  0
M  END
>  <cnnaffinity>  (1) 
-5.21627

>  <filename>  (1) 
Cc1cccc(-n2cc(-c3cccnc3)[nH]c2=O)c1

$$$$
