
     RDKit          3D

 33 35  0  0  0  0  0  0  0  0999 V2000
    4.9300    1.8630   16.5226 H   0  0  0  0  0  0  0  0  0  0  0  0
    5.3159    1.4254   17.4398 C   0  0  0  0  0  0  0  0  0  0  0  0
    6.4886    0.7826   17.3301 N   0  0  0  0  0  0  0  0  0  0  0  0
    7.0118    0.2719   18.4471 C   0  0  0  0  0  0  0  0  0  0  0  0
    7.9612   -0.2412   18.3120 H   0  0  0  0  0  0  0  0  0  0  0  0
    6.4291    0.3634   19.7233 C   0  0  0  0  0  0  0  0  0  0  0  0
    7.1732   -0.1564   20.8867 C   0  0  0  0  0  0  0  0  0  0  0  0
    6.6404    0.1139   22.5136 S   0  0  0  0  0  0  0  0  0  0  0  0
    7.9697   -0.7641   23.1524 C   0  0  0  0  0  0  0  0  0  0  0  0
    8.0906   -0.9284   24.2111 H   0  0  0  0  0  0  0  0  0  0  0  0
    8.7830   -1.2534   22.1699 C   0  0  0  0  0  0  0  0  0  0  0  0
    9.8831   -2.0856   22.3827 N   0  0  0  0  0  0  0  0  0  0  0  0
   10.6146   -2.0522   21.6897 H   0  0  0  0  0  0  0  0  0  0  0  0
    9.8374   -3.2274   23.1981 C   0  0  0  0  0  0  0  0  0  0  0  0
    8.6437   -3.9362   23.4132 C   0  0  0  0  0  0  0  0  0  0  0  0
    7.7585   -3.6908   22.8326 H   0  0  0  0  0  0  0  0  0  0  0  0
    8.6066   -4.9523   24.3691 C   0  0  0  0  0  0  0  0  0  0  0  0
    7.6714   -5.4560   24.6036 H   0  0  0  0  0  0  0  0  0  0  0  0
    9.7508   -5.3128   25.0915 C   0  0  0  0  0  0  0  0  0  0  0  0
    9.6764   -6.2915   26.2284 C   0  0  0  0  0  0  0  0  0  0  0  0
    8.8345   -6.9840   26.1201 H   0  0  0  0  0  0  0  0  0  0  0  0
    9.5473   -5.7695   27.1862 H   0  0  0  0  0  0  0  0  0  0  0  0
   10.6029   -6.8721   26.2982 H   0  0  0  0  0  0  0  0  0  0  0  0
   10.9773   -4.7337   24.7235 C   0  0  0  0  0  0  0  0  0  0  0  0
   11.8957   -5.0974   25.1803 H   0  0  0  0  0  0  0  0  0  0  0  0
   11.0181   -3.6980   23.7850 C   0  0  0  0  0  0  0  0  0  0  0  0
   11.9450   -3.2584   23.4436 H   0  0  0  0  0  0  0  0  0  0  0  0
    8.3472   -0.8572   20.8758 C   0  0  0  0  0  0  0  0  0  0  0  0
    8.8993   -1.1075   19.9793 H   0  0  0  0  0  0  0  0  0  0  0  0
    5.1682    0.9913   19.8055 C   0  0  0  0  0  0  0  0  0  0  0  0
    4.6365    1.0622   20.7538 H   0  0  0  0  0  0  0  0  0  0  0  0
    4.6142    1.5330   18.6445 C   0  0  0  0  0  0  0  0  0  0  0  0
    3.6654    2.0581   18.6589 H   0  0  0  0  0  0  0  0  0  0  0  0
  1  2  1  0
  2  3  2  0
  3  4  1  0
  4  5  1  0
  4  6  2  0
  6  7  1  0
  7  8  1  0
  8  9  1  0
  9 10  1  0
  9 11  2  0
 11 12  1  0
 12 13  1  0
 12 14  1  0
 14 15  2  0
 15 16  1  0
 15 17  1  0
 17 18  1  0
 17 19  2  0
 19 20  1  0
 20 21  1  0
 20 22  1  0
 20 23  1  0
 19 24  1  0
 24 25  1  0
 24 26  2  0
 26 27  1  0
 11 28  1  0
 28 29  1  0
  6 30  1  0
 30 31  1  0
 30 32  2  0
 32 33  1  0
 32  2  1  0
 28  7  2  0
 26 14  1  0
M  END
>  <cnnaffinity>  (1) 
-5.39004

>  <filename>  (1) 
Cc1ccc(Nc2csc(-c3cccnc3)c2)cc1

$$$$
