
     RDKit          3D

 32 34  0  0  0  0  0  0  0  0999 V2000
    4.8694    1.8090   16.9534 H   0  0  0  0  0  0  0  0  0  0  0  0
    5.4003    1.3200   17.7657 C   0  0  0  0  0  0  0  0  0  0  0  0
    6.5632    0.7354   17.4397 N   0  0  0  0  0  0  0  0  0  0  0  0
    7.2476    0.1237   18.4195 C   0  0  0  0  0  0  0  0  0  0  0  0
    8.1555   -0.3953   18.1159 H   0  0  0  0  0  0  0  0  0  0  0  0
    6.8240    0.0811   19.7727 C   0  0  0  0  0  0  0  0  0  0  0  0
    7.5379   -0.5348   20.8200 N   0  0  0  0  0  0  0  0  0  0  0  0
    7.1473   -1.3752   21.2464 H   0  0  0  0  0  0  0  0  0  0  0  0
    8.8985   -0.4124   21.0950 C   0  0  0  0  0  0  0  0  0  0  0  0
    9.8040    0.6588   20.9048 C   0  0  0  0  0  0  0  0  0  0  0  0
    9.5721    1.6610   20.5832 H   0  0  0  0  0  0  0  0  0  0  0  0
   11.0389    0.3186   21.2615 N   0  0  0  0  0  0  0  0  0  0  0  0
   10.9333   -0.9277   21.7449 N   0  0  0  0  0  0  0  0  0  0  0  0
   11.7948   -1.4357   21.9137 H   0  0  0  0  0  0  0  0  0  0  0  0
    9.6453   -1.4001   21.7202 C   0  0  0  0  0  0  0  0  0  0  0  0
    9.1130   -2.5400   22.4698 C   0  0  0  0  0  0  0  0  0  0  0  0
    7.8524   -2.9140   22.1501 N   0  0  0  0  0  0  0  0  0  0  0  0
    7.3205   -3.9596   22.7658 C   0  0  0  0  0  0  0  0  0  0  0  0
    6.2938   -4.2132   22.5082 H   0  0  0  0  0  0  0  0  0  0  0  0
    7.9878   -4.7173   23.7322 C   0  0  0  0  0  0  0  0  0  0  0  0
    7.4038   -5.9942   24.2175 C   0  0  0  0  0  0  0  0  0  0  0  0
    7.6751   -6.7750   23.4946 H   0  0  0  0  0  0  0  0  0  0  0  0
    6.3115   -5.9612   24.2842 H   0  0  0  0  0  0  0  0  0  0  0  0
    7.7928   -6.2760   25.1998 H   0  0  0  0  0  0  0  0  0  0  0  0
    9.2547   -4.2857   24.1260 C   0  0  0  0  0  0  0  0  0  0  0  0
    9.7800   -4.8341   24.9066 H   0  0  0  0  0  0  0  0  0  0  0  0
    9.8231   -3.1815   23.4987 C   0  0  0  0  0  0  0  0  0  0  0  0
   10.7972   -2.8158   23.7982 H   0  0  0  0  0  0  0  0  0  0  0  0
    5.5759    0.6464   20.0752 C   0  0  0  0  0  0  0  0  0  0  0  0
    5.1974    0.5729   21.0961 H   0  0  0  0  0  0  0  0  0  0  0  0
    4.8623    1.2909   19.0588 C   0  0  0  0  0  0  0  0  0  0  0  0
    3.9027    1.7582   19.2534 H   0  0  0  0  0  0  0  0  0  0  0  0
  1  2  1  0
  2  3  2  0
  3  4  1  0
  4  5  1  0
  4  6  2  0
  6  7  1  0
  7  8  1  0
  7  9  1  0
  9 10  1  0
 10 11  1  0
 10 12  2  0
 12 13  1  0
 13 14  1  0
 13 15  1  0
 15 16  1  0
 16 17  2  0
 17 18  1  0
 18 19  1  0
 18 20  2  0
 20 21  1  0
 21 22  1  0
 21 23  1  0
 21 24  1  0
 20 25  1  0
 25 26  1  0
 25 27  2  0
 27 28  1  0
  6 29  1  0
 29 30  1  0
 29 31  2  0
 31 32  1  0
 31  2  1  0
 15  9  2  0
 27 16  1  0
M  END
>  <cnnaffinity>  (1) 
-5.6643

>  <filename>  (1) 
Cc1ccc(-c2[nH]ncc2Nc2cccnc2)nc1

$$$$
