
     RDKit          3D

 37 39  0  0  0  0  0  0  0  0999 V2000
    4.9461    2.1624   16.7369 H   0  0  0  0  0  0  0  0  0  0  0  0
    5.3610    1.5652   17.5465 C   0  0  0  0  0  0  0  0  0  0  0  0
    6.5094    0.9140   17.2925 N   0  0  0  0  0  0  0  0  0  0  0  0
    7.0411    0.1887   18.2858 C   0  0  0  0  0  0  0  0  0  0  0  0
    7.9813   -0.3132   18.0582 H   0  0  0  0  0  0  0  0  0  0  0  0
    6.4668    0.0343   19.5791 C   0  0  0  0  0  0  0  0  0  0  0  0
    7.1030   -0.7890   20.5470 N   0  0  0  0  0  0  0  0  0  0  0  0
    8.4031   -0.3404   21.0756 C   0  0  0  0  0  0  0  0  0  0  0  0
    8.2672    0.4394   21.8434 H   0  0  0  0  0  0  0  0  0  0  0  0
    8.9981    0.1143   20.2800 H   0  0  0  0  0  0  0  0  0  0  0  0
    9.2005   -1.5117   21.6694 C   0  0  0  0  0  0  0  0  0  0  0  0
   10.1014   -1.0927   22.1332 H   0  0  0  0  0  0  0  0  0  0  0  0
    9.5197   -2.1626   20.8397 H   0  0  0  0  0  0  0  0  0  0  0  0
    8.4290   -2.2585   22.6714 N   0  0  0  0  0  0  0  0  0  0  0  0
    9.0468   -2.9897   23.6635 C   0  0  0  0  0  0  0  0  0  0  0  0
    8.2534   -3.4182   24.6616 N   0  0  0  0  0  0  0  0  0  0  0  0
    8.8134   -4.0653   25.6865 C   0  0  0  0  0  0  0  0  0  0  0  0
    7.9067   -4.5032   26.8023 C   0  0  0  0  0  0  0  0  0  0  0  0
    7.8695   -5.5968   26.8489 H   0  0  0  0  0  0  0  0  0  0  0  0
    8.2758   -4.1742   27.7794 H   0  0  0  0  0  0  0  0  0  0  0  0
    6.8973   -4.1197   26.6551 H   0  0  0  0  0  0  0  0  0  0  0  0
   10.1739   -4.3996   25.7371 C   0  0  0  0  0  0  0  0  0  0  0  0
   10.5543   -4.9669   26.5828 H   0  0  0  0  0  0  0  0  0  0  0  0
   10.9741   -4.0167   24.6646 C   0  0  0  0  0  0  0  0  0  0  0  0
   12.0215   -4.2975   24.6189 H   0  0  0  0  0  0  0  0  0  0  0  0
   10.4298   -3.2810   23.6238 C   0  0  0  0  0  0  0  0  0  0  0  0
   11.0286   -3.0023   22.7669 H   0  0  0  0  0  0  0  0  0  0  0  0
    7.0506   -2.5748   22.2616 C   0  0  0  0  0  0  0  0  0  0  0  0
    6.4952   -2.9488   23.1275 H   0  0  0  0  0  0  0  0  0  0  0  0
    7.0496   -3.3681   21.4954 H   0  0  0  0  0  0  0  0  0  0  0  0
    6.3290   -1.3545   21.6615 C   0  0  0  0  0  0  0  0  0  0  0  0
    6.1642   -0.6064   22.4552 H   0  0  0  0  0  0  0  0  0  0  0  0
    5.3450   -1.6802   21.3161 H   0  0  0  0  0  0  0  0  0  0  0  0
    5.2494    0.7120   19.8042 C   0  0  0  0  0  0  0  0  0  0  0  0
    4.7784    0.6527   20.7825 H   0  0  0  0  0  0  0  0  0  0  0  0
    4.7005    1.4897   18.7762 C   0  0  0  0  0  0  0  0  0  0  0  0
    3.7802    2.0453   18.9299 H   0  0  0  0  0  0  0  0  0  0  0  0
  1  2  1  0
  2  3  2  0
  3  4  1  0
  4  5  1  0
  4  6  2  0
  6  7  1  0
  7  8  1  0
  8  9  1  0
  8 10  1  0
  8 11  1  0
 11 12  1  0
 11 13  1  0
 11 14  1  0
 14 15  1  0
 15 16  2  0
 16 17  1  0
 17 18  1  0
 18 19  1  0
 18 20  1  0
 18 21  1  0
 17 22  2  0
 22 23  1  0
 22 24  1  0
 24 25  1  0
 24 26  2  0
 26 27  1  0
 14 28  1  0
 28 29  1  0
 28 30  1  0
 28 31  1  0
 31 32  1  0
 31 33  1  0
  6 34  1  0
 34 35  1  0
 34 36  2  0
 36 37  1  0
 36  2  1  0
 31  7  1  0
 26 15  1  0
M  END
>  <cnnaffinity>  (1) 
-4.89853

>  <filename>  (1) 
Cc1cccc(N2CCN(c3cccnc3)CC2)n1

$$$$
