
     RDKit          3D

 41 44  0  0  0  0  0  0  0  0999 V2000
    5.2776    1.5922   17.0385 H   0  0  0  0  0  0  0  0  0  0  0  0
    5.8429    1.1892   17.8796 C   0  0  0  0  0  0  0  0  0  0  0  0
    7.0234    0.6233   17.5875 N   0  0  0  0  0  0  0  0  0  0  0  0
    7.7375    0.1126   18.5969 C   0  0  0  0  0  0  0  0  0  0  0  0
    8.6989   -0.3184   18.3226 H   0  0  0  0  0  0  0  0  0  0  0  0
    7.3051    0.0964   19.9340 C   0  0  0  0  0  0  0  0  0  0  0  0
    8.0919   -0.6232   20.9525 C   0  0  0  0  0  0  0  0  0  0  0  0
    9.4253   -0.5413   20.9917 N   0  0  0  0  0  0  0  0  0  0  0  0
    9.7458   -1.3381   22.0145 N   0  0  0  0  0  0  0  0  0  0  0  0
    8.7039   -1.9557   22.5881 C   0  0  0  0  0  0  0  0  0  0  0  0
    7.5719   -1.5187   21.9473 C   0  0  0  0  0  0  0  0  0  0  0  0
    6.1753   -2.0557   22.1691 C   0  0  0  0  0  0  0  0  0  0  0  0
    5.4891   -1.3065   21.7692 H   0  0  0  0  0  0  0  0  0  0  0  0
    5.9676   -2.1887   23.2399 H   0  0  0  0  0  0  0  0  0  0  0  0
    5.8736   -3.3102   21.3836 C   0  0  0  0  0  0  0  0  0  0  0  0
    5.7399   -3.1170   20.0081 C   0  0  0  0  0  0  0  0  0  0  0  0
    5.7951   -2.1021   19.6121 H   0  0  0  0  0  0  0  0  0  0  0  0
    5.5655   -4.1871   19.1530 C   0  0  0  0  0  0  0  0  0  0  0  0
    5.4099   -3.9302   18.1156 H   0  0  0  0  0  0  0  0  0  0  0  0
    5.5758   -5.5064   19.6370 C   0  0  0  0  0  0  0  0  0  0  0  0
    5.6583   -6.6771   18.6945 C   0  0  0  0  0  0  0  0  0  0  0  0
    5.1255   -7.5498   19.0761 H   0  0  0  0  0  0  0  0  0  0  0  0
    5.2594   -6.4691   17.7052 H   0  0  0  0  0  0  0  0  0  0  0  0
    6.7074   -6.9318   18.5292 H   0  0  0  0  0  0  0  0  0  0  0  0
    5.5816   -5.6883   21.0306 C   0  0  0  0  0  0  0  0  0  0  0  0
    5.4717   -6.6929   21.4363 H   0  0  0  0  0  0  0  0  0  0  0  0
    5.7246   -4.6012   21.9032 C   0  0  0  0  0  0  0  0  0  0  0  0
    5.7121   -4.7594   22.9843 H   0  0  0  0  0  0  0  0  0  0  0  0
    9.1653   -2.9363   23.6134 C   0  0  0  0  0  0  0  0  0  0  0  0
    8.6227   -2.8075   24.5524 H   0  0  0  0  0  0  0  0  0  0  0  0
    8.9815   -3.9619   23.2827 H   0  0  0  0  0  0  0  0  0  0  0  0
   10.6721   -2.6068   23.7309 C   0  0  0  0  0  0  0  0  0  0  0  0
   11.2995   -3.4958   23.8182 H   0  0  0  0  0  0  0  0  0  0  0  0
   10.8099   -2.0006   24.6279 H   0  0  0  0  0  0  0  0  0  0  0  0
   11.0461   -1.7700   22.4724 C   0  0  0  0  0  0  0  0  0  0  0  0
   11.5386   -2.3611   21.6948 H   0  0  0  0  0  0  0  0  0  0  0  0
   11.6894   -0.9151   22.6920 H   0  0  0  0  0  0  0  0  0  0  0  0
    6.0829    0.7264   20.2232 C   0  0  0  0  0  0  0  0  0  0  0  0
    5.7234    0.7957   21.2519 H   0  0  0  0  0  0  0  0  0  0  0  0
    5.3397    1.2761   19.1802 C   0  0  0  0  0  0  0  0  0  0  0  0
    4.3883    1.7648   19.3610 H   0  0  0  0  0  0  0  0  0  0  0  0
  1  2  1  0
  2  3  2  0
  3  4  1  0
  4  5  1  0
  4  6  2  0
  6  7  1  0
  7  8  2  0
  8  9  1  0
  9 10  1  0
 10 11  2  0
 11 12  1  0
 12 13  1  0
 12 14  1  0
 12 15  1  0
 15 16  2  0
 16 17  1  0
 16 18  1  0
 18 19  1  0
 18 20  2  0
 20 21  1  0
 21 22  1  0
 21 23  1  0
 21 24  1  0
 20 25  1  0
 25 26  1  0
 25 27  2  0
 27 28  1  0
 10 29  1  0
 29 30  1  0
 29 31  1  0
 29 32  1  0
 32 33  1  0
 32 34  1  0
 32 35  1  0
 35 36  1  0
 35 37  1  0
  6 38  1  0
 38 39  1  0
 38 40  2  0
 40 41  1  0
 40  2  1  0
 11  7  1  0
 27 15  1  0
 35  9  1  0
M  END
>  <cnnaffinity>  (1) 
-5.64902

>  <filename>  (1) 
Cc1ccc(Cc2c(-c3cccnc3)nn3c2CCC3)cc1

$$$$
