
     RDKit          3D

 32 34  0  0  0  0  0  0  0  0999 V2000
    4.9264    1.8519   16.9562 H   0  0  0  0  0  0  0  0  0  0  0  0
    5.3952    1.3231   17.7840 C   0  0  0  0  0  0  0  0  0  0  0  0
    6.5529    0.6962   17.5157 N   0  0  0  0  0  0  0  0  0  0  0  0
    7.1599    0.0518   18.5280 C   0  0  0  0  0  0  0  0  0  0  0  0
    8.0683   -0.4953   18.2745 H   0  0  0  0  0  0  0  0  0  0  0  0
    6.6624    0.0020   19.8602 C   0  0  0  0  0  0  0  0  0  0  0  0
    7.3101   -0.6432   20.9350 N   0  0  0  0  0  0  0  0  0  0  0  0
    6.7276   -1.1770   21.5684 H   0  0  0  0  0  0  0  0  0  0  0  0
    8.6615   -0.5345   21.2901 C   0  0  0  0  0  0  0  0  0  0  0  0
    9.6503    0.3079   20.7254 C   0  0  0  0  0  0  0  0  0  0  0  0
    9.4985    1.0410   19.9558 H   0  0  0  0  0  0  0  0  0  0  0  0
   10.8592    0.0883   21.2255 N   0  0  0  0  0  0  0  0  0  0  0  0
   10.6593   -0.8932   22.1168 N   0  0  0  0  0  0  0  0  0  0  0  0
   11.4557   -1.2666   22.6100 H   0  0  0  0  0  0  0  0  0  0  0  0
    9.3541   -1.2873   22.2335 C   0  0  0  0  0  0  0  0  0  0  0  0
    8.9425   -2.3446   23.1710 C   0  0  0  0  0  0  0  0  0  0  0  0
    7.7138   -2.2999   23.8599 C   0  0  0  0  0  0  0  0  0  0  0  0
    7.0810   -1.4177   23.7750 H   0  0  0  0  0  0  0  0  0  0  0  0
    7.2585   -3.2864   24.6509 N   0  0  0  0  0  0  0  0  0  0  0  0
    8.0497   -4.3542   24.8437 C   0  0  0  0  0  0  0  0  0  0  0  0
    7.5129   -5.4598   25.7087 C   0  0  0  0  0  0  0  0  0  0  0  0
    7.6245   -6.4191   25.1975 H   0  0  0  0  0  0  0  0  0  0  0  0
    6.4616   -5.2878   25.9561 H   0  0  0  0  0  0  0  0  0  0  0  0
    8.0759   -5.5310   26.6463 H   0  0  0  0  0  0  0  0  0  0  0  0
    9.3332   -4.4587   24.2681 C   0  0  0  0  0  0  0  0  0  0  0  0
    9.9481   -5.3270   24.5012 H   0  0  0  0  0  0  0  0  0  0  0  0
    9.7792   -3.4479   23.4243 C   0  0  0  0  0  0  0  0  0  0  0  0
   10.7640   -3.4869   22.9459 H   0  0  0  0  0  0  0  0  0  0  0  0
    5.4259    0.6189   20.0934 C   0  0  0  0  0  0  0  0  0  0  0  0
    4.9869    0.5630   21.0890 H   0  0  0  0  0  0  0  0  0  0  0  0
    4.7925    1.2989   19.0469 C   0  0  0  0  0  0  0  0  0  0  0  0
    3.8491    1.8100   19.2061 H   0  0  0  0  0  0  0  0  0  0  0  0
  1  2  1  0
  2  3  2  0
  3  4  1  0
  4  5  1  0
  4  6  2  0
  6  7  1  0
  7  8  1  0
  7  9  1  0
  9 10  1  0
 10 11  1  0
 10 12  2  0
 12 13  1  0
 13 14  1  0
 13 15  1  0
 15 16  1  0
 16 17  2  0
 17 18  1  0
 17 19  1  0
 19 20  2  0
 20 21  1  0
 21 22  1  0
 21 23  1  0
 21 24  1  0
 20 25  1  0
 25 26  1  0
 25 27  2  0
 27 28  1  0
  6 29  1  0
 29 30  1  0
 29 31  2  0
 31 32  1  0
 31  2  1  0
 15  9  2  0
 27 16  1  0
M  END
>  <cnnaffinity>  (1) 
-5.66462

>  <filename>  (1) 
Cc1ccc(-c2[nH]ncc2Nc2cccnc2)cn1

$$$$
