
     RDKit          3D

 35 38  0  0  0  0  0  0  0  0999 V2000
    4.9933    1.8720   16.8742 H   0  0  0  0  0  0  0  0  0  0  0  0
    5.4189    1.3067   17.7026 C   0  0  0  0  0  0  0  0  0  0  0  0
    6.5609    0.6447   17.4556 N   0  0  0  0  0  0  0  0  0  0  0  0
    7.1288   -0.0109   18.4743 C   0  0  0  0  0  0  0  0  0  0  0  0
    8.0585   -0.5297   18.2465 H   0  0  0  0  0  0  0  0  0  0  0  0
    6.6003   -0.0436   19.7788 C   0  0  0  0  0  0  0  0  0  0  0  0
    7.3642   -0.6406   20.8917 C   0  0  0  0  0  0  0  0  0  0  0  0
    8.5033   -1.3174   20.6750 N   0  0  0  0  0  0  0  0  0  0  0  0
    8.9444   -1.5705   21.9239 N   0  0  0  0  0  0  0  0  0  0  0  0
   10.0483   -2.2121   22.4672 C   0  0  0  0  0  0  0  0  0  0  0  0
   10.7866   -2.6861   21.8454 H   0  0  0  0  0  0  0  0  0  0  0  0
    9.9193   -2.0920   23.8123 C   0  0  0  0  0  0  0  0  0  0  0  0
   10.5323   -2.4822   24.6053 H   0  0  0  0  0  0  0  0  0  0  0  0
    8.7576   -1.3755   24.1121 N   0  0  0  0  0  0  0  0  0  0  0  0
    8.2661   -1.0025   25.3950 C   0  0  0  0  0  0  0  0  0  0  0  0
    9.1514   -0.6687   26.4353 C   0  0  0  0  0  0  0  0  0  0  0  0
   10.2287   -0.7157   26.2978 H   0  0  0  0  0  0  0  0  0  0  0  0
    8.6473   -0.2255   27.6614 C   0  0  0  0  0  0  0  0  0  0  0  0
    9.3326    0.0067   28.4757 H   0  0  0  0  0  0  0  0  0  0  0  0
    7.2668   -0.0994   27.8451 C   0  0  0  0  0  0  0  0  0  0  0  0
    6.8860    0.2900   28.7877 H   0  0  0  0  0  0  0  0  0  0  0  0
    6.3663   -0.4625   26.8350 C   0  0  0  0  0  0  0  0  0  0  0  0
    4.8776   -0.3125   27.0526 C   0  0  0  0  0  0  0  0  0  0  0  0
    4.4917    0.6192   26.6232 H   0  0  0  0  0  0  0  0  0  0  0  0
    4.6261   -0.2910   28.1179 H   0  0  0  0  0  0  0  0  0  0  0  0
    4.3224   -1.1363   26.5951 H   0  0  0  0  0  0  0  0  0  0  0  0
    6.8790   -0.9376   25.6180 C   0  0  0  0  0  0  0  0  0  0  0  0
    6.2065   -1.2532   24.8191 H   0  0  0  0  0  0  0  0  0  0  0  0
    8.1532   -1.0775   22.8974 C   0  0  0  0  0  0  0  0  0  0  0  0
    7.0710   -0.4867   22.2670 C   0  0  0  0  0  0  0  0  0  0  0  0
    6.1838   -0.0460   22.6839 H   0  0  0  0  0  0  0  0  0  0  0  0
    5.3782    0.6146   20.0020 C   0  0  0  0  0  0  0  0  0  0  0  0
    4.9104    0.6049   20.9883 H   0  0  0  0  0  0  0  0  0  0  0  0
    4.7861    1.3035   18.9492 C   0  0  0  0  0  0  0  0  0  0  0  0
    3.8709    1.8657   19.0970 H   0  0  0  0  0  0  0  0  0  0  0  0
  1  2  1  0
  2  3  2  0
  3  4  1  0
  4  5  1  0
  4  6  2  0
  6  7  1  0
  7  8  2  0
  8  9  1  0
  9 10  1  0
 10 11  1  0
 10 12  2  0
 12 13  1  0
 12 14  1  0
 14 15  1  0
 15 16  2  0
 16 17  1  0
 16 18  1  0
 18 19  1  0
 18 20  2  0
 20 21  1  0
 20 22  1  0
 22 23  1  0
 23 24  1  0
 23 25  1  0
 23 26  1  0
 22 27  2  0
 27 28  1  0
 14 29  1  0
 29 30  2  0
 30 31  1  0
  6 32  1  0
 32 33  1  0
 32 34  2  0
 34 35  1  0
 34  2  1  0
 30  7  1  0
 29  9  1  0
 27 15  1  0
M  END
>  <cnnaffinity>  (1) 
-5.36445

>  <filename>  (1) 
Cc1cccc(-n2ccn3nc(-c4cccnc4)cc23)c1

$$$$
