
     RDKit          3D

 38 41  0  0  0  0  0  0  0  0999 V2000
    4.9110    1.8322   16.9637 H   0  0  0  0  0  0  0  0  0  0  0  0
    5.3879    1.3173   17.7954 C   0  0  0  0  0  0  0  0  0  0  0  0
    6.5450    0.6985   17.5174 N   0  0  0  0  0  0  0  0  0  0  0  0
    7.1684    0.0807   18.5285 C   0  0  0  0  0  0  0  0  0  0  0  0
    8.1125   -0.4041   18.2750 H   0  0  0  0  0  0  0  0  0  0  0  0
    6.6923    0.0240   19.8519 C   0  0  0  0  0  0  0  0  0  0  0  0
    7.4553   -0.6991   20.9530 C   0  0  1  0  0  0  0  0  0  0  0  0
    8.3885   -1.0902   20.5243 H   0  0  0  0  0  0  0  0  0  0  0  0
    7.8486    0.2461   22.1479 C   0  0  0  0  0  0  0  0  0  0  0  0
    7.4500    1.2597   22.0537 H   0  0  0  0  0  0  0  0  0  0  0  0
    8.9358    0.3555   22.2151 H   0  0  0  0  0  0  0  0  0  0  0  0
    7.2726   -0.4449   23.3459 C   0  0  0  0  0  0  0  0  0  0  0  0
    7.2617   -0.1943   24.6405 N   0  0  0  0  0  0  0  0  0  0  0  0
    6.6416   -1.2841   25.1578 N   0  0  0  0  0  0  0  0  0  0  0  0
    6.5936   -1.3627   26.1630 H   0  0  0  0  0  0  0  0  0  0  0  0
    6.2453   -2.2025   24.2217 C   0  0  0  0  0  0  0  0  0  0  0  0
    5.6239   -3.5250   24.4789 C   0  0  0  0  0  0  0  0  0  0  0  0
    6.0129   -4.3233   25.5691 C   0  0  0  0  0  0  0  0  0  0  0  0
    6.7417   -3.9438   26.2830 H   0  0  0  0  0  0  0  0  0  0  0  0
    5.5034   -5.6130   25.7056 C   0  0  0  0  0  0  0  0  0  0  0  0
    5.8418   -6.2335   26.5305 H   0  0  0  0  0  0  0  0  0  0  0  0
    4.5925   -6.1167   24.7711 C   0  0  0  0  0  0  0  0  0  0  0  0
    4.2263   -7.1349   24.8724 H   0  0  0  0  0  0  0  0  0  0  0  0
    4.1679   -5.3389   23.6844 C   0  0  0  0  0  0  0  0  0  0  0  0
    3.1818   -5.8958   22.6835 C   0  0  0  0  0  0  0  0  0  0  0  0
    2.1450   -5.6410   22.9312 H   0  0  0  0  0  0  0  0  0  0  0  0
    3.2348   -6.9873   22.6217 H   0  0  0  0  0  0  0  0  0  0  0  0
    3.3805   -5.5161   21.6817 H   0  0  0  0  0  0  0  0  0  0  0  0
    4.7043   -4.0480   23.5484 C   0  0  0  0  0  0  0  0  0  0  0  0
    4.4135   -3.4312   22.7013 H   0  0  0  0  0  0  0  0  0  0  0  0
    6.6561   -1.6479   23.0229 C   0  0  0  0  0  0  0  0  0  0  0  0
    6.6576   -1.9162   21.5524 C   0  0  0  0  0  0  0  0  0  0  0  0
    7.1302   -2.8692   21.2726 H   0  0  0  0  0  0  0  0  0  0  0  0
    5.6317   -1.9538   21.1612 H   0  0  0  0  0  0  0  0  0  0  0  0
    5.4669    0.6662   20.1057 C   0  0  0  0  0  0  0  0  0  0  0  0
    5.0377    0.6638   21.1085 H   0  0  0  0  0  0  0  0  0  0  0  0
    4.8032    1.3219   19.0647 C   0  0  0  0  0  0  0  0  0  0  0  0
    3.8635    1.8457   19.2202 H   0  0  0  0  0  0  0  0  0  0  0  0
  1  2  1  0
  2  3  2  0
  3  4  1  0
  4  5  1  0
  4  6  2  0
  6  7  1  0
  7  8  1  6
  7  9  1  0
  9 10  1  0
  9 11  1  0
  9 12  1  0
 12 13  2  0
 13 14  1  0
 14 15  1  0
 14 16  1  0
 16 17  1  0
 17 18  2  0
 18 19  1  0
 18 20  1  0
 20 21  1  0
 20 22  2  0
 22 23  1  0
 22 24  1  0
 24 25  1  0
 25 26  1  0
 25 27  1  0
 25 28  1  0
 24 29  2  0
 29 30  1  0
 16 31  2  0
 31 32  1  0
 32 33  1  0
 32 34  1  0
  6 35  1  0
 35 36  1  0
 35 37  2  0
 37 38  1  0
 37  2  1  0
 32  7  1  0
 31 12  1  0
 29 17  1  0
M  END
>  <cnnaffinity>  (1) 
-5.29409

>  <filename>  (1) 
Cc1cccc(-c2[nH]nc3c2C[C@@H](c2cccnc2)C3)c1

$$$$
