
     RDKit          3D

 41 43  0  0  0  0  0  0  0  0999 V2000
    5.5707   -2.8473   21.1201 C   0  0  0  0  0  0  0  0  0  0  0  0
    6.8001   -2.0439   21.4837 C   0  0  0  0  0  0  0  0  0  0  0  0
    7.6134   -2.4942   22.5187 C   0  0  0  0  0  0  0  0  0  0  0  0
    8.7076   -1.8922   22.9275 N   0  0  0  0  0  0  0  0  0  0  0  0
    9.0694   -0.7841   22.2672 C   0  0  0  0  0  0  0  0  0  0  0  0
   10.1999   -0.1535   22.7165 N   0  0  0  0  0  0  0  0  0  0  0  0
   11.0476   -0.8665   23.6740 C   0  0  0  0  0  0  0  0  0  0  0  0
   11.8276    0.1031   24.5680 C   0  0  0  0  0  0  0  0  0  0  0  0
   12.6951    1.0324   23.7229 C   0  0  0  0  0  0  0  0  0  0  0  0
   11.7811    1.7678   22.7509 C   0  0  0  0  0  0  0  0  0  0  0  0
   12.6102    2.5981   21.9280 O   0  0  0  0  0  0  0  0  0  0  0  0
   11.9981    3.7275   21.4858 C   0  0  0  0  0  0  0  0  0  0  0  0
   12.2535    4.7613   22.3254 F   0  0  0  0  0  0  0  0  0  0  0  0
   12.4822    4.0309   20.2744 F   0  0  0  0  0  0  0  0  0  0  0  0
   10.9087    3.5752   21.4441 H   0  0  0  0  0  0  0  0  0  0  0  0
   10.9625    0.7811   21.8766 C   0  0  0  0  0  0  0  0  0  0  0  0
   11.6988    0.2617   21.2393 H   0  0  0  0  0  0  0  0  0  0  0  0
   10.2955    1.3404   21.2120 H   0  0  0  0  0  0  0  0  0  0  0  0
   11.0719    2.3873   23.3193 H   0  0  0  0  0  0  0  0  0  0  0  0
   13.2365    1.7628   24.3385 H   0  0  0  0  0  0  0  0  0  0  0  0
   13.4274    0.4560   23.1363 H   0  0  0  0  0  0  0  0  0  0  0  0
   11.1081    0.7090   25.1382 H   0  0  0  0  0  0  0  0  0  0  0  0
   12.4179   -0.4518   25.3067 H   0  0  0  0  0  0  0  0  0  0  0  0
   11.7182   -1.5122   23.0754 H   0  0  0  0  0  0  0  0  0  0  0  0
   10.4418   -1.5290   24.2899 H   0  0  0  0  0  0  0  0  0  0  0  0
    8.4290   -0.2736   21.2189 N   0  0  0  0  0  0  0  0  0  0  0  0
    7.2770   -0.8641   20.8858 C   0  0  0  0  0  0  0  0  0  0  0  0
    6.5484   -0.2035   19.7863 C   0  0  0  0  0  0  0  0  0  0  0  0
    5.2778    0.3687   19.9087 C   0  0  0  0  0  0  0  0  0  0  0  0
    4.7926    1.1333   18.8471 C   0  0  0  0  0  0  0  0  0  0  0  0
    5.5726    1.2507   17.6921 C   0  0  0  0  0  0  0  0  0  0  0  0
    6.7602    0.6444   17.5400 N   0  0  0  0  0  0  0  0  0  0  0  0
    7.2325   -0.0527   18.5762 C   0  0  0  0  0  0  0  0  0  0  0  0
    8.2046   -0.5234   18.4280 H   0  0  0  0  0  0  0  0  0  0  0  0
    5.2327    1.8603   16.8558 H   0  0  0  0  0  0  0  0  0  0  0  0
    3.8447    1.6538   18.9105 H   0  0  0  0  0  0  0  0  0  0  0  0
    4.6988    0.2545   20.8264 H   0  0  0  0  0  0  0  0  0  0  0  0
    7.3738   -3.4237   23.0414 H   0  0  0  0  0  0  0  0  0  0  0  0
    5.2971   -2.7035   20.0708 H   0  0  0  0  0  0  0  0  0  0  0  0
    4.7159   -2.5827   21.7517 H   0  0  0  0  0  0  0  0  0  0  0  0
    5.7446   -3.9159   21.3001 H   0  0  0  0  0  0  0  0  0  0  0  0
  1  2  1  0
  2  3  2  0
  3  4  1  0
  4  5  2  0
  5  6  1  0
  6  7  1  0
  7  8  1  0
  8  9  1  0
  9 10  1  0
 10 11  1  0
 11 12  1  0
 12 13  1  0
 12 14  1  0
 12 15  1  0
 10 16  1  0
 16 17  1  0
 16 18  1  0
 10 19  1  0
  9 20  1  0
  9 21  1  0
  8 22  1  0
  8 23  1  0
  7 24  1  0
  7 25  1  0
  5 26  1  0
 26 27  2  0
 27 28  1  0
 28 29  2  0
 29 30  1  0
 30 31  2  0
 31 32  1  0
 32 33  2  0
 33 34  1  0
 31 35  1  0
 30 36  1  0
 29 37  1  0
  3 38  1  0
  1 39  1  0
  1 40  1  0
  1 41  1  0
 27  2  1  0
 33 28  1  0
 16  6  1  0
M  END
>  <cnnaffinity>  (1) 
-5.39028

>  <filename>  (1) 
Cc1cnc(N2CCCC(OC(F)F)C2)nc1-c1cccnc1

$$$$
