
     RDKit          3D

 36 38  0  0  0  0  0  0  0  0999 V2000
    4.9195    1.7778   16.9981 H   0  0  0  0  0  0  0  0  0  0  0  0
    5.4033    1.2924   17.8416 C   0  0  0  0  0  0  0  0  0  0  0  0
    6.5640    0.6702   17.5834 N   0  0  0  0  0  0  0  0  0  0  0  0
    7.1607    0.0505   18.6060 C   0  0  0  0  0  0  0  0  0  0  0  0
    8.1173   -0.4184   18.3829 H   0  0  0  0  0  0  0  0  0  0  0  0
    6.6268   -0.0136   19.9058 C   0  0  0  0  0  0  0  0  0  0  0  0
    7.3070   -0.7378   20.9895 C   0  0  0  0  0  0  0  0  0  0  0  0
    6.5757   -1.5075   21.7699 N   0  0  0  0  0  0  0  0  0  0  0  0
    7.1827   -2.1950   22.8067 C   0  0  0  0  0  0  0  0  0  0  0  0
    6.2963   -3.0430   23.6629 C   0  0  0  0  0  0  0  0  0  0  0  0
    5.1265   -3.6077   23.1319 C   0  0  0  0  0  0  0  0  0  0  0  0
    4.8638   -3.4021   22.0998 H   0  0  0  0  0  0  0  0  0  0  0  0
    4.3033   -4.3985   23.9273 C   0  0  0  0  0  0  0  0  0  0  0  0
    3.3937   -4.8188   23.5043 H   0  0  0  0  0  0  0  0  0  0  0  0
    4.6141   -4.6570   25.2663 C   0  0  0  0  0  0  0  0  0  0  0  0
    3.7016   -5.5204   26.0958 C   0  0  0  0  0  0  0  0  0  0  0  0
    3.3898   -5.0133   27.0146 H   0  0  0  0  0  0  0  0  0  0  0  0
    2.7965   -5.7944   25.5492 H   0  0  0  0  0  0  0  0  0  0  0  0
    4.1956   -6.4506   26.3966 H   0  0  0  0  0  0  0  0  0  0  0  0
    5.7946   -4.0989   25.8153 C   0  0  0  0  0  0  0  0  0  0  0  0
    6.1695   -4.3453   27.2554 C   0  0  0  0  0  0  0  0  0  0  0  0
    5.4466   -3.8850   27.9379 H   0  0  0  0  0  0  0  0  0  0  0  0
    6.1927   -5.4143   27.4908 H   0  0  0  0  0  0  0  0  0  0  0  0
    7.1527   -3.9357   27.4977 H   0  0  0  0  0  0  0  0  0  0  0  0
    6.6098   -3.3025   25.0091 C   0  0  0  0  0  0  0  0  0  0  0  0
    7.4949   -2.8575   25.4602 H   0  0  0  0  0  0  0  0  0  0  0  0
    8.5356   -2.1197   23.0259 C   0  0  0  0  0  0  0  0  0  0  0  0
    9.0473   -2.6818   23.8027 H   0  0  0  0  0  0  0  0  0  0  0  0
    9.3101   -1.3189   22.2132 N   0  0  0  0  0  0  0  0  0  0  0  0
   10.3108   -1.1842   22.3202 H   0  0  0  0  0  0  0  0  0  0  0  0
    8.8018   -0.5510   21.1700 C   0  0  0  0  0  0  0  0  0  0  0  0
    9.5747    0.1537   20.5382 O   0  0  0  0  0  0  0  0  0  0  0  0
    5.4198    0.6508   20.1576 C   0  0  0  0  0  0  0  0  0  0  0  0
    4.9910    0.6311   21.1638 H   0  0  0  0  0  0  0  0  0  0  0  0
    4.8024    1.3198   19.1058 C   0  0  0  0  0  0  0  0  0  0  0  0
    3.8688    1.8504   19.2579 H   0  0  0  0  0  0  0  0  0  0  0  0
  1  2  1  0
  2  3  2  0
  3  4  1  0
  4  5  1  0
  4  6  2  0
  6  7  1  0
  7  8  2  0
  8  9  1  0
  9 10  1  0
 10 11  2  0
 11 12  1  0
 11 13  1  0
 13 14  1  0
 13 15  2  0
 15 16  1  0
 16 17  1  0
 16 18  1  0
 16 19  1  0
 15 20  1  0
 20 21  1  0
 21 22  1  0
 21 23  1  0
 21 24  1  0
 20 25  2  0
 25 26  1  0
  9 27  2  0
 27 28  1  0
 27 29  1  0
 29 30  1  0
 29 31  1  0
 31 32  2  0
  6 33  1  0
 33 34  1  0
 33 35  2  0
 35 36  1  0
 35  2  1  0
 31  7  1  0
 25 10  1  0
M  END
>  <cnnaffinity>  (1) 
-5.42615

>  <filename>  (1) 
Cc1ccc(-c2c[nH]c(=O)c(-c3cccnc3)n2)cc1C

$$$$
