
     RDKit          3D

 29 31  0  0  0  0  0  0  0  0999 V2000
    4.9172    1.7865   17.0003 H   0  0  0  0  0  0  0  0  0  0  0  0
    5.3991    1.2896   17.8411 C   0  0  0  0  0  0  0  0  0  0  0  0
    6.5536    0.6648   17.5736 N   0  0  0  0  0  0  0  0  0  0  0  0
    7.1943    0.0600   18.5821 C   0  0  0  0  0  0  0  0  0  0  0  0
    8.1402   -0.4184   18.3487 H   0  0  0  0  0  0  0  0  0  0  0  0
    6.6959    0.0294   19.9004 C   0  0  0  0  0  0  0  0  0  0  0  0
    7.2737   -0.6792   20.9598 O   0  0  0  0  0  0  0  0  0  0  0  0
    8.5938   -0.8070   21.1012 C   0  0  0  0  0  0  0  0  0  0  0  0
    9.5276   -0.1342   20.4794 N   0  0  0  0  0  0  0  0  0  0  0  0
   10.6981   -0.5888   20.9807 N   0  0  0  0  0  0  0  0  0  0  0  0
   10.5190   -1.4984   21.8513 N   0  0  0  0  0  0  0  0  0  0  0  0
    9.1634   -1.6727   21.9614 N   0  0  0  0  0  0  0  0  0  0  0  0
    8.5894   -2.6142   22.8450 C   0  0  0  0  0  0  0  0  0  0  0  0
    7.2607   -2.6808   22.8324 N   0  0  0  0  0  0  0  0  0  0  0  0
    6.6801   -3.5503   23.6643 C   0  0  0  0  0  0  0  0  0  0  0  0
    5.1770   -3.6363   23.6622 C   0  0  0  0  0  0  0  0  0  0  0  0
    4.7669   -3.4366   24.6564 H   0  0  0  0  0  0  0  0  0  0  0  0
    4.7374   -2.9475   22.9483 H   0  0  0  0  0  0  0  0  0  0  0  0
    4.8358   -4.6385   23.3959 H   0  0  0  0  0  0  0  0  0  0  0  0
    7.4067   -4.3877   24.5203 C   0  0  0  0  0  0  0  0  0  0  0  0
    6.8670   -5.0705   25.1643 H   0  0  0  0  0  0  0  0  0  0  0  0
    8.8002   -4.3171   24.5173 C   0  0  0  0  0  0  0  0  0  0  0  0
    9.3884   -4.9583   25.1772 H   0  0  0  0  0  0  0  0  0  0  0  0
    9.4110   -3.4077   23.6581 C   0  0  0  0  0  0  0  0  0  0  0  0
   10.4887   -3.3014   23.6071 H   0  0  0  0  0  0  0  0  0  0  0  0
    5.4719    0.6440   20.1728 C   0  0  0  0  0  0  0  0  0  0  0  0
    5.0511    0.6009   21.1797 H   0  0  0  0  0  0  0  0  0  0  0  0
    4.8259    1.2982   19.1179 C   0  0  0  0  0  0  0  0  0  0  0  0
    3.8941    1.8243   19.2699 H   0  0  0  0  0  0  0  0  0  0  0  0
  1  2  1  0
  2  3  2  0
  3  4  1  0
  4  5  1  0
  4  6  2  0
  6  7  1  0
  7  8  1  0
  8  9  2  0
  9 10  1  0
 10 11  2  0
 11 12  1  0
 12 13  1  0
 13 14  2  0
 14 15  1  0
 15 16  1  0
 16 17  1  0
 16 18  1  0
 16 19  1  0
 15 20  2  0
 20 21  1  0
 20 22  1  0
 22 23  1  0
 22 24  2  0
 24 25  1  0
  6 26  1  0
 26 27  1  0
 26 28  2  0
 28 29  1  0
 28  2  1  0
 12  8  1  0
 24 13  1  0
M  END
>  <cnnaffinity>  (1) 
-5.14804

>  <filename>  (1) 
Cc1cccc(-n2nnnc2Oc2cccnc2)n1

$$$$
