
     RDKit          3D

 40 42  0  0  0  0  0  0  0  0999 V2000
    9.3607    0.6398   20.7786 C   0  0  0  0  0  0  0  0  0  0  0  0
    8.5750   -0.4775   21.4055 C   0  0  0  0  0  0  0  0  0  0  0  0
    9.1014   -1.2790   22.4139 C   0  0  0  0  0  0  0  0  0  0  0  0
    8.4472   -2.2531   23.0145 N   0  0  0  0  0  0  0  0  0  0  0  0
    7.1799   -2.4308   22.6257 C   0  0  0  0  0  0  0  0  0  0  0  0
    6.4588   -3.3740   23.2865 N   0  0  0  0  0  0  0  0  0  0  0  0
    5.1596   -3.7853   22.7556 C   0  0  0  0  0  0  0  0  0  0  0  0
    4.2140   -4.1518   23.8906 C   0  0  0  0  0  0  0  0  0  0  0  0
    4.8311   -5.2094   24.8069 C   0  0  0  0  0  0  0  0  0  0  0  0
    6.1920   -4.7175   25.3254 C   0  0  0  0  0  0  0  0  0  0  0  0
    6.8372   -5.7273   26.2627 C   0  0  0  0  0  0  0  0  0  0  0  0
    8.0094   -5.2153   26.8002 F   0  0  0  0  0  0  0  0  0  0  0  0
    7.0963   -6.6491   25.7340 H   0  0  0  0  0  0  0  0  0  0  0  0
    6.1701   -5.9834   27.0953 H   0  0  0  0  0  0  0  0  0  0  0  0
    7.1223   -4.3397   24.1668 C   0  0  0  0  0  0  0  0  0  0  0  0
    8.0452   -3.9111   24.5626 H   0  0  0  0  0  0  0  0  0  0  0  0
    7.4124   -5.2391   23.5938 H   0  0  0  0  0  0  0  0  0  0  0  0
    6.0325   -3.8031   25.9098 H   0  0  0  0  0  0  0  0  0  0  0  0
    4.1626   -5.4171   25.6526 H   0  0  0  0  0  0  0  0  0  0  0  0
    4.9694   -6.1486   24.2495 H   0  0  0  0  0  0  0  0  0  0  0  0
    3.2545   -4.4773   23.4736 H   0  0  0  0  0  0  0  0  0  0  0  0
    4.0206   -3.2464   24.4770 H   0  0  0  0  0  0  0  0  0  0  0  0
    4.7391   -2.9690   22.1693 H   0  0  0  0  0  0  0  0  0  0  0  0
    5.2947   -4.6390   22.0700 H   0  0  0  0  0  0  0  0  0  0  0  0
    6.5687   -1.7663   21.6413 N   0  0  0  0  0  0  0  0  0  0  0  0
    7.2598   -0.8143   21.0357 C   0  0  0  0  0  0  0  0  0  0  0  0
    6.5587   -0.0861   19.9648 C   0  0  0  0  0  0  0  0  0  0  0  0
    5.3519    0.5907   20.1765 C   0  0  0  0  0  0  0  0  0  0  0  0
    4.7913    1.2913   19.1137 C   0  0  0  0  0  0  0  0  0  0  0  0
    5.4388    1.2676   17.8739 C   0  0  0  0  0  0  0  0  0  0  0  0
    6.5838    0.6046   17.6542 N   0  0  0  0  0  0  0  0  0  0  0  0
    7.1264   -0.0480   18.6877 C   0  0  0  0  0  0  0  0  0  0  0  0
    8.0789   -0.5439   18.4837 H   0  0  0  0  0  0  0  0  0  0  0  0
    5.0176    1.8010   17.0254 H   0  0  0  0  0  0  0  0  0  0  0  0
    3.8818    1.8658   19.2372 H   0  0  0  0  0  0  0  0  0  0  0  0
    4.8901    0.5845   21.1658 H   0  0  0  0  0  0  0  0  0  0  0  0
   10.1238   -1.1213   22.7752 H   0  0  0  0  0  0  0  0  0  0  0  0
    8.7377    1.5328   20.6575 H   0  0  0  0  0  0  0  0  0  0  0  0
   10.2464    0.8878   21.3674 H   0  0  0  0  0  0  0  0  0  0  0  0
    9.6809    0.3327   19.7846 H   0  0  0  0  0  0  0  0  0  0  0  0
  1  2  1  0
  2  3  2  0
  3  4  1  0
  4  5  2  0
  5  6  1  0
  6  7  1  0
  7  8  1  0
  8  9  1  0
  9 10  1  0
 10 11  1  0
 11 12  1  0
 11 13  1  0
 11 14  1  0
 10 15  1  0
 15 16  1  0
 15 17  1  0
 10 18  1  0
  9 19  1  0
  9 20  1  0
  8 21  1  0
  8 22  1  0
  7 23  1  0
  7 24  1  0
  5 25  1  0
 25 26  2  0
 26 27  1  0
 27 28  2  0
 28 29  1  0
 29 30  2  0
 30 31  1  0
 31 32  2  0
 32 33  1  0
 30 34  1  0
 29 35  1  0
 28 36  1  0
  3 37  1  0
  1 38  1  0
  1 39  1  0
  1 40  1  0
 26  2  1  0
 32 27  1  0
 15  6  1  0
M  END
>  <cnnaffinity>  (1) 
-5.49641

>  <filename>  (1) 
Cc1cnc(N2CCCC(CF)C2)nc1-c1cccnc1

$$$$
