
     RDKit          3D

 32 35  0  0  0  0  0  0  0  0999 V2000
    4.9160    1.7757   17.0024 H   0  0  0  0  0  0  0  0  0  0  0  0
    5.4040    1.2900   17.8432 C   0  0  0  0  0  0  0  0  0  0  0  0
    6.5695    0.6777   17.5783 N   0  0  0  0  0  0  0  0  0  0  0  0
    7.1747    0.0568   18.5915 C   0  0  0  0  0  0  0  0  0  0  0  0
    8.1241   -0.4345   18.3746 H   0  0  0  0  0  0  0  0  0  0  0  0
    6.6496    0.0119   19.8937 C   0  0  0  0  0  0  0  0  0  0  0  0
    7.4079   -0.7006   20.9186 C   0  0  0  0  0  0  0  0  0  0  0  0
    8.3468   -1.5886   20.7015 N   0  0  0  0  0  0  0  0  0  0  0  0
    8.8497   -2.0168   21.9095 N   0  0  0  0  0  0  0  0  0  0  0  0
    8.2048   -1.3461   22.8225 C   0  0  0  0  0  0  0  0  0  0  0  0
    8.2591   -1.0738   24.5371 S   0  0  0  0  0  0  0  0  0  0  0  0
    7.0019    0.1771   24.3189 C   0  0  0  0  0  0  0  0  0  0  0  0
    6.4978    0.9366   25.4911 C   0  0  0  0  0  0  0  0  0  0  0  0
    6.5208    0.3357   26.7704 C   0  0  0  0  0  0  0  0  0  0  0  0
    6.9255   -0.6679   26.8998 H   0  0  0  0  0  0  0  0  0  0  0  0
    6.0143    1.0050   27.8827 C   0  0  0  0  0  0  0  0  0  0  0  0
    6.0333    0.5259   28.8565 H   0  0  0  0  0  0  0  0  0  0  0  0
    5.4771    2.2856   27.7451 C   0  0  0  0  0  0  0  0  0  0  0  0
    5.0737    2.8090   28.6084 H   0  0  0  0  0  0  0  0  0  0  0  0
    5.4656    2.8954   26.4906 C   0  0  0  0  0  0  0  0  0  0  0  0
    5.0497    3.8940   26.3831 H   0  0  0  0  0  0  0  0  0  0  0  0
    5.9829    2.2559   25.3548 C   0  0  0  0  0  0  0  0  0  0  0  0
    5.9673    2.9912   24.0395 C   0  0  0  0  0  0  0  0  0  0  0  0
    5.7303    4.0491   24.1717 H   0  0  0  0  0  0  0  0  0  0  0  0
    5.2255    2.5514   23.3697 H   0  0  0  0  0  0  0  0  0  0  0  0
    6.9310    2.9089   23.5310 H   0  0  0  0  0  0  0  0  0  0  0  0
    6.6043    0.3406   23.0896 N   0  0  0  0  0  0  0  0  0  0  0  0
    7.2675   -0.5295   22.2783 N   0  0  0  0  0  0  0  0  0  0  0  0
    5.4345    0.6528   20.1623 C   0  0  0  0  0  0  0  0  0  0  0  0
    5.0091    0.6315   21.1687 H   0  0  0  0  0  0  0  0  0  0  0  0
    4.8050    1.3085   19.1094 C   0  0  0  0  0  0  0  0  0  0  0  0
    3.8739    1.8429   19.2617 H   0  0  0  0  0  0  0  0  0  0  0  0
  1  2  1  0
  2  3  2  0
  3  4  1  0
  4  5  1  0
  4  6  2  0
  6  7  1  0
  7  8  2  0
  8  9  1  0
  9 10  2  0
 10 11  1  0
 11 12  1  0
 12 13  1  0
 13 14  2  0
 14 15  1  0
 14 16  1  0
 16 17  1  0
 16 18  2  0
 18 19  1  0
 18 20  1  0
 20 21  1  0
 20 22  2  0
 22 23  1  0
 23 24  1  0
 23 25  1  0
 23 26  1  0
 12 27  2  0
 27 28  1  0
  6 29  1  0
 29 30  1  0
 29 31  2  0
 31 32  1  0
 31  2  1  0
 28  7  1  0
 28 10  1  0
 22 13  1  0
M  END
>  <cnnaffinity>  (1) 
-5.28346

>  <filename>  (1) 
Cc1ccccc1-c1nn2c(-c3cccnc3)nnc2s1

$$$$
