
     RDKit          3D

 30 31  0  0  0  0  0  0  0  0999 V2000
    7.5681   -1.6437   27.0058 C   0  0  0  0  0  0  0  0  0  0  0  0
    8.3615   -1.0235   25.8769 C   0  0  0  0  0  0  0  0  0  0  0  0
    9.0754    0.1779   26.0408 C   0  0  0  0  0  0  0  0  0  0  0  0
    9.8162    0.7483   25.0812 N   0  0  0  0  0  0  0  0  0  0  0  0
    9.8964    0.1474   23.8998 C   0  0  0  0  0  0  0  0  0  0  0  0
    9.2281   -1.0376   23.6469 C   0  0  0  0  0  0  0  0  0  0  0  0
    9.5601   -1.6986   22.0855 S   0  0  0  0  0  0  0  0  0  0  0  0
    8.9952   -3.0218   21.9960 O   0  0  0  0  0  0  0  0  0  0  0  0
   10.9257   -1.3910   21.7049 O   0  0  0  0  0  0  0  0  0  0  0  0
    8.7636   -0.6718   21.0971 N   0  0  0  0  0  0  0  0  0  0  0  0
    7.4042   -0.6926   21.1302 C   0  0  0  0  0  0  0  0  0  0  0  0
    6.8199   -1.1927   22.0647 O   0  0  0  0  0  0  0  0  0  0  0  0
    6.7407   -0.0133   20.0033 C   0  0  0  0  0  0  0  0  0  0  0  0
    5.5051    0.6151   20.2179 C   0  0  0  0  0  0  0  0  0  0  0  0
    4.8898    1.2581   19.1493 C   0  0  0  0  0  0  0  0  0  0  0  0
    5.5188    1.2316   17.8988 C   0  0  0  0  0  0  0  0  0  0  0  0
    6.6871    0.6054   17.6799 N   0  0  0  0  0  0  0  0  0  0  0  0
    7.2813    0.0046   18.7174 C   0  0  0  0  0  0  0  0  0  0  0  0
    8.2136   -0.5177   18.4899 H   0  0  0  0  0  0  0  0  0  0  0  0
    5.0639    1.7307   17.0404 H   0  0  0  0  0  0  0  0  0  0  0  0
    3.9498    1.7859   19.2764 H   0  0  0  0  0  0  0  0  0  0  0  0
    5.0623    0.5862   21.2136 H   0  0  0  0  0  0  0  0  0  0  0  0
    9.3646   -0.3026   20.3932 H   0  0  0  0  0  0  0  0  0  0  0  0
    8.4382   -1.6473   24.6266 C   0  0  0  0  0  0  0  0  0  0  0  0
    7.8882   -2.5732   24.4407 H   0  0  0  0  0  0  0  0  0  0  0  0
   10.5533    0.6068   23.1617 H   0  0  0  0  0  0  0  0  0  0  0  0
    9.0405    0.7046   26.9963 H   0  0  0  0  0  0  0  0  0  0  0  0
    8.1878   -2.3254   27.6002 H   0  0  0  0  0  0  0  0  0  0  0  0
    6.7285   -2.2293   26.6188 H   0  0  0  0  0  0  0  0  0  0  0  0
    7.1592   -0.8881   27.6854 H   0  0  0  0  0  0  0  0  0  0  0  0
  1  2  1  0
  2  3  2  0
  3  4  1  0
  4  5  2  0
  5  6  1  0
  6  7  1  0
  7  8  2  0
  7  9  2  0
  7 10  1  0
 10 11  1  0
 11 12  2  0
 11 13  1  0
 13 14  2  0
 14 15  1  0
 15 16  2  0
 16 17  1  0
 17 18  2  0
 18 19  1  0
 16 20  1  0
 15 21  1  0
 14 22  1  0
 10 23  1  0
  6 24  2  0
 24 25  1  0
  5 26  1  0
  3 27  1  0
  1 28  1  0
  1 29  1  0
  1 30  1  0
 24  2  1  0
 18 13  1  0
M  END
>  <cnnaffinity>  (1) 
-5.15596

>  <filename>  (1) 
Cc1cncc(S(=O)(=O)NC(=O)c2cccnc2)c1

$$$$
