
     RDKit          3D

 34 36  0  0  0  0  0  0  0  0999 V2000
    9.1656    1.0317   20.5125 H   0  0  0  0  0  0  0  0  0  0  0  0
    9.4679    0.1653   21.1080 C   0  0  0  0  0  0  0  0  0  0  0  0
    8.5635   -0.7860   21.4057 C   0  0  0  0  0  0  0  0  0  0  0  0
    7.1248   -0.8497   21.0162 C   0  0  0  0  0  0  0  0  0  0  0  0
    6.5211   -0.0733   19.9126 C   0  0  0  0  0  0  0  0  0  0  0  0
    7.1687   -0.0420   18.6745 C   0  0  0  0  0  0  0  0  0  0  0  0
    8.0978   -0.5962   18.5406 H   0  0  0  0  0  0  0  0  0  0  0  0
    6.7162    0.6334   17.6127 N   0  0  0  0  0  0  0  0  0  0  0  0
    5.5708    1.3153   17.7628 C   0  0  0  0  0  0  0  0  0  0  0  0
    5.2296    1.8758   16.8948 H   0  0  0  0  0  0  0  0  0  0  0  0
    4.8275    1.3254   18.9508 C   0  0  0  0  0  0  0  0  0  0  0  0
    3.9155    1.9118   19.0029 H   0  0  0  0  0  0  0  0  0  0  0  0
    5.2927    0.5922   20.0421 C   0  0  0  0  0  0  0  0  0  0  0  0
    4.7283    0.5345   20.9742 H   0  0  0  0  0  0  0  0  0  0  0  0
    6.4452   -1.6934   21.6944 N   0  0  0  0  0  0  0  0  0  0  0  0
    7.2983   -2.2612   22.7456 C   0  0  0  0  0  0  0  0  0  0  0  0
    7.0894   -3.3264   22.8667 H   0  0  0  0  0  0  0  0  0  0  0  0
    7.0260   -1.7672   23.6871 H   0  0  0  0  0  0  0  0  0  0  0  0
    8.7619   -1.9448   22.3615 C   0  0  0  0  0  0  0  0  0  0  0  0
    9.4122   -1.6948   23.2082 H   0  0  0  0  0  0  0  0  0  0  0  0
    9.1965   -2.7875   21.8073 H   0  0  0  0  0  0  0  0  0  0  0  0
   10.8660    0.2039   21.6026 C   0  0  0  0  0  0  0  0  0  0  0  0
   11.3866    1.4001   22.1288 C   0  0  0  0  0  0  0  0  0  0  0  0
   10.7669    2.2839   22.2167 H   0  0  0  0  0  0  0  0  0  0  0  0
   12.6999    1.4157   22.5905 C   0  0  0  0  0  0  0  0  0  0  0  0
   13.1226    2.3181   23.0226 H   0  0  0  0  0  0  0  0  0  0  0  0
   13.5293    0.3633   22.5340 N   0  0  0  0  0  0  0  0  0  0  0  0
   13.0647   -0.7594   21.9707 C   0  0  0  0  0  0  0  0  0  0  0  0
   14.0457   -1.8787   21.7752 C   0  0  0  0  0  0  0  0  0  0  0  0
   13.6441   -2.8208   22.1605 H   0  0  0  0  0  0  0  0  0  0  0  0
   14.2629   -2.0297   20.7091 H   0  0  0  0  0  0  0  0  0  0  0  0
   14.9766   -1.6272   22.2858 H   0  0  0  0  0  0  0  0  0  0  0  0
   11.7378   -0.8889   21.5365 C   0  0  0  0  0  0  0  0  0  0  0  0
   11.3930   -1.8413   21.1506 H   0  0  0  0  0  0  0  0  0  0  0  0
  1  2  1  0
  2  3  2  3
  3  4  1  0
  4  5  1  0
  5  6  2  0
  6  7  1  0
  6  8  1  0
  8  9  2  0
  9 10  1  0
  9 11  1  0
 11 12  1  0
 11 13  2  0
 13 14  1  0
  4 15  2  0
 15 16  1  0
 16 17  1  0
 16 18  1  0
 16 19  1  0
 19 20  1  0
 19 21  1  0
  2 22  1  0
 22 23  2  0
 23 24  1  0
 23 25  1  0
 25 26  1  0
 25 27  2  0
 27 28  1  0
 28 29  1  0
 29 30  1  0
 29 31  1  0
 29 32  1  0
 28 33  2  0
 33 34  1  0
 19  3  1  0
 33 22  1  0
 13  5  1  0
M  END
>  <cnnaffinity>  (1) 
-6.02111

>  <filename>  (1) 
Cc1cc(C=C2CCN=C2c2cccnc2)ccn1

$$$$
