
     RDKit          3D

 38 40  0  0  0  0  0  0  0  0999 V2000
    4.9727    1.8627   16.9156 H   0  0  0  0  0  0  0  0  0  0  0  0
    5.4135    1.3380   17.7611 C   0  0  0  0  0  0  0  0  0  0  0  0
    6.5787    0.7148   17.5249 N   0  0  0  0  0  0  0  0  0  0  0  0
    7.1479    0.0694   18.5514 C   0  0  0  0  0  0  0  0  0  0  0  0
    8.0994   -0.4187   18.3328 H   0  0  0  0  0  0  0  0  0  0  0  0
    6.5950   -0.0045   19.8496 C   0  0  0  0  0  0  0  0  0  0  0  0
    7.3019   -0.7156   20.9995 C   0  0  2  0  0  0  0  0  0  0  0  0
    8.1331   -1.2839   20.5662 H   0  0  0  0  0  0  0  0  0  0  0  0
    6.4590   -1.7702   21.7391 C   0  0  0  0  0  0  0  0  0  0  0  0
    5.8029   -2.6766   21.2755 O   0  0  0  0  0  0  0  0  0  0  0  0
    6.5801   -1.5371   23.0812 N   0  0  0  0  0  0  0  0  0  0  0  0
    5.8271   -1.9654   23.6029 H   0  0  0  0  0  0  0  0  0  0  0  0
    7.0344   -0.1942   23.3918 C   0  0  0  0  0  0  0  0  0  0  0  0
    6.1918    0.4922   23.5804 H   0  0  0  0  0  0  0  0  0  0  0  0
    7.6580   -0.1950   24.2955 H   0  0  0  0  0  0  0  0  0  0  0  0
    7.8078    0.2381   22.1253 C   0  0  1  0  0  0  0  0  0  0  0  0
    7.5537    1.2800   21.8965 H   0  0  0  0  0  0  0  0  0  0  0  0
    9.3112    0.1812   22.2892 C   0  0  0  0  0  0  0  0  0  0  0  0
    9.9849   -1.0139   22.5632 C   0  0  0  0  0  0  0  0  0  0  0  0
    9.4465   -1.9452   22.7241 H   0  0  0  0  0  0  0  0  0  0  0  0
   11.3748   -1.0248   22.6553 C   0  0  0  0  0  0  0  0  0  0  0  0
   11.8775   -1.9799   22.7882 H   0  0  0  0  0  0  0  0  0  0  0  0
   12.1362    0.1474   22.5220 C   0  0  0  0  0  0  0  0  0  0  0  0
   13.6344    0.1010   22.7118 C   0  0  0  0  0  0  0  0  0  0  0  0
   13.9826   -0.9220   22.8711 H   0  0  0  0  0  0  0  0  0  0  0  0
   13.9576    0.6925   23.5782 H   0  0  0  0  0  0  0  0  0  0  0  0
   14.1746    0.4908   21.8442 H   0  0  0  0  0  0  0  0  0  0  0  0
   11.4589    1.3630   22.2398 C   0  0  0  0  0  0  0  0  0  0  0  0
   12.1743    2.6853   22.0538 C   0  0  0  0  0  0  0  0  0  0  0  0
   13.0392    2.7789   22.7160 H   0  0  0  0  0  0  0  0  0  0  0  0
   11.5116    3.5304   22.2699 H   0  0  0  0  0  0  0  0  0  0  0  0
   12.5289    2.8273   21.0254 H   0  0  0  0  0  0  0  0  0  0  0  0
   10.0660    1.3520   22.1384 C   0  0  0  0  0  0  0  0  0  0  0  0
    9.5488    2.2916   21.9447 H   0  0  0  0  0  0  0  0  0  0  0  0
    5.3783    0.6502   20.0652 C   0  0  0  0  0  0  0  0  0  0  0  0
    4.9130    0.6374   21.0543 H   0  0  0  0  0  0  0  0  0  0  0  0
    4.7758    1.3317   19.0056 C   0  0  0  0  0  0  0  0  0  0  0  0
    3.8421    1.8655   19.1329 H   0  0  0  0  0  0  0  0  0  0  0  0
  1  2  1  0
  2  3  2  0
  3  4  1  0
  4  5  1  0
  4  6  2  0
  6  7  1  0
  7  8  1  6
  7  9  1  0
  9 10  2  0
  9 11  1  0
 11 12  1  0
 11 13  1  0
 13 14  1  0
 13 15  1  0
 13 16  1  0
 16 17  1  6
 16 18  1  0
 18 19  2  0
 19 20  1  0
 19 21  1  0
 21 22  1  0
 21 23  2  0
 23 24  1  0
 24 25  1  0
 24 26  1  0
 24 27  1  0
 23 28  1  0
 28 29  1  0
 29 30  1  0
 29 31  1  0
 29 32  1  0
 28 33  2  0
 33 34  1  0
  6 35  1  0
 35 36  1  0
 35 37  2  0
 37 38  1  0
 37  2  1  0
 16  7  1  0
 33 18  1  0
M  END
>  <cnnaffinity>  (1) 
-5.30432

>  <filename>  (1) 
Cc1ccc([C@@H]2CNC(=O)[C@H]2c2cccnc2)cc1C

$$$$
