
     RDKit          3D

 37 40  0  0  0  0  0  0  0  0999 V2000
    4.9904    2.1597   16.3393 H   0  0  0  0  0  0  0  0  0  0  0  0
    5.1357    1.6270   17.2786 C   0  0  0  0  0  0  0  0  0  0  0  0
    6.1418    0.7381   17.3095 N   0  0  0  0  0  0  0  0  0  0  0  0
    6.3817    0.1214   18.4748 C   0  0  0  0  0  0  0  0  0  0  0  0
    7.2277   -0.5726   18.4819 H   0  0  0  0  0  0  0  0  0  0  0  0
    5.6551    0.3564   19.6556 C   0  0  0  0  0  0  0  0  0  0  0  0
    6.1379   -0.1738   20.9825 C   0  0  1  0  0  0  0  0  0  0  0  0
    5.4936    0.2298   21.7657 H   0  0  0  0  0  0  0  0  0  0  0  0
    6.1226   -1.7353   21.0911 C   0  0  0  0  0  0  0  0  0  0  0  0
    5.5273   -2.0673   21.9460 H   0  0  0  0  0  0  0  0  0  0  0  0
    5.6781   -2.2187   20.2172 H   0  0  0  0  0  0  0  0  0  0  0  0
    7.5705   -2.0742   21.2849 C   0  0  0  0  0  0  0  0  0  0  0  0
    8.2420   -3.2042   21.4110 N   0  0  0  0  0  0  0  0  0  0  0  0
    9.5232   -2.7848   21.5663 N   0  0  0  0  0  0  0  0  0  0  0  0
   10.2406   -3.4563   21.8071 H   0  0  0  0  0  0  0  0  0  0  0  0
    9.6702   -1.4270   21.5463 C   0  0  0  0  0  0  0  0  0  0  0  0
   10.9374   -0.7082   21.7241 C   0  0  0  0  0  0  0  0  0  0  0  0
   12.1841   -1.3458   21.9025 C   0  0  0  0  0  0  0  0  0  0  0  0
   12.2729   -2.4298   21.8339 H   0  0  0  0  0  0  0  0  0  0  0  0
   13.3164   -0.7038   22.2017 N   0  0  0  0  0  0  0  0  0  0  0  0
   13.2692    0.6308   22.3450 C   0  0  0  0  0  0  0  0  0  0  0  0
   14.4915    1.3008   22.8773 C   0  0  0  0  0  0  0  0  0  0  0  0
   14.8354    0.7095   23.7279 H   0  0  0  0  0  0  0  0  0  0  0  0
   15.3219    1.3462   22.1652 H   0  0  0  0  0  0  0  0  0  0  0  0
   14.2327    2.3170   23.1902 H   0  0  0  0  0  0  0  0  0  0  0  0
   12.1036    1.3662   22.0974 C   0  0  0  0  0  0  0  0  0  0  0  0
   12.1278    2.4446   22.2056 H   0  0  0  0  0  0  0  0  0  0  0  0
   10.9277    0.6981   21.7842 C   0  0  0  0  0  0  0  0  0  0  0  0
   10.0089    1.2654   21.6381 H   0  0  0  0  0  0  0  0  0  0  0  0
    8.3843   -0.9521   21.3766 C   0  0  0  0  0  0  0  0  0  0  0  0
    7.5962    0.3136   21.2952 C   0  0  0  0  0  0  0  0  0  0  0  0
    7.6188    0.8939   22.2289 H   0  0  0  0  0  0  0  0  0  0  0  0
    8.0003    0.9804   20.5213 H   0  0  0  0  0  0  0  0  0  0  0  0
    4.5490    1.2124   19.5699 C   0  0  0  0  0  0  0  0  0  0  0  0
    3.9246    1.3766   20.4487 H   0  0  0  0  0  0  0  0  0  0  0  0
    4.2928    1.8658   18.3671 C   0  0  0  0  0  0  0  0  0  0  0  0
    3.4800    2.5761   18.2729 H   0  0  0  0  0  0  0  0  0  0  0  0
  1  2  1  0
  2  3  2  0
  3  4  1  0
  4  5  1  0
  4  6  2  0
  6  7  1  0
  7  8  1  1
  7  9  1  0
  9 10  1  0
  9 11  1  0
  9 12  1  0
 12 13  2  0
 13 14  1  0
 14 15  1  0
 14 16  1  0
 16 17  1  0
 17 18  2  0
 18 19  1  0
 18 20  1  0
 20 21  2  0
 21 22  1  0
 22 23  1  0
 22 24  1  0
 22 25  1  0
 21 26  1  0
 26 27  1  0
 26 28  2  0
 28 29  1  0
 16 30  2  0
 30 31  1  0
 31 32  1  0
 31 33  1  0
  6 34  1  0
 34 35  1  0
 34 36  2  0
 36 37  1  0
 36  2  1  0
 31  7  1  0
 30 12  1  0
 28 17  1  0
M  END
>  <cnnaffinity>  (1) 
-5.73451

>  <filename>  (1) 
Cc1ccc(-c2[nH]nc3c2C[C@@H](c2cccnc2)C3)cn1

$$$$
