
     RDKit          3D

 31 34  0  0  0  0  0  0  0  0999 V2000
    4.9171    1.7768   17.0009 H   0  0  0  0  0  0  0  0  0  0  0  0
    5.4038    1.2905   17.8419 C   0  0  0  0  0  0  0  0  0  0  0  0
    6.5687    0.6775   17.5777 N   0  0  0  0  0  0  0  0  0  0  0  0
    7.1739    0.0562   18.5910 C   0  0  0  0  0  0  0  0  0  0  0  0
    8.1232   -0.4340   18.3737 H   0  0  0  0  0  0  0  0  0  0  0  0
    6.6498    0.0110   19.8944 C   0  0  0  0  0  0  0  0  0  0  0  0
    7.4063   -0.6986   20.9259 C   0  0  0  0  0  0  0  0  0  0  0  0
    8.3360   -1.5970   20.7111 N   0  0  0  0  0  0  0  0  0  0  0  0
    8.8403   -2.0233   21.9197 N   0  0  0  0  0  0  0  0  0  0  0  0
    8.2092   -1.3395   22.8366 C   0  0  0  0  0  0  0  0  0  0  0  0
    8.2771   -1.0283   24.5518 S   0  0  0  0  0  0  0  0  0  0  0  0
    7.0551    0.2369   24.3177 C   0  0  0  0  0  0  0  0  0  0  0  0
    6.6162    1.0366   25.5056 C   0  0  0  0  0  0  0  0  0  0  0  0
    7.3220    0.8556   26.6506 N   0  0  0  0  0  0  0  0  0  0  0  0
    6.9911    1.5718   27.7299 C   0  0  0  0  0  0  0  0  0  0  0  0
    7.5787    1.4143   28.6294 H   0  0  0  0  0  0  0  0  0  0  0  0
    5.9383    2.4923   27.7436 C   0  0  0  0  0  0  0  0  0  0  0  0
    5.6971    3.0515   28.6407 H   0  0  0  0  0  0  0  0  0  0  0  0
    5.1994    2.6664   26.5775 C   0  0  0  0  0  0  0  0  0  0  0  0
    4.3687    3.3715   26.5483 H   0  0  0  0  0  0  0  0  0  0  0  0
    5.5149    1.9346   25.4277 C   0  0  0  0  0  0  0  0  0  0  0  0
    4.6841    2.1342   24.1868 C   0  0  0  0  0  0  0  0  0  0  0  0
    3.8361    2.7967   24.3762 H   0  0  0  0  0  0  0  0  0  0  0  0
    5.2863    2.5626   23.3821 H   0  0  0  0  0  0  0  0  0  0  0  0
    4.3070    1.1773   23.8225 H   0  0  0  0  0  0  0  0  0  0  0  0
    6.6378    0.3763   23.0887 N   0  0  0  0  0  0  0  0  0  0  0  0
    7.2774   -0.5171   22.2863 N   0  0  0  0  0  0  0  0  0  0  0  0
    5.4348    0.6524   20.1588 C   0  0  0  0  0  0  0  0  0  0  0  0
    5.0080    0.6313   21.1640 H   0  0  0  0  0  0  0  0  0  0  0  0
    4.8041    1.3087   19.1078 C   0  0  0  0  0  0  0  0  0  0  0  0
    3.8733    1.8431   19.2612 H   0  0  0  0  0  0  0  0  0  0  0  0
  1  2  1  0
  2  3  2  0
  3  4  1  0
  4  5  1  0
  4  6  2  0
  6  7  1  0
  7  8  2  0
  8  9  1  0
  9 10  2  0
 10 11  1  0
 11 12  1  0
 12 13  1  0
 13 14  2  0
 14 15  1  0
 15 16  1  0
 15 17  2  0
 17 18  1  0
 17 19  1  0
 19 20  1  0
 19 21  2  0
 21 22  1  0
 22 23  1  0
 22 24  1  0
 22 25  1  0
 12 26  2  0
 26 27  1  0
  6 28  1  0
 28 29  1  0
 28 30  2  0
 30 31  1  0
 30  2  1  0
 27  7  1  0
 27 10  1  0
 21 13  1  0
M  END
>  <cnnaffinity>  (1) 
-5.29471

>  <filename>  (1) 
Cc1cccnc1-c1nn2c(-c3cccnc3)nnc2s1

$$$$
