
     RDKit          3D

 34 36  0  0  0  0  0  0  0  0999 V2000
    4.9226    1.8121   16.9638 H   0  0  0  0  0  0  0  0  0  0  0  0
    5.3859    1.3082   17.8094 C   0  0  0  0  0  0  0  0  0  0  0  0
    6.5488    0.6840   17.5532 N   0  0  0  0  0  0  0  0  0  0  0  0
    7.1505    0.0689   18.5813 C   0  0  0  0  0  0  0  0  0  0  0  0
    8.0998   -0.4203   18.3586 H   0  0  0  0  0  0  0  0  0  0  0  0
    6.6347    0.0091   19.8927 C   0  0  0  0  0  0  0  0  0  0  0  0
    7.3576   -0.7101   20.9740 C   0  0  0  0  0  0  0  0  0  0  0  0
    8.7641   -0.5611   21.1464 C   0  0  0  0  0  0  0  0  0  0  0  0
    9.3034    0.0884   20.4629 H   0  0  0  0  0  0  0  0  0  0  0  0
    9.4564   -1.1947   22.1584 C   0  0  0  0  0  0  0  0  0  0  0  0
   10.9143   -1.0220   22.3264 C   0  0  0  0  0  0  0  0  0  0  0  0
   11.7322   -2.1442   22.1433 C   0  0  0  0  0  0  0  0  0  0  0  0
   11.2311   -3.1029   22.0798 H   0  0  0  0  0  0  0  0  0  0  0  0
   13.1220   -2.0196   22.1282 C   0  0  0  0  0  0  0  0  0  0  0  0
   13.7583   -2.8862   21.9662 H   0  0  0  0  0  0  0  0  0  0  0  0
   13.7074   -0.7913   22.4444 C   0  0  0  0  0  0  0  0  0  0  0  0
   14.7876   -0.7210   22.5591 H   0  0  0  0  0  0  0  0  0  0  0  0
   12.8968    0.3228   22.6927 C   0  0  0  0  0  0  0  0  0  0  0  0
   13.3502    1.2719   22.9788 H   0  0  0  0  0  0  0  0  0  0  0  0
   11.4982    0.2355   22.6179 C   0  0  0  0  0  0  0  0  0  0  0  0
   10.6480    1.4613   22.8726 C   0  0  0  0  0  0  0  0  0  0  0  0
    9.7400    1.1944   23.4233 H   0  0  0  0  0  0  0  0  0  0  0  0
   10.3238    1.9085   21.9253 H   0  0  0  0  0  0  0  0  0  0  0  0
   11.1940    2.2182   23.4413 H   0  0  0  0  0  0  0  0  0  0  0  0
    8.7353   -2.1071   23.0583 C   0  0  0  0  0  0  0  0  0  0  0  0
    9.1405   -2.7927   23.9849 O   0  0  0  0  0  0  0  0  0  0  0  0
    7.3666   -2.1881   22.8119 N   0  0  0  0  0  0  0  0  0  0  0  0
    6.9776   -2.7803   23.5322 H   0  0  0  0  0  0  0  0  0  0  0  0
    6.6844   -1.5286   21.8381 C   0  0  0  0  0  0  0  0  0  0  0  0
    5.6155   -1.6958   21.7655 H   0  0  0  0  0  0  0  0  0  0  0  0
    5.4134    0.6646   20.1255 C   0  0  0  0  0  0  0  0  0  0  0  0
    4.9867    0.6729   21.1275 H   0  0  0  0  0  0  0  0  0  0  0  0
    4.7823    1.3280   19.0730 C   0  0  0  0  0  0  0  0  0  0  0  0
    3.8509    1.8663   19.2187 H   0  0  0  0  0  0  0  0  0  0  0  0
  1  2  1  0
  2  3  2  0
  3  4  1  0
  4  5  1  0
  4  6  2  0
  6  7  1  0
  7  8  1  0
  8  9  1  0
  8 10  2  0
 10 11  1  0
 11 12  2  0
 12 13  1  0
 12 14  1  0
 14 15  1  0
 14 16  2  0
 16 17  1  0
 16 18  1  0
 18 19  1  0
 18 20  2  0
 20 21  1  0
 21 22  1  0
 21 23  1  0
 21 24  1  0
 10 25  1  0
 25 26  2  0
 25 27  1  0
 27 28  1  0
 27 29  1  0
 29 30  1  0
  6 31  1  0
 31 32  1  0
 31 33  2  0
 33 34  1  0
 33  2  1  0
 29  7  2  0
 20 11  1  0
M  END
>  <cnnaffinity>  (1) 
-5.63921

>  <filename>  (1) 
Cc1ccccc1-c1cc(-c2cccnc2)c[nH]c1=O

$$$$
