
     RDKit          3D

 33 35  0  0  0  0  0  0  0  0999 V2000
    4.9030    1.8254   16.9574 H   0  0  0  0  0  0  0  0  0  0  0  0
    5.3866    1.3268   17.7947 C   0  0  0  0  0  0  0  0  0  0  0  0
    6.5510    0.7194   17.5176 N   0  0  0  0  0  0  0  0  0  0  0  0
    7.1802    0.1112   18.5310 C   0  0  0  0  0  0  0  0  0  0  0  0
    8.1177   -0.3822   18.2775 H   0  0  0  0  0  0  0  0  0  0  0  0
    6.6865    0.0367   19.8558 C   0  0  0  0  0  0  0  0  0  0  0  0
    7.4409   -0.6744   20.9357 C   0  0  0  0  0  0  0  0  0  0  0  0
    8.7508   -0.4106   21.1579 C   0  0  0  0  0  0  0  0  0  0  0  0
    9.3080    0.3205   20.5659 H   0  0  0  0  0  0  0  0  0  0  0  0
    9.4503   -1.0413   22.1746 N   0  0  0  0  0  0  0  0  0  0  0  0
   10.8124   -0.7562   22.4292 C   0  0  0  0  0  0  0  0  0  0  0  0
   11.6443   -1.2764   21.5370 N   0  0  0  0  0  0  0  0  0  0  0  0
   12.9497   -1.0187   21.6922 C   0  0  0  0  0  0  0  0  0  0  0  0
   13.6053   -1.4205   20.9217 H   0  0  0  0  0  0  0  0  0  0  0  0
   13.4545   -0.2325   22.7273 C   0  0  0  0  0  0  0  0  0  0  0  0
   14.5188   -0.0380   22.7864 H   0  0  0  0  0  0  0  0  0  0  0  0
   12.5544    0.2911   23.6670 C   0  0  0  0  0  0  0  0  0  0  0  0
   12.8953    0.9129   24.4963 H   0  0  0  0  0  0  0  0  0  0  0  0
   11.1845    0.0338   23.5451 C   0  0  0  0  0  0  0  0  0  0  0  0
   10.1975    0.5973   24.5531 C   0  0  0  0  0  0  0  0  0  0  0  0
    9.2877    0.9611   24.0609 H   0  0  0  0  0  0  0  0  0  0  0  0
    9.9048   -0.1655   25.2843 H   0  0  0  0  0  0  0  0  0  0  0  0
   10.6483    1.4335   25.0960 H   0  0  0  0  0  0  0  0  0  0  0  0
    8.8957   -2.0027   23.0093 C   0  0  0  0  0  0  0  0  0  0  0  0
    9.4835   -2.5723   23.8991 O   0  0  0  0  0  0  0  0  0  0  0  0
    7.5889   -2.2367   22.7712 N   0  0  0  0  0  0  0  0  0  0  0  0
    7.1563   -2.9328   23.3461 H   0  0  0  0  0  0  0  0  0  0  0  0
    6.7942   -1.7320   21.7660 C   0  0  0  0  0  0  0  0  0  0  0  0
    5.6907   -2.2181   21.6377 O   0  0  0  0  0  0  0  0  0  0  0  0
    5.4522    0.6637   20.1059 C   0  0  0  0  0  0  0  0  0  0  0  0
    5.0235    0.6066   21.1062 H   0  0  0  0  0  0  0  0  0  0  0  0
    4.7972    1.3317   19.0631 C   0  0  0  0  0  0  0  0  0  0  0  0
    3.8538    1.8505   19.2135 H   0  0  0  0  0  0  0  0  0  0  0  0
  1  2  1  0
  2  3  2  0
  3  4  1  0
  4  5  1  0
  4  6  2  0
  6  7  1  0
  7  8  2  0
  8  9  1  0
  8 10  1  0
 10 11  1  0
 11 12  2  0
 12 13  1  0
 13 14  1  0
 13 15  2  0
 15 16  1  0
 15 17  1  0
 17 18  1  0
 17 19  2  0
 19 20  1  0
 20 21  1  0
 20 22  1  0
 20 23  1  0
 10 24  1  0
 24 25  2  0
 24 26  1  0
 26 27  1  0
 26 28  1  0
 28 29  2  0
  6 30  1  0
 30 31  1  0
 30 32  2  0
 32 33  1  0
 32  2  1  0
 28  7  1  0
 19 11  1  0
M  END
>  <cnnaffinity>  (1) 
-5.42307

>  <filename>  (1) 
Cc1cccnc1-n1cc(-c2cccnc2)c(=O)[nH]c1=O

$$$$
