
     RDKit          3D

 37 39  0  0  0  0  0  0  0  0999 V2000
    8.7931   -3.5632   26.6493 C   0  0  0  0  0  0  0  0  0  0  0  0
    8.0522   -2.5934   25.7718 C   0  0  0  0  0  0  0  0  0  0  0  0
    6.6606   -2.4119   25.9725 C   0  0  0  0  0  0  0  0  0  0  0  0
    5.9372   -1.5595   25.2297 N   0  0  0  0  0  0  0  0  0  0  0  0
    6.6059   -0.8903   24.2755 C   0  0  0  0  0  0  0  0  0  0  0  0
    8.0218   -1.0500   24.0721 C   0  0  0  0  0  0  0  0  0  0  0  0
    8.7236   -0.3611   23.1160 N   0  0  0  0  0  0  0  0  0  0  0  0
   10.1663   -0.1602   23.2120 C   0  0  0  0  0  0  0  0  0  0  0  0
   10.4416    0.9932   22.2367 C   0  0  0  0  0  0  0  0  0  0  0  0
    9.2678    0.9852   21.2474 C   0  0  0  0  0  0  0  0  0  0  0  0
    8.0981    0.2834   21.9621 C   0  0  0  0  0  0  0  0  0  0  0  0
    7.3712   -0.7151   21.0228 C   0  0  0  0  0  0  0  0  0  0  0  0
    6.6389   -0.0275   19.8846 C   0  0  0  0  0  0  0  0  0  0  0  0
    5.4303    0.6442   20.1271 C   0  0  0  0  0  0  0  0  0  0  0  0
    4.7926    1.3151   19.0797 C   0  0  0  0  0  0  0  0  0  0  0  0
    5.3913    1.3059   17.8162 C   0  0  0  0  0  0  0  0  0  0  0  0
    6.5506    0.6848   17.5559 N   0  0  0  0  0  0  0  0  0  0  0  0
    7.1520    0.0520   18.5744 C   0  0  0  0  0  0  0  0  0  0  0  0
    8.1041   -0.4210   18.3300 H   0  0  0  0  0  0  0  0  0  0  0  0
    4.9218    1.8156   16.9749 H   0  0  0  0  0  0  0  0  0  0  0  0
    3.8625    1.8548   19.2314 H   0  0  0  0  0  0  0  0  0  0  0  0
    5.0040    0.6452   21.1333 H   0  0  0  0  0  0  0  0  0  0  0  0
    6.6665   -1.3100   21.6137 H   0  0  0  0  0  0  0  0  0  0  0  0
    8.1202   -1.4212   20.6424 H   0  0  0  0  0  0  0  0  0  0  0  0
    7.3632    1.0279   22.3129 H   0  0  0  0  0  0  0  0  0  0  0  0
    9.5247    0.4291   20.3363 H   0  0  0  0  0  0  0  0  0  0  0  0
    8.9788    1.9899   20.9256 H   0  0  0  0  0  0  0  0  0  0  0  0
   11.4036    0.8684   21.7314 H   0  0  0  0  0  0  0  0  0  0  0  0
   10.4789    1.9453   22.7771 H   0  0  0  0  0  0  0  0  0  0  0  0
   10.4626    0.0774   24.2432 H   0  0  0  0  0  0  0  0  0  0  0  0
   10.6964   -1.0851   22.9453 H   0  0  0  0  0  0  0  0  0  0  0  0
    8.7402   -1.8911   24.8556 N   0  0  0  0  0  0  0  0  0  0  0  0
    6.0231   -0.2056   23.6632 H   0  0  0  0  0  0  0  0  0  0  0  0
    6.1371   -2.9537   26.7594 H   0  0  0  0  0  0  0  0  0  0  0  0
    9.8482   -3.6370   26.3732 H   0  0  0  0  0  0  0  0  0  0  0  0
    8.7055   -3.2178   27.6816 H   0  0  0  0  0  0  0  0  0  0  0  0
    8.3367   -4.5607   26.6171 H   0  0  0  0  0  0  0  0  0  0  0  0
  1  2  1  0
  2  3  2  0
  3  4  1  0
  4  5  2  0
  5  6  1  0
  6  7  1  0
  7  8  1  0
  8  9  1  0
  9 10  1  0
 10 11  1  0
 11 12  1  0
 12 13  1  0
 13 14  2  0
 14 15  1  0
 15 16  2  0
 16 17  1  0
 17 18  2  0
 18 19  1  0
 16 20  1  0
 15 21  1  0
 14 22  1  0
 12 23  1  0
 12 24  1  0
 11 25  1  0
 10 26  1  0
 10 27  1  0
  9 28  1  0
  9 29  1  0
  8 30  1  0
  8 31  1  0
  6 32  2  0
  5 33  1  0
  3 34  1  0
  1 35  1  0
  1 36  1  0
  1 37  1  0
 32  2  1  0
 11  7  1  0
 18 13  1  0
M  END
>  <cnnaffinity>  (1) 
-5.10265

>  <filename>  (1) 
Cc1cncc(N2CCCC2Cc2cccnc2)n1

$$$$
