
     RDKit          3D

 37 39  0  0  0  0  0  0  0  0999 V2000
    5.0357    2.1019   16.8963 H   0  0  0  0  0  0  0  0  0  0  0  0
    5.3808    1.3723   17.6263 C   0  0  0  0  0  0  0  0  0  0  0  0
    6.4801    0.6735   17.2974 N   0  0  0  0  0  0  0  0  0  0  0  0
    6.9431   -0.2018   18.1994 C   0  0  0  0  0  0  0  0  0  0  0  0
    7.8331   -0.7646   17.9237 H   0  0  0  0  0  0  0  0  0  0  0  0
    6.3491   -0.4233   19.4588 C   0  0  0  0  0  0  0  0  0  0  0  0
    6.9954   -1.2594   20.4480 N   0  0  0  0  0  0  0  0  0  0  0  0
    8.2186   -0.8314   20.9354 C   0  0  0  0  0  0  0  0  0  0  0  0
    8.6359    0.0481   20.4530 H   0  0  0  0  0  0  0  0  0  0  0  0
    8.8385   -1.4319   21.9970 C   0  0  0  0  0  0  0  0  0  0  0  0
   10.1898   -0.9909   22.4274 C   0  0  0  0  0  0  0  0  0  0  0  0
   11.3215   -1.1555   21.6198 C   0  0  0  0  0  0  0  0  0  0  0  0
   11.2413   -1.7308   20.7158 H   0  0  0  0  0  0  0  0  0  0  0  0
   12.5569   -0.6338   21.9927 C   0  0  0  0  0  0  0  0  0  0  0  0
   13.4385   -0.8030   21.3781 H   0  0  0  0  0  0  0  0  0  0  0  0
   12.7028    0.0848   23.1794 C   0  0  0  0  0  0  0  0  0  0  0  0
   14.0412    0.7266   23.4771 C   0  0  0  0  0  0  0  0  0  0  0  0
   13.9852    1.8114   23.6274 H   0  0  0  0  0  0  0  0  0  0  0  0
   14.7246    0.5783   22.6403 H   0  0  0  0  0  0  0  0  0  0  0  0
   14.5389    0.2932   24.3505 H   0  0  0  0  0  0  0  0  0  0  0  0
   11.5956    0.1431   24.0617 C   0  0  0  0  0  0  0  0  0  0  0  0
   11.7573    0.7386   25.4173 C   0  0  0  0  0  0  0  0  0  0  0  0
   11.0602    0.3270   26.1551 H   0  0  0  0  0  0  0  0  0  0  0  0
   11.6202    1.8277   25.4057 H   0  0  0  0  0  0  0  0  0  0  0  0
   12.7776    0.5301   25.7559 H   0  0  0  0  0  0  0  0  0  0  0  0
   10.3631   -0.3847   23.6736 C   0  0  0  0  0  0  0  0  0  0  0  0
    9.5194   -0.3414   24.3588 H   0  0  0  0  0  0  0  0  0  0  0  0
    8.1429   -2.4766   22.6851 C   0  0  0  0  0  0  0  0  0  0  0  0
    8.5815   -2.8729   23.6048 H   0  0  0  0  0  0  0  0  0  0  0  0
    6.9703   -2.9623   22.1923 C   0  0  0  0  0  0  0  0  0  0  0  0
    6.4442   -3.7996   22.6241 H   0  0  0  0  0  0  0  0  0  0  0  0
    6.3541   -2.4397   20.9756 C   0  0  0  0  0  0  0  0  0  0  0  0
    5.3941   -2.9675   20.4445 O   0  0  0  0  0  0  0  0  0  0  0  0
    5.1793    0.2782   19.7700 C   0  0  0  0  0  0  0  0  0  0  0  0
    4.6896    0.1174   20.7303 H   0  0  0  0  0  0  0  0  0  0  0  0
    4.6964    1.2045   18.8355 C   0  0  0  0  0  0  0  0  0  0  0  0
    3.8134    1.8005   19.0385 H   0  0  0  0  0  0  0  0  0  0  0  0
  1  2  1  0
  2  3  2  0
  3  4  1  0
  4  5  1  0
  4  6  2  0
  6  7  1  0
  7  8  1  0
  8  9  1  0
  8 10  2  0
 10 11  1  0
 11 12  2  0
 12 13  1  0
 12 14  1  0
 14 15  1  0
 14 16  2  0
 16 17  1  0
 17 18  1  0
 17 19  1  0
 17 20  1  0
 16 21  1  0
 21 22  1  0
 22 23  1  0
 22 24  1  0
 22 25  1  0
 21 26  2  0
 26 27  1  0
 10 28  1  0
 28 29  1  0
 28 30  2  0
 30 31  1  0
 30 32  1  0
 32 33  2  0
  6 34  1  0
 34 35  1  0
 34 36  2  0
 36 37  1  0
 36  2  1  0
 32  7  1  0
 26 11  1  0
M  END
>  <cnnaffinity>  (1) 
-5.14986

>  <filename>  (1) 
Cc1ccc(-c2ccc(=O)n(-c3cccnc3)c2)cc1C

$$$$
