
     RDKit          3D

 37 38  0  0  0  0  0  0  0  0999 V2000
    8.4118    1.4493   26.3311 C   0  0  0  0  0  0  0  0  0  0  0  0
    9.2516    0.6420   25.3617 C   0  0  0  0  0  0  0  0  0  0  0  0
   10.7793    0.4679   25.5783 C   0  0  0  0  0  0  0  0  0  0  0  0
   10.8549    0.5890   25.5501 C   0  0  0  0  0  0  0  0  0  0  0  0
   10.9268   -0.4636   23.7541 C   0  0  0  0  0  0  0  0  0  0  0  0
    9.6535   -0.6277   23.3692 C   0  0  0  0  0  0  0  0  0  0  0  0
    9.1214   -1.4150   22.1302 C   0  0  0  0  0  0  0  0  0  0  0  0
   10.2660   -2.1071   21.3334 C   0  0  0  0  0  0  0  0  0  0  0  0
   10.7915   -2.8384   21.9563 H   0  0  0  0  0  0  0  0  0  0  0  0
   10.9828   -1.3654   20.9655 H   0  0  0  0  0  0  0  0  0  0  0  0
    9.8565   -2.6357   20.4699 H   0  0  0  0  0  0  0  0  0  0  0  0
    8.1362   -2.5440   22.5513 C   0  0  0  0  0  0  0  0  0  0  0  0
    8.6696   -3.2944   23.1446 H   0  0  0  0  0  0  0  0  0  0  0  0
    7.2976   -2.1966   23.1666 H   0  0  0  0  0  0  0  0  0  0  0  0
    7.7349   -3.0633   21.6708 H   0  0  0  0  0  0  0  0  0  0  0  0
    8.5189   -0.3712   21.1252 C   0  0  0  0  0  0  0  0  0  0  0  0
    9.2216    0.4878   20.6274 O   0  0  0  0  0  0  0  0  0  0  0  0
    7.1920   -0.5083   20.7603 N   0  0  0  0  0  0  0  0  0  0  0  0
    6.5489    0.1510   19.6776 C   0  0  0  0  0  0  0  0  0  0  0  0
    5.3063    0.7533   19.9050 C   0  0  0  0  0  0  0  0  0  0  0  0
    4.6946    1.4467   18.8553 C   0  0  0  0  0  0  0  0  0  0  0  0
    5.3298    1.4880   17.6083 C   0  0  0  0  0  0  0  0  0  0  0  0
    6.4960    0.8703   17.3546 N   0  0  0  0  0  0  0  0  0  0  0  0
    7.0921    0.2324   18.3722 C   0  0  0  0  0  0  0  0  0  0  0  0
    8.0454   -0.2464   18.1576 H   0  0  0  0  0  0  0  0  0  0  0  0
    4.8900    2.0374   16.7796 H   0  0  0  0  0  0  0  0  0  0  0  0
    3.7520    1.9650   18.9975 H   0  0  0  0  0  0  0  0  0  0  0  0
    4.8580    0.7026   20.8983 H   0  0  0  0  0  0  0  0  0  0  0  0
    6.5847   -1.0172   21.3780 H   0  0  0  0  0  0  0  0  0  0  0  0
    8.6941    0.0435   24.2483 C   0  0  0  0  0  0  0  0  0  0  0  0
    7.6325    0.0302   24.0627 H   0  0  0  0  0  0  0  0  0  0  0  0
   11.8010   -0.8391   23.2131 H   0  0  0  0  0  0  0  0  0  0  0  0
   11.9326    0.8212   25.0691 H   0  0  0  0  0  0  0  0  0  0  0  0
   10.8414    0.5901   26.8197 H   0  0  0  0  0  0  0  0  0  0  0  0
    8.8102    2.4747   26.4008 H   0  0  0  0  0  0  0  0  0  0  0  0
    8.3606    1.0329   27.3506 H   0  0  0  0  0  0  0  0  0  0  0  0
    7.3802    1.5044   25.9544 H   0  0  0  0  0  0  0  0  0  0  0  0
  1  2  1  0
  2  3  2  0
  3  4  1  0
  4  5  2  0
  5  6  1  0
  6  7  1  0
  7  8  1  0
  8  9  1  0
  8 10  1  0
  8 11  1  0
  7 12  1  0
 12 13  1  0
 12 14  1  0
 12 15  1  0
  7 16  1  0
 16 17  2  0
 16 18  1  0
 18 19  1  0
 19 20  2  0
 20 21  1  0
 21 22  2  0
 22 23  1  0
 23 24  2  0
 24 25  1  0
 22 26  1  0
 21 27  1  0
 20 28  1  0
 18 29  1  0
  6 30  2  0
 30 31  1  0
  5 32  1  0
  4 33  1  0
  3 34  1  0
  1 35  1  0
  1 36  1  0
  1 37  1  0
 30  2  1  0
 24 19  1  0
M  END
>  <cnnaffinity>  (1) 
-4.49792

>  <filename>  (1) 
Cc1cccc(C(C)(C)C(=O)Nc2cccnc2)c1

$$$$
