
     RDKit          3D

 34 36  0  0  0  0  0  0  0  0999 V2000
    5.0249    2.0891   16.9676 H   0  0  0  0  0  0  0  0  0  0  0  0
    5.4096    1.4023   17.7199 C   0  0  0  0  0  0  0  0  0  0  0  0
    6.5376    0.7432   17.4044 N   0  0  0  0  0  0  0  0  0  0  0  0
    7.0552   -0.0869   18.3172 C   0  0  0  0  0  0  0  0  0  0  0  0
    7.9804   -0.5953   18.0430 H   0  0  0  0  0  0  0  0  0  0  0  0
    6.4605   -0.3198   19.5744 C   0  0  0  0  0  0  0  0  0  0  0  0
    7.1194   -1.1063   20.5677 N   0  0  0  0  0  0  0  0  0  0  0  0
    8.3757   -0.7330   21.0464 C   0  0  0  0  0  0  0  0  0  0  0  0
    8.9006    0.1380   20.6974 H   0  0  0  0  0  0  0  0  0  0  0  0
    8.7058   -1.6011   22.0133 C   0  0  0  0  0  0  0  0  0  0  0  0
    9.8224   -1.7811   22.7904 N   0  0  0  0  0  0  0  0  0  0  0  0
   10.0337   -2.7563   22.9217 H   0  0  0  0  0  0  0  0  0  0  0  0
   10.9745   -1.0179   22.5189 C   0  0  0  0  0  0  0  0  0  0  0  0
   10.9552    0.3699   22.6677 C   0  0  0  0  0  0  0  0  0  0  0  0
   10.0120    0.8595   22.8979 H   0  0  0  0  0  0  0  0  0  0  0  0
   12.1537    1.0801   22.5940 C   0  0  0  0  0  0  0  0  0  0  0  0
   12.1591    2.1588   22.7388 H   0  0  0  0  0  0  0  0  0  0  0  0
   13.3663    0.4169   22.3559 C   0  0  0  0  0  0  0  0  0  0  0  0
   14.6634    1.1191   22.6245 C   0  0  0  0  0  0  0  0  0  0  0  0
   14.9160    0.8803   23.6587 H   0  0  0  0  0  0  0  0  0  0  0  0
   15.4742    0.7687   21.9829 H   0  0  0  0  0  0  0  0  0  0  0  0
   14.5895    2.2109   22.5486 H   0  0  0  0  0  0  0  0  0  0  0  0
   13.3407   -0.9510   22.0338 C   0  0  0  0  0  0  0  0  0  0  0  0
   14.2611   -1.4543   21.7340 H   0  0  0  0  0  0  0  0  0  0  0  0
   12.1509   -1.6694   22.1336 C   0  0  0  0  0  0  0  0  0  0  0  0
   12.1375   -2.7407   21.9784 H   0  0  0  0  0  0  0  0  0  0  0  0
    7.6646   -2.4787   22.1527 N   0  0  0  0  0  0  0  0  0  0  0  0
    7.4959   -3.1048   22.9180 H   0  0  0  0  0  0  0  0  0  0  0  0
    6.6510   -2.1908   21.2880 C   0  0  0  0  0  0  0  0  0  0  0  0
    5.2543   -3.0811   21.2367 S   0  0  0  0  0  0  0  0  0  0  0  0
    5.2645    0.3359   19.8788 C   0  0  0  0  0  0  0  0  0  0  0  0
    4.7887    0.1510   20.8424 H   0  0  0  0  0  0  0  0  0  0  0  0
    4.7439    1.2334   18.9400 C   0  0  0  0  0  0  0  0  0  0  0  0
    3.8548    1.8196   19.1473 H   0  0  0  0  0  0  0  0  0  0  0  0
  1  2  1  0
  2  3  2  0
  3  4  1  0
  4  5  1  0
  4  6  2  0
  6  7  1  0
  7  8  1  0
  8  9  1  0
  8 10  2  0
 10 11  1  0
 11 12  1  0
 11 13  1  0
 13 14  2  0
 14 15  1  0
 14 16  1  0
 16 17  1  0
 16 18  2  0
 18 19  1  0
 19 20  1  0
 19 21  1  0
 19 22  1  0
 18 23  1  0
 23 24  1  0
 23 25  2  0
 25 26  1  0
 10 27  1  0
 27 28  1  0
 27 29  1  0
 29 30  2  0
  6 31  1  0
 31 32  1  0
 31 33  2  0
 33 34  1  0
 33  2  1  0
 29  7  1  0
 25 13  1  0
M  END
>  <cnnaffinity>  (1) 
-5.68839

>  <filename>  (1) 
Cc1ccc(Nc2cn(-c3cccnc3)c(=S)[nH]2)cc1

$$$$
