
     RDKit          3D

 29 31  0  0  0  0  0  0  0  0999 V2000
    6.3060   -1.1300   27.6290 C   0  0  0  0  0  0  0  0  0  0  0  0
    7.1572   -1.7852   26.5689 C   0  0  0  0  0  0  0  0  0  0  0  0
    7.9952   -2.8655   26.8822 C   0  0  0  0  0  0  0  0  0  0  0  0
    8.7845   -3.4630   25.9037 C   0  0  0  0  0  0  0  0  0  0  0  0
    8.7294   -2.9949   24.5963 C   0  0  0  0  0  0  0  0  0  0  0  0
    7.8896   -1.9258   24.2448 C   0  0  0  0  0  0  0  0  0  0  0  0
    7.8747   -1.4856   22.8372 C   0  0  0  0  0  0  0  0  0  0  0  0
    6.9546   -0.7731   22.2533 N   0  0  0  0  0  0  0  0  0  0  0  0
    7.3867   -0.6855   20.9436 C   0  0  0  0  0  0  0  0  0  0  0  0
    6.6516    0.0134   19.9100 C   0  0  0  0  0  0  0  0  0  0  0  0
    5.4354    0.6507   20.1721 C   0  0  0  0  0  0  0  0  0  0  0  0
    4.8262    1.2990   19.1017 C   0  0  0  0  0  0  0  0  0  0  0  0
    5.4122    1.2887   17.8289 C   0  0  0  0  0  0  0  0  0  0  0  0
    6.5764    0.6594   17.5856 N   0  0  0  0  0  0  0  0  0  0  0  0
    7.1818    0.0471   18.6154 C   0  0  0  0  0  0  0  0  0  0  0  0
    8.1306   -0.4420   18.4155 H   0  0  0  0  0  0  0  0  0  0  0  0
    4.8958    1.8032   17.0214 H   0  0  0  0  0  0  0  0  0  0  0  0
    3.8914    1.8233   19.2521 H   0  0  0  0  0  0  0  0  0  0  0  0
    4.9852    0.6524   21.1714 H   0  0  0  0  0  0  0  0  0  0  0  0
    8.5158   -1.2943   20.7091 N   0  0  0  0  0  0  0  0  0  0  0  0
    8.8595   -1.8468   21.9598 O   0  0  0  0  0  0  0  0  0  0  0  0
    7.1106   -1.3111   25.2464 C   0  0  0  0  0  0  0  0  0  0  0  0
    6.0112    0.1981   24.8197 Br  0  0  0  0  0  0  0  0  0  0  0  0
    9.3517   -3.4740   23.8468 H   0  0  0  0  0  0  0  0  0  0  0  0
    9.4361   -4.2938   26.1605 H   0  0  0  0  0  0  0  0  0  0  0  0
    8.0430   -3.2554   27.8882 H   0  0  0  0  0  0  0  0  0  0  0  0
    6.6217   -0.0965   27.7885 H   0  0  0  0  0  0  0  0  0  0  0  0
    5.2518   -1.1514   27.3506 H   0  0  0  0  0  0  0  0  0  0  0  0
    6.3709   -1.6434   28.5768 H   0  0  0  0  0  0  0  0  0  0  0  0
  1  2  1  0
  2  3  2  0
  3  4  1  0
  4  5  2  0
  5  6  1  0
  6  7  1  0
  7  8  2  0
  8  9  1  0
  9 10  1  0
 10 11  2  0
 11 12  1  0
 12 13  2  0
 13 14  1  0
 14 15  2  0
 15 16  1  0
 13 17  1  0
 12 18  1  0
 11 19  1  0
  9 20  2  0
 20 21  1  0
  6 22  2  0
 22 23  1  0
  5 24  1  0
  4 25  1  0
  3 26  1  0
  1 27  1  0
  1 28  1  0
  1 29  1  0
 22  2  1  0
 21  7  1  0
 15 10  1  0
M  END
>  <cnnaffinity>  (1) 
-5.1907

>  <filename>  (1) 
Cc1cccc(-c2nc(-c3cccnc3)no2)c1Br

$$$$
