
     RDKit          3D

 32 34  0  0  0  0  0  0  0  0999 V2000
    4.9307    1.8404   16.9475 H   0  0  0  0  0  0  0  0  0  0  0  0
    5.3941    1.3222   17.7840 C   0  0  0  0  0  0  0  0  0  0  0  0
    6.5515    0.6923   17.5201 N   0  0  0  0  0  0  0  0  0  0  0  0
    7.1369    0.0560   18.5403 C   0  0  0  0  0  0  0  0  0  0  0  0
    8.0760   -0.4462   18.3067 H   0  0  0  0  0  0  0  0  0  0  0  0
    6.6216   -0.0138   19.8543 C   0  0  0  0  0  0  0  0  0  0  0  0
    7.3730   -0.7101   20.9407 C   0  0  0  0  0  0  0  0  0  0  0  0
    6.7632   -1.5702   21.8833 C   0  0  0  0  0  0  0  0  0  0  0  0
    5.6921   -1.7698   21.8386 H   0  0  0  0  0  0  0  0  0  0  0  0
    7.4432   -2.2383   22.8246 N   0  0  0  0  0  0  0  0  0  0  0  0
    8.7649   -2.0354   22.9085 C   0  0  0  0  0  0  0  0  0  0  0  0
    9.2873   -2.6077   23.6759 H   0  0  0  0  0  0  0  0  0  0  0  0
    9.4580   -1.1554   22.0805 C   0  0  0  0  0  0  0  0  0  0  0  0
   10.9140   -1.0047   22.2715 C   0  0  0  0  0  0  0  0  0  0  0  0
   11.6503   -1.5135   21.2770 N   0  0  0  0  0  0  0  0  0  0  0  0
   12.9756   -1.3657   21.3258 C   0  0  0  0  0  0  0  0  0  0  0  0
   13.5259   -1.8202   20.5047 H   0  0  0  0  0  0  0  0  0  0  0  0
   13.6171   -0.6220   22.3220 C   0  0  0  0  0  0  0  0  0  0  0  0
   14.6887   -0.4723   22.2867 H   0  0  0  0  0  0  0  0  0  0  0  0
   12.8506   -0.1097   23.3712 C   0  0  0  0  0  0  0  0  0  0  0  0
   13.3273    0.4617   24.1734 H   0  0  0  0  0  0  0  0  0  0  0  0
   11.4773   -0.3856   23.4249 C   0  0  0  0  0  0  0  0  0  0  0  0
   10.6768   -0.1148   24.6838 C   0  0  0  0  0  0  0  0  0  0  0  0
   10.4036   -1.0511   25.1891 H   0  0  0  0  0  0  0  0  0  0  0  0
    9.7349    0.3907   24.4498 H   0  0  0  0  0  0  0  0  0  0  0  0
   11.2472    0.4766   25.4059 H   0  0  0  0  0  0  0  0  0  0  0  0
    8.7585   -0.5308   21.0445 C   0  0  0  0  0  0  0  0  0  0  0  0
    9.2761    0.1011   20.3216 H   0  0  0  0  0  0  0  0  0  0  0  0
    5.4072    0.6475   20.0976 C   0  0  0  0  0  0  0  0  0  0  0  0
    4.9870    0.6590   21.1037 H   0  0  0  0  0  0  0  0  0  0  0  0
    4.7895    1.3236   19.0437 C   0  0  0  0  0  0  0  0  0  0  0  0
    3.8582    1.8598   19.1919 H   0  0  0  0  0  0  0  0  0  0  0  0
  1  2  1  0
  2  3  2  0
  3  4  1  0
  4  5  1  0
  4  6  2  0
  6  7  1  0
  7  8  2  0
  8  9  1  0
  8 10  1  0
 10 11  2  0
 11 12  1  0
 11 13  1  0
 13 14  1  0
 14 15  2  0
 15 16  1  0
 16 17  1  0
 16 18  2  0
 18 19  1  0
 18 20  1  0
 20 21  1  0
 20 22  2  0
 22 23  1  0
 23 24  1  0
 23 25  1  0
 23 26  1  0
 13 27  2  0
 27 28  1  0
  6 29  1  0
 29 30  1  0
 29 31  2  0
 31 32  1  0
 31  2  1  0
 27  7  1  0
 22 14  1  0
M  END
>  <cnnaffinity>  (1) 
-5.68813

>  <filename>  (1) 
Cc1cccnc1-c1cncc(-c2cccnc2)c1

$$$$
