
     RDKit          3D

 40 43  0  0  0  0  0  0  0  0999 V2000
    5.0019    1.8073   16.8799 H   0  0  0  0  0  0  0  0  0  0  0  0
    5.4866    1.3246   17.7273 C   0  0  0  0  0  0  0  0  0  0  0  0
    6.6590    0.7204   17.4808 N   0  0  0  0  0  0  0  0  0  0  0  0
    7.2797    0.1190   18.5012 C   0  0  0  0  0  0  0  0  0  0  0  0
    8.2310   -0.3549   18.2634 H   0  0  0  0  0  0  0  0  0  0  0  0
    6.7606    0.0728   19.8097 C   0  0  0  0  0  0  0  0  0  0  0  0
    7.4105   -0.7109   20.8754 C   0  0  0  0  0  0  0  0  0  0  0  0
    8.6127   -1.2902   20.7285 N   0  0  0  0  0  0  0  0  0  0  0  0
    8.7583   -1.9514   21.8934 N   0  0  0  0  0  0  0  0  0  0  0  0
    9.7628   -2.7336   22.4394 C   0  0  0  0  0  0  0  0  0  0  0  0
   10.7088   -2.8140   21.9291 H   0  0  0  0  0  0  0  0  0  0  0  0
    9.2736   -3.2164   23.6094 C   0  0  0  0  0  0  0  0  0  0  0  0
    9.6707   -3.9039   24.3425 H   0  0  0  0  0  0  0  0  0  0  0  0
    8.0033   -2.6862   23.8003 N   0  0  0  0  0  0  0  0  0  0  0  0
    7.0643   -3.1971   24.7056 N   0  0  0  0  0  0  0  0  0  0  0  0
    7.4951   -3.5867   25.5401 H   0  0  0  0  0  0  0  0  0  0  0  0
    6.0808   -2.1681   25.6566 S   0  0  0  0  0  0  0  0  0  0  0  0
    4.7224   -2.2071   25.1790 O   0  0  0  0  0  0  0  0  0  0  0  0
    6.4763   -2.7174   26.9453 O   0  0  0  0  0  0  0  0  0  0  0  0
    6.7452   -0.5208   25.5119 C   0  0  0  0  0  0  0  0  0  0  0  0
    5.9307    0.5154   25.0321 C   0  0  0  0  0  0  0  0  0  0  0  0
    4.9137    0.3159   24.6910 H   0  0  0  0  0  0  0  0  0  0  0  0
    6.4325    1.8175   24.9991 C   0  0  0  0  0  0  0  0  0  0  0  0
    5.8025    2.6117   24.6146 H   0  0  0  0  0  0  0  0  0  0  0  0
    7.7237    2.1224   25.4596 C   0  0  0  0  0  0  0  0  0  0  0  0
    8.2557    3.5365   25.4596 C   0  0  0  0  0  0  0  0  0  0  0  0
    9.3434    3.5556   25.3310 H   0  0  0  0  0  0  0  0  0  0  0  0
    8.0354    4.0388   26.4083 H   0  0  0  0  0  0  0  0  0  0  0  0
    7.8146    4.1403   24.6595 H   0  0  0  0  0  0  0  0  0  0  0  0
    8.5129    1.0629   25.9320 C   0  0  0  0  0  0  0  0  0  0  0  0
    9.5143    1.2771   26.2930 H   0  0  0  0  0  0  0  0  0  0  0  0
    8.0463   -0.2513   25.9535 C   0  0  0  0  0  0  0  0  0  0  0  0
    8.7050   -1.0299   26.3429 H   0  0  0  0  0  0  0  0  0  0  0  0
    7.6987   -1.8829   22.7217 C   0  0  0  0  0  0  0  0  0  0  0  0
    6.8087   -1.0072   22.1180 C   0  0  0  0  0  0  0  0  0  0  0  0
    5.9427   -0.5451   22.5474 H   0  0  0  0  0  0  0  0  0  0  0  0
    5.5423    0.7324   20.0514 C   0  0  0  0  0  0  0  0  0  0  0  0
    5.1045    0.7470   21.0524 H   0  0  0  0  0  0  0  0  0  0  0  0
    4.8933    1.3580   18.9926 C   0  0  0  0  0  0  0  0  0  0  0  0
    3.9464    1.8662   19.1341 H   0  0  0  0  0  0  0  0  0  0  0  0
  1  2  1  0
  2  3  2  0
  3  4  1  0
  4  5  1  0
  4  6  2  0
  6  7  1  0
  7  8  2  0
  8  9  1  0
  9 10  1  0
 10 11  1  0
 10 12  2  0
 12 13  1  0
 12 14  1  0
 14 15  1  0
 15 16  1  0
 15 17  1  0
 17 18  2  0
 17 19  2  0
 17 20  1  0
 20 21  2  0
 21 22  1  0
 21 23  1  0
 23 24  1  0
 23 25  2  0
 25 26  1  0
 26 27  1  0
 26 28  1  0
 26 29  1  0
 25 30  1  0
 30 31  1  0
 30 32  2  0
 32 33  1  0
 14 34  1  0
 34 35  2  0
 35 36  1  0
  6 37  1  0
 37 38  1  0
 37 39  2  0
 39 40  1  0
 39  2  1  0
 35  7  1  0
 34  9  1  0
 32 20  1  0
M  END
>  <cnnaffinity>  (1) 
-5.69227

>  <filename>  (1) 
Cc1ccc(S(=O)(=O)Nn2ccn3nc(-c4cccnc4)cc23)cc1

$$$$
