
     RDKit          3D

 41 43  0  0  0  0  0  0  0  0999 V2000
    5.7814   -2.6253   21.2237 C   0  0  0  0  0  0  0  0  0  0  0  0
    7.0322   -1.8138   21.4916 C   0  0  0  0  0  0  0  0  0  0  0  0
    7.9228   -2.1915   22.4951 C   0  0  0  0  0  0  0  0  0  0  0  0
    9.0228   -1.5402   22.8122 N   0  0  0  0  0  0  0  0  0  0  0  0
    9.3230   -0.4690   22.0648 C   0  0  0  0  0  0  0  0  0  0  0  0
   10.4254    0.2516   22.4098 N   0  0  0  0  0  0  0  0  0  0  0  0
   11.2599   -0.2412   23.5153 C   0  0  0  0  0  0  0  0  0  0  0  0
   12.6411    0.4111   23.5229 C   0  0  0  0  0  0  0  0  0  0  0  0
   12.5453    1.9433   23.4778 C   0  0  0  0  0  0  0  0  0  0  0  0
   11.6320    2.4587   22.3182 C   0  0  2  0  0  0  0  0  0  0  0  0
   10.5638    3.4390   22.8463 C   0  0  0  0  0  0  0  0  0  0  0  0
   11.3159    5.0514   23.2327 S   0  0  0  0  0  0  0  0  0  0  0  0
   10.2437    5.5866   23.8364 H   0  0  0  0  0  0  0  0  0  0  0  0
   10.1111    3.0144   23.7490 H   0  0  0  0  0  0  0  0  0  0  0  0
    9.7672    3.5757   22.1098 H   0  0  0  0  0  0  0  0  0  0  0  0
   10.9695    1.2933   21.5357 C   0  0  0  0  0  0  0  0  0  0  0  0
   10.1767    1.6668   20.8828 H   0  0  0  0  0  0  0  0  0  0  0  0
   11.7305    0.8510   20.8791 H   0  0  0  0  0  0  0  0  0  0  0  0
   12.2476    2.9839   21.5754 H   0  0  0  0  0  0  0  0  0  0  0  0
   13.5487    2.3759   23.3993 H   0  0  0  0  0  0  0  0  0  0  0  0
   12.1450    2.2892   24.4409 H   0  0  0  0  0  0  0  0  0  0  0  0
   13.1939    0.0598   22.6432 H   0  0  0  0  0  0  0  0  0  0  0  0
   13.1979    0.0907   24.4122 H   0  0  0  0  0  0  0  0  0  0  0  0
   11.3359   -1.3254   23.4122 H   0  0  0  0  0  0  0  0  0  0  0  0
   10.7339   -0.0708   24.4650 H   0  0  0  0  0  0  0  0  0  0  0  0
    8.6168   -0.0574   21.0133 N   0  0  0  0  0  0  0  0  0  0  0  0
    7.4481   -0.6627   20.8022 C   0  0  0  0  0  0  0  0  0  0  0  0
    6.6488   -0.0382   19.7317 C   0  0  0  0  0  0  0  0  0  0  0  0
    5.3719    0.5174   19.8853 C   0  0  0  0  0  0  0  0  0  0  0  0
    4.8337    1.2192   18.8038 C   0  0  0  0  0  0  0  0  0  0  0  0
    5.5627    1.2918   17.6107 C   0  0  0  0  0  0  0  0  0  0  0  0
    6.7633    0.7170   17.4404 N   0  0  0  0  0  0  0  0  0  0  0  0
    7.2926    0.0945   18.4953 C   0  0  0  0  0  0  0  0  0  0  0  0
    8.2843   -0.3313   18.3501 H   0  0  0  0  0  0  0  0  0  0  0  0
    5.1693    1.8340   16.7528 H   0  0  0  0  0  0  0  0  0  0  0  0
    3.8785    1.7276   18.8718 H   0  0  0  0  0  0  0  0  0  0  0  0
    4.8080    0.4350   20.8202 H   0  0  0  0  0  0  0  0  0  0  0  0
    7.7215   -3.0962   23.0833 H   0  0  0  0  0  0  0  0  0  0  0  0
    4.9096   -2.2489   21.7585 H   0  0  0  0  0  0  0  0  0  0  0  0
    5.9218   -3.6593   21.5496 H   0  0  0  0  0  0  0  0  0  0  0  0
    5.5198   -2.6334   20.1634 H   0  0  0  0  0  0  0  0  0  0  0  0
  1  2  1  0
  2  3  2  0
  3  4  1  0
  4  5  2  0
  5  6  1  0
  6  7  1  0
  7  8  1  0
  8  9  1  0
  9 10  1  0
 10 11  1  0
 11 12  1  0
 12 13  1  0
 11 14  1  0
 11 15  1  0
 10 16  1  0
 16 17  1  0
 16 18  1  0
 10 19  1  6
  9 20  1  0
  9 21  1  0
  8 22  1  0
  8 23  1  0
  7 24  1  0
  7 25  1  0
  5 26  1  0
 26 27  2  0
 27 28  1  0
 28 29  2  0
 29 30  1  0
 30 31  2  0
 31 32  1  0
 32 33  2  0
 33 34  1  0
 31 35  1  0
 30 36  1  0
 29 37  1  0
  3 38  1  0
  1 39  1  0
  1 40  1  0
  1 41  1  0
 27  2  1  0
 33 28  1  0
 16  6  1  0
M  END
>  <cnnaffinity>  (1) 
-5.44099

>  <filename>  (1) 
Cc1cnc(N2CCC[C@H](CS)C2)nc1-c1cccnc1

$$$$
