
     RDKit          3D

 32 34  0  0  0  0  0  0  0  0999 V2000
    4.9498    1.8177   16.9871 H   0  0  0  0  0  0  0  0  0  0  0  0
    5.3946    1.2895   17.8283 C   0  0  0  0  0  0  0  0  0  0  0  0
    6.5479    0.6515   17.5859 N   0  0  0  0  0  0  0  0  0  0  0  0
    7.1391    0.0349   18.6153 C   0  0  0  0  0  0  0  0  0  0  0  0
    8.0951   -0.4433   18.4053 H   0  0  0  0  0  0  0  0  0  0  0  0
    6.6064   -0.0127   19.9161 C   0  0  0  0  0  0  0  0  0  0  0  0
    7.3061   -0.7526   20.9946 C   0  0  0  0  0  0  0  0  0  0  0  0
    6.5833   -1.5420   21.7661 N   0  0  0  0  0  0  0  0  0  0  0  0
    7.1758   -2.2613   22.7911 C   0  0  0  0  0  0  0  0  0  0  0  0
    6.3121   -3.1578   23.6557 C   0  0  0  0  0  0  0  0  0  0  0  0
    6.9460   -3.7322   24.7026 N   0  0  0  0  0  0  0  0  0  0  0  0
    6.2213   -4.4924   25.5236 C   0  0  0  0  0  0  0  0  0  0  0  0
    6.7611   -4.9767   26.3384 H   0  0  0  0  0  0  0  0  0  0  0  0
    4.8441   -4.6833   25.3844 C   0  0  0  0  0  0  0  0  0  0  0  0
    4.3176   -5.2831   26.1179 H   0  0  0  0  0  0  0  0  0  0  0  0
    4.1611   -4.0996   24.3112 C   0  0  0  0  0  0  0  0  0  0  0  0
    2.6602   -4.2482   24.1982 C   0  0  0  0  0  0  0  0  0  0  0  0
    2.3587   -4.5521   23.1880 H   0  0  0  0  0  0  0  0  0  0  0  0
    2.1542   -3.3083   24.4557 H   0  0  0  0  0  0  0  0  0  0  0  0
    2.2977   -5.0107   24.8957 H   0  0  0  0  0  0  0  0  0  0  0  0
    4.9460   -3.3796   23.3954 C   0  0  0  0  0  0  0  0  0  0  0  0
    4.5397   -2.9708   22.4777 H   0  0  0  0  0  0  0  0  0  0  0  0
    8.5249   -2.1616   23.0630 C   0  0  0  0  0  0  0  0  0  0  0  0
    9.0070   -2.6908   23.8816 H   0  0  0  0  0  0  0  0  0  0  0  0
    9.2872   -1.3514   22.2677 N   0  0  0  0  0  0  0  0  0  0  0  0
   10.2862   -1.1977   22.3668 H   0  0  0  0  0  0  0  0  0  0  0  0
    8.8036   -0.5990   21.1996 C   0  0  0  0  0  0  0  0  0  0  0  0
    9.6133    0.0746   20.5856 O   0  0  0  0  0  0  0  0  0  0  0  0
    5.3786    0.6338   20.1402 C   0  0  0  0  0  0  0  0  0  0  0  0
    4.9152    0.6110   21.1277 H   0  0  0  0  0  0  0  0  0  0  0  0
    4.7742    1.3119   19.0818 C   0  0  0  0  0  0  0  0  0  0  0  0
    3.8548    1.8730   19.2157 H   0  0  0  0  0  0  0  0  0  0  0  0
  1  2  1  0
  2  3  2  0
  3  4  1  0
  4  5  1  0
  4  6  2  0
  6  7  1  0
  7  8  2  0
  8  9  1  0
  9 10  1  0
 10 11  2  0
 11 12  1  0
 12 13  1  0
 12 14  2  0
 14 15  1  0
 14 16  1  0
 16 17  1  0
 17 18  1  0
 17 19  1  0
 17 20  1  0
 16 21  2  0
 21 22  1  0
  9 23  2  0
 23 24  1  0
 23 25  1  0
 25 26  1  0
 25 27  1  0
 27 28  2  0
  6 29  1  0
 29 30  1  0
 29 31  2  0
 31 32  1  0
 31  2  1  0
 27  7  1  0
 21 10  1  0
M  END
>  <cnnaffinity>  (1) 
-5.15896

>  <filename>  (1) 
Cc1ccnc(-c2c[nH]c(=O)c(-c3cccnc3)n2)c1

$$$$
