
     RDKit          3D

 35 37  0  0  0  0  0  0  0  0999 V2000
    4.8906    1.8057   16.8792 H   0  0  0  0  0  0  0  0  0  0  0  0
    5.3947    1.3355   17.7219 C   0  0  0  0  0  0  0  0  0  0  0  0
    6.5478    0.7058   17.4515 N   0  0  0  0  0  0  0  0  0  0  0  0
    7.1939    0.0906   18.4525 C   0  0  0  0  0  0  0  0  0  0  0  0
    8.1165   -0.4172   18.1757 H   0  0  0  0  0  0  0  0  0  0  0  0
    6.7200    0.0671   19.7883 C   0  0  0  0  0  0  0  0  0  0  0  0
    7.3595   -0.6583   20.8487 N   0  0  0  0  0  0  0  0  0  0  0  0
    6.7012   -1.4906   21.7575 C   0  0  0  0  0  0  0  0  0  0  0  0
    5.6289   -1.6083   21.7095 H   0  0  0  0  0  0  0  0  0  0  0  0
    7.6000   -2.0233   22.6214 C   0  0  0  0  0  0  0  0  0  0  0  0
    7.4225   -2.9481   23.7606 C   0  0  0  0  0  0  0  0  0  0  0  0
    6.1995   -3.6255   23.9124 C   0  0  0  0  0  0  0  0  0  0  0  0
    5.4114   -3.4869   23.1787 H   0  0  0  0  0  0  0  0  0  0  0  0
    5.9717   -4.4720   24.9991 C   0  0  0  0  0  0  0  0  0  0  0  0
    5.0235   -5.0030   25.0750 H   0  0  0  0  0  0  0  0  0  0  0  0
    6.9501   -4.6782   25.9808 C   0  0  0  0  0  0  0  0  0  0  0  0
    6.6888   -5.5356   27.1953 C   0  0  0  0  0  0  0  0  0  0  0  0
    7.4126   -6.3552   27.2636 H   0  0  0  0  0  0  0  0  0  0  0  0
    5.6890   -5.9752   27.1935 H   0  0  0  0  0  0  0  0  0  0  0  0
    6.7926   -4.9582   28.1227 H   0  0  0  0  0  0  0  0  0  0  0  0
    8.2092   -4.0450   25.8190 C   0  0  0  0  0  0  0  0  0  0  0  0
    9.3090   -4.3078   26.8223 C   0  0  0  0  0  0  0  0  0  0  0  0
    9.0094   -4.0407   27.8411 H   0  0  0  0  0  0  0  0  0  0  0  0
    9.5616   -5.3734   26.8625 H   0  0  0  0  0  0  0  0  0  0  0  0
   10.2190   -3.7568   26.5785 H   0  0  0  0  0  0  0  0  0  0  0  0
    8.4184   -3.1984   24.7270 C   0  0  0  0  0  0  0  0  0  0  0  0
    9.3930   -2.7230   24.6345 H   0  0  0  0  0  0  0  0  0  0  0  0
    8.8284   -1.4816   22.2506 N   0  0  0  0  0  0  0  0  0  0  0  0
    9.7491   -1.7669   22.5269 H   0  0  0  0  0  0  0  0  0  0  0  0
    8.7318   -0.6543   21.1605 C   0  0  0  0  0  0  0  0  0  0  0  0
    9.6502   -0.0739   20.6217 O   0  0  0  0  0  0  0  0  0  0  0  0
    5.5225    0.7469   20.0502 C   0  0  0  0  0  0  0  0  0  0  0  0
    5.1351    0.7697   21.0674 H   0  0  0  0  0  0  0  0  0  0  0  0
    4.8465    1.3817   19.0053 C   0  0  0  0  0  0  0  0  0  0  0  0
    3.9061    1.8922   19.1691 H   0  0  0  0  0  0  0  0  0  0  0  0
  1  2  1  0
  2  3  2  0
  3  4  1  0
  4  5  1  0
  4  6  2  0
  6  7  1  0
  7  8  1  0
  8  9  1  0
  8 10  2  0
 10 11  1  0
 11 12  2  0
 12 13  1  0
 12 14  1  0
 14 15  1  0
 14 16  2  0
 16 17  1  0
 17 18  1  0
 17 19  1  0
 17 20  1  0
 16 21  1  0
 21 22  1  0
 22 23  1  0
 22 24  1  0
 22 25  1  0
 21 26  2  0
 26 27  1  0
 10 28  1  0
 28 29  1  0
 28 30  1  0
 30 31  2  0
  6 32  1  0
 32 33  1  0
 32 34  2  0
 34 35  1  0
 34  2  1  0
 30  7  1  0
 26 11  1  0
M  END
>  <cnnaffinity>  (1) 
-5.43574

>  <filename>  (1) 
Cc1ccc(-c2cn(-c3cccnc3)c(=O)[nH]2)cc1C

$$$$
