
     RDKit          3D

 34 36  0  0  0  0  0  0  0  0999 V2000
    4.9729    1.7724   17.0397 H   0  0  0  0  0  0  0  0  0  0  0  0
    5.4454    1.2570   17.8737 C   0  0  0  0  0  0  0  0  0  0  0  0
    6.6073    0.6328   17.6108 N   0  0  0  0  0  0  0  0  0  0  0  0
    7.2221    0.0101   18.6252 C   0  0  0  0  0  0  0  0  0  0  0  0
    8.1721   -0.4747   18.3914 H   0  0  0  0  0  0  0  0  0  0  0  0
    6.7200   -0.0439   19.9586 C   0  0  0  0  0  0  0  0  0  0  0  0
    7.3779   -0.6793   20.9758 N   0  0  0  0  0  0  0  0  0  0  0  0
    8.6302   -1.4030   21.0090 C   0  0  0  0  0  0  0  0  0  0  0  0
    8.6382   -2.2931   20.3774 H   0  0  0  0  0  0  0  0  0  0  0  0
    9.5055   -0.7742   20.7849 H   0  0  0  0  0  0  0  0  0  0  0  0
    8.3543   -1.6848   22.5074 C   0  0  0  0  0  0  0  0  0  0  0  0
    9.0673   -1.2214   23.1885 H   0  0  0  0  0  0  0  0  0  0  0  0
    8.1877   -3.1554   22.8876 C   0  0  0  0  0  0  0  0  0  0  0  0
    8.5369   -4.0413   22.1307 O   0  0  0  0  0  0  0  0  0  0  0  0
    7.5406   -3.4806   24.2437 C   0  0  0  0  0  0  0  0  0  0  0  0
    7.2688   -2.4482   25.0720 N   0  0  0  0  0  0  0  0  0  0  0  0
    6.7001   -2.7180   26.2490 C   0  0  0  0  0  0  0  0  0  0  0  0
    6.4960   -1.8643   26.8915 H   0  0  0  0  0  0  0  0  0  0  0  0
    6.3631   -4.0062   26.6591 C   0  0  0  0  0  0  0  0  0  0  0  0
    5.9213   -4.1691   27.6351 H   0  0  0  0  0  0  0  0  0  0  0  0
    6.6184   -5.0888   25.8065 C   0  0  0  0  0  0  0  0  0  0  0  0
    6.2686   -6.4839   26.2507 C   0  0  0  0  0  0  0  0  0  0  0  0
    7.1900   -7.0073   26.5035 H   0  0  0  0  0  0  0  0  0  0  0  0
    5.7424   -7.0703   25.4888 H   0  0  0  0  0  0  0  0  0  0  0  0
    5.6364   -6.4568   27.1425 H   0  0  0  0  0  0  0  0  0  0  0  0
    7.2458   -4.8153   24.5845 C   0  0  0  0  0  0  0  0  0  0  0  0
    7.5435   -5.6176   23.9131 H   0  0  0  0  0  0  0  0  0  0  0  0
    7.0372   -0.8586   22.3688 C   0  0  0  0  0  0  0  0  0  0  0  0
    6.9983    0.0773   22.9498 H   0  0  0  0  0  0  0  0  0  0  0  0
    6.1118   -1.4293   22.5287 H   0  0  0  0  0  0  0  0  0  0  0  0
    5.4923    0.6070   20.1995 C   0  0  0  0  0  0  0  0  0  0  0  0
    5.0697    0.6028   21.2031 H   0  0  0  0  0  0  0  0  0  0  0  0
    4.8554    1.2618   19.1435 C   0  0  0  0  0  0  0  0  0  0  0  0
    3.9184    1.7891   19.3015 H   0  0  0  0  0  0  0  0  0  0  0  0
  1  2  1  0
  2  3  2  0
  3  4  1  0
  4  5  1  0
  4  6  2  0
  6  7  1  0
  7  8  1  0
  8  9  1  0
  8 10  1  0
  8 11  1  0
 11 12  1  0
 11 13  1  0
 13 14  2  0
 13 15  1  0
 15 16  2  0
 16 17  1  0
 17 18  1  0
 17 19  2  0
 19 20  1  0
 19 21  1  0
 21 22  1  0
 22 23  1  0
 22 24  1  0
 22 25  1  0
 21 26  2  0
 26 27  1  0
 11 28  1  0
 28 29  1  0
 28 30  1  0
  6 31  1  0
 31 32  1  0
 31 33  2  0
 33 34  1  0
 33  2  1  0
 28  7  1  0
 26 15  1  0
M  END
>  <cnnaffinity>  (1) 
-5.07481

>  <filename>  (1) 
Cc1ccnc(C(=O)C2CN(c3cccnc3)C2)c1

$$$$
