
     RDKit          3D

 37 40  0  0  0  0  0  0  0  0999 V2000
    4.9942    1.8365   16.9219 H   0  0  0  0  0  0  0  0  0  0  0  0
    5.3896    1.3045   17.7849 C   0  0  0  0  0  0  0  0  0  0  0  0
    6.5435    0.6439   17.5957 N   0  0  0  0  0  0  0  0  0  0  0  0
    7.0729    0.0244   18.6599 C   0  0  0  0  0  0  0  0  0  0  0  0
    8.0122   -0.4956   18.4793 H   0  0  0  0  0  0  0  0  0  0  0  0
    6.4922   -0.0051   19.9483 C   0  0  0  0  0  0  0  0  0  0  0  0
    7.2461   -0.6167   21.0630 C   0  0  0  0  0  0  0  0  0  0  0  0
    8.5997   -0.5462   21.3115 C   0  0  0  0  0  0  0  0  0  0  0  0
    8.8067   -1.1649   22.5354 C   0  0  0  0  0  0  0  0  0  0  0  0
    7.6935   -1.6360   23.0639 N   0  0  0  0  0  0  0  0  0  0  0  0
    6.7484   -1.2848   22.1526 N   0  0  0  0  0  0  0  0  0  0  0  0
    5.7892   -1.5370   22.3560 H   0  0  0  0  0  0  0  0  0  0  0  0
   10.2296   -1.0925   22.9932 C   0  0  0  0  0  0  0  0  0  0  0  0
   10.6596   -2.0912   23.1185 H   0  0  0  0  0  0  0  0  0  0  0  0
   10.3222   -0.5702   23.9517 H   0  0  0  0  0  0  0  0  0  0  0  0
   10.9277   -0.2997   21.8314 C   0  0  2  0  0  0  0  0  0  0  0  0
   11.6872   -0.9590   21.4132 H   0  0  0  0  0  0  0  0  0  0  0  0
   11.6198    0.9641   22.3135 C   0  0  0  0  0  0  0  0  0  0  0  0
   10.8206    1.9389   22.7722 N   0  0  0  0  0  0  0  0  0  0  0  0
   11.3796    3.0729   23.2146 C   0  0  0  0  0  0  0  0  0  0  0  0
   10.4512    4.1232   23.7657 C   0  0  0  0  0  0  0  0  0  0  0  0
    9.4130    3.7816   23.7451 H   0  0  0  0  0  0  0  0  0  0  0  0
   10.7204    4.3731   24.7968 H   0  0  0  0  0  0  0  0  0  0  0  0
   10.5353    5.0533   23.1944 H   0  0  0  0  0  0  0  0  0  0  0  0
   12.7677    3.2877   23.1943 C   0  0  0  0  0  0  0  0  0  0  0  0
   13.1595    4.2413   23.5303 H   0  0  0  0  0  0  0  0  0  0  0  0
   13.6023    2.2714   22.7483 C   0  0  0  0  0  0  0  0  0  0  0  0
   14.6835    2.4038   22.6957 H   0  0  0  0  0  0  0  0  0  0  0  0
   13.0171    1.0812   22.3141 C   0  0  0  0  0  0  0  0  0  0  0  0
   13.6338    0.2603   21.9736 H   0  0  0  0  0  0  0  0  0  0  0  0
    9.8637   -0.0357   20.7163 C   0  0  0  0  0  0  0  0  0  0  0  0
    9.7866    1.0212   20.4348 H   0  0  0  0  0  0  0  0  0  0  0  0
   10.1283   -0.6036   19.8200 H   0  0  0  0  0  0  0  0  0  0  0  0
    5.2652    0.6668   20.1120 C   0  0  0  0  0  0  0  0  0  0  0  0
    4.7704    0.7079   21.0865 H   0  0  0  0  0  0  0  0  0  0  0  0
    4.7202    1.3348   19.0149 C   0  0  0  0  0  0  0  0  0  0  0  0
    3.8033    1.9074   19.0981 H   0  0  0  0  0  0  0  0  0  0  0  0
  1  2  1  0
  2  3  2  0
  3  4  1  0
  4  5  1  0
  4  6  2  0
  6  7  1  0
  7  8  2  0
  8  9  1  0
  9 10  2  0
 10 11  1  0
 11 12  1  0
  9 13  1  0
 13 14  1  0
 13 15  1  0
 13 16  1  0
 16 17  1  6
 16 18  1  0
 18 19  2  0
 19 20  1  0
 20 21  1  0
 21 22  1  0
 21 23  1  0
 21 24  1  0
 20 25  2  0
 25 26  1  0
 25 27  1  0
 27 28  1  0
 27 29  2  0
 29 30  1  0
 16 31  1  0
 31 32  1  0
 31 33  1  0
  6 34  1  0
 34 35  1  0
 34 36  2  0
 36 37  1  0
 36  2  1  0
 11  7  1  0
 29 18  1  0
 31  8  1  0
M  END
>  <cnnaffinity>  (1) 
-5.57954

>  <filename>  (1) 
Cc1cccc([C@H]2Cc3n[nH]c(-c4cccnc4)c3C2)n1

$$$$
