
     RDKit          3D

 33 35  0  0  0  0  0  0  0  0999 V2000
    5.5800    1.8441   16.8475 H   0  0  0  0  0  0  0  0  0  0  0  0
    5.9075    1.2985   17.7312 C   0  0  0  0  0  0  0  0  0  0  0  0
    7.1993    0.9422   17.7670 N   0  0  0  0  0  0  0  0  0  0  0  0
    7.6403    0.3300   18.8707 C   0  0  0  0  0  0  0  0  0  0  0  0
    8.7027    0.0974   18.8824 H   0  0  0  0  0  0  0  0  0  0  0  0
    6.8172   -0.0200   19.9643 C   0  0  0  0  0  0  0  0  0  0  0  0
    7.4256   -0.7108   21.1329 C   0  0  0  0  0  0  0  0  0  0  0  0
    8.6707   -0.4005   21.4374 N   0  0  0  0  0  0  0  0  0  0  0  0
    9.2414   -0.8711   22.6109 C   0  0  0  0  0  0  0  0  0  0  0  0
   10.6982   -0.5769   22.8179 C   0  0  0  0  0  0  0  0  0  0  0  0
   11.5820   -1.0892   21.8522 C   0  0  0  0  0  0  0  0  0  0  0  0
   11.1606   -1.6271   21.0041 H   0  0  0  0  0  0  0  0  0  0  0  0
   12.9588   -0.9110   21.9656 C   0  0  0  0  0  0  0  0  0  0  0  0
   13.6080   -1.3261   21.1980 H   0  0  0  0  0  0  0  0  0  0  0  0
   13.4791   -0.1710   23.0288 C   0  0  0  0  0  0  0  0  0  0  0  0
   14.5495    0.0129   23.1028 H   0  0  0  0  0  0  0  0  0  0  0  0
   12.6110    0.3340   24.0034 C   0  0  0  0  0  0  0  0  0  0  0  0
   13.0063    0.8779   24.8614 H   0  0  0  0  0  0  0  0  0  0  0  0
   11.2227    0.1361   23.9269 C   0  0  0  0  0  0  0  0  0  0  0  0
   10.3735    0.7029   25.0384 C   0  0  0  0  0  0  0  0  0  0  0  0
    9.5625    1.3263   24.6571 H   0  0  0  0  0  0  0  0  0  0  0  0
    9.9259   -0.0837   25.6487 H   0  0  0  0  0  0  0  0  0  0  0  0
   10.9709    1.3069   25.7271 H   0  0  0  0  0  0  0  0  0  0  0  0
    8.5623   -1.6860   23.4744 C   0  0  0  0  0  0  0  0  0  0  0  0
    8.9956   -2.0369   24.4085 H   0  0  0  0  0  0  0  0  0  0  0  0
    7.2882   -2.0982   23.1305 N   0  0  0  0  0  0  0  0  0  0  0  0
    6.7270   -2.7677   23.6422 H   0  0  0  0  0  0  0  0  0  0  0  0
    6.6636   -1.7789   21.9244 C   0  0  0  0  0  0  0  0  0  0  0  0
    5.6435   -2.3857   21.6415 O   0  0  0  0  0  0  0  0  0  0  0  0
    5.4626    0.3550   19.8974 C   0  0  0  0  0  0  0  0  0  0  0  0
    4.7827    0.1344   20.7201 H   0  0  0  0  0  0  0  0  0  0  0  0
    5.0099    1.0353   18.7655 C   0  0  0  0  0  0  0  0  0  0  0  0
    3.9816    1.3654   18.6738 H   0  0  0  0  0  0  0  0  0  0  0  0
  1  2  1  0
  2  3  2  0
  3  4  1  0
  4  5  1  0
  4  6  2  0
  6  7  1  0
  7  8  2  0
  8  9  1  0
  9 10  1  0
 10 11  2  0
 11 12  1  0
 11 13  1  0
 13 14  1  0
 13 15  2  0
 15 16  1  0
 15 17  1  0
 17 18  1  0
 17 19  2  0
 19 20  1  0
 20 21  1  0
 20 22  1  0
 20 23  1  0
  9 24  2  0
 24 25  1  0
 24 26  1  0
 26 27  1  0
 26 28  1  0
 28 29  2  0
  6 30  1  0
 30 31  1  0
 30 32  2  0
 32 33  1  0
 32  2  1  0
 28  7  1  0
 19 10  1  0
M  END
>  <cnnaffinity>  (1) 
-5.78253

>  <filename>  (1) 
Cc1ccccc1-c1c[nH]c(=O)c(-c2cccnc2)n1

$$$$
