
     RDKit          3D

 31 33  0  0  0  0  0  0  0  0999 V2000
    4.9606    1.7818   17.0034 H   0  0  0  0  0  0  0  0  0  0  0  0
    5.4168    1.2809   17.8510 C   0  0  0  0  0  0  0  0  0  0  0  0
    6.5835    0.6612   17.6059 N   0  0  0  0  0  0  0  0  0  0  0  0
    7.1824    0.0460   18.6303 C   0  0  0  0  0  0  0  0  0  0  0  0
    8.1289   -0.4522   18.4285 H   0  0  0  0  0  0  0  0  0  0  0  0
    6.6522    0.0126   19.9312 C   0  0  0  0  0  0  0  0  0  0  0  0
    7.3409   -0.7368   20.8621 O   0  0  0  0  0  0  0  0  0  0  0  0
    7.3989   -0.3493   22.1738 C   0  0  0  0  0  0  0  0  0  0  0  0
    7.1905    0.9027   22.7990 C   0  0  0  0  0  0  0  0  0  0  0  0
    6.9258    1.8672   22.3776 H   0  0  0  0  0  0  0  0  0  0  0  0
    7.4088    0.8070   24.1054 N   0  0  0  0  0  0  0  0  0  0  0  0
    7.7559   -0.4622   24.3187 N   0  0  0  0  0  0  0  0  0  0  0  0
    8.0022   -0.7550   25.2580 H   0  0  0  0  0  0  0  0  0  0  0  0
    7.7675   -1.2211   23.1841 C   0  0  0  0  0  0  0  0  0  0  0  0
    8.0991   -2.6576   23.1641 C   0  0  0  0  0  0  0  0  0  0  0  0
    9.1912   -3.0217   23.8683 N   0  0  0  0  0  0  0  0  0  0  0  0
    9.5708   -4.2989   23.8391 C   0  0  0  0  0  0  0  0  0  0  0  0
   10.5092   -4.5128   24.3472 H   0  0  0  0  0  0  0  0  0  0  0  0
    8.8404   -5.2956   23.1728 C   0  0  0  0  0  0  0  0  0  0  0  0
    9.1234   -6.3418   23.2233 H   0  0  0  0  0  0  0  0  0  0  0  0
    7.7116   -4.9163   22.4564 C   0  0  0  0  0  0  0  0  0  0  0  0
    7.1355   -5.6520   21.8963 H   0  0  0  0  0  0  0  0  0  0  0  0
    7.2834   -3.5837   22.4629 C   0  0  0  0  0  0  0  0  0  0  0  0
    5.9740   -3.2424   21.7939 C   0  0  0  0  0  0  0  0  0  0  0  0
    5.3075   -4.1087   21.8310 H   0  0  0  0  0  0  0  0  0  0  0  0
    6.1354   -2.9714   20.7482 H   0  0  0  0  0  0  0  0  0  0  0  0
    5.4848   -2.4007   22.2879 H   0  0  0  0  0  0  0  0  0  0  0  0
    5.4308    0.6482   20.1812 C   0  0  0  0  0  0  0  0  0  0  0  0
    4.9986    0.6309   21.1823 H   0  0  0  0  0  0  0  0  0  0  0  0
    4.8091    1.2993   19.1110 C   0  0  0  0  0  0  0  0  0  0  0  0
    3.8720    1.8285   19.2460 H   0  0  0  0  0  0  0  0  0  0  0  0
  1  2  1  0
  2  3  2  0
  3  4  1  0
  4  5  1  0
  4  6  2  0
  6  7  1  0
  7  8  1  0
  8  9  1  0
  9 10  1  0
  9 11  2  0
 11 12  1  0
 12 13  1  0
 12 14  1  0
 14 15  1  0
 15 16  2  0
 16 17  1  0
 17 18  1  0
 17 19  2  0
 19 20  1  0
 19 21  1  0
 21 22  1  0
 21 23  2  0
 23 24  1  0
 24 25  1  0
 24 26  1  0
 24 27  1  0
  6 28  1  0
 28 29  1  0
 28 30  2  0
 30 31  1  0
 30  2  1  0
 14  8  2  0
 23 15  1  0
M  END
>  <cnnaffinity>  (1) 
-5.24124

>  <filename>  (1) 
Cc1cccnc1-c1[nH]ncc1Oc1cccnc1

$$$$
