
     RDKit          3D

 31 33  0  0  0  0  0  0  0  0999 V2000
    4.9274    1.8023   16.9691 H   0  0  0  0  0  0  0  0  0  0  0  0
    5.3945    1.2975   17.8173 C   0  0  0  0  0  0  0  0  0  0  0  0
    6.5579    0.6711   17.5727 N   0  0  0  0  0  0  0  0  0  0  0  0
    7.1632    0.0496   18.5956 C   0  0  0  0  0  0  0  0  0  0  0  0
    8.1206   -0.4027   18.3396 H   0  0  0  0  0  0  0  0  0  0  0  0
    6.6469   -0.0003   19.9088 C   0  0  0  0  0  0  0  0  0  0  0  0
    7.3268   -0.6420   21.0367 C   0  0  0  0  0  0  0  0  0  0  0  0
    7.2308   -0.4003   22.3638 C   0  0  0  0  0  0  0  0  0  0  0  0
    6.6636    0.3450   22.9018 H   0  0  0  0  0  0  0  0  0  0  0  0
    8.0919   -1.2760   23.0318 N   0  0  0  0  0  0  0  0  0  0  0  0
    8.2883   -1.3734   24.4121 C   0  0  0  0  0  0  0  0  0  0  0  0
    8.0105   -0.2484   25.0741 N   0  0  0  0  0  0  0  0  0  0  0  0
    8.1571   -0.2479   26.4005 C   0  0  0  0  0  0  0  0  0  0  0  0
    7.8124    1.0085   27.1594 C   0  0  0  0  0  0  0  0  0  0  0  0
    8.6441    1.2888   27.7978 H   0  0  0  0  0  0  0  0  0  0  0  0
    7.5782    1.8438   26.4934 H   0  0  0  0  0  0  0  0  0  0  0  0
    6.9771    0.8334   27.8474 H   0  0  0  0  0  0  0  0  0  0  0  0
    8.6056   -1.3798   27.0945 C   0  0  0  0  0  0  0  0  0  0  0  0
    8.7654   -1.2890   28.1551 H   0  0  0  0  0  0  0  0  0  0  0  0
    8.8503   -2.5660   26.4020 C   0  0  0  0  0  0  0  0  0  0  0  0
    9.1690   -3.4664   26.9285 H   0  0  0  0  0  0  0  0  0  0  0  0
    8.6881   -2.5751   25.0174 C   0  0  0  0  0  0  0  0  0  0  0  0
    8.8681   -3.4419   24.3973 H   0  0  0  0  0  0  0  0  0  0  0  0
    8.7380   -2.0853   22.1054 C   0  0  0  0  0  0  0  0  0  0  0  0
    9.5284   -2.9884   22.2818 O   0  0  0  0  0  0  0  0  0  0  0  0
    8.2698   -1.6495   20.8972 N   0  0  0  0  0  0  0  0  0  0  0  0
    8.5585   -2.1512   20.0809 H   0  0  0  0  0  0  0  0  0  0  0  0
    5.4258    0.6569   20.1323 C   0  0  0  0  0  0  0  0  0  0  0  0
    4.9852    0.6420   21.1268 H   0  0  0  0  0  0  0  0  0  0  0  0
    4.7945    1.3166   19.0807 C   0  0  0  0  0  0  0  0  0  0  0  0
    3.8644    1.8522   19.2276 H   0  0  0  0  0  0  0  0  0  0  0  0
  1  2  1  0
  2  3  2  0
  3  4  1  0
  4  5  1  0
  4  6  2  0
  6  7  1  0
  7  8  2  0
  8  9  1  0
  8 10  1  0
 10 11  1  0
 11 12  2  0
 12 13  1  0
 13 14  1  0
 14 15  1  0
 14 16  1  0
 14 17  1  0
 13 18  2  0
 18 19  1  0
 18 20  1  0
 20 21  1  0
 20 22  2  0
 22 23  1  0
 10 24  1  0
 24 25  2  0
 24 26  1  0
 26 27  1  0
  6 28  1  0
 28 29  1  0
 28 30  2  0
 30 31  1  0
 30  2  1  0
 26  7  1  0
 22 11  1  0
M  END
>  <cnnaffinity>  (1) 
-5.27776

>  <filename>  (1) 
Cc1cccc(-n2cc(-c3cccnc3)[nH]c2=O)n1

$$$$
