
     RDKit          3D

 31 34  0  0  0  0  0  0  0  0999 V2000
    4.9200    1.7788   16.9991 H   0  0  0  0  0  0  0  0  0  0  0  0
    5.4031    1.2903   17.8410 C   0  0  0  0  0  0  0  0  0  0  0  0
    6.5677    0.6767   17.5767 N   0  0  0  0  0  0  0  0  0  0  0  0
    7.1729    0.0545   18.5905 C   0  0  0  0  0  0  0  0  0  0  0  0
    8.1214   -0.4335   18.3714 H   0  0  0  0  0  0  0  0  0  0  0  0
    6.6480    0.0112   19.8953 C   0  0  0  0  0  0  0  0  0  0  0  0
    7.4041   -0.6962   20.9252 C   0  0  0  0  0  0  0  0  0  0  0  0
    8.3287   -1.5998   20.7096 N   0  0  0  0  0  0  0  0  0  0  0  0
    8.8313   -2.0357   21.9145 N   0  0  0  0  0  0  0  0  0  0  0  0
    8.2032   -1.3539   22.8346 C   0  0  0  0  0  0  0  0  0  0  0  0
    8.2535   -1.0889   24.5556 S   0  0  0  0  0  0  0  0  0  0  0  0
    7.0352    0.1670   24.3319 C   0  0  0  0  0  0  0  0  0  0  0  0
    6.5475    0.9505   25.5040 C   0  0  0  0  0  0  0  0  0  0  0  0
    7.0686    0.6632   26.7175 N   0  0  0  0  0  0  0  0  0  0  0  0
    6.6241    1.3710   27.7614 C   0  0  0  0  0  0  0  0  0  0  0  0
    7.0469    1.1304   28.7342 H   0  0  0  0  0  0  0  0  0  0  0  0
    5.6616    2.3771   27.6622 C   0  0  0  0  0  0  0  0  0  0  0  0
    5.3272    2.9152   28.5410 H   0  0  0  0  0  0  0  0  0  0  0  0
    5.1224    2.6787   26.4096 C   0  0  0  0  0  0  0  0  0  0  0  0
    4.0643    3.7278   26.2421 C   0  0  0  0  0  0  0  0  0  0  0  0
    3.0725    3.2758   26.3380 H   0  0  0  0  0  0  0  0  0  0  0  0
    4.1265    4.1989   25.2571 H   0  0  0  0  0  0  0  0  0  0  0  0
    4.1570    4.5068   27.0017 H   0  0  0  0  0  0  0  0  0  0  0  0
    5.5792    1.9429   25.3175 C   0  0  0  0  0  0  0  0  0  0  0  0
    5.1965    2.1214   24.3208 H   0  0  0  0  0  0  0  0  0  0  0  0
    6.6205    0.3512   23.1116 N   0  0  0  0  0  0  0  0  0  0  0  0
    7.2749   -0.5130   22.2893 N   0  0  0  0  0  0  0  0  0  0  0  0
    5.4305    0.6529   20.1625 C   0  0  0  0  0  0  0  0  0  0  0  0
    5.0106    0.6386   21.1707 H   0  0  0  0  0  0  0  0  0  0  0  0
    4.8046    1.3079   19.1062 C   0  0  0  0  0  0  0  0  0  0  0  0
    3.8748    1.8430   19.2576 H   0  0  0  0  0  0  0  0  0  0  0  0
  1  2  1  0
  2  3  2  0
  3  4  1  0
  4  5  1  0
  4  6  2  0
  6  7  1  0
  7  8  2  0
  8  9  1  0
  9 10  2  0
 10 11  1  0
 11 12  1  0
 12 13  1  0
 13 14  2  0
 14 15  1  0
 15 16  1  0
 15 17  2  0
 17 18  1  0
 17 19  1  0
 19 20  1  0
 20 21  1  0
 20 22  1  0
 20 23  1  0
 19 24  2  0
 24 25  1  0
 12 26  2  0
 26 27  1  0
  6 28  1  0
 28 29  1  0
 28 30  2  0
 30 31  1  0
 30  2  1  0
 27  7  1  0
 27 10  1  0
 24 13  1  0
M  END
>  <cnnaffinity>  (1) 
-5.30973

>  <filename>  (1) 
Cc1ccnc(-c2nn3c(-c4cccnc4)nnc3s2)c1

$$$$
