
     RDKit          3D

 38 40  0  0  0  0  0  0  0  0999 V2000
    4.8934    1.7910   16.9854 H   0  0  0  0  0  0  0  0  0  0  0  0
    5.4044    1.2693   17.7927 C   0  0  0  0  0  0  0  0  0  0  0  0
    6.5736    0.6860   17.4839 N   0  0  0  0  0  0  0  0  0  0  0  0
    7.2482    0.0712   18.4649 C   0  0  0  0  0  0  0  0  0  0  0  0
    8.1962   -0.3870   18.1951 H   0  0  0  0  0  0  0  0  0  0  0  0
    6.7829   -0.0015   19.7972 C   0  0  0  0  0  0  0  0  0  0  0  0
    7.5240   -0.6046   20.8693 N   0  0  0  0  0  0  0  0  0  0  0  0
    8.8576   -0.3326   21.1578 C   0  0  0  0  0  0  0  0  0  0  0  0
    9.6273    0.2523   20.4378 O   0  0  0  0  0  0  0  0  0  0  0  0
    9.1137   -0.8731   22.4449 N   0  0  0  0  0  0  0  0  0  0  0  0
   10.0639   -0.5522   23.4612 N   0  0  0  0  0  0  0  0  0  0  0  0
   10.9693   -0.2433   23.1282 H   0  0  0  0  0  0  0  0  0  0  0  0
    9.9083    0.6605   24.6707 S   0  0  0  0  0  0  0  0  0  0  0  0
   11.2373    1.2369   24.6044 O   0  0  0  0  0  0  0  0  0  0  0  0
    9.3433    0.0804   25.8617 O   0  0  0  0  0  0  0  0  0  0  0  0
    8.7396    1.7604   23.9207 C   0  0  0  0  0  0  0  0  0  0  0  0
    9.1738    2.5415   22.8436 C   0  0  0  0  0  0  0  0  0  0  0  0
   10.2201    2.6030   22.5374 H   0  0  0  0  0  0  0  0  0  0  0  0
    8.2284    3.2586   22.1231 C   0  0  0  0  0  0  0  0  0  0  0  0
    8.5464    3.9005   21.3126 H   0  0  0  0  0  0  0  0  0  0  0  0
    6.8652    3.2227   22.4352 C   0  0  0  0  0  0  0  0  0  0  0  0
    5.8969    4.0024   21.5934 C   0  0  0  0  0  0  0  0  0  0  0  0
    5.0161    4.3056   22.1583 H   0  0  0  0  0  0  0  0  0  0  0  0
    6.3720    4.8984   21.1835 H   0  0  0  0  0  0  0  0  0  0  0  0
    5.5510    3.4132   20.7432 H   0  0  0  0  0  0  0  0  0  0  0  0
    6.4628    2.4603   23.5412 C   0  0  0  0  0  0  0  0  0  0  0  0
    5.4171    2.4337   23.8305 H   0  0  0  0  0  0  0  0  0  0  0  0
    7.3893    1.7378   24.2974 C   0  0  0  0  0  0  0  0  0  0  0  0
    7.0599    1.1776   25.1739 H   0  0  0  0  0  0  0  0  0  0  0  0
    7.9601   -1.5686   22.9627 C   0  0  0  0  0  0  0  0  0  0  0  0
    8.1672   -2.6128   23.2016 H   0  0  0  0  0  0  0  0  0  0  0  0
    7.5617   -1.0709   23.8564 H   0  0  0  0  0  0  0  0  0  0  0  0
    6.9941   -1.4681   21.8242 C   0  0  0  0  0  0  0  0  0  0  0  0
    5.9626   -2.0775   21.7200 O   0  0  0  0  0  0  0  0  0  0  0  0
    5.5418    0.5641   20.0894 C   0  0  0  0  0  0  0  0  0  0  0  0
    5.1467    0.4863   21.1008 H   0  0  0  0  0  0  0  0  0  0  0  0
    4.8517    1.2339   19.0766 C   0  0  0  0  0  0  0  0  0  0  0  0
    3.9172    1.7517   19.2738 H   0  0  0  0  0  0  0  0  0  0  0  0
  1  2  1  0
  2  3  2  0
  3  4  1  0
  4  5  1  0
  4  6  2  0
  6  7  1  0
  7  8  1  0
  8  9  2  0
  8 10  1  0
 10 11  1  0
 11 12  1  0
 11 13  1  0
 13 14  2  0
 13 15  2  0
 13 16  1  0
 16 17  2  0
 17 18  1  0
 17 19  1  0
 19 20  1  0
 19 21  2  0
 21 22  1  0
 22 23  1  0
 22 24  1  0
 22 25  1  0
 21 26  1  0
 26 27  1  0
 26 28  2  0
 28 29  1  0
 10 30  1  0
 30 31  1  0
 30 32  1  0
 30 33  1  0
 33 34  2  0
  6 35  1  0
 35 36  1  0
 35 37  2  0
 37 38  1  0
 37  2  1  0
 33  7  1  0
 28 16  1  0
M  END
>  <cnnaffinity>  (1) 
-5.28679

>  <filename>  (1) 
Cc1ccc(S(=O)(=O)NN2CC(=O)N(c3cccnc3)C2=O)cc1

$$$$
