
     RDKit          3D

 33 35  0  0  0  0  0  0  0  0999 V2000
    5.1055    1.8102   16.8661 H   0  0  0  0  0  0  0  0  0  0  0  0
    5.5051    1.3016   17.7410 C   0  0  0  0  0  0  0  0  0  0  0  0
    6.6694    0.6519   17.5672 N   0  0  0  0  0  0  0  0  0  0  0  0
    7.2001    0.0395   18.6324 C   0  0  0  0  0  0  0  0  0  0  0  0
    8.1647   -0.4459   18.5104 H   0  0  0  0  0  0  0  0  0  0  0  0
    6.5900   -0.0033   19.9007 C   0  0  0  0  0  0  0  0  0  0  0  0
    7.2568   -0.7069   20.9577 N   0  0  0  0  0  0  0  0  0  0  0  0
    8.6111   -0.5218   21.0171 N   0  0  0  0  0  0  0  0  0  0  0  0
    9.2977   -1.1267   21.9561 C   0  0  0  0  0  0  0  0  0  0  0  0
   10.7120   -0.6497   22.0801 C   0  0  0  0  0  0  0  0  0  0  0  0
   10.9248    0.7154   22.3213 C   0  0  0  0  0  0  0  0  0  0  0  0
   10.0586    1.3729   22.3484 H   0  0  0  0  0  0  0  0  0  0  0  0
   12.2185    1.1934   22.5191 C   0  0  0  0  0  0  0  0  0  0  0  0
   12.3816    2.2521   22.6809 H   0  0  0  0  0  0  0  0  0  0  0  0
   13.3065    0.3211   22.4304 C   0  0  0  0  0  0  0  0  0  0  0  0
   14.3190    0.6749   22.6079 H   0  0  0  0  0  0  0  0  0  0  0  0
   13.1167   -1.0233   22.0846 C   0  0  0  0  0  0  0  0  0  0  0  0
   14.3178   -1.8842   21.8255 C   0  0  0  0  0  0  0  0  0  0  0  0
   14.6999   -1.7338   20.8088 H   0  0  0  0  0  0  0  0  0  0  0  0
   15.1104   -1.6208   22.5286 H   0  0  0  0  0  0  0  0  0  0  0  0
   14.1243   -2.9521   21.9339 H   0  0  0  0  0  0  0  0  0  0  0  0
   11.8126   -1.5108   21.9529 C   0  0  0  0  0  0  0  0  0  0  0  0
   11.6466   -2.5624   21.7354 H   0  0  0  0  0  0  0  0  0  0  0  0
    8.7048   -2.1626   22.8830 C   0  0  0  0  0  0  0  0  0  0  0  0
    9.3419   -2.8821   23.6432 O   0  0  0  0  0  0  0  0  0  0  0  0
    7.2497   -2.2208   22.7985 C   0  0  0  0  0  0  0  0  0  0  0  0
    6.7428   -2.8487   23.5183 H   0  0  0  0  0  0  0  0  0  0  0  0
    6.5966   -1.5151   21.8506 C   0  0  0  0  0  0  0  0  0  0  0  0
    5.5204   -1.5692   21.7079 H   0  0  0  0  0  0  0  0  0  0  0  0
    5.3715    0.6724   20.0720 C   0  0  0  0  0  0  0  0  0  0  0  0
    4.8860    0.7073   21.0480 H   0  0  0  0  0  0  0  0  0  0  0  0
    4.8328    1.3441   18.9674 C   0  0  0  0  0  0  0  0  0  0  0  0
    3.9143    1.9153   19.0453 H   0  0  0  0  0  0  0  0  0  0  0  0
  1  2  1  0
  2  3  2  0
  3  4  1  0
  4  5  1  0
  4  6  2  0
  6  7  1  0
  7  8  1  0
  8  9  2  0
  9 10  1  0
 10 11  2  0
 11 12  1  0
 11 13  1  0
 13 14  1  0
 13 15  2  0
 15 16  1  0
 15 17  1  0
 17 18  1  0
 18 19  1  0
 18 20  1  0
 18 21  1  0
 17 22  2  0
 22 23  1  0
  9 24  1  0
 24 25  2  0
 24 26  1  0
 26 27  1  0
 26 28  2  0
 28 29  1  0
  6 30  1  0
 30 31  1  0
 30 32  2  0
 32 33  1  0
 32  2  1  0
 28  7  1  0
 22 10  1  0
M  END
>  <cnnaffinity>  (1) 
-5.53197

>  <filename>  (1) 
Cc1cccc(-c2nn(-c3cccnc3)ccc2=O)c1

$$$$
