
     RDKit          3D

 33 35  0  0  0  0  0  0  0  0999 V2000
    4.9152    1.8154   16.9609 H   0  0  0  0  0  0  0  0  0  0  0  0
    5.3935    1.3189   17.8033 C   0  0  0  0  0  0  0  0  0  0  0  0
    6.5613    0.7103   17.5387 N   0  0  0  0  0  0  0  0  0  0  0  0
    7.1779    0.0990   18.5586 C   0  0  0  0  0  0  0  0  0  0  0  0
    8.1231   -0.3891   18.3182 H   0  0  0  0  0  0  0  0  0  0  0  0
    6.6624    0.0210   19.8722 C   0  0  0  0  0  0  0  0  0  0  0  0
    7.3910   -0.6911   20.9525 C   0  0  0  0  0  0  0  0  0  0  0  0
    8.7144   -0.4084   21.2068 C   0  0  0  0  0  0  0  0  0  0  0  0
    9.2197    0.3293   20.5848 H   0  0  0  0  0  0  0  0  0  0  0  0
    9.4493   -1.0549   22.2400 C   0  0  0  0  0  0  0  0  0  0  0  0
   10.8983   -0.7428   22.4100 C   0  0  0  0  0  0  0  0  0  0  0  0
   11.7380   -1.7697   22.1977 N   0  0  0  0  0  0  0  0  0  0  0  0
   13.0500   -1.5491   22.3031 C   0  0  0  0  0  0  0  0  0  0  0  0
   13.6876   -2.4066   22.1000 H   0  0  0  0  0  0  0  0  0  0  0  0
   13.5940   -0.3293   22.7108 C   0  0  0  0  0  0  0  0  0  0  0  0
   14.6636   -0.2388   22.8783 H   0  0  0  0  0  0  0  0  0  0  0  0
   12.7197    0.7477   22.8948 C   0  0  0  0  0  0  0  0  0  0  0  0
   13.0935    1.7340   23.1733 H   0  0  0  0  0  0  0  0  0  0  0  0
   11.3414    0.5727   22.7199 C   0  0  0  0  0  0  0  0  0  0  0  0
   10.4241    1.7811   22.8045 C   0  0  0  0  0  0  0  0  0  0  0  0
    9.4441    1.5372   23.2263 H   0  0  0  0  0  0  0  0  0  0  0  0
   10.8638    2.5910   23.3959 H   0  0  0  0  0  0  0  0  0  0  0  0
   10.2494    2.1789   21.7987 H   0  0  0  0  0  0  0  0  0  0  0  0
    8.8289   -2.0005   23.0185 C   0  0  0  0  0  0  0  0  0  0  0  0
    9.3215   -2.5823   23.7972 H   0  0  0  0  0  0  0  0  0  0  0  0
    7.5113   -2.2563   22.7871 N   0  0  0  0  0  0  0  0  0  0  0  0
    6.9238   -2.9487   23.2347 H   0  0  0  0  0  0  0  0  0  0  0  0
    6.7286   -1.7342   21.7566 C   0  0  0  0  0  0  0  0  0  0  0  0
    5.6236   -2.2400   21.6322 O   0  0  0  0  0  0  0  0  0  0  0  0
    5.4368    0.6603   20.1142 C   0  0  0  0  0  0  0  0  0  0  0  0
    5.0082    0.6105   21.1157 H   0  0  0  0  0  0  0  0  0  0  0  0
    4.7953    1.3304   19.0676 C   0  0  0  0  0  0  0  0  0  0  0  0
    3.8550    1.8545   19.2142 H   0  0  0  0  0  0  0  0  0  0  0  0
  1  2  1  0
  2  3  2  0
  3  4  1  0
  4  5  1  0
  4  6  2  0
  6  7  1  0
  7  8  2  0
  8  9  1  0
  8 10  1  0
 10 11  1  0
 11 12  2  0
 12 13  1  0
 13 14  1  0
 13 15  2  0
 15 16  1  0
 15 17  1  0
 17 18  1  0
 17 19  2  0
 19 20  1  0
 20 21  1  0
 20 22  1  0
 20 23  1  0
 10 24  2  0
 24 25  1  0
 24 26  1  0
 26 27  1  0
 26 28  1  0
 28 29  2  0
  6 30  1  0
 30 31  1  0
 30 32  2  0
 32 33  1  0
 32  2  1  0
 28  7  1  0
 19 11  1  0
M  END
>  <cnnaffinity>  (1) 
-5.6195

>  <filename>  (1) 
Cc1cccnc1-c1c[nH]c(=O)c(-c2cccnc2)c1

$$$$
