
     RDKit          3D

 34 37  0  0  0  0  0  0  0  0999 V2000
    5.1007    1.7565   17.2205 H   0  0  0  0  0  0  0  0  0  0  0  0
    5.6212    1.1439   17.9565 C   0  0  0  0  0  0  0  0  0  0  0  0
    6.8035    0.6329   17.5825 N   0  0  0  0  0  0  0  0  0  0  0  0
    7.4816   -0.0969   18.4724 C   0  0  0  0  0  0  0  0  0  0  0  0
    8.4176   -0.5269   18.1173 H   0  0  0  0  0  0  0  0  0  0  0  0
    7.0224   -0.3367   19.7741 C   0  0  0  0  0  0  0  0  0  0  0  0
    7.9032   -1.0271   20.7202 C   0  0  0  0  0  0  0  0  0  0  0  0
    9.2144   -1.0565   20.7515 N   0  0  0  0  0  0  0  0  0  0  0  0
    9.6149   -1.7050   21.9063 N   0  0  0  0  0  0  0  0  0  0  0  0
    8.5186   -2.0457   22.5307 C   0  0  0  0  0  0  0  0  0  0  0  0
    8.0283   -2.8764   23.9953 S   0  0  0  0  0  0  0  0  0  0  0  0
    6.3720   -2.6330   23.4608 C   0  0  0  0  0  0  0  0  0  0  0  0
    5.2578   -3.1048   24.0710 N   0  0  0  0  0  0  0  0  0  0  0  0
    4.4719   -2.8316   23.4970 H   0  0  0  0  0  0  0  0  0  0  0  0
    5.0311   -3.4322   25.4205 C   0  0  0  0  0  0  0  0  0  0  0  0
    5.5329   -2.6682   26.4774 C   0  0  0  0  0  0  0  0  0  0  0  0
    6.0875   -1.7607   26.2559 H   0  0  0  0  0  0  0  0  0  0  0  0
    5.2661   -3.0554   27.7980 C   0  0  0  0  0  0  0  0  0  0  0  0
    5.6341   -2.4272   28.6119 H   0  0  0  0  0  0  0  0  0  0  0  0
    4.5279   -4.2187   28.0837 C   0  0  0  0  0  0  0  0  0  0  0  0
    4.2658   -4.6844   29.4991 C   0  0  0  0  0  0  0  0  0  0  0  0
    3.2086   -4.9426   29.6321 H   0  0  0  0  0  0  0  0  0  0  0  0
    4.8482   -5.5810   29.7482 H   0  0  0  0  0  0  0  0  0  0  0  0
    4.5095   -3.9232   30.2470 H   0  0  0  0  0  0  0  0  0  0  0  0
    4.0040   -4.9551   27.0012 C   0  0  0  0  0  0  0  0  0  0  0  0
    3.3962   -5.8414   27.1921 H   0  0  0  0  0  0  0  0  0  0  0  0
    4.2355   -4.5509   25.6847 C   0  0  0  0  0  0  0  0  0  0  0  0
    3.8016   -5.0701   24.8344 H   0  0  0  0  0  0  0  0  0  0  0  0
    6.1911   -2.0600   22.3030 N   0  0  0  0  0  0  0  0  0  0  0  0
    7.4161   -1.6721   21.8349 N   0  0  0  0  0  0  0  0  0  0  0  0
    5.7503    0.1405   20.1371 C   0  0  0  0  0  0  0  0  0  0  0  0
    5.3327   -0.0981   21.1171 H   0  0  0  0  0  0  0  0  0  0  0  0
    5.0484    0.9064   19.2124 C   0  0  0  0  0  0  0  0  0  0  0  0
    4.0805    1.3276   19.4603 H   0  0  0  0  0  0  0  0  0  0  0  0
  1  2  1  0
  2  3  2  0
  3  4  1  0
  4  5  1  0
  4  6  2  0
  6  7  1  0
  7  8  2  0
  8  9  1  0
  9 10  2  0
 10 11  1  0
 11 12  1  0
 12 13  1  0
 13 14  1  0
 13 15  1  0
 15 16  2  0
 16 17  1  0
 16 18  1  0
 18 19  1  0
 18 20  2  0
 20 21  1  0
 21 22  1  0
 21 23  1  0
 21 24  1  0
 20 25  1  0
 25 26  1  0
 25 27  2  0
 27 28  1  0
 12 29  2  0
 29 30  1  0
  6 31  1  0
 31 32  1  0
 31 33  2  0
 33 34  1  0
 33  2  1  0
 30  7  1  0
 30 10  1  0
 27 15  1  0
M  END
>  <cnnaffinity>  (1) 
-5.23662

>  <filename>  (1) 
Cc1ccc(Nc2nn3c(-c4cccnc4)nnc3s2)cc1

$$$$
