
     RDKit          3D

 33 36  0  0  0  0  0  0  0  0999 V2000
    4.9664    1.8142   16.9728 H   0  0  0  0  0  0  0  0  0  0  0  0
    5.4076    1.2860   17.8169 C   0  0  0  0  0  0  0  0  0  0  0  0
    6.5612    0.6482   17.5743 N   0  0  0  0  0  0  0  0  0  0  0  0
    7.1512    0.0136   18.5917 C   0  0  0  0  0  0  0  0  0  0  0  0
    8.0945   -0.4731   18.3608 H   0  0  0  0  0  0  0  0  0  0  0  0
    6.6382   -0.0130   19.8983 C   0  0  0  0  0  0  0  0  0  0  0  0
    7.3952   -0.6779   20.9637 C   0  0  0  0  0  0  0  0  0  0  0  0
    8.0613   -1.8612   20.7462 N   0  0  0  0  0  0  0  0  0  0  0  0
    8.4719   -2.2159   21.9337 C   0  0  0  0  0  0  0  0  0  0  0  0
    9.3313   -3.5556   22.6374 S   0  0  0  0  0  0  0  0  0  0  0  0
    9.4294   -2.7237   24.1714 C   0  0  0  0  0  0  0  0  0  0  0  0
   10.0178   -3.1750   24.9601 H   0  0  0  0  0  0  0  0  0  0  0  0
    8.7542   -1.5607   24.1564 C   0  0  0  0  0  0  0  0  0  0  0  0
    8.6124   -0.8247   24.9379 H   0  0  0  0  0  0  0  0  0  0  0  0
    8.1796   -1.3092   22.9140 N   0  0  0  0  0  0  0  0  0  0  0  0
    7.5018   -0.2810   22.2948 C   0  0  0  0  0  0  0  0  0  0  0  0
    7.1028    0.9487   22.9730 C   0  0  0  0  0  0  0  0  0  0  0  0
    6.4805    0.9276   24.2320 C   0  0  0  0  0  0  0  0  0  0  0  0
    6.2625   -0.0133   24.7210 H   0  0  0  0  0  0  0  0  0  0  0  0
    6.1028    2.1378   24.8022 C   0  0  0  0  0  0  0  0  0  0  0  0
    5.6193    2.1638   25.7772 H   0  0  0  0  0  0  0  0  0  0  0  0
    6.2970    3.3296   24.2198 N   0  0  0  0  0  0  0  0  0  0  0  0
    6.8833    3.3510   23.0171 C   0  0  0  0  0  0  0  0  0  0  0  0
    7.0856    4.6754   22.3465 C   0  0  0  0  0  0  0  0  0  0  0  0
    8.1556    4.8684   22.2120 H   0  0  0  0  0  0  0  0  0  0  0  0
    6.6221    4.6671   21.3535 H   0  0  0  0  0  0  0  0  0  0  0  0
    6.6448    5.4768   22.9396 H   0  0  0  0  0  0  0  0  0  0  0  0
    7.3033    2.1865   22.3643 C   0  0  0  0  0  0  0  0  0  0  0  0
    7.7302    2.2575   21.3673 H   0  0  0  0  0  0  0  0  0  0  0  0
    5.4095    0.6384   20.1294 C   0  0  0  0  0  0  0  0  0  0  0  0
    4.9633    0.6570   21.1269 H   0  0  0  0  0  0  0  0  0  0  0  0
    4.7879    1.2984   19.0708 C   0  0  0  0  0  0  0  0  0  0  0  0
    3.8584    1.8426   19.2046 H   0  0  0  0  0  0  0  0  0  0  0  0
  1  2  1  0
  2  3  2  0
  3  4  1  0
  4  5  1  0
  4  6  2  0
  6  7  1  0
  7  8  1  0
  8  9  2  0
  9 10  1  0
 10 11  1  0
 11 12  1  0
 11 13  2  0
 13 14  1  0
 13 15  1  0
 15 16  1  0
 16 17  1  0
 17 18  2  0
 18 19  1  0
 18 20  1  0
 20 21  1  0
 20 22  2  0
 22 23  1  0
 23 24  1  0
 24 25  1  0
 24 26  1  0
 24 27  1  0
 23 28  2  0
 28 29  1  0
  6 30  1  0
 30 31  1  0
 30 32  2  0
 32 33  1  0
 32  2  1  0
 16  7  2  0
 28 17  1  0
 15  9  1  0
M  END
>  <cnnaffinity>  (1) 
-5.71057

>  <filename>  (1) 
Cc1cc(-c2c(-c3cccnc3)nc3sccn23)ccn1

$$$$
