
     RDKit          3D

 38 40  0  0  0  0  0  0  0  0999 V2000
    4.9109    1.8003   16.9762 H   0  0  0  0  0  0  0  0  0  0  0  0
    5.3861    1.3066   17.8167 C   0  0  0  0  0  0  0  0  0  0  0  0
    6.5522    0.6926   17.5472 N   0  0  0  0  0  0  0  0  0  0  0  0
    7.1566    0.0666   18.5635 C   0  0  0  0  0  0  0  0  0  0  0  0
    8.1155   -0.3998   18.3361 H   0  0  0  0  0  0  0  0  0  0  0  0
    6.6482    0.0135   19.8749 C   0  0  0  0  0  0  0  0  0  0  0  0
    7.3675   -0.6655   20.9616 C   0  0  0  0  0  0  0  0  0  0  0  0
    7.5777   -0.2950   22.2849 C   0  0  0  0  0  0  0  0  0  0  0  0
    7.1908    0.9088   22.8327 N   0  0  0  0  0  0  0  0  0  0  0  0
    6.9412    1.6525   22.1965 H   0  0  0  0  0  0  0  0  0  0  0  0
    7.1493    1.2154   24.1769 N   0  0  0  0  0  0  0  0  0  0  0  0
    6.2850    0.3044   24.9408 C   0  0  0  0  0  0  0  0  0  0  0  0
    5.3197    0.2454   24.4318 H   0  0  0  0  0  0  0  0  0  0  0  0
    6.7150   -0.7116   24.9381 H   0  0  0  0  0  0  0  0  0  0  0  0
    6.1094    0.7896   26.3740 C   0  0  0  0  0  0  0  0  0  0  0  0
    5.5501    1.7348   26.3739 H   0  0  0  0  0  0  0  0  0  0  0  0
    5.4996    0.0652   26.9234 H   0  0  0  0  0  0  0  0  0  0  0  0
    7.4592    0.9873   27.0800 C   0  0  0  0  0  0  0  0  0  0  0  0
    7.9558    0.0042   27.1451 H   0  0  0  0  0  0  0  0  0  0  0  0
    7.2807    1.5275   28.5006 C   0  0  0  0  0  0  0  0  0  0  0  0
    6.6595    0.8585   29.1102 H   0  0  0  0  0  0  0  0  0  0  0  0
    8.2432    1.6514   29.0116 H   0  0  0  0  0  0  0  0  0  0  0  0
    6.7884    2.5088   28.4806 H   0  0  0  0  0  0  0  0  0  0  0  0
    8.3402    1.9045   26.2164 C   0  0  0  0  0  0  0  0  0  0  0  0
    7.9217    2.9202   26.2153 H   0  0  0  0  0  0  0  0  0  0  0  0
    9.3399    1.9841   26.6453 H   0  0  0  0  0  0  0  0  0  0  0  0
    8.4751    1.3984   24.7828 C   0  0  0  0  0  0  0  0  0  0  0  0
    9.0377    0.4488   24.7672 H   0  0  0  0  0  0  0  0  0  0  0  0
    9.0440    2.1131   24.1802 H   0  0  0  0  0  0  0  0  0  0  0  0
    8.2726   -1.3927   22.8606 C   0  0  0  0  0  0  0  0  0  0  0  0
    8.6128   -1.5218   23.8777 H   0  0  0  0  0  0  0  0  0  0  0  0
    8.4865   -2.3582   21.9710 N   0  0  0  0  0  0  0  0  0  0  0  0
    7.9426   -1.8854   20.8377 N   0  0  0  0  0  0  0  0  0  0  0  0
    7.9409   -2.4517   20.0062 H   0  0  0  0  0  0  0  0  0  0  0  0
    5.4303    0.6624   20.1353 C   0  0  0  0  0  0  0  0  0  0  0  0
    5.0184    0.6269   21.1471 H   0  0  0  0  0  0  0  0  0  0  0  0
    4.7911    1.3195   19.0838 C   0  0  0  0  0  0  0  0  0  0  0  0
    3.8626    1.8506   19.2433 H   0  0  0  0  0  0  0  0  0  0  0  0
  1  2  1  0
  2  3  2  0
  3  4  1  0
  4  5  1  0
  4  6  2  0
  6  7  1  0
  7  8  2  0
  8  9  1  0
  9 10  1  0
  9 11  1  0
 11 12  1  0
 12 13  1  0
 12 14  1  0
 12 15  1  0
 15 16  1  0
 15 17  1  0
 15 18  1  0
 18 19  1  0
 18 20  1  0
 20 21  1  0
 20 22  1  0
 20 23  1  0
 18 24  1  0
 24 25  1  0
 24 26  1  0
 24 27  1  0
 27 28  1  0
 27 29  1  0
  8 30  1  0
 30 31  1  0
 30 32  2  0
 32 33  1  0
 33 34  1  0
  6 35  1  0
 35 36  1  0
 35 37  2  0
 37 38  1  0
 37  2  1  0
 33  7  1  0
 27 11  1  0
M  END
>  <cnnaffinity>  (1) 
-5.11238

>  <filename>  (1) 
CC1CCN(Nc2cn[nH]c2-c2cccnc2)CC1

$$$$
