
     RDKit          3D

 38 41  0  0  0  0  0  0  0  0999 V2000
    5.0095    1.8457   16.9170 H   0  0  0  0  0  0  0  0  0  0  0  0
    5.4239    1.2871   17.7603 C   0  0  0  0  0  0  0  0  0  0  0  0
    6.5597    0.6171   17.5266 N   0  0  0  0  0  0  0  0  0  0  0  0
    7.1236   -0.0213   18.5564 C   0  0  0  0  0  0  0  0  0  0  0  0
    8.0325   -0.5717   18.3241 H   0  0  0  0  0  0  0  0  0  0  0  0
    6.6148   -0.0069   19.8715 C   0  0  0  0  0  0  0  0  0  0  0  0
    7.3732   -0.6330   20.9650 C   0  0  0  0  0  0  0  0  0  0  0  0
    8.0617   -1.7565   20.7660 N   0  0  0  0  0  0  0  0  0  0  0  0
    8.5707   -2.0344   21.9677 N   0  0  0  0  0  0  0  0  0  0  0  0
    8.2893   -1.1661   22.9332 C   0  0  0  0  0  0  0  0  0  0  0  0
    7.4999   -0.1976   22.3284 C   0  0  0  0  0  0  0  0  0  0  0  0
    7.0636    1.0350   22.9738 C   0  0  0  0  0  0  0  0  0  0  0  0
    6.5760    1.0007   24.2866 C   0  0  0  0  0  0  0  0  0  0  0  0
    6.4297    0.0437   24.7876 H   0  0  0  0  0  0  0  0  0  0  0  0
    6.2540    2.1843   24.9462 C   0  0  0  0  0  0  0  0  0  0  0  0
    5.8725    2.1519   25.9633 H   0  0  0  0  0  0  0  0  0  0  0  0
    6.4316    3.4266   24.3176 C   0  0  0  0  0  0  0  0  0  0  0  0
    6.1176    4.7104   25.0371 C   0  0  0  0  0  0  0  0  0  0  0  0
    5.3146    4.5627   25.7646 H   0  0  0  0  0  0  0  0  0  0  0  0
    5.8058    5.4848   24.3292 H   0  0  0  0  0  0  0  0  0  0  0  0
    6.9924    5.0885   25.5789 H   0  0  0  0  0  0  0  0  0  0  0  0
    6.9161    3.4497   23.0023 C   0  0  0  0  0  0  0  0  0  0  0  0
    7.0698    4.4038   22.5049 H   0  0  0  0  0  0  0  0  0  0  0  0
    7.2151    2.2714   22.3296 C   0  0  0  0  0  0  0  0  0  0  0  0
    7.5737    2.3004   21.3030 H   0  0  0  0  0  0  0  0  0  0  0  0
    9.0590   -1.5095   24.1925 C   0  0  0  0  0  0  0  0  0  0  0  0
    8.3926   -1.7428   25.0277 H   0  0  0  0  0  0  0  0  0  0  0  0
    9.7090   -0.6917   24.5215 H   0  0  0  0  0  0  0  0  0  0  0  0
    9.8963   -2.7508   23.7725 C   0  0  0  0  0  0  0  0  0  0  0  0
    9.7188   -3.5953   24.4403 H   0  0  0  0  0  0  0  0  0  0  0  0
   10.9598   -2.5267   23.7967 H   0  0  0  0  0  0  0  0  0  0  0  0
    9.5056   -3.0736   22.3042 C   0  0  0  0  0  0  0  0  0  0  0  0
   10.3638   -2.9703   21.6397 H   0  0  0  0  0  0  0  0  0  0  0  0
    9.0239   -4.0462   22.1798 H   0  0  0  0  0  0  0  0  0  0  0  0
    5.3810    0.6356   20.0786 C   0  0  0  0  0  0  0  0  0  0  0  0
    4.8999    0.6365   21.0604 H   0  0  0  0  0  0  0  0  0  0  0  0
    4.7860    1.2961   19.0034 C   0  0  0  0  0  0  0  0  0  0  0  0
    3.8544    1.8308   19.1129 H   0  0  0  0  0  0  0  0  0  0  0  0
  1  2  1  0
  2  3  2  0
  3  4  1  0
  4  5  1  0
  4  6  2  0
  6  7  1  0
  7  8  2  0
  8  9  1  0
  9 10  1  0
 10 11  2  0
 11 12  1  0
 12 13  2  0
 13 14  1  0
 13 15  1  0
 15 16  1  0
 15 17  2  0
 17 18  1  0
 18 19  1  0
 18 20  1  0
 18 21  1  0
 17 22  1  0
 22 23  1  0
 22 24  2  0
 24 25  1  0
 10 26  1  0
 26 27  1  0
 26 28  1  0
 26 29  1  0
 29 30  1  0
 29 31  1  0
 29 32  1  0
 32 33  1  0
 32 34  1  0
  6 35  1  0
 35 36  1  0
 35 37  2  0
 37 38  1  0
 37  2  1  0
 11  7  1  0
 24 12  1  0
 32  9  1  0
M  END
>  <cnnaffinity>  (1) 
-5.42005

>  <filename>  (1) 
Cc1ccc(-c2c(-c3cccnc3)nn3c2CCC3)cc1

$$$$
