
     RDKit          3D

 38 40  0  0  0  0  0  0  0  0999 V2000
    4.9567    1.8654   16.9582 H   0  0  0  0  0  0  0  0  0  0  0  0
    5.4163    1.3287   17.7865 C   0  0  0  0  0  0  0  0  0  0  0  0
    6.5695    0.6925   17.5195 N   0  0  0  0  0  0  0  0  0  0  0  0
    7.1744    0.0394   18.5250 C   0  0  0  0  0  0  0  0  0  0  0  0
    8.0895   -0.5017   18.2730 H   0  0  0  0  0  0  0  0  0  0  0  0
    6.6789   -0.0060   19.8513 C   0  0  0  0  0  0  0  0  0  0  0  0
    7.3035   -0.6989   20.9045 N   0  0  0  0  0  0  0  0  0  0  0  0
    6.7601   -0.7112   21.7643 H   0  0  0  0  0  0  0  0  0  0  0  0
    8.7136   -0.7486   21.1146 C   0  0  0  0  0  0  0  0  0  0  0  0
    9.6967    0.2211   20.7913 C   0  0  0  0  0  0  0  0  0  0  0  0
    9.5343    1.1468   20.2557 H   0  0  0  0  0  0  0  0  0  0  0  0
   10.9130   -0.1115   21.1930 N   0  0  0  0  0  0  0  0  0  0  0  0
   10.7269   -1.3072   21.7960 N   0  0  0  0  0  0  0  0  0  0  0  0
   11.5115   -1.8891   22.0420 H   0  0  0  0  0  0  0  0  0  0  0  0
    9.4400   -1.7484   21.7614 C   0  0  0  0  0  0  0  0  0  0  0  0
    9.1001   -2.9866   22.2794 N   0  0  0  0  0  0  0  0  0  0  0  0
    7.8351   -3.5748   21.8398 C   0  0  0  0  0  0  0  0  0  0  0  0
    6.9917   -3.1063   22.3721 H   0  0  0  0  0  0  0  0  0  0  0  0
    7.7000   -3.3549   20.7814 H   0  0  0  0  0  0  0  0  0  0  0  0
    7.8524   -5.0853   22.0528 C   0  0  0  0  0  0  0  0  0  0  0  0
    6.9224   -5.5177   21.6599 H   0  0  0  0  0  0  0  0  0  0  0  0
    8.6531   -5.5110   21.4470 H   0  0  0  0  0  0  0  0  0  0  0  0
    8.0425   -5.4715   23.5371 C   0  0  0  0  0  0  0  0  0  0  0  0
    8.6487   -6.3870   23.5744 H   0  0  0  0  0  0  0  0  0  0  0  0
    6.6705   -5.7431   24.1684 C   0  0  0  0  0  0  0  0  0  0  0  0
    6.1255   -6.5125   23.6101 H   0  0  0  0  0  0  0  0  0  0  0  0
    6.7430   -6.0372   25.2222 H   0  0  0  0  0  0  0  0  0  0  0  0
    6.0598   -4.8334   24.1165 H   0  0  0  0  0  0  0  0  0  0  0  0
    8.7636   -4.3539   24.3314 C   0  0  0  0  0  0  0  0  0  0  0  0
    9.3063   -4.7638   25.1924 H   0  0  0  0  0  0  0  0  0  0  0  0
    7.9861   -3.6923   24.7326 H   0  0  0  0  0  0  0  0  0  0  0  0
    9.7058   -3.4411   23.5368 C   0  0  0  0  0  0  0  0  0  0  0  0
   10.6854   -3.9002   23.3521 H   0  0  0  0  0  0  0  0  0  0  0  0
    9.9072   -2.5584   24.1546 H   0  0  0  0  0  0  0  0  0  0  0  0
    5.4478    0.6270   20.0906 C   0  0  0  0  0  0  0  0  0  0  0  0
    5.0055    0.5689   21.0821 H   0  0  0  0  0  0  0  0  0  0  0  0
    4.8147    1.3117   19.0489 C   0  0  0  0  0  0  0  0  0  0  0  0
    3.8768    1.8351   19.2058 H   0  0  0  0  0  0  0  0  0  0  0  0
  1  2  1  0
  2  3  2  0
  3  4  1  0
  4  5  1  0
  4  6  2  0
  6  7  1  0
  7  8  1  0
  7  9  1  0
  9 10  1  0
 10 11  1  0
 10 12  2  0
 12 13  1  0
 13 14  1  0
 13 15  1  0
 15 16  1  0
 16 17  1  0
 17 18  1  0
 17 19  1  0
 17 20  1  0
 20 21  1  0
 20 22  1  0
 20 23  1  0
 23 24  1  0
 23 25  1  0
 25 26  1  0
 25 27  1  0
 25 28  1  0
 23 29  1  0
 29 30  1  0
 29 31  1  0
 29 32  1  0
 32 33  1  0
 32 34  1  0
  6 35  1  0
 35 36  1  0
 35 37  2  0
 37 38  1  0
 37  2  1  0
 15  9  2  0
 32 16  1  0
M  END
>  <cnnaffinity>  (1) 
-5.63459

>  <filename>  (1) 
CC1CCN(c2[nH]ncc2Nc2cccnc2)CC1

$$$$
