
     RDKit          3D

 37 39  0  0  0  0  0  0  0  0999 V2000
    2.7634   -4.2709   26.1972 C   0  0  0  0  0  0  0  0  0  0  0  0
    3.6601   -3.1437   25.7443 C   0  0  0  0  0  0  0  0  0  0  0  0
    3.2901   -1.8059   25.9608 C   0  0  0  0  0  0  0  0  0  0  0  0
    4.1723   -0.7628   25.6604 C   0  0  0  0  0  0  0  0  0  0  0  0
    5.4247   -1.0448   25.0957 C   0  0  0  0  0  0  0  0  0  0  0  0
    5.7416   -2.3674   24.7530 C   0  0  0  0  0  0  0  0  0  0  0  0
    6.9258   -2.7093   24.0403 N   0  0  0  0  0  0  0  0  0  0  0  0
    7.4108   -2.0492   22.9503 C   0  0  0  0  0  0  0  0  0  0  0  0
    6.6594   -1.4587   21.9590 C   0  0  0  0  0  0  0  0  0  0  0  0
    7.3735   -0.7840   20.9858 C   0  0  0  0  0  0  0  0  0  0  0  0
    6.6736   -0.0132   19.9412 C   0  0  0  0  0  0  0  0  0  0  0  0
    5.4591    0.6633   20.1543 C   0  0  0  0  0  0  0  0  0  0  0  0
    4.8646    1.3119   19.0749 C   0  0  0  0  0  0  0  0  0  0  0  0
    5.5009    1.2645   17.8305 C   0  0  0  0  0  0  0  0  0  0  0  0
    6.6682    0.6400   17.6197 N   0  0  0  0  0  0  0  0  0  0  0  0
    7.2427    0.0338   18.6627 C   0  0  0  0  0  0  0  0  0  0  0  0
    8.1978   -0.4506   18.4647 H   0  0  0  0  0  0  0  0  0  0  0  0
    5.0566    1.7472   16.9639 H   0  0  0  0  0  0  0  0  0  0  0  0
    3.9279    1.8488   19.1774 H   0  0  0  0  0  0  0  0  0  0  0  0
    4.9991    0.7025   21.1449 H   0  0  0  0  0  0  0  0  0  0  0  0
    8.7038   -0.8152   20.9400 N   0  0  0  0  0  0  0  0  0  0  0  0
    9.3228   -1.4475   21.9369 C   0  0  0  0  0  0  0  0  0  0  0  0
   10.8131   -1.4219   21.9470 C   0  0  0  0  0  0  0  0  0  0  0  0
   11.1957   -2.3397   22.4007 H   0  0  0  0  0  0  0  0  0  0  0  0
   11.1967   -1.2970   20.9370 H   0  0  0  0  0  0  0  0  0  0  0  0
   11.1432   -0.5667   22.5440 H   0  0  0  0  0  0  0  0  0  0  0  0
    8.7380   -2.0737   22.9517 N   0  0  0  0  0  0  0  0  0  0  0  0
    5.5944   -1.5413   21.9351 H   0  0  0  0  0  0  0  0  0  0  0  0
    7.7649   -2.8587   24.5793 H   0  0  0  0  0  0  0  0  0  0  0  0
    4.9024   -3.4062   25.1540 C   0  0  0  0  0  0  0  0  0  0  0  0
    5.2433   -4.4212   24.9742 H   0  0  0  0  0  0  0  0  0  0  0  0
    6.1437   -0.2610   24.8780 H   0  0  0  0  0  0  0  0  0  0  0  0
    3.8757    0.2693   25.8370 H   0  0  0  0  0  0  0  0  0  0  0  0
    2.2842   -1.5888   26.3164 H   0  0  0  0  0  0  0  0  0  0  0  0
    2.9528   -5.1937   25.6406 H   0  0  0  0  0  0  0  0  0  0  0  0
    2.9355   -4.4869   27.2588 H   0  0  0  0  0  0  0  0  0  0  0  0
    1.7059   -4.0132   26.0800 H   0  0  0  0  0  0  0  0  0  0  0  0
  1  2  1  0
  2  3  2  0
  3  4  1  0
  4  5  2  0
  5  6  1  0
  6  7  1  0
  7  8  1  0
  8  9  2  0
  9 10  1  0
 10 11  1  0
 11 12  2  0
 12 13  1  0
 13 14  2  0
 14 15  1  0
 15 16  2  0
 16 17  1  0
 14 18  1  0
 13 19  1  0
 12 20  1  0
 10 21  2  0
 21 22  1  0
 22 23  1  0
 23 24  1  0
 23 25  1  0
 23 26  1  0
 22 27  2  0
  9 28  1  0
  7 29  1  0
  6 30  2  0
 30 31  1  0
  5 32  1  0
  4 33  1  0
  3 34  1  0
  1 35  1  0
  1 36  1  0
  1 37  1  0
 30  2  1  0
 27  8  1  0
 16 11  1  0
M  END
>  <cnnaffinity>  (1) 
-5.5169

>  <filename>  (1) 
Cc1cccc(Nc2cc(-c3cccnc3)nc(C)n2)c1

$$$$
