
     RDKit          3D

 37 40  0  0  0  0  0  0  0  0999 V2000
    4.9981    1.8439   16.9189 H   0  0  0  0  0  0  0  0  0  0  0  0
    5.3892    1.3070   17.7816 C   0  0  0  0  0  0  0  0  0  0  0  0
    6.5418    0.6435   17.5961 N   0  0  0  0  0  0  0  0  0  0  0  0
    7.0654    0.0227   18.6632 C   0  0  0  0  0  0  0  0  0  0  0  0
    8.0034   -0.5001   18.4810 H   0  0  0  0  0  0  0  0  0  0  0  0
    6.4806   -0.0057   19.9496 C   0  0  0  0  0  0  0  0  0  0  0  0
    7.2360   -0.6119   21.0690 C   0  0  0  0  0  0  0  0  0  0  0  0
    8.5914   -0.5403   21.3108 C   0  0  0  0  0  0  0  0  0  0  0  0
    8.8049   -1.1465   22.5384 C   0  0  0  0  0  0  0  0  0  0  0  0
    7.6953   -1.6200   23.0729 N   0  0  0  0  0  0  0  0  0  0  0  0
    6.7431   -1.2739   22.1655 N   0  0  0  0  0  0  0  0  0  0  0  0
    5.7858   -1.5340   22.3702 H   0  0  0  0  0  0  0  0  0  0  0  0
   10.2371   -1.1011   22.9711 C   0  0  0  0  0  0  0  0  0  0  0  0
   10.6479   -2.1119   23.0459 H   0  0  0  0  0  0  0  0  0  0  0  0
   10.3653   -0.6332   23.9513 H   0  0  0  0  0  0  0  0  0  0  0  0
   10.9330   -0.2762   21.8335 C   0  0  2  0  0  0  0  0  0  0  0  0
   11.7224   -0.9054   21.4160 H   0  0  0  0  0  0  0  0  0  0  0  0
   11.5642    1.0030   22.3342 C   0  0  0  0  0  0  0  0  0  0  0  0
   10.7706    2.0291   22.8668 C   0  0  0  0  0  0  0  0  0  0  0  0
    9.6929    1.8864   22.9319 H   0  0  0  0  0  0  0  0  0  0  0  0
   11.2301    3.2075   23.3101 N   0  0  0  0  0  0  0  0  0  0  0  0
   12.5465    3.4401   23.2255 C   0  0  0  0  0  0  0  0  0  0  0  0
   13.0383    4.8000   23.6521 C   0  0  0  0  0  0  0  0  0  0  0  0
   13.8207    4.7228   24.4124 H   0  0  0  0  0  0  0  0  0  0  0  0
   12.2120    5.3995   24.0446 H   0  0  0  0  0  0  0  0  0  0  0  0
   13.4910    5.3258   22.8045 H   0  0  0  0  0  0  0  0  0  0  0  0
   13.4341    2.4617   22.7476 C   0  0  0  0  0  0  0  0  0  0  0  0
   14.4906    2.6829   22.6811 H   0  0  0  0  0  0  0  0  0  0  0  0
   12.9471    1.2346   22.3092 C   0  0  0  0  0  0  0  0  0  0  0  0
   13.6328    0.4689   21.9379 H   0  0  0  0  0  0  0  0  0  0  0  0
    9.8611   -0.0470   20.7120 C   0  0  0  0  0  0  0  0  0  0  0  0
    9.7889    0.9948   20.3808 H   0  0  0  0  0  0  0  0  0  0  0  0
   10.1236   -0.6381   19.8321 H   0  0  0  0  0  0  0  0  0  0  0  0
    5.2533    0.6661   20.1073 C   0  0  0  0  0  0  0  0  0  0  0  0
    4.7521    0.7069   21.0785 H   0  0  0  0  0  0  0  0  0  0  0  0
    4.7139    1.3365   19.0080 C   0  0  0  0  0  0  0  0  0  0  0  0
    3.7989    1.9122   19.0894 H   0  0  0  0  0  0  0  0  0  0  0  0
  1  2  1  0
  2  3  2  0
  3  4  1  0
  4  5  1  0
  4  6  2  0
  6  7  1  0
  7  8  2  0
  8  9  1  0
  9 10  2  0
 10 11  1  0
 11 12  1  0
  9 13  1  0
 13 14  1  0
 13 15  1  0
 13 16  1  0
 16 17  1  6
 16 18  1  0
 18 19  2  0
 19 20  1  0
 19 21  1  0
 21 22  2  0
 22 23  1  0
 23 24  1  0
 23 25  1  0
 23 26  1  0
 22 27  1  0
 27 28  1  0
 27 29  2  0
 29 30  1  0
 16 31  1  0
 31 32  1  0
 31 33  1  0
  6 34  1  0
 34 35  1  0
 34 36  2  0
 36 37  1  0
 36  2  1  0
 11  7  1  0
 29 18  1  0
 31  8  1  0
M  END
>  <cnnaffinity>  (1) 
-5.89542

>  <filename>  (1) 
Cc1ccc([C@H]2Cc3n[nH]c(-c4cccnc4)c3C2)cn1

$$$$
