
     RDKit          3D

 30 32  0  0  0  0  0  0  0  0999 V2000
    4.9139    1.7854   16.9899 H   0  0  0  0  0  0  0  0  0  0  0  0
    5.3965    1.2968   17.8312 C   0  0  0  0  0  0  0  0  0  0  0  0
    6.5594    0.6820   17.5639 N   0  0  0  0  0  0  0  0  0  0  0  0
    7.1704    0.0730   18.5881 C   0  0  0  0  0  0  0  0  0  0  0  0
    8.1108   -0.4251   18.3571 H   0  0  0  0  0  0  0  0  0  0  0  0
    6.6639    0.0130   19.8994 C   0  0  0  0  0  0  0  0  0  0  0  0
    7.3930   -0.7020   20.9651 C   0  0  0  0  0  0  0  0  0  0  0  0
    8.7498   -0.7767   21.0803 C   0  0  0  0  0  0  0  0  0  0  0  0
    9.4638   -0.2991   20.4263 H   0  0  0  0  0  0  0  0  0  0  0  0
    9.2457   -1.6364   22.4857 S   0  0  0  0  0  0  0  0  0  0  0  0
    7.6022   -1.9597   22.9416 C   0  0  0  0  0  0  0  0  0  0  0  0
    7.2757   -2.7115   24.1790 C   0  0  0  0  0  0  0  0  0  0  0  0
    8.0401   -2.4495   25.2560 N   0  0  0  0  0  0  0  0  0  0  0  0
    7.7408   -3.0428   26.4105 C   0  0  0  0  0  0  0  0  0  0  0  0
    8.3763   -2.7865   27.2531 H   0  0  0  0  0  0  0  0  0  0  0  0
    6.6888   -3.9477   26.5626 C   0  0  0  0  0  0  0  0  0  0  0  0
    6.4994   -4.4079   27.5268 H   0  0  0  0  0  0  0  0  0  0  0  0
    5.9172   -4.2575   25.4474 C   0  0  0  0  0  0  0  0  0  0  0  0
    5.0929   -4.9720   25.5253 H   0  0  0  0  0  0  0  0  0  0  0  0
    6.2074   -3.6563   24.2140 C   0  0  0  0  0  0  0  0  0  0  0  0
    5.3757   -4.0540   23.0125 C   0  0  0  0  0  0  0  0  0  0  0  0
    4.9518   -5.0549   23.1424 H   0  0  0  0  0  0  0  0  0  0  0  0
    4.5278   -3.3756   22.8696 H   0  0  0  0  0  0  0  0  0  0  0  0
    5.9610   -4.0488   22.0889 H   0  0  0  0  0  0  0  0  0  0  0  0
    6.7510   -1.3930   22.0314 C   0  0  0  0  0  0  0  0  0  0  0  0
    5.6754   -1.4579   22.0451 H   0  0  0  0  0  0  0  0  0  0  0  0
    5.4369    0.6515   20.1489 C   0  0  0  0  0  0  0  0  0  0  0  0
    5.0197    0.6371   21.1591 H   0  0  0  0  0  0  0  0  0  0  0  0
    4.8020    1.3148   19.0993 C   0  0  0  0  0  0  0  0  0  0  0  0
    3.8702    1.8457   19.2550 H   0  0  0  0  0  0  0  0  0  0  0  0
  1  2  1  0
  2  3  2  0
  3  4  1  0
  4  5  1  0
  4  6  2  0
  6  7  1  0
  7  8  2  0
  8  9  1  0
  8 10  1  0
 10 11  1  0
 11 12  1  0
 12 13  2  0
 13 14  1  0
 14 15  1  0
 14 16  2  0
 16 17  1  0
 16 18  1  0
 18 19  1  0
 18 20  2  0
 20 21  1  0
 21 22  1  0
 21 23  1  0
 21 24  1  0
 11 25  2  0
 25 26  1  0
  6 27  1  0
 27 28  1  0
 27 29  2  0
 29 30  1  0
 29  2  1  0
 25  7  1  0
 20 12  1  0
M  END
>  <cnnaffinity>  (1) 
-5.22592

>  <filename>  (1) 
Cc1cccnc1-c1cc(-c2cccnc2)cs1

$$$$
