
     RDKit          3D

 36 38  0  0  0  0  0  0  0  0999 V2000
    4.9292    1.7909   16.9895 H   0  0  0  0  0  0  0  0  0  0  0  0
    5.3956    1.2960   17.8389 C   0  0  0  0  0  0  0  0  0  0  0  0
    6.5518    0.6685   17.5816 N   0  0  0  0  0  0  0  0  0  0  0  0
    7.1412    0.0379   18.5991 C   0  0  0  0  0  0  0  0  0  0  0  0
    8.1112   -0.4112   18.3948 H   0  0  0  0  0  0  0  0  0  0  0  0
    6.6021   -0.0305   19.8981 C   0  0  0  0  0  0  0  0  0  0  0  0
    7.3178   -0.7443   20.9891 C   0  0  0  0  0  0  0  0  0  0  0  0
    6.5795   -1.5087   21.7513 N   0  0  0  0  0  0  0  0  0  0  0  0
    7.1614   -2.1829   22.7941 N   0  0  0  0  0  0  0  0  0  0  0  0
    6.2905   -2.9939   23.6098 C   0  0  0  0  0  0  0  0  0  0  0  0
    5.2270   -3.6810   23.0133 C   0  0  0  0  0  0  0  0  0  0  0  0
    5.0820   -3.5635   21.9449 H   0  0  0  0  0  0  0  0  0  0  0  0
    4.3873   -4.4727   23.8047 C   0  0  0  0  0  0  0  0  0  0  0  0
    3.5513   -5.0055   23.3514 H   0  0  0  0  0  0  0  0  0  0  0  0
    4.5763   -4.5900   25.1893 C   0  0  0  0  0  0  0  0  0  0  0  0
    3.6457   -5.4487   26.0156 C   0  0  0  0  0  0  0  0  0  0  0  0
    2.8227   -5.8447   25.4150 H   0  0  0  0  0  0  0  0  0  0  0  0
    4.1675   -6.3057   26.4597 H   0  0  0  0  0  0  0  0  0  0  0  0
    3.2051   -4.8905   26.8508 H   0  0  0  0  0  0  0  0  0  0  0  0
    5.6507   -3.8923   25.7922 C   0  0  0  0  0  0  0  0  0  0  0  0
    5.8961   -3.9840   27.2809 C   0  0  0  0  0  0  0  0  0  0  0  0
    5.0773   -3.5331   27.8546 H   0  0  0  0  0  0  0  0  0  0  0  0
    5.9757   -5.0237   27.6189 H   0  0  0  0  0  0  0  0  0  0  0  0
    6.8191   -3.4717   27.5618 H   0  0  0  0  0  0  0  0  0  0  0  0
    6.4926   -3.1069   24.9949 C   0  0  0  0  0  0  0  0  0  0  0  0
    7.3038   -2.5482   25.4536 H   0  0  0  0  0  0  0  0  0  0  0  0
    8.5221   -2.1142   23.0209 C   0  0  0  0  0  0  0  0  0  0  0  0
    8.8826   -2.7340   23.8382 H   0  0  0  0  0  0  0  0  0  0  0  0
    9.3475   -1.3595   22.2764 C   0  0  0  0  0  0  0  0  0  0  0  0
   10.4155   -1.2853   22.4483 H   0  0  0  0  0  0  0  0  0  0  0  0
    8.8047   -0.5626   21.1860 C   0  0  0  0  0  0  0  0  0  0  0  0
    9.5092    0.1722   20.4981 O   0  0  0  0  0  0  0  0  0  0  0  0
    5.3998    0.6369   20.1551 C   0  0  0  0  0  0  0  0  0  0  0  0
    4.9924    0.6195   21.1688 H   0  0  0  0  0  0  0  0  0  0  0  0
    4.7933    1.3210   19.1026 C   0  0  0  0  0  0  0  0  0  0  0  0
    3.8660    1.8599   19.2431 H   0  0  0  0  0  0  0  0  0  0  0  0
  1  2  1  0
  2  3  2  0
  3  4  1  0
  4  5  1  0
  4  6  2  0
  6  7  1  0
  7  8  2  0
  8  9  1  0
  9 10  1  0
 10 11  2  0
 11 12  1  0
 11 13  1  0
 13 14  1  0
 13 15  2  0
 15 16  1  0
 16 17  1  0
 16 18  1  0
 16 19  1  0
 15 20  1  0
 20 21  1  0
 21 22  1  0
 21 23  1  0
 21 24  1  0
 20 25  2  0
 25 26  1  0
  9 27  1  0
 27 28  1  0
 27 29  2  0
 29 30  1  0
 29 31  1  0
 31 32  2  0
  6 33  1  0
 33 34  1  0
 33 35  2  0
 35 36  1  0
 35  2  1  0
 31  7  1  0
 25 10  1  0
M  END
>  <cnnaffinity>  (1) 
-5.35685

>  <filename>  (1) 
Cc1ccc(-n2ccc(=O)c(-c3cccnc3)n2)cc1C

$$$$
