
     RDKit          3D

 33 35  0  0  0  0  0  0  0  0999 V2000
    4.9119    1.7856   16.9951 H   0  0  0  0  0  0  0  0  0  0  0  0
    5.3962    1.2974   17.8375 C   0  0  0  0  0  0  0  0  0  0  0  0
    6.5603    0.6832   17.5705 N   0  0  0  0  0  0  0  0  0  0  0  0
    7.1718    0.0615   18.5889 C   0  0  0  0  0  0  0  0  0  0  0  0
    8.1196   -0.4293   18.3751 H   0  0  0  0  0  0  0  0  0  0  0  0
    6.6639   -0.0098   19.9107 C   0  0  0  0  0  0  0  0  0  0  0  0
    7.3238   -0.7166   20.9238 N   0  0  0  0  0  0  0  0  0  0  0  0
    6.7714   -1.0671   21.6968 H   0  0  0  0  0  0  0  0  0  0  0  0
    8.7108   -0.7633   21.1054 C   0  0  0  0  0  0  0  0  0  0  0  0
    9.6988    0.1474   20.6707 C   0  0  0  0  0  0  0  0  0  0  0  0
    9.5313    1.0254   20.0700 H   0  0  0  0  0  0  0  0  0  0  0  0
   10.9100   -0.1773   21.1035 N   0  0  0  0  0  0  0  0  0  0  0  0
   10.7088   -1.2962   21.8120 N   0  0  0  0  0  0  0  0  0  0  0  0
   11.5008   -1.7508   22.2395 H   0  0  0  0  0  0  0  0  0  0  0  0
    9.4111   -1.7094   21.8391 C   0  0  0  0  0  0  0  0  0  0  0  0
    8.9331   -2.9054   22.5313 C   0  0  0  0  0  0  0  0  0  0  0  0
    7.8784   -3.6525   21.9803 C   0  0  0  0  0  0  0  0  0  0  0  0
    7.4601   -3.3473   21.0252 H   0  0  0  0  0  0  0  0  0  0  0  0
    7.3959   -4.7772   22.6487 C   0  0  0  0  0  0  0  0  0  0  0  0
    6.5760   -5.3499   22.2258 H   0  0  0  0  0  0  0  0  0  0  0  0
    7.9644   -5.1568   23.8687 C   0  0  0  0  0  0  0  0  0  0  0  0
    7.5865   -6.0250   24.4004 H   0  0  0  0  0  0  0  0  0  0  0  0
    9.0222   -4.4269   24.4314 C   0  0  0  0  0  0  0  0  0  0  0  0
    9.6214   -4.8227   25.7567 C   0  0  0  0  0  0  0  0  0  0  0  0
   10.6802   -4.5512   25.8184 H   0  0  0  0  0  0  0  0  0  0  0  0
    9.1007   -4.3168   26.5772 H   0  0  0  0  0  0  0  0  0  0  0  0
    9.5396   -5.9001   25.9247 H   0  0  0  0  0  0  0  0  0  0  0  0
    9.4957   -3.3017   23.7546 C   0  0  0  0  0  0  0  0  0  0  0  0
   10.2993   -2.7112   24.1945 H   0  0  0  0  0  0  0  0  0  0  0  0
    5.4429    0.6336   20.1636 C   0  0  0  0  0  0  0  0  0  0  0  0
    5.0183    0.6219   21.1683 H   0  0  0  0  0  0  0  0  0  0  0  0
    4.8118    1.3060   19.1093 C   0  0  0  0  0  0  0  0  0  0  0  0
    3.8809    1.8382   19.2642 H   0  0  0  0  0  0  0  0  0  0  0  0
  1  2  1  0
  2  3  2  0
  3  4  1  0
  4  5  1  0
  4  6  2  0
  6  7  1  0
  7  8  1  0
  7  9  1  0
  9 10  1  0
 10 11  1  0
 10 12  2  0
 12 13  1  0
 13 14  1  0
 13 15  1  0
 15 16  1  0
 16 17  2  0
 17 18  1  0
 17 19  1  0
 19 20  1  0
 19 21  2  0
 21 22  1  0
 21 23  1  0
 23 24  1  0
 24 25  1  0
 24 26  1  0
 24 27  1  0
 23 28  2  0
 28 29  1  0
  6 30  1  0
 30 31  1  0
 30 32  2  0
 32 33  1  0
 32  2  1  0
 15  9  2  0
 28 16  1  0
M  END
>  <cnnaffinity>  (1) 
-5.63348

>  <filename>  (1) 
Cc1cccc(-c2[nH]ncc2Nc2cccnc2)c1

$$$$
