
     RDKit          3D

 32 34  0  0  0  0  0  0  0  0999 V2000
    4.9145    1.8153   16.9704 H   0  0  0  0  0  0  0  0  0  0  0  0
    5.3808    1.3071   17.8144 C   0  0  0  0  0  0  0  0  0  0  0  0
    6.5417    0.6847   17.5538 N   0  0  0  0  0  0  0  0  0  0  0  0
    7.1595    0.0760   18.5729 C   0  0  0  0  0  0  0  0  0  0  0  0
    8.1099   -0.3923   18.3191 H   0  0  0  0  0  0  0  0  0  0  0  0
    6.6645    0.0359   19.8977 C   0  0  0  0  0  0  0  0  0  0  0  0
    7.3813   -0.6363   21.0012 C   0  0  0  0  0  0  0  0  0  0  0  0
    7.5163   -0.3138   22.3458 C   0  0  0  0  0  0  0  0  0  0  0  0
    6.9773    0.8299   22.9727 N   0  0  0  0  0  0  0  0  0  0  0  0
    7.0649    1.7469   22.5555 H   0  0  0  0  0  0  0  0  0  0  0  0
    6.7843    1.0013   24.3169 C   0  0  0  0  0  0  0  0  0  0  0  0
    6.9732    2.2542   24.7343 N   0  0  0  0  0  0  0  0  0  0  0  0
    6.7932    2.4585   26.0467 C   0  0  0  0  0  0  0  0  0  0  0  0
    6.9906    3.4709   26.4092 H   0  0  0  0  0  0  0  0  0  0  0  0
    6.3796    1.4667   26.9419 C   0  0  0  0  0  0  0  0  0  0  0  0
    6.2402    1.7054   27.9886 H   0  0  0  0  0  0  0  0  0  0  0  0
    6.1366    0.1645   26.4681 C   0  0  0  0  0  0  0  0  0  0  0  0
    5.6869   -0.9606   27.3605 C   0  0  0  0  0  0  0  0  0  0  0  0
    6.5471   -1.5148   27.7531 H   0  0  0  0  0  0  0  0  0  0  0  0
    5.1075   -0.5914   28.2106 H   0  0  0  0  0  0  0  0  0  0  0  0
    5.0644   -1.6687   26.8035 H   0  0  0  0  0  0  0  0  0  0  0  0
    6.3495   -0.0586   25.1150 C   0  0  0  0  0  0  0  0  0  0  0  0
    6.1862   -1.0038   24.6099 H   0  0  0  0  0  0  0  0  0  0  0  0
    8.2989   -1.3786   22.8899 C   0  0  0  0  0  0  0  0  0  0  0  0
    8.6548   -1.5041   23.9077 H   0  0  0  0  0  0  0  0  0  0  0  0
    8.6184   -2.2802   21.9656 N   0  0  0  0  0  0  0  0  0  0  0  0
    8.0606   -1.8066   20.8411 N   0  0  0  0  0  0  0  0  0  0  0  0
    8.1133   -2.3458   19.9847 H   0  0  0  0  0  0  0  0  0  0  0  0
    5.4353    0.6755   20.1337 C   0  0  0  0  0  0  0  0  0  0  0  0
    5.0116    0.6438   21.1364 H   0  0  0  0  0  0  0  0  0  0  0  0
    4.7856    1.3218   19.0801 C   0  0  0  0  0  0  0  0  0  0  0  0
    3.8519    1.8539   19.2244 H   0  0  0  0  0  0  0  0  0  0  0  0
  1  2  1  0
  2  3  2  0
  3  4  1  0
  4  5  1  0
  4  6  2  0
  6  7  1  0
  7  8  2  0
  8  9  1  0
  9 10  1  0
  9 11  1  0
 11 12  2  0
 12 13  1  0
 13 14  1  0
 13 15  2  0
 15 16  1  0
 15 17  1  0
 17 18  1  0
 18 19  1  0
 18 20  1  0
 18 21  1  0
 17 22  2  0
 22 23  1  0
  8 24  1  0
 24 25  1  0
 24 26  2  0
 26 27  1  0
 27 28  1  0
  6 29  1  0
 29 30  1  0
 29 31  2  0
 31 32  1  0
 31  2  1  0
 27  7  1  0
 22 11  1  0
M  END
>  <cnnaffinity>  (1) 
-5.2874

>  <filename>  (1) 
Cc1ccnc(Nc2cn[nH]c2-c2cccnc2)c1

$$$$
