
     RDKit          3D

 29 31  0  0  0  0  0  0  0  0999 V2000
    4.9200    1.7859   16.9926 H   0  0  0  0  0  0  0  0  0  0  0  0
    5.4009    1.2961   17.8366 C   0  0  0  0  0  0  0  0  0  0  0  0
    6.5667    0.6781   17.5799 N   0  0  0  0  0  0  0  0  0  0  0  0
    7.1701    0.0622   18.5992 C   0  0  0  0  0  0  0  0  0  0  0  0
    8.1143   -0.4283   18.3742 H   0  0  0  0  0  0  0  0  0  0  0  0
    6.6614    0.0122   19.9124 C   0  0  0  0  0  0  0  0  0  0  0  0
    7.3662   -0.6862   21.0009 C   0  0  0  0  0  0  0  0  0  0  0  0
    8.0672   -2.2374   20.8219 S   0  0  0  0  0  0  0  0  0  0  0  0
    8.5091   -2.4271   22.3998 N   0  0  0  0  0  0  0  0  0  0  0  0
    8.1565   -1.3684   23.0684 C   0  0  0  0  0  0  0  0  0  0  0  0
    8.3987   -1.3408   24.1253 H   0  0  0  0  0  0  0  0  0  0  0  0
    7.5133   -0.3310   22.3267 C   0  0  0  0  0  0  0  0  0  0  0  0
    7.1619    0.9408   22.9529 C   0  0  0  0  0  0  0  0  0  0  0  0
    6.6876    0.8888   24.2100 N   0  0  0  0  0  0  0  0  0  0  0  0
    6.3253    2.0469   24.7593 C   0  0  0  0  0  0  0  0  0  0  0  0
    5.9217    1.9849   25.7643 H   0  0  0  0  0  0  0  0  0  0  0  0
    6.4539    3.2906   24.1418 C   0  0  0  0  0  0  0  0  0  0  0  0
    6.1552    4.1933   24.6556 H   0  0  0  0  0  0  0  0  0  0  0  0
    6.9924    3.3583   22.8568 C   0  0  0  0  0  0  0  0  0  0  0  0
    7.1388    4.6592   22.1260 C   0  0  0  0  0  0  0  0  0  0  0  0
    6.2488    4.8590   21.5180 H   0  0  0  0  0  0  0  0  0  0  0  0
    8.0069    4.6449   21.4611 H   0  0  0  0  0  0  0  0  0  0  0  0
    7.2605    5.4923   22.8230 H   0  0  0  0  0  0  0  0  0  0  0  0
    7.3558    2.1481   22.2706 C   0  0  0  0  0  0  0  0  0  0  0  0
    7.7586    2.1152   21.2684 H   0  0  0  0  0  0  0  0  0  0  0  0
    5.4274    0.6419   20.1498 C   0  0  0  0  0  0  0  0  0  0  0  0
    4.9998    0.6283   21.1535 H   0  0  0  0  0  0  0  0  0  0  0  0
    4.8005    1.3062   19.0984 C   0  0  0  0  0  0  0  0  0  0  0  0
    3.8717    1.8412   19.2526 H   0  0  0  0  0  0  0  0  0  0  0  0
  1  2  1  0
  2  3  2  0
  3  4  1  0
  4  5  1  0
  4  6  2  0
  6  7  1  0
  7  8  1  0
  8  9  1  0
  9 10  2  0
 10 11  1  0
 10 12  1  0
 12 13  1  0
 13 14  2  0
 14 15  1  0
 15 16  1  0
 15 17  2  0
 17 18  1  0
 17 19  1  0
 19 20  1  0
 20 21  1  0
 20 22  1  0
 20 23  1  0
 19 24  2  0
 24 25  1  0
  6 26  1  0
 26 27  1  0
 26 28  2  0
 28 29  1  0
 28  2  1  0
 12  7  2  0
 24 13  1  0
M  END
>  <cnnaffinity>  (1) 
-5.00062

>  <filename>  (1) 
Cc1ccnc(-c2cnsc2-c2cccnc2)c1

$$$$
