
     RDKit          3D

 33 35  0  0  0  0  0  0  0  0999 V2000
    4.9970    2.1269   16.8431 H   0  0  0  0  0  0  0  0  0  0  0  0
    5.4006    1.5569   17.6768 C   0  0  0  0  0  0  0  0  0  0  0  0
    6.4186    0.7350   17.3860 N   0  0  0  0  0  0  0  0  0  0  0  0
    6.9301    0.0135   18.3877 C   0  0  0  0  0  0  0  0  0  0  0  0
    7.7429   -0.6570   18.1087 H   0  0  0  0  0  0  0  0  0  0  0  0
    6.4862    0.0761   19.7356 C   0  0  0  0  0  0  0  0  0  0  0  0
    7.1629   -0.7777   20.7739 C   0  0  0  0  0  0  0  0  0  0  0  0
    7.2295   -0.1304   22.0368 N   0  0  0  0  0  0  0  0  0  0  0  0
    7.8137   -0.7572   23.0505 C   0  0  0  0  0  0  0  0  0  0  0  0
    7.9388   -0.0186   24.3453 C   0  0  0  0  0  0  0  0  0  0  0  0
    7.0811    1.0449   24.6995 C   0  0  0  0  0  0  0  0  0  0  0  0
    6.4020    1.4388   23.9457 H   0  0  0  0  0  0  0  0  0  0  0  0
    7.0945    1.5636   25.9959 C   0  0  0  0  0  0  0  0  0  0  0  0
    6.3922    2.3486   26.2598 H   0  0  0  0  0  0  0  0  0  0  0  0
    7.9776    1.0481   26.9538 C   0  0  0  0  0  0  0  0  0  0  0  0
    7.9719    1.4086   27.9771 H   0  0  0  0  0  0  0  0  0  0  0  0
    8.8951    0.0540   26.6125 C   0  0  0  0  0  0  0  0  0  0  0  0
    9.8603   -0.5327   27.6059 C   0  0  0  0  0  0  0  0  0  0  0  0
   10.8679   -0.1424   27.4269 H   0  0  0  0  0  0  0  0  0  0  0  0
    9.5844   -0.2894   28.6361 H   0  0  0  0  0  0  0  0  0  0  0  0
    9.8921   -1.6208   27.5018 H   0  0  0  0  0  0  0  0  0  0  0  0
    8.8913   -0.4278   25.3022 C   0  0  0  0  0  0  0  0  0  0  0  0
    9.6561   -1.1469   25.0216 H   0  0  0  0  0  0  0  0  0  0  0  0
    8.3710   -2.1983   23.2251 C   0  0  0  0  0  0  0  0  0  0  0  0
    8.1083   -2.5362   24.2342 H   0  0  0  0  0  0  0  0  0  0  0  0
    9.1549   -2.9826   22.6045 N   0  0  0  0  0  0  0  0  0  0  0  0
    9.3524   -2.8052   21.6083 H   0  0  0  0  0  0  0  0  0  0  0  0
    7.6596   -2.2106   20.7441 C   0  0  0  0  0  0  0  0  0  0  0  0
    7.6504   -2.0546   20.5107 O   0  0  0  0  0  0  0  0  0  0  0  0
    5.4195    0.9587   20.0075 C   0  0  0  0  0  0  0  0  0  0  0  0
    5.0446    1.0626   21.0255 H   0  0  0  0  0  0  0  0  0  0  0  0
    4.8630    1.6900   18.9602 C   0  0  0  0  0  0  0  0  0  0  0  0
    4.0497    2.3861   19.1240 H   0  0  0  0  0  0  0  0  0  0  0  0
  1  2  1  0
  2  3  2  0
  3  4  1  0
  4  5  1  0
  4  6  2  0
  6  7  1  0
  7  8  2  0
  8  9  1  0
  9 10  1  0
 10 11  2  0
 11 12  1  0
 11 13  1  0
 13 14  1  0
 13 15  2  0
 15 16  1  0
 15 17  1  0
 17 18  1  0
 18 19  1  0
 18 20  1  0
 18 21  1  0
 17 22  2  0
 22 23  1  0
  9 24  2  0
 24 25  1  0
 24 26  1  0
 26 27  1  0
 26 28  1  0
 28 29  2  0
  6 30  1  0
 30 31  1  0
 30 32  2  0
 32 33  1  0
 32  2  1  0
 28  7  1  0
 22 10  1  0
M  END
>  <cnnaffinity>  (1) 
-4.65782

>  <filename>  (1) 
Cc1cccc(-c2c[nH]c(=O)c(-c3cccnc3)n2)c1

$$$$
