
     RDKit          3D

 35 38  0  0  0  0  0  0  0  0999 V2000
    4.9778    1.8658   16.8940 H   0  0  0  0  0  0  0  0  0  0  0  0
    5.4135    1.3081   17.7210 C   0  0  0  0  0  0  0  0  0  0  0  0
    6.5586    0.6552   17.4679 N   0  0  0  0  0  0  0  0  0  0  0  0
    7.1352   -0.0001   18.4816 C   0  0  0  0  0  0  0  0  0  0  0  0
    8.0712   -0.5067   18.2533 H   0  0  0  0  0  0  0  0  0  0  0  0
    6.6060   -0.0441   19.7865 C   0  0  0  0  0  0  0  0  0  0  0  0
    7.3642   -0.6605   20.8908 C   0  0  0  0  0  0  0  0  0  0  0  0
    8.4996   -1.3415   20.6693 N   0  0  0  0  0  0  0  0  0  0  0  0
    8.9354   -1.6122   21.9177 N   0  0  0  0  0  0  0  0  0  0  0  0
   10.0603   -2.2193   22.4611 C   0  0  0  0  0  0  0  0  0  0  0  0
   10.8056   -2.6716   21.8318 H   0  0  0  0  0  0  0  0  0  0  0  0
    9.9356   -2.0870   23.8078 C   0  0  0  0  0  0  0  0  0  0  0  0
   10.5689   -2.4423   24.6041 H   0  0  0  0  0  0  0  0  0  0  0  0
    8.7593   -1.3967   24.1038 N   0  0  0  0  0  0  0  0  0  0  0  0
    8.2728   -1.0110   25.3798 C   0  0  0  0  0  0  0  0  0  0  0  0
    9.1630   -0.6420   26.4046 C   0  0  0  0  0  0  0  0  0  0  0  0
   10.2390   -0.6420   26.2408 H   0  0  0  0  0  0  0  0  0  0  0  0
    8.6532   -0.1876   27.6247 C   0  0  0  0  0  0  0  0  0  0  0  0
    9.3386    0.0372   28.4417 H   0  0  0  0  0  0  0  0  0  0  0  0
    7.2801    0.0017   27.8255 C   0  0  0  0  0  0  0  0  0  0  0  0
    6.7978    0.7399   29.0533 C   0  0  0  0  0  0  0  0  0  0  0  0
    6.6214    1.7946   28.8059 H   0  0  0  0  0  0  0  0  0  0  0  0
    5.8632    0.3404   29.4588 H   0  0  0  0  0  0  0  0  0  0  0  0
    7.5435    0.7246   29.8549 H   0  0  0  0  0  0  0  0  0  0  0  0
    6.4030   -0.4099   26.8061 C   0  0  0  0  0  0  0  0  0  0  0  0
    5.3310   -0.2690   26.9229 H   0  0  0  0  0  0  0  0  0  0  0  0
    6.8862   -0.9445   25.6089 C   0  0  0  0  0  0  0  0  0  0  0  0
    6.2012   -1.2780   24.8264 H   0  0  0  0  0  0  0  0  0  0  0  0
    8.1452   -1.1204   22.8915 C   0  0  0  0  0  0  0  0  0  0  0  0
    7.0710   -0.5111   22.2658 C   0  0  0  0  0  0  0  0  0  0  0  0
    6.2042   -0.0365   22.6842 H   0  0  0  0  0  0  0  0  0  0  0  0
    5.3884    0.6157   20.0208 C   0  0  0  0  0  0  0  0  0  0  0  0
    4.9296    0.6142   21.0123 H   0  0  0  0  0  0  0  0  0  0  0  0
    4.7876    1.3035   18.9730 C   0  0  0  0  0  0  0  0  0  0  0  0
    3.8719    1.8629   19.1258 H   0  0  0  0  0  0  0  0  0  0  0  0
  1  2  1  0
  2  3  2  0
  3  4  1  0
  4  5  1  0
  4  6  2  0
  6  7  1  0
  7  8  2  0
  8  9  1  0
  9 10  1  0
 10 11  1  0
 10 12  2  0
 12 13  1  0
 12 14  1  0
 14 15  1  0
 15 16  2  0
 16 17  1  0
 16 18  1  0
 18 19  1  0
 18 20  2  0
 20 21  1  0
 21 22  1  0
 21 23  1  0
 21 24  1  0
 20 25  1  0
 25 26  1  0
 25 27  2  0
 27 28  1  0
 14 29  1  0
 29 30  2  0
 30 31  1  0
  6 32  1  0
 32 33  1  0
 32 34  2  0
 34 35  1  0
 34  2  1  0
 30  7  1  0
 29  9  1  0
 27 15  1  0
M  END
>  <cnnaffinity>  (1) 
-5.34276

>  <filename>  (1) 
Cc1ccc(-n2ccn3nc(-c4cccnc4)cc23)cc1

$$$$
