
     RDKit          3D

 29 31  0  0  0  0  0  0  0  0999 V2000
    4.9142    1.7753   17.0025 H   0  0  0  0  0  0  0  0  0  0  0  0
    5.4057    1.2929   17.8425 C   0  0  0  0  0  0  0  0  0  0  0  0
    6.5724    0.6798   17.5796 N   0  0  0  0  0  0  0  0  0  0  0  0
    7.1738    0.0580   18.5966 C   0  0  0  0  0  0  0  0  0  0  0  0
    8.1207   -0.4371   18.3808 H   0  0  0  0  0  0  0  0  0  0  0  0
    6.6498    0.0244   19.8951 C   0  0  0  0  0  0  0  0  0  0  0  0
    7.3736   -0.7154   20.9258 C   0  0  0  0  0  0  0  0  0  0  0  0
    7.9366   -1.8766   20.7420 N   0  0  0  0  0  0  0  0  0  0  0  0
    8.4350   -2.2995   21.9459 N   0  0  0  0  0  0  0  0  0  0  0  0
    8.1740   -1.3675   22.8170 C   0  0  0  0  0  0  0  0  0  0  0  0
    8.4659   -1.3813   23.8552 H   0  0  0  0  0  0  0  0  0  0  0  0
    7.5012   -0.3199   22.2406 N   0  0  0  0  0  0  0  0  0  0  0  0
    7.1662    0.9174   22.8544 C   0  0  0  0  0  0  0  0  0  0  0  0
    6.6113    0.9296   24.1349 C   0  0  0  0  0  0  0  0  0  0  0  0
    6.4190    0.0088   24.6714 H   0  0  0  0  0  0  0  0  0  0  0  0
    6.3023    2.1622   24.6995 C   0  0  0  0  0  0  0  0  0  0  0  0
    5.8754    2.1987   25.6991 H   0  0  0  0  0  0  0  0  0  0  0  0
    6.4989    3.3475   24.0989 N   0  0  0  0  0  0  0  0  0  0  0  0
    7.0355    3.3244   22.8714 C   0  0  0  0  0  0  0  0  0  0  0  0
    7.2721    4.6407   22.1799 C   0  0  0  0  0  0  0  0  0  0  0  0
    8.3434    4.8251   22.0487 H   0  0  0  0  0  0  0  0  0  0  0  0
    6.8511    5.4735   22.7430 H   0  0  0  0  0  0  0  0  0  0  0  0
    6.8255    4.6561   21.1812 H   0  0  0  0  0  0  0  0  0  0  0  0
    7.3960    2.1335   22.2200 C   0  0  0  0  0  0  0  0  0  0  0  0
    7.8255    2.1651   21.2267 H   0  0  0  0  0  0  0  0  0  0  0  0
    5.4244    0.6503   20.1529 C   0  0  0  0  0  0  0  0  0  0  0  0
    5.0005    0.6309   21.1590 H   0  0  0  0  0  0  0  0  0  0  0  0
    4.7980    1.3122   19.1043 C   0  0  0  0  0  0  0  0  0  0  0  0
    3.8680    1.8459   19.2621 H   0  0  0  0  0  0  0  0  0  0  0  0
  1  2  1  0
  2  3  2  0
  3  4  1  0
  4  5  1  0
  4  6  2  0
  6  7  1  0
  7  8  2  0
  8  9  1  0
  9 10  2  0
 10 11  1  0
 10 12  1  0
 12 13  1  0
 13 14  2  0
 14 15  1  0
 14 16  1  0
 16 17  1  0
 16 18  2  0
 18 19  1  0
 19 20  1  0
 20 21  1  0
 20 22  1  0
 20 23  1  0
 19 24  2  0
 24 25  1  0
  6 26  1  0
 26 27  1  0
 26 28  2  0
 28 29  1  0
 28  2  1  0
 12  7  1  0
 24 13  1  0
M  END
>  <cnnaffinity>  (1) 
-5.06925

>  <filename>  (1) 
Cc1cc(-n2cnnc2-c2cccnc2)ccn1

$$$$
