
     RDKit          3D

 34 36  0  0  0  0  0  0  0  0999 V2000
    5.0005    1.5297   16.9969 H   0  0  0  0  0  0  0  0  0  0  0  0
    5.4950    1.0815   17.8562 C   0  0  0  0  0  0  0  0  0  0  0  0
    6.7027    0.5334   17.6389 N   0  0  0  0  0  0  0  0  0  0  0  0
    7.3544    0.0245   18.6957 C   0  0  0  0  0  0  0  0  0  0  0  0
    8.3308   -0.4124   18.4876 H   0  0  0  0  0  0  0  0  0  0  0  0
    6.8495    0.0136   20.0322 C   0  0  0  0  0  0  0  0  0  0  0  0
    7.5771   -0.4326   21.1086 N   0  0  0  0  0  0  0  0  0  0  0  0
    8.7513   -1.2923   21.1386 C   0  0  0  0  0  0  0  0  0  0  0  0
    9.6973   -0.7456   21.0249 H   0  0  0  0  0  0  0  0  0  0  0  0
    8.7144   -2.1012   20.4010 H   0  0  0  0  0  0  0  0  0  0  0  0
    8.3552   -1.7008   22.5912 C   0  0  0  0  0  0  0  0  0  0  0  0
    9.0474   -1.3030   23.3396 H   0  0  0  0  0  0  0  0  0  0  0  0
    8.1305   -3.1763   22.9120 C   0  0  0  0  0  0  0  0  0  0  0  0
    8.6903   -3.6787   23.8641 O   0  0  0  0  0  0  0  0  0  0  0  0
    7.1931   -4.0035   22.0113 C   0  0  0  0  0  0  0  0  0  0  0  0
    6.6320   -3.3510   20.9855 N   0  0  0  0  0  0  0  0  0  0  0  0
    5.9669   -4.0043   20.0360 C   0  0  0  0  0  0  0  0  0  0  0  0
    5.5448   -3.1160   18.8966 C   0  0  0  0  0  0  0  0  0  0  0  0
    5.0221   -3.6514   18.1131 H   0  0  0  0  0  0  0  0  0  0  0  0
    4.9176   -2.2870   19.2333 H   0  0  0  0  0  0  0  0  0  0  0  0
    6.4171   -2.6250   18.4629 H   0  0  0  0  0  0  0  0  0  0  0  0
    5.7467   -5.3870   20.1271 C   0  0  0  0  0  0  0  0  0  0  0  0
    5.2398   -5.9061   19.3224 H   0  0  0  0  0  0  0  0  0  0  0  0
    6.2038   -6.0691   21.2636 C   0  0  0  0  0  0  0  0  0  0  0  0
    5.9975   -7.1322   21.3985 H   0  0  0  0  0  0  0  0  0  0  0  0
    6.9482   -5.3769   22.2243 C   0  0  0  0  0  0  0  0  0  0  0  0
    7.3450   -5.8753   23.1024 H   0  0  0  0  0  0  0  0  0  0  0  0
    7.0809   -0.8281   22.4181 C   0  0  0  0  0  0  0  0  0  0  0  0
    6.9557    0.0051   23.1217 H   0  0  0  0  0  0  0  0  0  0  0  0
    6.1473   -1.3992   22.3568 H   0  0  0  0  0  0  0  0  0  0  0  0
    5.5559    0.5515   20.2116 C   0  0  0  0  0  0  0  0  0  0  0  0
    5.1083    0.5496   21.2055 H   0  0  0  0  0  0  0  0  0  0  0  0
    4.8843    1.0991   19.1163 C   0  0  0  0  0  0  0  0  0  0  0  0
    3.9085    1.5643   19.2357 H   0  0  0  0  0  0  0  0  0  0  0  0
  1  2  1  0
  2  3  2  0
  3  4  1  0
  4  5  1  0
  4  6  2  0
  6  7  1  0
  7  8  1  0
  8  9  1  0
  8 10  1  0
  8 11  1  0
 11 12  1  0
 11 13  1  0
 13 14  2  0
 13 15  1  0
 15 16  2  0
 16 17  1  0
 17 18  1  0
 18 19  1  0
 18 20  1  0
 18 21  1  0
 17 22  2  0
 22 23  1  0
 22 24  1  0
 24 25  1  0
 24 26  2  0
 26 27  1  0
 11 28  1  0
 28 29  1  0
 28 30  1  0
  6 31  1  0
 31 32  1  0
 31 33  2  0
 33 34  1  0
 33  2  1  0
 28  7  1  0
 26 15  1  0
M  END
>  <cnnaffinity>  (1) 
-5.05539

>  <filename>  (1) 
Cc1cccc(C(=O)C2CN(c3cccnc3)C2)n1

$$$$
