
     RDKit          3D

 34 37  0  0  0  0  0  0  0  0999 V2000
    4.9853    1.8571   16.9008 H   0  0  0  0  0  0  0  0  0  0  0  0
    5.4174    1.3041   17.7315 C   0  0  0  0  0  0  0  0  0  0  0  0
    6.5631    0.6517   17.4793 N   0  0  0  0  0  0  0  0  0  0  0  0
    7.1354    0.0002   18.4976 C   0  0  0  0  0  0  0  0  0  0  0  0
    8.0719   -0.5103   18.2789 H   0  0  0  0  0  0  0  0  0  0  0  0
    6.6024   -0.0379   19.8014 C   0  0  0  0  0  0  0  0  0  0  0  0
    7.3544   -0.6544   20.9115 C   0  0  0  0  0  0  0  0  0  0  0  0
    8.4866   -1.3417   20.6916 N   0  0  0  0  0  0  0  0  0  0  0  0
    8.9199   -1.6139   21.9396 N   0  0  0  0  0  0  0  0  0  0  0  0
   10.0433   -2.2231   22.4810 C   0  0  0  0  0  0  0  0  0  0  0  0
   10.7900   -2.6666   21.8483 H   0  0  0  0  0  0  0  0  0  0  0  0
    9.9355   -2.0789   23.8235 C   0  0  0  0  0  0  0  0  0  0  0  0
   10.5741   -2.4372   24.6183 H   0  0  0  0  0  0  0  0  0  0  0  0
    8.7649   -1.3833   24.1212 N   0  0  0  0  0  0  0  0  0  0  0  0
    8.3140   -0.9750   25.3892 C   0  0  0  0  0  0  0  0  0  0  0  0
    6.9340   -0.8799   25.6522 C   0  0  0  0  0  0  0  0  0  0  0  0
    6.2194   -1.1928   24.8895 H   0  0  0  0  0  0  0  0  0  0  0  0
    6.4277   -0.3881   26.7871 N   0  0  0  0  0  0  0  0  0  0  0  0
    7.2728    0.0002   27.7532 C   0  0  0  0  0  0  0  0  0  0  0  0
    6.6946    0.7286   28.9360 C   0  0  0  0  0  0  0  0  0  0  0  0
    6.9861    0.2723   29.8871 H   0  0  0  0  0  0  0  0  0  0  0  0
    5.6038    0.7611   28.8624 H   0  0  0  0  0  0  0  0  0  0  0  0
    7.0743    1.7589   28.9534 H   0  0  0  0  0  0  0  0  0  0  0  0
    8.6629   -0.1893   27.6272 C   0  0  0  0  0  0  0  0  0  0  0  0
    9.2999    0.0404   28.4738 H   0  0  0  0  0  0  0  0  0  0  0  0
    9.2055   -0.6198   26.4183 C   0  0  0  0  0  0  0  0  0  0  0  0
   10.2881   -0.6163   26.2736 H   0  0  0  0  0  0  0  0  0  0  0  0
    8.1350   -1.1167   22.9122 C   0  0  0  0  0  0  0  0  0  0  0  0
    7.0595   -0.5076   22.2884 C   0  0  0  0  0  0  0  0  0  0  0  0
    6.1947   -0.0377   22.7201 H   0  0  0  0  0  0  0  0  0  0  0  0
    5.3819    0.6179   20.0342 C   0  0  0  0  0  0  0  0  0  0  0  0
    4.9183    0.6196   21.0245 H   0  0  0  0  0  0  0  0  0  0  0  0
    4.7868    1.3020   18.9810 C   0  0  0  0  0  0  0  0  0  0  0  0
    3.8715    1.8636   19.1275 H   0  0  0  0  0  0  0  0  0  0  0  0
  1  2  1  0
  2  3  2  0
  3  4  1  0
  4  5  1  0
  4  6  2  0
  6  7  1  0
  7  8  2  0
  8  9  1  0
  9 10  1  0
 10 11  1  0
 10 12  2  0
 12 13  1  0
 12 14  1  0
 14 15  1  0
 15 16  2  0
 16 17  1  0
 16 18  1  0
 18 19  2  0
 19 20  1  0
 20 21  1  0
 20 22  1  0
 20 23  1  0
 19 24  1  0
 24 25  1  0
 24 26  2  0
 26 27  1  0
 14 28  1  0
 28 29  2  0
 29 30  1  0
  6 31  1  0
 31 32  1  0
 31 33  2  0
 33 34  1  0
 33  2  1  0
 29  7  1  0
 28  9  1  0
 26 15  1  0
M  END
>  <cnnaffinity>  (1) 
-5.46841

>  <filename>  (1) 
Cc1ccc(-n2ccn3nc(-c4cccnc4)cc23)cn1

$$$$
