
     RDKit          3D

 30 32  0  0  0  0  0  0  0  0999 V2000
    4.9502    1.7992   16.9334 H   0  0  0  0  0  0  0  0  0  0  0  0
    5.4077    1.3242   17.8054 C   0  0  0  0  0  0  0  0  0  0  0  0
    6.5804    0.7017   17.6096 N   0  0  0  0  0  0  0  0  0  0  0  0
    7.1425    0.0963   18.6643 C   0  0  0  0  0  0  0  0  0  0  0  0
    8.0946   -0.3895   18.4612 H   0  0  0  0  0  0  0  0  0  0  0  0
    6.5970    0.0750   19.9626 C   0  0  0  0  0  0  0  0  0  0  0  0
    7.2940   -0.6573   21.0384 C   0  0  0  0  0  0  0  0  0  0  0  0
    7.7190   -1.9291   21.0587 C   0  0  0  0  0  0  0  0  0  0  0  0
    7.6572   -2.7461   20.3654 H   0  0  0  0  0  0  0  0  0  0  0  0
    8.2394   -2.2516   22.2803 O   0  0  0  0  0  0  0  0  0  0  0  0
    8.1387   -1.1610   23.1176 C   0  0  0  0  0  0  0  0  0  0  0  0
    8.5321   -1.1477   24.2499 O   0  0  0  0  0  0  0  0  0  0  0  0
    7.5564   -0.1716   22.3462 N   0  0  0  0  0  0  0  0  0  0  0  0
    7.2739    1.0602   22.9252 C   0  0  0  0  0  0  0  0  0  0  0  0
    6.8049    1.0289   24.1701 N   0  0  0  0  0  0  0  0  0  0  0  0
    6.4526    2.1845   24.7309 C   0  0  0  0  0  0  0  0  0  0  0  0
    5.8783    2.0859   26.1234 C   0  0  0  0  0  0  0  0  0  0  0  0
    4.8981    2.5732   26.1783 H   0  0  0  0  0  0  0  0  0  0  0  0
    5.7756    1.0320   26.4081 H   0  0  0  0  0  0  0  0  0  0  0  0
    6.5279    2.5924   26.8470 H   0  0  0  0  0  0  0  0  0  0  0  0
    6.6167    3.4178   24.0758 C   0  0  0  0  0  0  0  0  0  0  0  0
    6.3211    4.3270   24.5809 H   0  0  0  0  0  0  0  0  0  0  0  0
    7.1541    3.4391   22.7837 C   0  0  0  0  0  0  0  0  0  0  0  0
    7.2986    4.3736   22.2429 H   0  0  0  0  0  0  0  0  0  0  0  0
    7.4915    2.2291   22.1930 C   0  0  0  0  0  0  0  0  0  0  0  0
    7.8708    2.1331   21.1849 H   0  0  0  0  0  0  0  0  0  0  0  0
    5.3598    0.7269   20.1419 C   0  0  0  0  0  0  0  0  0  0  0  0
    4.8896    0.7507   21.1260 H   0  0  0  0  0  0  0  0  0  0  0  0
    4.7634    1.3551   19.0477 C   0  0  0  0  0  0  0  0  0  0  0  0
    3.8063    1.8588   19.1348 H   0  0  0  0  0  0  0  0  0  0  0  0
  1  2  1  0
  2  3  2  0
  3  4  1  0
  4  5  1  0
  4  6  2  0
  6  7  1  0
  7  8  2  0
  8  9  1  0
  8 10  1  0
 10 11  1  0
 11 12  2  0
 11 13  1  0
 13 14  1  0
 14 15  2  0
 15 16  1  0
 16 17  1  0
 17 18  1  0
 17 19  1  0
 17 20  1  0
 16 21  2  0
 21 22  1  0
 21 23  1  0
 23 24  1  0
 23 25  2  0
 25 26  1  0
  6 27  1  0
 27 28  1  0
 27 29  2  0
 29 30  1  0
 29  2  1  0
 13  7  1  0
 25 14  1  0
M  END
>  <cnnaffinity>  (1) 
-4.9508

>  <filename>  (1) 
Cc1cccc(-n2c(-c3cccnc3)coc2=O)n1

$$$$
