
     RDKit          3D

 40 42  0  0  0  0  0  0  0  0999 V2000
    5.6466   -2.6939   21.2506 C   0  0  0  0  0  0  0  0  0  0  0  0
    6.9642   -2.0499   21.6010 C   0  0  0  0  0  0  0  0  0  0  0  0
    7.7853   -2.5647   22.6059 C   0  0  0  0  0  0  0  0  0  0  0  0
    8.9461   -2.0543   22.9747 N   0  0  0  0  0  0  0  0  0  0  0  0
    9.3221   -0.9867   22.2603 C   0  0  0  0  0  0  0  0  0  0  0  0
   10.4752   -0.4791   22.6641 N   0  0  0  0  0  0  0  0  0  0  0  0
   11.2441    0.5319   21.9702 C   0  0  0  0  0  0  0  0  0  0  0  0
   12.7195    0.4145   22.3724 C   0  0  0  0  0  0  0  0  0  0  0  0
   12.9185    0.6756   23.8745 C   0  0  0  0  0  0  0  0  0  0  0  0
   12.3238    2.0386   24.2858 C   0  0  0  0  0  0  0  0  0  0  0  0
   10.9201    2.3505   23.7404 C   0  0  0  0  0  0  0  0  0  0  0  0
   10.7385    1.9570   22.2695 C   0  0  0  0  0  0  0  0  0  0  0  0
   11.3042    2.6481   21.6290 H   0  0  0  0  0  0  0  0  0  0  0  0
    9.6895    2.0364   21.9665 H   0  0  0  0  0  0  0  0  0  0  0  0
   10.7133    3.4231   23.8632 H   0  0  0  0  0  0  0  0  0  0  0  0
   10.1708    1.8158   24.3351 H   0  0  0  0  0  0  0  0  0  0  0  0
   13.0012    2.8305   23.9400 H   0  0  0  0  0  0  0  0  0  0  0  0
   12.2607    2.0858   25.3722 H   0  0  0  0  0  0  0  0  0  0  0  0
   12.4378   -0.1335   24.4437 H   0  0  0  0  0  0  0  0  0  0  0  0
   13.9866    0.6390   24.1260 H   0  0  0  0  0  0  0  0  0  0  0  0
   13.1197   -0.5596   22.0623 H   0  0  0  0  0  0  0  0  0  0  0  0
   13.2701    1.1793   21.8089 H   0  0  0  0  0  0  0  0  0  0  0  0
   11.1284    0.3618   20.8969 H   0  0  0  0  0  0  0  0  0  0  0  0
   10.8018   -1.0620   23.4067 H   0  0  0  0  0  0  0  0  0  0  0  0
    8.7077   -0.4291   21.2314 N   0  0  0  0  0  0  0  0  0  0  0  0
    7.4906   -0.9036   20.9767 C   0  0  0  0  0  0  0  0  0  0  0  0
    6.7635   -0.1556   19.9417 C   0  0  0  0  0  0  0  0  0  0  0  0
    5.5353    0.4864   20.1356 C   0  0  0  0  0  0  0  0  0  0  0  0
    4.9977    1.2046   19.0678 C   0  0  0  0  0  0  0  0  0  0  0  0
    5.6860    1.2149   17.8514 C   0  0  0  0  0  0  0  0  0  0  0  0
    6.8747    0.6219   17.6656 N   0  0  0  0  0  0  0  0  0  0  0  0
    7.4098   -0.0157   18.7111 C   0  0  0  0  0  0  0  0  0  0  0  0
    8.4032   -0.4332   18.5447 H   0  0  0  0  0  0  0  0  0  0  0  0
    5.2760    1.7422   16.9928 H   0  0  0  0  0  0  0  0  0  0  0  0
    4.0778    1.7682   19.1682 H   0  0  0  0  0  0  0  0  0  0  0  0
    5.0386    0.4698   21.1099 H   0  0  0  0  0  0  0  0  0  0  0  0
    7.4724   -3.4637   23.1449 H   0  0  0  0  0  0  0  0  0  0  0  0
    5.5244   -2.7821   20.1653 H   0  0  0  0  0  0  0  0  0  0  0  0
    4.8381   -2.0681   21.6170 H   0  0  0  0  0  0  0  0  0  0  0  0
    5.5246   -3.6760   21.7195 H   0  0  0  0  0  0  0  0  0  0  0  0
  1  2  1  0
  2  3  2  0
  3  4  1  0
  4  5  2  0
  5  6  1  0
  6  7  1  0
  7  8  1  0
  8  9  1  0
  9 10  1  0
 10 11  1  0
 11 12  1  0
 12 13  1  0
 12 14  1  0
 11 15  1  0
 11 16  1  0
 10 17  1  0
 10 18  1  0
  9 19  1  0
  9 20  1  0
  8 21  1  0
  8 22  1  0
  7 23  1  0
  6 24  1  0
  5 25  1  0
 25 26  2  0
 26 27  1  0
 27 28  2  0
 28 29  1  0
 29 30  2  0
 30 31  1  0
 31 32  2  0
 32 33  1  0
 30 34  1  0
 29 35  1  0
 28 36  1  0
  3 37  1  0
  1 38  1  0
  1 39  1  0
  1 40  1  0
 26  2  1  0
 32 27  1  0
 12  7  1  0
M  END
>  <cnnaffinity>  (1) 
-5.32856

>  <filename>  (1) 
Cc1cnc(NC2CCCCC2)nc1-c1cccnc1

$$$$
