
     RDKit          3D

 40 42  0  0  0  0  0  0  0  0999 V2000
    7.2287    1.0369   22.2137 H   0  0  0  0  0  0  0  0  0  0  0  0
    7.2901   -0.0341   22.1100 C   0  0  0  0  0  0  0  0  0  0  0  0
    7.0222   -0.6527   20.9500 C   0  0  0  0  0  0  0  0  0  0  0  0
    6.4169    0.0124   19.7837 C   0  0  0  0  0  0  0  0  0  0  0  0
    7.0265   -0.0646   18.5171 C   0  0  0  0  0  0  0  0  0  0  0  0
    7.9428   -0.6364   18.3760 H   0  0  0  0  0  0  0  0  0  0  0  0
    6.5715    0.5544   17.4226 N   0  0  0  0  0  0  0  0  0  0  0  0
    5.4586    1.2945   17.5561 C   0  0  0  0  0  0  0  0  0  0  0  0
    5.0878    1.7872   16.6584 H   0  0  0  0  0  0  0  0  0  0  0  0
    4.7676    1.4458   18.7660 C   0  0  0  0  0  0  0  0  0  0  0  0
    3.8935    2.0914   18.8139 H   0  0  0  0  0  0  0  0  0  0  0  0
    5.2562    0.8022   19.9032 C   0  0  0  0  0  0  0  0  0  0  0  0
    4.7595    0.9109   20.8713 H   0  0  0  0  0  0  0  0  0  0  0  0
    7.3808   -1.9922   20.8108 N   0  0  0  0  0  0  0  0  0  0  0  0
    7.2723   -2.5154   19.9563 H   0  0  0  0  0  0  0  0  0  0  0  0
    7.8331   -2.7659   21.8259 C   0  0  0  0  0  0  0  0  0  0  0  0
    8.1838   -4.3688   21.6122 S   0  0  0  0  0  0  0  0  0  0  0  0
    7.9477   -2.1847   23.0380 N   0  0  0  0  0  0  0  0  0  0  0  0
    8.6333   -2.6930   23.5717 H   0  0  0  0  0  0  0  0  0  0  0  0
    7.9750   -0.7419   23.2236 C   0  0  1  0  0  0  0  0  0  0  0  0
    7.4719   -0.5025   24.1764 H   0  0  0  0  0  0  0  0  0  0  0  0
    9.3460   -0.2998   23.3660 N   0  0  0  0  0  0  0  0  0  0  0  0
   10.2202   -0.3506   22.1995 C   0  0  0  0  0  0  0  0  0  0  0  0
    9.6260   -0.1945   21.2951 H   0  0  0  0  0  0  0  0  0  0  0  0
   10.7171   -1.3359   22.0957 H   0  0  0  0  0  0  0  0  0  0  0  0
   11.3002    0.7220   22.3486 C   0  0  0  0  0  0  0  0  0  0  0  0
   10.8288    1.7149   22.4084 H   0  0  0  0  0  0  0  0  0  0  0  0
   11.9583    0.7224   21.4724 H   0  0  0  0  0  0  0  0  0  0  0  0
   12.1076    0.4758   23.6286 C   0  0  0  0  0  0  0  0  0  0  0  0
   12.5842   -0.5119   23.5337 H   0  0  0  0  0  0  0  0  0  0  0  0
   13.2236    1.4947   23.8153 C   0  0  0  0  0  0  0  0  0  0  0  0
   14.0070    1.3829   23.0557 H   0  0  0  0  0  0  0  0  0  0  0  0
   13.6756    1.3277   24.7897 H   0  0  0  0  0  0  0  0  0  0  0  0
   12.8480    2.5255   23.7741 H   0  0  0  0  0  0  0  0  0  0  0  0
   11.1418    0.4316   24.8280 C   0  0  0  0  0  0  0  0  0  0  0  0
   11.6709    0.1944   25.7583 H   0  0  0  0  0  0  0  0  0  0  0  0
   10.6868    1.4258   24.9490 H   0  0  0  0  0  0  0  0  0  0  0  0
   10.0310   -0.6014   24.6090 C   0  0  0  0  0  0  0  0  0  0  0  0
   10.4799   -1.6181   24.6107 H   0  0  0  0  0  0  0  0  0  0  0  0
    9.3184   -0.5641   25.4426 H   0  0  0  0  0  0  0  0  0  0  0  0
  1  2  1  0
  2  3  2  0
  3  4  1  0
  4  5  2  0
  5  6  1  0
  5  7  1  0
  7  8  2  0
  8  9  1  0
  8 10  1  0
 10 11  1  0
 10 12  2  0
 12 13  1  0
  3 14  1  0
 14 15  1  0
 14 16  1  0
 16 17  2  0
 16 18  1  0
 18 19  1  0
 18 20  1  0
 20 21  1  1
 20 22  1  0
 22 23  1  0
 23 24  1  0
 23 25  1  0
 23 26  1  0
 26 27  1  0
 26 28  1  0
 26 29  1  0
 29 30  1  0
 29 31  1  0
 31 32  1  0
 31 33  1  0
 31 34  1  0
 29 35  1  0
 35 36  1  0
 35 37  1  0
 35 38  1  0
 38 39  1  0
 38 40  1  0
 20  2  1  0
 38 22  1  0
 12  4  1  0
M  END
>  <cnnaffinity>  (1) 
-5.10507

>  <filename>  (1) 
CC1CCN([C@H]2C=C(c3cccnc3)NC(=S)N2)CC1

$$$$
