
     RDKit          3D

 31 33  0  0  0  0  0  0  0  0999 V2000
    4.9271    1.8027   16.9690 H   0  0  0  0  0  0  0  0  0  0  0  0
    5.3941    1.2978   17.8166 C   0  0  0  0  0  0  0  0  0  0  0  0
    6.5572    0.6714   17.5723 N   0  0  0  0  0  0  0  0  0  0  0  0
    7.1632    0.0501   18.5943 C   0  0  0  0  0  0  0  0  0  0  0  0
    8.1202   -0.4026   18.3395 H   0  0  0  0  0  0  0  0  0  0  0  0
    6.6472   -0.0002   19.9067 C   0  0  0  0  0  0  0  0  0  0  0  0
    7.3259   -0.6433   21.0320 C   0  0  0  0  0  0  0  0  0  0  0  0
    7.2246   -0.3983   22.3571 C   0  0  0  0  0  0  0  0  0  0  0  0
    6.6568    0.3498   22.8908 H   0  0  0  0  0  0  0  0  0  0  0  0
    8.0832   -1.2723   23.0257 N   0  0  0  0  0  0  0  0  0  0  0  0
    8.2894   -1.3614   24.4005 C   0  0  0  0  0  0  0  0  0  0  0  0
    8.0476   -0.2280   25.0522 N   0  0  0  0  0  0  0  0  0  0  0  0
    8.2323   -0.2471   26.3729 C   0  0  0  0  0  0  0  0  0  0  0  0
    8.0326    0.6943   26.8824 H   0  0  0  0  0  0  0  0  0  0  0  0
    8.6220   -1.3828   27.0811 C   0  0  0  0  0  0  0  0  0  0  0  0
    8.7860   -1.2975   28.1423 H   0  0  0  0  0  0  0  0  0  0  0  0
    8.8060   -2.5968   26.3979 C   0  0  0  0  0  0  0  0  0  0  0  0
    9.1822   -3.8935   27.0715 C   0  0  0  0  0  0  0  0  0  0  0  0
    8.7742   -3.9748   28.0811 H   0  0  0  0  0  0  0  0  0  0  0  0
    8.8201   -4.7543   26.5012 H   0  0  0  0  0  0  0  0  0  0  0  0
   10.2663   -3.9972   27.1222 H   0  0  0  0  0  0  0  0  0  0  0  0
    8.6611   -2.5631   25.0128 C   0  0  0  0  0  0  0  0  0  0  0  0
    8.8324   -3.4312   24.3971 H   0  0  0  0  0  0  0  0  0  0  0  0
    8.7327   -2.0833   22.1093 C   0  0  0  0  0  0  0  0  0  0  0  0
    9.5209   -2.9853   22.2943 O   0  0  0  0  0  0  0  0  0  0  0  0
    8.2703   -1.6513   20.8977 N   0  0  0  0  0  0  0  0  0  0  0  0
    8.5651   -2.1582   20.0882 H   0  0  0  0  0  0  0  0  0  0  0  0
    5.4259    0.6571   20.1314 C   0  0  0  0  0  0  0  0  0  0  0  0
    4.9846    0.6417   21.1258 H   0  0  0  0  0  0  0  0  0  0  0  0
    4.7943    1.3169   19.0801 C   0  0  0  0  0  0  0  0  0  0  0  0
    3.8644    1.8521   19.2275 H   0  0  0  0  0  0  0  0  0  0  0  0
  1  2  1  0
  2  3  2  0
  3  4  1  0
  4  5  1  0
  4  6  2  0
  6  7  1  0
  7  8  2  0
  8  9  1  0
  8 10  1  0
 10 11  1  0
 11 12  2  0
 12 13  1  0
 13 14  1  0
 13 15  2  0
 15 16  1  0
 15 17  1  0
 17 18  1  0
 18 19  1  0
 18 20  1  0
 18 21  1  0
 17 22  2  0
 22 23  1  0
 10 24  1  0
 24 25  2  0
 24 26  1  0
 26 27  1  0
  6 28  1  0
 28 29  1  0
 28 30  2  0
 30 31  1  0
 30  2  1  0
 26  7  1  0
 22 11  1  0
M  END
>  <cnnaffinity>  (1) 
-5.38885

>  <filename>  (1) 
Cc1ccnc(-n2cc(-c3cccnc3)[nH]c2=O)c1

$$$$
