
     RDKit          3D

 31 33  0  0  0  0  0  0  0  0999 V2000
    4.9320    1.7914   16.9974 H   0  0  0  0  0  0  0  0  0  0  0  0
    5.3992    1.2889   17.8414 C   0  0  0  0  0  0  0  0  0  0  0  0
    6.5550    0.6605   17.5795 N   0  0  0  0  0  0  0  0  0  0  0  0
    7.1713    0.0407   18.5907 C   0  0  0  0  0  0  0  0  0  0  0  0
    8.1252   -0.4305   18.3604 H   0  0  0  0  0  0  0  0  0  0  0  0
    6.6501   -0.0074   19.8994 C   0  0  0  0  0  0  0  0  0  0  0  0
    7.3300   -0.6921   20.9514 N   0  0  0  0  0  0  0  0  0  0  0  0
    6.7350   -1.6023   21.8085 C   0  0  0  0  0  0  0  0  0  0  0  0
    5.6864   -1.8540   21.7435 H   0  0  0  0  0  0  0  0  0  0  0  0
    7.6735   -2.0627   22.6743 C   0  0  0  0  0  0  0  0  0  0  0  0
    7.4962   -3.0275   23.7811 C   0  0  0  0  0  0  0  0  0  0  0  0
    6.2449   -3.4830   23.9588 N   0  0  0  0  0  0  0  0  0  0  0  0
    6.0365   -4.3516   24.9500 C   0  0  0  0  0  0  0  0  0  0  0  0
    5.0079   -4.6880   25.0619 H   0  0  0  0  0  0  0  0  0  0  0  0
    7.0445   -4.8213   25.7967 C   0  0  0  0  0  0  0  0  0  0  0  0
    6.8104   -5.5366   26.5768 H   0  0  0  0  0  0  0  0  0  0  0  0
    8.3552   -4.3633   25.6185 C   0  0  0  0  0  0  0  0  0  0  0  0
    9.4932   -4.8541   26.4762 C   0  0  0  0  0  0  0  0  0  0  0  0
    9.1418   -5.1452   27.4706 H   0  0  0  0  0  0  0  0  0  0  0  0
   10.2619   -4.0857   26.5980 H   0  0  0  0  0  0  0  0  0  0  0  0
    9.9723   -5.7291   26.0225 H   0  0  0  0  0  0  0  0  0  0  0  0
    8.5664   -3.4467   24.5866 C   0  0  0  0  0  0  0  0  0  0  0  0
    9.5613   -3.0644   24.4034 H   0  0  0  0  0  0  0  0  0  0  0  0
    8.8503   -1.4018   22.3103 N   0  0  0  0  0  0  0  0  0  0  0  0
    9.7816   -1.3985   22.7014 H   0  0  0  0  0  0  0  0  0  0  0  0
    8.6533   -0.5215   21.3021 C   0  0  0  0  0  0  0  0  0  0  0  0
    9.8182    0.5211   20.7550 S   0  0  0  0  0  0  0  0  0  0  0  0
    5.4427    0.6406   20.1635 C   0  0  0  0  0  0  0  0  0  0  0  0
    5.0380    0.6281   21.1770 H   0  0  0  0  0  0  0  0  0  0  0  0
    4.8116    1.3071   19.1104 C   0  0  0  0  0  0  0  0  0  0  0  0
    3.8824    1.8395   19.2596 H   0  0  0  0  0  0  0  0  0  0  0  0
  1  2  1  0
  2  3  2  0
  3  4  1  0
  4  5  1  0
  4  6  2  0
  6  7  1  0
  7  8  1  0
  8  9  1  0
  8 10  2  0
 10 11  1  0
 11 12  2  0
 12 13  1  0
 13 14  1  0
 13 15  2  0
 15 16  1  0
 15 17  1  0
 17 18  1  0
 18 19  1  0
 18 20  1  0
 18 21  1  0
 17 22  2  0
 22 23  1  0
 10 24  1  0
 24 25  1  0
 24 26  1  0
 26 27  2  0
  6 28  1  0
 28 29  1  0
 28 30  2  0
 30 31  1  0
 30  2  1  0
 26  7  1  0
 22 11  1  0
M  END
>  <cnnaffinity>  (1) 
-5.57763

>  <filename>  (1) 
Cc1ccnc(-c2cn(-c3cccnc3)c(=S)[nH]2)c1

$$$$
