
     RDKit          3D

 37 40  0  0  0  0  0  0  0  0999 V2000
    4.9095    1.8367   16.9578 H   0  0  0  0  0  0  0  0  0  0  0  0
    5.3942    1.3211   17.7851 C   0  0  0  0  0  0  0  0  0  0  0  0
    6.5490    0.7054   17.5022 N   0  0  0  0  0  0  0  0  0  0  0  0
    7.1735    0.0858   18.5136 C   0  0  0  0  0  0  0  0  0  0  0  0
    8.1108   -0.4046   18.2570 H   0  0  0  0  0  0  0  0  0  0  0  0
    6.6993    0.0341   19.8387 C   0  0  0  0  0  0  0  0  0  0  0  0
    7.4649   -0.6782   20.9372 C   0  0  1  0  0  0  0  0  0  0  0  0
    8.3966   -1.0712   20.5160 H   0  0  0  0  0  0  0  0  0  0  0  0
    7.8605    0.2622   22.1285 C   0  0  0  0  0  0  0  0  0  0  0  0
    8.9445    0.3920   22.1808 H   0  0  0  0  0  0  0  0  0  0  0  0
    7.4364    1.2658   22.0440 H   0  0  0  0  0  0  0  0  0  0  0  0
    7.3272   -0.4452   23.3329 C   0  0  0  0  0  0  0  0  0  0  0  0
    7.2985   -0.1824   24.6252 N   0  0  0  0  0  0  0  0  0  0  0  0
    6.6689   -1.2617   25.1505 N   0  0  0  0  0  0  0  0  0  0  0  0
    6.5551   -1.2928   26.1547 H   0  0  0  0  0  0  0  0  0  0  0  0
    6.2775   -2.1847   24.2141 C   0  0  0  0  0  0  0  0  0  0  0  0
    5.6383   -3.5005   24.4733 C   0  0  0  0  0  0  0  0  0  0  0  0
    4.7232   -4.0444   23.5545 C   0  0  0  0  0  0  0  0  0  0  0  0
    4.3703   -3.4693   22.7106 H   0  0  0  0  0  0  0  0  0  0  0  0
    4.2589   -5.3432   23.7455 C   0  0  0  0  0  0  0  0  0  0  0  0
    3.5632   -5.7815   23.0334 H   0  0  0  0  0  0  0  0  0  0  0  0
    4.6182   -6.1296   24.7690 N   0  0  0  0  0  0  0  0  0  0  0  0
    5.4758   -5.6129   25.6552 C   0  0  0  0  0  0  0  0  0  0  0  0
    5.9165   -6.4705   26.8046 C   0  0  0  0  0  0  0  0  0  0  0  0
    5.3718   -7.4137   26.8441 H   0  0  0  0  0  0  0  0  0  0  0  0
    5.7763   -5.9388   27.7501 H   0  0  0  0  0  0  0  0  0  0  0  0
    6.9852   -6.6874   26.7137 H   0  0  0  0  0  0  0  0  0  0  0  0
    5.9970   -4.3155   25.5483 C   0  0  0  0  0  0  0  0  0  0  0  0
    6.7072   -3.9873   26.2991 H   0  0  0  0  0  0  0  0  0  0  0  0
    6.7139   -1.6510   23.0162 C   0  0  0  0  0  0  0  0  0  0  0  0
    6.6781   -1.8901   21.5434 C   0  0  0  0  0  0  0  0  0  0  0  0
    7.1328   -2.8444   21.2539 H   0  0  0  0  0  0  0  0  0  0  0  0
    5.6412   -1.9196   21.1852 H   0  0  0  0  0  0  0  0  0  0  0  0
    5.4756    0.6687   20.1001 C   0  0  0  0  0  0  0  0  0  0  0  0
    5.0447    0.6667   21.1035 H   0  0  0  0  0  0  0  0  0  0  0  0
    4.8147    1.3224   19.0569 C   0  0  0  0  0  0  0  0  0  0  0  0
    3.8770    1.8376   19.2156 H   0  0  0  0  0  0  0  0  0  0  0  0
  1  2  1  0
  2  3  2  0
  3  4  1  0
  4  5  1  0
  4  6  2  0
  6  7  1  0
  7  8  1  6
  7  9  1  0
  9 10  1  0
  9 11  1  0
  9 12  1  0
 12 13  2  0
 13 14  1  0
 14 15  1  0
 14 16  1  0
 16 17  1  0
 17 18  2  0
 18 19  1  0
 18 20  1  0
 20 21  1  0
 20 22  2  0
 22 23  1  0
 23 24  1  0
 24 25  1  0
 24 26  1  0
 24 27  1  0
 23 28  2  0
 28 29  1  0
 16 30  2  0
 30 31  1  0
 31 32  1  0
 31 33  1  0
  6 34  1  0
 34 35  1  0
 34 36  2  0
 36 37  1  0
 36  2  1  0
 31  7  1  0
 30 12  1  0
 28 17  1  0
M  END
>  <cnnaffinity>  (1) 
-5.33355

>  <filename>  (1) 
Cc1cc(-c2[nH]nc3c2C[C@@H](c2cccnc2)C3)ccn1

$$$$
