
     RDKit          3D

 45 48  0  0  0  0  0  0  0  0999 V2000
    9.3654    0.6514   20.7759 C   0  0  0  0  0  0  0  0  0  0  0  0
    8.5787   -0.4596   21.4070 C   0  0  0  0  0  0  0  0  0  0  0  0
    9.1013   -1.2644   22.4142 C   0  0  0  0  0  0  0  0  0  0  0  0
    8.4518   -2.2525   22.9975 N   0  0  0  0  0  0  0  0  0  0  0  0
    7.2027   -2.4578   22.5689 C   0  0  0  0  0  0  0  0  0  0  0  0
    6.5209   -3.4907   23.1334 N   0  0  0  0  0  0  0  0  0  0  0  0
    6.9969   -4.1213   24.3799 C   0  0  0  0  0  0  0  0  0  0  0  0
    6.5313   -5.5824   24.4396 C   0  0  0  0  0  0  0  0  0  0  0  0
    5.0739   -5.6726   24.2828 N   0  0  0  0  0  0  0  0  0  0  0  0
    4.3514   -6.6834   24.8808 C   0  0  0  0  0  0  0  0  0  0  0  0
    4.4896   -6.8858   26.2672 C   0  0  0  0  0  0  0  0  0  0  0  0
    3.6709   -7.8240   26.8711 C   0  0  0  0  0  0  0  0  0  0  0  0
    2.7934   -8.5667   26.0665 C   0  0  0  0  0  0  0  0  0  0  0  0
    2.7900   -8.3319   24.6989 C   0  0  0  0  0  0  0  0  0  0  0  0
    3.5245   -7.3906   24.1023 N   0  0  0  0  0  0  0  0  0  0  0  0
    2.1472   -8.9201   24.0470 H   0  0  0  0  0  0  0  0  0  0  0  0
    2.1370   -9.3157   26.4901 H   0  0  0  0  0  0  0  0  0  0  0  0
    3.7303   -7.9968   27.9443 H   0  0  0  0  0  0  0  0  0  0  0  0
    5.2008   -6.2715   26.8104 H   0  0  0  0  0  0  0  0  0  0  0  0
    4.6066   -5.0484   23.0407 C   0  0  0  0  0  0  0  0  0  0  0  0
    5.0604   -3.5842   22.9861 C   0  0  0  0  0  0  0  0  0  0  0  0
    4.7392   -3.1242   22.0503 H   0  0  0  0  0  0  0  0  0  0  0  0
    4.5647   -3.0452   23.8089 H   0  0  0  0  0  0  0  0  0  0  0  0
    3.5146   -5.0913   22.9750 H   0  0  0  0  0  0  0  0  0  0  0  0
    5.0058   -5.5839   22.1670 H   0  0  0  0  0  0  0  0  0  0  0  0
    6.8742   -6.0369   25.3761 H   0  0  0  0  0  0  0  0  0  0  0  0
    7.0378   -6.1236   23.6254 H   0  0  0  0  0  0  0  0  0  0  0  0
    8.0859   -4.0777   24.4332 H   0  0  0  0  0  0  0  0  0  0  0  0
    6.6030   -3.5786   25.2532 H   0  0  0  0  0  0  0  0  0  0  0  0
    6.5751   -1.7658   21.6153 N   0  0  0  0  0  0  0  0  0  0  0  0
    7.2626   -0.7984   21.0335 C   0  0  0  0  0  0  0  0  0  0  0  0
    6.5663   -0.0699   19.9619 C   0  0  0  0  0  0  0  0  0  0  0  0
    5.3567    0.6005   20.1756 C   0  0  0  0  0  0  0  0  0  0  0  0
    4.7906    1.2968   19.1086 C   0  0  0  0  0  0  0  0  0  0  0  0
    5.4383    1.2705   17.8689 C   0  0  0  0  0  0  0  0  0  0  0  0
    6.5829    0.6083   17.6470 N   0  0  0  0  0  0  0  0  0  0  0  0
    7.1285   -0.0386   18.6840 C   0  0  0  0  0  0  0  0  0  0  0  0
    8.0771   -0.5359   18.4747 H   0  0  0  0  0  0  0  0  0  0  0  0
    5.0133    1.8023   17.0185 H   0  0  0  0  0  0  0  0  0  0  0  0
    3.8769    1.8675   19.2328 H   0  0  0  0  0  0  0  0  0  0  0  0
    4.8923    0.5909   21.1626 H   0  0  0  0  0  0  0  0  0  0  0  0
   10.1224   -1.1075   22.7715 H   0  0  0  0  0  0  0  0  0  0  0  0
    9.6743    0.3390   19.7769 H   0  0  0  0  0  0  0  0  0  0  0  0
   10.2593    0.9021   21.3503 H   0  0  0  0  0  0  0  0  0  0  0  0
    8.7494    1.5480   20.6485 H   0  0  0  0  0  0  0  0  0  0  0  0
  1  2  1  0
  2  3  2  0
  3  4  1  0
  4  5  2  0
  5  6  1  0
  6  7  1  0
  7  8  1  0
  8  9  1  0
  9 10  1  0
 10 11  2  0
 11 12  1  0
 12 13  2  0
 13 14  1  0
 14 15  2  0
 14 16  1  0
 13 17  1  0
 12 18  1  0
 11 19  1  0
  9 20  1  0
 20 21  1  0
 21 22  1  0
 21 23  1  0
 20 24  1  0
 20 25  1  0
  8 26  1  0
  8 27  1  0
  7 28  1  0
  7 29  1  0
  5 30  1  0
 30 31  2  0
 31 32  1  0
 32 33  2  0
 33 34  1  0
 34 35  2  0
 35 36  1  0
 36 37  2  0
 37 38  1  0
 35 39  1  0
 34 40  1  0
 33 41  1  0
  3 42  1  0
  1 43  1  0
  1 44  1  0
  1 45  1  0
 31  2  1  0
 37 32  1  0
 21  6  1  0
 15 10  1  0
M  END
>  <cnnaffinity>  (1) 
-5.67243

>  <filename>  (1) 
Cc1cnc(N2CCN(c3ccccn3)CC2)nc1-c1cccnc1

$$$$
