
     RDKit          3D

 41 44  0  0  0  0  0  0  0  0999 V2000
    4.9438    1.7943   16.9763 H   0  0  0  0  0  0  0  0  0  0  0  0
    5.4019    1.3004   17.8290 C   0  0  0  0  0  0  0  0  0  0  0  0
    6.5570    0.6711   17.5858 N   0  0  0  0  0  0  0  0  0  0  0  0
    7.1632    0.0756   18.6236 C   0  0  0  0  0  0  0  0  0  0  0  0
    8.1012   -0.4146   18.3599 H   0  0  0  0  0  0  0  0  0  0  0  0
    6.6665    0.0523   19.9498 C   0  0  0  0  0  0  0  0  0  0  0  0
    7.4692   -0.5737   21.1314 C   0  0  2  0  0  0  0  0  0  0  0  0
    8.4243    0.5239   21.6552 C   0  0  0  0  0  0  0  0  0  0  0  0
    9.5509    0.7898   20.8376 C   0  0  0  0  0  0  0  0  0  0  0  0
    9.6427    0.2320   19.9072 H   0  0  0  0  0  0  0  0  0  0  0  0
   10.5328    1.7107   21.1892 C   0  0  0  0  0  0  0  0  0  0  0  0
   11.4078    1.8525   20.5612 H   0  0  0  0  0  0  0  0  0  0  0  0
   10.3883    2.4275   22.3796 C   0  0  0  0  0  0  0  0  0  0  0  0
   11.1532    3.1410   22.6770 H   0  0  0  0  0  0  0  0  0  0  0  0
    9.2447    2.2341   23.1549 C   0  0  0  0  0  0  0  0  0  0  0  0
    9.1078    2.8118   24.0662 H   0  0  0  0  0  0  0  0  0  0  0  0
    8.2283    1.3282   22.8000 C   0  0  0  0  0  0  0  0  0  0  0  0
    6.9858    1.3132   23.6648 C   0  0  0  0  0  0  0  0  0  0  0  0
    6.9766    2.1594   24.3556 H   0  0  0  0  0  0  0  0  0  0  0  0
    6.9187    0.4047   24.2725 H   0  0  0  0  0  0  0  0  0  0  0  0
    6.0742    1.3854   23.0617 H   0  0  0  0  0  0  0  0  0  0  0  0
    8.3216   -1.8340   20.7107 C   0  0  0  0  0  0  0  0  0  0  0  0
    8.0841   -1.9190   19.6646 H   0  0  0  0  0  0  0  0  0  0  0  0
    9.3975   -1.6870   20.8010 H   0  0  0  0  0  0  0  0  0  0  0  0
    7.8977   -3.0294   21.5940 C   0  0  2  0  0  0  0  0  0  0  0  0
    8.6705   -3.7997   21.6819 H   0  0  0  0  0  0  0  0  0  0  0  0
    6.5415   -3.5576   21.1019 C   0  0  0  0  0  0  0  0  0  0  0  0
    6.5368   -3.8320   20.0410 H   0  0  0  0  0  0  0  0  0  0  0  0
    6.2332   -4.4583   21.6486 H   0  0  0  0  0  0  0  0  0  0  0  0
    5.6252   -2.3413   21.3950 C   0  0  0  0  0  0  0  0  0  0  0  0
    5.2893   -1.8965   20.4552 H   0  0  0  0  0  0  0  0  0  0  0  0
    4.7454   -2.6357   21.9702 H   0  0  0  0  0  0  0  0  0  0  0  0
    6.5531   -1.3320   22.1526 C   0  0  1  0  0  0  0  0  0  0  0  0
    6.0143   -0.6439   22.7805 H   0  0  0  0  0  0  0  0  0  0  0  0
    7.5085   -2.2826   22.8807 C   0  0  0  0  0  0  0  0  0  0  0  0
    7.0035   -2.9063   23.6282 H   0  0  0  0  0  0  0  0  0  0  0  0
    8.3475   -1.7853   23.3845 H   0  0  0  0  0  0  0  0  0  0  0  0
    5.4447    0.7108   20.1635 C   0  0  0  0  0  0  0  0  0  0  0  0
    4.9515    0.7016   21.1386 H   0  0  0  0  0  0  0  0  0  0  0  0
    4.8013    1.3406   19.0906 C   0  0  0  0  0  0  0  0  0  0  0  0
    3.8553    1.8531   19.2210 H   0  0  0  0  0  0  0  0  0  0  0  0
  1  2  1  0
  2  3  2  0
  3  4  1  0
  4  5  1  0
  4  6  2  0
  7  6  1  6
  7  8  1  0
  8  9  2  0
  9 10  1  0
  9 11  1  0
 11 12  1  0
 11 13  2  0
 13 14  1  0
 13 15  1  0
 15 16  1  0
 15 17  2  0
 17 18  1  0
 18 19  1  0
 18 20  1  0
 18 21  1  0
  7 22  1  0
 22 23  1  0
 22 24  1  0
 22 25  1  0
 25 26  1  1
 25 27  1  0
 27 28  1  0
 27 29  1  0
 27 30  1  0
 30 31  1  0
 30 32  1  0
 30 33  1  0
 33 34  1  1
 33 35  1  0
 35 36  1  0
 35 37  1  0
  6 38  1  0
 38 39  1  0
 38 40  2  0
 40 41  1  0
 40  2  1  0
 33  7  1  0
 17  8  1  0
 35 25  1  0
M  END
>  <cnnaffinity>  (1) 
-4.65966

>  <filename>  (1) 
Cc1ccccc1[C@@]1(c2cccnc2)C[C@@H]2CC[C@H]1C2

$$$$
