
     RDKit          3D

 42 45  0  0  0  0  0  0  0  0999 V2000
    9.3616    0.6388   20.7798 C   0  0  0  0  0  0  0  0  0  0  0  0
    8.5727   -0.4750   21.4074 C   0  0  0  0  0  0  0  0  0  0  0  0
    9.0909   -1.2758   22.4186 C   0  0  0  0  0  0  0  0  0  0  0  0
    8.4270   -2.2505   23.0082 N   0  0  0  0  0  0  0  0  0  0  0  0
    7.1780   -2.4541   22.5782 C   0  0  0  0  0  0  0  0  0  0  0  0
    6.4814   -3.4388   23.1911 N   0  0  0  0  0  0  0  0  0  0  0  0
    7.0527   -4.0554   24.3984 C   0  0  0  0  0  0  0  0  0  0  0  0
    6.0451   -4.9637   25.0840 C   0  0  0  0  0  0  0  0  0  0  0  0
    5.4233   -5.9542   24.0843 C   0  0  0  0  0  0  0  0  0  0  0  0
    4.1699   -6.6825   24.6137 C   0  0  0  0  0  0  0  0  0  0  0  0
    3.0630   -6.0118   24.0419 O   0  0  0  0  0  0  0  0  0  0  0  0
    3.4334   -5.6894   22.7174 C   0  0  0  0  0  0  0  0  0  0  0  0
    4.9066   -5.2532   22.7892 C   0  0  0  0  0  0  0  0  0  0  0  0
    5.1008   -3.7309   22.8193 C   0  0  0  0  0  0  0  0  0  0  0  0
    4.8967   -3.3049   21.8372 H   0  0  0  0  0  0  0  0  0  0  0  0
    4.3889   -3.2635   23.5190 H   0  0  0  0  0  0  0  0  0  0  0  0
    5.4518   -5.6283   21.9184 H   0  0  0  0  0  0  0  0  0  0  0  0
    3.3217   -6.5662   22.0521 H   0  0  0  0  0  0  0  0  0  0  0  0
    2.7497   -4.9045   22.3760 H   0  0  0  0  0  0  0  0  0  0  0  0
    4.1858   -7.7464   24.3163 H   0  0  0  0  0  0  0  0  0  0  0  0
    4.0600   -6.6272   25.7028 H   0  0  0  0  0  0  0  0  0  0  0  0
    6.1901   -6.6675   23.7861 H   0  0  0  0  0  0  0  0  0  0  0  0
    6.5303   -5.4808   25.9215 H   0  0  0  0  0  0  0  0  0  0  0  0
    5.2504   -4.3400   25.5091 H   0  0  0  0  0  0  0  0  0  0  0  0
    7.3758   -3.2685   25.0900 H   0  0  0  0  0  0  0  0  0  0  0  0
    7.9600   -4.6122   24.1290 H   0  0  0  0  0  0  0  0  0  0  0  0
    6.5680   -1.7825   21.5981 N   0  0  0  0  0  0  0  0  0  0  0  0
    7.2618   -0.8127   21.0249 C   0  0  0  0  0  0  0  0  0  0  0  0
    6.5653   -0.0790   19.9584 C   0  0  0  0  0  0  0  0  0  0  0  0
    5.3590    0.5955   20.1750 C   0  0  0  0  0  0  0  0  0  0  0  0
    4.7922    1.2944   19.1133 C   0  0  0  0  0  0  0  0  0  0  0  0
    5.4377    1.2699   17.8709 C   0  0  0  0  0  0  0  0  0  0  0  0
    6.5837    0.6085   17.6485 N   0  0  0  0  0  0  0  0  0  0  0  0
    7.1299   -0.0421   18.6808 C   0  0  0  0  0  0  0  0  0  0  0  0
    8.0828   -0.5331   18.4740 H   0  0  0  0  0  0  0  0  0  0  0  0
    5.0122    1.8004   17.0225 H   0  0  0  0  0  0  0  0  0  0  0  0
    3.8788    1.8668   19.2385 H   0  0  0  0  0  0  0  0  0  0  0  0
    4.9001    0.5915   21.1664 H   0  0  0  0  0  0  0  0  0  0  0  0
   10.1117   -1.1238   22.7840 H   0  0  0  0  0  0  0  0  0  0  0  0
    9.6833    0.3261   19.7871 H   0  0  0  0  0  0  0  0  0  0  0  0
    8.7400    1.5320   20.6537 H   0  0  0  0  0  0  0  0  0  0  0  0
   10.2478    0.8892   21.3661 H   0  0  0  0  0  0  0  0  0  0  0  0
  1  2  1  0
  2  3  2  0
  3  4  1  0
  4  5  2  0
  5  6  1  0
  6  7  1  0
  7  8  1  0
  8  9  1  0
  9 10  1  0
 10 11  1  0
 11 12  1  0
 12 13  1  0
 13 14  1  0
 14 15  1  0
 14 16  1  0
 13 17  1  0
 12 18  1  0
 12 19  1  0
 10 20  1  0
 10 21  1  0
  9 22  1  0
  8 23  1  0
  8 24  1  0
  7 25  1  0
  7 26  1  0
  5 27  1  0
 27 28  2  0
 28 29  1  0
 29 30  2  0
 30 31  1  0
 31 32  2  0
 32 33  1  0
 33 34  2  0
 34 35  1  0
 32 36  1  0
 31 37  1  0
 30 38  1  0
  3 39  1  0
  1 40  1  0
  1 41  1  0
  1 42  1  0
 28  2  1  0
 34 29  1  0
 14  6  1  0
 13  9  1  0
M  END
>  <cnnaffinity>  (1) 
-5.5513

>  <filename>  (1) 
Cc1cnc(N2CCC3COCC3C2)nc1-c1cccnc1

$$$$
