
     RDKit          3D

 33 35  0  0  0  0  0  0  0  0999 V2000
    4.7674    0.4630   26.3538 C   0  0  0  0  0  0  0  0  0  0  0  0
    5.1654    1.2555   25.1316 C   0  0  0  0  0  0  0  0  0  0  0  0
    4.4060    2.3397   24.6598 C   0  0  0  0  0  0  0  0  0  0  0  0
    4.7146    3.0513   23.5684 N   0  0  0  0  0  0  0  0  0  0  0  0
    5.8143    2.7119   22.8859 C   0  0  0  0  0  0  0  0  0  0  0  0
    6.6462    1.6398   23.2503 C   0  0  0  0  0  0  0  0  0  0  0  0
    7.8844    1.2527   22.4576 C   0  0  0  0  0  0  0  0  0  0  0  0
    7.9268   -0.1470   22.0546 N   0  0  0  0  0  0  0  0  0  0  0  0
    8.5538   -1.0623   22.8155 N   0  0  0  0  0  0  0  0  0  0  0  0
    8.3932   -2.2175   22.1819 C   0  0  0  0  0  0  0  0  0  0  0  0
    7.6606   -2.0430   20.9926 C   0  0  0  0  0  0  0  0  0  0  0  0
    7.3925   -0.7001   20.9332 C   0  0  0  0  0  0  0  0  0  0  0  0
    6.6585    0.0442   19.8890 C   0  0  0  0  0  0  0  0  0  0  0  0
    5.4341    0.6778   20.1355 C   0  0  0  0  0  0  0  0  0  0  0  0
    4.7925    1.3329   19.0838 C   0  0  0  0  0  0  0  0  0  0  0  0
    5.3842    1.3109   17.8153 C   0  0  0  0  0  0  0  0  0  0  0  0
    6.5417    0.6837   17.5534 N   0  0  0  0  0  0  0  0  0  0  0  0
    7.1521    0.0702   18.5750 C   0  0  0  0  0  0  0  0  0  0  0  0
    8.0993   -0.4162   18.3474 H   0  0  0  0  0  0  0  0  0  0  0  0
    4.9142    1.8104   16.9690 H   0  0  0  0  0  0  0  0  0  0  0  0
    3.8550    1.8579   19.2268 H   0  0  0  0  0  0  0  0  0  0  0  0
    4.9982    0.6202   21.1312 H   0  0  0  0  0  0  0  0  0  0  0  0
    7.2758   -2.7611   20.2934 H   0  0  0  0  0  0  0  0  0  0  0  0
    8.8129   -3.1240   22.5990 H   0  0  0  0  0  0  0  0  0  0  0  0
    8.7928    1.4126   23.0478 H   0  0  0  0  0  0  0  0  0  0  0  0
    7.9334    1.8484   21.5434 H   0  0  0  0  0  0  0  0  0  0  0  0
    6.3085    0.9190   24.3991 C   0  0  0  0  0  0  0  0  0  0  0  0
    6.9419    0.0844   24.7082 H   0  0  0  0  0  0  0  0  0  0  0  0
    6.0214    3.3137   21.9965 H   0  0  0  0  0  0  0  0  0  0  0  0
    3.5020    2.6511   25.1851 H   0  0  0  0  0  0  0  0  0  0  0  0
    4.1333   -0.3906   26.0860 H   0  0  0  0  0  0  0  0  0  0  0  0
    4.2106    1.0770   27.0694 H   0  0  0  0  0  0  0  0  0  0  0  0
    5.6501    0.0657   26.8657 H   0  0  0  0  0  0  0  0  0  0  0  0
  1  2  1  0
  2  3  2  0
  3  4  1  0
  4  5  2  0
  5  6  1  0
  6  7  1  0
  7  8  1  0
  8  9  1  0
  9 10  2  0
 10 11  1  0
 11 12  2  0
 12 13  1  0
 13 14  2  0
 14 15  1  0
 15 16  2  0
 16 17  1  0
 17 18  2  0
 18 19  1  0
 16 20  1  0
 15 21  1  0
 14 22  1  0
 11 23  1  0
 10 24  1  0
  7 25  1  0
  7 26  1  0
  6 27  2  0
 27 28  1  0
  5 29  1  0
  3 30  1  0
  1 31  1  0
  1 32  1  0
  1 33  1  0
 27  2  1  0
 12  8  1  0
 18 13  1  0
M  END
>  <cnnaffinity>  (1) 
-4.86836

>  <filename>  (1) 
Cc1cncc(Cn2nccc2-c2cccnc2)c1

$$$$
