
     RDKit          3D

 33 35  0  0  0  0  0  0  0  0999 V2000
    4.9130    1.7829   16.9916 H   0  0  0  0  0  0  0  0  0  0  0  0
    5.3975    1.2926   17.8324 C   0  0  0  0  0  0  0  0  0  0  0  0
    6.5588    0.6778   17.5660 N   0  0  0  0  0  0  0  0  0  0  0  0
    7.1707    0.0732   18.5913 C   0  0  0  0  0  0  0  0  0  0  0  0
    8.1182   -0.4185   18.3632 H   0  0  0  0  0  0  0  0  0  0  0  0
    6.6765    0.0357   19.8994 C   0  0  0  0  0  0  0  0  0  0  0  0
    7.3741   -0.7318   20.9913 C   0  0  0  0  0  0  0  0  0  0  0  0
    7.3208   -0.1445   21.9177 H   0  0  0  0  0  0  0  0  0  0  0  0
    8.4408   -0.8412   20.7440 H   0  0  0  0  0  0  0  0  0  0  0  0
    6.7637   -2.0956   21.2185 C   0  0  0  0  0  0  0  0  0  0  0  0
    6.2029   -2.9589   20.2600 C   0  0  0  0  0  0  0  0  0  0  0  0
    6.1384   -2.7912   19.1930 H   0  0  0  0  0  0  0  0  0  0  0  0
    5.7239   -4.0678   20.8011 N   0  0  0  0  0  0  0  0  0  0  0  0
    5.9707   -3.9278   22.1072 N   0  0  0  0  0  0  0  0  0  0  0  0
    5.6917   -4.6454   22.7612 H   0  0  0  0  0  0  0  0  0  0  0  0
    6.5959   -2.7638   22.4234 C   0  0  0  0  0  0  0  0  0  0  0  0
    7.0055   -2.3903   23.7962 C   0  0  0  0  0  0  0  0  0  0  0  0
    6.2128   -2.7725   24.8204 N   0  0  0  0  0  0  0  0  0  0  0  0
    6.5612   -2.4148   26.0596 C   0  0  0  0  0  0  0  0  0  0  0  0
    5.6519   -2.8323   27.1820 C   0  0  0  0  0  0  0  0  0  0  0  0
    6.1568   -3.5502   27.8337 H   0  0  0  0  0  0  0  0  0  0  0  0
    4.7371   -3.2943   26.8076 H   0  0  0  0  0  0  0  0  0  0  0  0
    5.3833   -1.9776   27.8082 H   0  0  0  0  0  0  0  0  0  0  0  0
    7.7454   -1.7051   26.3409 C   0  0  0  0  0  0  0  0  0  0  0  0
    7.9859   -1.4653   27.3673 H   0  0  0  0  0  0  0  0  0  0  0  0
    8.5915   -1.3447   25.2970 C   0  0  0  0  0  0  0  0  0  0  0  0
    9.5224   -0.8041   25.4805 H   0  0  0  0  0  0  0  0  0  0  0  0
    8.2109   -1.6951   24.0021 C   0  0  0  0  0  0  0  0  0  0  0  0
    8.8497   -1.4592   23.1586 H   0  0  0  0  0  0  0  0  0  0  0  0
    5.4475    0.6641   20.1520 C   0  0  0  0  0  0  0  0  0  0  0  0
    5.0136    0.6279   21.1549 H   0  0  0  0  0  0  0  0  0  0  0  0
    4.8035    1.3128   19.0986 C   0  0  0  0  0  0  0  0  0  0  0  0
    3.8695    1.8443   19.2553 H   0  0  0  0  0  0  0  0  0  0  0  0
  1  2  1  0
  2  3  2  0
  3  4  1  0
  4  5  1  0
  4  6  2  0
  6  7  1  0
  7  8  1  0
  7  9  1  0
  7 10  1  0
 10 11  1  0
 11 12  1  0
 11 13  2  0
 13 14  1  0
 14 15  1  0
 14 16  1  0
 16 17  1  0
 17 18  2  0
 18 19  1  0
 19 20  1  0
 20 21  1  0
 20 22  1  0
 20 23  1  0
 19 24  2  0
 24 25  1  0
 24 26  1  0
 26 27  1  0
 26 28  2  0
 28 29  1  0
  6 30  1  0
 30 31  1  0
 30 32  2  0
 32 33  1  0
 32  2  1  0
 16 10  2  0
 28 17  1  0
M  END
>  <cnnaffinity>  (1) 
-4.96725

>  <filename>  (1) 
Cc1cccc(-c2[nH]ncc2Cc2cccnc2)n1

$$$$
