
     RDKit          3D

 32 34  0  0  0  0  0  0  0  0999 V2000
    4.9198    1.7974   16.9752 H   0  0  0  0  0  0  0  0  0  0  0  0
    5.3926    1.2994   17.8190 C   0  0  0  0  0  0  0  0  0  0  0  0
    6.5565    0.6800   17.5616 N   0  0  0  0  0  0  0  0  0  0  0  0
    7.1609    0.0565   18.5816 C   0  0  0  0  0  0  0  0  0  0  0  0
    8.1196   -0.4027   18.3405 H   0  0  0  0  0  0  0  0  0  0  0  0
    6.6450    0.0045   19.8926 C   0  0  0  0  0  0  0  0  0  0  0  0
    7.3331   -0.6544   21.0063 C   0  0  0  0  0  0  0  0  0  0  0  0
    7.2464   -0.4278   22.3369 C   0  0  0  0  0  0  0  0  0  0  0  0
    6.6697    0.3077   22.8740 H   0  0  0  0  0  0  0  0  0  0  0  0
    8.1095   -1.3006   22.9853 N   0  0  0  0  0  0  0  0  0  0  0  0
    8.3205   -1.3607   24.3938 C   0  0  0  0  0  0  0  0  0  0  0  0
    8.7836   -0.2033   25.0247 C   0  0  0  0  0  0  0  0  0  0  0  0
    8.9441    0.6897   24.4260 H   0  0  0  0  0  0  0  0  0  0  0  0
    9.0521   -0.2152   26.3922 C   0  0  0  0  0  0  0  0  0  0  0  0
    9.4189    0.6792   26.8813 H   0  0  0  0  0  0  0  0  0  0  0  0
    8.8418   -1.3781   27.1329 C   0  0  0  0  0  0  0  0  0  0  0  0
    9.0586   -1.3826   28.1958 H   0  0  0  0  0  0  0  0  0  0  0  0
    8.3461   -2.5215   26.4994 C   0  0  0  0  0  0  0  0  0  0  0  0
    8.1709   -3.4311   27.0670 H   0  0  0  0  0  0  0  0  0  0  0  0
    8.0562   -2.5399   25.1258 C   0  0  0  0  0  0  0  0  0  0  0  0
    7.4919   -3.7952   24.4979 C   0  0  0  0  0  0  0  0  0  0  0  0
    6.9484   -4.3914   25.2387 H   0  0  0  0  0  0  0  0  0  0  0  0
    8.2954   -4.4148   24.0853 H   0  0  0  0  0  0  0  0  0  0  0  0
    6.8107   -3.5617   23.6730 H   0  0  0  0  0  0  0  0  0  0  0  0
    8.7585   -2.1000   22.0482 C   0  0  0  0  0  0  0  0  0  0  0  0
    9.5629   -2.9964   22.1891 O   0  0  0  0  0  0  0  0  0  0  0  0
    8.2678   -1.6582   20.8456 N   0  0  0  0  0  0  0  0  0  0  0  0
    8.5580   -2.1371   20.0165 H   0  0  0  0  0  0  0  0  0  0  0  0
    5.4270    0.6594   20.1343 C   0  0  0  0  0  0  0  0  0  0  0  0
    4.9928    0.6370   21.1368 H   0  0  0  0  0  0  0  0  0  0  0  0
    4.7948    1.3190   19.0835 C   0  0  0  0  0  0  0  0  0  0  0  0
    3.8642    1.8512   19.2378 H   0  0  0  0  0  0  0  0  0  0  0  0
  1  2  1  0
  2  3  2  0
  3  4  1  0
  4  5  1  0
  4  6  2  0
  6  7  1  0
  7  8  2  0
  8  9  1  0
  8 10  1  0
 10 11  1  0
 11 12  2  0
 12 13  1  0
 12 14  1  0
 14 15  1  0
 14 16  2  0
 16 17  1  0
 16 18  1  0
 18 19  1  0
 18 20  2  0
 20 21  1  0
 21 22  1  0
 21 23  1  0
 21 24  1  0
 10 25  1  0
 25 26  2  0
 25 27  1  0
 27 28  1  0
  6 29  1  0
 29 30  1  0
 29 31  2  0
 31 32  1  0
 31  2  1  0
 27  7  1  0
 20 11  1  0
M  END
>  <cnnaffinity>  (1) 
-5.40157

>  <filename>  (1) 
Cc1ccccc1-n1cc(-c2cccnc2)[nH]c1=O

$$$$
