
     RDKit          3D

 37 40  0  0  0  0  0  0  0  0999 V2000
    4.9816    1.8462   16.9005 H   0  0  0  0  0  0  0  0  0  0  0  0
    5.4164    1.2934   17.7324 C   0  0  0  0  0  0  0  0  0  0  0  0
    6.5605    0.6340   17.4891 N   0  0  0  0  0  0  0  0  0  0  0  0
    7.1412   -0.0090   18.5076 C   0  0  0  0  0  0  0  0  0  0  0  0
    8.0678   -0.5252   18.2635 H   0  0  0  0  0  0  0  0  0  0  0  0
    6.6202   -0.0352   19.8151 C   0  0  0  0  0  0  0  0  0  0  0  0
    7.3816   -0.6188   20.9384 C   0  0  0  0  0  0  0  0  0  0  0  0
    8.5269   -1.2899   20.7331 N   0  0  0  0  0  0  0  0  0  0  0  0
    8.9611   -1.5224   21.9856 N   0  0  0  0  0  0  0  0  0  0  0  0
   10.0991   -2.1072   22.5236 C   0  0  0  0  0  0  0  0  0  0  0  0
   10.8376   -2.5631   21.8881 H   0  0  0  0  0  0  0  0  0  0  0  0
   10.0013   -1.9410   23.8636 C   0  0  0  0  0  0  0  0  0  0  0  0
   10.6556   -2.2125   24.6774 H   0  0  0  0  0  0  0  0  0  0  0  0
    8.8147   -1.2766   24.1478 N   0  0  0  0  0  0  0  0  0  0  0  0
    8.4687   -0.8386   25.4198 N   0  0  0  0  0  0  0  0  0  0  0  0
    8.9361    0.0354   25.6431 H   0  0  0  0  0  0  0  0  0  0  0  0
    7.0960   -0.6749   25.7493 C   0  0  0  0  0  0  0  0  0  0  0  0
    6.7605    0.4670   26.4880 C   0  0  0  0  0  0  0  0  0  0  0  0
    7.5398    1.1893   26.7311 H   0  0  0  0  0  0  0  0  0  0  0  0
    5.4439    0.6819   26.8974 C   0  0  0  0  0  0  0  0  0  0  0  0
    5.1943    1.5895   27.4467 H   0  0  0  0  0  0  0  0  0  0  0  0
    4.4401   -0.2528   26.5964 C   0  0  0  0  0  0  0  0  0  0  0  0
    3.0312   -0.0685   27.1011 C   0  0  0  0  0  0  0  0  0  0  0  0
    2.3044   -0.5268   26.4233 H   0  0  0  0  0  0  0  0  0  0  0  0
    2.7703    0.9892   27.2162 H   0  0  0  0  0  0  0  0  0  0  0  0
    2.9054   -0.5453   28.0803 H   0  0  0  0  0  0  0  0  0  0  0  0
    4.7861   -1.3798   25.8322 C   0  0  0  0  0  0  0  0  0  0  0  0
    4.0060   -2.0879   25.5545 H   0  0  0  0  0  0  0  0  0  0  0  0
    6.1000   -1.5918   25.4003 C   0  0  0  0  0  0  0  0  0  0  0  0
    6.3587   -2.4439   24.7757 H   0  0  0  0  0  0  0  0  0  0  0  0
    8.1724   -1.0226   22.9516 C   0  0  0  0  0  0  0  0  0  0  0  0
    7.0743   -0.4544   22.3100 C   0  0  0  0  0  0  0  0  0  0  0  0
    6.1819   -0.0623   22.7659 H   0  0  0  0  0  0  0  0  0  0  0  0
    5.3973    0.6194   20.0354 C   0  0  0  0  0  0  0  0  0  0  0  0
    4.9313    0.5951   21.0199 H   0  0  0  0  0  0  0  0  0  0  0  0
    4.7923    1.2996   18.9826 C   0  0  0  0  0  0  0  0  0  0  0  0
    3.8726    1.8549   19.1306 H   0  0  0  0  0  0  0  0  0  0  0  0
  1  2  1  0
  2  3  2  0
  3  4  1  0
  4  5  1  0
  4  6  2  0
  6  7  1  0
  7  8  2  0
  8  9  1  0
  9 10  1  0
 10 11  1  0
 10 12  2  0
 12 13  1  0
 12 14  1  0
 14 15  1  0
 15 16  1  0
 15 17  1  0
 17 18  2  0
 18 19  1  0
 18 20  1  0
 20 21  1  0
 20 22  2  0
 22 23  1  0
 23 24  1  0
 23 25  1  0
 23 26  1  0
 22 27  1  0
 27 28  1  0
 27 29  2  0
 29 30  1  0
 14 31  1  0
 31 32  2  0
 32 33  1  0
  6 34  1  0
 34 35  1  0
 34 36  2  0
 36 37  1  0
 36  2  1  0
 32  7  1  0
 31  9  1  0
 29 17  1  0
M  END
>  <cnnaffinity>  (1) 
-5.59695

>  <filename>  (1) 
Cc1ccc(Nn2ccn3nc(-c4cccnc4)cc23)cc1

$$$$
