
     RDKit          3D

 33 34  0  0  0  0  0  0  0  0999 V2000
    4.9304    1.8222   16.9705 H   0  0  0  0  0  0  0  0  0  0  0  0
    5.3880    1.3059   17.8125 C   0  0  0  0  0  0  0  0  0  0  0  0
    6.5488    0.6826   17.5546 N   0  0  0  0  0  0  0  0  0  0  0  0
    7.1457    0.0484   18.5755 C   0  0  0  0  0  0  0  0  0  0  0  0
    8.0994   -0.4182   18.3299 H   0  0  0  0  0  0  0  0  0  0  0  0
    6.6324   -0.0320   19.8816 C   0  0  0  0  0  0  0  0  0  0  0  0
    7.4654   -0.7191   20.9703 C   0  0  1  0  0  0  0  0  0  0  0  0
    8.1207   -1.4433   20.4627 H   0  0  0  0  0  0  0  0  0  0  0  0
    8.3750    0.2950   21.6748 C   0  0  0  0  0  0  0  0  0  0  0  0
    7.8607    1.3477   22.4477 C   0  0  0  0  0  0  0  0  0  0  0  0
    6.7828    1.4728   22.5463 H   0  0  0  0  0  0  0  0  0  0  0  0
    8.7235    2.2575   23.0749 C   0  0  0  0  0  0  0  0  0  0  0  0
    8.3065    3.0703   23.6699 H   0  0  0  0  0  0  0  0  0  0  0  0
   10.1165    2.1421   22.9599 C   0  0  0  0  0  0  0  0  0  0  0  0
   11.0398    3.1302   23.6390 C   0  0  0  0  0  0  0  0  0  0  0  0
   11.7740    2.6134   24.2708 H   0  0  0  0  0  0  0  0  0  0  0  0
   11.6123    3.7151   22.9051 H   0  0  0  0  0  0  0  0  0  0  0  0
   10.4799    3.8288   24.2704 H   0  0  0  0  0  0  0  0  0  0  0  0
   10.6435    1.0702   22.1987 C   0  0  0  0  0  0  0  0  0  0  0  0
   12.1246    0.8433   22.0564 C   0  0  0  0  0  0  0  0  0  0  0  0
   12.6155    0.7165   23.0303 H   0  0  0  0  0  0  0  0  0  0  0  0
   12.6102    1.6900   21.5572 H   0  0  0  0  0  0  0  0  0  0  0  0
   12.2913   -0.0573   21.4598 H   0  0  0  0  0  0  0  0  0  0  0  0
    9.7643    0.1846   21.5636 C   0  0  0  0  0  0  0  0  0  0  0  0
   10.1926   -0.6158   20.9607 H   0  0  0  0  0  0  0  0  0  0  0  0
    6.6035   -1.4881   21.9859 C   0  0  0  0  0  0  0  0  0  0  0  0
    7.2068   -2.1339   22.6347 H   0  0  0  0  0  0  0  0  0  0  0  0
    6.0972   -0.7734   22.6383 H   0  0  0  0  0  0  0  0  0  0  0  0
    5.8497   -2.1085   21.4903 H   0  0  0  0  0  0  0  0  0  0  0  0
    5.4193    0.6284   20.1219 C   0  0  0  0  0  0  0  0  0  0  0  0
    4.9576    0.6366   21.1135 H   0  0  0  0  0  0  0  0  0  0  0  0
    4.7879    1.3074   19.0734 C   0  0  0  0  0  0  0  0  0  0  0  0
    3.8614    1.8514   19.2225 H   0  0  0  0  0  0  0  0  0  0  0  0
  1  2  1  0
  2  3  2  0
  3  4  1  0
  4  5  1  0
  4  6  2  0
  6  7  1  0
  7  8  1  6
  7  9  1  0
  9 10  2  0
 10 11  1  0
 10 12  1  0
 12 13  1  0
 12 14  2  0
 14 15  1  0
 15 16  1  0
 15 17  1  0
 15 18  1  0
 14 19  1  0
 19 20  1  0
 20 21  1  0
 20 22  1  0
 20 23  1  0
 19 24  2  0
 24 25  1  0
  7 26  1  0
 26 27  1  0
 26 28  1  0
 26 29  1  0
  6 30  1  0
 30 31  1  0
 30 32  2  0
 32 33  1  0
 32  2  1  0
 24  9  1  0
M  END
>  <cnnaffinity>  (1) 
-4.72852

>  <filename>  (1) 
Cc1ccc([C@@H](C)c2cccnc2)cc1C

$$$$
