
     RDKit          3D

 31 33  0  0  0  0  0  0  0  0999 V2000
    4.9195    1.7804   16.9984 H   0  0  0  0  0  0  0  0  0  0  0  0
    5.4021    1.2937   17.8403 C   0  0  0  0  0  0  0  0  0  0  0  0
    6.5677    0.6813   17.5772 N   0  0  0  0  0  0  0  0  0  0  0  0
    7.1683    0.0542   18.5899 C   0  0  0  0  0  0  0  0  0  0  0  0
    8.1166   -0.4344   18.3719 H   0  0  0  0  0  0  0  0  0  0  0  0
    6.6455    0.0110   19.8897 C   0  0  0  0  0  0  0  0  0  0  0  0
    7.3786   -0.7243   20.9078 C   0  0  0  0  0  0  0  0  0  0  0  0
    7.9780   -1.8565   20.6883 N   0  0  0  0  0  0  0  0  0  0  0  0
    8.4738   -2.1991   21.9062 N   0  0  0  0  0  0  0  0  0  0  0  0
    9.0196   -3.0292   22.0547 H   0  0  0  0  0  0  0  0  0  0  0  0
    8.2538   -1.2965   22.8809 C   0  0  0  0  0  0  0  0  0  0  0  0
    8.8046   -1.3732   24.4438 S   0  0  0  0  0  0  0  0  0  0  0  0
    7.5062   -0.3279   22.2309 N   0  0  0  0  0  0  0  0  0  0  0  0
    7.1155    0.9324   22.8145 C   0  0  0  0  0  0  0  0  0  0  0  0
    7.5183    2.1403   22.2281 C   0  0  0  0  0  0  0  0  0  0  0  0
    8.0930    2.1275   21.3080 H   0  0  0  0  0  0  0  0  0  0  0  0
    7.1364    3.3561   22.8032 C   0  0  0  0  0  0  0  0  0  0  0  0
    7.4316    4.2967   22.3410 H   0  0  0  0  0  0  0  0  0  0  0  0
    6.3705    3.3749   23.9718 C   0  0  0  0  0  0  0  0  0  0  0  0
    6.0843    4.3232   24.4293 H   0  0  0  0  0  0  0  0  0  0  0  0
    5.9712    2.1717   24.5726 C   0  0  0  0  0  0  0  0  0  0  0  0
    5.1794    2.1928   25.8582 C   0  0  0  0  0  0  0  0  0  0  0  0
    4.5173    1.3248   25.9402 H   0  0  0  0  0  0  0  0  0  0  0  0
    5.8459    2.1809   26.7299 H   0  0  0  0  0  0  0  0  0  0  0  0
    4.5587    3.0923   25.9415 H   0  0  0  0  0  0  0  0  0  0  0  0
    6.3490    0.9531   23.9810 C   0  0  0  0  0  0  0  0  0  0  0  0
    6.0666    0.0156   24.4505 H   0  0  0  0  0  0  0  0  0  0  0  0
    5.4250    0.6515   20.1542 C   0  0  0  0  0  0  0  0  0  0  0  0
    5.0118    0.6366   21.1674 H   0  0  0  0  0  0  0  0  0  0  0  0
    4.7993    1.3100   19.1034 C   0  0  0  0  0  0  0  0  0  0  0  0
    3.8710    1.8448   19.2564 H   0  0  0  0  0  0  0  0  0  0  0  0
  1  2  1  0
  2  3  2  0
  3  4  1  0
  4  5  1  0
  4  6  2  0
  6  7  1  0
  7  8  2  0
  8  9  1  0
  9 10  1  0
  9 11  1  0
 11 12  2  0
 11 13  1  0
 13 14  1  0
 14 15  2  0
 15 16  1  0
 15 17  1  0
 17 18  1  0
 17 19  2  0
 19 20  1  0
 19 21  1  0
 21 22  1  0
 22 23  1  0
 22 24  1  0
 22 25  1  0
 21 26  2  0
 26 27  1  0
  6 28  1  0
 28 29  1  0
 28 30  2  0
 30 31  1  0
 30  2  1  0
 13  7  1  0
 26 14  1  0
M  END
>  <cnnaffinity>  (1) 
-5.07991

>  <filename>  (1) 
Cc1cccc(-n2c(-c3cccnc3)n[nH]c2=S)c1

$$$$
