
     RDKit          3D

 33 35  0  0  0  0  0  0  0  0999 V2000
    5.1621    1.6617   16.9016 H   0  0  0  0  0  0  0  0  0  0  0  0
    5.5897    1.2113   17.7960 C   0  0  0  0  0  0  0  0  0  0  0  0
    6.7748    0.5972   17.6395 N   0  0  0  0  0  0  0  0  0  0  0  0
    7.3378    0.0613   18.7299 C   0  0  0  0  0  0  0  0  0  0  0  0
    8.3106   -0.4125   18.5944 H   0  0  0  0  0  0  0  0  0  0  0  0
    6.7359    0.0751   19.9965 C   0  0  0  0  0  0  0  0  0  0  0  0
    7.4300   -0.5506   21.1505 C   0  0  0  0  0  0  0  0  0  0  0  0
    8.7125   -0.3365   21.2645 N   0  0  0  0  0  0  0  0  0  0  0  0
    9.3563   -0.8323   22.3860 N   0  0  0  0  0  0  0  0  0  0  0  0
   10.7932   -0.8350   22.2640 C   0  0  0  0  0  0  0  0  0  0  0  0
   11.3273   -1.6830   21.2916 C   0  0  0  0  0  0  0  0  0  0  0  0
   10.6285   -2.2912   20.7276 H   0  0  0  0  0  0  0  0  0  0  0  0
   12.7065   -1.7491   21.0912 C   0  0  0  0  0  0  0  0  0  0  0  0
   13.1131   -2.3958   20.3208 H   0  0  0  0  0  0  0  0  0  0  0  0
   13.5457   -0.9618   21.8746 C   0  0  0  0  0  0  0  0  0  0  0  0
   14.6177   -1.0106   21.7236 H   0  0  0  0  0  0  0  0  0  0  0  0
   13.0093   -0.1131   22.8439 C   0  0  0  0  0  0  0  0  0  0  0  0
   13.6658    0.5156   23.4400 H   0  0  0  0  0  0  0  0  0  0  0  0
   11.6278   -0.0608   23.0901 C   0  0  0  0  0  0  0  0  0  0  0  0
   11.1138    0.7893   24.2170 C   0  0  0  0  0  0  0  0  0  0  0  0
   10.7142    0.1360   24.9948 H   0  0  0  0  0  0  0  0  0  0  0  0
   11.9292    1.3862   24.6368 H   0  0  0  0  0  0  0  0  0  0  0  0
   10.3158    1.4558   23.8791 H   0  0  0  0  0  0  0  0  0  0  0  0
    8.7851   -1.7477   23.3294 C   0  0  0  0  0  0  0  0  0  0  0  0
    9.4379   -2.2557   24.2219 O   0  0  0  0  0  0  0  0  0  0  0  0
    7.3799   -2.0329   23.0616 C   0  0  0  0  0  0  0  0  0  0  0  0
    6.9303   -2.7354   23.7520 H   0  0  0  0  0  0  0  0  0  0  0  0
    6.7242   -1.4401   22.0298 C   0  0  0  0  0  0  0  0  0  0  0  0
    5.6822   -1.6500   21.8032 H   0  0  0  0  0  0  0  0  0  0  0  0
    5.4853    0.6938   20.1408 C   0  0  0  0  0  0  0  0  0  0  0  0
    4.9862    0.7235   21.1126 H   0  0  0  0  0  0  0  0  0  0  0  0
    4.9125    1.2915   19.0194 C   0  0  0  0  0  0  0  0  0  0  0  0
    3.9635    1.8160   19.0811 H   0  0  0  0  0  0  0  0  0  0  0  0
  1  2  1  0
  2  3  2  0
  3  4  1  0
  4  5  1  0
  4  6  2  0
  6  7  1  0
  7  8  2  0
  8  9  1  0
  9 10  1  0
 10 11  2  0
 11 12  1  0
 11 13  1  0
 13 14  1  0
 13 15  2  0
 15 16  1  0
 15 17  1  0
 17 18  1  0
 17 19  2  0
 19 20  1  0
 20 21  1  0
 20 22  1  0
 20 23  1  0
  9 24  1  0
 24 25  2  0
 24 26  1  0
 26 27  1  0
 26 28  2  0
 28 29  1  0
  6 30  1  0
 30 31  1  0
 30 32  2  0
 32 33  1  0
 32  2  1  0
 28  7  1  0
 19 10  1  0
M  END
>  <cnnaffinity>  (1) 
-5.29292

>  <filename>  (1) 
Cc1ccccc1-n1nc(-c2cccnc2)ccc1=O

$$$$
