
     RDKit          3D

 32 34  0  0  0  0  0  0  0  0999 V2000
    4.9248    1.7850   16.9929 H   0  0  0  0  0  0  0  0  0  0  0  0
    5.3988    1.2952   17.8399 C   0  0  0  0  0  0  0  0  0  0  0  0
    6.5571    0.6708   17.5825 N   0  0  0  0  0  0  0  0  0  0  0  0
    7.1477    0.0421   18.5996 C   0  0  0  0  0  0  0  0  0  0  0  0
    8.1137   -0.4134   18.3927 H   0  0  0  0  0  0  0  0  0  0  0  0
    6.6053   -0.0274   19.8975 C   0  0  0  0  0  0  0  0  0  0  0  0
    7.3124   -0.7442   20.9901 C   0  0  0  0  0  0  0  0  0  0  0  0
    6.5727   -1.5039   21.7554 N   0  0  0  0  0  0  0  0  0  0  0  0
    7.1595   -2.1854   22.7976 N   0  0  0  0  0  0  0  0  0  0  0  0
    6.2936   -2.9918   23.6177 C   0  0  0  0  0  0  0  0  0  0  0  0
    5.2137   -3.6649   23.0396 C   0  0  0  0  0  0  0  0  0  0  0  0
    5.0209   -3.5603   21.9826 H   0  0  0  0  0  0  0  0  0  0  0  0
    4.4091   -4.4315   23.8724 C   0  0  0  0  0  0  0  0  0  0  0  0
    3.5527   -4.9612   23.4660 H   0  0  0  0  0  0  0  0  0  0  0  0
    4.5975   -4.5686   25.1917 N   0  0  0  0  0  0  0  0  0  0  0  0
    5.6299   -3.9244   25.7396 C   0  0  0  0  0  0  0  0  0  0  0  0
    5.8396   -4.0651   27.2199 C   0  0  0  0  0  0  0  0  0  0  0  0
    5.6455   -3.1157   27.7268 H   0  0  0  0  0  0  0  0  0  0  0  0
    5.1795   -4.8215   27.6453 H   0  0  0  0  0  0  0  0  0  0  0  0
    6.8744   -4.3349   27.4468 H   0  0  0  0  0  0  0  0  0  0  0  0
    6.5037   -3.1300   24.9892 C   0  0  0  0  0  0  0  0  0  0  0  0
    7.3079   -2.6032   25.4793 H   0  0  0  0  0  0  0  0  0  0  0  0
    8.5213   -2.1129   23.0188 C   0  0  0  0  0  0  0  0  0  0  0  0
    8.8930   -2.7319   23.8340 H   0  0  0  0  0  0  0  0  0  0  0  0
    9.3428   -1.3586   22.2746 C   0  0  0  0  0  0  0  0  0  0  0  0
   10.4114   -1.2795   22.4434 H   0  0  0  0  0  0  0  0  0  0  0  0
    8.7995   -0.5596   21.1824 C   0  0  0  0  0  0  0  0  0  0  0  0
    9.5030    0.1742   20.4953 O   0  0  0  0  0  0  0  0  0  0  0  0
    5.4057    0.6416   20.1571 C   0  0  0  0  0  0  0  0  0  0  0  0
    4.9975    0.6207   21.1710 H   0  0  0  0  0  0  0  0  0  0  0  0
    4.7971    1.3221   19.1037 C   0  0  0  0  0  0  0  0  0  0  0  0
    3.8673    1.8564   19.2483 H   0  0  0  0  0  0  0  0  0  0  0  0
  1  2  1  0
  2  3  2  0
  3  4  1  0
  4  5  1  0
  4  6  2  0
  6  7  1  0
  7  8  2  0
  8  9  1  0
  9 10  1  0
 10 11  2  0
 11 12  1  0
 11 13  1  0
 13 14  1  0
 13 15  2  0
 15 16  1  0
 16 17  1  0
 17 18  1  0
 17 19  1  0
 17 20  1  0
 16 21  2  0
 21 22  1  0
  9 23  1  0
 23 24  1  0
 23 25  2  0
 25 26  1  0
 25 27  1  0
 27 28  2  0
  6 29  1  0
 29 30  1  0
 29 31  2  0
 31 32  1  0
 31  2  1  0
 27  7  1  0
 21 10  1  0
M  END
>  <cnnaffinity>  (1) 
-5.27855

>  <filename>  (1) 
Cc1cc(-n2ccc(=O)c(-c3cccnc3)n2)ccn1

$$$$
