
     RDKit          3D

 47 49  0  0  0  0  0  0  0  0999 V2000
    5.7888   -2.6399   21.1059 C   0  0  0  0  0  0  0  0  0  0  0  0
    7.0300   -1.8489   21.4086 C   0  0  0  0  0  0  0  0  0  0  0  0
    7.8492   -2.2606   22.4540 C   0  0  0  0  0  0  0  0  0  0  0  0
    8.9458   -1.6461   22.8345 N   0  0  0  0  0  0  0  0  0  0  0  0
    9.2778   -0.5482   22.1457 C   0  0  0  0  0  0  0  0  0  0  0  0
   10.3710    0.1370   22.5882 N   0  0  0  0  0  0  0  0  0  0  0  0
   11.2971   -0.5538   23.5025 C   0  0  0  0  0  0  0  0  0  0  0  0
   12.1212    0.4270   24.3309 C   0  0  0  0  0  0  0  0  0  0  0  0
   12.8213    1.4385   23.4290 C   0  0  0  0  0  0  0  0  0  0  0  0
   11.7329    2.1972   22.6544 C   0  0  0  0  0  0  0  0  0  0  0  0
   12.2860    3.2309   21.8593 O   0  0  0  0  0  0  0  0  0  0  0  0
   12.8550    4.3011   22.6146 C   0  0  0  0  0  0  0  0  0  0  0  0
   14.3213    4.4374   22.2413 C   0  0  0  0  0  0  0  0  0  0  0  0
   14.8633    3.5173   22.4844 H   0  0  0  0  0  0  0  0  0  0  0  0
   14.4506    4.6169   21.1708 H   0  0  0  0  0  0  0  0  0  0  0  0
   14.7656    5.2846   22.7735 H   0  0  0  0  0  0  0  0  0  0  0  0
   12.0444    5.5572   22.3684 C   0  0  0  0  0  0  0  0  0  0  0  0
   12.3868    6.3635   23.0273 H   0  0  0  0  0  0  0  0  0  0  0  0
   10.9851    5.3598   22.5619 H   0  0  0  0  0  0  0  0  0  0  0  0
   12.1680    5.8661   21.3323 H   0  0  0  0  0  0  0  0  0  0  0  0
   12.7962    4.0830   23.6932 H   0  0  0  0  0  0  0  0  0  0  0  0
   10.9309    1.2331   21.7731 C   0  0  0  0  0  0  0  0  0  0  0  0
   11.5922    0.8441   20.9813 H   0  0  0  0  0  0  0  0  0  0  0  0
   10.1202    1.7851   21.2876 H   0  0  0  0  0  0  0  0  0  0  0  0
   11.0281    2.6441   23.3768 H   0  0  0  0  0  0  0  0  0  0  0  0
   13.5153    0.9642   22.7184 H   0  0  0  0  0  0  0  0  0  0  0  0
   13.4278    2.1371   24.0132 H   0  0  0  0  0  0  0  0  0  0  0  0
   12.8353   -0.1319   24.9440 H   0  0  0  0  0  0  0  0  0  0  0  0
   11.4539    0.9622   25.0233 H   0  0  0  0  0  0  0  0  0  0  0  0
   10.7207   -1.1975   24.1740 H   0  0  0  0  0  0  0  0  0  0  0  0
   11.9681   -1.2030   22.9118 H   0  0  0  0  0  0  0  0  0  0  0  0
    8.6289   -0.0806   21.0780 N   0  0  0  0  0  0  0  0  0  0  0  0
    7.4760   -0.6707   20.7781 C   0  0  0  0  0  0  0  0  0  0  0  0
    6.6835    0.0053   19.7256 C   0  0  0  0  0  0  0  0  0  0  0  0
    5.4338    0.6056   19.9361 C   0  0  0  0  0  0  0  0  0  0  0  0
    4.8383    1.2961   18.8789 C   0  0  0  0  0  0  0  0  0  0  0  0
    5.4939    1.3257   17.6423 C   0  0  0  0  0  0  0  0  0  0  0  0
    6.6780    0.7355   17.4248 N   0  0  0  0  0  0  0  0  0  0  0  0
    7.2620    0.1186   18.4573 C   0  0  0  0  0  0  0  0  0  0  0  0
    8.2423   -0.3093   18.2467 H   0  0  0  0  0  0  0  0  0  0  0  0
    5.0482    1.8434   16.7938 H   0  0  0  0  0  0  0  0  0  0  0  0
    3.9031    1.8291   18.9968 H   0  0  0  0  0  0  0  0  0  0  0  0
    4.9464    0.5778   20.9143 H   0  0  0  0  0  0  0  0  0  0  0  0
    7.5761   -3.1527   23.0235 H   0  0  0  0  0  0  0  0  0  0  0  0
    4.9244   -2.0819   21.4610 H   0  0  0  0  0  0  0  0  0  0  0  0
    5.6680   -2.8400   20.0382 H   0  0  0  0  0  0  0  0  0  0  0  0
    5.8023   -3.5904   21.6490 H   0  0  0  0  0  0  0  0  0  0  0  0
  1  2  1  0
  2  3  2  0
  3  4  1  0
  4  5  2  0
  5  6  1  0
  6  7  1  0
  7  8  1  0
  8  9  1  0
  9 10  1  0
 10 11  1  0
 11 12  1  0
 12 13  1  0
 13 14  1  0
 13 15  1  0
 13 16  1  0
 12 17  1  0
 17 18  1  0
 17 19  1  0
 17 20  1  0
 12 21  1  0
 10 22  1  0
 22 23  1  0
 22 24  1  0
 10 25  1  0
  9 26  1  0
  9 27  1  0
  8 28  1  0
  8 29  1  0
  7 30  1  0
  7 31  1  0
  5 32  1  0
 32 33  2  0
 33 34  1  0
 34 35  2  0
 35 36  1  0
 36 37  2  0
 37 38  1  0
 38 39  2  0
 39 40  1  0
 37 41  1  0
 36 42  1  0
 35 43  1  0
  3 44  1  0
  1 45  1  0
  1 46  1  0
  1 47  1  0
 33  2  1  0
 39 34  1  0
 22  6  1  0
M  END
>  <cnnaffinity>  (1) 
-5.4396

>  <filename>  (1) 
Cc1cnc(N2CCCC(OC(C)C)C2)nc1-c1cccnc1

$$$$
