
     RDKit          3D

 38 40  0  0  0  0  0  0  0  0999 V2000
    9.1435    0.1477   27.5004 H   0  0  0  0  0  0  0  0  0  0  0  0
    9.4913    0.1190   26.5897 O   0  0  0  0  0  0  0  0  0  0  0  0
    9.0887    1.3476   26.2315 C   0  0  0  0  0  0  0  0  0  0  0  0
    8.4261    1.9955   27.0113 O   0  0  0  0  0  0  0  0  0  0  0  0
    9.4908    1.7945   24.8886 C   0  0  0  0  0  0  0  0  0  0  0  0
    9.8260    1.1016   23.7279 C   0  0  0  0  0  0  0  0  0  0  0  0
    9.8233   -0.3845   23.5030 C   0  0  0  0  0  0  0  0  0  0  0  0
   10.4165   -0.6409   22.6173 H   0  0  0  0  0  0  0  0  0  0  0  0
   10.2696   -0.9165   24.3495 H   0  0  0  0  0  0  0  0  0  0  0  0
    8.3655   -0.9156   23.2963 C   0  0  1  0  0  0  0  0  0  0  0  0
    7.8874   -0.7912   24.2795 H   0  0  0  0  0  0  0  0  0  0  0  0
    7.5727   -0.1638   22.2785 C   0  0  0  0  0  0  0  0  0  0  0  0
    7.3115    0.8570   22.5168 H   0  0  0  0  0  0  0  0  0  0  0  0
    7.2900   -0.6862   21.0645 C   0  0  0  0  0  0  0  0  0  0  0  0
    6.6370    0.0256   19.9496 C   0  0  0  0  0  0  0  0  0  0  0  0
    7.1947    0.0040   18.6558 C   0  0  0  0  0  0  0  0  0  0  0  0
    8.1291   -0.5241   18.4752 H   0  0  0  0  0  0  0  0  0  0  0  0
    6.6602    0.6055   17.5866 N   0  0  0  0  0  0  0  0  0  0  0  0
    5.4996    1.2553   17.7694 C   0  0  0  0  0  0  0  0  0  0  0  0
    5.0743    1.7292   16.8875 H   0  0  0  0  0  0  0  0  0  0  0  0
    4.8440    1.3322   19.0040 C   0  0  0  0  0  0  0  0  0  0  0  0
    3.9035    1.8706   19.0778 H   0  0  0  0  0  0  0  0  0  0  0  0
    5.4278    0.7240   20.1172 C   0  0  0  0  0  0  0  0  0  0  0  0
    4.9454    0.7678   21.0971 H   0  0  0  0  0  0  0  0  0  0  0  0
    7.6624   -2.0000   20.8029 N   0  0  0  0  0  0  0  0  0  0  0  0
    7.3524   -2.4700   19.9699 H   0  0  0  0  0  0  0  0  0  0  0  0
    8.0664   -2.8734   21.7608 C   0  0  0  0  0  0  0  0  0  0  0  0
    8.1061   -4.5063   21.4645 S   0  0  0  0  0  0  0  0  0  0  0  0
    8.3775   -2.3390   22.9501 N   0  0  0  0  0  0  0  0  0  0  0  0
    8.5695   -3.0453   23.6377 H   0  0  0  0  0  0  0  0  0  0  0  0
    9.8257    2.1023   22.7196 C   0  0  0  0  0  0  0  0  0  0  0  0
    9.9509    1.9224   21.2409 C   0  0  0  0  0  0  0  0  0  0  0  0
    9.6006    2.8295   20.7580 H   0  0  0  0  0  0  0  0  0  0  0  0
    9.3292    1.0952   20.8897 H   0  0  0  0  0  0  0  0  0  0  0  0
   10.9777    1.7209   20.9281 H   0  0  0  0  0  0  0  0  0  0  0  0
    9.5820    3.3025   23.2353 N   0  0  0  0  0  0  0  0  0  0  0  0
    9.3832    3.1016   24.5358 N   0  0  0  0  0  0  0  0  0  0  0  0
    9.0742    3.8750   25.1133 H   0  0  0  0  0  0  0  0  0  0  0  0
  1  2  1  0
  2  3  1  0
  3  4  2  0
  3  5  1  0
  5  6  2  0
  6  7  1  0
  7  8  1  0
  7  9  1  0
  7 10  1  0
 10 11  1  1
 10 12  1  0
 12 13  1  0
 12 14  2  0
 14 15  1  0
 15 16  2  0
 16 17  1  0
 16 18  1  0
 18 19  2  0
 19 20  1  0
 19 21  1  0
 21 22  1  0
 21 23  2  0
 23 24  1  0
 14 25  1  0
 25 26  1  0
 25 27  1  0
 27 28  2  0
 27 29  1  0
 29 30  1  0
  6 31  1  0
 31 32  1  0
 32 33  1  0
 32 34  1  0
 32 35  1  0
 31 36  2  0
 36 37  1  0
 37 38  1  0
 37  5  1  0
 29 10  1  0
 23 15  1  0
M  END
>  <cnnaffinity>  (1) 
-5.50106

>  <filename>  (1) 
Cc1n[nH]c(C(=O)O)c1C[C@H]1C=C(c2cccnc2)NC(=S)N1

$$$$
