
     RDKit          3D

 30 32  0  0  0  0  0  0  0  0999 V2000
    4.9074    1.7772   16.9998 H   0  0  0  0  0  0  0  0  0  0  0  0
    5.3978    1.2957   17.8399 C   0  0  0  0  0  0  0  0  0  0  0  0
    6.5629    0.6801   17.5730 N   0  0  0  0  0  0  0  0  0  0  0  0
    7.1743    0.0599   18.5885 C   0  0  0  0  0  0  0  0  0  0  0  0
    8.1256   -0.4299   18.3833 H   0  0  0  0  0  0  0  0  0  0  0  0
    6.6428   -0.0023   19.8918 C   0  0  0  0  0  0  0  0  0  0  0  0
    7.3372   -0.6971   20.9410 N   0  0  0  0  0  0  0  0  0  0  0  0
    6.7085   -1.7489   21.5781 C   0  0  0  0  0  0  0  0  0  0  0  0
    5.7041   -1.9805   21.2301 H   0  0  0  0  0  0  0  0  0  0  0  0
    7.3227   -2.4596   22.5753 C   0  0  0  0  0  0  0  0  0  0  0  0
    6.6317   -3.5792   23.2488 C   0  0  0  0  0  0  0  0  0  0  0  0
    5.4659   -4.1011   22.7034 N   0  0  0  0  0  0  0  0  0  0  0  0
    5.0014   -5.0648   23.4345 C   0  0  0  0  0  0  0  0  0  0  0  0
    3.7284   -5.8030   23.1492 C   0  0  0  0  0  0  0  0  0  0  0  0
    3.7719   -6.8421   23.4846 H   0  0  0  0  0  0  0  0  0  0  0  0
    2.8956   -5.3136   23.6681 H   0  0  0  0  0  0  0  0  0  0  0  0
    3.5211   -5.7788   22.0783 H   0  0  0  0  0  0  0  0  0  0  0  0
    5.9535   -5.4196   24.8515 S   0  0  0  0  0  0  0  0  0  0  0  0
    7.0420   -4.1715   24.4068 C   0  0  0  0  0  0  0  0  0  0  0  0
    7.8987   -3.9223   25.0159 H   0  0  0  0  0  0  0  0  0  0  0  0
    8.6503   -2.0772   22.9525 C   0  0  0  0  0  0  0  0  0  0  0  0
    9.1890   -2.6160   23.7308 H   0  0  0  0  0  0  0  0  0  0  0  0
    9.2805   -1.0403   22.3408 C   0  0  0  0  0  0  0  0  0  0  0  0
   10.2761   -0.7163   22.5910 H   0  0  0  0  0  0  0  0  0  0  0  0
    8.6625   -0.2608   21.2898 C   0  0  0  0  0  0  0  0  0  0  0  0
    9.2040    0.6730   20.7238 O   0  0  0  0  0  0  0  0  0  0  0  0
    5.4352    0.6462   20.1565 C   0  0  0  0  0  0  0  0  0  0  0  0
    5.0195    0.6226   21.1651 H   0  0  0  0  0  0  0  0  0  0  0  0
    4.8024    1.3180   19.1070 C   0  0  0  0  0  0  0  0  0  0  0  0
    3.8685    1.8478   19.2654 H   0  0  0  0  0  0  0  0  0  0  0  0
  1  2  1  0
  2  3  2  0
  3  4  1  0
  4  5  1  0
  4  6  2  0
  6  7  1  0
  7  8  1  0
  8  9  1  0
  8 10  2  0
 10 11  1  0
 11 12  1  0
 12 13  2  0
 13 14  1  0
 14 15  1  0
 14 16  1  0
 14 17  1  0
 13 18  1  0
 18 19  1  0
 19 20  1  0
 10 21  1  0
 21 22  1  0
 21 23  2  0
 23 24  1  0
 23 25  1  0
 25 26  2  0
  6 27  1  0
 27 28  1  0
 27 29  2  0
 29 30  1  0
 29  2  1  0
 25  7  1  0
 19 11  2  0
M  END
>  <cnnaffinity>  (1) 
-5.42372

>  <filename>  (1) 
Cc1nc(-c2ccc(=O)n(-c3cccnc3)c2)cs1

$$$$
