
     RDKit          3D

 36 39  0  0  0  0  0  0  0  0999 V2000
    4.2090    3.2645   23.1102 H   0  0  0  0  0  0  0  0  0  0  0  0
    4.8145    2.8227   23.7300 O   0  0  0  0  0  0  0  0  0  0  0  0
    3.8929    2.2260   24.4976 C   0  0  0  0  0  0  0  0  0  0  0  0
    2.7175    2.3945   24.2511 O   0  0  0  0  0  0  0  0  0  0  0  0
    4.4156    1.3669   25.5737 C   0  0  0  0  0  0  0  0  0  0  0  0
    5.6939    1.1218   26.0573 C   0  0  0  0  0  0  0  0  0  0  0  0
    6.9959    1.5236   25.4106 C   0  0  0  0  0  0  0  0  0  0  0  0
    7.8163    1.4896   26.1376 H   0  0  0  0  0  0  0  0  0  0  0  0
    6.9217    2.5470   25.0440 H   0  0  0  0  0  0  0  0  0  0  0  0
    7.3195    0.6080   24.2709 C   0  0  0  0  0  0  0  0  0  0  0  0
    8.0725   -0.5151   24.4456 N   0  0  0  0  0  0  0  0  0  0  0  0
    8.0714   -1.0207   23.2257 C   0  0  0  0  0  0  0  0  0  0  0  0
    8.8682   -2.2960   22.3672 S   0  0  0  0  0  0  0  0  0  0  0  0
    8.2972   -1.6315   20.8621 C   0  0  0  0  0  0  0  0  0  0  0  0
    8.7098   -1.9947   19.9380 H   0  0  0  0  0  0  0  0  0  0  0  0
    7.4375   -0.6040   21.0179 C   0  0  0  0  0  0  0  0  0  0  0  0
    6.6648    0.0739   19.9551 C   0  0  0  0  0  0  0  0  0  0  0  0
    7.1722    0.0765   18.6389 C   0  0  0  0  0  0  0  0  0  0  0  0
    8.1191   -0.4098   18.4122 H   0  0  0  0  0  0  0  0  0  0  0  0
    6.5791    0.6642   17.5948 N   0  0  0  0  0  0  0  0  0  0  0  0
    5.4141    1.2887   17.8256 C   0  0  0  0  0  0  0  0  0  0  0  0
    4.9555    1.7848   16.9705 H   0  0  0  0  0  0  0  0  0  0  0  0
    4.7942    1.3147   19.0795 C   0  0  0  0  0  0  0  0  0  0  0  0
    3.8446    1.8265   19.1896 H   0  0  0  0  0  0  0  0  0  0  0  0
    5.4224    0.7018   20.1662 C   0  0  0  0  0  0  0  0  0  0  0  0
    4.9790    0.7099   21.1630 H   0  0  0  0  0  0  0  0  0  0  0  0
    7.3392   -0.2693   22.3782 N   0  0  0  0  0  0  0  0  0  0  0  0
    6.8453    0.8084   23.0451 N   0  0  0  0  0  0  0  0  0  0  0  0
    5.5203    0.1260   27.0489 C   0  0  0  0  0  0  0  0  0  0  0  0
    6.5896   -0.5374   27.8491 C   0  0  0  0  0  0  0  0  0  0  0  0
    6.1667   -1.2396   28.5721 H   0  0  0  0  0  0  0  0  0  0  0  0
    7.1842    0.2128   28.3790 H   0  0  0  0  0  0  0  0  0  0  0  0
    7.2741   -1.0613   27.1715 H   0  0  0  0  0  0  0  0  0  0  0  0
    4.2435   -0.2093   27.1611 N   0  0  0  0  0  0  0  0  0  0  0  0
    3.5922    0.5415   26.2758 N   0  0  0  0  0  0  0  0  0  0  0  0
    2.5854    0.4503   26.2142 H   0  0  0  0  0  0  0  0  0  0  0  0
  1  2  1  0
  2  3  1  0
  3  4  2  0
  3  5  1  0
  5  6  2  0
  6  7  1  0
  7  8  1  0
  7  9  1  0
  7 10  1  0
 10 11  1  0
 11 12  2  0
 12 13  1  0
 13 14  1  0
 14 15  1  0
 14 16  2  0
 16 17  1  0
 17 18  2  0
 18 19  1  0
 18 20  1  0
 20 21  2  0
 21 22  1  0
 21 23  1  0
 23 24  1  0
 23 25  2  0
 25 26  1  0
 16 27  1  0
 27 28  1  0
  6 29  1  0
 29 30  1  0
 30 31  1  0
 30 32  1  0
 30 33  1  0
 29 34  2  0
 34 35  1  0
 35 36  1  0
 35  5  1  0
 28 10  2  0
 27 12  1  0
 25 17  1  0
M  END
>  <cnnaffinity>  (1) 
-5.54743

>  <filename>  (1) 
Cc1n[nH]c(C(=O)O)c1Cc1nc2scc(-c3cccnc3)n2n1

$$$$
