
     RDKit          3D

 32 34  0  0  0  0  0  0  0  0999 V2000
    5.0266    1.7711   17.0004 H   0  0  0  0  0  0  0  0  0  0  0  0
    5.5032    1.2571   17.8338 C   0  0  0  0  0  0  0  0  0  0  0  0
    6.6589    0.6259   17.5609 N   0  0  0  0  0  0  0  0  0  0  0  0
    7.2646   -0.0123   18.5716 C   0  0  0  0  0  0  0  0  0  0  0  0
    8.2115   -0.5025   18.3509 H   0  0  0  0  0  0  0  0  0  0  0  0
    6.7695   -0.0857   19.8875 C   0  0  0  0  0  0  0  0  0  0  0  0
    7.5142   -0.7757   20.8880 N   0  0  0  0  0  0  0  0  0  0  0  0
    8.1299   -0.1670   21.4225 H   0  0  0  0  0  0  0  0  0  0  0  0
    6.9355   -1.7173   21.7592 C   0  0  0  0  0  0  0  0  0  0  0  0
    5.8671   -2.6276   21.5677 C   0  0  0  0  0  0  0  0  0  0  0  0
    5.2506   -2.7719   20.6918 H   0  0  0  0  0  0  0  0  0  0  0  0
    5.6711   -3.3864   22.6475 N   0  0  0  0  0  0  0  0  0  0  0  0
    6.6127   -2.9711   23.5149 N   0  0  0  0  0  0  0  0  0  0  0  0
    6.7124   -3.4128   24.4196 H   0  0  0  0  0  0  0  0  0  0  0  0
    7.4359   -2.0023   23.0275 C   0  0  0  0  0  0  0  0  0  0  0  0
    8.6645   -1.5536   23.6736 C   0  0  0  0  0  0  0  0  0  0  0  0
    9.9282   -1.4222   22.9943 C   0  0  0  0  0  0  0  0  0  0  0  0
   10.2831   -1.8664   21.6117 C   0  0  0  0  0  0  0  0  0  0  0  0
   11.3391   -2.1371   21.5542 H   0  0  0  0  0  0  0  0  0  0  0  0
    9.6707   -2.7163   21.3146 H   0  0  0  0  0  0  0  0  0  0  0  0
   10.1108   -1.0790   20.8770 H   0  0  0  0  0  0  0  0  0  0  0  0
   10.8313   -0.8943   23.7647 N   0  0  0  0  0  0  0  0  0  0  0  0
   10.2174   -0.6919   24.9824 O   0  0  0  0  0  0  0  0  0  0  0  0
    8.9423   -1.1013   24.9434 C   0  0  0  0  0  0  0  0  0  0  0  0
    8.1903   -1.0064   26.2351 C   0  0  0  0  0  0  0  0  0  0  0  0
    7.2452   -0.4677   26.1194 H   0  0  0  0  0  0  0  0  0  0  0  0
    7.9419   -2.0022   26.6189 H   0  0  0  0  0  0  0  0  0  0  0  0
    8.8044   -0.5059   26.9897 H   0  0  0  0  0  0  0  0  0  0  0  0
    5.5621    0.5821   20.1556 C   0  0  0  0  0  0  0  0  0  0  0  0
    5.1468    0.5758   21.1650 H   0  0  0  0  0  0  0  0  0  0  0  0
    4.9265    1.2606   19.1080 C   0  0  0  0  0  0  0  0  0  0  0  0
    4.0022    1.8060   19.2705 H   0  0  0  0  0  0  0  0  0  0  0  0
  1  2  1  0
  2  3  2  0
  3  4  1  0
  4  5  1  0
  4  6  2  0
  6  7  1  0
  7  8  1  0
  7  9  1  0
  9 10  1  0
 10 11  1  0
 10 12  2  0
 12 13  1  0
 13 14  1  0
 13 15  1  0
 15 16  1  0
 16 17  1  0
 17 18  1  0
 18 19  1  0
 18 20  1  0
 18 21  1  0
 17 22  2  0
 22 23  1  0
 23 24  1  0
 24 25  1  0
 25 26  1  0
 25 27  1  0
 25 28  1  0
  6 29  1  0
 29 30  1  0
 29 31  2  0
 31 32  1  0
 31  2  1  0
 15  9  2  0
 24 16  2  0
M  END
>  <cnnaffinity>  (1) 
-5.33658

>  <filename>  (1) 
Cc1noc(C)c1-c1[nH]ncc1Nc1cccnc1

$$$$
