
     RDKit          3D

 39 40  0  0  0  0  0  0  0  0999 V2000
   10.9080   -1.3365   21.8251 C   0  0  0  0  0  0  0  0  0  0  0  0
    9.4179   -1.3360   21.8798 C   0  0  0  0  0  0  0  0  0  0  0  0
    8.8575   -1.9987   22.9002 N   0  0  0  0  0  0  0  0  0  0  0  0
    7.5278   -2.0263   22.9053 C   0  0  0  0  0  0  0  0  0  0  0  0
    6.6787   -2.8555   24.2292 S   0  0  0  0  0  0  0  0  0  0  0  0
    6.5123   -1.4554   25.3895 C   0  0  0  0  0  0  0  0  0  0  0  0
    7.8159   -1.2048   26.1428 C   0  0  0  0  0  0  0  0  0  0  0  0
    7.6828   -0.0858   26.9963 O   0  0  0  0  0  0  0  0  0  0  0  0
    8.1311    1.1291   26.4095 C   0  0  0  0  0  0  0  0  0  0  0  0
    7.7369    2.3167   27.2822 C   0  0  0  0  0  0  0  0  0  0  0  0
    6.2270    2.5115   27.3545 N   0  0  0  0  0  4  0  0  0  0  0  0
    5.8300    2.6138   26.4026 H   0  0  0  0  0  0  0  0  0  0  0  0
    5.9589    3.3160   27.9391 H   0  0  0  0  0  0  0  0  0  0  0  0
    5.8328    1.6361   27.7541 H   0  0  0  0  0  0  0  0  0  0  0  0
    8.1501    2.1432   28.2770 H   0  0  0  0  0  0  0  0  0  0  0  0
    8.2124    3.2071   26.8679 H   0  0  0  0  0  0  0  0  0  0  0  0
    7.7091    1.2597   25.3994 H   0  0  0  0  0  0  0  0  0  0  0  0
    9.2260    1.1087   26.3048 H   0  0  0  0  0  0  0  0  0  0  0  0
    8.6408   -1.0912   25.4175 H   0  0  0  0  0  0  0  0  0  0  0  0
    8.0565   -2.0747   26.7641 H   0  0  0  0  0  0  0  0  0  0  0  0
    5.7008   -1.6831   26.0890 H   0  0  0  0  0  0  0  0  0  0  0  0
    6.1977   -0.5643   24.8314 H   0  0  0  0  0  0  0  0  0  0  0  0
    6.7638   -1.3904   21.9443 C   0  0  0  0  0  0  0  0  0  0  0  0
    7.4428   -0.7044   20.9547 C   0  0  0  0  0  0  0  0  0  0  0  0
    6.6826    0.0178   19.9185 C   0  0  0  0  0  0  0  0  0  0  0  0
    5.4499    0.6450   20.1692 C   0  0  0  0  0  0  0  0  0  0  0  0
    4.8168    1.3032   19.1168 C   0  0  0  0  0  0  0  0  0  0  0  0
    5.4106    1.2816   17.8508 C   0  0  0  0  0  0  0  0  0  0  0  0
    6.5686    0.6609   17.5952 N   0  0  0  0  0  0  0  0  0  0  0  0
    7.1910    0.0608   18.6140 C   0  0  0  0  0  0  0  0  0  0  0  0
    8.1310   -0.4237   18.3692 H   0  0  0  0  0  0  0  0  0  0  0  0
    4.9327    1.7741   17.0056 H   0  0  0  0  0  0  0  0  0  0  0  0
    3.8857    1.8333   19.2599 H   0  0  0  0  0  0  0  0  0  0  0  0
    4.9980    0.6467   21.1653 H   0  0  0  0  0  0  0  0  0  0  0  0
    8.7740   -0.7047   20.9056 N   0  0  0  0  0  0  0  0  0  0  0  0
    5.6946   -1.4341   21.9513 H   0  0  0  0  0  0  0  0  0  0  0  0
   11.3245   -1.4157   22.8252 H   0  0  0  0  0  0  0  0  0  0  0  0
   11.2524   -2.2007   21.2621 H   0  0  0  0  0  0  0  0  0  0  0  0
   11.2788   -0.4479   21.3221 H   0  0  0  0  0  0  0  0  0  0  0  0
  1  2  1  0
  2  3  2  0
  3  4  1  0
  4  5  1  0
  5  6  1  0
  6  7  1  0
  7  8  1  0
  8  9  1  0
  9 10  1  0
 10 11  1  0
 11 12  1  0
 11 13  1  0
 11 14  1  0
 10 15  1  0
 10 16  1  0
  9 17  1  0
  9 18  1  0
  7 19  1  0
  7 20  1  0
  6 21  1  0
  6 22  1  0
  4 23  2  0
 23 24  1  0
 24 25  1  0
 25 26  2  0
 26 27  1  0
 27 28  2  0
 28 29  1  0
 29 30  2  0
 30 31  1  0
 28 32  1  0
 27 33  1  0
 26 34  1  0
 24 35  2  0
 23 36  1  0
  1 37  1  0
  1 38  1  0
  1 39  1  0
 35  2  1  0
 30 25  1  0
M  CHG  1  11   1
M  END
>  <cnnaffinity>  (1) 
-4.41088

>  <filename>  (1) 
Cc1nc(SCCOCC[NH3+])cc(-c2cccnc2)n1

$$$$
