
     RDKit          3D

 35 37  0  0  0  0  0  0  0  0999 V2000
   13.4982    0.6752   23.6998 H   0  0  0  0  0  0  0  0  0  0  0  0
   12.8412    1.3409   23.9801 O   0  0  0  0  0  0  0  0  0  0  0  0
   11.9729    1.0647   22.9891 C   0  0  0  0  0  0  0  0  0  0  0  0
   12.2918    0.1993   22.2049 O   0  0  0  0  0  0  0  0  0  0  0  0
   10.7341    1.8609   22.9870 C   0  0  0  0  0  0  0  0  0  0  0  0
    9.6318    1.8076   22.1488 C   0  0  0  0  0  0  0  0  0  0  0  0
    9.3802    0.8265   21.0387 C   0  0  0  0  0  0  0  0  0  0  0  0
    8.8537    1.3087   20.2144 H   0  0  0  0  0  0  0  0  0  0  0  0
   10.3400    0.4604   20.6796 H   0  0  0  0  0  0  0  0  0  0  0  0
    8.6218   -0.3945   21.4881 C   0  0  0  0  0  0  0  0  0  0  0  0
    9.2373   -1.1270   22.4240 N   0  0  0  0  0  0  0  0  0  0  0  0
    8.5929   -2.1903   22.8914 C   0  0  0  0  0  0  0  0  0  0  0  0
    9.1059   -2.7802   23.6439 H   0  0  0  0  0  0  0  0  0  0  0  0
    7.3788   -2.5969   22.5188 N   0  0  0  0  0  0  0  0  0  0  0  0
    6.7706   -1.8529   21.5962 C   0  0  0  0  0  0  0  0  0  0  0  0
    5.7762   -2.1692   21.2800 H   0  0  0  0  0  0  0  0  0  0  0  0
    7.3543   -0.7390   20.9779 C   0  0  0  0  0  0  0  0  0  0  0  0
    6.6476   -0.0001   19.8603 C   0  0  0  0  0  0  0  0  0  0  0  0
    7.1439    0.0672   18.5342 C   0  0  0  0  0  0  0  0  0  0  0  0
    8.0944   -0.4135   18.2984 H   0  0  0  0  0  0  0  0  0  0  0  0
    6.5269    0.6909   17.5184 N   0  0  0  0  0  0  0  0  0  0  0  0
    5.3730    1.3168   17.7980 C   0  0  0  0  0  0  0  0  0  0  0  0
    4.8981    1.8382   16.9710 H   0  0  0  0  0  0  0  0  0  0  0  0
    4.7813    1.3195   19.0657 C   0  0  0  0  0  0  0  0  0  0  0  0
    3.8494    1.8560   19.2243 H   0  0  0  0  0  0  0  0  0  0  0  0
    5.4247    0.6390   20.1060 C   0  0  0  0  0  0  0  0  0  0  0  0
    4.9986    0.6076   21.1107 H   0  0  0  0  0  0  0  0  0  0  0  0
    8.7477    2.7762   22.6726 C   0  0  0  0  0  0  0  0  0  0  0  0
    7.3609    3.0582   22.2118 C   0  0  0  0  0  0  0  0  0  0  0  0
    6.6864    2.2647   22.5470 H   0  0  0  0  0  0  0  0  0  0  0  0
    6.9911    4.0121   22.5855 H   0  0  0  0  0  0  0  0  0  0  0  0
    7.3196    3.0603   21.1232 H   0  0  0  0  0  0  0  0  0  0  0  0
    9.2773    3.3904   23.7252 N   0  0  0  0  0  0  0  0  0  0  0  0
   10.4746    2.8354   23.8938 N   0  0  0  0  0  0  0  0  0  0  0  0
   11.0634    3.1172   24.6655 H   0  0  0  0  0  0  0  0  0  0  0  0
  1  2  1  0
  2  3  1  0
  3  4  2  0
  3  5  1  0
  5  6  2  0
  6  7  1  0
  7  8  1  0
  7  9  1  0
  7 10  1  0
 10 11  2  0
 11 12  1  0
 12 13  1  0
 12 14  2  0
 14 15  1  0
 15 16  1  0
 15 17  2  0
 17 18  1  0
 18 19  2  0
 19 20  1  0
 19 21  1  0
 21 22  2  0
 22 23  1  0
 22 24  1  0
 24 25  1  0
 24 26  2  0
 26 27  1  0
  6 28  1  0
 28 29  1  0
 29 30  1  0
 29 31  1  0
 29 32  1  0
 28 33  2  0
 33 34  1  0
 34 35  1  0
 34  5  1  0
 17 10  1  0
 26 18  1  0
M  END
>  <cnnaffinity>  (1) 
-5.15115

>  <filename>  (1) 
Cc1n[nH]c(C(=O)O)c1Cc1ncncc1-c1cccnc1

$$$$
