
     RDKit          3D

 32 35  0  0  0  0  0  0  0  0999 V2000
    4.9246    1.7723   17.0033 H   0  0  0  0  0  0  0  0  0  0  0  0
    5.4100    1.2858   17.8466 C   0  0  0  0  0  0  0  0  0  0  0  0
    6.5751    0.6677   17.5947 N   0  0  0  0  0  0  0  0  0  0  0  0
    7.1807    0.0534   18.6167 C   0  0  0  0  0  0  0  0  0  0  0  0
    8.1270   -0.4328   18.3841 H   0  0  0  0  0  0  0  0  0  0  0  0
    6.6469    0.0141   19.9127 C   0  0  0  0  0  0  0  0  0  0  0  0
    7.3595   -0.6881   20.9683 C   0  0  0  0  0  0  0  0  0  0  0  0
    8.5504   -1.3154   20.7643 N   0  0  0  0  0  0  0  0  0  0  0  0
    8.8015   -1.8062   21.9604 C   0  0  0  0  0  0  0  0  0  0  0  0
    9.9943   -2.8129   22.7382 S   0  0  0  0  0  0  0  0  0  0  0  0
    9.0621   -2.7711   24.2063 C   0  0  0  0  0  0  0  0  0  0  0  0
    9.4145   -3.2958   25.0796 H   0  0  0  0  0  0  0  0  0  0  0  0
    7.9418   -2.0284   24.1081 C   0  0  0  0  0  0  0  0  0  0  0  0
    6.9743   -1.7896   25.1521 C   0  0  0  0  0  0  0  0  0  0  0  0
    6.4821   -2.7299   26.1063 C   0  0  0  0  0  0  0  0  0  0  0  0
    6.8526   -4.1678   26.2038 C   0  0  0  0  0  0  0  0  0  0  0  0
    7.8052   -4.2746   26.7295 H   0  0  0  0  0  0  0  0  0  0  0  0
    6.0965   -4.7363   26.7437 H   0  0  0  0  0  0  0  0  0  0  0  0
    6.9779   -4.5992   25.2094 H   0  0  0  0  0  0  0  0  0  0  0  0
    5.6224   -2.1799   26.9160 N   0  0  0  0  0  0  0  0  0  0  0  0
    5.5315   -0.8545   26.5222 O   0  0  0  0  0  0  0  0  0  0  0  0
    6.3337   -0.6278   25.4837 C   0  0  0  0  0  0  0  0  0  0  0  0
    6.4122    0.7361   24.9136 C   0  0  0  0  0  0  0  0  0  0  0  0
    6.2036    1.5133   25.6534 H   0  0  0  0  0  0  0  0  0  0  0  0
    5.7138    0.8240   24.0783 H   0  0  0  0  0  0  0  0  0  0  0  0
    7.4048    0.8848   24.4873 H   0  0  0  0  0  0  0  0  0  0  0  0
    7.8340   -1.4710   22.8354 N   0  0  0  0  0  0  0  0  0  0  0  0
    6.8723   -0.7495   22.2066 N   0  0  0  0  0  0  0  0  0  0  0  0
    5.4289    0.6582   20.1645 C   0  0  0  0  0  0  0  0  0  0  0  0
    4.9934    0.6350   21.1678 H   0  0  0  0  0  0  0  0  0  0  0  0
    4.8046    1.3104   19.1092 C   0  0  0  0  0  0  0  0  0  0  0  0
    3.8733    1.8435   19.2604 H   0  0  0  0  0  0  0  0  0  0  0  0
  1  2  1  0
  2  3  2  0
  3  4  1  0
  4  5  1  0
  4  6  2  0
  6  7  1  0
  7  8  1  0
  8  9  2  0
  9 10  1  0
 10 11  1  0
 11 12  1  0
 11 13  2  0
 13 14  1  0
 14 15  1  0
 15 16  1  0
 16 17  1  0
 16 18  1  0
 16 19  1  0
 15 20  2  0
 20 21  1  0
 21 22  1  0
 22 23  1  0
 23 24  1  0
 23 25  1  0
 23 26  1  0
 13 27  1  0
 27 28  1  0
  6 29  1  0
 29 30  1  0
 29 31  2  0
 31 32  1  0
 31  2  1  0
 28  7  2  0
 27  9  1  0
 22 14  2  0
M  END
>  <cnnaffinity>  (1) 
-5.58312

>  <filename>  (1) 
Cc1noc(C)c1-c1csc2nc(-c3cccnc3)nn12

$$$$
