
     RDKit          3D

 32 34  0  0  0  0  0  0  0  0999 V2000
    5.0110    1.8010   17.0104 H   0  0  0  0  0  0  0  0  0  0  0  0
    5.4304    1.2385   17.8412 C   0  0  0  0  0  0  0  0  0  0  0  0
    6.5669    0.5707   17.5978 N   0  0  0  0  0  0  0  0  0  0  0  0
    7.1317   -0.0730   18.6270 C   0  0  0  0  0  0  0  0  0  0  0  0
    8.0734   -0.5756   18.4106 H   0  0  0  0  0  0  0  0  0  0  0  0
    6.6161   -0.0935   19.9308 C   0  0  0  0  0  0  0  0  0  0  0  0
    7.3373   -0.8798   20.9966 C   0  0  0  0  0  0  0  0  0  0  0  0
    6.8919   -2.2606   20.8675 N   0  0  0  0  0  0  0  0  0  0  0  0
    5.9429   -2.3745   20.5401 H   0  0  0  0  0  0  0  0  0  0  0  0
    6.9458   -3.1298   21.9168 C   0  0  0  0  0  0  0  0  0  0  0  0
    5.8307   -3.9129   22.0623 N   0  0  0  0  0  0  0  0  0  0  0  0
    5.9942   -4.6780   23.0991 C   0  0  0  0  0  0  0  0  0  0  0  0
    4.9753   -5.6360   23.6178 C   0  0  0  0  0  0  0  0  0  0  0  0
    5.4621   -6.5355   23.9894 H   0  0  0  0  0  0  0  0  0  0  0  0
    4.2498   -5.9059   22.8504 H   0  0  0  0  0  0  0  0  0  0  0  0
    4.4297   -5.1754   24.4446 H   0  0  0  0  0  0  0  0  0  0  0  0
    7.5287   -4.5289   23.9191 S   0  0  0  0  0  0  0  0  0  0  0  0
    7.9622   -3.3022   22.7924 C   0  0  0  0  0  0  0  0  0  0  0  0
    8.8943   -2.7770   22.7757 H   0  0  0  0  0  0  0  0  0  0  0  0
    8.8865   -0.7602   21.0116 C   0  0  0  0  0  0  0  0  0  0  0  0
    9.2822   -0.0854   20.2511 H   0  0  0  0  0  0  0  0  0  0  0  0
    9.4090   -1.7152   20.9279 H   0  0  0  0  0  0  0  0  0  0  0  0
    8.8587   -0.1232   22.4169 C   0  0  0  0  0  0  0  0  0  0  0  0
    9.3608   -0.6881   23.2092 H   0  0  0  0  0  0  0  0  0  0  0  0
    9.2542    0.8969   22.4468 H   0  0  0  0  0  0  0  0  0  0  0  0
    7.3139   -0.2089   22.4109 C   0  0  0  0  0  0  0  0  0  0  0  0
    6.8495    0.7773   22.3944 H   0  0  0  0  0  0  0  0  0  0  0  0
    6.8471   -0.7885   23.2115 H   0  0  0  0  0  0  0  0  0  0  0  0
    5.4063    0.5858   20.1543 C   0  0  0  0  0  0  0  0  0  0  0  0
    4.9518    0.5975   21.1467 H   0  0  0  0  0  0  0  0  0  0  0  0
    4.8057    1.2628   19.0938 C   0  0  0  0  0  0  0  0  0  0  0  0
    3.8973    1.8373   19.2344 H   0  0  0  0  0  0  0  0  0  0  0  0
  1  2  1  0
  2  3  2  0
  3  4  1  0
  4  5  1  0
  4  6  2  0
  6  7  1  0
  7  8  1  0
  8  9  1  0
  8 10  1  0
 10 11  1  0
 11 12  2  0
 12 13  1  0
 13 14  1  0
 13 15  1  0
 13 16  1  0
 12 17  1  0
 17 18  1  0
 18 19  1  0
  7 20  1  0
 20 21  1  0
 20 22  1  0
 20 23  1  0
 23 24  1  0
 23 25  1  0
 23 26  1  0
 26 27  1  0
 26 28  1  0
  6 29  1  0
 29 30  1  0
 29 31  2  0
 31 32  1  0
 31  2  1  0
 26  7  1  0
 18 10  2  0
M  END
>  <cnnaffinity>  (1) 
-5.24004

>  <filename>  (1) 
Cc1nc(NC2(c3cccnc3)CCC2)cs1

$$$$
