
     RDKit          3D

 38 40  0  0  0  0  0  0  0  0999 V2000
   10.2495   -4.3876   24.2994 H   0  0  0  0  0  0  0  0  0  0  0  0
    9.4223   -4.6768   24.7243 O   0  0  0  0  0  0  0  0  0  0  0  0
    8.5681   -4.4308   23.7229 C   0  0  0  0  0  0  0  0  0  0  0  0
    8.9996   -3.9709   22.6853 O   0  0  0  0  0  0  0  0  0  0  0  0
    7.1587   -4.7536   24.0099 C   0  0  0  0  0  0  0  0  0  0  0  0
    6.0838   -4.7385   23.1326 C   0  0  0  0  0  0  0  0  0  0  0  0
    6.2209   -4.4151   21.6618 C   0  0  0  0  0  0  0  0  0  0  0  0
    7.1369   -4.8542   21.2618 H   0  0  0  0  0  0  0  0  0  0  0  0
    5.3840   -4.8454   21.1048 H   0  0  0  0  0  0  0  0  0  0  0  0
    6.1850   -2.9204   21.3750 C   0  0  0  0  0  0  0  0  0  0  0  0
    5.1484   -2.3043   21.5049 O   0  0  0  0  0  0  0  0  0  0  0  0
    7.3323   -2.3352   20.9185 N   0  0  0  0  0  0  0  0  0  0  0  0
    8.1661   -2.8410   21.1653 H   0  0  0  0  0  0  0  0  0  0  0  0
    7.4486   -0.9019   20.9127 C   0  0  0  0  0  0  0  0  0  0  0  0
    6.6788   -0.1710   19.8577 C   0  0  0  0  0  0  0  0  0  0  0  0
    7.1831   -0.1016   18.5532 C   0  0  0  0  0  0  0  0  0  0  0  0
    8.1147   -0.6120   18.3088 H   0  0  0  0  0  0  0  0  0  0  0  0
    6.6123    0.5946   17.5599 N   0  0  0  0  0  0  0  0  0  0  0  0
    5.4801    1.2549   17.8440 C   0  0  0  0  0  0  0  0  0  0  0  0
    5.0304    1.8122   17.0246 H   0  0  0  0  0  0  0  0  0  0  0  0
    4.8693    1.2325   19.1029 C   0  0  0  0  0  0  0  0  0  0  0  0
    3.9534    1.7887   19.2698 H   0  0  0  0  0  0  0  0  0  0  0  0
    5.4758    0.5004   20.1227 C   0  0  0  0  0  0  0  0  0  0  0  0
    5.0385    0.4279   21.1203 H   0  0  0  0  0  0  0  0  0  0  0  0
    7.6420   -0.2213   22.2421 C   0  0  0  0  0  0  0  0  0  0  0  0
    7.2102    0.7703   22.3629 H   0  0  0  0  0  0  0  0  0  0  0  0
    7.6033   -0.8455   23.1291 H   0  0  0  0  0  0  0  0  0  0  0  0
    8.8051   -0.3906   21.3026 C   0  0  0  0  0  0  0  0  0  0  0  0
    9.5475   -1.1407   21.5735 H   0  0  0  0  0  0  0  0  0  0  0  0
    9.1902    0.4887   20.7910 H   0  0  0  0  0  0  0  0  0  0  0  0
    4.9632   -5.0579   23.9473 C   0  0  0  0  0  0  0  0  0  0  0  0
    3.5107   -5.1201   23.6068 C   0  0  0  0  0  0  0  0  0  0  0  0
    3.2828   -5.8997   22.8771 H   0  0  0  0  0  0  0  0  0  0  0  0
    2.9280   -5.3178   24.5072 H   0  0  0  0  0  0  0  0  0  0  0  0
    3.1801   -4.1702   23.1928 H   0  0  0  0  0  0  0  0  0  0  0  0
    5.3431   -5.2878   25.1976 N   0  0  0  0  0  0  0  0  0  0  0  0
    6.6611   -5.1055   25.2281 N   0  0  0  0  0  0  0  0  0  0  0  0
    7.1392   -5.2197   26.1142 H   0  0  0  0  0  0  0  0  0  0  0  0
  1  2  1  0
  2  3  1  0
  3  4  2  0
  3  5  1  0
  5  6  2  0
  6  7  1  0
  7  8  1  0
  7  9  1  0
  7 10  1  0
 10 11  2  0
 10 12  1  0
 12 13  1  0
 12 14  1  0
 14 15  1  0
 15 16  2  0
 16 17  1  0
 16 18  1  0
 18 19  2  0
 19 20  1  0
 19 21  1  0
 21 22  1  0
 21 23  2  0
 23 24  1  0
 14 25  1  0
 25 26  1  0
 25 27  1  0
 25 28  1  0
 28 29  1  0
 28 30  1  0
  6 31  1  0
 31 32  1  0
 32 33  1  0
 32 34  1  0
 32 35  1  0
 31 36  2  0
 36 37  1  0
 37 38  1  0
 37  5  1  0
 28 14  1  0
 23 15  1  0
M  END
>  <cnnaffinity>  (1) 
-5.17289

>  <filename>  (1) 
Cc1n[nH]c(C(=O)O)c1CC(=O)NC1(c2cccnc2)CC1

$$$$
