
     RDKit          3D

 34 36  0  0  0  0  0  0  0  0999 V2000
    6.4489   -2.6198   23.9544 C   0  0  0  0  0  0  0  0  0  0  0  0
    7.2674   -2.0447   22.8399 C   0  0  0  0  0  0  0  0  0  0  0  0
    8.5904   -2.2575   22.8456 N   0  0  0  0  0  0  0  0  0  0  0  0
    9.2837   -1.6572   21.8792 C   0  0  0  0  0  0  0  0  0  0  0  0
   11.0717   -1.7607   21.8848 S   0  0  0  0  0  0  0  0  0  0  0  0
   11.3033   -0.2109   22.7589 C   0  0  0  0  0  0  0  0  0  0  0  0
   11.5157    0.9999   22.0825 C   0  0  0  0  0  0  0  0  0  0  0  0
   11.4710    2.2061   22.7871 C   0  0  0  0  0  0  0  0  0  0  0  0
   11.2003    2.2164   24.1621 C   0  0  0  0  0  0  0  0  0  0  0  0
   10.9744    1.0076   24.8216 C   0  0  0  0  0  0  0  0  0  0  0  0
   10.6295    0.9005   26.1264 O   0  0  0  0  0  0  0  0  0  0  0  0
   10.7227    1.7432   26.5743 H   0  0  0  0  0  0  0  0  0  0  0  0
   11.0483   -0.2030   24.1306 C   0  0  0  0  0  0  0  0  0  0  0  0
   10.8171   -1.1157   24.6668 H   0  0  0  0  0  0  0  0  0  0  0  0
   11.1144    3.1556   24.6980 H   0  0  0  0  0  0  0  0  0  0  0  0
   11.6227    3.1392   22.2472 H   0  0  0  0  0  0  0  0  0  0  0  0
   11.6863    0.9953   21.0107 H   0  0  0  0  0  0  0  0  0  0  0  0
    8.6913   -0.8579   20.9163 C   0  0  0  0  0  0  0  0  0  0  0  0
    7.3044   -0.7542   20.9655 C   0  0  0  0  0  0  0  0  0  0  0  0
    6.5728   -0.0118   19.9262 C   0  0  0  0  0  0  0  0  0  0  0  0
    5.3618    0.6716   20.1240 C   0  0  0  0  0  0  0  0  0  0  0  0
    4.8050    1.3442   19.0357 C   0  0  0  0  0  0  0  0  0  0  0  0
    5.4640    1.3008   17.8019 C   0  0  0  0  0  0  0  0  0  0  0  0
    6.6051    0.6297   17.5963 N   0  0  0  0  0  0  0  0  0  0  0  0
    7.1339   -0.0048   18.6425 C   0  0  0  0  0  0  0  0  0  0  0  0
    8.0527   -0.5565   18.4429 H   0  0  0  0  0  0  0  0  0  0  0  0
    5.0555    1.8168   16.9363 H   0  0  0  0  0  0  0  0  0  0  0  0
    3.8784    1.9005   19.1233 H   0  0  0  0  0  0  0  0  0  0  0  0
    4.8691    0.6735   21.0994 H   0  0  0  0  0  0  0  0  0  0  0  0
    6.6035   -1.3346   21.9352 N   0  0  0  0  0  0  0  0  0  0  0  0
    9.2853   -0.3231   20.1915 H   0  0  0  0  0  0  0  0  0  0  0  0
    6.2820   -1.8420   24.7069 H   0  0  0  0  0  0  0  0  0  0  0  0
    5.4714   -2.9222   23.5719 H   0  0  0  0  0  0  0  0  0  0  0  0
    6.9519   -3.4638   24.4297 H   0  0  0  0  0  0  0  0  0  0  0  0
  1  2  1  0
  2  3  2  0
  3  4  1  0
  4  5  1  0
  5  6  1  0
  6  7  2  0
  7  8  1  0
  8  9  2  0
  9 10  1  0
 10 11  1  0
 11 12  1  0
 10 13  2  0
 13 14  1  0
  9 15  1  0
  8 16  1  0
  7 17  1  0
  4 18  2  0
 18 19  1  0
 19 20  1  0
 20 21  2  0
 21 22  1  0
 22 23  2  0
 23 24  1  0
 24 25  2  0
 25 26  1  0
 23 27  1  0
 22 28  1  0
 21 29  1  0
 19 30  2  0
 18 31  1  0
  1 32  1  0
  1 33  1  0
  1 34  1  0
 30  2  1  0
 13  6  1  0
 25 20  1  0
M  END
>  <cnnaffinity>  (1) 
-5.70879

>  <filename>  (1) 
Cc1nc(Sc2cccc(O)c2)cc(-c2cccnc2)n1

$$$$
