
     RDKit          3D

 27 28  0  0  0  0  0  0  0  0999 V2000
    5.0031    1.7433   17.0367 H   0  0  0  0  0  0  0  0  0  0  0  0
    5.4768    1.2577   17.8831 C   0  0  0  0  0  0  0  0  0  0  0  0
    6.6363    0.6374   17.6297 N   0  0  0  0  0  0  0  0  0  0  0  0
    7.2453    0.0238   18.6495 C   0  0  0  0  0  0  0  0  0  0  0  0
    8.1808   -0.4778   18.3976 H   0  0  0  0  0  0  0  0  0  0  0  0
    6.7210   -0.0032   19.9446 C   0  0  0  0  0  0  0  0  0  0  0  0
    7.4012   -0.7172   21.0384 C   0  0  0  0  0  0  0  0  0  0  0  0
    6.8200   -1.1568   22.0030 O   0  0  0  0  0  0  0  0  0  0  0  0
    8.7569   -0.8103   20.9706 N   0  0  0  0  0  0  0  0  0  0  0  0
    9.4261   -0.3619   20.3729 H   0  0  0  0  0  0  0  0  0  0  0  0
    9.5288   -1.8034   22.0144 S   0  0  0  0  0  0  0  0  0  0  0  0
    8.9278   -3.1137   21.9099 O   0  0  0  0  0  0  0  0  0  0  0  0
   10.8877   -1.4984   21.5987 O   0  0  0  0  0  0  0  0  0  0  0  0
    9.2267   -1.0554   23.7112 C   0  0  0  0  0  0  0  0  0  0  0  0
    9.0248   -1.8007   24.8640 N   0  0  0  0  0  0  0  0  0  0  0  0
    8.8972   -1.0440   25.9148 C   0  0  0  0  0  0  0  0  0  0  0  0
    8.6804   -1.5916   27.2869 C   0  0  0  0  0  0  0  0  0  0  0  0
    8.0279   -0.9525   27.8874 H   0  0  0  0  0  0  0  0  0  0  0  0
    8.2438   -2.5897   27.2033 H   0  0  0  0  0  0  0  0  0  0  0  0
    9.6448   -1.6747   27.8000 H   0  0  0  0  0  0  0  0  0  0  0  0
    9.0455    0.6493   25.5824 S   0  0  0  0  0  0  0  0  0  0  0  0
    9.2846    0.2897   23.9217 C   0  0  0  0  0  0  0  0  0  0  0  0
    9.4768    1.1057   23.2391 H   0  0  0  0  0  0  0  0  0  0  0  0
    5.4867    0.6246   20.1971 C   0  0  0  0  0  0  0  0  0  0  0  0
    5.0475    0.5989   21.2007 H   0  0  0  0  0  0  0  0  0  0  0  0
    4.8619    1.2790   19.1435 C   0  0  0  0  0  0  0  0  0  0  0  0
    3.9216    1.8003   19.2793 H   0  0  0  0  0  0  0  0  0  0  0  0
  1  2  1  0
  2  3  2  0
  3  4  1  0
  4  5  1  0
  4  6  2  0
  6  7  1  0
  7  8  2  0
  7  9  1  0
  9 10  1  0
  9 11  1  0
 11 12  2  0
 11 13  2  0
 11 14  1  0
 14 15  1  0
 15 16  2  0
 16 17  1  0
 17 18  1  0
 17 19  1  0
 17 20  1  0
 16 21  1  0
 21 22  1  0
 22 23  1  0
  6 24  1  0
 24 25  1  0
 24 26  2  0
 26 27  1  0
 26  2  1  0
 22 14  2  0
M  END
>  <cnnaffinity>  (1) 
-5.09938

>  <filename>  (1) 
Cc1nc(S(=O)(=O)NC(=O)c2cccnc2)cs1

$$$$
