
     RDKit          3D

 35 37  0  0  0  0  0  0  0  0999 V2000
   13.5674    0.5071   23.6868 H   0  0  0  0  0  0  0  0  0  0  0  0
   12.9111    1.1747   23.9614 O   0  0  0  0  0  0  0  0  0  0  0  0
   12.0508    0.9490   22.9491 C   0  0  0  0  0  0  0  0  0  0  0  0
   12.3445    0.1081   22.1307 O   0  0  0  0  0  0  0  0  0  0  0  0
   10.8316    1.7773   22.9638 C   0  0  0  0  0  0  0  0  0  0  0  0
    9.7118    1.7195   22.1400 C   0  0  0  0  0  0  0  0  0  0  0  0
    9.4667    0.7203   21.0339 C   0  0  0  0  0  0  0  0  0  0  0  0
   10.4346    0.2926   20.7636 H   0  0  0  0  0  0  0  0  0  0  0  0
    9.0295    1.1986   20.1556 H   0  0  0  0  0  0  0  0  0  0  0  0
    8.6105   -0.4516   21.4765 C   0  0  0  0  0  0  0  0  0  0  0  0
    9.2097   -1.2060   22.4211 N   0  0  0  0  0  0  0  0  0  0  0  0
    8.5237   -2.2517   22.9063 C   0  0  0  0  0  0  0  0  0  0  0  0
    9.0181   -2.8584   23.6643 H   0  0  0  0  0  0  0  0  0  0  0  0
    7.2275   -2.5435   22.4638 C   0  0  0  0  0  0  0  0  0  0  0  0
    6.6818   -3.3871   22.8797 H   0  0  0  0  0  0  0  0  0  0  0  0
    6.6094   -1.8151   21.5152 N   0  0  0  0  0  0  0  0  0  0  0  0
    7.3006   -0.7803   20.9944 C   0  0  0  0  0  0  0  0  0  0  0  0
    6.5902   -0.0401   19.9066 C   0  0  0  0  0  0  0  0  0  0  0  0
    7.1130   -0.0163   18.6054 C   0  0  0  0  0  0  0  0  0  0  0  0
    8.0454   -0.5331   18.3802 H   0  0  0  0  0  0  0  0  0  0  0  0
    6.5500    0.6310   17.5755 N   0  0  0  0  0  0  0  0  0  0  0  0
    5.4127    1.2968   17.8166 C   0  0  0  0  0  0  0  0  0  0  0  0
    4.9811    1.8335   16.9721 H   0  0  0  0  0  0  0  0  0  0  0  0
    4.7894    1.3161   19.0684 C   0  0  0  0  0  0  0  0  0  0  0  0
    3.8690    1.8740   19.1907 H   0  0  0  0  0  0  0  0  0  0  0  0
    5.3739    0.6189   20.1281 C   0  0  0  0  0  0  0  0  0  0  0  0
    4.8947    0.5924   21.1095 H   0  0  0  0  0  0  0  0  0  0  0  0
    8.8413    2.7066   22.6612 C   0  0  0  0  0  0  0  0  0  0  0  0
    7.4372    3.0124   22.2256 C   0  0  0  0  0  0  0  0  0  0  0  0
    6.7283    2.3148   22.6940 H   0  0  0  0  0  0  0  0  0  0  0  0
    7.1599    4.0344   22.4982 H   0  0  0  0  0  0  0  0  0  0  0  0
    7.3305    2.8673   21.1464 H   0  0  0  0  0  0  0  0  0  0  0  0
    9.3955    3.3271   23.6991 N   0  0  0  0  0  0  0  0  0  0  0  0
   10.5891    2.7616   23.8680 N   0  0  0  0  0  0  0  0  0  0  0  0
   11.1848    3.0870   24.6204 H   0  0  0  0  0  0  0  0  0  0  0  0
  1  2  1  0
  2  3  1  0
  3  4  2  0
  3  5  1  0
  5  6  2  0
  6  7  1  0
  7  8  1  0
  7  9  1  0
  7 10  1  0
 10 11  2  0
 11 12  1  0
 12 13  1  0
 12 14  2  0
 14 15  1  0
 14 16  1  0
 16 17  2  0
 17 18  1  0
 18 19  2  0
 19 20  1  0
 19 21  1  0
 21 22  2  0
 22 23  1  0
 22 24  1  0
 24 25  1  0
 24 26  2  0
 26 27  1  0
  6 28  1  0
 28 29  1  0
 29 30  1  0
 29 31  1  0
 29 32  1  0
 28 33  2  0
 33 34  1  0
 34 35  1  0
 34  5  1  0
 17 10  1  0
 26 18  1  0
M  END
>  <cnnaffinity>  (1) 
-5.24207

>  <filename>  (1) 
Cc1n[nH]c(C(=O)O)c1Cc1nccnc1-c1cccnc1

$$$$
