
     RDKit          3D

 39 42  0  0  0  0  0  0  0  0999 V2000
    7.9240    2.1221   27.6841 H   0  0  0  0  0  0  0  0  0  0  0  0
    8.4771    2.5315   26.9939 O   0  0  0  0  0  0  0  0  0  0  0  0
    8.1405    1.7297   25.9771 C   0  0  0  0  0  0  0  0  0  0  0  0
    7.3438    0.8409   26.1895 O   0  0  0  0  0  0  0  0  0  0  0  0
    8.8376    2.0071   24.6927 C   0  0  0  0  0  0  0  0  0  0  0  0
    8.4608    1.6950   23.3947 C   0  0  0  0  0  0  0  0  0  0  0  0
    7.1873    1.0564   22.8917 C   0  0  0  0  0  0  0  0  0  0  0  0
    6.4951    0.9252   23.7332 H   0  0  0  0  0  0  0  0  0  0  0  0
    6.7089    1.7185   22.1619 H   0  0  0  0  0  0  0  0  0  0  0  0
    7.4037   -0.2688   22.2400 C   0  0  0  0  0  0  0  0  0  0  0  0
    7.1531   -0.7666   20.9674 C   0  0  0  0  0  0  0  0  0  0  0  0
    6.5067   -0.0758   19.8541 C   0  0  0  0  0  0  0  0  0  0  0  0
    7.0966   -0.1476   18.5804 C   0  0  0  0  0  0  0  0  0  0  0  0
    7.9977   -0.7394   18.4289 H   0  0  0  0  0  0  0  0  0  0  0  0
    6.6328    0.4975   17.5048 N   0  0  0  0  0  0  0  0  0  0  0  0
    5.5234    1.2376   17.6621 C   0  0  0  0  0  0  0  0  0  0  0  0
    5.1688    1.7696   16.7812 H   0  0  0  0  0  0  0  0  0  0  0  0
    4.8429    1.3628   18.8786 C   0  0  0  0  0  0  0  0  0  0  0  0
    3.9685    2.0027   18.9495 H   0  0  0  0  0  0  0  0  0  0  0  0
    5.3414    0.6959   19.9980 C   0  0  0  0  0  0  0  0  0  0  0  0
    4.8329    0.7717   20.9624 H   0  0  0  0  0  0  0  0  0  0  0  0
    7.6727   -2.0318   20.8187 N   0  0  0  0  0  0  0  0  0  0  0  0
    8.1674   -2.3054   21.9919 C   0  0  0  0  0  0  0  0  0  0  0  0
    8.0458   -1.2931   22.8840 N   0  0  0  0  0  0  0  0  0  0  0  0
    8.8142   -1.3399   24.1148 C   0  0  0  0  0  0  0  0  0  0  0  0
    8.1855   -1.0036   24.9462 H   0  0  0  0  0  0  0  0  0  0  0  0
    9.6774   -0.6711   24.0235 H   0  0  0  0  0  0  0  0  0  0  0  0
    9.2742   -2.8083   24.2736 C   0  0  0  0  0  0  0  0  0  0  0  0
    8.6956   -3.3192   25.0486 H   0  0  0  0  0  0  0  0  0  0  0  0
   10.3342   -2.8543   24.5429 H   0  0  0  0  0  0  0  0  0  0  0  0
    9.0254   -3.6740   22.6589 S   0  0  0  0  0  0  0  0  0  0  0  0
    9.5678    2.0786   22.5976 C   0  0  0  0  0  0  0  0  0  0  0  0
    9.7166    1.9455   21.1234 C   0  0  0  0  0  0  0  0  0  0  0  0
    9.5580    0.9098   20.8091 H   0  0  0  0  0  0  0  0  0  0  0  0
    8.9659    2.5662   20.6239 H   0  0  0  0  0  0  0  0  0  0  0  0
   10.7111    2.2645   20.8107 H   0  0  0  0  0  0  0  0  0  0  0  0
   10.5228    2.6243   23.3414 N   0  0  0  0  0  0  0  0  0  0  0  0
   10.0697    2.5809   24.5944 N   0  0  0  0  0  0  0  0  0  0  0  0
   10.6868    2.9257   25.3166 H   0  0  0  0  0  0  0  0  0  0  0  0
  1  2  1  0
  2  3  1  0
  3  4  2  0
  3  5  1  0
  5  6  2  0
  6  7  1  0
  7  8  1  0
  7  9  1  0
  7 10  1  0
 10 11  2  0
 11 12  1  0
 12 13  2  0
 13 14  1  0
 13 15  1  0
 15 16  2  0
 16 17  1  0
 16 18  1  0
 18 19  1  0
 18 20  2  0
 20 21  1  0
 11 22  1  0
 22 23  2  0
 23 24  1  0
 24 25  1  0
 25 26  1  0
 25 27  1  0
 25 28  1  0
 28 29  1  0
 28 30  1  0
 28 31  1  0
  6 32  1  0
 32 33  1  0
 33 34  1  0
 33 35  1  0
 33 36  1  0
 32 37  2  0
 37 38  1  0
 38 39  1  0
 38  5  1  0
 24 10  1  0
 20 12  1  0
 31 23  1  0
M  END
>  <cnnaffinity>  (1) 
-5.61641

>  <filename>  (1) 
Cc1n[nH]c(C(=O)O)c1Cc1c(-c2cccnc2)nc2n1CCS2

$$$$
