
     RDKit          3D

 34 37  0  0  0  0  0  0  0  0999 V2000
    4.9520    1.8134   16.9801 H   0  0  0  0  0  0  0  0  0  0  0  0
    5.4054    1.2964   17.8230 C   0  0  0  0  0  0  0  0  0  0  0  0
    6.5669    0.6683   17.5753 N   0  0  0  0  0  0  0  0  0  0  0  0
    7.1530    0.0279   18.5898 C   0  0  0  0  0  0  0  0  0  0  0  0
    8.1020   -0.4529   18.3552 H   0  0  0  0  0  0  0  0  0  0  0  0
    6.6239   -0.0126   19.8913 C   0  0  0  0  0  0  0  0  0  0  0  0
    7.3422   -0.6909   20.9671 C   0  0  0  0  0  0  0  0  0  0  0  0
    7.9767   -1.8365   20.7559 N   0  0  0  0  0  0  0  0  0  0  0  0
    8.4377   -2.1711   21.9632 N   0  0  0  0  0  0  0  0  0  0  0  0
    8.2093   -1.2930   22.9312 C   0  0  0  0  0  0  0  0  0  0  0  0
    7.4874   -0.2772   22.3265 C   0  0  0  0  0  0  0  0  0  0  0  0
    7.2273    0.9879   22.9412 C   0  0  0  0  0  0  0  0  0  0  0  0
    7.0408    1.0507   24.3057 N   0  0  0  0  0  0  0  0  0  0  0  0
    6.8726    2.2703   24.6941 C   0  0  0  0  0  0  0  0  0  0  0  0
    6.6711    2.6520   26.1219 C   0  0  0  0  0  0  0  0  0  0  0  0
    6.0429    3.5429   26.1873 H   0  0  0  0  0  0  0  0  0  0  0  0
    7.6446    2.8618   26.5831 H   0  0  0  0  0  0  0  0  0  0  0  0
    6.2124    1.8124   26.6515 H   0  0  0  0  0  0  0  0  0  0  0  0
    6.9684    3.4578   23.4142 S   0  0  0  0  0  0  0  0  0  0  0  0
    7.2423    2.1845   22.2915 C   0  0  0  0  0  0  0  0  0  0  0  0
    7.4296    2.3296   21.2376 H   0  0  0  0  0  0  0  0  0  0  0  0
    9.0558   -1.5756   24.1462 C   0  0  0  0  0  0  0  0  0  0  0  0
    9.7226   -0.7246   24.3287 H   0  0  0  0  0  0  0  0  0  0  0  0
    8.4278   -1.6762   25.0362 H   0  0  0  0  0  0  0  0  0  0  0  0
    9.8202   -2.8702   23.7386 C   0  0  0  0  0  0  0  0  0  0  0  0
   10.9014   -2.7505   23.8038 H   0  0  0  0  0  0  0  0  0  0  0  0
    9.5563   -3.7242   24.3657 H   0  0  0  0  0  0  0  0  0  0  0  0
    9.4398   -3.1541   22.2589 C   0  0  0  0  0  0  0  0  0  0  0  0
    9.0148   -4.1483   22.1087 H   0  0  0  0  0  0  0  0  0  0  0  0
   10.2747   -2.9641   21.5777 H   0  0  0  0  0  0  0  0  0  0  0  0
    5.4031    0.6370   20.1327 C   0  0  0  0  0  0  0  0  0  0  0  0
    4.9707    0.6440   21.1333 H   0  0  0  0  0  0  0  0  0  0  0  0
    4.7886    1.3037   19.0773 C   0  0  0  0  0  0  0  0  0  0  0  0
    3.8622    1.8464   19.2238 H   0  0  0  0  0  0  0  0  0  0  0  0
  1  2  1  0
  2  3  2  0
  3  4  1  0
  4  5  1  0
  4  6  2  0
  6  7  1  0
  7  8  2  0
  8  9  1  0
  9 10  1  0
 10 11  2  0
 11 12  1  0
 12 13  1  0
 13 14  2  0
 14 15  1  0
 15 16  1  0
 15 17  1  0
 15 18  1  0
 14 19  1  0
 19 20  1  0
 20 21  1  0
 10 22  1  0
 22 23  1  0
 22 24  1  0
 22 25  1  0
 25 26  1  0
 25 27  1  0
 25 28  1  0
 28 29  1  0
 28 30  1  0
  6 31  1  0
 31 32  1  0
 31 33  2  0
 33 34  1  0
 33  2  1  0
 11  7  1  0
 20 12  2  0
 28  9  1  0
M  END
>  <cnnaffinity>  (1) 
-5.57109

>  <filename>  (1) 
Cc1nc(-c2c(-c3cccnc3)nn3c2CCC3)cs1

$$$$
