
     RDKit          3D

 37 40  0  0  0  0  0  0  0  0999 V2000
   14.3404    0.3639   22.8173 H   0  0  0  0  0  0  0  0  0  0  0  0
   13.7534    1.1088   23.0384 O   0  0  0  0  0  0  0  0  0  0  0  0
   12.6775    0.5828   22.4337 C   0  0  0  0  0  0  0  0  0  0  0  0
   12.7943   -0.5171   21.9356 O   0  0  0  0  0  0  0  0  0  0  0  0
   11.4529    1.4064   22.5050 C   0  0  0  0  0  0  0  0  0  0  0  0
   10.2315    1.2841   21.8554 C   0  0  0  0  0  0  0  0  0  0  0  0
    9.7894    0.2809   20.8150 C   0  0  0  0  0  0  0  0  0  0  0  0
    9.4515    0.8015   19.9129 H   0  0  0  0  0  0  0  0  0  0  0  0
   10.6454   -0.3485   20.5407 H   0  0  0  0  0  0  0  0  0  0  0  0
    8.6793   -0.5973   21.2805 C   0  0  0  0  0  0  0  0  0  0  0  0
    7.3331   -0.7047   20.9667 C   0  0  0  0  0  0  0  0  0  0  0  0
    6.6252   -0.0044   19.9010 C   0  0  0  0  0  0  0  0  0  0  0  0
    7.1529    0.0449   18.6018 C   0  0  0  0  0  0  0  0  0  0  0  0
    8.1003   -0.4403   18.3666 H   0  0  0  0  0  0  0  0  0  0  0  0
    6.5554    0.6661   17.5773 N   0  0  0  0  0  0  0  0  0  0  0  0
    5.3992    1.2973   17.8264 C   0  0  0  0  0  0  0  0  0  0  0  0
    4.9355    1.8049   16.9818 H   0  0  0  0  0  0  0  0  0  0  0  0
    4.7894    1.3184   19.0863 C   0  0  0  0  0  0  0  0  0  0  0  0
    3.8591    1.8583   19.2286 H   0  0  0  0  0  0  0  0  0  0  0  0
    5.4097    0.6478   20.1381 C   0  0  0  0  0  0  0  0  0  0  0  0
    4.9722    0.6226   21.1378 H   0  0  0  0  0  0  0  0  0  0  0  0
    6.6751   -1.5652   21.8165 N   0  0  0  0  0  0  0  0  0  0  0  0
    7.6153   -1.9891   22.6196 C   0  0  0  0  0  0  0  0  0  0  0  0
    7.7196   -3.0515   24.0030 S   0  0  0  0  0  0  0  0  0  0  0  0
    9.4365   -2.6801   24.1634 C   0  0  0  0  0  0  0  0  0  0  0  0
    9.9974   -3.1411   24.9648 H   0  0  0  0  0  0  0  0  0  0  0  0
    9.8637   -1.8249   23.2151 C   0  0  0  0  0  0  0  0  0  0  0  0
   10.8537   -1.4188   23.0198 H   0  0  0  0  0  0  0  0  0  0  0  0
    8.8393   -1.4416   22.3569 N   0  0  0  0  0  0  0  0  0  0  0  0
    9.4246    2.3083   22.4141 C   0  0  0  0  0  0  0  0  0  0  0  0
    7.9901    2.6143   22.1156 C   0  0  0  0  0  0  0  0  0  0  0  0
    7.8171    2.6027   21.0340 H   0  0  0  0  0  0  0  0  0  0  0  0
    7.3415    1.8488   22.5596 H   0  0  0  0  0  0  0  0  0  0  0  0
    7.7125    3.5899   22.5193 H   0  0  0  0  0  0  0  0  0  0  0  0
   10.1047    3.0031   23.3205 N   0  0  0  0  0  0  0  0  0  0  0  0
   11.3162    2.4539   23.3586 N   0  0  0  0  0  0  0  0  0  0  0  0
   12.0092    2.8430   23.9812 H   0  0  0  0  0  0  0  0  0  0  0  0
  1  2  1  0
  2  3  1  0
  3  4  2  0
  3  5  1  0
  5  6  2  0
  6  7  1  0
  7  8  1  0
  7  9  1  0
  7 10  1  0
 10 11  2  0
 11 12  1  0
 12 13  2  0
 13 14  1  0
 13 15  1  0
 15 16  2  0
 16 17  1  0
 16 18  1  0
 18 19  1  0
 18 20  2  0
 20 21  1  0
 11 22  1  0
 22 23  2  0
 23 24  1  0
 24 25  1  0
 25 26  1  0
 25 27  2  0
 27 28  1  0
 27 29  1  0
  6 30  1  0
 30 31  1  0
 31 32  1  0
 31 33  1  0
 31 34  1  0
 30 35  2  0
 35 36  1  0
 36 37  1  0
 36  5  1  0
 29 10  1  0
 20 12  1  0
 29 23  1  0
M  END
>  <cnnaffinity>  (1) 
-5.76304

>  <filename>  (1) 
Cc1n[nH]c(C(=O)O)c1Cc1c(-c2cccnc2)nc2sccn12

$$$$
