
     RDKit          3D

 30 32  0  0  0  0  0  0  0  0999 V2000
    4.9123    1.7994   16.9818 H   0  0  0  0  0  0  0  0  0  0  0  0
    5.3853    1.3019   17.8249 C   0  0  0  0  0  0  0  0  0  0  0  0
    6.5441    0.6807   17.5539 N   0  0  0  0  0  0  0  0  0  0  0  0
    7.1516    0.0651   18.5736 C   0  0  0  0  0  0  0  0  0  0  0  0
    8.1101   -0.4096   18.3668 H   0  0  0  0  0  0  0  0  0  0  0  0
    6.6417    0.0015   19.8855 C   0  0  0  0  0  0  0  0  0  0  0  0
    7.3497   -0.7160   20.9615 C   0  0  0  0  0  0  0  0  0  0  0  0
    6.6942   -1.6453   21.7369 C   0  0  0  0  0  0  0  0  0  0  0  0
    5.6407   -1.8218   21.5235 H   0  0  0  0  0  0  0  0  0  0  0  0
    7.3429   -2.3717   22.7807 C   0  0  0  0  0  0  0  0  0  0  0  0
    6.6200   -3.3858   23.5862 C   0  0  0  0  0  0  0  0  0  0  0  0
    7.1888   -3.8762   24.7487 N   0  0  0  0  0  0  0  0  0  0  0  0
    6.4253   -4.7541   25.3123 C   0  0  0  0  0  0  0  0  0  0  0  0
    6.7810   -5.4891   26.5638 C   0  0  0  0  0  0  0  0  0  0  0  0
    7.2908   -6.4241   26.3072 H   0  0  0  0  0  0  0  0  0  0  0  0
    5.8909   -5.7324   27.1453 H   0  0  0  0  0  0  0  0  0  0  0  0
    7.4661   -4.8823   27.1584 H   0  0  0  0  0  0  0  0  0  0  0  0
    4.9449   -5.0741   24.4573 S   0  0  0  0  0  0  0  0  0  0  0  0
    5.4120   -3.9264   23.2693 C   0  0  0  0  0  0  0  0  0  0  0  0
    4.8003   -3.7155   22.4068 H   0  0  0  0  0  0  0  0  0  0  0  0
    8.6657   -2.1053   23.0311 C   0  0  0  0  0  0  0  0  0  0  0  0
    9.2418   -2.5989   23.8116 H   0  0  0  0  0  0  0  0  0  0  0  0
    9.3035   -1.1768   22.2764 N   0  0  0  0  0  0  0  0  0  0  0  0
   10.2648   -0.8896   22.3768 H   0  0  0  0  0  0  0  0  0  0  0  0
    8.7652   -0.4204   21.2367 C   0  0  0  0  0  0  0  0  0  0  0  0
    9.5241    0.3731   20.7015 O   0  0  0  0  0  0  0  0  0  0  0  0
    5.4214    0.6446   20.1394 C   0  0  0  0  0  0  0  0  0  0  0  0
    5.0105    0.6339   21.1520 H   0  0  0  0  0  0  0  0  0  0  0  0
    4.7945    1.3190   19.0936 C   0  0  0  0  0  0  0  0  0  0  0  0
    3.8666    1.8530   19.2457 H   0  0  0  0  0  0  0  0  0  0  0  0
  1  2  1  0
  2  3  2  0
  3  4  1  0
  4  5  1  0
  4  6  2  0
  6  7  1  0
  7  8  2  0
  8  9  1  0
  8 10  1  0
 10 11  1  0
 11 12  1  0
 12 13  2  0
 13 14  1  0
 14 15  1  0
 14 16  1  0
 14 17  1  0
 13 18  1  0
 18 19  1  0
 19 20  1  0
 10 21  2  0
 21 22  1  0
 21 23  1  0
 23 24  1  0
 23 25  1  0
 25 26  2  0
  6 27  1  0
 27 28  1  0
 27 29  2  0
 29 30  1  0
 29  2  1  0
 25  7  1  0
 19 11  2  0
M  END
>  <cnnaffinity>  (1) 
-5.43262

>  <filename>  (1) 
Cc1nc(-c2c[nH]c(=O)c(-c3cccnc3)c2)cs1

$$$$
