
     RDKit          3D

 34 37  0  0  0  0  0  0  0  0999 V2000
    5.0461    1.8113   16.9025 H   0  0  0  0  0  0  0  0  0  0  0  0
    5.4099    1.2940   17.7895 C   0  0  0  0  0  0  0  0  0  0  0  0
    6.5568    0.6123   17.6471 N   0  0  0  0  0  0  0  0  0  0  0  0
    7.0437    0.0072   18.7361 C   0  0  0  0  0  0  0  0  0  0  0  0
    7.9609   -0.5629   18.5937 H   0  0  0  0  0  0  0  0  0  0  0  0
    6.4409    0.0287   20.0066 C   0  0  0  0  0  0  0  0  0  0  0  0
    7.2084   -0.5459   21.1276 C   0  0  0  0  0  0  0  0  0  0  0  0
    8.5690   -0.4860   21.3572 C   0  0  0  0  0  0  0  0  0  0  0  0
    8.7814   -1.1096   22.5779 C   0  0  0  0  0  0  0  0  0  0  0  0
    7.6715   -1.5873   23.1066 N   0  0  0  0  0  0  0  0  0  0  0  0
    6.7164   -1.2139   22.2121 N   0  0  0  0  0  0  0  0  0  0  0  0
    5.7815   -1.5866   22.3215 H   0  0  0  0  0  0  0  0  0  0  0  0
   10.2350   -1.1544   22.9579 C   0  0  0  0  0  0  0  0  0  0  0  0
   10.4074   -0.7956   23.9779 H   0  0  0  0  0  0  0  0  0  0  0  0
   10.6080   -2.1834   22.9180 H   0  0  0  0  0  0  0  0  0  0  0  0
   10.9309   -0.2746   21.8438 C   0  0  2  0  0  0  0  0  0  0  0  0
   11.8308   -0.7756   21.4760 H   0  0  0  0  0  0  0  0  0  0  0  0
   11.3887    1.0742   22.3243 C   0  0  0  0  0  0  0  0  0  0  0  0
   12.6958    1.5046   22.1873 N   0  0  0  0  0  0  0  0  0  0  0  0
   12.8192    2.7382   22.5829 C   0  0  0  0  0  0  0  0  0  0  0  0
   14.0546    3.5838   22.5474 C   0  0  0  0  0  0  0  0  0  0  0  0
   13.9795    4.3401   21.7584 H   0  0  0  0  0  0  0  0  0  0  0  0
   14.9276    2.9665   22.3492 H   0  0  0  0  0  0  0  0  0  0  0  0
   14.2243    4.1021   23.4916 H   0  0  0  0  0  0  0  0  0  0  0  0
   11.3525    3.4467   23.1990 S   0  0  0  0  0  0  0  0  0  0  0  0
   10.5338    1.9790   22.8636 C   0  0  0  0  0  0  0  0  0  0  0  0
    9.4881    1.8144   23.0698 H   0  0  0  0  0  0  0  0  0  0  0  0
    9.8541   -0.1150   20.7028 C   0  0  0  0  0  0  0  0  0  0  0  0
    9.8206    0.8816   20.2477 H   0  0  0  0  0  0  0  0  0  0  0  0
   10.0716   -0.8124   19.8958 H   0  0  0  0  0  0  0  0  0  0  0  0
    5.2018    0.6868   20.1155 C   0  0  0  0  0  0  0  0  0  0  0  0
    4.6527    0.6971   21.0566 H   0  0  0  0  0  0  0  0  0  0  0  0
    4.6941    1.3424   18.9906 C   0  0  0  0  0  0  0  0  0  0  0  0
    3.7690    1.9069   19.0298 H   0  0  0  0  0  0  0  0  0  0  0  0
  1  2  1  0
  2  3  2  0
  3  4  1  0
  4  5  1  0
  4  6  2  0
  6  7  1  0
  7  8  2  0
  8  9  1  0
  9 10  2  0
 10 11  1  0
 11 12  1  0
  9 13  1  0
 13 14  1  0
 13 15  1  0
 13 16  1  0
 16 17  1  6
 16 18  1  0
 18 19  1  0
 19 20  2  0
 20 21  1  0
 21 22  1  0
 21 23  1  0
 21 24  1  0
 20 25  1  0
 25 26  1  0
 26 27  1  0
 16 28  1  0
 28 29  1  0
 28 30  1  0
  6 31  1  0
 31 32  1  0
 31 33  2  0
 33 34  1  0
 33  2  1  0
 11  7  1  0
 26 18  2  0
 28  8  1  0
M  END
>  <cnnaffinity>  (1) 
-5.62688

>  <filename>  (1) 
Cc1nc([C@H]2Cc3n[nH]c(-c4cccnc4)c3C2)cs1

$$$$
