
     RDKit          3D

 30 33  0  0  0  0  0  0  0  0999 V2000
    4.9316    1.8047   16.9740 H   0  0  0  0  0  0  0  0  0  0  0  0
    5.4043    1.2948   17.8143 C   0  0  0  0  0  0  0  0  0  0  0  0
    6.5663    0.6727   17.5616 N   0  0  0  0  0  0  0  0  0  0  0  0
    7.1818    0.0526   18.5750 C   0  0  0  0  0  0  0  0  0  0  0  0
    8.1297   -0.4219   18.3274 H   0  0  0  0  0  0  0  0  0  0  0  0
    6.6701    0.0027   19.8861 C   0  0  0  0  0  0  0  0  0  0  0  0
    7.3819   -0.7014   20.9697 C   0  0  0  0  0  0  0  0  0  0  0  0
    8.5475   -1.3358   20.7580 N   0  0  0  0  0  0  0  0  0  0  0  0
    8.8308   -1.8334   21.9770 N   0  0  0  0  0  0  0  0  0  0  0  0
    9.8660   -2.5866   22.5106 C   0  0  0  0  0  0  0  0  0  0  0  0
   10.6973   -2.8622   21.8898 H   0  0  0  0  0  0  0  0  0  0  0  0
    9.5656   -2.7786   23.8158 C   0  0  0  0  0  0  0  0  0  0  0  0
   10.0971   -3.3165   24.5891 H   0  0  0  0  0  0  0  0  0  0  0  0
    8.3485   -2.1327   24.0932 N   0  0  0  0  0  0  0  0  0  0  0  0
    7.6879   -2.0743   25.2984 C   0  0  0  0  0  0  0  0  0  0  0  0
    8.0358   -2.6136   26.4172 N   0  0  0  0  0  0  0  0  0  0  0  0
    7.0336   -2.2788   27.3148 N   0  0  0  0  0  0  0  0  0  0  0  0
    6.1712   -1.5681   26.6820 C   0  0  0  0  0  0  0  0  0  0  0  0
    4.9362   -0.9645   27.2491 C   0  0  0  0  0  0  0  0  0  0  0  0
    4.1740   -0.7704   26.4928 H   0  0  0  0  0  0  0  0  0  0  0  0
    4.5439   -1.6478   28.0040 H   0  0  0  0  0  0  0  0  0  0  0  0
    5.1739   -0.0264   27.7614 H   0  0  0  0  0  0  0  0  0  0  0  0
    6.5139   -1.3848   25.3762 O   0  0  0  0  0  0  0  0  0  0  0  0
    7.9096   -1.5459   22.9142 C   0  0  0  0  0  0  0  0  0  0  0  0
    6.9325   -0.7939   22.3065 C   0  0  0  0  0  0  0  0  0  0  0  0
    6.0471   -0.3545   22.7242 H   0  0  0  0  0  0  0  0  0  0  0  0
    5.4487    0.6549   20.1255 C   0  0  0  0  0  0  0  0  0  0  0  0
    5.0018    0.6569   21.1189 H   0  0  0  0  0  0  0  0  0  0  0  0
    4.8086    1.3108   19.0790 C   0  0  0  0  0  0  0  0  0  0  0  0
    3.8748    1.8406   19.2356 H   0  0  0  0  0  0  0  0  0  0  0  0
  1  2  1  0
  2  3  2  0
  3  4  1  0
  4  5  1  0
  4  6  2  0
  6  7  1  0
  7  8  2  0
  8  9  1  0
  9 10  1  0
 10 11  1  0
 10 12  2  0
 12 13  1  0
 12 14  1  0
 14 15  1  0
 15 16  2  0
 16 17  1  0
 17 18  2  0
 18 19  1  0
 19 20  1  0
 19 21  1  0
 19 22  1  0
 18 23  1  0
 14 24  1  0
 24 25  2  0
 25 26  1  0
  6 27  1  0
 27 28  1  0
 27 29  2  0
 29 30  1  0
 29  2  1  0
 25  7  1  0
 24  9  1  0
 23 15  1  0
M  END
>  <cnnaffinity>  (1) 
-5.34541

>  <filename>  (1) 
Cc1nnc(-n2ccn3nc(-c4cccnc4)cc23)o1

$$$$
