
     RDKit          3D

 34 35  0  0  0  0  0  0  0  0999 V2000
    5.6153   -4.3442   26.6719 H   0  0  0  0  0  0  0  0  0  0  0  0
    6.5769   -4.5019   26.6294 O   0  0  0  0  0  0  0  0  0  0  0  0
    6.7863   -3.9435   25.4277 C   0  0  0  0  0  0  0  0  0  0  0  0
    5.8373   -3.4916   24.8255 O   0  0  0  0  0  0  0  0  0  0  0  0
    8.1939   -3.9101   24.9710 C   0  0  0  0  0  0  0  0  0  0  0  0
    8.6941   -3.3023   23.8279 C   0  0  0  0  0  0  0  0  0  0  0  0
    7.9956   -2.5961   22.7217 C   0  0  0  0  0  0  0  0  0  0  0  0
    6.9549   -2.9465   22.6444 H   0  0  0  0  0  0  0  0  0  0  0  0
    8.4712   -2.8146   21.7543 H   0  0  0  0  0  0  0  0  0  0  0  0
    8.0980   -1.1462   22.9361 N   0  0  0  0  0  0  0  0  0  0  0  0
    7.6471   -0.8001   23.7682 H   0  0  0  0  0  0  0  0  0  0  0  0
    7.5673   -0.3283   21.9837 C   0  0  0  0  0  0  0  0  0  0  0  0
    7.3964   -0.7062   20.7926 N   0  0  0  0  0  0  0  0  0  0  0  0
    6.7018    0.0390   19.8305 C   0  0  0  0  0  0  0  0  0  0  0  0
    7.2060    0.0777   18.5068 C   0  0  0  0  0  0  0  0  0  0  0  0
    8.1353   -0.4519   18.2959 H   0  0  0  0  0  0  0  0  0  0  0  0
    6.6154    0.7227   17.4956 N   0  0  0  0  0  0  0  0  0  0  0  0
    5.4539    1.3530   17.7597 C   0  0  0  0  0  0  0  0  0  0  0  0
    4.9956    1.8807   16.9292 H   0  0  0  0  0  0  0  0  0  0  0  0
    4.8403    1.3344   19.0148 C   0  0  0  0  0  0  0  0  0  0  0  0
    3.9104    1.8652   19.1772 H   0  0  0  0  0  0  0  0  0  0  0  0
    5.4661    0.6559   20.0676 C   0  0  0  0  0  0  0  0  0  0  0  0
    5.0223    0.5827   21.0609 H   0  0  0  0  0  0  0  0  0  0  0  0
    7.3114    0.8768   22.6072 N   0  0  0  0  0  0  0  0  0  0  0  0
    7.1496    1.5868   21.9089 H   0  0  0  0  0  0  0  0  0  0  0  0
    8.1679    1.0651   23.1050 H   0  0  0  0  0  0  0  0  0  0  0  0
   10.0923   -3.3509   23.9621 C   0  0  0  0  0  0  0  0  0  0  0  0
   11.0851   -2.7544   23.0260 C   0  0  0  0  0  0  0  0  0  0  0  0
   10.7604   -2.8534   21.9922 H   0  0  0  0  0  0  0  0  0  0  0  0
   11.1616   -1.6818   23.2132 H   0  0  0  0  0  0  0  0  0  0  0  0
   12.0618   -3.2176   23.1281 H   0  0  0  0  0  0  0  0  0  0  0  0
   10.4367   -3.9892   25.0727 N   0  0  0  0  0  0  0  0  0  0  0  0
    9.2907   -4.3142   25.6780 N   0  0  0  0  0  0  0  0  0  0  0  0
    9.3330   -4.8200   26.5564 H   0  0  0  0  0  0  0  0  0  0  0  0
  1  2  1  0
  2  3  1  0
  3  4  2  0
  3  5  1  0
  5  6  2  0
  6  7  1  0
  7  8  1  0
  7  9  1  0
  7 10  1  0
 10 11  1  0
 10 12  1  0
 12 13  2  3
 13 14  1  0
 14 15  2  0
 15 16  1  0
 15 17  1  0
 17 18  2  0
 18 19  1  0
 18 20  1  0
 20 21  1  0
 20 22  2  0
 22 23  1  0
 12 24  1  0
 24 25  1  0
 24 26  1  0
  6 27  1  0
 27 28  1  0
 28 29  1  0
 28 30  1  0
 28 31  1  0
 27 32  2  0
 32 33  1  0
 33 34  1  0
 33  5  1  0
 22 14  1  0
M  END
>  <cnnaffinity>  (1) 
-4.9393

>  <filename>  (1) 
Cc1n[nH]c(C(=O)O)c1CNC(N)=Nc1cccnc1

$$$$
