
     RDKit          3D

 33 35  0  0  0  0  0  0  0  0999 V2000
    7.6500    3.1047   21.7922 H   0  0  0  0  0  0  0  0  0  0  0  0
    8.2664    2.3858   21.5619 O   0  0  0  0  0  0  0  0  0  0  0  0
    9.2557    2.7132   22.4077 C   0  0  0  0  0  0  0  0  0  0  0  0
    9.1136    3.6594   23.1472 O   0  0  0  0  0  0  0  0  0  0  0  0
   10.4418    1.8397   22.3636 C   0  0  0  0  0  0  0  0  0  0  0  0
   10.7270    0.7061   21.6204 C   0  0  0  0  0  0  0  0  0  0  0  0
    9.7819    0.0301   20.6748 C   0  0  0  0  0  0  0  0  0  0  0  0
   10.3111   -0.7030   20.0717 H   0  0  0  0  0  0  0  0  0  0  0  0
    9.3576    0.7564   19.9840 H   0  0  0  0  0  0  0  0  0  0  0  0
    8.6676   -0.7090   21.3480 C   0  0  0  0  0  0  0  0  0  0  0  0
    8.9230   -1.5440   22.3307 N   0  0  0  0  0  0  0  0  0  0  0  0
    7.7123   -2.0727   22.7013 O   0  0  0  0  0  0  0  0  0  0  0  0
    6.7517   -1.5655   21.9214 C   0  0  0  0  0  0  0  0  0  0  0  0
    5.7560   -1.9405   22.1181 H   0  0  0  0  0  0  0  0  0  0  0  0
    7.2750   -0.7099   20.9993 C   0  0  0  0  0  0  0  0  0  0  0  0
    6.6069    0.0166   19.8807 C   0  0  0  0  0  0  0  0  0  0  0  0
    7.1200    0.0648   18.5597 C   0  0  0  0  0  0  0  0  0  0  0  0
    8.0685   -0.4248   18.3293 H   0  0  0  0  0  0  0  0  0  0  0  0
    6.5259    0.6847   17.5292 N   0  0  0  0  0  0  0  0  0  0  0  0
    5.3734    1.3231   17.7911 C   0  0  0  0  0  0  0  0  0  0  0  0
    4.9124    1.8405   16.9526 H   0  0  0  0  0  0  0  0  0  0  0  0
    4.7690    1.3429   19.0511 C   0  0  0  0  0  0  0  0  0  0  0  0
    3.8367    1.8797   19.1934 H   0  0  0  0  0  0  0  0  0  0  0  0
    5.3948    0.6777   20.1086 C   0  0  0  0  0  0  0  0  0  0  0  0
    4.9746    0.6852   21.1144 H   0  0  0  0  0  0  0  0  0  0  0  0
   11.9499    0.2298   22.1416 C   0  0  0  0  0  0  0  0  0  0  0  0
   12.6053   -1.0697   21.7934 C   0  0  0  0  0  0  0  0  0  0  0  0
   13.5666   -1.1543   22.3014 H   0  0  0  0  0  0  0  0  0  0  0  0
   11.9462   -1.8894   22.1023 H   0  0  0  0  0  0  0  0  0  0  0  0
   12.7506   -1.1810   20.7109 H   0  0  0  0  0  0  0  0  0  0  0  0
   12.4031    1.0370   23.0947 N   0  0  0  0  0  0  0  0  0  0  0  0
   11.4934    2.0059   23.2106 N   0  0  0  0  0  0  0  0  0  0  0  0
   11.6276    2.6971   23.9437 H   0  0  0  0  0  0  0  0  0  0  0  0
  1  2  1  0
  2  3  1  0
  3  4  2  0
  3  5  1  0
  5  6  2  0
  6  7  1  0
  7  8  1  0
  7  9  1  0
  7 10  1  0
 10 11  2  0
 11 12  1  0
 12 13  1  0
 13 14  1  0
 13 15  2  0
 15 16  1  0
 16 17  2  0
 17 18  1  0
 17 19  1  0
 19 20  2  0
 20 21  1  0
 20 22  1  0
 22 23  1  0
 22 24  2  0
 24 25  1  0
  6 26  1  0
 26 27  1  0
 27 28  1  0
 27 29  1  0
 27 30  1  0
 26 31  2  0
 31 32  1  0
 32 33  1  0
 32  5  1  0
 15 10  1  0
 24 16  1  0
M  END
>  <cnnaffinity>  (1) 
-5.27253

>  <filename>  (1) 
Cc1n[nH]c(C(=O)O)c1Cc1nocc1-c1cccnc1

$$$$
