
     RDKit          3D

 33 35  0  0  0  0  0  0  0  0999 V2000
   10.9185   -1.3222   21.8255 C   0  0  0  0  0  0  0  0  0  0  0  0
    9.4256   -1.3337   21.8643 C   0  0  0  0  0  0  0  0  0  0  0  0
    8.8589   -2.0134   22.8675 N   0  0  0  0  0  0  0  0  0  0  0  0
    7.5303   -2.0133   22.9119 C   0  0  0  0  0  0  0  0  0  0  0  0
    6.7185   -2.8159   24.2860 S   0  0  0  0  0  0  0  0  0  0  0  0
    6.6230   -1.4140   25.3968 C   0  0  0  0  0  0  0  0  0  0  0  0
    7.7034   -1.1260   26.2502 C   0  0  0  0  0  0  0  0  0  0  0  0
    7.6818    0.0268   27.0494 C   0  0  0  0  0  0  0  0  0  0  0  0
    6.5974    0.9140   26.9812 C   0  0  0  0  0  0  0  0  0  0  0  0
    5.5280    0.6040   26.1361 C   0  0  0  0  0  0  0  0  0  0  0  0
    4.1677    1.6777   25.9914 Cl  0  0  0  0  0  0  0  0  0  0  0  0
    5.5068   -0.5683   25.3860 C   0  0  0  0  0  0  0  0  0  0  0  0
    4.5915   -0.7984   24.8568 H   0  0  0  0  0  0  0  0  0  0  0  0
    6.5538    1.8181   27.5837 H   0  0  0  0  0  0  0  0  0  0  0  0
    8.5176    0.2425   27.7150 H   0  0  0  0  0  0  0  0  0  0  0  0
    8.5532   -1.8041   26.2671 H   0  0  0  0  0  0  0  0  0  0  0  0
    6.7673   -1.3927   21.9364 C   0  0  0  0  0  0  0  0  0  0  0  0
    7.4521   -0.7067   20.9448 C   0  0  0  0  0  0  0  0  0  0  0  0
    6.6934    0.0209   19.9117 C   0  0  0  0  0  0  0  0  0  0  0  0
    5.4619    0.6520   20.1673 C   0  0  0  0  0  0  0  0  0  0  0  0
    4.8212    1.3007   19.1141 C   0  0  0  0  0  0  0  0  0  0  0  0
    5.4156    1.2756   17.8475 C   0  0  0  0  0  0  0  0  0  0  0  0
    6.5760    0.6564   17.5883 N   0  0  0  0  0  0  0  0  0  0  0  0
    7.1992    0.0593   18.6074 C   0  0  0  0  0  0  0  0  0  0  0  0
    8.1454   -0.4224   18.3698 H   0  0  0  0  0  0  0  0  0  0  0  0
    4.9481    1.7777   17.0050 H   0  0  0  0  0  0  0  0  0  0  0  0
    3.8835    1.8297   19.2556 H   0  0  0  0  0  0  0  0  0  0  0  0
    5.0088    0.6546   21.1630 H   0  0  0  0  0  0  0  0  0  0  0  0
    8.7844   -0.7023   20.8863 N   0  0  0  0  0  0  0  0  0  0  0  0
    5.6974   -1.4500   21.9140 H   0  0  0  0  0  0  0  0  0  0  0  0
   11.2954   -1.4000   22.8495 H   0  0  0  0  0  0  0  0  0  0  0  0
   11.2589   -0.4110   21.3253 H   0  0  0  0  0  0  0  0  0  0  0  0
   11.2416   -2.2005   21.2582 H   0  0  0  0  0  0  0  0  0  0  0  0
  1  2  1  0
  2  3  2  0
  3  4  1  0
  4  5  1  0
  5  6  1  0
  6  7  2  0
  7  8  1  0
  8  9  2  0
  9 10  1  0
 10 11  1  0
 10 12  2  0
 12 13  1  0
  9 14  1  0
  8 15  1  0
  7 16  1  0
  4 17  2  0
 17 18  1  0
 18 19  1  0
 19 20  2  0
 20 21  1  0
 21 22  2  0
 22 23  1  0
 23 24  2  0
 24 25  1  0
 22 26  1  0
 21 27  1  0
 20 28  1  0
 18 29  2  0
 17 30  1  0
  1 31  1  0
  1 32  1  0
  1 33  1  0
 29  2  1  0
 12  6  1  0
 24 19  1  0
M  END
>  <cnnaffinity>  (1) 
-5.35247

>  <filename>  (1) 
Cc1nc(Sc2cccc(Cl)c2)cc(-c2cccnc2)n1

$$$$
