
     RDKit          3D

 28 30  0  0  0  0  0  0  0  0999 V2000
    4.9356    1.7964   16.9974 H   0  0  0  0  0  0  0  0  0  0  0  0
    5.3984    1.2887   17.8371 C   0  0  0  0  0  0  0  0  0  0  0  0
    6.5529    0.6576   17.5732 N   0  0  0  0  0  0  0  0  0  0  0  0
    7.1729    0.0400   18.5844 C   0  0  0  0  0  0  0  0  0  0  0  0
    8.1253   -0.4324   18.3568 H   0  0  0  0  0  0  0  0  0  0  0  0
    6.6545   -0.0035   19.8952 C   0  0  0  0  0  0  0  0  0  0  0  0
    7.3355   -0.6842   20.9514 N   0  0  0  0  0  0  0  0  0  0  0  0
    6.7365   -1.6019   21.8000 C   0  0  0  0  0  0  0  0  0  0  0  0
    5.6818   -1.8031   21.6858 H   0  0  0  0  0  0  0  0  0  0  0  0
    7.6767   -2.0690   22.6742 C   0  0  0  0  0  0  0  0  0  0  0  0
    7.5491   -3.0185   23.7842 C   0  0  0  0  0  0  0  0  0  0  0  0
    8.6251   -3.3715   24.5863 N   0  0  0  0  0  0  0  0  0  0  0  0
    8.2677   -4.2305   25.4863 C   0  0  0  0  0  0  0  0  0  0  0  0
    9.2133   -4.8352   26.4733 C   0  0  0  0  0  0  0  0  0  0  0  0
   10.0447   -4.1423   26.6305 H   0  0  0  0  0  0  0  0  0  0  0  0
    9.6194   -5.7712   26.0655 H   0  0  0  0  0  0  0  0  0  0  0  0
    8.7037   -5.0515   27.4172 H   0  0  0  0  0  0  0  0  0  0  0  0
    6.5807   -4.6830   25.4387 S   0  0  0  0  0  0  0  0  0  0  0  0
    6.3747   -3.6282   24.1083 C   0  0  0  0  0  0  0  0  0  0  0  0
    5.4347   -3.4673   23.6083 H   0  0  0  0  0  0  0  0  0  0  0  0
    8.8489   -1.3991   22.3162 N   0  0  0  0  0  0  0  0  0  0  0  0
    9.7685   -1.4366   22.7322 H   0  0  0  0  0  0  0  0  0  0  0  0
    8.6597   -0.5117   21.3119 C   0  0  0  0  0  0  0  0  0  0  0  0
    9.8047    0.5491   20.7695 S   0  0  0  0  0  0  0  0  0  0  0  0
    5.4425    0.6439   20.1579 C   0  0  0  0  0  0  0  0  0  0  0  0
    5.0385    0.6323   21.1735 H   0  0  0  0  0  0  0  0  0  0  0  0
    4.8081    1.3089   19.1062 C   0  0  0  0  0  0  0  0  0  0  0  0
    3.8779    1.8432   19.2579 H   0  0  0  0  0  0  0  0  0  0  0  0
  1  2  1  0
  2  3  2  0
  3  4  1  0
  4  5  1  0
  4  6  2  0
  6  7  1  0
  7  8  1  0
  8  9  1  0
  8 10  2  0
 10 11  1  0
 11 12  1  0
 12 13  2  0
 13 14  1  0
 14 15  1  0
 14 16  1  0
 14 17  1  0
 13 18  1  0
 18 19  1  0
 19 20  1  0
 10 21  1  0
 21 22  1  0
 21 23  1  0
 23 24  2  0
  6 25  1  0
 25 26  1  0
 25 27  2  0
 27 28  1  0
 27  2  1  0
 23  7  1  0
 19 11  2  0
M  END
>  <cnnaffinity>  (1) 
-5.49597

>  <filename>  (1) 
Cc1nc(-c2cn(-c3cccnc3)c(=S)[nH]2)cs1

$$$$
