
     RDKit          3D

 40 43  0  0  0  0  0  0  0  0999 V2000
    8.1641   -0.2061   27.9923 C   0  0  0  0  0  0  0  0  0  0  0  0
    7.8582    0.2192   26.6021 C   0  0  0  0  0  0  0  0  0  0  0  0
    8.1605   -0.5589   25.5835 N   0  0  0  0  0  0  0  0  0  0  0  0
    7.6296    0.0486   24.4735 N   0  0  0  0  0  0  0  0  0  0  0  0
    7.7632   -0.5585   23.1935 C   0  0  0  0  0  0  0  0  0  0  0  0
    8.5793   -1.7033   23.0589 C   0  0  0  0  0  0  0  0  0  0  0  0
    8.9250   -2.1111   21.7791 C   0  0  0  0  0  0  0  0  0  0  0  0
    8.3833   -1.4291   20.6832 C   0  0  0  0  0  0  0  0  0  0  0  0
    7.4314   -0.4314   20.9124 C   0  0  0  0  0  0  0  0  0  0  0  0
    6.6649    0.2024   19.8097 C   0  0  0  0  0  0  0  0  0  0  0  0
    5.3892    0.7541   20.0184 C   0  0  0  0  0  0  0  0  0  0  0  0
    4.7411    1.3693   18.9527 C   0  0  0  0  0  0  0  0  0  0  0  0
    5.3697    1.3879   17.7030 C   0  0  0  0  0  0  0  0  0  0  0  0
    6.5666    0.8293   17.4741 N   0  0  0  0  0  0  0  0  0  0  0  0
    7.1925    0.2647   18.5112 C   0  0  0  0  0  0  0  0  0  0  0  0
    8.1764   -0.1427   18.2774 H   0  0  0  0  0  0  0  0  0  0  0  0
    4.8986    1.8788   16.8551 H   0  0  0  0  0  0  0  0  0  0  0  0
    3.7772    1.8453   19.0838 H   0  0  0  0  0  0  0  0  0  0  0  0
    4.9160    0.6878   21.0002 H   0  0  0  0  0  0  0  0  0  0  0  0
    7.1399   -0.0008   22.1516 N   0  0  0  0  0  0  0  0  0  0  0  0
    8.6674   -1.6701   19.6713 H   0  0  0  0  0  0  0  0  0  0  0  0
    9.6233   -2.9393   21.6447 H   0  0  0  0  0  0  0  0  0  0  0  0
    8.9297   -2.2086   23.9517 H   0  0  0  0  0  0  0  0  0  0  0  0
    7.0359    1.2355   24.8301 C   0  0  0  0  0  0  0  0  0  0  0  0
    7.1296    1.3534   26.1956 C   0  0  0  0  0  0  0  0  0  0  0  0
    6.4641    2.4497   26.9936 C   0  0  0  0  0  0  0  0  0  0  0  0
    5.4103    3.1791   26.1365 C   0  0  0  0  0  0  0  0  0  0  0  0
    5.9476    3.4936   24.7238 C   0  0  0  0  0  0  0  0  0  0  0  0
    6.3040    2.2006   23.9509 C   0  0  0  0  0  0  0  0  0  0  0  0
    6.8879    2.4068   23.0473 H   0  0  0  0  0  0  0  0  0  0  0  0
    5.3830    1.6954   23.6204 H   0  0  0  0  0  0  0  0  0  0  0  0
    5.2061    4.0610   24.1498 H   0  0  0  0  0  0  0  0  0  0  0  0
    6.8325    4.1421   24.8270 H   0  0  0  0  0  0  0  0  0  0  0  0
    4.5244    2.5363   26.0430 H   0  0  0  0  0  0  0  0  0  0  0  0
    5.0770    4.0952   26.6411 H   0  0  0  0  0  0  0  0  0  0  0  0
    5.9934    2.0465   27.9004 H   0  0  0  0  0  0  0  0  0  0  0  0
    7.2099    3.1722   27.3563 H   0  0  0  0  0  0  0  0  0  0  0  0
    8.6982    0.5510   28.5661 H   0  0  0  0  0  0  0  0  0  0  0  0
    8.7577   -1.1228   27.9913 H   0  0  0  0  0  0  0  0  0  0  0  0
    7.2045   -0.3697   28.4971 H   0  0  0  0  0  0  0  0  0  0  0  0
  1  2  1  0
  2  3  2  0
  3  4  1  0
  4  5  1  0
  5  6  2  0
  6  7  1  0
  7  8  2  0
  8  9  1  0
  9 10  1  0
 10 11  2  0
 11 12  1  0
 12 13  2  0
 13 14  1  0
 14 15  2  0
 15 16  1  0
 13 17  1  0
 12 18  1  0
 11 19  1  0
  9 20  2  0
  8 21  1  0
  7 22  1  0
  6 23  1  0
  4 24  1  0
 24 25  2  0
 25 26  1  0
 26 27  1  0
 27 28  1  0
 28 29  1  0
 29 30  1  0
 29 31  1  0
 28 32  1  0
 28 33  1  0
 27 34  1  0
 27 35  1  0
 26 36  1  0
 26 37  1  0
  1 38  1  0
  1 39  1  0
  1 40  1  0
 25  2  1  0
 20  5  1  0
 29 24  1  0
 15 10  1  0
M  END
>  <cnnaffinity>  (1) 
-5.34587

>  <filename>  (1) 
Cc1nn(-c2cccc(-c3cccnc3)n2)c2c1CCCC2

$$$$
