
     RDKit          3D

 35 38  0  0  0  0  0  0  0  0999 V2000
    4.3591   -2.9045   27.6943 H   0  0  0  0  0  0  0  0  0  0  0  0
    3.8108   -2.2072   27.2953 O   0  0  0  0  0  0  0  0  0  0  0  0
    4.8054   -1.4050   26.8703 C   0  0  0  0  0  0  0  0  0  0  0  0
    5.9500   -1.7339   27.0717 O   0  0  0  0  0  0  0  0  0  0  0  0
    4.3276   -0.1846   26.1878 C   0  0  0  0  0  0  0  0  0  0  0  0
    5.0513    0.8578   25.6270 C   0  0  0  0  0  0  0  0  0  0  0  0
    6.5451    0.9574   25.4797 C   0  0  0  0  0  0  0  0  0  0  0  0
    7.0325    0.6295   26.4001 H   0  0  0  0  0  0  0  0  0  0  0  0
    6.8237    2.0104   25.3088 H   0  0  0  0  0  0  0  0  0  0  0  0
    7.0521    0.1379   24.3314 C   0  0  0  0  0  0  0  0  0  0  0  0
    6.6576    0.3636   23.1154 N   0  0  0  0  0  0  0  0  0  0  0  0
    7.2996   -0.5022   22.2810 N   0  0  0  0  0  0  0  0  0  0  0  0
    7.4171   -0.6919   20.9221 C   0  0  0  0  0  0  0  0  0  0  0  0
    6.6489    0.0149   19.8978 C   0  0  0  0  0  0  0  0  0  0  0  0
    7.1687    0.0497   18.5929 C   0  0  0  0  0  0  0  0  0  0  0  0
    8.1162   -0.4365   18.3632 H   0  0  0  0  0  0  0  0  0  0  0  0
    6.5617    0.6714   17.5801 N   0  0  0  0  0  0  0  0  0  0  0  0
    5.3995    1.2904   17.8374 C   0  0  0  0  0  0  0  0  0  0  0  0
    4.9277    1.7897   16.9926 H   0  0  0  0  0  0  0  0  0  0  0  0
    4.8007    1.3072   19.1012 C   0  0  0  0  0  0  0  0  0  0  0  0
    3.8710    1.8429   19.2448 H   0  0  0  0  0  0  0  0  0  0  0  0
    5.4310    0.6543   20.1566 C   0  0  0  0  0  0  0  0  0  0  0  0
    5.0080    0.6409   21.1621 H   0  0  0  0  0  0  0  0  0  0  0  0
    8.3338   -1.6018   20.7013 N   0  0  0  0  0  0  0  0  0  0  0  0
    8.8407   -2.0379   21.9047 N   0  0  0  0  0  0  0  0  0  0  0  0
    8.2129   -1.3569   22.8188 C   0  0  0  0  0  0  0  0  0  0  0  0
    8.2660   -1.1326   24.5379 S   0  0  0  0  0  0  0  0  0  0  0  0
    4.0760    1.7087   25.0604 C   0  0  0  0  0  0  0  0  0  0  0  0
    4.3485    2.9541   24.2788 C   0  0  0  0  0  0  0  0  0  0  0  0
    3.4214    3.4276   23.9530 H   0  0  0  0  0  0  0  0  0  0  0  0
    4.9224    3.6681   24.8808 H   0  0  0  0  0  0  0  0  0  0  0  0
    4.9617    2.7061   23.4026 H   0  0  0  0  0  0  0  0  0  0  0  0
    2.8543    1.2364   25.2707 N   0  0  0  0  0  0  0  0  0  0  0  0
    3.0166    0.0987   25.9492 N   0  0  0  0  0  0  0  0  0  0  0  0
    2.1885   -0.4189   26.2324 H   0  0  0  0  0  0  0  0  0  0  0  0
  1  2  1  0
  2  3  1  0
  3  4  2  0
  3  5  1  0
  5  6  2  0
  6  7  1  0
  7  8  1  0
  7  9  1  0
  7 10  1  0
 10 11  2  0
 11 12  1  0
 12 13  1  0
 13 14  1  0
 14 15  2  0
 15 16  1  0
 15 17  1  0
 17 18  2  0
 18 19  1  0
 18 20  1  0
 20 21  1  0
 20 22  2  0
 22 23  1  0
 13 24  2  0
 24 25  1  0
 25 26  2  0
 26 27  1  0
  6 28  1  0
 28 29  1  0
 29 30  1  0
 29 31  1  0
 29 32  1  0
 28 33  2  0
 33 34  1  0
 34 35  1  0
 34  5  1  0
 27 10  1  0
 26 12  1  0
 22 14  1  0
M  END
>  <cnnaffinity>  (1) 
-5.42572

>  <filename>  (1) 
Cc1n[nH]c(C(=O)O)c1Cc1nn2c(-c3cccnc3)nnc2s1

$$$$
