
     RDKit          3D

 23 24  0  0  0  0  0  0  0  0999 V2000
    4.9576    1.8464   17.0052 H   0  0  0  0  0  0  0  0  0  0  0  0
    5.4264    1.3177   17.8305 C   0  0  0  0  0  0  0  0  0  0  0  0
    6.5829    0.6865   17.5642 N   0  0  0  0  0  0  0  0  0  0  0  0
    7.1735    0.0051   18.5620 C   0  0  0  0  0  0  0  0  0  0  0  0
    8.1142   -0.4890   18.3078 H   0  0  0  0  0  0  0  0  0  0  0  0
    6.6379   -0.1069   19.8782 C   0  0  0  0  0  0  0  0  0  0  0  0
    7.1351   -0.9006   20.9368 N   0  0  0  0  0  0  0  0  0  0  0  0
    6.6348   -0.7486   21.8088 H   0  0  0  0  0  0  0  0  0  0  0  0
    8.7381   -1.4583   21.2075 S   0  0  0  0  0  0  0  0  0  0  0  0
    9.6320    0.0563   21.6685 C   0  0  0  0  0  0  0  0  0  0  0  0
   10.0754    0.3526   22.9374 N   0  0  0  0  0  0  0  0  0  0  0  0
   10.5896    1.5486   22.9775 C   0  0  0  0  0  0  0  0  0  0  0  0
   10.9903    2.1851   24.2757 C   0  0  0  0  0  0  0  0  0  0  0  0
   10.3503    1.7677   25.0520 H   0  0  0  0  0  0  0  0  0  0  0  0
   10.8779    3.2705   24.2858 H   0  0  0  0  0  0  0  0  0  0  0  0
   12.0216    1.9529   24.5488 H   0  0  0  0  0  0  0  0  0  0  0  0
   10.6748    2.3516   21.4376 S   0  0  0  0  0  0  0  0  0  0  0  0
    9.8456    1.0189   20.7419 C   0  0  0  0  0  0  0  0  0  0  0  0
    9.5326    0.9356   19.7171 H   0  0  0  0  0  0  0  0  0  0  0  0
    5.4431    0.5948   20.1259 C   0  0  0  0  0  0  0  0  0  0  0  0
    5.0309    0.5823   21.1340 H   0  0  0  0  0  0  0  0  0  0  0  0
    4.8302    1.3030   19.0925 C   0  0  0  0  0  0  0  0  0  0  0  0
    3.9041    1.8417   19.2606 H   0  0  0  0  0  0  0  0  0  0  0  0
  1  2  1  0
  2  3  2  0
  3  4  1  0
  4  5  1  0
  4  6  2  0
  6  7  1  0
  7  8  1  0
  7  9  1  0
  9 10  1  0
 10 11  1  0
 11 12  2  0
 12 13  1  0
 13 14  1  0
 13 15  1  0
 13 16  1  0
 12 17  1  0
 17 18  1  0
 18 19  1  0
  6 20  1  0
 20 21  1  0
 20 22  2  0
 22 23  1  0
 22  2  1  0
 18 10  2  0
M  END
>  <cnnaffinity>  (1) 
-4.59823

>  <filename>  (1) 
Cc1nc(SNc2cccnc2)cs1

$$$$
