
     RDKit          3D

 29 31  0  0  0  0  0  0  0  0999 V2000
    4.9136    1.8130   16.9693 H   0  0  0  0  0  0  0  0  0  0  0  0
    5.3813    1.3084   17.8125 C   0  0  0  0  0  0  0  0  0  0  0  0
    6.5437    0.6869   17.5518 N   0  0  0  0  0  0  0  0  0  0  0  0
    7.1568    0.0698   18.5680 C   0  0  0  0  0  0  0  0  0  0  0  0
    8.1112   -0.3923   18.3185 H   0  0  0  0  0  0  0  0  0  0  0  0
    6.6583    0.0244   19.8886 C   0  0  0  0  0  0  0  0  0  0  0  0
    7.3790   -0.6413   20.9905 C   0  0  0  0  0  0  0  0  0  0  0  0
    7.5169   -0.3127   22.3336 C   0  0  0  0  0  0  0  0  0  0  0  0
    6.9939    0.8282   22.9602 N   0  0  0  0  0  0  0  0  0  0  0  0
    7.0013    1.7310   22.5140 H   0  0  0  0  0  0  0  0  0  0  0  0
    6.7371    0.9715   24.2947 C   0  0  0  0  0  0  0  0  0  0  0  0
    6.7522    2.2467   24.8037 N   0  0  0  0  0  0  0  0  0  0  0  0
    6.4791    2.1902   26.0749 C   0  0  0  0  0  0  0  0  0  0  0  0
    6.4562    3.3502   27.0249 C   0  0  0  0  0  0  0  0  0  0  0  0
    7.4213    3.4373   27.5399 H   0  0  0  0  0  0  0  0  0  0  0  0
    5.6875    3.2001   27.7884 H   0  0  0  0  0  0  0  0  0  0  0  0
    6.2679    4.2745   26.4767 H   0  0  0  0  0  0  0  0  0  0  0  0
    6.1312    0.5953   26.7008 S   0  0  0  0  0  0  0  0  0  0  0  0
    6.4033   -0.0413   25.1300 C   0  0  0  0  0  0  0  0  0  0  0  0
    6.3001   -1.0617   24.8025 H   0  0  0  0  0  0  0  0  0  0  0  0
    8.2970   -1.3708   22.8850 C   0  0  0  0  0  0  0  0  0  0  0  0
    8.6513   -1.4867   23.9047 H   0  0  0  0  0  0  0  0  0  0  0  0
    8.6127   -2.2769   21.9652 N   0  0  0  0  0  0  0  0  0  0  0  0
    8.0566   -1.8130   20.8357 N   0  0  0  0  0  0  0  0  0  0  0  0
    8.1286   -2.3551   19.9858 H   0  0  0  0  0  0  0  0  0  0  0  0
    5.4321    0.6654   20.1326 C   0  0  0  0  0  0  0  0  0  0  0  0
    5.0145    0.6337   21.1372 H   0  0  0  0  0  0  0  0  0  0  0  0
    4.7881    1.3200   19.0797 C   0  0  0  0  0  0  0  0  0  0  0  0
    3.8572    1.8523   19.2290 H   0  0  0  0  0  0  0  0  0  0  0  0
  1  2  1  0
  2  3  2  0
  3  4  1  0
  4  5  1  0
  4  6  2  0
  6  7  1  0
  7  8  2  0
  8  9  1  0
  9 10  1  0
  9 11  1  0
 11 12  1  0
 12 13  2  0
 13 14  1  0
 14 15  1  0
 14 16  1  0
 14 17  1  0
 13 18  1  0
 18 19  1  0
 19 20  1  0
  8 21  1  0
 21 22  1  0
 21 23  2  0
 23 24  1  0
 24 25  1  0
  6 26  1  0
 26 27  1  0
 26 28  2  0
 28 29  1  0
 28  2  1  0
 24  7  1  0
 19 11  2  0
M  END
>  <cnnaffinity>  (1) 
-5.35987

>  <filename>  (1) 
Cc1nc(Nc2cn[nH]c2-c2cccnc2)cs1

$$$$
