
     RDKit          3D

 29 31  0  0  0  0  0  0  0  0999 V2000
    4.7902    1.9723   16.6934 H   0  0  0  0  0  0  0  0  0  0  0  0
    5.2827    1.5634   17.5700 C   0  0  0  0  0  0  0  0  0  0  0  0
    6.4847    1.0037   17.3578 N   0  0  0  0  0  0  0  0  0  0  0  0
    7.1287    0.5076   18.4216 C   0  0  0  0  0  0  0  0  0  0  0  0
    8.1108    0.0840   18.2090 H   0  0  0  0  0  0  0  0  0  0  0  0
    6.6171    0.5372   19.7311 C   0  0  0  0  0  0  0  0  0  0  0  0
    7.3148   -0.1490   20.8420 C   0  0  0  0  0  0  0  0  0  0  0  0
    7.0765    0.3931   22.0797 O   0  0  0  0  0  0  0  0  0  0  0  0
    7.5156   -0.2651   23.2070 C   0  0  0  0  0  0  0  0  0  0  0  0
    7.3141    0.5006   24.4656 C   0  0  0  0  0  0  0  0  0  0  0  0
    7.8006   -0.0267   25.6512 N   0  0  0  0  0  0  0  0  0  0  0  0
    7.5430    0.7366   26.6581 C   0  0  0  0  0  0  0  0  0  0  0  0
    7.9024    0.3870   28.0679 C   0  0  0  0  0  0  0  0  0  0  0  0
    8.1409    1.2765   28.6524 H   0  0  0  0  0  0  0  0  0  0  0  0
    7.0494   -0.1144   28.5454 H   0  0  0  0  0  0  0  0  0  0  0  0
    8.7650   -0.2867   28.0573 H   0  0  0  0  0  0  0  0  0  0  0  0
    6.6607    2.1803   26.2393 S   0  0  0  0  0  0  0  0  0  0  0  0
    6.6780    1.7027   24.5924 C   0  0  0  0  0  0  0  0  0  0  0  0
    6.2502    2.2910   23.7943 H   0  0  0  0  0  0  0  0  0  0  0  0
    8.0387   -1.5088   23.1234 C   0  0  0  0  0  0  0  0  0  0  0  0
    8.2488   -2.0734   24.0196 H   0  0  0  0  0  0  0  0  0  0  0  0
    8.3524   -2.1215   21.8316 C   0  0  0  0  0  0  0  0  0  0  0  0
    8.8391   -3.2314   21.7156 O   0  0  0  0  0  0  0  0  0  0  0  0
    8.0051   -1.2873   20.6872 C   0  0  0  0  0  0  0  0  0  0  0  0
    8.2200   -1.6674   19.7069 H   0  0  0  0  0  0  0  0  0  0  0  0
    5.3594    1.1284   19.9295 C   0  0  0  0  0  0  0  0  0  0  0  0
    4.9438    1.1561   20.9373 H   0  0  0  0  0  0  0  0  0  0  0  0
    4.6780    1.6441   18.8305 C   0  0  0  0  0  0  0  0  0  0  0  0
    3.7061    2.1161   18.9400 H   0  0  0  0  0  0  0  0  0  0  0  0
  1  2  1  0
  2  3  2  0
  3  4  1  0
  4  5  1  0
  4  6  2  0
  6  7  1  0
  7  8  1  0
  8  9  1  0
  9 10  1  0
 10 11  1  0
 11 12  2  0
 12 13  1  0
 13 14  1  0
 13 15  1  0
 13 16  1  0
 12 17  1  0
 17 18  1  0
 18 19  1  0
  9 20  2  0
 20 21  1  0
 20 22  1  0
 22 23  2  0
 22 24  1  0
 24 25  1  0
  6 26  1  0
 26 27  1  0
 26 28  2  0
 28 29  1  0
 28  2  1  0
 24  7  2  0
 18 10  2  0
M  END
>  <cnnaffinity>  (1) 
-4.84344

>  <filename>  (1) 
Cc1nc(-c2cc(=O)cc(-c3cccnc3)o2)cs1

$$$$
