
     RDKit          3D

 29 31  0  0  0  0  0  0  0  0999 V2000
    4.9241    1.8149   16.9728 H   0  0  0  0  0  0  0  0  0  0  0  0
    5.3896    1.3059   17.8160 C   0  0  0  0  0  0  0  0  0  0  0  0
    6.5485    0.6805   17.5552 N   0  0  0  0  0  0  0  0  0  0  0  0
    7.1594    0.0637   18.5747 C   0  0  0  0  0  0  0  0  0  0  0  0
    8.1010   -0.4255   18.3271 H   0  0  0  0  0  0  0  0  0  0  0  0
    6.6605    0.0032   19.8935 C   0  0  0  0  0  0  0  0  0  0  0  0
    7.3709   -0.7363   20.9895 C   0  0  0  0  0  0  0  0  0  0  0  0
    8.7577   -0.6192   21.2024 C   0  0  0  0  0  0  0  0  0  0  0  0
    9.3637    0.0276   20.5650 H   0  0  0  0  0  0  0  0  0  0  0  0
    9.4156   -1.2576   22.1787 N   0  0  0  0  0  0  0  0  0  0  0  0
    8.7319   -2.0605   23.0014 C   0  0  0  0  0  0  0  0  0  0  0  0
    9.3301   -2.5511   23.7712 H   0  0  0  0  0  0  0  0  0  0  0  0
    7.3412   -2.2599   22.8900 C   0  0  0  0  0  0  0  0  0  0  0  0
    6.6406   -3.1444   23.8405 C   0  0  0  0  0  0  0  0  0  0  0  0
    7.3972   -3.9505   24.6775 N   0  0  0  0  0  0  0  0  0  0  0  0
    6.6391   -4.6552   25.4519 C   0  0  0  0  0  0  0  0  0  0  0  0
    7.0782   -5.6612   26.4686 C   0  0  0  0  0  0  0  0  0  0  0  0
    7.1811   -5.1571   27.4391 H   0  0  0  0  0  0  0  0  0  0  0  0
    6.3166   -6.4448   26.5603 H   0  0  0  0  0  0  0  0  0  0  0  0
    8.0389   -6.0849   26.1645 H   0  0  0  0  0  0  0  0  0  0  0  0
    4.9357   -4.3503   25.2742 S   0  0  0  0  0  0  0  0  0  0  0  0
    5.2906   -3.2703   23.9955 C   0  0  0  0  0  0  0  0  0  0  0  0
    4.4865   -2.8707   23.4027 H   0  0  0  0  0  0  0  0  0  0  0  0
    6.6700   -1.5739   21.8630 C   0  0  0  0  0  0  0  0  0  0  0  0
    5.5974   -1.6853   21.7075 H   0  0  0  0  0  0  0  0  0  0  0  0
    5.4405    0.6578   20.1326 C   0  0  0  0  0  0  0  0  0  0  0  0
    5.0221    0.6472   21.1390 H   0  0  0  0  0  0  0  0  0  0  0  0
    4.7990    1.3220   19.0839 C   0  0  0  0  0  0  0  0  0  0  0  0
    3.8632    1.8521   19.2305 H   0  0  0  0  0  0  0  0  0  0  0  0
  1  2  1  0
  2  3  2  0
  3  4  1  0
  4  5  1  0
  4  6  2  0
  6  7  1  0
  7  8  2  0
  8  9  1  0
  8 10  1  0
 10 11  2  0
 11 12  1  0
 11 13  1  0
 13 14  1  0
 14 15  1  0
 15 16  2  0
 16 17  1  0
 17 18  1  0
 17 19  1  0
 17 20  1  0
 16 21  1  0
 21 22  1  0
 22 23  1  0
 13 24  2  0
 24 25  1  0
  6 26  1  0
 26 27  1  0
 26 28  2  0
 28 29  1  0
 28  2  1  0
 24  7  1  0
 22 14  2  0
M  END
>  <cnnaffinity>  (1) 
-5.0565

>  <filename>  (1) 
Cc1nc(-c2cncc(-c3cccnc3)c2)cs1

$$$$
