
     RDKit          3D

 36 38  0  0  0  0  0  0  0  0999 V2000
    9.1754    3.1133   22.5207 H   0  0  0  0  0  0  0  0  0  0  0  0
    8.8199    2.3892   23.0686 O   0  0  0  0  0  0  0  0  0  0  0  0
    9.9132    2.1488   23.8019 C   0  0  0  0  0  0  0  0  0  0  0  0
   10.9121    2.8080   23.5990 O   0  0  0  0  0  0  0  0  0  0  0  0
    9.7958    1.0959   24.8293 C   0  0  0  0  0  0  0  0  0  0  0  0
    8.8583    0.1043   25.1428 C   0  0  0  0  0  0  0  0  0  0  0  0
    7.5021   -0.1262   24.5067 C   0  0  0  0  0  0  0  0  0  0  0  0
    6.9262   -0.8643   25.0810 H   0  0  0  0  0  0  0  0  0  0  0  0
    6.9185    0.8015   24.5476 H   0  0  0  0  0  0  0  0  0  0  0  0
    7.5342   -0.6016   23.0785 C   0  0  0  0  0  0  0  0  0  0  0  0
    7.0417    0.0836   22.0082 C   0  0  0  0  0  0  0  0  0  0  0  0
    6.7022    1.1023   22.0947 H   0  0  0  0  0  0  0  0  0  0  0  0
    7.0119   -0.5440   20.7371 C   0  0  0  0  0  0  0  0  0  0  0  0
    6.3689    0.1657   19.6199 C   0  0  0  0  0  0  0  0  0  0  0  0
    6.9940    0.1527   18.3701 C   0  0  0  0  0  0  0  0  0  0  0  0
    7.9241   -0.3994   18.2265 H   0  0  0  0  0  0  0  0  0  0  0  0
    6.5214    0.8095   17.3072 N   0  0  0  0  0  0  0  0  0  0  0  0
    5.3813    1.4991   17.4642 C   0  0  0  0  0  0  0  0  0  0  0  0
    5.0243    2.0264   16.5844 H   0  0  0  0  0  0  0  0  0  0  0  0
    4.6728    1.5619   18.6674 C   0  0  0  0  0  0  0  0  0  0  0  0
    3.7687    2.1557   18.7266 H   0  0  0  0  0  0  0  0  0  0  0  0
    5.1754    0.8873   19.7744 C   0  0  0  0  0  0  0  0  0  0  0  0
    4.6586    0.9170   20.7365 H   0  0  0  0  0  0  0  0  0  0  0  0
    7.5449   -1.7055   20.4832 N   0  0  0  0  0  0  0  0  0  0  0  0
    8.0807   -2.4075   21.5244 C   0  0  0  0  0  0  0  0  0  0  0  0
    8.6278   -3.4877   21.4386 O   0  0  0  0  0  0  0  0  0  0  0  0
    8.0029   -1.8438   22.8043 N   0  0  0  0  0  0  0  0  0  0  0  0
    8.5113   -2.4164   23.4500 H   0  0  0  0  0  0  0  0  0  0  0  0
    9.4515   -0.6058   26.2149 C   0  0  0  0  0  0  0  0  0  0  0  0
    8.9576   -1.8136   26.9480 C   0  0  0  0  0  0  0  0  0  0  0  0
    9.7835   -2.2251   27.5238 H   0  0  0  0  0  0  0  0  0  0  0  0
    8.6006   -2.5932   26.2674 H   0  0  0  0  0  0  0  0  0  0  0  0
    8.1393   -1.5759   27.6356 H   0  0  0  0  0  0  0  0  0  0  0  0
   10.6215   -0.0742   26.5467 N   0  0  0  0  0  0  0  0  0  0  0  0
   10.8122    0.9419   25.7150 N   0  0  0  0  0  0  0  0  0  0  0  0
   11.6591    1.4877   25.7973 H   0  0  0  0  0  0  0  0  0  0  0  0
  1  2  1  0
  2  3  1  0
  3  4  2  0
  3  5  1  0
  5  6  2  0
  6  7  1  0
  7  8  1  0
  7  9  1  0
  7 10  1  0
 10 11  2  0
 11 12  1  0
 11 13  1  0
 13 14  1  0
 14 15  2  0
 15 16  1  0
 15 17  1  0
 17 18  2  0
 18 19  1  0
 18 20  1  0
 20 21  1  0
 20 22  2  0
 22 23  1  0
 13 24  2  0
 24 25  1  0
 25 26  2  0
 25 27  1  0
 27 28  1  0
  6 29  1  0
 29 30  1  0
 30 31  1  0
 30 32  1  0
 30 33  1  0
 29 34  2  0
 34 35  1  0
 35 36  1  0
 35  5  1  0
 27 10  1  0
 22 14  1  0
M  END
>  <cnnaffinity>  (1) 
-5.12926

>  <filename>  (1) 
Cc1n[nH]c(C(=O)O)c1Cc1cc(-c2cccnc2)nc(=O)[nH]1

$$$$
