
     RDKit          3D

 41 43  0  0  0  0  0  0  0  0999 V2000
    2.0697   -5.6327   24.3773 C   0  0  0  0  0  0  0  0  0  0  0  0
    3.0357   -5.1896   23.2689 C   0  0  0  0  0  0  0  0  0  0  0  0
    4.2814   -4.4812   23.7954 C   0  0  2  0  0  0  0  0  0  0  0  0
    5.1605   -3.8265   22.7022 C   0  0  0  0  0  0  0  0  0  0  0  0
    6.4409   -3.3615   23.2658 N   0  0  0  0  0  0  0  0  0  0  0  0
    7.1716   -2.4204   22.6064 C   0  0  0  0  0  0  0  0  0  0  0  0
    8.4343   -2.2414   23.0051 N   0  0  0  0  0  0  0  0  0  0  0  0
    9.0982   -1.2722   22.4068 C   0  0  0  0  0  0  0  0  0  0  0  0
    8.5783   -0.4703   21.3940 C   0  0  0  0  0  0  0  0  0  0  0  0
    9.3624    0.6499   20.7736 C   0  0  0  0  0  0  0  0  0  0  0  0
   10.2531    0.8908   21.3551 H   0  0  0  0  0  0  0  0  0  0  0  0
    9.6730    0.3553   19.7722 H   0  0  0  0  0  0  0  0  0  0  0  0
    8.7404    1.5427   20.6681 H   0  0  0  0  0  0  0  0  0  0  0  0
    7.2628   -0.8045   21.0261 C   0  0  0  0  0  0  0  0  0  0  0  0
    6.5607   -0.0769   19.9597 C   0  0  0  0  0  0  0  0  0  0  0  0
    5.3519    0.5936   20.1740 C   0  0  0  0  0  0  0  0  0  0  0  0
    4.7891    1.2935   19.1094 C   0  0  0  0  0  0  0  0  0  0  0  0
    5.4396    1.2687   17.8710 C   0  0  0  0  0  0  0  0  0  0  0  0
    6.5832    0.6043   17.6483 N   0  0  0  0  0  0  0  0  0  0  0  0
    7.1256   -0.0471   18.6845 C   0  0  0  0  0  0  0  0  0  0  0  0
    8.0737   -0.5522   18.4842 H   0  0  0  0  0  0  0  0  0  0  0  0
    5.0195    1.8057   17.0236 H   0  0  0  0  0  0  0  0  0  0  0  0
    3.8794    1.8680   19.2340 H   0  0  0  0  0  0  0  0  0  0  0  0
    4.8859    0.5834   21.1606 H   0  0  0  0  0  0  0  0  0  0  0  0
    6.5621   -1.7577   21.6201 N   0  0  0  0  0  0  0  0  0  0  0  0
   10.1199   -1.1150   22.7680 H   0  0  0  0  0  0  0  0  0  0  0  0
    7.1347   -4.3308   24.1322 C   0  0  0  0  0  0  0  0  0  0  0  0
    6.1668   -4.9400   25.1377 C   0  0  0  0  0  0  0  0  0  0  0  0
    5.0187   -5.4755   24.5122 O   0  0  0  0  0  0  0  0  0  0  0  0
    5.8765   -4.1792   25.8749 H   0  0  0  0  0  0  0  0  0  0  0  0
    6.6480   -5.7616   25.6771 H   0  0  0  0  0  0  0  0  0  0  0  0
    7.5978   -5.1251   23.5294 H   0  0  0  0  0  0  0  0  0  0  0  0
    7.9335   -3.8279   24.6793 H   0  0  0  0  0  0  0  0  0  0  0  0
    4.6260   -2.9741   22.2705 H   0  0  0  0  0  0  0  0  0  0  0  0
    5.3383   -4.5452   21.8852 H   0  0  0  0  0  0  0  0  0  0  0  0
    3.9753   -3.6719   24.4846 H   0  0  0  0  0  0  0  0  0  0  0  0
    2.5080   -4.5512   22.5549 H   0  0  0  0  0  0  0  0  0  0  0  0
    3.3705   -6.0691   22.7102 H   0  0  0  0  0  0  0  0  0  0  0  0
    1.1327   -6.0240   23.9619 H   0  0  0  0  0  0  0  0  0  0  0  0
    2.5179   -6.4271   24.9831 H   0  0  0  0  0  0  0  0  0  0  0  0
    1.8249   -4.8005   25.0510 H   0  0  0  0  0  0  0  0  0  0  0  0
  1  2  1  0
  2  3  1  0
  3  4  1  0
  4  5  1  0
  5  6  1  0
  6  7  2  0
  7  8  1  0
  8  9  2  0
  9 10  1  0
 10 11  1  0
 10 12  1  0
 10 13  1  0
  9 14  1  0
 14 15  1  0
 15 16  2  0
 16 17  1  0
 17 18  2  0
 18 19  1  0
 19 20  2  0
 20 21  1  0
 18 22  1  0
 17 23  1  0
 16 24  1  0
 14 25  2  0
  8 26  1  0
  5 27  1  0
 27 28  1  0
 28 29  1  0
 28 30  1  0
 28 31  1  0
 27 32  1  0
 27 33  1  0
  4 34  1  0
  4 35  1  0
  3 36  1  1
  2 37  1  0
  2 38  1  0
  1 39  1  0
  1 40  1  0
  1 41  1  0
 29  3  1  0
 25  6  1  0
 20 15  1  0
M  END
>  <cnnaffinity>  (1) 
-5.14307

>  <filename>  (1) 
CC[C@@H]1CN(c2ncc(C)c(-c3cccnc3)n2)CCO1

$$$$
