
     RDKit          3D

 32 34  0  0  0  0  0  0  0  0999 V2000
    4.9104    1.7704   17.0068 H   0  0  0  0  0  0  0  0  0  0  0  0
    5.4059    1.2878   17.8478 C   0  0  0  0  0  0  0  0  0  0  0  0
    6.5749    0.6739   17.5948 N   0  0  0  0  0  0  0  0  0  0  0  0
    7.1847    0.0546   18.6129 C   0  0  0  0  0  0  0  0  0  0  0  0
    8.1313   -0.4363   18.3823 H   0  0  0  0  0  0  0  0  0  0  0  0
    6.6521    0.0117   19.9090 C   0  0  0  0  0  0  0  0  0  0  0  0
    7.3614   -0.6896   20.9729 C   0  0  0  0  0  0  0  0  0  0  0  0
    8.5474   -1.3233   20.7610 N   0  0  0  0  0  0  0  0  0  0  0  0
    8.8047   -1.7908   21.9612 C   0  0  0  0  0  0  0  0  0  0  0  0
   10.0774   -2.6786   22.7549 S   0  0  0  0  0  0  0  0  0  0  0  0
    9.1933   -2.5581   24.2690 C   0  0  0  0  0  0  0  0  0  0  0  0
    9.6317   -2.9747   25.1619 H   0  0  0  0  0  0  0  0  0  0  0  0
    8.0195   -1.8936   24.1594 C   0  0  0  0  0  0  0  0  0  0  0  0
    7.0415   -1.5238   25.2457 C   0  0  1  0  0  0  0  0  0  0  0  0
    6.0499   -1.4615   24.7774 H   0  0  0  0  0  0  0  0  0  0  0  0
    6.9707   -2.6204   26.3177 C   0  0  0  0  0  0  0  0  0  0  0  0
    6.6834   -3.5740   25.8636 H   0  0  0  0  0  0  0  0  0  0  0  0
    7.9286   -2.7630   26.8288 H   0  0  0  0  0  0  0  0  0  0  0  0
    6.2208   -2.3604   27.0687 H   0  0  0  0  0  0  0  0  0  0  0  0
    7.3567   -0.1247   25.8336 C   0  0  0  0  0  0  0  0  0  0  0  0
    6.5900    0.1118   26.5827 H   0  0  0  0  0  0  0  0  0  0  0  0
    7.2541    0.6204   25.0334 H   0  0  0  0  0  0  0  0  0  0  0  0
    8.7368    0.0130   26.4692 C   0  0  0  0  0  0  0  0  0  0  0  0
    8.8639   -0.6795   27.3086 H   0  0  0  0  0  0  0  0  0  0  0  0
    8.8725    1.0284   26.8506 H   0  0  0  0  0  0  0  0  0  0  0  0
    9.5316   -0.1782   25.7407 H   0  0  0  0  0  0  0  0  0  0  0  0
    7.8362   -1.4701   22.8392 N   0  0  0  0  0  0  0  0  0  0  0  0
    6.8788   -0.7447   22.2119 N   0  0  0  0  0  0  0  0  0  0  0  0
    5.4350    0.6557   20.1622 C   0  0  0  0  0  0  0  0  0  0  0  0
    5.0049    0.6307   21.1623 H   0  0  0  0  0  0  0  0  0  0  0  0
    4.8054    1.3106   19.1124 C   0  0  0  0  0  0  0  0  0  0  0  0
    3.8711    1.8457   19.2667 H   0  0  0  0  0  0  0  0  0  0  0  0
  1  2  1  0
  2  3  2  0
  3  4  1  0
  4  5  1  0
  4  6  2  0
  6  7  1  0
  7  8  1  0
  8  9  2  0
  9 10  1  0
 10 11  1  0
 11 12  1  0
 11 13  2  0
 13 14  1  0
 14 15  1  6
 14 16  1  0
 16 17  1  0
 16 18  1  0
 16 19  1  0
 14 20  1  0
 20 21  1  0
 20 22  1  0
 20 23  1  0
 23 24  1  0
 23 25  1  0
 23 26  1  0
 13 27  1  0
 27 28  1  0
  6 29  1  0
 29 30  1  0
 29 31  2  0
 31 32  1  0
 31  2  1  0
 28  7  2  0
 27  9  1  0
M  END
>  <cnnaffinity>  (1) 
-5.40365

>  <filename>  (1) 
CC[C@H](C)c1csc2nc(-c3cccnc3)nn12

$$$$
