
     RDKit          3D

 30 31  0  0  0  0  0  0  0  0999 V2000
    4.9331    1.7948   16.9862 H   0  0  0  0  0  0  0  0  0  0  0  0
    5.4004    1.2994   17.8342 C   0  0  0  0  0  0  0  0  0  0  0  0
    6.5654    0.6804   17.5816 N   0  0  0  0  0  0  0  0  0  0  0  0
    7.1592    0.0519   18.5997 C   0  0  0  0  0  0  0  0  0  0  0  0
    8.1071   -0.4348   18.3728 H   0  0  0  0  0  0  0  0  0  0  0  0
    6.6376    0.0192   19.8990 C   0  0  0  0  0  0  0  0  0  0  0  0
    7.3714   -0.7250   20.9187 C   0  0  0  0  0  0  0  0  0  0  0  0
    7.7768   -1.9477   20.7434 N   0  0  0  0  0  0  0  0  0  0  0  0
    8.3530   -2.2609   21.9437 N   0  0  0  0  0  0  0  0  0  0  0  0
    8.7704   -3.1472   22.1566 H   0  0  0  0  0  0  0  0  0  0  0  0
    8.3517   -1.2490   22.8493 C   0  0  0  0  0  0  0  0  0  0  0  0
    8.8413   -1.2619   23.9659 O   0  0  0  0  0  0  0  0  0  0  0  0
    7.6824   -0.2375   22.1659 N   0  0  0  0  0  0  0  0  0  0  0  0
    7.5671    1.1292   22.6779 C   0  0  1  0  0  0  0  0  0  0  0  0
    7.0483    1.6994   21.8995 H   0  0  0  0  0  0  0  0  0  0  0  0
    6.7388    1.1374   23.9537 C   0  0  0  0  0  0  0  0  0  0  0  0
    5.7726    0.6527   23.7846 H   0  0  0  0  0  0  0  0  0  0  0  0
    7.2566    0.6068   24.7588 H   0  0  0  0  0  0  0  0  0  0  0  0
    6.5548    2.1696   24.2656 H   0  0  0  0  0  0  0  0  0  0  0  0
    8.9451    1.7731   22.8769 C   0  0  0  0  0  0  0  0  0  0  0  0
    9.4864    1.1926   23.6354 H   0  0  0  0  0  0  0  0  0  0  0  0
    8.7693    2.7713   23.2990 H   0  0  0  0  0  0  0  0  0  0  0  0
    9.7546    1.8931   21.5854 C   0  0  0  0  0  0  0  0  0  0  0  0
   10.7001    2.4186   21.7563 H   0  0  0  0  0  0  0  0  0  0  0  0
    9.9801    0.9043   21.1692 H   0  0  0  0  0  0  0  0  0  0  0  0
    9.1940    2.4538   20.8261 H   0  0  0  0  0  0  0  0  0  0  0  0
    5.4210    0.6609   20.1504 C   0  0  0  0  0  0  0  0  0  0  0  0
    4.9833    0.6388   21.1526 H   0  0  0  0  0  0  0  0  0  0  0  0
    4.7923    1.3149   19.0952 C   0  0  0  0  0  0  0  0  0  0  0  0
    3.8636    1.8498   19.2430 H   0  0  0  0  0  0  0  0  0  0  0  0
  1  2  1  0
  2  3  2  0
  3  4  1  0
  4  5  1  0
  4  6  2  0
  6  7  1  0
  7  8  2  0
  8  9  1  0
  9 10  1  0
  9 11  1  0
 11 12  2  0
 11 13  1  0
 13 14  1  0
 14 15  1  6
 14 16  1  0
 16 17  1  0
 16 18  1  0
 16 19  1  0
 14 20  1  0
 20 21  1  0
 20 22  1  0
 20 23  1  0
 23 24  1  0
 23 25  1  0
 23 26  1  0
  6 27  1  0
 27 28  1  0
 27 29  2  0
 29 30  1  0
 29  2  1  0
 13  7  1  0
M  END
>  <cnnaffinity>  (1) 
-4.72139

>  <filename>  (1) 
CC[C@H](C)n1c(-c2cccnc2)n[nH]c1=O

$$$$
