
     RDKit          3D

 40 41  0  0  0  0  0  0  0  0999 V2000
    4.9090    1.7884   16.9870 H   0  0  0  0  0  0  0  0  0  0  0  0
    5.3940    1.3002   17.8259 C   0  0  0  0  0  0  0  0  0  0  0  0
    6.5583    0.6839   17.5618 N   0  0  0  0  0  0  0  0  0  0  0  0
    7.1762    0.0777   18.5809 C   0  0  0  0  0  0  0  0  0  0  0  0
    8.1209   -0.4183   18.3637 H   0  0  0  0  0  0  0  0  0  0  0  0
    6.6703    0.0117   19.9021 C   0  0  0  0  0  0  0  0  0  0  0  0
    7.3499   -0.6583   20.9277 N   0  0  0  0  0  0  0  0  0  0  0  0
    6.6138   -1.5762   21.7957 C   0  0  0  0  0  0  0  0  0  0  0  0
    5.7182   -1.8978   21.2493 H   0  0  0  0  0  0  0  0  0  0  0  0
    6.2617   -1.0739   22.7096 H   0  0  0  0  0  0  0  0  0  0  0  0
    7.4032   -2.8274   22.2172 C   0  0  0  0  0  0  0  0  0  0  0  0
    6.6781   -3.6254   22.4146 H   0  0  0  0  0  0  0  0  0  0  0  0
    7.9984   -3.1674   21.3512 H   0  0  0  0  0  0  0  0  0  0  0  0
    8.2193   -2.5959   23.4130 N   0  0  0  0  0  0  0  0  0  0  0  0
    8.3639   -3.7652   24.2864 C   0  0  1  0  0  0  0  0  0  0  0  0
    7.3668   -4.2248   24.3387 H   0  0  0  0  0  0  0  0  0  0  0  0
    9.3265   -4.8021   23.7145 C   0  0  0  0  0  0  0  0  0  0  0  0
    9.2827   -5.7502   24.2545 H   0  0  0  0  0  0  0  0  0  0  0  0
    9.0845   -5.0000   22.6655 H   0  0  0  0  0  0  0  0  0  0  0  0
   10.3552   -4.4249   23.7659 H   0  0  0  0  0  0  0  0  0  0  0  0
    8.7244   -3.3522   25.7183 C   0  0  0  0  0  0  0  0  0  0  0  0
    9.7895   -3.0980   25.7725 H   0  0  0  0  0  0  0  0  0  0  0  0
    8.1794   -2.4318   25.9528 H   0  0  0  0  0  0  0  0  0  0  0  0
    8.4123   -4.4319   26.7558 C   0  0  0  0  0  0  0  0  0  0  0  0
    8.9893   -5.3475   26.5795 H   0  0  0  0  0  0  0  0  0  0  0  0
    7.3504   -4.7015   26.7330 H   0  0  0  0  0  0  0  0  0  0  0  0
    8.6439   -4.0852   27.7666 H   0  0  0  0  0  0  0  0  0  0  0  0
    9.4621   -1.8908   23.1027 C   0  0  0  0  0  0  0  0  0  0  0  0
   10.0761   -1.8223   24.0061 H   0  0  0  0  0  0  0  0  0  0  0  0
   10.0731   -2.4437   22.3608 H   0  0  0  0  0  0  0  0  0  0  0  0
    9.2436   -0.4807   22.5633 C   0  0  0  0  0  0  0  0  0  0  0  0
   10.1914    0.0658   22.6287 H   0  0  0  0  0  0  0  0  0  0  0  0
    8.5299    0.0567   23.1938 H   0  0  0  0  0  0  0  0  0  0  0  0
    8.7764   -0.4309   21.1072 C   0  0  0  0  0  0  0  0  0  0  0  0
    9.3782   -1.1371   20.5053 H   0  0  0  0  0  0  0  0  0  0  0  0
    9.0022    0.5583   20.6911 H   0  0  0  0  0  0  0  0  0  0  0  0
    5.4351    0.6459   20.1506 C   0  0  0  0  0  0  0  0  0  0  0  0
    5.0198    0.6175   21.1634 H   0  0  0  0  0  0  0  0  0  0  0  0
    4.8076    1.3122   19.0989 C   0  0  0  0  0  0  0  0  0  0  0  0
    3.8744    1.8407   19.2580 H   0  0  0  0  0  0  0  0  0  0  0  0
  1  2  1  0
  2  3  2  0
  3  4  1  0
  4  5  1  0
  4  6  2  0
  6  7  1  0
  7  8  1  0
  8  9  1  0
  8 10  1  0
  8 11  1  0
 11 12  1  0
 11 13  1  0
 11 14  1  0
 14 15  1  0
 15 16  1  1
 15 17  1  0
 17 18  1  0
 17 19  1  0
 17 20  1  0
 15 21  1  0
 21 22  1  0
 21 23  1  0
 21 24  1  0
 24 25  1  0
 24 26  1  0
 24 27  1  0
 14 28  1  0
 28 29  1  0
 28 30  1  0
 28 31  1  0
 31 32  1  0
 31 33  1  0
 31 34  1  0
 34 35  1  0
 34 36  1  0
  6 37  1  0
 37 38  1  0
 37 39  2  0
 39 40  1  0
 39  2  1  0
 34  7  1  0
M  END
>  <cnnaffinity>  (1) 
-4.67335

>  <filename>  (1) 
CC[C@H](C)N1CCCN(c2cccnc2)CC1

$$$$
