
     RDKit          3D

 34 36  0  0  0  0  0  0  0  0999 V2000
    4.9257    1.7873   16.9908 H   0  0  0  0  0  0  0  0  0  0  0  0
    5.4034    1.2921   17.8302 C   0  0  0  0  0  0  0  0  0  0  0  0
    6.5646    0.6769   17.5616 N   0  0  0  0  0  0  0  0  0  0  0  0
    7.1775    0.0591   18.5773 C   0  0  0  0  0  0  0  0  0  0  0  0
    8.1253   -0.4242   18.3513 H   0  0  0  0  0  0  0  0  0  0  0  0
    6.6625    0.0086   19.8862 C   0  0  0  0  0  0  0  0  0  0  0  0
    7.3842   -0.7002   20.9562 C   0  0  0  0  0  0  0  0  0  0  0  0
    8.5257   -1.3651   20.7163 N   0  0  0  0  0  0  0  0  0  0  0  0
    8.8454   -1.8589   21.9381 N   0  0  0  0  0  0  0  0  0  0  0  0
    9.8714   -2.6299   22.4790 C   0  0  0  0  0  0  0  0  0  0  0  0
   10.6908   -2.9544   21.8695 H   0  0  0  0  0  0  0  0  0  0  0  0
    9.5800   -2.7681   23.8006 C   0  0  0  0  0  0  0  0  0  0  0  0
   10.1044   -3.2866   24.5945 H   0  0  0  0  0  0  0  0  0  0  0  0
    8.3939   -2.0855   24.0728 N   0  0  0  0  0  0  0  0  0  0  0  0
    7.6765   -1.9258   25.3339 C   0  0  1  0  0  0  0  0  0  0  0  0
    8.2626   -2.4815   26.0748 H   0  0  0  0  0  0  0  0  0  0  0  0
    7.6217   -0.4501   25.7521 C   0  0  0  0  0  0  0  0  0  0  0  0
    6.9469    0.1281   25.1088 H   0  0  0  0  0  0  0  0  0  0  0  0
    7.2605   -0.3464   26.7797 H   0  0  0  0  0  0  0  0  0  0  0  0
    8.6093    0.0129   25.6896 H   0  0  0  0  0  0  0  0  0  0  0  0
    6.2727   -2.5631   25.2539 C   0  0  0  0  0  0  0  0  0  0  0  0
    5.6373   -1.9592   24.5922 H   0  0  0  0  0  0  0  0  0  0  0  0
    6.3650   -3.5343   24.7583 H   0  0  0  0  0  0  0  0  0  0  0  0
    5.5995   -2.7346   26.6181 C   0  0  0  0  0  0  0  0  0  0  0  0
    6.2382   -3.3026   27.3044 H   0  0  0  0  0  0  0  0  0  0  0  0
    4.6518   -3.2760   26.5305 H   0  0  0  0  0  0  0  0  0  0  0  0
    5.3789   -1.7743   27.0994 H   0  0  0  0  0  0  0  0  0  0  0  0
    7.9630   -1.5313   22.8991 C   0  0  0  0  0  0  0  0  0  0  0  0
    6.9744   -0.7641   22.3122 C   0  0  0  0  0  0  0  0  0  0  0  0
    6.1166   -0.3156   22.7744 H   0  0  0  0  0  0  0  0  0  0  0  0
    5.4403    0.6540   20.1445 C   0  0  0  0  0  0  0  0  0  0  0  0
    4.9967    0.6465   21.1454 H   0  0  0  0  0  0  0  0  0  0  0  0
    4.8074    1.3096   19.0958 C   0  0  0  0  0  0  0  0  0  0  0  0
    3.8773    1.8395   19.2526 H   0  0  0  0  0  0  0  0  0  0  0  0
  1  2  1  0
  2  3  2  0
  3  4  1  0
  4  5  1  0
  4  6  2  0
  6  7  1  0
  7  8  2  0
  8  9  1  0
  9 10  1  0
 10 11  1  0
 10 12  2  0
 12 13  1  0
 12 14  1  0
 14 15  1  0
 15 16  1  1
 15 17  1  0
 17 18  1  0
 17 19  1  0
 17 20  1  0
 15 21  1  0
 21 22  1  0
 21 23  1  0
 21 24  1  0
 24 25  1  0
 24 26  1  0
 24 27  1  0
 14 28  1  0
 28 29  2  0
 29 30  1  0
  6 31  1  0
 31 32  1  0
 31 33  2  0
 33 34  1  0
 33  2  1  0
 29  7  1  0
 28  9  1  0
M  END
>  <cnnaffinity>  (1) 
-5.30491

>  <filename>  (1) 
CC[C@H](C)n1ccn2nc(-c3cccnc3)cc12

$$$$
