
     RDKit          3D

 31 32  0  0  0  0  0  0  0  0999 V2000
    5.0451    1.8596   16.9630 H   0  0  0  0  0  0  0  0  0  0  0  0
    5.4917    1.3301   17.8019 C   0  0  0  0  0  0  0  0  0  0  0  0
    6.6574    0.7115   17.5533 N   0  0  0  0  0  0  0  0  0  0  0  0
    7.2365    0.0517   18.5655 C   0  0  0  0  0  0  0  0  0  0  0  0
    8.1868   -0.4392   18.3573 H   0  0  0  0  0  0  0  0  0  0  0  0
    6.6706   -0.0524   19.8515 C   0  0  0  0  0  0  0  0  0  0  0  0
    7.3295   -0.7743   20.9108 N   0  0  0  0  0  0  0  0  0  0  0  0
    8.5390   -0.2649   21.3631 C   0  0  0  0  0  0  0  0  0  0  0  0
    8.8911    0.6415   20.8861 H   0  0  0  0  0  0  0  0  0  0  0  0
    9.2334   -0.8546   22.3788 C   0  0  0  0  0  0  0  0  0  0  0  0
   10.4824   -0.3633   22.8191 N   0  0  0  0  0  0  0  0  0  0  0  0
   11.1444   -1.0471   23.1428 H   0  0  0  0  0  0  0  0  0  0  0  0
   10.8233    0.9570   23.0226 C   0  0  0  0  0  0  0  0  0  0  0  0
   10.0282    1.8662   22.8863 O   0  0  0  0  0  0  0  0  0  0  0  0
   12.2829    1.1536   23.4346 C   0  0  0  0  0  0  0  0  0  0  0  0
   12.3495    2.1954   23.7620 H   0  0  0  0  0  0  0  0  0  0  0  0
   12.4949    0.5135   24.2981 H   0  0  0  0  0  0  0  0  0  0  0  0
   13.2761    0.8487   22.3042 C   0  0  0  0  0  0  0  0  0  0  0  0
   13.0114    1.4789   21.4561 H   0  0  0  0  0  0  0  0  0  0  0  0
   13.2204   -0.1905   21.9615 H   0  0  0  0  0  0  0  0  0  0  0  0
   14.3136    1.0561   22.5935 H   0  0  0  0  0  0  0  0  0  0  0  0
    8.6776   -2.0191   23.0000 C   0  0  0  0  0  0  0  0  0  0  0  0
    9.2241   -2.4777   23.8262 H   0  0  0  0  0  0  0  0  0  0  0  0
    7.4695   -2.5080   22.6064 C   0  0  0  0  0  0  0  0  0  0  0  0
    6.9867   -3.3643   23.0553 H   0  0  0  0  0  0  0  0  0  0  0  0
    6.6810   -1.9076   21.5345 C   0  0  0  0  0  0  0  0  0  0  0  0
    5.5951   -2.3299   21.1801 O   0  0  0  0  0  0  0  0  0  0  0  0
    5.4556    0.5950   20.0980 C   0  0  0  0  0  0  0  0  0  0  0  0
    5.0148    0.5341   21.0932 H   0  0  0  0  0  0  0  0  0  0  0  0
    4.8601    1.3051   19.0505 C   0  0  0  0  0  0  0  0  0  0  0  0
    3.9310    1.8444   19.1922 H   0  0  0  0  0  0  0  0  0  0  0  0
  1  2  1  0
  2  3  2  0
  3  4  1  0
  4  5  1  0
  4  6  2  0
  6  7  1  0
  7  8  1  0
  8  9  1  0
  8 10  2  0
 10 11  1  0
 11 12  1  0
 11 13  1  0
 13 14  2  0
 13 15  1  0
 15 16  1  0
 15 17  1  0
 15 18  1  0
 18 19  1  0
 18 20  1  0
 18 21  1  0
 10 22  1  0
 22 23  1  0
 22 24  2  0
 24 25  1  0
 24 26  1  0
 26 27  2  0
  6 28  1  0
 28 29  1  0
 28 30  2  0
 30 31  1  0
 30  2  1  0
 26  7  1  0
M  END
>  <cnnaffinity>  (1) 
-5.36017

>  <filename>  (1) 
CCC(=O)Nc1ccc(=O)n(-c2cccnc2)c1

$$$$
