
     RDKit          3D

 25 26  0  0  0  0  0  0  0  0999 V2000
    4.9200    1.7807   16.9993 H   0  0  0  0  0  0  0  0  0  0  0  0
    5.4072    1.2881   17.8423 C   0  0  0  0  0  0  0  0  0  0  0  0
    6.5656    0.6671   17.5868 N   0  0  0  0  0  0  0  0  0  0  0  0
    7.1894    0.0545   18.6022 C   0  0  0  0  0  0  0  0  0  0  0  0
    8.1291   -0.4380   18.3676 H   0  0  0  0  0  0  0  0  0  0  0  0
    6.6889    0.0162   19.9169 C   0  0  0  0  0  0  0  0  0  0  0  0
    7.2877   -0.6775   20.9430 O   0  0  0  0  0  0  0  0  0  0  0  0
    8.6512   -0.7490   21.0795 C   0  0  0  0  0  0  0  0  0  0  0  0
    9.6779    0.0974   20.6177 C   0  0  0  0  0  0  0  0  0  0  0  0
    9.5867    0.9467   19.9675 H   0  0  0  0  0  0  0  0  0  0  0  0
   10.8628   -0.2835   21.0858 N   0  0  0  0  0  0  0  0  0  0  0  0
   10.5879   -1.3539   21.8294 N   0  0  0  0  0  0  0  0  0  0  0  0
   11.3412   -1.8068   22.3145 H   0  0  0  0  0  0  0  0  0  0  0  0
    9.2711   -1.6899   21.8707 C   0  0  0  0  0  0  0  0  0  0  0  0
    8.7036   -2.7424   22.7533 C   0  0  0  0  0  0  0  0  0  0  0  0
    9.4156   -3.5715   22.8661 H   0  0  0  0  0  0  0  0  0  0  0  0
    7.8199   -3.1470   22.2486 H   0  0  0  0  0  0  0  0  0  0  0  0
    8.3095   -2.1859   24.1290 C   0  0  0  0  0  0  0  0  0  0  0  0
    9.1815   -1.7867   24.6585 H   0  0  0  0  0  0  0  0  0  0  0  0
    7.8544   -2.9608   24.7529 H   0  0  0  0  0  0  0  0  0  0  0  0
    7.5902   -1.3669   24.0147 H   0  0  0  0  0  0  0  0  0  0  0  0
    5.4627    0.6420   20.1753 C   0  0  0  0  0  0  0  0  0  0  0  0
    5.0315    0.6121   21.1759 H   0  0  0  0  0  0  0  0  0  0  0  0
    4.8242    1.2990   19.1157 C   0  0  0  0  0  0  0  0  0  0  0  0
    3.8897    1.8289   19.2668 H   0  0  0  0  0  0  0  0  0  0  0  0
  1  2  1  0
  2  3  2  0
  3  4  1  0
  4  5  1  0
  4  6  2  0
  6  7  1  0
  7  8  1  0
  8  9  1  0
  9 10  1  0
  9 11  2  0
 11 12  1  0
 12 13  1  0
 12 14  1  0
 14 15  1  0
 15 16  1  0
 15 17  1  0
 15 18  1  0
 18 19  1  0
 18 20  1  0
 18 21  1  0
  6 22  1  0
 22 23  1  0
 22 24  2  0
 24 25  1  0
 24  2  1  0
 14  8  2  0
M  END
>  <cnnaffinity>  (1) 
-4.53143

>  <filename>  (1) 
CCc1[nH]ncc1Oc1cccnc1

$$$$
