
     RDKit          3D

 38 40  0  0  0  0  0  0  0  0999 V2000
    4.9272    1.8359   16.9535 H   0  0  0  0  0  0  0  0  0  0  0  0
    5.3955    1.3209   17.7908 C   0  0  0  0  0  0  0  0  0  0  0  0
    6.5603    0.7046   17.5326 N   0  0  0  0  0  0  0  0  0  0  0  0
    7.1596    0.0700   18.5487 C   0  0  0  0  0  0  0  0  0  0  0  0
    8.1161   -0.3981   18.3084 H   0  0  0  0  0  0  0  0  0  0  0  0
    6.6346   -0.0038   19.8569 C   0  0  0  0  0  0  0  0  0  0  0  0
    7.3535   -0.6913   21.0101 C   0  0  2  0  0  0  0  0  0  0  0  0
    8.2040   -1.2352   20.5844 H   0  0  0  0  0  0  0  0  0  0  0  0
    6.5239   -1.7497   21.7519 C   0  0  0  0  0  0  0  0  0  0  0  0
    5.9171   -2.6902   21.2866 O   0  0  0  0  0  0  0  0  0  0  0  0
    6.5693   -1.4775   23.0902 N   0  0  0  0  0  0  0  0  0  0  0  0
    5.7753   -1.8796   23.5713 H   0  0  0  0  0  0  0  0  0  0  0  0
    7.0686   -0.1512   23.4142 C   0  0  0  0  0  0  0  0  0  0  0  0
    6.2479    0.5449   23.6637 H   0  0  0  0  0  0  0  0  0  0  0  0
    7.7417   -0.1896   24.2851 H   0  0  0  0  0  0  0  0  0  0  0  0
    7.8246    0.2874   22.1309 C   0  0  1  0  0  0  0  0  0  0  0  0
    7.5466    1.3163   21.8872 H   0  0  0  0  0  0  0  0  0  0  0  0
    9.3294    0.2429   22.2795 C   0  0  0  0  0  0  0  0  0  0  0  0
   10.1325    1.3714   22.0629 C   0  0  0  0  0  0  0  0  0  0  0  0
    9.6737    2.3236   21.8069 H   0  0  0  0  0  0  0  0  0  0  0  0
   11.5174    1.2911   22.2054 C   0  0  0  0  0  0  0  0  0  0  0  0
   12.1336    2.1808   22.0900 H   0  0  0  0  0  0  0  0  0  0  0  0
   12.1323    0.0724   22.5240 C   0  0  0  0  0  0  0  0  0  0  0  0
   13.6001    0.0205   22.8530 C   0  0  0  0  0  0  0  0  0  0  0  0
   13.9889   -0.9902   22.6813 H   0  0  0  0  0  0  0  0  0  0  0  0
   14.1588    0.7004   22.1994 H   0  0  0  0  0  0  0  0  0  0  0  0
   13.8460    0.4389   24.3090 C   0  0  0  0  0  0  0  0  0  0  0  0
   13.7134    1.5194   24.4149 H   0  0  0  0  0  0  0  0  0  0  0  0
   14.8496    0.1675   24.6295 H   0  0  0  0  0  0  0  0  0  0  0  0
   13.1514   -0.0422   25.0059 H   0  0  0  0  0  0  0  0  0  0  0  0
   11.3299   -1.0681   22.6642 C   0  0  0  0  0  0  0  0  0  0  0  0
   11.8163   -2.0292   22.7953 H   0  0  0  0  0  0  0  0  0  0  0  0
    9.9445   -0.9738   22.6039 C   0  0  0  0  0  0  0  0  0  0  0  0
    9.3232   -1.8269   22.8648 H   0  0  0  0  0  0  0  0  0  0  0  0
    5.4225    0.6483   20.0964 C   0  0  0  0  0  0  0  0  0  0  0  0
    4.9972    0.6488   21.1022 H   0  0  0  0  0  0  0  0  0  0  0  0
    4.7899    1.3186   19.0497 C   0  0  0  0  0  0  0  0  0  0  0  0
    3.8614    1.8520   19.2030 H   0  0  0  0  0  0  0  0  0  0  0  0
  1  2  1  0
  2  3  2  0
  3  4  1  0
  4  5  1  0
  4  6  2  0
  6  7  1  0
  7  8  1  6
  7  9  1  0
  9 10  2  0
  9 11  1  0
 11 12  1  0
 11 13  1  0
 13 14  1  0
 13 15  1  0
 13 16  1  0
 16 17  1  6
 16 18  1  0
 18 19  2  0
 19 20  1  0
 19 21  1  0
 21 22  1  0
 21 23  2  0
 23 24  1  0
 24 25  1  0
 24 26  1  0
 24 27  1  0
 27 28  1  0
 27 29  1  0
 27 30  1  0
 23 31  1  0
 31 32  1  0
 31 33  2  0
 33 34  1  0
  6 35  1  0
 35 36  1  0
 35 37  2  0
 37 38  1  0
 37  2  1  0
 16  7  1  0
 33 18  1  0
M  END
>  <cnnaffinity>  (1) 
-5.2376

>  <filename>  (1) 
CCc1ccc([C@@H]2CNC(=O)[C@H]2c2cccnc2)cc1

$$$$
