
     RDKit          3D

 35 38  0  0  0  0  0  0  0  0999 V2000
    4.9164    1.7756   17.0020 H   0  0  0  0  0  0  0  0  0  0  0  0
    5.4047    1.2899   17.8426 C   0  0  0  0  0  0  0  0  0  0  0  0
    6.5702    0.6780   17.5768 N   0  0  0  0  0  0  0  0  0  0  0  0
    7.1747    0.0568   18.5902 C   0  0  0  0  0  0  0  0  0  0  0  0
    8.1243   -0.4344   18.3741 H   0  0  0  0  0  0  0  0  0  0  0  0
    6.6476    0.0109   19.8912 C   0  0  0  0  0  0  0  0  0  0  0  0
    7.4028   -0.7038   20.9172 C   0  0  0  0  0  0  0  0  0  0  0  0
    8.3302   -1.6022   20.6962 N   0  0  0  0  0  0  0  0  0  0  0  0
    8.8280   -2.0413   21.9021 N   0  0  0  0  0  0  0  0  0  0  0  0
    8.1915   -1.3651   22.8171 C   0  0  0  0  0  0  0  0  0  0  0  0
    8.2506   -1.1191   24.5350 S   0  0  0  0  0  0  0  0  0  0  0  0
    7.0195    0.1497   24.3244 C   0  0  0  0  0  0  0  0  0  0  0  0
    6.5178    0.9304   25.4748 C   0  0  0  0  0  0  0  0  0  0  0  0
    6.9898    0.7044   26.7858 C   0  0  0  0  0  0  0  0  0  0  0  0
    7.7432   -0.0541   26.9945 H   0  0  0  0  0  0  0  0  0  0  0  0
    6.4904    1.4565   27.8461 C   0  0  0  0  0  0  0  0  0  0  0  0
    6.8683    1.2817   28.8503 H   0  0  0  0  0  0  0  0  0  0  0  0
    5.5087    2.4391   27.6421 C   0  0  0  0  0  0  0  0  0  0  0  0
    5.0115    3.2854   28.7855 C   0  0  0  0  0  0  0  0  0  0  0  0
    3.9701    3.5780   28.6054 H   0  0  0  0  0  0  0  0  0  0  0  0
    5.0091    2.6965   29.7103 H   0  0  0  0  0  0  0  0  0  0  0  0
    5.8701    4.5384   28.9769 C   0  0  0  0  0  0  0  0  0  0  0  0
    6.9097    4.2628   29.1811 H   0  0  0  0  0  0  0  0  0  0  0  0
    5.5026    5.1466   29.8078 H   0  0  0  0  0  0  0  0  0  0  0  0
    5.8629    5.1504   28.0692 H   0  0  0  0  0  0  0  0  0  0  0  0
    5.0606    2.6727   26.3330 C   0  0  0  0  0  0  0  0  0  0  0  0
    4.3224    3.4479   26.1495 H   0  0  0  0  0  0  0  0  0  0  0  0
    5.5482    1.9313   25.2616 C   0  0  0  0  0  0  0  0  0  0  0  0
    5.1833    2.1195   24.2558 H   0  0  0  0  0  0  0  0  0  0  0  0
    6.6127    0.3390   23.1061 N   0  0  0  0  0  0  0  0  0  0  0  0
    7.2662   -0.5286   22.2788 N   0  0  0  0  0  0  0  0  0  0  0  0
    5.4331    0.6522   20.1618 C   0  0  0  0  0  0  0  0  0  0  0  0
    5.0090    0.6348   21.1687 H   0  0  0  0  0  0  0  0  0  0  0  0
    4.8048    1.3085   19.1087 C   0  0  0  0  0  0  0  0  0  0  0  0
    3.8740    1.8434   19.2617 H   0  0  0  0  0  0  0  0  0  0  0  0
  1  2  1  0
  2  3  2  0
  3  4  1  0
  4  5  1  0
  4  6  2  0
  6  7  1  0
  7  8  2  0
  8  9  1  0
  9 10  2  0
 10 11  1  0
 11 12  1  0
 12 13  1  0
 13 14  2  0
 14 15  1  0
 14 16  1  0
 16 17  1  0
 16 18  2  0
 18 19  1  0
 19 20  1  0
 19 21  1  0
 19 22  1  0
 22 23  1  0
 22 24  1  0
 22 25  1  0
 18 26  1  0
 26 27  1  0
 26 28  2  0
 28 29  1  0
 12 30  2  0
 30 31  1  0
  6 32  1  0
 32 33  1  0
 32 34  2  0
 34 35  1  0
 34  2  1  0
 31  7  1  0
 31 10  1  0
 28 13  1  0
M  END
>  <cnnaffinity>  (1) 
-5.28019

>  <filename>  (1) 
CCc1ccc(-c2nn3c(-c4cccnc4)nnc3s2)cc1

$$$$
