
     RDKit          3D

 41 44  0  0  0  0  0  0  0  0999 V2000
    4.9666    1.8730   16.9298 H   0  0  0  0  0  0  0  0  0  0  0  0
    5.4110    1.3150   17.7553 C   0  0  0  0  0  0  0  0  0  0  0  0
    6.5547    0.6689   17.4961 N   0  0  0  0  0  0  0  0  0  0  0  0
    7.1356    0.0160   18.5127 C   0  0  0  0  0  0  0  0  0  0  0  0
    8.0688   -0.4825   18.2614 H   0  0  0  0  0  0  0  0  0  0  0  0
    6.6362   -0.0570   19.8282 C   0  0  0  0  0  0  0  0  0  0  0  0
    7.3734   -0.8200   20.9285 C   0  0  1  0  0  0  0  0  0  0  0  0
    7.0190   -1.8586   20.9168 H   0  0  0  0  0  0  0  0  0  0  0  0
    8.9363   -0.8760   20.7801 C   0  0  0  0  0  0  0  0  0  0  0  0
    9.3135   -0.0388   20.1834 H   0  0  0  0  0  0  0  0  0  0  0  0
    9.2770   -1.8101   20.3200 H   0  0  0  0  0  0  0  0  0  0  0  0
    9.4223   -0.7335   22.1934 C   0  0  0  0  0  0  0  0  0  0  0  0
   10.6030   -0.8228   22.7786 N   0  0  0  0  0  0  0  0  0  0  0  0
   10.3287   -0.5448   24.0777 N   0  0  0  0  0  0  0  0  0  0  0  0
   11.1061   -0.4268   24.7149 H   0  0  0  0  0  0  0  0  0  0  0  0
    9.0122   -0.2494   24.3189 C   0  0  0  0  0  0  0  0  0  0  0  0
    8.4232    0.1177   25.6256 C   0  0  0  0  0  0  0  0  0  0  0  0
    7.1507    0.7289   25.6239 C   0  0  0  0  0  0  0  0  0  0  0  0
    6.6189    0.8611   24.6854 H   0  0  0  0  0  0  0  0  0  0  0  0
    6.5647    1.1962   26.7979 C   0  0  0  0  0  0  0  0  0  0  0  0
    5.6084    1.7142   26.7415 H   0  0  0  0  0  0  0  0  0  0  0  0
    7.2148    1.0507   28.0314 C   0  0  0  0  0  0  0  0  0  0  0  0
    6.6463    1.6129   29.3190 C   0  0  0  0  0  0  0  0  0  0  0  0
    5.9574    2.4404   29.0996 H   0  0  0  0  0  0  0  0  0  0  0  0
    7.4678    2.0517   29.9032 H   0  0  0  0  0  0  0  0  0  0  0  0
    5.9365    0.5528   30.1724 C   0  0  0  0  0  0  0  0  0  0  0  0
    5.5138    0.9837   31.0873 H   0  0  0  0  0  0  0  0  0  0  0  0
    6.6426   -0.2292   30.4692 H   0  0  0  0  0  0  0  0  0  0  0  0
    5.1264    0.0755   29.6109 H   0  0  0  0  0  0  0  0  0  0  0  0
    8.4352    0.3502   28.0431 C   0  0  0  0  0  0  0  0  0  0  0  0
    8.9290    0.1933   29.0004 H   0  0  0  0  0  0  0  0  0  0  0  0
    9.0574   -0.0846   26.8723 C   0  0  0  0  0  0  0  0  0  0  0  0
   10.0373   -0.5557   26.9559 H   0  0  0  0  0  0  0  0  0  0  0  0
    8.4114   -0.3732   23.0747 C   0  0  0  0  0  0  0  0  0  0  0  0
    7.0969   -0.2640   22.3667 C   0  0  0  0  0  0  0  0  0  0  0  0
    6.2992   -0.8286   22.8660 H   0  0  0  0  0  0  0  0  0  0  0  0
    6.7825    0.7859   22.3154 H   0  0  0  0  0  0  0  0  0  0  0  0
    5.4135    0.6002   20.0563 C   0  0  0  0  0  0  0  0  0  0  0  0
    4.9505    0.5977   21.0452 H   0  0  0  0  0  0  0  0  0  0  0  0
    4.8007    1.2947   19.0110 C   0  0  0  0  0  0  0  0  0  0  0  0
    3.8878    1.8540   19.1715 H   0  0  0  0  0  0  0  0  0  0  0  0
  1  2  1  0
  2  3  2  0
  3  4  1  0
  4  5  1  0
  4  6  2  0
  6  7  1  0
  7  8  1  1
  7  9  1  0
  9 10  1  0
  9 11  1  0
  9 12  1  0
 12 13  2  0
 13 14  1  0
 14 15  1  0
 14 16  1  0
 16 17  1  0
 17 18  2  0
 18 19  1  0
 18 20  1  0
 20 21  1  0
 20 22  2  0
 22 23  1  0
 23 24  1  0
 23 25  1  0
 23 26  1  0
 26 27  1  0
 26 28  1  0
 26 29  1  0
 22 30  1  0
 30 31  1  0
 30 32  2  0
 32 33  1  0
 16 34  2  0
 34 35  1  0
 35 36  1  0
 35 37  1  0
  6 38  1  0
 38 39  1  0
 38 40  2  0
 40 41  1  0
 40  2  1  0
 35  7  1  0
 34 12  1  0
 32 17  1  0
M  END
>  <cnnaffinity>  (1) 
-5.05781

>  <filename>  (1) 
CCc1ccc(-c2[nH]nc3c2C[C@@H](c2cccnc2)C3)cc1

$$$$
