
     RDKit          3D

 27 28  0  0  0  0  0  0  0  0999 V2000
    4.9102    1.7854   16.9900 H   0  0  0  0  0  0  0  0  0  0  0  0
    5.3971    1.2980   17.8307 C   0  0  0  0  0  0  0  0  0  0  0  0
    6.5604    0.6833   17.5648 N   0  0  0  0  0  0  0  0  0  0  0  0
    7.1843    0.0803   18.5824 C   0  0  0  0  0  0  0  0  0  0  0  0
    8.1198   -0.4306   18.3659 H   0  0  0  0  0  0  0  0  0  0  0  0
    6.6727    0.0352   19.8913 C   0  0  0  0  0  0  0  0  0  0  0  0
    7.3595   -0.6680   20.9393 N   0  0  0  0  0  0  0  0  0  0  0  0
    8.6355   -0.2649   21.2867 C   0  0  0  0  0  0  0  0  0  0  0  0
    9.0361    0.5686   20.7062 H   0  0  0  0  0  0  0  0  0  0  0  0
    9.3465   -0.8676   22.2827 C   0  0  0  0  0  0  0  0  0  0  0  0
   10.7592   -0.4453   22.6043 C   0  0  0  0  0  0  0  0  0  0  0  0
   10.8734    0.6378   22.4559 H   0  0  0  0  0  0  0  0  0  0  0  0
   10.9525   -0.6325   23.6659 H   0  0  0  0  0  0  0  0  0  0  0  0
   11.7786   -1.1988   21.7474 C   0  0  0  0  0  0  0  0  0  0  0  0
   11.6936   -2.2797   21.9050 H   0  0  0  0  0  0  0  0  0  0  0  0
   12.8008   -0.8899   21.9821 H   0  0  0  0  0  0  0  0  0  0  0  0
   11.6011   -1.0060   20.6855 H   0  0  0  0  0  0  0  0  0  0  0  0
    8.7411   -1.9761   22.9623 C   0  0  0  0  0  0  0  0  0  0  0  0
    9.3081   -2.4811   23.7494 H   0  0  0  0  0  0  0  0  0  0  0  0
    7.4893   -2.3907   22.6420 C   0  0  0  0  0  0  0  0  0  0  0  0
    6.9817   -3.2134   23.1271 H   0  0  0  0  0  0  0  0  0  0  0  0
    6.6994   -1.7627   21.5993 C   0  0  0  0  0  0  0  0  0  0  0  0
    5.5863   -2.1435   21.2771 O   0  0  0  0  0  0  0  0  0  0  0  0
    5.4488    0.6577   20.1564 C   0  0  0  0  0  0  0  0  0  0  0  0
    5.0217    0.6094   21.1613 H   0  0  0  0  0  0  0  0  0  0  0  0
    4.8103    1.3155   19.1017 C   0  0  0  0  0  0  0  0  0  0  0  0
    3.8750    1.8420   19.2581 H   0  0  0  0  0  0  0  0  0  0  0  0
  1  2  1  0
  2  3  2  0
  3  4  1  0
  4  5  1  0
  4  6  2  0
  6  7  1  0
  7  8  1  0
  8  9  1  0
  8 10  2  0
 10 11  1  0
 11 12  1  0
 11 13  1  0
 11 14  1  0
 14 15  1  0
 14 16  1  0
 14 17  1  0
 10 18  1  0
 18 19  1  0
 18 20  2  0
 20 21  1  0
 20 22  1  0
 22 23  2  0
  6 24  1  0
 24 25  1  0
 24 26  2  0
 26 27  1  0
 26  2  1  0
 22  7  1  0
M  END
>  <cnnaffinity>  (1) 
-4.78007

>  <filename>  (1) 
CCc1ccc(=O)n(-c2cccnc2)c1

$$$$
