
     RDKit          3D

 36 39  0  0  0  0  0  0  0  0999 V2000
    4.9096    1.7702   17.0072 H   0  0  0  0  0  0  0  0  0  0  0  0
    5.4055    1.2877   17.8486 C   0  0  0  0  0  0  0  0  0  0  0  0
    6.5746    0.6746   17.5946 N   0  0  0  0  0  0  0  0  0  0  0  0
    7.1847    0.0550   18.6125 C   0  0  0  0  0  0  0  0  0  0  0  0
    8.1319   -0.4368   18.3825 H   0  0  0  0  0  0  0  0  0  0  0  0
    6.6538    0.0119   19.9089 C   0  0  0  0  0  0  0  0  0  0  0  0
    7.3634   -0.6898   20.9680 C   0  0  0  0  0  0  0  0  0  0  0  0
    8.5451   -1.3318   20.7607 N   0  0  0  0  0  0  0  0  0  0  0  0
    8.7917   -1.8075   21.9608 C   0  0  0  0  0  0  0  0  0  0  0  0
    9.9856   -2.8217   22.7166 S   0  0  0  0  0  0  0  0  0  0  0  0
    9.0885   -2.7531   24.2092 C   0  0  0  0  0  0  0  0  0  0  0  0
    9.4629   -3.2712   25.0779 H   0  0  0  0  0  0  0  0  0  0  0  0
    7.9683   -2.0006   24.1295 C   0  0  0  0  0  0  0  0  0  0  0  0
    6.9871   -1.7407   25.2009 C   0  0  0  0  0  0  0  0  0  0  0  0
    6.2667   -0.5313   25.2818 C   0  0  0  0  0  0  0  0  0  0  0  0
    6.4224    0.2449   24.5387 H   0  0  0  0  0  0  0  0  0  0  0  0
    5.3612   -0.3293   26.3163 C   0  0  0  0  0  0  0  0  0  0  0  0
    4.8186    0.6124   26.3669 H   0  0  0  0  0  0  0  0  0  0  0  0
    5.1358   -1.3146   27.2918 C   0  0  0  0  0  0  0  0  0  0  0  0
    4.1890   -1.0624   28.4340 C   0  0  0  0  0  0  0  0  0  0  0  0
    3.3628   -0.4237   28.0968 H   0  0  0  0  0  0  0  0  0  0  0  0
    3.7440   -2.0102   28.7614 H   0  0  0  0  0  0  0  0  0  0  0  0
    4.9023   -0.3973   29.6115 C   0  0  0  0  0  0  0  0  0  0  0  0
    5.7151   -1.0355   29.9737 H   0  0  0  0  0  0  0  0  0  0  0  0
    5.3317    0.5624   29.3041 H   0  0  0  0  0  0  0  0  0  0  0  0
    4.2022   -0.2225   30.4315 H   0  0  0  0  0  0  0  0  0  0  0  0
    5.8780   -2.5037   27.2236 C   0  0  0  0  0  0  0  0  0  0  0  0
    5.7407   -3.2677   27.9848 H   0  0  0  0  0  0  0  0  0  0  0  0
    6.7861   -2.7194   26.1937 C   0  0  0  0  0  0  0  0  0  0  0  0
    7.3286   -3.6610   26.1550 H   0  0  0  0  0  0  0  0  0  0  0  0
    7.8312   -1.4660   22.8418 N   0  0  0  0  0  0  0  0  0  0  0  0
    6.8757   -0.7399   22.2056 N   0  0  0  0  0  0  0  0  0  0  0  0
    5.4372    0.6544   20.1634 C   0  0  0  0  0  0  0  0  0  0  0  0
    5.0069    0.6290   21.1637 H   0  0  0  0  0  0  0  0  0  0  0  0
    4.8058    1.3102   19.1138 C   0  0  0  0  0  0  0  0  0  0  0  0
    3.8715    1.8453   19.2674 H   0  0  0  0  0  0  0  0  0  0  0  0
  1  2  1  0
  2  3  2  0
  3  4  1  0
  4  5  1  0
  4  6  2  0
  6  7  1  0
  7  8  1  0
  8  9  2  0
  9 10  1  0
 10 11  1  0
 11 12  1  0
 11 13  2  0
 13 14  1  0
 14 15  2  0
 15 16  1  0
 15 17  1  0
 17 18  1  0
 17 19  2  0
 19 20  1  0
 20 21  1  0
 20 22  1  0
 20 23  1  0
 23 24  1  0
 23 25  1  0
 23 26  1  0
 19 27  1  0
 27 28  1  0
 27 29  2  0
 29 30  1  0
 13 31  1  0
 31 32  1  0
  6 33  1  0
 33 34  1  0
 33 35  2  0
 35 36  1  0
 35  2  1  0
 32  7  2  0
 31  9  1  0
 29 14  1  0
M  END
>  <cnnaffinity>  (1) 
-5.63684

>  <filename>  (1) 
CCc1ccc(-c2csc3nc(-c4cccnc4)nn23)cc1

$$$$
