
     RDKit          3D

 35 37  0  0  0  0  0  0  0  0999 V2000
    4.8994    1.8251   16.9512 H   0  0  0  0  0  0  0  0  0  0  0  0
    5.3836    1.3108   17.7804 C   0  0  0  0  0  0  0  0  0  0  0  0
    6.5332    0.6770   17.5006 N   0  0  0  0  0  0  0  0  0  0  0  0
    7.1743    0.0661   18.5041 C   0  0  0  0  0  0  0  0  0  0  0  0
    8.1154   -0.4216   18.2616 H   0  0  0  0  0  0  0  0  0  0  0  0
    6.7018    0.0397   19.8330 C   0  0  0  0  0  0  0  0  0  0  0  0
    7.4003   -0.6251   20.8799 N   0  0  0  0  0  0  0  0  0  0  0  0
    6.7991   -1.4334   21.8365 C   0  0  0  0  0  0  0  0  0  0  0  0
    5.7301   -1.5784   21.8191 H   0  0  0  0  0  0  0  0  0  0  0  0
    7.7444   -1.9090   22.6772 C   0  0  0  0  0  0  0  0  0  0  0  0
    7.6224   -2.7505   23.8766 C   0  0  0  0  0  0  0  0  0  0  0  0
    8.6414   -2.8334   24.8466 C   0  0  0  0  0  0  0  0  0  0  0  0
    9.5783   -2.3056   24.6904 H   0  0  0  0  0  0  0  0  0  0  0  0
    8.4637   -3.5752   26.0109 C   0  0  0  0  0  0  0  0  0  0  0  0
    9.2837   -3.6613   26.7279 H   0  0  0  0  0  0  0  0  0  0  0  0
    7.2447   -4.2348   26.2642 C   0  0  0  0  0  0  0  0  0  0  0  0
    7.0595   -5.0321   27.5335 C   0  0  0  0  0  0  0  0  0  0  0  0
    5.9997   -5.0620   27.8232 H   0  0  0  0  0  0  0  0  0  0  0  0
    7.5807   -4.5355   28.3602 H   0  0  0  0  0  0  0  0  0  0  0  0
    7.5957   -6.4475   27.3047 C   0  0  0  0  0  0  0  0  0  0  0  0
    7.5583   -7.0997   28.1839 H   0  0  0  0  0  0  0  0  0  0  0  0
    8.6339   -6.4108   26.9573 H   0  0  0  0  0  0  0  0  0  0  0  0
    7.0133   -6.9106   26.5005 H   0  0  0  0  0  0  0  0  0  0  0  0
    6.2602   -4.2291   25.2610 C   0  0  0  0  0  0  0  0  0  0  0  0
    5.3526   -4.8193   25.4007 H   0  0  0  0  0  0  0  0  0  0  0  0
    6.4417   -3.4916   24.0923 C   0  0  0  0  0  0  0  0  0  0  0  0
    5.6672   -3.5019   23.3313 H   0  0  0  0  0  0  0  0  0  0  0  0
    8.9503   -1.3678   22.2302 N   0  0  0  0  0  0  0  0  0  0  0  0
    9.8851   -1.6438   22.4584 H   0  0  0  0  0  0  0  0  0  0  0  0
    8.7856   -0.6031   21.1048 C   0  0  0  0  0  0  0  0  0  0  0  0
    9.6668   -0.0618   20.4694 O   0  0  0  0  0  0  0  0  0  0  0  0
    5.4869    0.6796   20.1048 C   0  0  0  0  0  0  0  0  0  0  0  0
    5.0961    0.6901   21.1220 H   0  0  0  0  0  0  0  0  0  0  0  0
    4.8219    1.3257   19.0598 C   0  0  0  0  0  0  0  0  0  0  0  0
    3.8865    1.8415   19.2266 H   0  0  0  0  0  0  0  0  0  0  0  0
  1  2  1  0
  2  3  2  0
  3  4  1  0
  4  5  1  0
  4  6  2  0
  6  7  1  0
  7  8  1  0
  8  9  1  0
  8 10  2  0
 10 11  1  0
 11 12  2  0
 12 13  1  0
 12 14  1  0
 14 15  1  0
 14 16  2  0
 16 17  1  0
 17 18  1  0
 17 19  1  0
 17 20  1  0
 20 21  1  0
 20 22  1  0
 20 23  1  0
 16 24  1  0
 24 25  1  0
 24 26  2  0
 26 27  1  0
 10 28  1  0
 28 29  1  0
 28 30  1  0
 30 31  2  0
  6 32  1  0
 32 33  1  0
 32 34  2  0
 34 35  1  0
 34  2  1  0
 30  7  1  0
 26 11  1  0
M  END
>  <cnnaffinity>  (1) 
-5.33943

>  <filename>  (1) 
CCc1ccc(-c2cn(-c3cccnc3)c(=O)[nH]2)cc1

$$$$
