
     RDKit          3D

 26 27  0  0  0  0  0  0  0  0999 V2000
    5.0086    1.7683   16.9914 H   0  0  0  0  0  0  0  0  0  0  0  0
    5.4887    1.2905   17.8427 C   0  0  0  0  0  0  0  0  0  0  0  0
    6.6764    0.7079   17.6025 N   0  0  0  0  0  0  0  0  0  0  0  0
    7.2941    0.1098   18.6278 C   0  0  0  0  0  0  0  0  0  0  0  0
    8.2617   -0.3474   18.4322 H   0  0  0  0  0  0  0  0  0  0  0  0
    6.7309    0.0196   19.9127 C   0  0  0  0  0  0  0  0  0  0  0  0
    7.4130   -0.7003   20.9428 N   0  0  0  0  0  0  0  0  0  0  0  0
    8.7242   -0.3483   21.1361 N   0  0  0  0  0  0  0  0  0  0  0  0
    9.3795   -0.8827   22.1294 C   0  0  0  0  0  0  0  0  0  0  0  0
   10.7969   -0.4061   22.3687 C   0  0  0  0  0  0  0  0  0  0  0  0
   10.8622    0.6461   22.0571 H   0  0  0  0  0  0  0  0  0  0  0  0
   10.9760   -0.4195   23.4513 H   0  0  0  0  0  0  0  0  0  0  0  0
   11.8524   -1.2722   21.6454 C   0  0  0  0  0  0  0  0  0  0  0  0
   12.8588   -1.0562   22.0210 H   0  0  0  0  0  0  0  0  0  0  0  0
   11.6533   -2.3456   21.7728 H   0  0  0  0  0  0  0  0  0  0  0  0
   11.8611   -1.0714   20.5721 H   0  0  0  0  0  0  0  0  0  0  0  0
    8.7915   -1.9102   22.9680 C   0  0  0  0  0  0  0  0  0  0  0  0
    9.3923   -2.3610   23.7572 H   0  0  0  0  0  0  0  0  0  0  0  0
    7.5118   -2.3006   22.7445 C   0  0  0  0  0  0  0  0  0  0  0  0
    6.9773   -3.0364   23.3312 H   0  0  0  0  0  0  0  0  0  0  0  0
    6.7298   -1.7456   21.6472 C   0  0  0  0  0  0  0  0  0  0  0  0
    5.6188   -2.1392   21.3329 O   0  0  0  0  0  0  0  0  0  0  0  0
    5.4932    0.6244   20.1593 C   0  0  0  0  0  0  0  0  0  0  0  0
    5.0408    0.5763   21.1488 H   0  0  0  0  0  0  0  0  0  0  0  0
    4.8717    1.2880   19.0964 C   0  0  0  0  0  0  0  0  0  0  0  0
    3.9230    1.7934   19.2288 H   0  0  0  0  0  0  0  0  0  0  0  0
  1  2  1  0
  2  3  2  0
  3  4  1  0
  4  5  1  0
  4  6  2  0
  6  7  1  0
  7  8  1  0
  8  9  2  0
  9 10  1  0
 10 11  1  0
 10 12  1  0
 10 13  1  0
 13 14  1  0
 13 15  1  0
 13 16  1  0
  9 17  1  0
 17 18  1  0
 17 19  2  0
 19 20  1  0
 19 21  1  0
 21 22  2  0
  6 23  1  0
 23 24  1  0
 23 25  2  0
 25 26  1  0
 25  2  1  0
 21  7  1  0
M  END
>  <cnnaffinity>  (1) 
-4.76605

>  <filename>  (1) 
CCc1ccc(=O)n(-c2cccnc2)n1

$$$$
