
     RDKit          3D

 41 44  0  0  0  0  0  0  0  0999 V2000
    5.0114    1.8431   16.9164 H   0  0  0  0  0  0  0  0  0  0  0  0
    5.4261    1.2872   17.7585 C   0  0  0  0  0  0  0  0  0  0  0  0
    6.5637    0.6165   17.5261 N   0  0  0  0  0  0  0  0  0  0  0  0
    7.1233   -0.0249   18.5551 C   0  0  0  0  0  0  0  0  0  0  0  0
    8.0336   -0.5748   18.3240 H   0  0  0  0  0  0  0  0  0  0  0  0
    6.6116   -0.0112   19.8686 C   0  0  0  0  0  0  0  0  0  0  0  0
    7.3708   -0.6372   20.9662 C   0  0  0  0  0  0  0  0  0  0  0  0
    8.0647   -1.7565   20.7657 N   0  0  0  0  0  0  0  0  0  0  0  0
    8.5711   -2.0354   21.9672 N   0  0  0  0  0  0  0  0  0  0  0  0
    8.2924   -1.1666   22.9347 C   0  0  0  0  0  0  0  0  0  0  0  0
    7.4993   -0.2022   22.3287 C   0  0  0  0  0  0  0  0  0  0  0  0
    7.0584    1.0289   22.9675 C   0  0  0  0  0  0  0  0  0  0  0  0
    7.2048    2.2646   22.3193 C   0  0  0  0  0  0  0  0  0  0  0  0
    7.5749    2.2898   21.2954 H   0  0  0  0  0  0  0  0  0  0  0  0
    6.8932    3.4403   22.9873 C   0  0  0  0  0  0  0  0  0  0  0  0
    7.0487    4.3934   22.4881 H   0  0  0  0  0  0  0  0  0  0  0  0
    6.4010    3.4157   24.3025 C   0  0  0  0  0  0  0  0  0  0  0  0
    6.1361    4.7032   25.0399 C   0  0  0  0  0  0  0  0  0  0  0  0
    5.8023    5.4636   24.3213 H   0  0  0  0  0  0  0  0  0  0  0  0
    5.3117    4.5493   25.7473 H   0  0  0  0  0  0  0  0  0  0  0  0
    7.3753    5.2132   25.7888 C   0  0  0  0  0  0  0  0  0  0  0  0
    7.7130    4.4793   26.5302 H   0  0  0  0  0  0  0  0  0  0  0  0
    7.1509    6.1522   26.3047 H   0  0  0  0  0  0  0  0  0  0  0  0
    8.2053    5.3860   25.0933 H   0  0  0  0  0  0  0  0  0  0  0  0
    6.2304    2.1718   24.9325 C   0  0  0  0  0  0  0  0  0  0  0  0
    5.8489    2.1351   25.9498 H   0  0  0  0  0  0  0  0  0  0  0  0
    6.5649    0.9910   24.2792 C   0  0  0  0  0  0  0  0  0  0  0  0
    6.4354    0.0318   24.7811 H   0  0  0  0  0  0  0  0  0  0  0  0
    9.0574   -1.5126   24.1983 C   0  0  0  0  0  0  0  0  0  0  0  0
    8.3850   -1.7453   25.0302 H   0  0  0  0  0  0  0  0  0  0  0  0
    9.7076   -0.6942   24.5272 H   0  0  0  0  0  0  0  0  0  0  0  0
    9.8922   -2.7543   23.7730 C   0  0  0  0  0  0  0  0  0  0  0  0
    9.7120   -3.6001   24.4385 H   0  0  0  0  0  0  0  0  0  0  0  0
   10.9570   -2.5349   23.8028 H   0  0  0  0  0  0  0  0  0  0  0  0
    9.5014   -3.0754   22.3051 C   0  0  0  0  0  0  0  0  0  0  0  0
    9.0182   -4.0472   22.1802 H   0  0  0  0  0  0  0  0  0  0  0  0
   10.3603   -2.9739   21.6422 H   0  0  0  0  0  0  0  0  0  0  0  0
    5.3793    0.6368   20.0749 C   0  0  0  0  0  0  0  0  0  0  0  0
    4.9017    0.6395   21.0571 H   0  0  0  0  0  0  0  0  0  0  0  0
    4.7862    1.2972   19.0006 C   0  0  0  0  0  0  0  0  0  0  0  0
    3.8515    1.8334   19.1115 H   0  0  0  0  0  0  0  0  0  0  0  0
  1  2  1  0
  2  3  2  0
  3  4  1  0
  4  5  1  0
  4  6  2  0
  6  7  1  0
  7  8  2  0
  8  9  1  0
  9 10  1  0
 10 11  2  0
 11 12  1  0
 12 13  2  0
 13 14  1  0
 13 15  1  0
 15 16  1  0
 15 17  2  0
 17 18  1  0
 18 19  1  0
 18 20  1  0
 18 21  1  0
 21 22  1  0
 21 23  1  0
 21 24  1  0
 17 25  1  0
 25 26  1  0
 25 27  2  0
 27 28  1  0
 10 29  1  0
 29 30  1  0
 29 31  1  0
 29 32  1  0
 32 33  1  0
 32 34  1  0
 32 35  1  0
 35 36  1  0
 35 37  1  0
  6 38  1  0
 38 39  1  0
 38 40  2  0
 40 41  1  0
 40  2  1  0
 11  7  1  0
 27 12  1  0
 35  9  1  0
M  END
>  <cnnaffinity>  (1) 
-5.57701

>  <filename>  (1) 
CCc1ccc(-c2c(-c3cccnc3)nn3c2CCC3)cc1

$$$$
