
     RDKit          3D

 38 41  0  0  0  0  0  0  0  0999 V2000
    4.9930    1.8651   16.8647 H   0  0  0  0  0  0  0  0  0  0  0  0
    5.4196    1.3079   17.6978 C   0  0  0  0  0  0  0  0  0  0  0  0
    6.5596    0.6449   17.4541 N   0  0  0  0  0  0  0  0  0  0  0  0
    7.1309   -0.0126   18.4695 C   0  0  0  0  0  0  0  0  0  0  0  0
    8.0581   -0.5313   18.2365 H   0  0  0  0  0  0  0  0  0  0  0  0
    6.6070   -0.0401   19.7747 C   0  0  0  0  0  0  0  0  0  0  0  0
    7.3762   -0.6367   20.8861 C   0  0  0  0  0  0  0  0  0  0  0  0
    8.5180   -1.3103   20.6695 N   0  0  0  0  0  0  0  0  0  0  0  0
    8.9479   -1.5746   21.9191 N   0  0  0  0  0  0  0  0  0  0  0  0
   10.0540   -2.2179   22.4551 C   0  0  0  0  0  0  0  0  0  0  0  0
   10.7918   -2.6761   21.8262 H   0  0  0  0  0  0  0  0  0  0  0  0
    9.9259   -2.1040   23.8041 C   0  0  0  0  0  0  0  0  0  0  0  0
   10.5388   -2.4905   24.5971 H   0  0  0  0  0  0  0  0  0  0  0  0
    8.7566   -1.4041   24.1064 N   0  0  0  0  0  0  0  0  0  0  0  0
    8.2828   -1.0207   25.3900 C   0  0  0  0  0  0  0  0  0  0  0  0
    6.8991   -0.9396   25.6216 C   0  0  0  0  0  0  0  0  0  0  0  0
    6.2207   -1.2677   24.8421 H   0  0  0  0  0  0  0  0  0  0  0  0
    6.4106   -0.4154   26.8190 C   0  0  0  0  0  0  0  0  0  0  0  0
    5.3364   -0.3151   26.9517 H   0  0  0  0  0  0  0  0  0  0  0  0
    7.2793    0.0208   27.8332 C   0  0  0  0  0  0  0  0  0  0  0  0
    6.7816    0.7613   29.0583 C   0  0  0  0  0  0  0  0  0  0  0  0
    7.5067    0.6461   29.8755 H   0  0  0  0  0  0  0  0  0  0  0  0
    5.8458    0.3135   29.4195 H   0  0  0  0  0  0  0  0  0  0  0  0
    6.5603    2.2678   28.8272 C   0  0  0  0  0  0  0  0  0  0  0  0
    7.4789    2.7620   28.4887 H   0  0  0  0  0  0  0  0  0  0  0  0
    5.7842    2.4596   28.0764 H   0  0  0  0  0  0  0  0  0  0  0  0
    6.2501    2.7462   29.7626 H   0  0  0  0  0  0  0  0  0  0  0  0
    8.6519   -0.1872   27.6378 C   0  0  0  0  0  0  0  0  0  0  0  0
    9.3316    0.0255   28.4572 H   0  0  0  0  0  0  0  0  0  0  0  0
    9.1594   -0.6745   26.4309 C   0  0  0  0  0  0  0  0  0  0  0  0
   10.2334   -0.7370   26.2936 H   0  0  0  0  0  0  0  0  0  0  0  0
    8.1504   -1.0963   22.8938 C   0  0  0  0  0  0  0  0  0  0  0  0
    7.0708   -0.4942   22.2620 C   0  0  0  0  0  0  0  0  0  0  0  0
    6.1883   -0.0437   22.6817 H   0  0  0  0  0  0  0  0  0  0  0  0
    5.3837    0.6167   19.9940 C   0  0  0  0  0  0  0  0  0  0  0  0
    4.9105    0.6004   20.9753 H   0  0  0  0  0  0  0  0  0  0  0  0
    4.7871    1.3086   18.9441 C   0  0  0  0  0  0  0  0  0  0  0  0
    3.8676    1.8652   19.0872 H   0  0  0  0  0  0  0  0  0  0  0  0
  1  2  1  0
  2  3  2  0
  3  4  1  0
  4  5  1  0
  4  6  2  0
  6  7  1  0
  7  8  2  0
  8  9  1  0
  9 10  1  0
 10 11  1  0
 10 12  2  0
 12 13  1  0
 12 14  1  0
 14 15  1  0
 15 16  2  0
 16 17  1  0
 16 18  1  0
 18 19  1  0
 18 20  2  0
 20 21  1  0
 21 22  1  0
 21 23  1  0
 21 24  1  0
 24 25  1  0
 24 26  1  0
 24 27  1  0
 20 28  1  0
 28 29  1  0
 28 30  2  0
 30 31  1  0
 14 32  1  0
 32 33  2  0
 33 34  1  0
  6 35  1  0
 35 36  1  0
 35 37  2  0
 37 38  1  0
 37  2  1  0
 33  7  1  0
 32  9  1  0
 30 15  1  0
M  END
>  <cnnaffinity>  (1) 
-5.4255

>  <filename>  (1) 
CCc1ccc(-n2ccn3nc(-c4cccnc4)cc23)cc1

$$$$
