
     RDKit          3D

 43 44  0  0  0  0  0  0  0  0999 V2000
    8.4092   -3.7648   21.5249 H   0  0  0  0  0  0  0  0  0  0  0  0
    8.2073   -2.7144   21.7141 C   0  0  0  0  0  0  0  0  0  0  0  0
    7.6207   -2.0295   20.7150 N   0  0  0  0  0  0  0  0  0  0  0  0
    7.3516   -0.7321   20.9577 C   0  0  0  0  0  0  0  0  0  0  0  0
    6.6161   -0.0303   19.8729 C   0  0  0  0  0  0  0  0  0  0  0  0
    7.1004   -0.1184   18.5575 C   0  0  0  0  0  0  0  0  0  0  0  0
    7.9752   -0.7263   18.3334 H   0  0  0  0  0  0  0  0  0  0  0  0
    6.5564    0.5297   17.5223 N   0  0  0  0  0  0  0  0  0  0  0  0
    5.4549    1.2617   17.7588 C   0  0  0  0  0  0  0  0  0  0  0  0
    5.0464    1.7969   16.9057 H   0  0  0  0  0  0  0  0  0  0  0  0
    4.8455    1.3526   19.0134 C   0  0  0  0  0  0  0  0  0  0  0  0
    3.9492    1.9492   19.1389 H   0  0  0  0  0  0  0  0  0  0  0  0
    5.4406    0.7026   20.0940 C   0  0  0  0  0  0  0  0  0  0  0  0
    5.0001    0.7540   21.0906 H   0  0  0  0  0  0  0  0  0  0  0  0
    7.7672   -0.0930   22.1772 C   0  0  0  0  0  0  0  0  0  0  0  0
    7.7120    1.4091   22.3538 C   0  0  0  0  0  0  0  0  0  0  0  0
    6.7127    1.7895   22.1274 H   0  0  0  0  0  0  0  0  0  0  0  0
    7.8979    1.6285   23.4077 H   0  0  0  0  0  0  0  0  0  0  0  0
    8.7333    2.1238   21.4467 C   0  0  0  0  0  0  0  0  0  0  0  0
    8.4818    1.8730   20.4086 H   0  0  0  0  0  0  0  0  0  0  0  0
    8.5937    3.2082   21.5400 H   0  0  0  0  0  0  0  0  0  0  0  0
   10.1976    1.7521   21.7355 C   0  0  0  0  0  0  0  0  0  0  0  0
   10.8528    2.3208   21.0596 H   0  0  0  0  0  0  0  0  0  0  0  0
   10.3519    0.6929   21.4836 H   0  0  0  0  0  0  0  0  0  0  0  0
   10.6094    1.9674   23.2026 C   0  0  0  0  0  0  0  0  0  0  0  0
   10.4148    3.0108   23.4977 H   0  0  0  0  0  0  0  0  0  0  0  0
    9.9462    1.3660   23.8387 H   0  0  0  0  0  0  0  0  0  0  0  0
   12.0471    1.5548   23.5564 C   0  0  0  0  0  0  0  0  0  0  0  0
   12.1147    0.4602   23.5005 H   0  0  0  0  0  0  0  0  0  0  0  0
   12.2437    1.8045   24.6098 H   0  0  0  0  0  0  0  0  0  0  0  0
   13.1998    2.1166   22.7163 C   0  0  0  0  0  0  0  0  0  0  0  0
   13.0066    1.8522   21.6686 H   0  0  0  0  0  0  0  0  0  0  0  0
   14.1062    1.5566   22.9909 H   0  0  0  0  0  0  0  0  0  0  0  0
   13.4567    3.6345   22.8491 C   0  0  0  0  0  0  0  0  0  0  0  0
   13.1131    3.9771   23.8361 H   0  0  0  0  0  0  0  0  0  0  0  0
   14.5386    3.8193   22.8349 H   0  0  0  0  0  0  0  0  0  0  0  0
   12.7993    4.4916   21.7593 C   0  0  0  0  0  0  0  0  0  0  0  0
   11.7052    4.4401   21.8120 H   0  0  0  0  0  0  0  0  0  0  0  0
   13.0751    5.5508   21.8437 H   0  0  0  0  0  0  0  0  0  0  0  0
   13.1061    4.1553   20.7591 H   0  0  0  0  0  0  0  0  0  0  0  0
    8.3520   -0.8013   23.1665 N   0  0  0  0  0  0  0  0  0  0  0  0
    8.5589   -2.1123   22.9296 C   0  0  0  0  0  0  0  0  0  0  0  0
    9.0480   -2.6795   23.7164 H   0  0  0  0  0  0  0  0  0  0  0  0
  1  2  1  0
  2  3  2  0
  3  4  1  0
  4  5  1  0
  5  6  2  0
  6  7  1  0
  6  8  1  0
  8  9  2  0
  9 10  1  0
  9 11  1  0
 11 12  1  0
 11 13  2  0
 13 14  1  0
  4 15  2  0
 15 16  1  0
 16 17  1  0
 16 18  1  0
 16 19  1  0
 19 20  1  0
 19 21  1  0
 19 22  1  0
 22 23  1  0
 22 24  1  0
 22 25  1  0
 25 26  1  0
 25 27  1  0
 25 28  1  0
 28 29  1  0
 28 30  1  0
 28 31  1  0
 31 32  1  0
 31 33  1  0
 31 34  1  0
 34 35  1  0
 34 36  1  0
 34 37  1  0
 37 38  1  0
 37 39  1  0
 37 40  1  0
 15 41  1  0
 41 42  2  0
 42 43  1  0
 42  2  1  0
 13  5  1  0
M  END
>  <cnnaffinity>  (1) 
-5.43266

>  <filename>  (1) 
CCCCCCCCc1nccnc1-c1cccnc1

$$$$
