
     RDKit          3D

 49 51  0  0  0  0  0  0  0  0999 V2000
    4.9067    1.8885   16.9250 H   0  0  0  0  0  0  0  0  0  0  0  0
    5.3701    1.3249   17.7370 C   0  0  0  0  0  0  0  0  0  0  0  0
    6.5144    0.6856   17.4468 N   0  0  0  0  0  0  0  0  0  0  0  0
    7.1233    0.0299   18.4416 C   0  0  0  0  0  0  0  0  0  0  0  0
    8.0665   -0.4380   18.1635 H   0  0  0  0  0  0  0  0  0  0  0  0
    6.6456   -0.0437   19.7688 C   0  0  0  0  0  0  0  0  0  0  0  0
    7.4333   -0.6450   20.8736 C   0  0  0  0  0  0  0  0  0  0  0  0
    7.6368   -0.1784   22.1553 C   0  0  0  0  0  0  0  0  0  0  0  0
    8.5503   -1.0493   22.7459 C   0  0  0  0  0  0  0  0  0  0  0  0
    8.9159   -2.0295   21.9397 N   0  0  0  0  0  0  0  0  0  0  0  0
    8.2338   -1.7537   20.8003 N   0  0  0  0  0  0  0  0  0  0  0  0
    8.3343   -2.3817   20.0161 H   0  0  0  0  0  0  0  0  0  0  0  0
    8.8712   -0.6731   24.1639 C   0  0  0  0  0  0  0  0  0  0  0  0
    9.9452   -0.6067   24.3558 H   0  0  0  0  0  0  0  0  0  0  0  0
    8.4677   -1.4126   24.8659 H   0  0  0  0  0  0  0  0  0  0  0  0
    8.1903    0.7257   24.3154 C   0  0  2  0  0  0  0  0  0  0  0  0
    8.9834    1.4664   24.1593 H   0  0  0  0  0  0  0  0  0  0  0  0
    7.5389    0.9695   25.6842 C   0  0  0  0  0  0  0  0  0  0  0  0
    6.7172    0.2481   25.7898 H   0  0  0  0  0  0  0  0  0  0  0  0
    8.2518    0.7259   26.4859 H   0  0  0  0  0  0  0  0  0  0  0  0
    7.0078    2.3940   25.9028 C   0  0  0  0  0  0  0  0  0  0  0  0
    6.3942    2.7015   25.0427 H   0  0  0  0  0  0  0  0  0  0  0  0
    6.3250    2.3875   26.7626 H   0  0  0  0  0  0  0  0  0  0  0  0
    8.1188    3.4247   26.1375 C   0  0  0  0  0  0  0  0  0  0  0  0
    8.8648    3.3534   25.3333 H   0  0  0  0  0  0  0  0  0  0  0  0
    8.6525    3.1527   27.0573 H   0  0  0  0  0  0  0  0  0  0  0  0
    7.6401    4.8783   26.2384 C   0  0  0  0  0  0  0  0  0  0  0  0
    7.2148    5.1798   25.2705 H   0  0  0  0  0  0  0  0  0  0  0  0
    8.5169    5.5238   26.3924 H   0  0  0  0  0  0  0  0  0  0  0  0
    6.6086    5.1610   27.3440 C   0  0  0  0  0  0  0  0  0  0  0  0
    6.3130    6.2191   27.2829 H   0  0  0  0  0  0  0  0  0  0  0  0
    5.6939    4.5833   27.1418 H   0  0  0  0  0  0  0  0  0  0  0  0
    7.1020    4.8543   28.7648 C   0  0  0  0  0  0  0  0  0  0  0  0
    8.0653    5.3626   28.9238 H   0  0  0  0  0  0  0  0  0  0  0  0
    7.3137    3.7779   28.8584 H   0  0  0  0  0  0  0  0  0  0  0  0
    6.1285    5.2746   29.8716 C   0  0  0  0  0  0  0  0  0  0  0  0
    5.9268    6.3532   29.7836 H   0  0  0  0  0  0  0  0  0  0  0  0
    5.1640    4.7654   29.7235 H   0  0  0  0  0  0  0  0  0  0  0  0
    6.6473    4.9760   31.2804 C   0  0  0  0  0  0  0  0  0  0  0  0
    6.8125    3.9017   31.4296 H   0  0  0  0  0  0  0  0  0  0  0  0
    7.5993    5.4868   31.4727 H   0  0  0  0  0  0  0  0  0  0  0  0
    5.9317    5.3092   32.0394 H   0  0  0  0  0  0  0  0  0  0  0  0
    7.1979    0.8787   23.1186 C   0  0  0  0  0  0  0  0  0  0  0  0
    7.2249    1.8862   22.6925 H   0  0  0  0  0  0  0  0  0  0  0  0
    6.1606    0.7138   23.4507 H   0  0  0  0  0  0  0  0  0  0  0  0
    5.4271    0.6073   20.0363 C   0  0  0  0  0  0  0  0  0  0  0  0
    4.9906    0.5732   21.0387 H   0  0  0  0  0  0  0  0  0  0  0  0
    4.7865    1.3011   19.0088 C   0  0  0  0  0  0  0  0  0  0  0  0
    3.8680    1.8454   19.1846 H   0  0  0  0  0  0  0  0  0  0  0  0
  1  2  1  0
  2  3  2  0
  3  4  1  0
  4  5  1  0
  4  6  2  0
  6  7  1  0
  7  8  2  0
  8  9  1  0
  9 10  2  0
 10 11  1  0
 11 12  1  0
  9 13  1  0
 13 14  1  0
 13 15  1  0
 13 16  1  0
 16 17  1  6
 16 18  1  0
 18 19  1  0
 18 20  1  0
 18 21  1  0
 21 22  1  0
 21 23  1  0
 21 24  1  0
 24 25  1  0
 24 26  1  0
 24 27  1  0
 27 28  1  0
 27 29  1  0
 27 30  1  0
 30 31  1  0
 30 32  1  0
 30 33  1  0
 33 34  1  0
 33 35  1  0
 33 36  1  0
 36 37  1  0
 36 38  1  0
 36 39  1  0
 39 40  1  0
 39 41  1  0
 39 42  1  0
 16 43  1  0
 43 44  1  0
 43 45  1  0
  6 46  1  0
 46 47  1  0
 46 48  2  0
 48 49  1  0
 48  2  1  0
 11  7  1  0
 43  8  1  0
M  END
>  <cnnaffinity>  (1) 
-5.45739

>  <filename>  (1) 
CCCCCCCC[C@H]1Cc2n[nH]c(-c3cccnc3)c2C1

$$$$
