
     RDKit          3D

 42 43  0  0  0  0  0  0  0  0999 V2000
    4.9242    1.8385   16.9536 H   0  0  0  0  0  0  0  0  0  0  0  0
    5.4025    1.3405   17.7929 C   0  0  0  0  0  0  0  0  0  0  0  0
    6.5651    0.7244   17.5223 N   0  0  0  0  0  0  0  0  0  0  0  0
    7.1779    0.0874   18.5280 C   0  0  0  0  0  0  0  0  0  0  0  0
    8.1214   -0.4068   18.2942 H   0  0  0  0  0  0  0  0  0  0  0  0
    6.6560    0.0167   19.8343 C   0  0  0  0  0  0  0  0  0  0  0  0
    7.3478   -0.6875   20.8882 N   0  0  0  0  0  0  0  0  0  0  0  0
    8.6198   -0.2765   21.2521 C   0  0  0  0  0  0  0  0  0  0  0  0
    8.9967    0.5892   20.7109 H   0  0  0  0  0  0  0  0  0  0  0  0
    9.3177   -0.9056   22.2354 C   0  0  0  0  0  0  0  0  0  0  0  0
   10.3164   -0.5614   22.4741 H   0  0  0  0  0  0  0  0  0  0  0  0
    8.7512   -2.0128   22.9409 C   0  0  0  0  0  0  0  0  0  0  0  0
    9.4549   -2.6503   24.1142 C   0  0  0  0  0  0  0  0  0  0  0  0
   10.5297   -2.7227   23.9135 H   0  0  0  0  0  0  0  0  0  0  0  0
    9.1033   -3.6833   24.2236 H   0  0  0  0  0  0  0  0  0  0  0  0
    9.2558   -1.8965   25.4350 C   0  0  0  0  0  0  0  0  0  0  0  0
    9.7387   -2.4774   26.2256 H   0  0  0  0  0  0  0  0  0  0  0  0
    9.7953   -0.9394   25.3827 H   0  0  0  0  0  0  0  0  0  0  0  0
    7.8163   -1.6814   25.9296 C   0  0  0  0  0  0  0  0  0  0  0  0
    7.3114   -2.6560   26.0259 H   0  0  0  0  0  0  0  0  0  0  0  0
    7.1955   -1.1022   25.2272 H   0  0  0  0  0  0  0  0  0  0  0  0
    7.8582   -0.9985   27.3065 C   0  0  0  0  0  0  0  0  0  0  0  0
    6.8736   -1.0426   27.7924 H   0  0  0  0  0  0  0  0  0  0  0  0
    8.5364   -1.5964   27.9319 H   0  0  0  0  0  0  0  0  0  0  0  0
    8.3683    0.4532   27.3096 C   0  0  0  0  0  0  0  0  0  0  0  0
    9.4254    0.4684   27.0128 H   0  0  0  0  0  0  0  0  0  0  0  0
    8.3529    0.8233   28.3429 H   0  0  0  0  0  0  0  0  0  0  0  0
    7.5898    1.4152   26.4087 C   0  0  0  0  0  0  0  0  0  0  0  0
    6.5176    1.3041   26.6112 H   0  0  0  0  0  0  0  0  0  0  0  0
    7.7343    1.1195   25.3624 H   0  0  0  0  0  0  0  0  0  0  0  0
    7.9807    2.8827   26.5757 C   0  0  0  0  0  0  0  0  0  0  0  0
    7.8073    3.2234   27.6019 H   0  0  0  0  0  0  0  0  0  0  0  0
    9.0390    3.0469   26.3480 H   0  0  0  0  0  0  0  0  0  0  0  0
    7.4013    3.5343   25.9124 H   0  0  0  0  0  0  0  0  0  0  0  0
    7.4921   -2.4135   22.5969 C   0  0  0  0  0  0  0  0  0  0  0  0
    6.9844   -3.2190   23.1009 H   0  0  0  0  0  0  0  0  0  0  0  0
    6.7013   -1.7822   21.5631 C   0  0  0  0  0  0  0  0  0  0  0  0
    5.5858   -2.1668   21.2518 O   0  0  0  0  0  0  0  0  0  0  0  0
    5.4385    0.6576   20.0994 C   0  0  0  0  0  0  0  0  0  0  0  0
    5.0182    0.6175   21.1033 H   0  0  0  0  0  0  0  0  0  0  0  0
    4.8013    1.3397   19.0570 C   0  0  0  0  0  0  0  0  0  0  0  0
    3.8576    1.8598   19.2063 H   0  0  0  0  0  0  0  0  0  0  0  0
  1  2  1  0
  2  3  2  0
  3  4  1  0
  4  5  1  0
  4  6  2  0
  6  7  1  0
  7  8  1  0
  8  9  1  0
  8 10  2  0
 10 11  1  0
 10 12  1  0
 12 13  1  0
 13 14  1  0
 13 15  1  0
 13 16  1  0
 16 17  1  0
 16 18  1  0
 16 19  1  0
 19 20  1  0
 19 21  1  0
 19 22  1  0
 22 23  1  0
 22 24  1  0
 22 25  1  0
 25 26  1  0
 25 27  1  0
 25 28  1  0
 28 29  1  0
 28 30  1  0
 28 31  1  0
 31 32  1  0
 31 33  1  0
 31 34  1  0
 12 35  2  0
 35 36  1  0
 35 37  1  0
 37 38  2  0
  6 39  1  0
 39 40  1  0
 39 41  2  0
 41 42  1  0
 41  2  1  0
 37  7  1  0
M  END
>  <cnnaffinity>  (1) 
-5.12384

>  <filename>  (1) 
CCCCCCCc1ccn(-c2cccnc2)c(=O)c1

$$$$
