
     RDKit          3D

 39 40  0  0  0  0  0  0  0  0999 V2000
    4.9714    1.8073   16.9728 H   0  0  0  0  0  0  0  0  0  0  0  0
    5.4321    1.2989   17.8174 C   0  0  0  0  0  0  0  0  0  0  0  0
    6.5873    0.6639   17.5747 N   0  0  0  0  0  0  0  0  0  0  0  0
    7.1803    0.0478   18.6096 C   0  0  0  0  0  0  0  0  0  0  0  0
    8.1094   -0.4716   18.3783 H   0  0  0  0  0  0  0  0  0  0  0  0
    6.6701    0.0209   19.9245 C   0  0  0  0  0  0  0  0  0  0  0  0
    7.3993   -0.6763   21.0152 C   0  0  0  0  0  0  0  0  0  0  0  0
    6.5987   -1.9023   21.9372 S   0  0  0  0  0  0  0  0  0  0  0  0
    7.9909   -2.1813   22.9058 C   0  0  0  0  0  0  0  0  0  0  0  0
    7.9669   -2.9188   23.7009 H   0  0  0  0  0  0  0  0  0  0  0  0
    9.0171   -1.3710   22.5446 C   0  0  0  0  0  0  0  0  0  0  0  0
    9.9883   -1.3785   23.0420 H   0  0  0  0  0  0  0  0  0  0  0  0
    8.6926   -0.4943   21.4584 C   0  0  0  0  0  0  0  0  0  0  0  0
    9.6193    0.6018   20.9994 C   0  0  0  0  0  0  0  0  0  0  0  0
   10.6561    0.2469   21.0492 H   0  0  0  0  0  0  0  0  0  0  0  0
    9.4224    0.8277   19.9489 H   0  0  0  0  0  0  0  0  0  0  0  0
    9.4866    1.8892   21.8302 C   0  0  0  0  0  0  0  0  0  0  0  0
   10.1741    2.6443   21.4236 H   0  0  0  0  0  0  0  0  0  0  0  0
    9.8193    1.6922   22.8598 H   0  0  0  0  0  0  0  0  0  0  0  0
    8.0669    2.4631   21.8807 C   0  0  0  0  0  0  0  0  0  0  0  0
    7.3996    1.7271   22.3588 H   0  0  0  0  0  0  0  0  0  0  0  0
    7.6758    2.5832   20.8616 H   0  0  0  0  0  0  0  0  0  0  0  0
    8.0425    3.8018   22.6311 C   0  0  0  0  0  0  0  0  0  0  0  0
    8.5752    3.6729   23.5841 H   0  0  0  0  0  0  0  0  0  0  0  0
    8.6222    4.5352   22.0488 H   0  0  0  0  0  0  0  0  0  0  0  0
    6.6513    4.4015   22.8835 C   0  0  0  0  0  0  0  0  0  0  0  0
    6.7306    5.1972   23.6419 H   0  0  0  0  0  0  0  0  0  0  0  0
    5.9916    3.6346   23.3132 H   0  0  0  0  0  0  0  0  0  0  0  0
    6.0050    4.9549   21.6036 C   0  0  0  0  0  0  0  0  0  0  0  0
    6.0519    4.1685   20.8359 H   0  0  0  0  0  0  0  0  0  0  0  0
    4.9354    5.1438   21.7653 H   0  0  0  0  0  0  0  0  0  0  0  0
    6.6670    6.2305   21.0560 C   0  0  0  0  0  0  0  0  0  0  0  0
    6.0930    6.6683   20.2301 H   0  0  0  0  0  0  0  0  0  0  0  0
    7.6698    6.0476   20.6629 H   0  0  0  0  0  0  0  0  0  0  0  0
    6.7926    6.9990   21.8276 H   0  0  0  0  0  0  0  0  0  0  0  0
    5.4413    0.6681   20.1411 C   0  0  0  0  0  0  0  0  0  0  0  0
    4.9923    0.6695   21.1359 H   0  0  0  0  0  0  0  0  0  0  0  0
    4.8172    1.3181   19.0752 C   0  0  0  0  0  0  0  0  0  0  0  0
    3.8785    1.8420   19.2027 H   0  0  0  0  0  0  0  0  0  0  0  0
  1  2  1  0
  2  3  2  0
  3  4  1  0
  4  5  1  0
  4  6  2  0
  6  7  1  0
  7  8  1  0
  8  9  1  0
  9 10  1  0
  9 11  2  0
 11 12  1  0
 11 13  1  0
 13 14  1  0
 14 15  1  0
 14 16  1  0
 14 17  1  0
 17 18  1  0
 17 19  1  0
 17 20  1  0
 20 21  1  0
 20 22  1  0
 20 23  1  0
 23 24  1  0
 23 25  1  0
 23 26  1  0
 26 27  1  0
 26 28  1  0
 26 29  1  0
 29 30  1  0
 29 31  1  0
 29 32  1  0
 32 33  1  0
 32 34  1  0
 32 35  1  0
  6 36  1  0
 36 37  1  0
 36 38  2  0
 38 39  1  0
 38  2  1  0
 13  7  2  0
M  END
>  <cnnaffinity>  (1) 
-5.04523

>  <filename>  (1) 
CCCCCCCc1ccsc1-c1cccnc1

$$$$
