
     RDKit          3D

 47 49  0  0  0  0  0  0  0  0999 V2000
    5.0496    1.7652   17.0099 H   0  0  0  0  0  0  0  0  0  0  0  0
    5.4517    1.2283   17.8674 C   0  0  0  0  0  0  0  0  0  0  0  0
    6.6005    0.5677   17.6625 N   0  0  0  0  0  0  0  0  0  0  0  0
    7.1334   -0.0689   18.7130 C   0  0  0  0  0  0  0  0  0  0  0  0
    8.0871   -0.5642   18.5283 H   0  0  0  0  0  0  0  0  0  0  0  0
    6.5681   -0.1215   20.0041 C   0  0  0  0  0  0  0  0  0  0  0  0
    7.3409   -0.7783   21.1394 C   0  0  0  0  0  0  0  0  0  0  0  0
    7.1737   -2.2402   21.4712 C   0  0  0  0  0  0  0  0  0  0  0  0
    8.0602   -3.1790   21.3490 N   0  0  0  0  0  0  0  0  0  0  0  0
    7.5207   -4.3269   21.9111 N   0  0  0  0  0  0  0  0  0  0  0  0
    6.3531   -3.9983   22.3561 C   0  0  0  0  0  0  0  0  0  0  0  0
    5.3266   -4.8508   23.0410 C   0  0  0  0  0  0  0  0  0  0  0  0
    5.8133   -5.7889   23.3282 H   0  0  0  0  0  0  0  0  0  0  0  0
    5.0096   -4.3430   23.9639 H   0  0  0  0  0  0  0  0  0  0  0  0
    4.1168   -5.1228   22.1249 C   0  0  0  0  0  0  0  0  0  0  0  0
    3.6669   -4.1552   21.8728 H   0  0  0  0  0  0  0  0  0  0  0  0
    4.4994   -5.5551   21.1876 H   0  0  0  0  0  0  0  0  0  0  0  0
    3.0436   -6.0805   22.6620 C   0  0  0  0  0  0  0  0  0  0  0  0
    3.5221   -7.0484   22.8890 H   0  0  0  0  0  0  0  0  0  0  0  0
    2.3275   -6.2731   21.8480 H   0  0  0  0  0  0  0  0  0  0  0  0
    2.2693   -5.5902   23.8942 C   0  0  0  0  0  0  0  0  0  0  0  0
    2.9821   -5.3856   24.7064 H   0  0  0  0  0  0  0  0  0  0  0  0
    1.7828   -4.6256   23.6646 H   0  0  0  0  0  0  0  0  0  0  0  0
    1.2110   -6.5741   24.4336 C   0  0  0  0  0  0  0  0  0  0  0  0
    0.9013   -6.2194   25.4275 H   0  0  0  0  0  0  0  0  0  0  0  0
    1.6723   -7.5626   24.6011 H   0  0  0  0  0  0  0  0  0  0  0  0
   -0.0589   -6.7462   23.5832 C   0  0  0  0  0  0  0  0  0  0  0  0
    0.1937   -7.1173   22.5772 H   0  0  0  0  0  0  0  0  0  0  0  0
   -0.5279   -5.7602   23.4354 H   0  0  0  0  0  0  0  0  0  0  0  0
   -1.0837   -7.6941   24.2288 C   0  0  0  0  0  0  0  0  0  0  0  0
   -1.3161   -7.3340   25.2435 H   0  0  0  0  0  0  0  0  0  0  0  0
   -0.6240   -8.6863   24.3529 H   0  0  0  0  0  0  0  0  0  0  0  0
   -2.3881   -7.8357   23.4365 C   0  0  0  0  0  0  0  0  0  0  0  0
   -2.8902   -6.8665   23.3192 H   0  0  0  0  0  0  0  0  0  0  0  0
   -3.0915   -8.5102   23.9400 H   0  0  0  0  0  0  0  0  0  0  0  0
   -2.2061   -8.2421   22.4333 H   0  0  0  0  0  0  0  0  0  0  0  0
    6.0493   -2.7009   22.0831 O   0  0  0  0  0  0  0  0  0  0  0  0
    8.7655   -0.2808   21.3161 C   0  0  0  0  0  0  0  0  0  0  0  0
    9.5046   -1.0237   21.6116 H   0  0  0  0  0  0  0  0  0  0  0  0
    9.1384    0.4566   20.6062 H   0  0  0  0  0  0  0  0  0  0  0  0
    7.7158    0.1308   22.3050 C   0  0  0  0  0  0  0  0  0  0  0  0
    7.3400    1.1519   22.2631 H   0  0  0  0  0  0  0  0  0  0  0  0
    7.7242   -0.2908   23.3067 H   0  0  0  0  0  0  0  0  0  0  0  0
    5.3597    0.5748   20.1859 C   0  0  0  0  0  0  0  0  0  0  0  0
    4.8825    0.6132   21.1682 H   0  0  0  0  0  0  0  0  0  0  0  0
    4.7948    1.2564   19.1011 C   0  0  0  0  0  0  0  0  0  0  0  0
    3.8860    1.8436   19.1974 H   0  0  0  0  0  0  0  0  0  0  0  0
  1  2  1  0
  2  3  2  0
  3  4  1  0
  4  5  1  0
  4  6  2  0
  6  7  1  0
  7  8  1  0
  8  9  2  0
  9 10  1  0
 10 11  2  0
 11 12  1  0
 12 13  1  0
 12 14  1  0
 12 15  1  0
 15 16  1  0
 15 17  1  0
 15 18  1  0
 18 19  1  0
 18 20  1  0
 18 21  1  0
 21 22  1  0
 21 23  1  0
 21 24  1  0
 24 25  1  0
 24 26  1  0
 24 27  1  0
 27 28  1  0
 27 29  1  0
 27 30  1  0
 30 31  1  0
 30 32  1  0
 30 33  1  0
 33 34  1  0
 33 35  1  0
 33 36  1  0
 11 37  1  0
  7 38  1  0
 38 39  1  0
 38 40  1  0
 38 41  1  0
 41 42  1  0
 41 43  1  0
  6 44  1  0
 44 45  1  0
 44 46  2  0
 46 47  1  0
 46  2  1  0
 41  7  1  0
 37  8  1  0
M  END
>  <cnnaffinity>  (1) 
-5.37739

>  <filename>  (1) 
CCCCCCCCc1nnc(C2(c3cccnc3)CC2)o1

$$$$
