
     RDKit          3D

 43 45  0  0  0  0  0  0  0  0999 V2000
    5.0017    1.8512   16.9429 H   0  0  0  0  0  0  0  0  0  0  0  0
    5.3939    1.2872   17.7886 C   0  0  0  0  0  0  0  0  0  0  0  0
    6.5263    0.6015   17.5697 N   0  0  0  0  0  0  0  0  0  0  0  0
    7.0627   -0.0470   18.6099 C   0  0  0  0  0  0  0  0  0  0  0  0
    7.9959   -0.5728   18.4272 H   0  0  0  0  0  0  0  0  0  0  0  0
    6.5049   -0.0760   19.9066 C   0  0  0  0  0  0  0  0  0  0  0  0
    7.2152   -0.7129   20.9551 N   0  0  0  0  0  0  0  0  0  0  0  0
    6.7567   -1.5271   21.9975 C   0  0  0  0  0  0  0  0  0  0  0  0
    5.7366   -1.8779   22.0163 H   0  0  0  0  0  0  0  0  0  0  0  0
    7.7768   -1.7779   22.8592 C   0  0  0  0  0  0  0  0  0  0  0  0
    7.8442   -2.2835   23.8082 H   0  0  0  0  0  0  0  0  0  0  0  0
    8.8818   -1.1303   22.3350 N   0  0  0  0  0  0  0  0  0  0  0  0
   10.1439   -0.8902   22.7612 N   0  0  0  0  0  0  0  0  0  0  0  0
   10.6152   -0.0475   21.8354 C   0  0  0  0  0  0  0  0  0  0  0  0
   11.9422    0.6456   22.0070 C   0  0  0  0  0  0  0  0  0  0  0  0
   12.7379   -0.0770   22.2130 H   0  0  0  0  0  0  0  0  0  0  0  0
   12.1564    1.1362   21.0539 H   0  0  0  0  0  0  0  0  0  0  0  0
   11.9132    1.7953   23.0378 C   0  0  0  0  0  0  0  0  0  0  0  0
   11.5727    1.4195   24.0148 H   0  0  0  0  0  0  0  0  0  0  0  0
   12.9353    2.1863   23.1690 H   0  0  0  0  0  0  0  0  0  0  0  0
   10.9867    2.9017   22.5087 C   0  0  0  0  0  0  0  0  0  0  0  0
    9.9890    2.4820   22.3261 H   0  0  0  0  0  0  0  0  0  0  0  0
   11.3570    3.2082   21.5162 H   0  0  0  0  0  0  0  0  0  0  0  0
   10.8331    4.1469   23.3746 C   0  0  0  0  0  0  0  0  0  0  0  0
   10.4603    3.8570   24.3683 H   0  0  0  0  0  0  0  0  0  0  0  0
   10.0501    4.7812   22.9292 H   0  0  0  0  0  0  0  0  0  0  0  0
   12.1278    4.9560   23.4903 C   0  0  0  0  0  0  0  0  0  0  0  0
   12.4669    5.2088   22.4740 H   0  0  0  0  0  0  0  0  0  0  0  0
   12.9140    4.3235   23.9303 H   0  0  0  0  0  0  0  0  0  0  0  0
   11.9912    6.2411   24.3101 C   0  0  0  0  0  0  0  0  0  0  0  0
   11.2036    6.8671   23.8666 H   0  0  0  0  0  0  0  0  0  0  0  0
   12.9254    6.8106   24.2256 H   0  0  0  0  0  0  0  0  0  0  0  0
   11.6803    5.9947   25.7858 C   0  0  0  0  0  0  0  0  0  0  0  0
   12.4727    5.3963   26.2499 H   0  0  0  0  0  0  0  0  0  0  0  0
   11.5973    6.9376   26.3349 H   0  0  0  0  0  0  0  0  0  0  0  0
   10.7354    5.4531   25.9112 H   0  0  0  0  0  0  0  0  0  0  0  0
    9.6770    0.2240   20.8131 C   0  0  0  0  0  0  0  0  0  0  0  0
    9.7549    0.8945   19.9854 H   0  0  0  0  0  0  0  0  0  0  0  0
    8.5585   -0.4889   21.2050 C   0  0  0  0  0  0  0  0  0  0  0  0
    5.3024    0.6137   20.1145 C   0  0  0  0  0  0  0  0  0  0  0  0
    4.8360    0.6463   21.1010 H   0  0  0  0  0  0  0  0  0  0  0  0
    4.7461    1.3064   19.0304 C   0  0  0  0  0  0  0  0  0  0  0  0
    3.8384    1.8874   19.1384 H   0  0  0  0  0  0  0  0  0  0  0  0
  1  2  1  0
  2  3  2  0
  3  4  1  0
  4  5  1  0
  4  6  2  0
  6  7  1  0
  7  8  1  0
  8  9  1  0
  8 10  2  0
 10 11  1  0
 10 12  1  0
 12 13  1  0
 13 14  2  0
 14 15  1  0
 15 16  1  0
 15 17  1  0
 15 18  1  0
 18 19  1  0
 18 20  1  0
 18 21  1  0
 21 22  1  0
 21 23  1  0
 21 24  1  0
 24 25  1  0
 24 26  1  0
 24 27  1  0
 27 28  1  0
 27 29  1  0
 27 30  1  0
 30 31  1  0
 30 32  1  0
 30 33  1  0
 33 34  1  0
 33 35  1  0
 33 36  1  0
 14 37  1  0
 37 38  1  0
 37 39  2  0
  6 40  1  0
 40 41  1  0
 40 42  2  0
 42 43  1  0
 42  2  1  0
 39  7  1  0
 39 12  1  0
M  END
>  <cnnaffinity>  (1) 
-5.47632

>  <filename>  (1) 
CCCCCCCc1cc2n(-c3cccnc3)ccn2n1

$$$$
