
     RDKit          3D

 45 46  0  0  0  0  0  0  0  0999 V2000
    4.9342    1.7943   16.9165 H   0  0  0  0  0  0  0  0  0  0  0  0
    5.3898    1.3399   17.7990 C   0  0  0  0  0  0  0  0  0  0  0  0
    6.5658    0.7175   17.6162 N   0  0  0  0  0  0  0  0  0  0  0  0
    7.1293    0.1460   18.6896 C   0  0  0  0  0  0  0  0  0  0  0  0
    8.0725   -0.3635   18.4995 H   0  0  0  0  0  0  0  0  0  0  0  0
    6.5972    0.1686   19.9999 C   0  0  0  0  0  0  0  0  0  0  0  0
    7.2983   -0.5264   21.1263 C   0  0  0  0  0  0  0  0  0  0  0  0
    7.5451    0.0466   22.3877 C   0  0  0  0  0  0  0  0  0  0  0  0
    7.1699    1.0420   22.6265 H   0  0  0  0  0  0  0  0  0  0  0  0
    8.2509   -0.6704   23.3640 C   0  0  0  0  0  0  0  0  0  0  0  0
    8.3763   -0.2402   24.3581 H   0  0  0  0  0  0  0  0  0  0  0  0
    8.7651   -1.9563   23.0966 C   0  0  0  0  0  0  0  0  0  0  0  0
    9.4783   -2.7452   24.1768 C   0  0  0  0  0  0  0  0  0  0  0  0
   10.1291   -2.0783   24.7589 H   0  0  0  0  0  0  0  0  0  0  0  0
   10.1343   -3.4977   23.7100 H   0  0  0  0  0  0  0  0  0  0  0  0
    8.4970   -3.4455   25.1427 C   0  0  0  0  0  0  0  0  0  0  0  0
    9.0665   -3.8509   25.9922 H   0  0  0  0  0  0  0  0  0  0  0  0
    7.8161   -2.6841   25.5544 H   0  0  0  0  0  0  0  0  0  0  0  0
    7.6562   -4.5577   24.4961 C   0  0  0  0  0  0  0  0  0  0  0  0
    7.1060   -4.1502   23.6345 H   0  0  0  0  0  0  0  0  0  0  0  0
    8.3307   -5.3277   24.0892 H   0  0  0  0  0  0  0  0  0  0  0  0
    6.6473   -5.2230   25.4454 C   0  0  0  0  0  0  0  0  0  0  0  0
    6.0191   -5.9105   24.8593 H   0  0  0  0  0  0  0  0  0  0  0  0
    5.9685   -4.4528   25.8431 H   0  0  0  0  0  0  0  0  0  0  0  0
    7.2801   -6.0017   26.6067 C   0  0  0  0  0  0  0  0  0  0  0  0
    8.0085   -6.7159   26.1949 H   0  0  0  0  0  0  0  0  0  0  0  0
    7.8577   -5.3173   27.2459 H   0  0  0  0  0  0  0  0  0  0  0  0
    6.2882   -6.7784   27.4845 C   0  0  0  0  0  0  0  0  0  0  0  0
    5.7401   -7.5026   26.8603 H   0  0  0  0  0  0  0  0  0  0  0  0
    6.8660   -7.3732   28.2059 H   0  0  0  0  0  0  0  0  0  0  0  0
    5.2841   -5.9393   28.2807 C   0  0  0  0  0  0  0  0  0  0  0  0
    5.8310   -5.2247   28.9138 H   0  0  0  0  0  0  0  0  0  0  0  0
    4.6657   -5.3387   27.5997 H   0  0  0  0  0  0  0  0  0  0  0  0
    4.3834   -6.8111   29.1588 C   0  0  0  0  0  0  0  0  0  0  0  0
    3.7873   -7.5013   28.5481 H   0  0  0  0  0  0  0  0  0  0  0  0
    4.9831   -7.4157   29.8519 H   0  0  0  0  0  0  0  0  0  0  0  0
    3.6914   -6.2053   29.7530 H   0  0  0  0  0  0  0  0  0  0  0  0
    8.4943   -2.5345   21.8461 C   0  0  0  0  0  0  0  0  0  0  0  0
    8.8641   -3.5306   21.5974 H   0  0  0  0  0  0  0  0  0  0  0  0
    7.7278   -1.8452   20.9103 C   0  0  0  0  0  0  0  0  0  0  0  0
    7.3578   -2.3502   20.0325 H   0  0  0  0  0  0  0  0  0  0  0  0
    5.3610    0.8130   20.1549 C   0  0  0  0  0  0  0  0  0  0  0  0
    4.8813    0.8221   21.1322 H   0  0  0  0  0  0  0  0  0  0  0  0
    4.7472    1.3946   19.0394 C   0  0  0  0  0  0  0  0  0  0  0  0
    3.7855    1.8838   19.1188 H   0  0  0  0  0  0  0  0  0  0  0  0
  1  2  1  0
  2  3  2  0
  3  4  1  0
  4  5  1  0
  4  6  2  0
  6  7  1  0
  7  8  2  0
  8  9  1  0
  8 10  1  0
 10 11  1  0
 10 12  2  0
 12 13  1  0
 13 14  1  0
 13 15  1  0
 13 16  1  0
 16 17  1  0
 16 18  1  0
 16 19  1  0
 19 20  1  0
 19 21  1  0
 19 22  1  0
 22 23  1  0
 22 24  1  0
 22 25  1  0
 25 26  1  0
 25 27  1  0
 25 28  1  0
 28 29  1  0
 28 30  1  0
 28 31  1  0
 31 32  1  0
 31 33  1  0
 31 34  1  0
 34 35  1  0
 34 36  1  0
 34 37  1  0
 12 38  1  0
 38 39  1  0
 38 40  2  0
 40 41  1  0
  6 42  1  0
 42 43  1  0
 42 44  2  0
 44 45  1  0
 44  2  1  0
 40  7  1  0
M  END
>  <cnnaffinity>  (1) 
-4.98743

>  <filename>  (1) 
CCCCCCCCc1ccc(-c2cccnc2)cc1

$$$$
