
     RDKit          3D

 44 46  0  0  0  0  0  0  0  0999 V2000
    5.2387    1.7917   16.8524 H   0  0  0  0  0  0  0  0  0  0  0  0
    5.6212    1.3007   17.7443 C   0  0  0  0  0  0  0  0  0  0  0  0
    6.7916    0.6553   17.6097 N   0  0  0  0  0  0  0  0  0  0  0  0
    7.2689    0.0144   18.6844 C   0  0  0  0  0  0  0  0  0  0  0  0
    8.2285   -0.4854   18.5634 H   0  0  0  0  0  0  0  0  0  0  0  0
    6.5928   -0.0666   19.9273 C   0  0  0  0  0  0  0  0  0  0  0  0
    7.0224   -0.9513   21.0249 C   0  0  0  0  0  0  0  0  0  0  0  0
    6.3060   -1.8262   21.8131 C   0  0  0  0  0  0  0  0  0  0  0  0
    5.2499   -2.0311   21.7230 H   0  0  0  0  0  0  0  0  0  0  0  0
    7.0782   -2.5112   22.7173 N   0  0  0  0  0  0  0  0  0  0  0  0
    8.2749   -2.0423   22.4796 C   0  0  0  0  0  0  0  0  0  0  0  0
    9.8570   -2.2355   23.1394 S   0  0  0  0  0  0  0  0  0  0  0  0
   10.4266   -1.1437   21.8730 C   0  0  0  0  0  0  0  0  0  0  0  0
   11.8794   -0.8167   21.7663 C   0  0  0  0  0  0  0  0  0  0  0  0
   12.1679   -0.9103   20.7113 H   0  0  0  0  0  0  0  0  0  0  0  0
   12.4398   -1.5748   22.3163 H   0  0  0  0  0  0  0  0  0  0  0  0
   12.2728    0.5675   22.3219 C   0  0  0  0  0  0  0  0  0  0  0  0
   13.3655    0.6509   22.2404 H   0  0  0  0  0  0  0  0  0  0  0  0
   12.0384    0.6027   23.3979 H   0  0  0  0  0  0  0  0  0  0  0  0
   11.6326    1.7627   21.6114 C   0  0  0  0  0  0  0  0  0  0  0  0
   11.7962    1.6751   20.5298 H   0  0  0  0  0  0  0  0  0  0  0  0
   10.5440    1.7347   21.7290 H   0  0  0  0  0  0  0  0  0  0  0  0
   12.1797    3.1173   22.0666 C   0  0  0  0  0  0  0  0  0  0  0  0
   11.6158    3.9025   21.5458 H   0  0  0  0  0  0  0  0  0  0  0  0
   13.2167    3.2293   21.7259 H   0  0  0  0  0  0  0  0  0  0  0  0
   12.2028    3.3929   23.5764 C   0  0  0  0  0  0  0  0  0  0  0  0
   11.1811    3.4056   23.9827 H   0  0  0  0  0  0  0  0  0  0  0  0
   12.7252    2.5755   24.0993 H   0  0  0  0  0  0  0  0  0  0  0  0
   12.9272    4.7167   23.8857 C   0  0  0  0  0  0  0  0  0  0  0  0
   12.9072    4.9115   24.9663 H   0  0  0  0  0  0  0  0  0  0  0  0
   13.9869    4.5908   23.6151 H   0  0  0  0  0  0  0  0  0  0  0  0
   12.3764    5.9543   23.1538 C   0  0  0  0  0  0  0  0  0  0  0  0
   12.6303    5.8876   22.0848 H   0  0  0  0  0  0  0  0  0  0  0  0
   12.9022    6.8453   23.5254 H   0  0  0  0  0  0  0  0  0  0  0  0
   10.8611    6.1412   23.3110 C   0  0  0  0  0  0  0  0  0  0  0  0
   10.5109    7.0831   22.8732 H   0  0  0  0  0  0  0  0  0  0  0  0
   10.3169    5.3268   22.8152 H   0  0  0  0  0  0  0  0  0  0  0  0
   10.5708    6.1359   24.3704 H   0  0  0  0  0  0  0  0  0  0  0  0
    9.5210   -0.6383   21.0987 N   0  0  0  0  0  0  0  0  0  0  0  0
    8.3206   -1.1408   21.4613 N   0  0  0  0  0  0  0  0  0  0  0  0
    5.3968    0.6688   20.0515 C   0  0  0  0  0  0  0  0  0  0  0  0
    4.8739    0.7101   21.0106 H   0  0  0  0  0  0  0  0  0  0  0  0
    4.9040    1.3570   18.9464 C   0  0  0  0  0  0  0  0  0  0  0  0
    3.9801    1.9258   18.9914 H   0  0  0  0  0  0  0  0  0  0  0  0
  1  2  1  0
  2  3  2  0
  3  4  1  0
  4  5  1  0
  4  6  2  0
  6  7  1  0
  7  8  2  0
  8  9  1  0
  8 10  1  0
 10 11  2  0
 11 12  1  0
 12 13  1  0
 13 14  1  0
 14 15  1  0
 14 16  1  0
 14 17  1  0
 17 18  1  0
 17 19  1  0
 17 20  1  0
 20 21  1  0
 20 22  1  0
 20 23  1  0
 23 24  1  0
 23 25  1  0
 23 26  1  0
 26 27  1  0
 26 28  1  0
 26 29  1  0
 29 30  1  0
 29 31  1  0
 29 32  1  0
 32 33  1  0
 32 34  1  0
 32 35  1  0
 35 36  1  0
 35 37  1  0
 35 38  1  0
 13 39  2  0
 39 40  1  0
  6 41  1  0
 41 42  1  0
 41 43  2  0
 43 44  1  0
 43  2  1  0
 40  7  1  0
 40 11  1  0
M  END
>  <cnnaffinity>  (1) 
-5.48949

>  <filename>  (1) 
CCCCCCCCc1nn2c(-c3cccnc3)cnc2s1

$$$$
