
     RDKit          3D

 38 40  0  0  0  0  0  0  0  0999 V2000
    4.9583    1.8293   16.9673 H   0  0  0  0  0  0  0  0  0  0  0  0
    5.4002    1.2928   17.8064 C   0  0  0  0  0  0  0  0  0  0  0  0
    6.5478    0.6394   17.5625 N   0  0  0  0  0  0  0  0  0  0  0  0
    7.1362    0.0044   18.5810 C   0  0  0  0  0  0  0  0  0  0  0  0
    8.0709   -0.5065   18.3562 H   0  0  0  0  0  0  0  0  0  0  0  0
    6.6357    0.0015   19.8906 C   0  0  0  0  0  0  0  0  0  0  0  0
    7.4172   -0.6470   20.9445 C   0  0  0  0  0  0  0  0  0  0  0  0
    7.9885   -1.8922   20.7788 N   0  0  0  0  0  0  0  0  0  0  0  0
    8.4978   -2.1547   21.9474 C   0  0  0  0  0  0  0  0  0  0  0  0
    8.4110   -1.1214   22.8234 N   0  0  0  0  0  0  0  0  0  0  0  0
    7.6839   -0.1389   22.2056 C   0  0  0  0  0  0  0  0  0  0  0  0
    7.2991    1.1085   22.9151 C   0  0  0  0  0  0  0  0  0  0  0  0
    6.9790    1.8512   22.1775 H   0  0  0  0  0  0  0  0  0  0  0  0
    8.1976    1.5261   23.3888 H   0  0  0  0  0  0  0  0  0  0  0  0
    6.1948    0.9123   23.9659 C   0  0  0  0  0  0  0  0  0  0  0  0
    6.5550    0.2358   24.7520 H   0  0  0  0  0  0  0  0  0  0  0  0
    5.3501    0.4045   23.4956 H   0  0  0  0  0  0  0  0  0  0  0  0
    5.6974    2.2211   24.5731 C   0  0  0  0  0  0  0  0  0  0  0  0
    4.8157    2.0227   25.1978 H   0  0  0  0  0  0  0  0  0  0  0  0
    5.3523    2.8703   23.7544 H   0  0  0  0  0  0  0  0  0  0  0  0
    6.7429    2.9659   25.4037 C   0  0  0  0  0  0  0  0  0  0  0  0
    7.1235    2.2964   26.1872 H   0  0  0  0  0  0  0  0  0  0  0  0
    7.6016    3.2164   24.7692 H   0  0  0  0  0  0  0  0  0  0  0  0
    6.1922    4.2388   26.0367 C   0  0  0  0  0  0  0  0  0  0  0  0
    6.9452    4.7619   26.6330 H   0  0  0  0  0  0  0  0  0  0  0  0
    5.8374    4.9353   25.2692 H   0  0  0  0  0  0  0  0  0  0  0  0
    5.3465    4.0124   26.6946 H   0  0  0  0  0  0  0  0  0  0  0  0
    9.0233   -1.2807   24.1245 C   0  0  0  0  0  0  0  0  0  0  0  0
    8.2637   -1.5035   24.8801 H   0  0  0  0  0  0  0  0  0  0  0  0
    9.5379   -0.3622   24.4225 H   0  0  0  0  0  0  0  0  0  0  0  0
   10.0034   -2.4470   23.9311 C   0  0  0  0  0  0  0  0  0  0  0  0
   10.2209   -2.9933   24.8506 H   0  0  0  0  0  0  0  0  0  0  0  0
   10.9333   -2.0911   23.4812 H   0  0  0  0  0  0  0  0  0  0  0  0
    9.2162   -3.5649   22.7097 S   0  0  0  0  0  0  0  0  0  0  0  0
    5.4116    0.6578   20.1195 C   0  0  0  0  0  0  0  0  0  0  0  0
    4.9576    0.6633   21.1091 H   0  0  0  0  0  0  0  0  0  0  0  0
    4.7815    1.3098   19.0603 C   0  0  0  0  0  0  0  0  0  0  0  0
    3.8534    1.8554   19.1994 H   0  0  0  0  0  0  0  0  0  0  0  0
  1  2  1  0
  2  3  2  0
  3  4  1  0
  4  5  1  0
  4  6  2  0
  6  7  1  0
  7  8  1  0
  8  9  2  0
  9 10  1  0
 10 11  1  0
 11 12  1  0
 12 13  1  0
 12 14  1  0
 12 15  1  0
 15 16  1  0
 15 17  1  0
 15 18  1  0
 18 19  1  0
 18 20  1  0
 18 21  1  0
 21 22  1  0
 21 23  1  0
 21 24  1  0
 24 25  1  0
 24 26  1  0
 24 27  1  0
 10 28  1  0
 28 29  1  0
 28 30  1  0
 28 31  1  0
 31 32  1  0
 31 33  1  0
 31 34  1  0
  6 35  1  0
 35 36  1  0
 35 37  2  0
 37 38  1  0
 37  2  1  0
 11  7  2  0
 34  9  1  0
M  END
>  <cnnaffinity>  (1) 
-5.33065

>  <filename>  (1) 
CCCCCc1c(-c2cccnc2)nc2n1CCS2

$$$$
