
     RDKit          3D

 35 37  0  0  0  0  0  0  0  0999 V2000
    4.9241    1.7722   17.0028 H   0  0  0  0  0  0  0  0  0  0  0  0
    5.4102    1.2856   17.8460 C   0  0  0  0  0  0  0  0  0  0  0  0
    6.5747    0.6678   17.5959 N   0  0  0  0  0  0  0  0  0  0  0  0
    7.1806    0.0531   18.6174 C   0  0  0  0  0  0  0  0  0  0  0  0
    8.1261   -0.4327   18.3844 H   0  0  0  0  0  0  0  0  0  0  0  0
    6.6455    0.0147   19.9143 C   0  0  0  0  0  0  0  0  0  0  0  0
    7.3577   -0.6921   20.9767 C   0  0  0  0  0  0  0  0  0  0  0  0
    8.5406   -1.3343   20.7567 N   0  0  0  0  0  0  0  0  0  0  0  0
    8.8028   -1.8195   21.9556 C   0  0  0  0  0  0  0  0  0  0  0  0
   10.0258   -2.7864   22.7352 S   0  0  0  0  0  0  0  0  0  0  0  0
    9.1327   -2.6767   24.2351 C   0  0  0  0  0  0  0  0  0  0  0  0
    9.5041   -3.1941   25.1105 H   0  0  0  0  0  0  0  0  0  0  0  0
    8.0036   -1.9492   24.1403 C   0  0  0  0  0  0  0  0  0  0  0  0
    6.9670   -1.7090   25.1955 C   0  0  0  0  0  0  0  0  0  0  0  0
    7.4295   -1.9031   26.1717 H   0  0  0  0  0  0  0  0  0  0  0  0
    6.6804   -0.6527   25.1916 H   0  0  0  0  0  0  0  0  0  0  0  0
    5.7188   -2.5907   25.0191 C   0  0  0  0  0  0  0  0  0  0  0  0
    5.2560   -2.3335   24.0693 H   0  0  0  0  0  0  0  0  0  0  0  0
    4.9946   -2.3439   25.8068 H   0  0  0  0  0  0  0  0  0  0  0  0
    5.9808   -4.0953   25.0319 C   0  0  0  0  0  0  0  0  0  0  0  0
    5.0495   -4.6128   24.7675 H   0  0  0  0  0  0  0  0  0  0  0  0
    6.6908   -4.3597   24.2358 H   0  0  0  0  0  0  0  0  0  0  0  0
    6.4835   -4.6281   26.3696 C   0  0  0  0  0  0  0  0  0  0  0  0
    5.8011   -4.3070   27.1651 H   0  0  0  0  0  0  0  0  0  0  0  0
    7.4575   -4.1860   26.6083 H   0  0  0  0  0  0  0  0  0  0  0  0
    6.6088   -6.1422   26.3847 C   0  0  0  0  0  0  0  0  0  0  0  0
    5.6423   -6.6184   26.1867 H   0  0  0  0  0  0  0  0  0  0  0  0
    6.9726   -6.5061   27.3493 H   0  0  0  0  0  0  0  0  0  0  0  0
    7.3114   -6.4756   25.6158 H   0  0  0  0  0  0  0  0  0  0  0  0
    7.8418   -1.4878   22.8346 N   0  0  0  0  0  0  0  0  0  0  0  0
    6.8856   -0.7543   22.2172 N   0  0  0  0  0  0  0  0  0  0  0  0
    5.4251    0.6596   20.1654 C   0  0  0  0  0  0  0  0  0  0  0  0
    4.9951    0.6375   21.1716 H   0  0  0  0  0  0  0  0  0  0  0  0
    4.8033    1.3111   19.1077 C   0  0  0  0  0  0  0  0  0  0  0  0
    3.8730    1.8442   19.2588 H   0  0  0  0  0  0  0  0  0  0  0  0
  1  2  1  0
  2  3  2  0
  3  4  1  0
  4  5  1  0
  4  6  2  0
  6  7  1  0
  7  8  1  0
  8  9  2  0
  9 10  1  0
 10 11  1  0
 11 12  1  0
 11 13  2  0
 13 14  1  0
 14 15  1  0
 14 16  1  0
 14 17  1  0
 17 18  1  0
 17 19  1  0
 17 20  1  0
 20 21  1  0
 20 22  1  0
 20 23  1  0
 23 24  1  0
 23 25  1  0
 23 26  1  0
 26 27  1  0
 26 28  1  0
 26 29  1  0
 13 30  1  0
 30 31  1  0
  6 32  1  0
 32 33  1  0
 32 34  2  0
 34 35  1  0
 34  2  1  0
 31  7  2  0
 30  9  1  0
M  END
>  <cnnaffinity>  (1) 
-5.57206

>  <filename>  (1) 
CCCCCc1csc2nc(-c3cccnc3)nn12

$$$$
