
     RDKit          3D

 40 42  0  0  0  0  0  0  0  0999 V2000
    4.9985    1.8570   17.0029 H   0  0  0  0  0  0  0  0  0  0  0  0
    5.5178    1.3273   17.7990 C   0  0  0  0  0  0  0  0  0  0  0  0
    6.6715    0.7325   17.4570 N   0  0  0  0  0  0  0  0  0  0  0  0
    7.3471    0.0663   18.4046 C   0  0  0  0  0  0  0  0  0  0  0  0
    8.2875   -0.3860   18.0887 H   0  0  0  0  0  0  0  0  0  0  0  0
    6.8795   -0.0738   19.7286 C   0  0  0  0  0  0  0  0  0  0  0  0
    7.5487   -0.8940   20.6718 N   0  0  0  0  0  0  0  0  0  0  0  0
    8.8886   -0.8194   21.0511 C   0  0  0  0  0  0  0  0  0  0  0  0
    9.5264   -0.0784   20.5931 H   0  0  0  0  0  0  0  0  0  0  0  0
    9.1200   -1.6985   22.0649 C   0  0  0  0  0  0  0  0  0  0  0  0
    9.9825   -1.9443   22.6563 H   0  0  0  0  0  0  0  0  0  0  0  0
    7.9090   -2.3206   22.3180 N   0  0  0  0  0  0  0  0  0  0  0  0
    7.4521   -3.2249   23.2252 N   0  0  0  0  0  0  0  0  0  0  0  0
    6.1443   -3.2842   22.9520 C   0  0  0  0  0  0  0  0  0  0  0  0
    5.1781   -4.1621   23.7086 C   0  0  0  0  0  0  0  0  0  0  0  0
    5.7123   -5.0275   24.1160 H   0  0  0  0  0  0  0  0  0  0  0  0
    4.4734   -4.5639   22.9671 H   0  0  0  0  0  0  0  0  0  0  0  0
    4.3460   -3.5046   24.8389 C   0  0  0  0  0  0  0  0  0  0  0  0
    3.8112   -2.6174   24.4737 H   0  0  0  0  0  0  0  0  0  0  0  0
    5.0205   -3.1444   25.6267 H   0  0  0  0  0  0  0  0  0  0  0  0
    3.3227   -4.4583   25.4847 C   0  0  0  0  0  0  0  0  0  0  0  0
    2.9579   -3.9935   26.4125 H   0  0  0  0  0  0  0  0  0  0  0  0
    3.8392   -5.3801   25.7931 H   0  0  0  0  0  0  0  0  0  0  0  0
    2.0967   -4.8123   24.6247 C   0  0  0  0  0  0  0  0  0  0  0  0
    1.6116   -3.8811   24.2945 H   0  0  0  0  0  0  0  0  0  0  0  0
    2.4136   -5.3295   23.7069 H   0  0  0  0  0  0  0  0  0  0  0  0
    1.0419   -5.6778   25.3395 C   0  0  0  0  0  0  0  0  0  0  0  0
    0.6845   -5.1525   26.2381 H   0  0  0  0  0  0  0  0  0  0  0  0
    0.1643   -5.7707   24.6852 H   0  0  0  0  0  0  0  0  0  0  0  0
    1.5142   -7.0828   25.7275 C   0  0  0  0  0  0  0  0  0  0  0  0
    0.7069   -7.6474   26.2076 H   0  0  0  0  0  0  0  0  0  0  0  0
    1.8374   -7.6520   24.8468 H   0  0  0  0  0  0  0  0  0  0  0  0
    2.3546   -7.0544   26.4313 H   0  0  0  0  0  0  0  0  0  0  0  0
    5.7787   -2.4664   21.8665 C   0  0  0  0  0  0  0  0  0  0  0  0
    4.7783   -2.3404   21.5208 H   0  0  0  0  0  0  0  0  0  0  0  0
    6.9571   -1.8507   21.4874 C   0  0  0  0  0  0  0  0  0  0  0  0
    5.6933    0.5901   20.0855 C   0  0  0  0  0  0  0  0  0  0  0  0
    5.3518    0.5682   21.1212 H   0  0  0  0  0  0  0  0  0  0  0  0
    4.9977    1.2930   19.0983 C   0  0  0  0  0  0  0  0  0  0  0  0
    4.0747    1.8180   19.3236 H   0  0  0  0  0  0  0  0  0  0  0  0
  1  2  1  0
  2  3  2  0
  3  4  1  0
  4  5  1  0
  4  6  2  0
  6  7  1  0
  7  8  1  0
  8  9  1  0
  8 10  2  0
 10 11  1  0
 10 12  1  0
 12 13  1  0
 13 14  2  0
 14 15  1  0
 15 16  1  0
 15 17  1  0
 15 18  1  0
 18 19  1  0
 18 20  1  0
 18 21  1  0
 21 22  1  0
 21 23  1  0
 21 24  1  0
 24 25  1  0
 24 26  1  0
 24 27  1  0
 27 28  1  0
 27 29  1  0
 27 30  1  0
 30 31  1  0
 30 32  1  0
 30 33  1  0
 14 34  1  0
 34 35  1  0
 34 36  2  0
  6 37  1  0
 37 38  1  0
 37 39  2  0
 39 40  1  0
 39  2  1  0
 36  7  1  0
 36 12  1  0
M  END
>  <cnnaffinity>  (1) 
-5.15418

>  <filename>  (1) 
CCCCCCc1cc2n(-c3cccnc3)ccn2n1

$$$$
