
     RDKit          3D

 39 40  0  0  0  0  0  0  0  0999 V2000
    4.9139    2.0016   16.8937 H   0  0  0  0  0  0  0  0  0  0  0  0
    5.3876    1.4347   17.6947 C   0  0  0  0  0  0  0  0  0  0  0  0
    6.5433    0.8264   17.3899 N   0  0  0  0  0  0  0  0  0  0  0  0
    7.1556    0.1375   18.3607 C   0  0  0  0  0  0  0  0  0  0  0  0
    8.0923   -0.3547   18.0876 H   0  0  0  0  0  0  0  0  0  0  0  0
    6.6644   -0.0088   19.6836 C   0  0  0  0  0  0  0  0  0  0  0  0
    7.3676   -0.7799   20.6392 N   0  0  0  0  0  0  0  0  0  0  0  0
    6.6538   -1.4873   21.7133 C   0  0  0  0  0  0  0  0  0  0  0  0
    6.5171   -0.8466   22.6039 H   0  0  0  0  0  0  0  0  0  0  0  0
    5.6612   -1.8025   21.3734 H   0  0  0  0  0  0  0  0  0  0  0  0
    7.4886   -2.7110   22.1283 C   0  0  0  0  0  0  0  0  0  0  0  0
    7.6024   -3.3816   21.2690 H   0  0  0  0  0  0  0  0  0  0  0  0
    6.9826   -3.2569   22.9284 H   0  0  0  0  0  0  0  0  0  0  0  0
    8.8455   -2.3603   22.5902 N   0  0  0  0  0  0  0  0  0  0  0  0
    8.7556   -1.7929   23.9072 N   0  0  0  0  0  0  0  0  0  0  0  0
    9.1713   -0.8609   23.9126 H   0  0  0  0  0  0  0  0  0  0  0  0
    9.4823   -2.6016   24.9013 C   0  0  0  0  0  0  0  0  0  0  0  0
    9.2930   -2.1293   25.8759 H   0  0  0  0  0  0  0  0  0  0  0  0
   10.5686   -2.5669   24.7097 H   0  0  0  0  0  0  0  0  0  0  0  0
    9.0165   -4.0624   24.9410 C   0  0  0  0  0  0  0  0  0  0  0  0
    7.9424   -4.0916   25.1916 H   0  0  0  0  0  0  0  0  0  0  0  0
    9.1070   -4.4744   23.9272 H   0  0  0  0  0  0  0  0  0  0  0  0
    9.8047   -4.9450   25.9179 C   0  0  0  0  0  0  0  0  0  0  0  0
    9.5175   -5.9914   25.7668 H   0  0  0  0  0  0  0  0  0  0  0  0
   10.8843   -4.8864   25.7081 H   0  0  0  0  0  0  0  0  0  0  0  0
    9.5413   -4.6181   27.3780 C   0  0  0  0  0  0  0  0  0  0  0  0
   10.1068   -5.2661   28.0499 H   0  0  0  0  0  0  0  0  0  0  0  0
    8.4822   -4.7454   27.6157 H   0  0  0  0  0  0  0  0  0  0  0  0
    9.8138   -3.5862   27.5939 H   0  0  0  0  0  0  0  0  0  0  0  0
    9.5110   -1.4880   21.5993 C   0  0  0  0  0  0  0  0  0  0  0  0
    9.7088   -2.1279   20.7332 H   0  0  0  0  0  0  0  0  0  0  0  0
   10.4747   -1.1565   21.9976 H   0  0  0  0  0  0  0  0  0  0  0  0
    8.6577   -0.2875   21.1585 C   0  0  0  0  0  0  0  0  0  0  0  0
    9.1799    0.2928   20.3913 H   0  0  0  0  0  0  0  0  0  0  0  0
    8.5053    0.3805   22.0273 H   0  0  0  0  0  0  0  0  0  0  0  0
    5.4398    0.6264   19.9646 C   0  0  0  0  0  0  0  0  0  0  0  0
    5.0288    0.5420   20.9678 H   0  0  0  0  0  0  0  0  0  0  0  0
    4.7993    1.3589   18.9604 C   0  0  0  0  0  0  0  0  0  0  0  0
    3.8628    1.8711   19.1506 H   0  0  0  0  0  0  0  0  0  0  0  0
  1  2  1  0
  2  3  2  0
  3  4  1  0
  4  5  1  0
  4  6  2  0
  6  7  1  0
  7  8  1  0
  8  9  1  0
  8 10  1  0
  8 11  1  0
 11 12  1  0
 11 13  1  0
 11 14  1  0
 14 15  1  0
 15 16  1  0
 15 17  1  0
 17 18  1  0
 17 19  1  0
 17 20  1  0
 20 21  1  0
 20 22  1  0
 20 23  1  0
 23 24  1  0
 23 25  1  0
 23 26  1  0
 26 27  1  0
 26 28  1  0
 26 29  1  0
 14 30  1  0
 30 31  1  0
 30 32  1  0
 30 33  1  0
 33 34  1  0
 33 35  1  0
  6 36  1  0
 36 37  1  0
 36 38  2  0
 38 39  1  0
 38  2  1  0
 33  7  1  0
M  END
>  <cnnaffinity>  (1) 
-4.47501

>  <filename>  (1) 
CCCCNN1CCN(c2cccnc2)CC1

$$$$
