
     RDKit          3D

 44 45  0  0  0  0  0  0  0  0999 V2000
    4.9183    1.7774   16.9969 H   0  0  0  0  0  0  0  0  0  0  0  0
    5.4041    1.2920   17.8394 C   0  0  0  0  0  0  0  0  0  0  0  0
    6.5681    0.6741   17.5803 N   0  0  0  0  0  0  0  0  0  0  0  0
    7.1718    0.0623   18.6064 C   0  0  0  0  0  0  0  0  0  0  0  0
    8.1124   -0.4290   18.3633 H   0  0  0  0  0  0  0  0  0  0  0  0
    6.6536    0.0060   19.9111 C   0  0  0  0  0  0  0  0  0  0  0  0
    7.3748   -0.7106   20.9900 C   0  0  0  0  0  0  0  0  0  0  0  0
    6.5820   -1.3095   21.9574 N   0  0  0  0  0  0  0  0  0  0  0  0
    7.1637   -1.9394   22.9492 C   0  0  0  0  0  0  0  0  0  0  0  0
    6.3357   -2.6485   23.9752 C   0  0  0  0  0  0  0  0  0  0  0  0
    5.3739   -2.1556   24.0797 H   0  0  0  0  0  0  0  0  0  0  0  0
    6.8150   -2.5789   24.9579 H   0  0  0  0  0  0  0  0  0  0  0  0
    6.1038   -4.1209   23.6037 C   0  0  0  0  0  0  0  0  0  0  0  0
    5.7118   -4.1713   22.5812 H   0  0  0  0  0  0  0  0  0  0  0  0
    7.0651   -4.6504   23.6038 H   0  0  0  0  0  0  0  0  0  0  0  0
    5.1315   -4.8384   24.5391 C   0  0  0  0  0  0  0  0  0  0  0  0
    4.1997   -4.2584   24.6218 H   0  0  0  0  0  0  0  0  0  0  0  0
    4.8489   -5.8004   24.0913 H   0  0  0  0  0  0  0  0  0  0  0  0
    5.6883   -5.0918   25.9367 C   0  0  0  0  0  0  0  0  0  0  0  0
    6.6521   -5.6149   25.8560 H   0  0  0  0  0  0  0  0  0  0  0  0
    5.9073   -4.1389   26.4381 H   0  0  0  0  0  0  0  0  0  0  0  0
    4.7459   -5.9110   26.8059 C   0  0  0  0  0  0  0  0  0  0  0  0
    3.7792   -5.3937   26.8851 H   0  0  0  0  0  0  0  0  0  0  0  0
    4.5345   -6.8713   26.3137 H   0  0  0  0  0  0  0  0  0  0  0  0
    5.2948   -6.1718   28.1994 C   0  0  0  0  0  0  0  0  0  0  0  0
    5.5074   -5.2130   28.6933 H   0  0  0  0  0  0  0  0  0  0  0  0
    6.2626   -6.6876   28.1206 H   0  0  0  0  0  0  0  0  0  0  0  0
    4.3492   -6.9922   29.0672 C   0  0  0  0  0  0  0  0  0  0  0  0
    3.3860   -6.4710   29.1413 H   0  0  0  0  0  0  0  0  0  0  0  0
    4.1425   -7.9487   28.5696 H   0  0  0  0  0  0  0  0  0  0  0  0
    4.9060   -7.2458   30.4605 C   0  0  0  0  0  0  0  0  0  0  0  0
    5.8572   -7.7870   30.4037 H   0  0  0  0  0  0  0  0  0  0  0  0
    5.0953   -6.3003   30.9809 H   0  0  0  0  0  0  0  0  0  0  0  0
    4.2114   -7.8347   31.0650 H   0  0  0  0  0  0  0  0  0  0  0  0
    8.6586   -2.0723   23.0769 C   0  0  0  0  0  0  0  0  0  0  0  0
    9.2832   -2.6687   23.9406 O   0  0  0  0  0  0  0  0  0  0  0  0
    9.3623   -1.4247   22.0683 N   0  0  0  0  0  0  0  0  0  0  0  0
   10.3674   -1.5120   22.1741 H   0  0  0  0  0  0  0  0  0  0  0  0
    8.7395   -0.7478   21.0331 C   0  0  0  0  0  0  0  0  0  0  0  0
    9.3756   -0.2478   20.3074 H   0  0  0  0  0  0  0  0  0  0  0  0
    5.4333    0.6554   20.1576 C   0  0  0  0  0  0  0  0  0  0  0  0
    5.0064    0.6249   21.1625 H   0  0  0  0  0  0  0  0  0  0  0  0
    4.8069    1.3152   19.1049 C   0  0  0  0  0  0  0  0  0  0  0  0
    3.8740    1.8446   19.2588 H   0  0  0  0  0  0  0  0  0  0  0  0
  1  2  1  0
  2  3  2  0
  3  4  1  0
  4  5  1  0
  4  6  2  0
  6  7  1  0
  7  8  1  0
  8  9  2  0
  9 10  1  0
 10 11  1  0
 10 12  1  0
 10 13  1  0
 13 14  1  0
 13 15  1  0
 13 16  1  0
 16 17  1  0
 16 18  1  0
 16 19  1  0
 19 20  1  0
 19 21  1  0
 19 22  1  0
 22 23  1  0
 22 24  1  0
 22 25  1  0
 25 26  1  0
 25 27  1  0
 25 28  1  0
 28 29  1  0
 28 30  1  0
 28 31  1  0
 31 32  1  0
 31 33  1  0
 31 34  1  0
  9 35  1  0
 35 36  2  0
 35 37  1  0
 37 38  1  0
 37 39  1  0
 39 40  1  0
  6 41  1  0
 41 42  1  0
 41 43  2  0
 43 44  1  0
 43  2  1  0
 39  7  2  0
M  END
>  <cnnaffinity>  (1) 
-5.39037

>  <filename>  (1) 
CCCCCCCCc1nc(-c2cccnc2)c[nH]c1=O

$$$$
