
     RDKit          3D

 40 40  0  0  0  0  0  0  0  0999 V2000
    4.8698    1.7281   17.0452 H   0  0  0  0  0  0  0  0  0  0  0  0
    5.3929    1.2535   17.8692 C   0  0  0  0  0  0  0  0  0  0  0  0
    6.5648    0.6720   17.5562 N   0  0  0  0  0  0  0  0  0  0  0  0
    7.2539    0.1046   18.5517 C   0  0  0  0  0  0  0  0  0  0  0  0
    8.1952   -0.3779   18.2989 H   0  0  0  0  0  0  0  0  0  0  0  0
    6.8431    0.0853   19.9128 C   0  0  0  0  0  0  0  0  0  0  0  0
    7.7001   -0.4571   20.8993 N   0  0  0  0  0  0  0  0  0  0  0  0
    8.3999   -1.1642   20.7082 H   0  0  0  0  0  0  0  0  0  0  0  0
    7.6887   -0.4900   22.5547 S   0  0  0  0  0  0  0  0  0  0  0  0
    9.0536   -0.9288   22.7879 O   0  0  0  0  0  0  0  0  0  0  0  0
    6.5568   -1.2503   23.0394 O   0  0  0  0  0  0  0  0  0  0  0  0
    7.5453    1.2162   23.0169 C   0  0  0  0  0  0  0  0  0  0  0  0
    6.7622    1.6377   22.3876 H   0  0  0  0  0  0  0  0  0  0  0  0
    8.5042    1.6221   22.6924 H   0  0  0  0  0  0  0  0  0  0  0  0
    7.2661    1.4324   24.5090 C   0  0  0  0  0  0  0  0  0  0  0  0
    6.2931    0.9869   24.7601 H   0  0  0  0  0  0  0  0  0  0  0  0
    8.0180    0.8926   25.1032 H   0  0  0  0  0  0  0  0  0  0  0  0
    7.2795    2.9137   24.9121 C   0  0  0  0  0  0  0  0  0  0  0  0
    6.5371    3.4743   24.3241 H   0  0  0  0  0  0  0  0  0  0  0  0
    6.9403    2.9772   25.9541 H   0  0  0  0  0  0  0  0  0  0  0  0
    8.6484    3.6003   24.7943 C   0  0  0  0  0  0  0  0  0  0  0  0
    9.3979    3.0029   25.3325 H   0  0  0  0  0  0  0  0  0  0  0  0
    8.9665    3.5975   23.7453 H   0  0  0  0  0  0  0  0  0  0  0  0
    8.6621    5.0391   25.3247 C   0  0  0  0  0  0  0  0  0  0  0  0
    7.9192    5.6319   24.7741 H   0  0  0  0  0  0  0  0  0  0  0  0
    8.3223    5.0275   26.3690 H   0  0  0  0  0  0  0  0  0  0  0  0
   10.0245    5.7452   25.2933 C   0  0  0  0  0  0  0  0  0  0  0  0
   10.7115    5.1837   25.9361 H   0  0  0  0  0  0  0  0  0  0  0  0
    9.9256    6.7297   25.7726 H   0  0  0  0  0  0  0  0  0  0  0  0
   10.6901    5.9275   23.9245 C   0  0  0  0  0  0  0  0  0  0  0  0
   10.1118    6.6332   23.3145 H   0  0  0  0  0  0  0  0  0  0  0  0
   10.6842    4.9861   23.3650 H   0  0  0  0  0  0  0  0  0  0  0  0
   12.1354    6.4125   24.0462 C   0  0  0  0  0  0  0  0  0  0  0  0
   12.1854    7.4114   24.4871 H   0  0  0  0  0  0  0  0  0  0  0  0
   12.7226    5.7581   24.6989 H   0  0  0  0  0  0  0  0  0  0  0  0
   12.6430    6.4390   23.0780 H   0  0  0  0  0  0  0  0  0  0  0  0
    5.5930    0.6409   20.2082 C   0  0  0  0  0  0  0  0  0  0  0  0
    5.2015    0.5683   21.2201 H   0  0  0  0  0  0  0  0  0  0  0  0
    4.8666    1.2442   19.1652 C   0  0  0  0  0  0  0  0  0  0  0  0
    3.9112    1.7140   19.3540 H   0  0  0  0  0  0  0  0  0  0  0  0
  1  2  1  0
  2  3  2  0
  3  4  1  0
  4  5  1  0
  4  6  2  0
  6  7  1  0
  7  8  1  0
  7  9  1  0
  9 10  2  0
  9 11  2  0
  9 12  1  0
 12 13  1  0
 12 14  1  0
 12 15  1  0
 15 16  1  0
 15 17  1  0
 15 18  1  0
 18 19  1  0
 18 20  1  0
 18 21  1  0
 21 22  1  0
 21 23  1  0
 21 24  1  0
 24 25  1  0
 24 26  1  0
 24 27  1  0
 27 28  1  0
 27 29  1  0
 27 30  1  0
 30 31  1  0
 30 32  1  0
 30 33  1  0
 33 34  1  0
 33 35  1  0
 33 36  1  0
  6 37  1  0
 37 38  1  0
 37 39  2  0
 39 40  1  0
 39  2  1  0
M  END
>  <cnnaffinity>  (1) 
-4.78451

>  <filename>  (1) 
CCCCCCCCS(=O)(=O)Nc1cccnc1

$$$$
