
     RDKit          3D

 35 36  0  0  0  0  0  0  0  0999 V2000
    5.0913    1.8770   16.9371 H   0  0  0  0  0  0  0  0  0  0  0  0
    5.5311    1.3489   17.7804 C   0  0  0  0  0  0  0  0  0  0  0  0
    6.7327    0.7858   17.5569 N   0  0  0  0  0  0  0  0  0  0  0  0
    7.3067    0.1378   18.5712 C   0  0  0  0  0  0  0  0  0  0  0  0
    8.3130   -0.2499   18.4174 H   0  0  0  0  0  0  0  0  0  0  0  0
    6.6811   -0.0573   19.8170 C   0  0  0  0  0  0  0  0  0  0  0  0
    7.3645   -0.8067   20.8185 N   0  0  0  0  0  0  0  0  0  0  0  0
    8.7085   -0.5464   20.8648 N   0  0  0  0  0  0  0  0  0  0  0  0
    9.4222   -1.0691   21.8212 C   0  0  0  0  0  0  0  0  0  0  0  0
   10.8715   -0.6319   21.8364 C   0  0  0  0  0  0  0  0  0  0  0  0
   11.4928   -1.3719   22.3564 H   0  0  0  0  0  0  0  0  0  0  0  0
   11.2140   -0.6024   20.7961 H   0  0  0  0  0  0  0  0  0  0  0  0
   11.0350    0.7846   22.4323 C   0  0  0  0  0  0  0  0  0  0  0  0
   10.5224    1.4857   21.7553 H   0  0  0  0  0  0  0  0  0  0  0  0
   12.0965    1.0715   22.3998 H   0  0  0  0  0  0  0  0  0  0  0  0
   10.4563    0.9803   23.8422 C   0  0  0  0  0  0  0  0  0  0  0  0
    9.3666    0.8365   23.7862 H   0  0  0  0  0  0  0  0  0  0  0  0
   10.6021    2.0350   24.1281 H   0  0  0  0  0  0  0  0  0  0  0  0
   10.9915    0.0757   24.9656 C   0  0  0  0  0  0  0  0  0  0  0  0
   12.0824    0.1844   25.0679 H   0  0  0  0  0  0  0  0  0  0  0  0
   10.8040   -0.9808   24.7190 H   0  0  0  0  0  0  0  0  0  0  0  0
   10.3389    0.4189   26.3090 C   0  0  0  0  0  0  0  0  0  0  0  0
    9.3049    0.0608   26.3844 H   0  0  0  0  0  0  0  0  0  0  0  0
   10.3051    1.5091   26.4399 H   0  0  0  0  0  0  0  0  0  0  0  0
   10.8918    0.0031   27.1598 H   0  0  0  0  0  0  0  0  0  0  0  0
    8.8433   -1.9442   22.8066 C   0  0  0  0  0  0  0  0  0  0  0  0
    9.4630   -2.2858   23.6317 H   0  0  0  0  0  0  0  0  0  0  0  0
    7.5402   -2.3260   22.6718 C   0  0  0  0  0  0  0  0  0  0  0  0
    7.0460   -3.0291   23.3268 H   0  0  0  0  0  0  0  0  0  0  0  0
    6.7082   -1.8322   21.5840 C   0  0  0  0  0  0  0  0  0  0  0  0
    5.5922   -2.2453   21.3306 O   0  0  0  0  0  0  0  0  0  0  0  0
    5.4375    0.5381   20.0519 C   0  0  0  0  0  0  0  0  0  0  0  0
    4.9524    0.4428   21.0228 H   0  0  0  0  0  0  0  0  0  0  0  0
    4.8634    1.2719   19.0070 C   0  0  0  0  0  0  0  0  0  0  0  0
    3.9112    1.7808   19.1257 H   0  0  0  0  0  0  0  0  0  0  0  0
  1  2  1  0
  2  3  2  0
  3  4  1  0
  4  5  1  0
  4  6  2  0
  6  7  1  0
  7  8  1  0
  8  9  2  0
  9 10  1  0
 10 11  1  0
 10 12  1  0
 10 13  1  0
 13 14  1  0
 13 15  1  0
 13 16  1  0
 16 17  1  0
 16 18  1  0
 16 19  1  0
 19 20  1  0
 19 21  1  0
 19 22  1  0
 22 23  1  0
 22 24  1  0
 22 25  1  0
  9 26  1  0
 26 27  1  0
 26 28  2  0
 28 29  1  0
 28 30  1  0
 30 31  2  0
  6 32  1  0
 32 33  1  0
 32 34  2  0
 34 35  1  0
 34  2  1  0
 30  7  1  0
M  END
>  <cnnaffinity>  (1) 
-5.10059

>  <filename>  (1) 
CCCCCc1ccc(=O)n(-c2cccnc2)n1

$$$$
