
     RDKit          3D

 45 46  0  0  0  0  0  0  0  0999 V2000
    4.8988    1.8288   16.9713 H   0  0  0  0  0  0  0  0  0  0  0  0
    5.3781    1.3131   17.8010 C   0  0  0  0  0  0  0  0  0  0  0  0
    6.5427    0.7004   17.5261 N   0  0  0  0  0  0  0  0  0  0  0  0
    7.1714    0.0753   18.5314 C   0  0  0  0  0  0  0  0  0  0  0  0
    8.1203   -0.4064   18.2993 H   0  0  0  0  0  0  0  0  0  0  0  0
    6.6663    0.0288   19.8484 C   0  0  0  0  0  0  0  0  0  0  0  0
    7.3477   -0.6398   20.9424 N   0  0  0  0  0  0  0  0  0  0  0  0
    7.8660    0.1127   22.0352 C   0  0  0  0  0  0  0  0  0  0  0  0
    7.7040    1.3143   22.0990 O   0  0  0  0  0  0  0  0  0  0  0  0
    8.6069   -0.6413   23.0265 C   0  0  0  0  0  0  0  0  0  0  0  0
    8.9611   -0.0536   23.8551 H   0  0  0  0  0  0  0  0  0  0  0  0
    8.7822   -1.9714   22.9373 C   0  0  0  0  0  0  0  0  0  0  0  0
    9.4001   -2.8125   24.0064 C   0  0  0  0  0  0  0  0  0  0  0  0
    9.9002   -3.6699   23.5461 H   0  0  0  0  0  0  0  0  0  0  0  0
   10.1781   -2.2143   24.4936 H   0  0  0  0  0  0  0  0  0  0  0  0
    8.3982   -3.2804   25.0760 C   0  0  0  0  0  0  0  0  0  0  0  0
    7.8891   -2.4003   25.4980 H   0  0  0  0  0  0  0  0  0  0  0  0
    7.6103   -3.8969   24.6197 H   0  0  0  0  0  0  0  0  0  0  0  0
    9.0759   -4.0476   26.2136 C   0  0  0  0  0  0  0  0  0  0  0  0
    9.5645   -4.9528   25.8179 H   0  0  0  0  0  0  0  0  0  0  0  0
    9.8793   -3.4273   26.6331 H   0  0  0  0  0  0  0  0  0  0  0  0
    8.1184   -4.4347   27.3433 C   0  0  0  0  0  0  0  0  0  0  0  0
    8.7024   -4.7767   28.2059 H   0  0  0  0  0  0  0  0  0  0  0  0
    7.5775   -3.5353   27.6769 H   0  0  0  0  0  0  0  0  0  0  0  0
    7.1039   -5.5166   26.9567 C   0  0  0  0  0  0  0  0  0  0  0  0
    7.6468   -6.4078   26.6012 H   0  0  0  0  0  0  0  0  0  0  0  0
    6.5084   -5.1681   26.1028 H   0  0  0  0  0  0  0  0  0  0  0  0
    6.1596   -5.9173   28.0964 C   0  0  0  0  0  0  0  0  0  0  0  0
    5.6840   -5.0135   28.5108 H   0  0  0  0  0  0  0  0  0  0  0  0
    5.3424   -6.5287   27.6874 H   0  0  0  0  0  0  0  0  0  0  0  0
    6.8385   -6.6938   29.2304 C   0  0  0  0  0  0  0  0  0  0  0  0
    7.3614   -7.5633   28.8075 H   0  0  0  0  0  0  0  0  0  0  0  0
    7.6144   -6.0720   29.6935 H   0  0  0  0  0  0  0  0  0  0  0  0
    5.8518   -7.1612   30.2987 C   0  0  0  0  0  0  0  0  0  0  0  0
    6.3481   -7.7245   31.0958 H   0  0  0  0  0  0  0  0  0  0  0  0
    5.0837   -7.8096   29.8607 H   0  0  0  0  0  0  0  0  0  0  0  0
    5.3384   -6.3108   30.7634 H   0  0  0  0  0  0  0  0  0  0  0  0
    8.2538   -2.5974   21.8274 N   0  0  0  0  0  0  0  0  0  0  0  0
    8.1043   -3.5903   21.7806 H   0  0  0  0  0  0  0  0  0  0  0  0
    7.2810   -2.0253   21.0303 C   0  0  0  0  0  0  0  0  0  0  0  0
    6.4937   -2.7333   20.4467 O   0  0  0  0  0  0  0  0  0  0  0  0
    5.4568    0.6674   20.1125 C   0  0  0  0  0  0  0  0  0  0  0  0
    5.0690    0.6544   21.1284 H   0  0  0  0  0  0  0  0  0  0  0  0
    4.7888    1.3193   19.0684 C   0  0  0  0  0  0  0  0  0  0  0  0
    3.8489    1.8408   19.2331 H   0  0  0  0  0  0  0  0  0  0  0  0
  1  2  1  0
  2  3  2  0
  3  4  1  0
  4  5  1  0
  4  6  2  0
  6  7  1  0
  7  8  1  0
  8  9  2  0
  8 10  1  0
 10 11  1  0
 10 12  2  0
 12 13  1  0
 13 14  1  0
 13 15  1  0
 13 16  1  0
 16 17  1  0
 16 18  1  0
 16 19  1  0
 19 20  1  0
 19 21  1  0
 19 22  1  0
 22 23  1  0
 22 24  1  0
 22 25  1  0
 25 26  1  0
 25 27  1  0
 25 28  1  0
 28 29  1  0
 28 30  1  0
 28 31  1  0
 31 32  1  0
 31 33  1  0
 31 34  1  0
 34 35  1  0
 34 36  1  0
 34 37  1  0
 12 38  1  0
 38 39  1  0
 38 40  1  0
 40 41  2  0
  6 42  1  0
 42 43  1  0
 42 44  2  0
 44 45  1  0
 44  2  1  0
 40  7  1  0
M  END
>  <cnnaffinity>  (1) 
-5.55138

>  <filename>  (1) 
CCCCCCCCc1cc(=O)n(-c2cccnc2)c(=O)[nH]1

$$$$
