
     RDKit          3D

 43 44  0  0  0  0  0  0  0  0999 V2000
    5.0223    1.7021   16.6955 H   0  0  0  0  0  0  0  0  0  0  0  0
    5.4311    1.3215   17.6305 C   0  0  0  0  0  0  0  0  0  0  0  0
    6.6400    0.7398   17.5569 N   0  0  0  0  0  0  0  0  0  0  0  0
    7.1594    0.2614   18.6941 C   0  0  0  0  0  0  0  0  0  0  0  0
    8.1568   -0.1699   18.6143 H   0  0  0  0  0  0  0  0  0  0  0  0
    6.5105    0.3106   19.9435 C   0  0  0  0  0  0  0  0  0  0  0  0
    7.1389   -0.2763   21.1349 C   0  0  0  0  0  0  0  0  0  0  0  0
    6.9986    0.0075   22.4475 C   0  0  0  0  0  0  0  0  0  0  0  0
    6.4011    0.7479   22.9411 H   0  0  0  0  0  0  0  0  0  0  0  0
    7.8679   -0.8796   23.2087 C   0  0  0  0  0  0  0  0  0  0  0  0
    8.0772   -0.9570   24.4149 O   0  0  0  0  0  0  0  0  0  0  0  0
    8.4329   -1.6962   22.2476 N   0  0  0  0  0  0  0  0  0  0  0  0
    9.4244   -2.7144   22.4997 C   0  0  0  0  0  0  0  0  0  0  0  0
    9.0621   -3.2880   23.3571 H   0  0  0  0  0  0  0  0  0  0  0  0
    9.4172   -3.3824   21.6302 H   0  0  0  0  0  0  0  0  0  0  0  0
   10.8321   -2.1871   22.8217 C   0  0  0  0  0  0  0  0  0  0  0  0
   10.7657   -1.4997   23.6750 H   0  0  0  0  0  0  0  0  0  0  0  0
   11.4044   -3.0527   23.1795 H   0  0  0  0  0  0  0  0  0  0  0  0
   11.5592   -1.5644   21.6268 C   0  0  0  0  0  0  0  0  0  0  0  0
   10.9985   -0.6996   21.2364 H   0  0  0  0  0  0  0  0  0  0  0  0
   11.5124   -2.2932   20.8227 H   0  0  0  0  0  0  0  0  0  0  0  0
   13.0509   -1.2156   21.8248 C   0  0  0  0  0  0  0  0  0  0  0  0
   13.5656   -2.0685   22.2910 H   0  0  0  0  0  0  0  0  0  0  0  0
   13.5035   -1.1747   20.8254 H   0  0  0  0  0  0  0  0  0  0  0  0
   13.3847    0.0786   22.6117 C   0  0  0  0  0  0  0  0  0  0  0  0
   13.4898   -0.1600   23.6817 H   0  0  0  0  0  0  0  0  0  0  0  0
   14.3687    0.4440   22.2827 H   0  0  0  0  0  0  0  0  0  0  0  0
   12.3351    1.1927   22.4776 C   0  0  0  0  0  0  0  0  0  0  0  0
   11.3719    0.7449   22.7569 H   0  0  0  0  0  0  0  0  0  0  0  0
   12.2296    1.5031   21.4257 H   0  0  0  0  0  0  0  0  0  0  0  0
   12.5426    2.4244   23.3652 C   0  0  0  0  0  0  0  0  0  0  0  0
   12.7621    2.0824   24.3866 H   0  0  0  0  0  0  0  0  0  0  0  0
   11.5842    2.9583   23.4258 H   0  0  0  0  0  0  0  0  0  0  0  0
   13.6151    3.4005   22.8816 C   0  0  0  0  0  0  0  0  0  0  0  0
   13.7993    4.1809   23.6285 H   0  0  0  0  0  0  0  0  0  0  0  0
   14.5629    2.8893   22.6821 H   0  0  0  0  0  0  0  0  0  0  0  0
   13.3036    3.8879   21.9487 H   0  0  0  0  0  0  0  0  0  0  0  0
    8.0906   -1.2947   20.9418 N   0  0  0  0  0  0  0  0  0  0  0  0
    7.6905   -2.0628   20.3978 H   0  0  0  0  0  0  0  0  0  0  0  0
    5.2568    0.9405   20.0003 C   0  0  0  0  0  0  0  0  0  0  0  0
    4.7300    1.0403   20.9512 H   0  0  0  0  0  0  0  0  0  0  0  0
    4.7063    1.4409   18.8203 C   0  0  0  0  0  0  0  0  0  0  0  0
    3.7397    1.9364   18.8113 H   0  0  0  0  0  0  0  0  0  0  0  0
  1  2  1  0
  2  3  2  0
  3  4  1  0
  4  5  1  0
  4  6  2  0
  6  7  1  0
  7  8  2  0
  8  9  1  0
  8 10  1  0
 10 11  2  0
 10 12  1  0
 12 13  1  0
 13 14  1  0
 13 15  1  0
 13 16  1  0
 16 17  1  0
 16 18  1  0
 16 19  1  0
 19 20  1  0
 19 21  1  0
 19 22  1  0
 22 23  1  0
 22 24  1  0
 22 25  1  0
 25 26  1  0
 25 27  1  0
 25 28  1  0
 28 29  1  0
 28 30  1  0
 28 31  1  0
 31 32  1  0
 31 33  1  0
 31 34  1  0
 34 35  1  0
 34 36  1  0
 34 37  1  0
 12 38  1  0
 38 39  1  0
  6 40  1  0
 40 41  1  0
 40 42  2  0
 42 43  1  0
 42  2  1  0
 38  7  1  0
M  END
>  <cnnaffinity>  (1) 
-5.75743

>  <filename>  (1) 
CCCCCCCCn1[nH]c(-c2cccnc2)cc1=O

$$$$
