
     RDKit          3D

 46 47  0  0  0  0  0  0  0  0999 V2000
    6.8440   -3.5052   22.7466 H   0  0  0  0  0  0  0  0  0  0  0  0
    7.3823   -2.6551   22.3526 C   0  0  0  0  0  0  0  0  0  0  0  0
    8.6980   -2.5101   22.5222 C   0  0  0  0  0  0  0  0  0  0  0  0
    9.6070   -3.4404   23.2757 C   0  0  0  0  0  0  0  0  0  0  0  0
   10.6311   -3.3224   22.8949 H   0  0  0  0  0  0  0  0  0  0  0  0
    9.3000   -4.4712   23.0665 H   0  0  0  0  0  0  0  0  0  0  0  0
    9.5945   -3.2081   24.8001 C   0  0  0  0  0  0  0  0  0  0  0  0
    8.5624   -3.2123   25.1844 H   0  0  0  0  0  0  0  0  0  0  0  0
    9.9823   -2.1980   24.9991 H   0  0  0  0  0  0  0  0  0  0  0  0
   10.4418   -4.2132   25.5929 C   0  0  0  0  0  0  0  0  0  0  0  0
   11.4761   -4.1280   25.2457 H   0  0  0  0  0  0  0  0  0  0  0  0
   10.4140   -3.9168   26.6485 H   0  0  0  0  0  0  0  0  0  0  0  0
   10.0535   -5.6966   25.5535 C   0  0  0  0  0  0  0  0  0  0  0  0
   10.1647   -6.1004   24.5405 H   0  0  0  0  0  0  0  0  0  0  0  0
   10.7799   -6.2503   26.1710 H   0  0  0  0  0  0  0  0  0  0  0  0
    8.6402   -5.9940   26.0624 C   0  0  0  0  0  0  0  0  0  0  0  0
    7.9033   -5.5581   25.3701 H   0  0  0  0  0  0  0  0  0  0  0  0
    8.4821   -7.0794   26.0242 H   0  0  0  0  0  0  0  0  0  0  0  0
    8.3588   -5.4897   27.4851 C   0  0  0  0  0  0  0  0  0  0  0  0
    8.4141   -4.3905   27.5066 H   0  0  0  0  0  0  0  0  0  0  0  0
    9.1531   -5.8394   28.1621 H   0  0  0  0  0  0  0  0  0  0  0  0
    6.9922   -5.9509   27.9956 C   0  0  0  0  0  0  0  0  0  0  0  0
    6.2168   -5.5107   27.3514 H   0  0  0  0  0  0  0  0  0  0  0  0
    6.9167   -7.0396   27.8639 H   0  0  0  0  0  0  0  0  0  0  0  0
    6.6905   -5.6323   29.4599 C   0  0  0  0  0  0  0  0  0  0  0  0
    7.4092   -6.1159   30.1326 H   0  0  0  0  0  0  0  0  0  0  0  0
    5.6925   -5.9991   29.7232 H   0  0  0  0  0  0  0  0  0  0  0  0
    6.7083   -4.5578   29.6702 H   0  0  0  0  0  0  0  0  0  0  0  0
    9.2843   -1.3282   22.0686 N   0  0  0  0  0  0  0  0  0  0  0  0
   10.2787   -1.2148   22.0315 H   0  0  0  0  0  0  0  0  0  0  0  0
    8.7286   -0.4672   21.1525 C   0  0  0  0  0  0  0  0  0  0  0  0
    9.4217    0.3856   20.6304 O   0  0  0  0  0  0  0  0  0  0  0  0
    7.3828   -0.6945   20.8839 N   0  0  0  0  0  0  0  0  0  0  0  0
    6.7161    0.0046   19.8333 C   0  0  0  0  0  0  0  0  0  0  0  0
    7.2081    0.0684   18.5081 C   0  0  0  0  0  0  0  0  0  0  0  0
    8.1553   -0.4070   18.2597 H   0  0  0  0  0  0  0  0  0  0  0  0
    6.5765    0.6898   17.5030 N   0  0  0  0  0  0  0  0  0  0  0  0
    5.4173    1.3058   17.7947 C   0  0  0  0  0  0  0  0  0  0  0  0
    4.9280    1.8182   16.9700 H   0  0  0  0  0  0  0  0  0  0  0  0
    4.8454    1.3104   19.0720 C   0  0  0  0  0  0  0  0  0  0  0  0
    3.9036    1.8199   19.2521 H   0  0  0  0  0  0  0  0  0  0  0  0
    5.5044    0.6465   20.1084 C   0  0  0  0  0  0  0  0  0  0  0  0
    5.1078    0.6208   21.1266 H   0  0  0  0  0  0  0  0  0  0  0  0
    6.5756   -1.5069   21.8166 C   0  0  0  0  0  0  0  0  0  0  0  0
    5.6865   -1.8739   21.2879 H   0  0  0  0  0  0  0  0  0  0  0  0
    6.2241   -0.8867   22.6651 H   0  0  0  0  0  0  0  0  0  0  0  0
  1  2  1  0
  2  3  2  0
  3  4  1  0
  4  5  1  0
  4  6  1  0
  4  7  1  0
  7  8  1  0
  7  9  1  0
  7 10  1  0
 10 11  1  0
 10 12  1  0
 10 13  1  0
 13 14  1  0
 13 15  1  0
 13 16  1  0
 16 17  1  0
 16 18  1  0
 16 19  1  0
 19 20  1  0
 19 21  1  0
 19 22  1  0
 22 23  1  0
 22 24  1  0
 22 25  1  0
 25 26  1  0
 25 27  1  0
 25 28  1  0
  3 29  1  0
 29 30  1  0
 29 31  1  0
 31 32  2  0
 31 33  1  0
 33 34  1  0
 34 35  2  0
 35 36  1  0
 35 37  1  0
 37 38  2  0
 38 39  1  0
 38 40  1  0
 40 41  1  0
 40 42  2  0
 42 43  1  0
 33 44  1  0
 44 45  1  0
 44 46  1  0
 44  2  1  0
 42 34  1  0
M  END
>  <cnnaffinity>  (1) 
-5.02142

>  <filename>  (1) 
CCCCCCCCC1=CCN(c2cccnc2)C(=O)N1

$$$$
