
     RDKit          3D

 40 41  0  0  0  0  0  0  0  0999 V2000
    5.0488    1.7518   16.7935 H   0  0  0  0  0  0  0  0  0  0  0  0
    5.4557    1.2981   17.6955 C   0  0  0  0  0  0  0  0  0  0  0  0
    6.6367    0.6750   17.5616 N   0  0  0  0  0  0  0  0  0  0  0  0
    7.1691    0.1333   18.6655 C   0  0  0  0  0  0  0  0  0  0  0  0
    8.1232   -0.3718   18.5288 H   0  0  0  0  0  0  0  0  0  0  0  0
    6.5680    0.1891   19.9370 C   0  0  0  0  0  0  0  0  0  0  0  0
    7.2005   -0.3939   21.1156 C   0  0  0  0  0  0  0  0  0  0  0  0
    6.9959   -0.1462   22.4288 C   0  0  0  0  0  0  0  0  0  0  0  0
    6.3597    0.5966   22.8733 H   0  0  0  0  0  0  0  0  0  0  0  0
    7.7584   -1.1168   23.1990 C   0  0  0  0  0  0  0  0  0  0  0  0
    7.8440   -1.3245   24.4040 O   0  0  0  0  0  0  0  0  0  0  0  0
    8.4060   -1.8632   22.2293 N   0  0  0  0  0  0  0  0  0  0  0  0
    8.9985   -3.1595   22.4137 C   0  0  0  0  0  0  0  0  0  0  0  0
    9.2896   -3.1972   23.4678 H   0  0  0  0  0  0  0  0  0  0  0  0
    9.9136   -3.1759   21.8174 H   0  0  0  0  0  0  0  0  0  0  0  0
    8.0398   -4.3063   22.0485 C   0  0  0  0  0  0  0  0  0  0  0  0
    8.6148   -5.2315   21.9294 H   0  0  0  0  0  0  0  0  0  0  0  0
    7.5791   -4.1105   21.0669 H   0  0  0  0  0  0  0  0  0  0  0  0
    6.9345   -4.5611   23.0837 C   0  0  0  0  0  0  0  0  0  0  0  0
    6.3629   -5.4336   22.7491 H   0  0  0  0  0  0  0  0  0  0  0  0
    6.2141   -3.7352   23.0886 H   0  0  0  0  0  0  0  0  0  0  0  0
    7.4368   -4.8199   24.5149 C   0  0  0  0  0  0  0  0  0  0  0  0
    7.7059   -3.8670   24.9851 H   0  0  0  0  0  0  0  0  0  0  0  0
    6.6071   -5.2239   25.1149 H   0  0  0  0  0  0  0  0  0  0  0  0
    8.6192   -5.8006   24.5927 C   0  0  0  0  0  0  0  0  0  0  0  0
    9.5316   -5.3332   24.1897 H   0  0  0  0  0  0  0  0  0  0  0  0
    8.4019   -6.6484   23.9275 H   0  0  0  0  0  0  0  0  0  0  0  0
    8.9094   -6.3233   26.0075 C   0  0  0  0  0  0  0  0  0  0  0  0
    7.9717   -6.6901   26.4507 H   0  0  0  0  0  0  0  0  0  0  0  0
    9.5702   -7.1996   25.9359 H   0  0  0  0  0  0  0  0  0  0  0  0
    9.5419   -5.2891   26.9511 C   0  0  0  0  0  0  0  0  0  0  0  0
   10.5965   -5.1152   26.7018 H   0  0  0  0  0  0  0  0  0  0  0  0
    9.4967   -5.6187   27.9964 H   0  0  0  0  0  0  0  0  0  0  0  0
    9.0297   -4.3194   26.8982 H   0  0  0  0  0  0  0  0  0  0  0  0
    8.1562   -1.3898   20.9325 N   0  0  0  0  0  0  0  0  0  0  0  0
    7.8662   -2.1126   20.2658 H   0  0  0  0  0  0  0  0  0  0  0  0
    5.3187    0.8138   20.0444 C   0  0  0  0  0  0  0  0  0  0  0  0
    4.7909    0.8237   20.9977 H   0  0  0  0  0  0  0  0  0  0  0  0
    4.7535    1.3815   18.9027 C   0  0  0  0  0  0  0  0  0  0  0  0
    3.7966    1.8889   18.9440 H   0  0  0  0  0  0  0  0  0  0  0  0
  1  2  1  0
  2  3  2  0
  3  4  1  0
  4  5  1  0
  4  6  2  0
  6  7  1  0
  7  8  2  0
  8  9  1  0
  8 10  1  0
 10 11  2  0
 10 12  1  0
 12 13  1  0
 13 14  1  0
 13 15  1  0
 13 16  1  0
 16 17  1  0
 16 18  1  0
 16 19  1  0
 19 20  1  0
 19 21  1  0
 19 22  1  0
 22 23  1  0
 22 24  1  0
 22 25  1  0
 25 26  1  0
 25 27  1  0
 25 28  1  0
 28 29  1  0
 28 30  1  0
 28 31  1  0
 31 32  1  0
 31 33  1  0
 31 34  1  0
 12 35  1  0
 35 36  1  0
  6 37  1  0
 37 38  1  0
 37 39  2  0
 39 40  1  0
 39  2  1  0
 35  7  1  0
M  END
>  <cnnaffinity>  (1) 
-5.25487

>  <filename>  (1) 
CCCCCCCn1[nH]c(-c2cccnc2)cc1=O

$$$$
