
     RDKit          3D

 42 43  0  0  0  0  0  0  0  0999 V2000
    9.2613   -2.5554   23.6469 H   0  0  0  0  0  0  0  0  0  0  0  0
    8.7123   -2.0103   22.8910 C   0  0  0  0  0  0  0  0  0  0  0  0
    9.2196   -2.0020   21.6618 N   0  0  0  0  0  0  0  0  0  0  0  0
    8.5509   -1.3366   20.7105 N   0  0  0  0  0  0  0  0  0  0  0  0
    7.3921   -0.7151   21.0063 C   0  0  0  0  0  0  0  0  0  0  0  0
    6.6643   -0.0009   19.9313 C   0  0  0  0  0  0  0  0  0  0  0  0
    7.1828    0.0469   18.6291 C   0  0  0  0  0  0  0  0  0  0  0  0
    8.1276   -0.4325   18.3822 H   0  0  0  0  0  0  0  0  0  0  0  0
    6.5755    0.6616   17.6099 N   0  0  0  0  0  0  0  0  0  0  0  0
    5.4129    1.2810   17.8541 C   0  0  0  0  0  0  0  0  0  0  0  0
    4.9330    1.7708   17.0066 H   0  0  0  0  0  0  0  0  0  0  0  0
    4.8151    1.3016   19.1161 C   0  0  0  0  0  0  0  0  0  0  0  0
    3.8834    1.8368   19.2590 H   0  0  0  0  0  0  0  0  0  0  0  0
    5.4390    0.6489   20.1732 C   0  0  0  0  0  0  0  0  0  0  0  0
    4.9991    0.6367   21.1726 H   0  0  0  0  0  0  0  0  0  0  0  0
    6.8363   -0.7035   22.2365 N   0  0  0  0  0  0  0  0  0  0  0  0
    7.5021   -1.3401   23.1972 C   0  0  0  0  0  0  0  0  0  0  0  0
    6.8999   -1.4137   24.5709 C   0  0  0  0  0  0  0  0  0  0  0  0
    7.6928   -1.4391   25.3293 H   0  0  0  0  0  0  0  0  0  0  0  0
    6.3164   -0.5027   24.7410 H   0  0  0  0  0  0  0  0  0  0  0  0
    6.0088   -2.6498   24.7467 C   0  0  0  0  0  0  0  0  0  0  0  0
    6.5895   -3.5647   24.5675 H   0  0  0  0  0  0  0  0  0  0  0  0
    5.2278   -2.6413   23.9773 H   0  0  0  0  0  0  0  0  0  0  0  0
    5.3648   -2.7261   26.1242 C   0  0  0  0  0  0  0  0  0  0  0  0
    4.7779   -1.8144   26.3058 H   0  0  0  0  0  0  0  0  0  0  0  0
    6.1464   -2.7342   26.8975 H   0  0  0  0  0  0  0  0  0  0  0  0
    4.4588   -3.9463   26.2777 C   0  0  0  0  0  0  0  0  0  0  0  0
    3.7337   -3.9603   25.4524 H   0  0  0  0  0  0  0  0  0  0  0  0
    5.0621   -4.8589   26.1651 H   0  0  0  0  0  0  0  0  0  0  0  0
    3.7077   -3.9973   27.6075 C   0  0  0  0  0  0  0  0  0  0  0  0
    2.9365   -4.7780   27.5584 H   0  0  0  0  0  0  0  0  0  0  0  0
    3.1705   -3.0494   27.7565 H   0  0  0  0  0  0  0  0  0  0  0  0
    4.6024   -4.2586   28.8157 C   0  0  0  0  0  0  0  0  0  0  0  0
    5.3332   -3.4471   28.9312 H   0  0  0  0  0  0  0  0  0  0  0  0
    5.1971   -5.1653   28.6383 H   0  0  0  0  0  0  0  0  0  0  0  0
    3.8145   -4.4163   30.1107 C   0  0  0  0  0  0  0  0  0  0  0  0
    3.0925   -5.2355   29.9944 H   0  0  0  0  0  0  0  0  0  0  0  0
    3.2189   -3.5103   30.2824 H   0  0  0  0  0  0  0  0  0  0  0  0
    4.7078   -4.6844   31.3150 C   0  0  0  0  0  0  0  0  0  0  0  0
    5.2922   -5.6009   31.1735 H   0  0  0  0  0  0  0  0  0  0  0  0
    5.4185   -3.8639   31.4661 H   0  0  0  0  0  0  0  0  0  0  0  0
    4.1219   -4.7956   32.2328 H   0  0  0  0  0  0  0  0  0  0  0  0
  1  2  1  0
  2  3  2  0
  3  4  1  0
  4  5  2  0
  5  6  1  0
  6  7  2  0
  7  8  1  0
  7  9  1  0
  9 10  2  0
 10 11  1  0
 10 12  1  0
 12 13  1  0
 12 14  2  0
 14 15  1  0
  5 16  1  0
 16 17  2  0
 17 18  1  0
 18 19  1  0
 18 20  1  0
 18 21  1  0
 21 22  1  0
 21 23  1  0
 21 24  1  0
 24 25  1  0
 24 26  1  0
 24 27  1  0
 27 28  1  0
 27 29  1  0
 27 30  1  0
 30 31  1  0
 30 32  1  0
 30 33  1  0
 33 34  1  0
 33 35  1  0
 33 36  1  0
 36 37  1  0
 36 38  1  0
 36 39  1  0
 39 40  1  0
 39 41  1  0
 39 42  1  0
 17  2  1  0
 14  6  1  0
M  END
>  <cnnaffinity>  (1) 
-5.46266

>  <filename>  (1) 
CCCCCCCCc1cnnc(-c2cccnc2)n1

$$$$
