
     RDKit          3D

 41 42  0  0  0  0  0  0  0  0999 V2000
    5.0167    1.7809   16.9414 H   0  0  0  0  0  0  0  0  0  0  0  0
    5.4747    1.2934   17.7988 C   0  0  0  0  0  0  0  0  0  0  0  0
    6.6535    0.6841   17.5766 N   0  0  0  0  0  0  0  0  0  0  0  0
    7.2362    0.0694   18.6124 C   0  0  0  0  0  0  0  0  0  0  0  0
    8.1987   -0.4069   18.4437 H   0  0  0  0  0  0  0  0  0  0  0  0
    6.6717    0.0011   19.8981 C   0  0  0  0  0  0  0  0  0  0  0  0
    7.3577   -0.7190   20.9177 N   0  0  0  0  0  0  0  0  0  0  0  0
    8.7279   -0.6295   20.8661 N   0  0  0  0  0  0  0  0  0  0  0  0
    9.4381   -1.2327   21.7803 C   0  0  0  0  0  0  0  0  0  0  0  0
   10.9344   -0.9902   21.7132 C   0  0  0  0  0  0  0  0  0  0  0  0
   11.2869   -1.3062   20.7288 H   0  0  0  0  0  0  0  0  0  0  0  0
   11.4506   -1.6178   22.4457 H   0  0  0  0  0  0  0  0  0  0  0  0
   11.3107    0.4907   21.9142 C   0  0  0  0  0  0  0  0  0  0  0  0
   12.4047    0.5943   21.8627 H   0  0  0  0  0  0  0  0  0  0  0  0
   10.9029    1.0735   21.0774 H   0  0  0  0  0  0  0  0  0  0  0  0
   10.7745    1.0856   23.2188 C   0  0  0  0  0  0  0  0  0  0  0  0
    9.6780    1.1330   23.1458 H   0  0  0  0  0  0  0  0  0  0  0  0
   11.1032    2.1310   23.2953 H   0  0  0  0  0  0  0  0  0  0  0  0
   11.1736    0.3416   24.5014 C   0  0  0  0  0  0  0  0  0  0  0  0
   10.7938   -0.6860   24.4976 H   0  0  0  0  0  0  0  0  0  0  0  0
   12.2708    0.2572   24.5470 H   0  0  0  0  0  0  0  0  0  0  0  0
   10.6750    1.0549   25.7625 C   0  0  0  0  0  0  0  0  0  0  0  0
   11.1201    2.0558   25.7510 H   0  0  0  0  0  0  0  0  0  0  0  0
   11.0550    0.5367   26.6520 H   0  0  0  0  0  0  0  0  0  0  0  0
    9.1499    1.1814   25.9182 C   0  0  0  0  0  0  0  0  0  0  0  0
    8.6816    1.4349   24.9616 H   0  0  0  0  0  0  0  0  0  0  0  0
    8.9424    2.0429   26.5652 H   0  0  0  0  0  0  0  0  0  0  0  0
    8.4392   -0.0540   26.4830 C   0  0  0  0  0  0  0  0  0  0  0  0
    8.9605   -0.4390   27.3678 H   0  0  0  0  0  0  0  0  0  0  0  0
    7.4210    0.2226   26.7851 H   0  0  0  0  0  0  0  0  0  0  0  0
    8.3684   -0.8763   25.7618 H   0  0  0  0  0  0  0  0  0  0  0  0
    8.8380   -2.1193   22.8403 C   0  0  0  0  0  0  0  0  0  0  0  0
    9.4972   -2.7343   23.6721 O   0  0  0  0  0  0  0  0  0  0  0  0
    7.3901   -2.1906   22.7856 C   0  0  0  0  0  0  0  0  0  0  0  0
    6.8911   -2.8031   23.5216 H   0  0  0  0  0  0  0  0  0  0  0  0
    6.7130   -1.4985   21.8425 C   0  0  0  0  0  0  0  0  0  0  0  0
    5.6267   -1.5339   21.7485 H   0  0  0  0  0  0  0  0  0  0  0  0
    5.4592    0.6658   20.1286 C   0  0  0  0  0  0  0  0  0  0  0  0
    5.0360    0.6944   21.1326 H   0  0  0  0  0  0  0  0  0  0  0  0
    4.8496    1.3165   19.0510 C   0  0  0  0  0  0  0  0  0  0  0  0
    3.9082    1.8426   19.1735 H   0  0  0  0  0  0  0  0  0  0  0  0
  1  2  1  0
  2  3  2  0
  3  4  1  0
  4  5  1  0
  4  6  2  0
  6  7  1  0
  7  8  1  0
  8  9  2  0
  9 10  1  0
 10 11  1  0
 10 12  1  0
 10 13  1  0
 13 14  1  0
 13 15  1  0
 13 16  1  0
 16 17  1  0
 16 18  1  0
 16 19  1  0
 19 20  1  0
 19 21  1  0
 19 22  1  0
 22 23  1  0
 22 24  1  0
 22 25  1  0
 25 26  1  0
 25 27  1  0
 25 28  1  0
 28 29  1  0
 28 30  1  0
 28 31  1  0
  9 32  1  0
 32 33  2  0
 32 34  1  0
 34 35  1  0
 34 36  2  0
 36 37  1  0
  6 38  1  0
 38 39  1  0
 38 40  2  0
 40 41  1  0
 40  2  1  0
 36  7  1  0
M  END
>  <cnnaffinity>  (1) 
-5.31108

>  <filename>  (1) 
CCCCCCCc1nn(-c2cccnc2)ccc1=O

$$$$
