
     RDKit          3D

 34 36  0  0  0  0  0  0  0  0999 V2000
    4.9159    1.7752   17.0023 H   0  0  0  0  0  0  0  0  0  0  0  0
    5.4046    1.2898   17.8430 C   0  0  0  0  0  0  0  0  0  0  0  0
    6.5702    0.6780   17.5778 N   0  0  0  0  0  0  0  0  0  0  0  0
    7.1753    0.0570   18.5911 C   0  0  0  0  0  0  0  0  0  0  0  0
    8.1248   -0.4348   18.3741 H   0  0  0  0  0  0  0  0  0  0  0  0
    6.6485    0.0122   19.8921 C   0  0  0  0  0  0  0  0  0  0  0  0
    7.4029   -0.7028   20.9192 C   0  0  0  0  0  0  0  0  0  0  0  0
    8.3223   -1.6093   20.6961 N   0  0  0  0  0  0  0  0  0  0  0  0
    8.8181   -2.0544   21.9007 N   0  0  0  0  0  0  0  0  0  0  0  0
    8.1848   -1.3747   22.8168 C   0  0  0  0  0  0  0  0  0  0  0  0
    8.2303   -1.1445   24.5401 S   0  0  0  0  0  0  0  0  0  0  0  0
    7.0253    0.1318   24.3275 C   0  0  0  0  0  0  0  0  0  0  0  0
    6.4674    0.8780   25.4990 C   0  0  0  0  0  0  0  0  0  0  0  0
    7.1057    0.7074   26.3719 H   0  0  0  0  0  0  0  0  0  0  0  0
    6.5258    1.9468   25.2709 H   0  0  0  0  0  0  0  0  0  0  0  0
    5.0114    0.4856   25.8089 C   0  0  0  0  0  0  0  0  0  0  0  0
    4.4000    0.7344   24.9338 H   0  0  0  0  0  0  0  0  0  0  0  0
    4.6451    1.1171   26.6279 H   0  0  0  0  0  0  0  0  0  0  0  0
    4.8114   -0.9970   26.1521 C   0  0  0  0  0  0  0  0  0  0  0  0
    3.7372   -1.1717   26.3026 H   0  0  0  0  0  0  0  0  0  0  0  0
    5.0928   -1.6132   25.2876 H   0  0  0  0  0  0  0  0  0  0  0  0
    5.5629   -1.4951   27.3923 C   0  0  0  0  0  0  0  0  0  0  0  0
    5.3682   -2.5676   27.5093 H   0  0  0  0  0  0  0  0  0  0  0  0
    6.6460   -1.4080   27.2401 H   0  0  0  0  0  0  0  0  0  0  0  0
    5.1647   -0.7786   28.6788 C   0  0  0  0  0  0  0  0  0  0  0  0
    5.6146   -1.2568   29.5526 H   0  0  0  0  0  0  0  0  0  0  0  0
    5.4842    0.2684   28.6730 H   0  0  0  0  0  0  0  0  0  0  0  0
    4.0772   -0.7917   28.8107 H   0  0  0  0  0  0  0  0  0  0  0  0
    6.6195    0.3393   23.1186 N   0  0  0  0  0  0  0  0  0  0  0  0
    7.2721   -0.5259   22.2798 N   0  0  0  0  0  0  0  0  0  0  0  0
    5.4332    0.6523   20.1617 C   0  0  0  0  0  0  0  0  0  0  0  0
    5.0079    0.6351   21.1681 H   0  0  0  0  0  0  0  0  0  0  0  0
    4.8047    1.3087   19.1087 C   0  0  0  0  0  0  0  0  0  0  0  0
    3.8740    1.8435   19.2619 H   0  0  0  0  0  0  0  0  0  0  0  0
  1  2  1  0
  2  3  2  0
  3  4  1  0
  4  5  1  0
  4  6  2  0
  6  7  1  0
  7  8  2  0
  8  9  1  0
  9 10  2  0
 10 11  1  0
 11 12  1  0
 12 13  1  0
 13 14  1  0
 13 15  1  0
 13 16  1  0
 16 17  1  0
 16 18  1  0
 16 19  1  0
 19 20  1  0
 19 21  1  0
 19 22  1  0
 22 23  1  0
 22 24  1  0
 22 25  1  0
 25 26  1  0
 25 27  1  0
 25 28  1  0
 12 29  2  0
 29 30  1  0
  6 31  1  0
 31 32  1  0
 31 33  2  0
 33 34  1  0
 33  2  1  0
 30  7  1  0
 30 10  1  0
M  END
>  <cnnaffinity>  (1) 
-5.20276

>  <filename>  (1) 
CCCCCc1nn2c(-c3cccnc3)nnc2s1

$$$$
