
     RDKit          3D

 43 44  0  0  0  0  0  0  0  0999 V2000
    1.0073   -0.6489   27.0659 C   0  0  0  0  0  0  0  0  0  0  0  0
    0.9149   -2.1435   27.3711 C   0  0  0  0  0  0  0  0  0  0  0  0
    1.6767   -3.0492   26.3919 C   0  0  0  0  0  0  0  0  0  0  0  0
    3.1928   -2.8835   26.4483 C   0  0  0  0  0  0  0  0  0  0  0  0
    3.7843   -3.8674   25.6163 O   0  0  0  0  0  0  0  0  0  0  0  0
    5.1956   -3.7948   25.4506 C   0  0  0  0  0  0  0  0  0  0  0  0
    5.5646   -2.8301   24.3138 C   0  0  0  0  0  0  0  0  0  0  0  0
    6.9453   -2.9235   23.8580 N   0  0  0  0  0  0  0  0  0  0  0  0
    7.4397   -2.1556   22.8589 C   0  0  0  0  0  0  0  0  0  0  0  0
    6.6758   -1.5152   21.8934 C   0  0  0  0  0  0  0  0  0  0  0  0
    7.3851   -0.7810   20.9720 C   0  0  0  0  0  0  0  0  0  0  0  0
    6.6868   -0.0106   19.9298 C   0  0  0  0  0  0  0  0  0  0  0  0
    5.4769    0.6570   20.1633 C   0  0  0  0  0  0  0  0  0  0  0  0
    4.8640    1.3032   19.0910 C   0  0  0  0  0  0  0  0  0  0  0  0
    5.4907    1.2660   17.8379 C   0  0  0  0  0  0  0  0  0  0  0  0
    6.6582    0.6457   17.6106 N   0  0  0  0  0  0  0  0  0  0  0  0
    7.2428    0.0385   18.6486 C   0  0  0  0  0  0  0  0  0  0  0  0
    8.1959   -0.4475   18.4579 H   0  0  0  0  0  0  0  0  0  0  0  0
    5.0296    1.7471   16.9766 H   0  0  0  0  0  0  0  0  0  0  0  0
    3.9219    1.8271   19.2094 H   0  0  0  0  0  0  0  0  0  0  0  0
    5.0360    0.6849   21.1635 H   0  0  0  0  0  0  0  0  0  0  0  0
    8.7169   -0.7487   20.9465 N   0  0  0  0  0  0  0  0  0  0  0  0
    9.3444   -1.3870   21.9337 C   0  0  0  0  0  0  0  0  0  0  0  0
   10.8341   -1.3476   21.9011 C   0  0  0  0  0  0  0  0  0  0  0  0
   11.1738   -0.4261   21.4255 H   0  0  0  0  0  0  0  0  0  0  0  0
   11.1824   -2.1940   21.3049 H   0  0  0  0  0  0  0  0  0  0  0  0
   11.2175   -1.4441   22.9182 H   0  0  0  0  0  0  0  0  0  0  0  0
    8.7693   -2.0810   22.9054 N   0  0  0  0  0  0  0  0  0  0  0  0
    5.6019   -1.5964   21.8400 H   0  0  0  0  0  0  0  0  0  0  0  0
    7.7258   -3.0266   24.4954 H   0  0  0  0  0  0  0  0  0  0  0  0
    5.2861   -1.8019   24.6074 H   0  0  0  0  0  0  0  0  0  0  0  0
    4.9325   -3.1225   23.4714 H   0  0  0  0  0  0  0  0  0  0  0  0
    5.5295   -4.8011   25.1748 H   0  0  0  0  0  0  0  0  0  0  0  0
    5.7047   -3.5295   26.3914 H   0  0  0  0  0  0  0  0  0  0  0  0
    3.4835   -1.8673   26.1302 H   0  0  0  0  0  0  0  0  0  0  0  0
    3.5471   -3.0148   27.4837 H   0  0  0  0  0  0  0  0  0  0  0  0
    1.4451   -4.1010   26.6079 H   0  0  0  0  0  0  0  0  0  0  0  0
    1.3383   -2.8633   25.3625 H   0  0  0  0  0  0  0  0  0  0  0  0
    1.2764   -2.3316   28.3925 H   0  0  0  0  0  0  0  0  0  0  0  0
   -0.1406   -2.4392   27.3709 H   0  0  0  0  0  0  0  0  0  0  0  0
    2.0366   -0.2818   27.1234 H   0  0  0  0  0  0  0  0  0  0  0  0
    0.6293   -0.4213   26.0632 H   0  0  0  0  0  0  0  0  0  0  0  0
    0.4167   -0.0700   27.7827 H   0  0  0  0  0  0  0  0  0  0  0  0
  1  2  1  0
  2  3  1  0
  3  4  1  0
  4  5  1  0
  5  6  1  0
  6  7  1  0
  7  8  1  0
  8  9  1  0
  9 10  2  0
 10 11  1  0
 11 12  1  0
 12 13  2  0
 13 14  1  0
 14 15  2  0
 15 16  1  0
 16 17  2  0
 17 18  1  0
 15 19  1  0
 14 20  1  0
 13 21  1  0
 11 22  2  0
 22 23  1  0
 23 24  1  0
 24 25  1  0
 24 26  1  0
 24 27  1  0
 23 28  2  0
 10 29  1  0
  8 30  1  0
  7 31  1  0
  7 32  1  0
  6 33  1  0
  6 34  1  0
  4 35  1  0
  4 36  1  0
  3 37  1  0
  3 38  1  0
  2 39  1  0
  2 40  1  0
  1 41  1  0
  1 42  1  0
  1 43  1  0
 28  9  1  0
 17 12  1  0
M  END
>  <cnnaffinity>  (1) 
-4.70186

>  <filename>  (1) 
CCCCOCCNc1cc(-c2cccnc2)nc(C)n1

$$$$
