
     RDKit          3D

 36 38  0  0  0  0  0  0  0  0999 V2000
    4.9521    1.8033   16.9747 H   0  0  0  0  0  0  0  0  0  0  0  0
    5.4016    1.2936   17.8248 C   0  0  0  0  0  0  0  0  0  0  0  0
    6.5562    0.6544   17.5817 N   0  0  0  0  0  0  0  0  0  0  0  0
    7.1536    0.0370   18.6057 C   0  0  0  0  0  0  0  0  0  0  0  0
    8.0922   -0.4624   18.3732 H   0  0  0  0  0  0  0  0  0  0  0  0
    6.6504    0.0215   19.9163 C   0  0  0  0  0  0  0  0  0  0  0  0
    7.4136   -0.6535   20.9663 C   0  0  0  0  0  0  0  0  0  0  0  0
    7.9851   -1.8911   20.7636 N   0  0  0  0  0  0  0  0  0  0  0  0
    8.4864   -2.1879   21.9357 C   0  0  0  0  0  0  0  0  0  0  0  0
    9.2887   -3.5549   22.6556 S   0  0  0  0  0  0  0  0  0  0  0  0
    9.6242   -2.6227   24.1016 C   0  0  0  0  0  0  0  0  0  0  0  0
   10.2470   -3.0657   24.8696 H   0  0  0  0  0  0  0  0  0  0  0  0
    9.0420   -1.4092   24.0605 C   0  0  0  0  0  0  0  0  0  0  0  0
    9.0063   -0.6283   24.8120 H   0  0  0  0  0  0  0  0  0  0  0  0
    8.3660   -1.1895   22.8634 N   0  0  0  0  0  0  0  0  0  0  0  0
    7.6530   -0.1751   22.2501 C   0  0  0  0  0  0  0  0  0  0  0  0
    7.4656    1.1960   22.8096 C   0  0  0  0  0  0  0  0  0  0  0  0
    7.7663    1.2084   23.8657 H   0  0  0  0  0  0  0  0  0  0  0  0
    6.3979    1.4444   22.8045 H   0  0  0  0  0  0  0  0  0  0  0  0
    8.2277    2.2634   21.9953 C   0  0  0  0  0  0  0  0  0  0  0  0
    7.8243    2.2656   20.9742 H   0  0  0  0  0  0  0  0  0  0  0  0
    8.0118    3.2541   22.4132 H   0  0  0  0  0  0  0  0  0  0  0  0
    9.7449    2.0350   21.9283 C   0  0  0  0  0  0  0  0  0  0  0  0
    9.9324    1.0517   21.4721 H   0  0  0  0  0  0  0  0  0  0  0  0
   10.1835    2.7735   21.2458 H   0  0  0  0  0  0  0  0  0  0  0  0
   10.4807    2.1402   23.2710 C   0  0  0  0  0  0  0  0  0  0  0  0
   11.5365    1.8919   23.1022 H   0  0  0  0  0  0  0  0  0  0  0  0
   10.1175    1.3719   23.9695 H   0  0  0  0  0  0  0  0  0  0  0  0
   10.3857    3.5281   23.9129 C   0  0  0  0  0  0  0  0  0  0  0  0
   11.0782    3.6067   24.7501 H   0  0  0  0  0  0  0  0  0  0  0  0
    9.3767    3.7465   24.2831 H   0  0  0  0  0  0  0  0  0  0  0  0
   10.6525    4.3204   23.2042 H   0  0  0  0  0  0  0  0  0  0  0  0
    5.4277    0.6767   20.1498 C   0  0  0  0  0  0  0  0  0  0  0  0
    4.9632    0.6702   21.1364 H   0  0  0  0  0  0  0  0  0  0  0  0
    4.7946    1.3201   19.0859 C   0  0  0  0  0  0  0  0  0  0  0  0
    3.8549    1.8504   19.2195 H   0  0  0  0  0  0  0  0  0  0  0  0
  1  2  1  0
  2  3  2  0
  3  4  1  0
  4  5  1  0
  4  6  2  0
  6  7  1  0
  7  8  1  0
  8  9  2  0
  9 10  1  0
 10 11  1  0
 11 12  1  0
 11 13  2  0
 13 14  1  0
 13 15  1  0
 15 16  1  0
 16 17  1  0
 17 18  1  0
 17 19  1  0
 17 20  1  0
 20 21  1  0
 20 22  1  0
 20 23  1  0
 23 24  1  0
 23 25  1  0
 23 26  1  0
 26 27  1  0
 26 28  1  0
 26 29  1  0
 29 30  1  0
 29 31  1  0
 29 32  1  0
  6 33  1  0
 33 34  1  0
 33 35  2  0
 35 36  1  0
 35  2  1  0
 16  7  2  0
 15  9  1  0
M  END
>  <cnnaffinity>  (1) 
-5.71062

>  <filename>  (1) 
CCCCCc1c(-c2cccnc2)nc2sccn12

$$$$
