
     RDKit          3D

 42 43  0  0  0  0  0  0  0  0999 V2000
    4.9463    1.7854   16.9968 H   0  0  0  0  0  0  0  0  0  0  0  0
    5.4098    1.2817   17.8403 C   0  0  0  0  0  0  0  0  0  0  0  0
    6.5702    0.6590   17.5837 N   0  0  0  0  0  0  0  0  0  0  0  0
    7.1893    0.0502   18.5959 C   0  0  0  0  0  0  0  0  0  0  0  0
    8.1370   -0.4259   18.3627 H   0  0  0  0  0  0  0  0  0  0  0  0
    6.6741    0.0104   19.9042 C   0  0  0  0  0  0  0  0  0  0  0  0
    7.3882   -0.6723   20.9103 N   0  0  0  0  0  0  0  0  0  0  0  0
    8.7025   -0.9512   20.8010 N   0  0  0  0  0  0  0  0  0  0  0  0
    9.0045   -1.5886   21.9228 C   0  0  0  0  0  0  0  0  0  0  0  0
   10.0241   -1.9306   22.0712 H   0  0  0  0  0  0  0  0  0  0  0  0
    7.8818   -1.7446   22.7770 C   0  0  0  0  0  0  0  0  0  0  0  0
    7.7651   -2.5167   24.0617 C   0  0  0  0  0  0  0  0  0  0  0  0
    8.7074   -2.4673   24.6258 H   0  0  0  0  0  0  0  0  0  0  0  0
    7.0093   -2.0610   24.7210 H   0  0  0  0  0  0  0  0  0  0  0  0
    7.4010   -3.9919   23.8107 C   0  0  0  0  0  0  0  0  0  0  0  0
    8.1231   -4.4205   23.1054 H   0  0  0  0  0  0  0  0  0  0  0  0
    6.4229   -4.0406   23.3088 H   0  0  0  0  0  0  0  0  0  0  0  0
    7.3611   -4.8419   25.0819 C   0  0  0  0  0  0  0  0  0  0  0  0
    7.2733   -5.9018   24.8010 H   0  0  0  0  0  0  0  0  0  0  0  0
    8.3211   -4.7485   25.6151 H   0  0  0  0  0  0  0  0  0  0  0  0
    6.2050   -4.4733   26.0217 C   0  0  0  0  0  0  0  0  0  0  0  0
    6.3552   -3.4558   26.4177 H   0  0  0  0  0  0  0  0  0  0  0  0
    5.2693   -4.4315   25.4445 H   0  0  0  0  0  0  0  0  0  0  0  0
    6.0358   -5.4538   27.1873 C   0  0  0  0  0  0  0  0  0  0  0  0
    5.9151   -6.4725   26.7850 H   0  0  0  0  0  0  0  0  0  0  0  0
    5.1005   -5.2245   27.7187 H   0  0  0  0  0  0  0  0  0  0  0  0
    7.2010   -5.4305   28.1882 C   0  0  0  0  0  0  0  0  0  0  0  0
    8.1200   -5.7911   27.6973 H   0  0  0  0  0  0  0  0  0  0  0  0
    7.4107   -4.3864   28.4573 H   0  0  0  0  0  0  0  0  0  0  0  0
    6.9259   -6.2459   29.4630 C   0  0  0  0  0  0  0  0  0  0  0  0
    5.9842   -5.8975   29.9136 H   0  0  0  0  0  0  0  0  0  0  0  0
    7.7012   -6.0393   30.2065 H   0  0  0  0  0  0  0  0  0  0  0  0
    6.8877   -7.7584   29.2276 C   0  0  0  0  0  0  0  0  0  0  0  0
    7.8444   -8.0749   28.7981 H   0  0  0  0  0  0  0  0  0  0  0  0
    6.0790   -8.0514   28.5445 H   0  0  0  0  0  0  0  0  0  0  0  0
    6.7617   -8.3220   30.1586 H   0  0  0  0  0  0  0  0  0  0  0  0
    6.8727   -1.1488   22.0710 C   0  0  0  0  0  0  0  0  0  0  0  0
    5.8176   -1.0493   22.2534 H   0  0  0  0  0  0  0  0  0  0  0  0
    5.4516    0.6504   20.1671 C   0  0  0  0  0  0  0  0  0  0  0  0
    5.0114    0.6666   21.1665 H   0  0  0  0  0  0  0  0  0  0  0  0
    4.8198    1.3009   19.1074 C   0  0  0  0  0  0  0  0  0  0  0  0
    3.8879    1.8287   19.2572 H   0  0  0  0  0  0  0  0  0  0  0  0
  1  2  1  0
  2  3  2  0
  3  4  1  0
  4  5  1  0
  4  6  2  0
  6  7  1  0
  7  8  1  0
  8  9  2  0
  9 10  1  0
  9 11  1  0
 11 12  1  0
 12 13  1  0
 12 14  1  0
 12 15  1  0
 15 16  1  0
 15 17  1  0
 15 18  1  0
 18 19  1  0
 18 20  1  0
 18 21  1  0
 21 22  1  0
 21 23  1  0
 21 24  1  0
 24 25  1  0
 24 26  1  0
 24 27  1  0
 27 28  1  0
 27 29  1  0
 27 30  1  0
 30 31  1  0
 30 32  1  0
 30 33  1  0
 33 34  1  0
 33 35  1  0
 33 36  1  0
 11 37  2  0
 37 38  1  0
  6 39  1  0
 39 40  1  0
 39 41  2  0
 41 42  1  0
 41  2  1  0
 37  7  1  0
M  END
>  <cnnaffinity>  (1) 
-5.30315

>  <filename>  (1) 
CCCCCCCCc1cnn(-c2cccnc2)c1

$$$$
