
     RDKit          3D

 43 44  0  0  0  0  0  0  0  0999 V2000
    8.4864   -1.8509   19.8811 H   0  0  0  0  0  0  0  0  0  0  0  0
    8.2515   -1.5591   20.8876 C   0  0  0  0  0  0  0  0  0  0  0  0
    8.8626   -2.2606   21.8482 N   0  0  0  0  0  0  0  0  0  0  0  0
    8.6574   -1.8434   23.1169 C   0  0  0  0  0  0  0  0  0  0  0  0
    9.3171   -2.6463   24.2069 C   0  0  0  0  0  0  0  0  0  0  0  0
   10.1690   -3.1471   23.7347 H   0  0  0  0  0  0  0  0  0  0  0  0
    9.7089   -1.9688   24.9781 H   0  0  0  0  0  0  0  0  0  0  0  0
    8.3985   -3.7018   24.8646 C   0  0  0  0  0  0  0  0  0  0  0  0
    7.4912   -3.2093   25.2450 H   0  0  0  0  0  0  0  0  0  0  0  0
    8.0667   -4.4129   24.0923 H   0  0  0  0  0  0  0  0  0  0  0  0
    9.0694   -4.4890   26.0042 C   0  0  0  0  0  0  0  0  0  0  0  0
    9.3989   -3.7913   26.7917 H   0  0  0  0  0  0  0  0  0  0  0  0
    9.9851   -4.9631   25.6177 H   0  0  0  0  0  0  0  0  0  0  0  0
    8.1789   -5.5866   26.6232 C   0  0  0  0  0  0  0  0  0  0  0  0
    7.8001   -6.2266   25.8119 H   0  0  0  0  0  0  0  0  0  0  0  0
    8.8101   -6.2385   27.2425 H   0  0  0  0  0  0  0  0  0  0  0  0
    6.9928   -5.0637   27.4512 C   0  0  0  0  0  0  0  0  0  0  0  0
    7.3831   -4.5137   28.3197 H   0  0  0  0  0  0  0  0  0  0  0  0
    6.4347   -4.3297   26.8529 H   0  0  0  0  0  0  0  0  0  0  0  0
    5.9871   -6.1238   27.9370 C   0  0  0  0  0  0  0  0  0  0  0  0
    5.1415   -5.5979   28.4037 H   0  0  0  0  0  0  0  0  0  0  0  0
    5.5569   -6.6341   27.0620 H   0  0  0  0  0  0  0  0  0  0  0  0
    6.5190   -7.1593   28.9407 C   0  0  0  0  0  0  0  0  0  0  0  0
    7.3598   -7.6994   28.4987 H   0  0  0  0  0  0  0  0  0  0  0  0
    5.7364   -7.9053   29.1235 H   0  0  0  0  0  0  0  0  0  0  0  0
    7.0110   -6.5431   30.2481 C   0  0  0  0  0  0  0  0  0  0  0  0
    7.2863   -7.2950   30.9961 H   0  0  0  0  0  0  0  0  0  0  0  0
    7.9047   -5.9684   30.0265 H   0  0  0  0  0  0  0  0  0  0  0  0
    6.2772   -5.8592   30.6899 H   0  0  0  0  0  0  0  0  0  0  0  0
    7.8450   -0.7095   23.3655 C   0  0  0  0  0  0  0  0  0  0  0  0
    7.7461   -0.3089   24.3700 H   0  0  0  0  0  0  0  0  0  0  0  0
    7.1666   -0.0567   22.4021 N   0  0  0  0  0  0  0  0  0  0  0  0
    7.3510   -0.4904   21.1388 C   0  0  0  0  0  0  0  0  0  0  0  0
    6.5983    0.1666   20.0377 C   0  0  0  0  0  0  0  0  0  0  0  0
    7.1511    0.1454   18.7473 C   0  0  0  0  0  0  0  0  0  0  0  0
    8.1059   -0.3439   18.5768 H   0  0  0  0  0  0  0  0  0  0  0  0
    6.5936    0.6904   17.6679 N   0  0  0  0  0  0  0  0  0  0  0  0
    5.4128    1.3026   17.8307 C   0  0  0  0  0  0  0  0  0  0  0  0
    4.9738    1.7562   16.9418 H   0  0  0  0  0  0  0  0  0  0  0  0
    4.7530    1.3614   19.0624 C   0  0  0  0  0  0  0  0  0  0  0  0
    3.7926    1.8574   19.1231 H   0  0  0  0  0  0  0  0  0  0  0  0
    5.3523    0.7950   20.1887 C   0  0  0  0  0  0  0  0  0  0  0  0
    4.8696    0.8401   21.1648 H   0  0  0  0  0  0  0  0  0  0  0  0
  1  2  1  0
  2  3  2  0
  3  4  1  0
  4  5  1  0
  5  6  1  0
  5  7  1  0
  5  8  1  0
  8  9  1  0
  8 10  1  0
  8 11  1  0
 11 12  1  0
 11 13  1  0
 11 14  1  0
 14 15  1  0
 14 16  1  0
 14 17  1  0
 17 18  1  0
 17 19  1  0
 17 20  1  0
 20 21  1  0
 20 22  1  0
 20 23  1  0
 23 24  1  0
 23 25  1  0
 23 26  1  0
 26 27  1  0
 26 28  1  0
 26 29  1  0
  4 30  2  0
 30 31  1  0
 30 32  1  0
 32 33  2  0
 33 34  1  0
 34 35  2  0
 35 36  1  0
 35 37  1  0
 37 38  2  0
 38 39  1  0
 38 40  1  0
 40 41  1  0
 40 42  2  0
 42 43  1  0
 33  2  1  0
 42 34  1  0
M  END
>  <cnnaffinity>  (1) 
-5.1779

>  <filename>  (1) 
CCCCCCCCc1cnc(-c2cccnc2)cn1

$$$$
