
     RDKit          3D

 43 44  0  0  0  0  0  0  0  0999 V2000
    4.9116    1.7827   16.9925 H   0  0  0  0  0  0  0  0  0  0  0  0
    5.3940    1.2965   17.8359 C   0  0  0  0  0  0  0  0  0  0  0  0
    6.5575    0.6765   17.5781 N   0  0  0  0  0  0  0  0  0  0  0  0
    7.1663    0.0563   18.5925 C   0  0  0  0  0  0  0  0  0  0  0  0
    8.1194   -0.4223   18.3872 H   0  0  0  0  0  0  0  0  0  0  0  0
    6.6392   -0.0028   19.8968 C   0  0  0  0  0  0  0  0  0  0  0  0
    7.3525   -0.6744   20.9073 N   0  0  0  0  0  0  0  0  0  0  0  0
    8.7492   -0.6446   21.1473 C   0  0  0  0  0  0  0  0  0  0  0  0
    9.5675   -0.0427   20.4750 O   0  0  0  0  0  0  0  0  0  0  0  0
    8.9087   -1.4666   22.3196 C   0  0  0  0  0  0  0  0  0  0  0  0
    9.8699   -1.6348   22.7658 H   0  0  0  0  0  0  0  0  0  0  0  0
    7.6992   -1.9156   22.7224 C   0  0  0  0  0  0  0  0  0  0  0  0
    7.3684   -2.6998   23.9436 C   0  0  0  0  0  0  0  0  0  0  0  0
    8.1497   -3.4587   24.0658 H   0  0  0  0  0  0  0  0  0  0  0  0
    6.4143   -3.2316   23.8117 H   0  0  0  0  0  0  0  0  0  0  0  0
    7.3087   -1.8118   25.1974 C   0  0  0  0  0  0  0  0  0  0  0  0
    7.2389   -2.4551   26.0837 H   0  0  0  0  0  0  0  0  0  0  0  0
    8.2518   -1.2543   25.2904 H   0  0  0  0  0  0  0  0  0  0  0  0
    6.1426   -0.8315   25.1781 C   0  0  0  0  0  0  0  0  0  0  0  0
    6.2234   -0.1499   24.3192 H   0  0  0  0  0  0  0  0  0  0  0  0
    5.2055   -1.3906   25.0379 H   0  0  0  0  0  0  0  0  0  0  0  0
    6.0531   -0.0133   26.4573 C   0  0  0  0  0  0  0  0  0  0  0  0
    5.9565   -0.6913   27.3191 H   0  0  0  0  0  0  0  0  0  0  0  0
    6.9971    0.5309   26.6050 H   0  0  0  0  0  0  0  0  0  0  0  0
    4.8776    0.9597   26.4483 C   0  0  0  0  0  0  0  0  0  0  0  0
    5.0098    1.6778   25.6236 H   0  0  0  0  0  0  0  0  0  0  0  0
    3.9557    0.4055   26.2254 H   0  0  0  0  0  0  0  0  0  0  0  0
    4.7012    1.7247   27.7589 C   0  0  0  0  0  0  0  0  0  0  0  0
    4.6570    1.0075   28.5934 H   0  0  0  0  0  0  0  0  0  0  0  0
    3.7301    2.2368   27.7471 H   0  0  0  0  0  0  0  0  0  0  0  0
    5.8033    2.7485   28.0322 C   0  0  0  0  0  0  0  0  0  0  0  0
    6.7736    2.2451   28.1286 H   0  0  0  0  0  0  0  0  0  0  0  0
    5.8919    3.4203   27.1677 H   0  0  0  0  0  0  0  0  0  0  0  0
    5.5326    3.5691   29.2870 C   0  0  0  0  0  0  0  0  0  0  0  0
    5.4594    2.9186   30.1673 H   0  0  0  0  0  0  0  0  0  0  0  0
    6.3294    4.2973   29.4661 H   0  0  0  0  0  0  0  0  0  0  0  0
    4.5851    4.1150   29.1972 H   0  0  0  0  0  0  0  0  0  0  0  0
    6.7397   -1.4240   21.8972 N   0  0  0  0  0  0  0  0  0  0  0  0
    5.7356   -1.5423   21.9361 H   0  0  0  0  0  0  0  0  0  0  0  0
    5.4269    0.6511   20.1590 C   0  0  0  0  0  0  0  0  0  0  0  0
    5.0116    0.6344   21.1699 H   0  0  0  0  0  0  0  0  0  0  0  0
    4.8008    1.3174   19.1042 C   0  0  0  0  0  0  0  0  0  0  0  0
    3.8686    1.8482   19.2597 H   0  0  0  0  0  0  0  0  0  0  0  0
  1  2  1  0
  2  3  2  0
  3  4  1  0
  4  5  1  0
  4  6  2  0
  6  7  1  0
  7  8  1  0
  8  9  2  0
  8 10  1  0
 10 11  1  0
 10 12  2  0
 12 13  1  0
 13 14  1  0
 13 15  1  0
 13 16  1  0
 16 17  1  0
 16 18  1  0
 16 19  1  0
 19 20  1  0
 19 21  1  0
 19 22  1  0
 22 23  1  0
 22 24  1  0
 22 25  1  0
 25 26  1  0
 25 27  1  0
 25 28  1  0
 28 29  1  0
 28 30  1  0
 28 31  1  0
 31 32  1  0
 31 33  1  0
 31 34  1  0
 34 35  1  0
 34 36  1  0
 34 37  1  0
 12 38  1  0
 38 39  1  0
  6 40  1  0
 40 41  1  0
 40 42  2  0
 42 43  1  0
 42  2  1  0
 38  7  1  0
M  END
>  <cnnaffinity>  (1) 
-5.40365

>  <filename>  (1) 
CCCCCCCCc1cc(=O)n(-c2cccnc2)[nH]1

$$$$
