
     RDKit          3D

 40 42  0  0  0  0  0  0  0  0999 V2000
    4.9152    1.7748   17.0026 H   0  0  0  0  0  0  0  0  0  0  0  0
    5.4044    1.2899   17.8431 C   0  0  0  0  0  0  0  0  0  0  0  0
    6.5701    0.6784   17.5784 N   0  0  0  0  0  0  0  0  0  0  0  0
    7.1761    0.0572   18.5909 C   0  0  0  0  0  0  0  0  0  0  0  0
    8.1254   -0.4350   18.3747 H   0  0  0  0  0  0  0  0  0  0  0  0
    6.6495    0.0120   19.8911 C   0  0  0  0  0  0  0  0  0  0  0  0
    7.4038   -0.7047   20.9164 C   0  0  0  0  0  0  0  0  0  0  0  0
    8.3247   -1.6103   20.6950 N   0  0  0  0  0  0  0  0  0  0  0  0
    8.8174   -2.0560   21.9006 N   0  0  0  0  0  0  0  0  0  0  0  0
    8.1789   -1.3781   22.8143 C   0  0  0  0  0  0  0  0  0  0  0  0
    8.2191   -1.1647   24.5371 S   0  0  0  0  0  0  0  0  0  0  0  0
    7.0110    0.1133   24.3245 C   0  0  0  0  0  0  0  0  0  0  0  0
    6.4312    0.8078   25.5083 C   0  0  0  0  0  0  0  0  0  0  0  0
    6.1583    1.8217   25.2017 H   0  0  0  0  0  0  0  0  0  0  0  0
    7.1985    0.8908   26.2846 H   0  0  0  0  0  0  0  0  0  0  0  0
    5.1927    0.0748   26.0497 C   0  0  0  0  0  0  0  0  0  0  0  0
    4.4837   -0.0779   25.2278 H   0  0  0  0  0  0  0  0  0  0  0  0
    5.4846   -0.9241   26.4009 H   0  0  0  0  0  0  0  0  0  0  0  0
    4.4950    0.8247   27.1784 C   0  0  0  0  0  0  0  0  0  0  0  0
    4.2851    1.8563   26.8595 H   0  0  0  0  0  0  0  0  0  0  0  0
    3.5190    0.3568   27.3622 H   0  0  0  0  0  0  0  0  0  0  0  0
    5.2831    0.8517   28.4835 C   0  0  0  0  0  0  0  0  0  0  0  0
    6.2336    1.3853   28.3460 H   0  0  0  0  0  0  0  0  0  0  0  0
    5.5508   -0.1762   28.7688 H   0  0  0  0  0  0  0  0  0  0  0  0
    4.5120    1.4997   29.6237 C   0  0  0  0  0  0  0  0  0  0  0  0
    3.5642    0.9626   29.7748 H   0  0  0  0  0  0  0  0  0  0  0  0
    4.2357    2.5250   29.3388 H   0  0  0  0  0  0  0  0  0  0  0  0
    5.2924    1.5272   30.9312 C   0  0  0  0  0  0  0  0  0  0  0  0
    6.2365    2.0656   30.7769 H   0  0  0  0  0  0  0  0  0  0  0  0
    5.5639    0.5009   31.2121 H   0  0  0  0  0  0  0  0  0  0  0  0
    4.5120    2.1784   32.0627 C   0  0  0  0  0  0  0  0  0  0  0  0
    5.0925    2.1866   32.9888 H   0  0  0  0  0  0  0  0  0  0  0  0
    3.5774    1.6376   32.2484 H   0  0  0  0  0  0  0  0  0  0  0  0
    4.2548    3.2128   31.8091 H   0  0  0  0  0  0  0  0  0  0  0  0
    6.6066    0.3265   23.1181 N   0  0  0  0  0  0  0  0  0  0  0  0
    7.2679   -0.5286   22.2760 N   0  0  0  0  0  0  0  0  0  0  0  0
    5.4340    0.6522   20.1603 C   0  0  0  0  0  0  0  0  0  0  0  0
    5.0074    0.6344   21.1654 H   0  0  0  0  0  0  0  0  0  0  0  0
    4.8045    1.3092   19.1085 C   0  0  0  0  0  0  0  0  0  0  0  0
    3.8739    1.8438   19.2622 H   0  0  0  0  0  0  0  0  0  0  0  0
  1  2  1  0
  2  3  2  0
  3  4  1  0
  4  5  1  0
  4  6  2  0
  6  7  1  0
  7  8  2  0
  8  9  1  0
  9 10  2  0
 10 11  1  0
 11 12  1  0
 12 13  1  0
 13 14  1  0
 13 15  1  0
 13 16  1  0
 16 17  1  0
 16 18  1  0
 16 19  1  0
 19 20  1  0
 19 21  1  0
 19 22  1  0
 22 23  1  0
 22 24  1  0
 22 25  1  0
 25 26  1  0
 25 27  1  0
 25 28  1  0
 28 29  1  0
 28 30  1  0
 28 31  1  0
 31 32  1  0
 31 33  1  0
 31 34  1  0
 12 35  2  0
 35 36  1  0
  6 37  1  0
 37 38  1  0
 37 39  2  0
 39 40  1  0
 39  2  1  0
 36  7  1  0
 36 10  1  0
M  END
>  <cnnaffinity>  (1) 
-5.44142

>  <filename>  (1) 
CCCCCCCc1nn2c(-c3cccnc3)nnc2s1

$$$$
