
     RDKit          3D

 36 37  0  0  0  0  0  0  0  0999 V2000
    5.0026    1.8123   16.9631 H   0  0  0  0  0  0  0  0  0  0  0  0
    5.4386    1.2978   17.8189 C   0  0  0  0  0  0  0  0  0  0  0  0
    6.5900    0.6477   17.5920 N   0  0  0  0  0  0  0  0  0  0  0  0
    7.1620    0.0334   18.6334 C   0  0  0  0  0  0  0  0  0  0  0  0
    8.0839   -0.5066   18.4246 H   0  0  0  0  0  0  0  0  0  0  0  0
    6.6405    0.0361   19.9291 C   0  0  0  0  0  0  0  0  0  0  0  0
    7.3550   -0.6638   21.0296 C   0  0  0  0  0  0  0  0  0  0  0  0
    6.5716   -1.1779   21.9382 N   0  0  0  0  0  0  0  0  0  0  0  0
    7.1289   -1.8944   22.9712 N   0  0  0  0  0  0  0  0  0  0  0  0
    6.2505   -2.7027   23.7738 C   0  0  0  0  0  0  0  0  0  0  0  0
    5.4467   -3.4695   23.3007 O   0  0  0  0  0  0  0  0  0  0  0  0
    6.4419   -2.4719   25.1061 N   0  0  0  0  0  0  0  0  0  0  0  0
    7.4429   -2.3770   25.2437 H   0  0  0  0  0  0  0  0  0  0  0  0
    5.7228   -3.2945   26.0625 C   0  0  0  0  0  0  0  0  0  0  0  0
    5.5922   -4.3120   25.6622 H   0  0  0  0  0  0  0  0  0  0  0  0
    4.7126   -2.8763   26.1979 H   0  0  0  0  0  0  0  0  0  0  0  0
    6.4860   -3.3090   27.3756 C   0  0  0  0  0  0  0  0  0  0  0  0
    5.8173   -3.6859   28.1582 H   0  0  0  0  0  0  0  0  0  0  0  0
    6.7028   -2.2648   27.6422 H   0  0  0  0  0  0  0  0  0  0  0  0
    7.7995   -4.1079   27.3923 C   0  0  0  0  0  0  0  0  0  0  0  0
    8.4429   -3.8124   26.5485 H   0  0  0  0  0  0  0  0  0  0  0  0
    8.3377   -3.8142   28.2927 H   0  0  0  0  0  0  0  0  0  0  0  0
    7.6594   -5.6285   27.4234 C   0  0  0  0  0  0  0  0  0  0  0  0
    8.6289   -6.0845   27.6474 H   0  0  0  0  0  0  0  0  0  0  0  0
    6.9749   -5.9627   28.2106 H   0  0  0  0  0  0  0  0  0  0  0  0
    7.3065   -6.0326   26.4671 H   0  0  0  0  0  0  0  0  0  0  0  0
    8.5072   -2.0356   23.2107 C   0  0  0  0  0  0  0  0  0  0  0  0
    8.9362   -2.5904   24.2239 O   0  0  0  0  0  0  0  0  0  0  0  0
    9.3448   -1.4902   22.1534 C   0  0  0  0  0  0  0  0  0  0  0  0
   10.4090   -1.6536   22.2940 H   0  0  0  0  0  0  0  0  0  0  0  0
    8.7969   -0.8167   21.0957 C   0  0  0  0  0  0  0  0  0  0  0  0
    9.4260   -0.3694   20.3288 H   0  0  0  0  0  0  0  0  0  0  0  0
    5.3994    0.6631   20.1419 C   0  0  0  0  0  0  0  0  0  0  0  0
    4.9213    0.6257   21.1230 H   0  0  0  0  0  0  0  0  0  0  0  0
    4.8036    1.3211   19.0672 C   0  0  0  0  0  0  0  0  0  0  0  0
    3.8680    1.8595   19.1774 H   0  0  0  0  0  0  0  0  0  0  0  0
  1  2  1  0
  2  3  2  0
  3  4  1  0
  4  5  1  0
  4  6  2  0
  6  7  1  0
  7  8  2  0
  8  9  1  0
  9 10  1  0
 10 11  2  0
 10 12  1  0
 12 13  1  0
 12 14  1  0
 14 15  1  0
 14 16  1  0
 14 17  1  0
 17 18  1  0
 17 19  1  0
 17 20  1  0
 20 21  1  0
 20 22  1  0
 20 23  1  0
 23 24  1  0
 23 25  1  0
 23 26  1  0
  9 27  1  0
 27 28  2  0
 27 29  1  0
 29 30  1  0
 29 31  2  0
 31 32  1  0
  6 33  1  0
 33 34  1  0
 33 35  2  0
 35 36  1  0
 35  2  1  0
 31  7  1  0
M  END
>  <cnnaffinity>  (1) 
-4.97584

>  <filename>  (1) 
CCCCNC(=O)n1nc(-c2cccnc2)ccc1=O

$$$$
