
     RDKit          3D

 46 48  0  0  0  0  0  0  0  0999 V2000
    4.9987    1.7841   16.9105 H   0  0  0  0  0  0  0  0  0  0  0  0
    5.3880    1.2348   17.7645 C   0  0  0  0  0  0  0  0  0  0  0  0
    6.5201    0.5428   17.5588 N   0  0  0  0  0  0  0  0  0  0  0  0
    7.0461   -0.1096   18.6007 C   0  0  0  0  0  0  0  0  0  0  0  0
    7.9734   -0.6541   18.4256 H   0  0  0  0  0  0  0  0  0  0  0  0
    6.4708   -0.1236   19.8880 C   0  0  0  0  0  0  0  0  0  0  0  0
    7.1675   -0.7325   20.9570 N   0  0  0  0  0  0  0  0  0  0  0  0
    6.7095   -1.5974   21.9534 C   0  0  0  0  0  0  0  0  0  0  0  0
    5.6920   -1.9529   21.9327 H   0  0  0  0  0  0  0  0  0  0  0  0
    7.7247   -1.8574   22.8237 C   0  0  0  0  0  0  0  0  0  0  0  0
    7.8153   -2.4516   23.7164 H   0  0  0  0  0  0  0  0  0  0  0  0
    8.8104   -1.1315   22.3636 N   0  0  0  0  0  0  0  0  0  0  0  0
   10.0556   -0.8598   22.8201 N   0  0  0  0  0  0  0  0  0  0  0  0
   10.5148    0.0190   21.9228 C   0  0  0  0  0  0  0  0  0  0  0  0
   11.8502    0.6857   22.1056 C   0  0  0  0  0  0  0  0  0  0  0  0
   12.5943   -0.0504   22.4314 H   0  0  0  0  0  0  0  0  0  0  0  0
   12.1551    1.0630   21.1254 H   0  0  0  0  0  0  0  0  0  0  0  0
   11.8211    1.9066   23.0478 C   0  0  0  0  0  0  0  0  0  0  0  0
   12.8368    2.3242   23.1216 H   0  0  0  0  0  0  0  0  0  0  0  0
   11.5441    1.5939   24.0630 H   0  0  0  0  0  0  0  0  0  0  0  0
   10.8546    2.9919   22.5521 C   0  0  0  0  0  0  0  0  0  0  0  0
   11.0873    3.2064   21.4975 H   0  0  0  0  0  0  0  0  0  0  0  0
    9.8373    2.5777   22.5423 H   0  0  0  0  0  0  0  0  0  0  0  0
   10.8856    4.3047   23.3573 C   0  0  0  0  0  0  0  0  0  0  0  0
   11.2584    4.1084   24.3751 H   0  0  0  0  0  0  0  0  0  0  0  0
    9.8527    4.6670   23.4727 H   0  0  0  0  0  0  0  0  0  0  0  0
   11.7233    5.4493   22.7371 C   0  0  0  0  0  0  0  0  0  0  0  0
   11.6158    6.2905   23.4491 H   0  0  0  0  0  0  0  0  0  0  0  0
   11.1914    5.7911   21.8315 H   0  0  0  0  0  0  0  0  0  0  0  0
   13.1645    5.0544   22.4064 C   0  0  0  0  0  0  0  0  0  0  0  0
   13.0973    4.1862   21.7226 H   0  0  0  0  0  0  0  0  0  0  0  0
   13.6141    4.6496   23.2959 H   0  0  0  0  0  0  0  0  0  0  0  0
   14.2300    6.0738   22.1217 C   0  0  0  0  0  0  0  0  0  0  0  0
   13.9350    6.7074   23.2361 H   0  0  0  0  0  0  0  0  0  0  0  0
   15.3001    5.6722   22.7767 H   0  0  0  0  0  0  0  0  0  0  0  0
   14.2235    6.1513   22.0421 C   0  0  0  0  0  0  0  0  0  0  0  0
   14.1839    7.9308   21.1119 H   0  0  0  0  0  0  0  0  0  0  0  0
   13.5554    7.7454   20.8933 H   0  0  0  0  0  0  0  0  0  0  0  0
   14.8325    5.9526   20.8652 H   0  0  0  0  0  0  0  0  0  0  0  0
    9.5927    0.2893   20.8861 C   0  0  0  0  0  0  0  0  0  0  0  0
    9.6959    0.9426   20.0442 H   0  0  0  0  0  0  0  0  0  0  0  0
    8.4900   -0.4633   21.2450 C   0  0  0  0  0  0  0  0  0  0  0  0
    5.2649    0.5642   20.0810 C   0  0  0  0  0  0  0  0  0  0  0  0
    4.7914    0.5826   21.0647 H   0  0  0  0  0  0  0  0  0  0  0  0
    4.7257    1.2664   18.9973 C   0  0  0  0  0  0  0  0  0  0  0  0
    3.8223    1.8577   19.1041 H   0  0  0  0  0  0  0  0  0  0  0  0
  1  2  1  0
  2  3  2  0
  3  4  1  0
  4  5  1  0
  4  6  2  0
  6  7  1  0
  7  8  1  0
  8  9  1  0
  8 10  2  0
 10 11  1  0
 10 12  1  0
 12 13  1  0
 13 14  2  0
 14 15  1  0
 15 16  1  0
 15 17  1  0
 15 18  1  0
 18 19  1  0
 18 20  1  0
 18 21  1  0
 21 22  1  0
 21 23  1  0
 21 24  1  0
 24 25  1  0
 24 26  1  0
 24 27  1  0
 27 28  1  0
 27 29  1  0
 27 30  1  0
 30 31  1  0
 30 32  1  0
 30 33  1  0
 33 34  1  0
 33 35  1  0
 33 36  1  0
 36 37  1  0
 36 38  1  0
 36 39  1  0
 14 40  1  0
 40 41  1  0
 40 42  2  0
  6 43  1  0
 43 44  1  0
 43 45  2  0
 45 46  1  0
 45  2  1  0
 42  7  1  0
 42 12  1  0
M  END
>  <cnnaffinity>  (1) 
-5.69648

>  <filename>  (1) 
CCCCCCCCc1cc2n(-c3cccnc3)ccn2n1

$$$$
