
     RDKit          3D

 41 42  0  0  0  0  0  0  0  0999 V2000
    4.9108    1.7711   17.0057 H   0  0  0  0  0  0  0  0  0  0  0  0
    5.4051    1.2887   17.8470 C   0  0  0  0  0  0  0  0  0  0  0  0
    6.5740    0.6744   17.5928 N   0  0  0  0  0  0  0  0  0  0  0  0
    7.1817    0.0565   18.6130 C   0  0  0  0  0  0  0  0  0  0  0  0
    8.1288   -0.4330   18.3758 H   0  0  0  0  0  0  0  0  0  0  0  0
    6.6599    0.0046   19.9187 C   0  0  0  0  0  0  0  0  0  0  0  0
    7.3570   -0.6992   21.0078 C   0  0  0  0  0  0  0  0  0  0  0  0
    6.8995   -0.7469   22.2259 N   0  0  0  0  0  0  0  0  0  0  0  0
    7.7358   -1.4579   23.0515 C   0  0  0  0  0  0  0  0  0  0  0  0
    7.3986   -1.6987   24.4965 C   0  0  0  0  0  0  0  0  0  0  0  0
    6.6950   -0.9326   24.8402 H   0  0  0  0  0  0  0  0  0  0  0  0
    8.3120   -1.5844   25.0951 H   0  0  0  0  0  0  0  0  0  0  0  0
    6.8030   -3.0964   24.7406 C   0  0  0  0  0  0  0  0  0  0  0  0
    7.4852   -3.8552   24.3258 H   0  0  0  0  0  0  0  0  0  0  0  0
    6.7573   -3.2692   25.8237 H   0  0  0  0  0  0  0  0  0  0  0  0
    5.4168   -3.2682   24.1210 C   0  0  0  0  0  0  0  0  0  0  0  0
    5.4436   -2.9888   23.0604 H   0  0  0  0  0  0  0  0  0  0  0  0
    4.7254   -2.5616   24.6048 H   0  0  0  0  0  0  0  0  0  0  0  0
    4.8462   -4.6808   24.2437 C   0  0  0  0  0  0  0  0  0  0  0  0
    5.5246   -5.3824   23.7341 H   0  0  0  0  0  0  0  0  0  0  0  0
    3.9033   -4.7211   23.6868 H   0  0  0  0  0  0  0  0  0  0  0  0
    4.6022   -5.1439   25.6893 C   0  0  0  0  0  0  0  0  0  0  0  0
    4.4842   -4.2674   26.3457 H   0  0  0  0  0  0  0  0  0  0  0  0
    3.6440   -5.6768   25.7408 H   0  0  0  0  0  0  0  0  0  0  0  0
    5.6893   -6.0753   26.2357 C   0  0  0  0  0  0  0  0  0  0  0  0
    5.7270   -6.9659   25.5953 H   0  0  0  0  0  0  0  0  0  0  0  0
    6.6769   -5.5977   26.1460 H   0  0  0  0  0  0  0  0  0  0  0  0
    5.4613   -6.5088   27.6831 C   0  0  0  0  0  0  0  0  0  0  0  0
    6.1144   -7.3607   27.9069 H   0  0  0  0  0  0  0  0  0  0  0  0
    4.4291   -6.8702   27.7961 H   0  0  0  0  0  0  0  0  0  0  0  0
    5.7290   -5.4013   28.6961 C   0  0  0  0  0  0  0  0  0  0  0  0
    6.7389   -4.9970   28.5627 H   0  0  0  0  0  0  0  0  0  0  0  0
    5.0173   -4.5759   28.5904 H   0  0  0  0  0  0  0  0  0  0  0  0
    5.6501   -5.7864   29.7158 H   0  0  0  0  0  0  0  0  0  0  0  0
    8.8345   -1.9794   22.4413 C   0  0  0  0  0  0  0  0  0  0  0  0
    9.6089   -2.5824   22.8996 H   0  0  0  0  0  0  0  0  0  0  0  0
    8.8655   -1.5510   20.7774 S   0  0  0  0  0  0  0  0  0  0  0  0
    5.4365    0.6543   20.1620 C   0  0  0  0  0  0  0  0  0  0  0  0
    5.0083    0.6292   21.1610 H   0  0  0  0  0  0  0  0  0  0  0  0
    4.8044    1.3113   19.1108 C   0  0  0  0  0  0  0  0  0  0  0  0
    3.8699    1.8463   19.2668 H   0  0  0  0  0  0  0  0  0  0  0  0
  1  2  1  0
  2  3  2  0
  3  4  1  0
  4  5  1  0
  4  6  2  0
  6  7  1  0
  7  8  2  0
  8  9  1  0
  9 10  1  0
 10 11  1  0
 10 12  1  0
 10 13  1  0
 13 14  1  0
 13 15  1  0
 13 16  1  0
 16 17  1  0
 16 18  1  0
 16 19  1  0
 19 20  1  0
 19 21  1  0
 19 22  1  0
 22 23  1  0
 22 24  1  0
 22 25  1  0
 25 26  1  0
 25 27  1  0
 25 28  1  0
 28 29  1  0
 28 30  1  0
 28 31  1  0
 31 32  1  0
 31 33  1  0
 31 34  1  0
  9 35  2  0
 35 36  1  0
 35 37  1  0
  6 38  1  0
 38 39  1  0
 38 40  2  0
 40 41  1  0
 40  2  1  0
 37  7  1  0
M  END
>  <cnnaffinity>  (1) 
-5.39135

>  <filename>  (1) 
CCCCCCCCc1csc(-c2cccnc2)n1

$$$$
