
     RDKit          3D

 34 36  0  0  0  0  0  0  0  0999 V2000
    4.9240    1.7753   17.0010 H   0  0  0  0  0  0  0  0  0  0  0  0
    5.4042    1.2894   17.8463 C   0  0  0  0  0  0  0  0  0  0  0  0
    6.5682    0.6705   17.5949 N   0  0  0  0  0  0  0  0  0  0  0  0
    7.1744    0.0572   18.6122 C   0  0  0  0  0  0  0  0  0  0  0  0
    8.1216   -0.4268   18.3729 H   0  0  0  0  0  0  0  0  0  0  0  0
    6.6498    0.0133   19.9148 C   0  0  0  0  0  0  0  0  0  0  0  0
    7.3529   -0.6780   20.9904 C   0  0  0  0  0  0  0  0  0  0  0  0
    6.8579   -0.7689   22.1876 N   0  0  0  0  0  0  0  0  0  0  0  0
    7.7437   -1.4262   22.9853 N   0  0  0  0  0  0  0  0  0  0  0  0
    7.9029   -1.5670   24.3433 C   0  0  0  0  0  0  0  0  0  0  0  0
    6.9546   -1.0850   25.3897 C   0  0  0  0  0  0  0  0  0  0  0  0
    5.9402   -1.0765   24.9786 H   0  0  0  0  0  0  0  0  0  0  0  0
    6.9699   -1.8088   26.2098 H   0  0  0  0  0  0  0  0  0  0  0  0
    7.3553    0.3101   25.9171 C   0  0  0  0  0  0  0  0  0  0  0  0
    8.3614    0.2402   26.3502 H   0  0  0  0  0  0  0  0  0  0  0  0
    6.6838    0.5850   26.7402 H   0  0  0  0  0  0  0  0  0  0  0  0
    7.3411    1.4143   24.8584 C   0  0  0  0  0  0  0  0  0  0  0  0
    7.9802    1.1388   24.0094 H   0  0  0  0  0  0  0  0  0  0  0  0
    7.8016    2.3125   25.2905 H   0  0  0  0  0  0  0  0  0  0  0  0
    5.9447    1.7781   24.3561 C   0  0  0  0  0  0  0  0  0  0  0  0
    5.3240    2.0815   25.2097 H   0  0  0  0  0  0  0  0  0  0  0  0
    5.4594    0.8966   23.9224 H   0  0  0  0  0  0  0  0  0  0  0  0
    5.9699    2.8933   23.3190 C   0  0  0  0  0  0  0  0  0  0  0  0
    6.4159    3.8061   23.7316 H   0  0  0  0  0  0  0  0  0  0  0  0
    4.9617    3.1413   22.9738 H   0  0  0  0  0  0  0  0  0  0  0  0
    6.5640    2.6036   22.4430 H   0  0  0  0  0  0  0  0  0  0  0  0
    9.0883   -2.0670   24.5774 N   0  0  0  0  0  0  0  0  0  0  0  0
    9.7520   -2.2364   23.3764 N   0  0  0  0  0  0  0  0  0  0  0  0
    8.9390   -1.8103   22.4555 C   0  0  0  0  0  0  0  0  0  0  0  0
    8.9564   -1.4140   20.7610 S   0  0  0  0  0  0  0  0  0  0  0  0
    5.4290    0.6617   20.1634 C   0  0  0  0  0  0  0  0  0  0  0  0
    4.9985    0.6358   21.1671 H   0  0  0  0  0  0  0  0  0  0  0  0
    4.8016    1.3140   19.1082 C   0  0  0  0  0  0  0  0  0  0  0  0
    3.8697    1.8457   19.2568 H   0  0  0  0  0  0  0  0  0  0  0  0
  1  2  1  0
  2  3  2  0
  3  4  1  0
  4  5  1  0
  4  6  2  0
  6  7  1  0
  7  8  2  0
  8  9  1  0
  9 10  1  0
 10 11  1  0
 11 12  1  0
 11 13  1  0
 11 14  1  0
 14 15  1  0
 14 16  1  0
 14 17  1  0
 17 18  1  0
 17 19  1  0
 17 20  1  0
 20 21  1  0
 20 22  1  0
 20 23  1  0
 23 24  1  0
 23 25  1  0
 23 26  1  0
 10 27  2  0
 27 28  1  0
 28 29  2  0
 29 30  1  0
  6 31  1  0
 31 32  1  0
 31 33  2  0
 33 34  1  0
 33  2  1  0
 30  7  1  0
 29  9  1  0
M  END
>  <cnnaffinity>  (1) 
-5.31899

>  <filename>  (1) 
CCCCCc1nnc2sc(-c3cccnc3)nn12

$$$$
