
     RDKit          3D

 41 43  0  0  0  0  0  0  0  0999 V2000
    4.9130    1.8152   16.9703 H   0  0  0  0  0  0  0  0  0  0  0  0
    5.3768    1.3060   17.8172 C   0  0  0  0  0  0  0  0  0  0  0  0
    6.5395    0.6854   17.5624 N   0  0  0  0  0  0  0  0  0  0  0  0
    7.1519    0.0792   18.5835 C   0  0  0  0  0  0  0  0  0  0  0  0
    8.1015   -0.3886   18.3323 H   0  0  0  0  0  0  0  0  0  0  0  0
    6.6641    0.0297   19.9112 C   0  0  0  0  0  0  0  0  0  0  0  0
    7.4213   -0.6754   20.9680 C   0  0  0  0  0  0  0  0  0  0  0  0
    8.3308   -1.7055   20.9033 C   0  0  0  0  0  0  0  0  0  0  0  0
    8.7468   -2.1099   20.0007 H   0  0  0  0  0  0  0  0  0  0  0  0
    8.7727   -2.1444   22.1208 N   0  0  0  0  0  0  0  0  0  0  0  0
    8.1614   -1.3370   22.9493 C   0  0  0  0  0  0  0  0  0  0  0  0
    8.2381   -0.9965   24.6454 S   0  0  0  0  0  0  0  0  0  0  0  0
    7.1388    0.3484   24.3224 C   0  0  0  0  0  0  0  0  0  0  0  0
    6.6268    1.2198   25.4193 C   0  0  0  0  0  0  0  0  0  0  0  0
    7.2475    1.0401   26.3039 H   0  0  0  0  0  0  0  0  0  0  0  0
    6.7698    2.2614   25.1044 H   0  0  0  0  0  0  0  0  0  0  0  0
    5.1380    0.9571   25.7222 C   0  0  0  0  0  0  0  0  0  0  0  0
    4.7922    1.7260   26.4261 H   0  0  0  0  0  0  0  0  0  0  0  0
    4.5488    1.0915   24.8001 H   0  0  0  0  0  0  0  0  0  0  0  0
    4.8758   -0.4418   26.2949 C   0  0  0  0  0  0  0  0  0  0  0  0
    5.3017   -1.2041   25.6251 H   0  0  0  0  0  0  0  0  0  0  0  0
    5.4173   -0.5528   27.2489 H   0  0  0  0  0  0  0  0  0  0  0  0
    3.3855   -0.7491   26.5041 C   0  0  0  0  0  0  0  0  0  0  0  0
    3.2835   -1.7841   26.8602 H   0  0  0  0  0  0  0  0  0  0  0  0
    2.8805   -0.7210   25.5262 H   0  0  0  0  0  0  0  0  0  0  0  0
    2.6468    0.1984   27.4674 C   0  0  0  0  0  0  0  0  0  0  0  0
    2.6113    1.2060   27.0270 H   0  0  0  0  0  0  0  0  0  0  0  0
    1.5986   -0.1283   27.5378 H   0  0  0  0  0  0  0  0  0  0  0  0
    3.2322    0.2874   28.8886 C   0  0  0  0  0  0  0  0  0  0  0  0
    4.2511    0.7021   28.8452 H   0  0  0  0  0  0  0  0  0  0  0  0
    2.6439    1.0196   29.4587 H   0  0  0  0  0  0  0  0  0  0  0  0
    3.2468   -1.0533   29.6339 C   0  0  0  0  0  0  0  0  0  0  0  0
    2.2515   -1.5166   29.6329 H   0  0  0  0  0  0  0  0  0  0  0  0
    3.9366   -1.7672   29.1667 H   0  0  0  0  0  0  0  0  0  0  0  0
    3.5587   -0.9344   30.6779 H   0  0  0  0  0  0  0  0  0  0  0  0
    6.7729    0.5236   23.0976 N   0  0  0  0  0  0  0  0  0  0  0  0
    7.3363   -0.4434   22.3339 N   0  0  0  0  0  0  0  0  0  0  0  0
    5.4316    0.6690   20.1451 C   0  0  0  0  0  0  0  0  0  0  0  0
    5.0106    0.6602   21.1476 H   0  0  0  0  0  0  0  0  0  0  0  0
    4.7867    1.3160   19.0854 C   0  0  0  0  0  0  0  0  0  0  0  0
    3.8527    1.8509   19.2264 H   0  0  0  0  0  0  0  0  0  0  0  0
  1  2  1  0
  2  3  2  0
  3  4  1  0
  4  5  1  0
  4  6  2  0
  6  7  1  0
  7  8  2  0
  8  9  1  0
  8 10  1  0
 10 11  2  0
 11 12  1  0
 12 13  1  0
 13 14  1  0
 14 15  1  0
 14 16  1  0
 14 17  1  0
 17 18  1  0
 17 19  1  0
 17 20  1  0
 20 21  1  0
 20 22  1  0
 20 23  1  0
 23 24  1  0
 23 25  1  0
 23 26  1  0
 26 27  1  0
 26 28  1  0
 26 29  1  0
 29 30  1  0
 29 31  1  0
 29 32  1  0
 32 33  1  0
 32 34  1  0
 32 35  1  0
 13 36  2  0
 36 37  1  0
  6 38  1  0
 38 39  1  0
 38 40  2  0
 40 41  1  0
 40  2  1  0
 37  7  1  0
 37 11  1  0
M  END
>  <cnnaffinity>  (1) 
-5.50075

>  <filename>  (1) 
CCCCCCCc1nn2c(-c3cccnc3)cnc2s1

$$$$
