
     RDKit          3D

 33 34  0  0  0  0  0  0  0  0999 V2000
    4.9664    1.7951   16.9741 H   0  0  0  0  0  0  0  0  0  0  0  0
    5.4269    1.2867   17.8189 C   0  0  0  0  0  0  0  0  0  0  0  0
    6.5760    0.6373   17.5670 N   0  0  0  0  0  0  0  0  0  0  0  0
    7.1733    0.0154   18.5920 C   0  0  0  0  0  0  0  0  0  0  0  0
    8.1087   -0.4950   18.3746 H   0  0  0  0  0  0  0  0  0  0  0  0
    6.6515   -0.0010   19.9033 C   0  0  0  0  0  0  0  0  0  0  0  0
    7.3018   -0.6811   20.9736 N   0  0  0  0  0  0  0  0  0  0  0  0
    6.6748   -1.6665   21.7556 C   0  0  0  0  0  0  0  0  0  0  0  0
    5.6415   -1.9432   21.6466 H   0  0  0  0  0  0  0  0  0  0  0  0
    7.6030   -2.1094   22.6192 C   0  0  0  0  0  0  0  0  0  0  0  0
    7.5502   -3.1139   23.5361 N   0  0  0  0  0  0  0  0  0  0  0  0
    6.6332   -3.2185   23.9351 H   0  0  0  0  0  0  0  0  0  0  0  0
    8.6243   -3.4629   24.4326 C   0  0  0  0  0  0  0  0  0  0  0  0
    8.9622   -2.6110   25.0509 H   0  0  0  0  0  0  0  0  0  0  0  0
    9.4926   -3.8188   23.8609 H   0  0  0  0  0  0  0  0  0  0  0  0
    8.0775   -4.5826   25.3089 C   0  0  0  0  0  0  0  0  0  0  0  0
    7.6891   -5.3718   24.6521 H   0  0  0  0  0  0  0  0  0  0  0  0
    7.2161   -4.1800   25.8600 H   0  0  0  0  0  0  0  0  0  0  0  0
    9.0772   -5.1679   26.2980 C   0  0  0  0  0  0  0  0  0  0  0  0
    8.6982   -6.1297   26.6600 H   0  0  0  0  0  0  0  0  0  0  0  0
   10.0139   -5.4011   25.7751 H   0  0  0  0  0  0  0  0  0  0  0  0
    9.3590   -4.2419   27.4777 C   0  0  0  0  0  0  0  0  0  0  0  0
    9.6935   -3.2541   27.1354 H   0  0  0  0  0  0  0  0  0  0  0  0
    8.4594   -4.0896   28.0847 H   0  0  0  0  0  0  0  0  0  0  0  0
   10.1235   -4.6580   28.1423 H   0  0  0  0  0  0  0  0  0  0  0  0
    8.7563   -1.4160   22.3932 N   0  0  0  0  0  0  0  0  0  0  0  0
    9.6013   -1.4989   22.9201 H   0  0  0  0  0  0  0  0  0  0  0  0
    8.5923   -0.4843   21.4129 C   0  0  0  0  0  0  0  0  0  0  0  0
    9.7230    0.6260   20.9248 S   0  0  0  0  0  0  0  0  0  0  0  0
    5.4447    0.6618   20.1478 C   0  0  0  0  0  0  0  0  0  0  0  0
    5.0198    0.6666   21.1548 H   0  0  0  0  0  0  0  0  0  0  0  0
    4.8245    1.3236   19.0837 C   0  0  0  0  0  0  0  0  0  0  0  0
    3.8920    1.8633   19.2254 H   0  0  0  0  0  0  0  0  0  0  0  0
  1  2  1  0
  2  3  2  0
  3  4  1  0
  4  5  1  0
  4  6  2  0
  6  7  1  0
  7  8  1  0
  8  9  1  0
  8 10  2  0
 10 11  1  0
 11 12  1  0
 11 13  1  0
 13 14  1  0
 13 15  1  0
 13 16  1  0
 16 17  1  0
 16 18  1  0
 16 19  1  0
 19 20  1  0
 19 21  1  0
 19 22  1  0
 22 23  1  0
 22 24  1  0
 22 25  1  0
 10 26  1  0
 26 27  1  0
 26 28  1  0
 28 29  2  0
  6 30  1  0
 30 31  1  0
 30 32  2  0
 32 33  1  0
 32  2  1  0
 28  7  1  0
M  END
>  <cnnaffinity>  (1) 
-5.01974

>  <filename>  (1) 
CCCCNc1cn(-c2cccnc2)c(=S)[nH]1

$$$$
