
     RDKit          3D

 35 37  0  0  0  0  0  0  0  0999 V2000
    5.0572    1.7926   16.9114 H   0  0  0  0  0  0  0  0  0  0  0  0
    5.4616    1.3075   17.7950 C   0  0  0  0  0  0  0  0  0  0  0  0
    6.6218    0.6558   17.6242 N   0  0  0  0  0  0  0  0  0  0  0  0
    7.1362    0.0276   18.6879 C   0  0  0  0  0  0  0  0  0  0  0  0
    8.0874   -0.4839   18.5544 H   0  0  0  0  0  0  0  0  0  0  0  0
    6.5114   -0.0152   19.9475 C   0  0  0  0  0  0  0  0  0  0  0  0
    7.0344   -0.8522   21.0401 C   0  0  0  0  0  0  0  0  0  0  0  0
    6.2790   -1.6440   21.8260 C   0  0  0  0  0  0  0  0  0  0  0  0
    5.2269   -1.8714   21.7015 H   0  0  0  0  0  0  0  0  0  0  0  0
    7.1790   -2.3997   23.1087 S   0  0  0  0  0  0  0  0  0  0  0  0
    8.6365   -1.6751   22.5074 C   0  0  0  0  0  0  0  0  0  0  0  0
    9.9241   -1.6978   22.7884 N   0  0  0  0  0  0  0  0  0  0  0  0
   10.4303   -0.9064   21.8031 C   0  0  0  0  0  0  0  0  0  0  0  0
   11.8859   -0.6243   21.6646 C   0  0  0  0  0  0  0  0  0  0  0  0
   12.4339   -1.3708   22.2550 H   0  0  0  0  0  0  0  0  0  0  0  0
   12.1296   -0.8161   20.6179 H   0  0  0  0  0  0  0  0  0  0  0  0
   12.3464    0.7769   22.1260 C   0  0  0  0  0  0  0  0  0  0  0  0
   12.1530    0.8256   23.2032 H   0  0  0  0  0  0  0  0  0  0  0  0
   13.4392    0.8293   22.0134 H   0  0  0  0  0  0  0  0  0  0  0  0
   11.7274    2.0196   21.4667 C   0  0  0  0  0  0  0  0  0  0  0  0
   11.9575    2.0266   20.3946 H   0  0  0  0  0  0  0  0  0  0  0  0
   10.6301    1.9970   21.5266 H   0  0  0  0  0  0  0  0  0  0  0  0
   12.2635    3.3207   22.0949 C   0  0  0  0  0  0  0  0  0  0  0  0
   13.3403    3.4066   21.8972 H   0  0  0  0  0  0  0  0  0  0  0  0
   11.8139    4.1843   21.5925 H   0  0  0  0  0  0  0  0  0  0  0  0
   12.0315    3.4421   23.6022 C   0  0  0  0  0  0  0  0  0  0  0  0
   12.4034    4.3982   23.9839 H   0  0  0  0  0  0  0  0  0  0  0  0
   10.9663    3.3654   23.8479 H   0  0  0  0  0  0  0  0  0  0  0  0
   12.5527    2.6511   24.1504 H   0  0  0  0  0  0  0  0  0  0  0  0
    9.5464   -0.4210   20.9341 N   0  0  0  0  0  0  0  0  0  0  0  0
    8.3782   -0.9249   21.4176 N   0  0  0  0  0  0  0  0  0  0  0  0
    5.3107    0.7005   20.1128 C   0  0  0  0  0  0  0  0  0  0  0  0
    4.8180    0.7461   21.0873 H   0  0  0  0  0  0  0  0  0  0  0  0
    4.7787    1.3717   19.0155 C   0  0  0  0  0  0  0  0  0  0  0  0
    3.8518    1.9298   19.0875 H   0  0  0  0  0  0  0  0  0  0  0  0
  1  2  1  0
  2  3  2  0
  3  4  1  0
  4  5  1  0
  4  6  2  0
  6  7  1  0
  7  8  2  0
  8  9  1  0
  8 10  1  0
 10 11  1  0
 11 12  2  0
 12 13  1  0
 13 14  1  0
 14 15  1  0
 14 16  1  0
 14 17  1  0
 17 18  1  0
 17 19  1  0
 17 20  1  0
 20 21  1  0
 20 22  1  0
 20 23  1  0
 23 24  1  0
 23 25  1  0
 23 26  1  0
 26 27  1  0
 26 28  1  0
 26 29  1  0
 13 30  2  0
 30 31  1  0
  6 32  1  0
 32 33  1  0
 32 34  2  0
 34 35  1  0
 34  2  1  0
 31  7  1  0
 31 11  1  0
M  END
>  <cnnaffinity>  (1) 
-4.76774

>  <filename>  (1) 
CCCCCc1nc2scc(-c3cccnc3)n2n1

$$$$
