
     RDKit          3D

 42 43  0  0  0  0  0  0  0  0999 V2000
    4.9088    1.8246   16.9536 H   0  0  0  0  0  0  0  0  0  0  0  0
    5.3775    1.3148   17.7964 C   0  0  0  0  0  0  0  0  0  0  0  0
    6.5410    0.6948   17.5316 N   0  0  0  0  0  0  0  0  0  0  0  0
    7.1508    0.0708   18.5468 C   0  0  0  0  0  0  0  0  0  0  0  0
    8.1117   -0.3781   18.2926 H   0  0  0  0  0  0  0  0  0  0  0  0
    6.6473    0.0024   19.8599 C   0  0  0  0  0  0  0  0  0  0  0  0
    7.3467   -0.6715   20.9681 C   0  0  0  0  0  0  0  0  0  0  0  0
    7.2686   -0.4533   22.3292 C   0  0  0  0  0  0  0  0  0  0  0  0
    6.6817    0.2938   22.8433 H   0  0  0  0  0  0  0  0  0  0  0  0
    8.1355   -1.3959   22.9197 C   0  0  0  0  0  0  0  0  0  0  0  0
    8.3703   -1.6276   24.3816 C   0  0  0  0  0  0  0  0  0  0  0  0
    9.4378   -1.8126   24.5523 H   0  0  0  0  0  0  0  0  0  0  0  0
    8.1126   -0.6904   24.8915 H   0  0  0  0  0  0  0  0  0  0  0  0
    7.5040   -2.7754   24.9392 C   0  0  0  0  0  0  0  0  0  0  0  0
    7.8025   -2.9776   25.9772 H   0  0  0  0  0  0  0  0  0  0  0  0
    7.7125   -3.6911   24.3656 H   0  0  0  0  0  0  0  0  0  0  0  0
    6.0001   -2.4861   24.8809 C   0  0  0  0  0  0  0  0  0  0  0  0
    5.7710   -1.5448   25.4089 H   0  0  0  0  0  0  0  0  0  0  0  0
    5.6976   -2.3211   23.8352 H   0  0  0  0  0  0  0  0  0  0  0  0
    5.1713   -3.6228   25.4776 C   0  0  0  0  0  0  0  0  0  0  0  0
    5.4913   -3.8014   26.5185 H   0  0  0  0  0  0  0  0  0  0  0  0
    5.3907   -4.5596   24.9383 H   0  0  0  0  0  0  0  0  0  0  0  0
    3.6657   -3.3543   25.4488 C   0  0  0  0  0  0  0  0  0  0  0  0
    3.4481   -2.4192   25.9917 H   0  0  0  0  0  0  0  0  0  0  0  0
    3.3432   -3.1717   24.4115 H   0  0  0  0  0  0  0  0  0  0  0  0
    2.8534   -4.5007   26.0629 C   0  0  0  0  0  0  0  0  0  0  0  0
    3.0308   -5.4193   25.4796 H   0  0  0  0  0  0  0  0  0  0  0  0
    3.2424   -4.7092   27.0721 H   0  0  0  0  0  0  0  0  0  0  0  0
    1.3439   -4.2263   26.1390 C   0  0  0  0  0  0  0  0  0  0  0  0
    1.1831   -3.2779   26.6744 H   0  0  0  0  0  0  0  0  0  0  0  0
    0.8721   -4.9991   26.7608 H   0  0  0  0  0  0  0  0  0  0  0  0
    0.6603   -4.1750   24.7651 C   0  0  0  0  0  0  0  0  0  0  0  0
   -0.4259   -4.0675   24.8568 H   0  0  0  0  0  0  0  0  0  0  0  0
    1.0224   -3.3364   24.1583 H   0  0  0  0  0  0  0  0  0  0  0  0
    0.8554   -5.0908   24.1926 H   0  0  0  0  0  0  0  0  0  0  0  0
    8.7198   -2.1489   21.9960 N   0  0  0  0  0  0  0  0  0  0  0  0
    8.2406   -1.6887   20.8299 N   0  0  0  0  0  0  0  0  0  0  0  0
    8.5000   -2.1659   19.9833 H   0  0  0  0  0  0  0  0  0  0  0  0
    5.4304    0.6559   20.1087 C   0  0  0  0  0  0  0  0  0  0  0  0
    5.0099    0.6331   21.1155 H   0  0  0  0  0  0  0  0  0  0  0  0
    4.7889    1.3218   19.0661 C   0  0  0  0  0  0  0  0  0  0  0  0
    3.8589    1.8550   19.2247 H   0  0  0  0  0  0  0  0  0  0  0  0
  1  2  1  0
  2  3  2  0
  3  4  1  0
  4  5  1  0
  4  6  2  0
  6  7  1  0
  7  8  2  0
  8  9  1  0
  8 10  1  0
 10 11  1  0
 11 12  1  0
 11 13  1  0
 11 14  1  0
 14 15  1  0
 14 16  1  0
 14 17  1  0
 17 18  1  0
 17 19  1  0
 17 20  1  0
 20 21  1  0
 20 22  1  0
 20 23  1  0
 23 24  1  0
 23 25  1  0
 23 26  1  0
 26 27  1  0
 26 28  1  0
 26 29  1  0
 29 30  1  0
 29 31  1  0
 29 32  1  0
 32 33  1  0
 32 34  1  0
 32 35  1  0
 10 36  2  0
 36 37  1  0
 37 38  1  0
  6 39  1  0
 39 40  1  0
 39 41  2  0
 41 42  1  0
 41  2  1  0
 37  7  1  0
M  END
>  <cnnaffinity>  (1) 
-5.13064

>  <filename>  (1) 
CCCCCCCCc1cc(-c2cccnc2)[nH]n1

$$$$
