
     RDKit          3D

 42 43  0  0  0  0  0  0  0  0999 V2000
    4.9107    1.8039   16.9792 H   0  0  0  0  0  0  0  0  0  0  0  0
    5.3848    1.3056   17.8219 C   0  0  0  0  0  0  0  0  0  0  0  0
    6.5444    0.6839   17.5485 N   0  0  0  0  0  0  0  0  0  0  0  0
    7.1586    0.0641   18.5614 C   0  0  0  0  0  0  0  0  0  0  0  0
    8.1176   -0.4073   18.3518 H   0  0  0  0  0  0  0  0  0  0  0  0
    6.6340    0.0008   19.8678 C   0  0  0  0  0  0  0  0  0  0  0  0
    7.3380   -0.6799   20.9311 N   0  0  0  0  0  0  0  0  0  0  0  0
    8.6021   -0.1775   21.3653 C   0  0  0  0  0  0  0  0  0  0  0  0
    9.0791    0.8129   20.8488 O   0  0  0  0  0  0  0  0  0  0  0  0
    9.2638   -0.9146   22.4119 C   0  0  0  0  0  0  0  0  0  0  0  0
   10.2031   -0.5052   22.7436 H   0  0  0  0  0  0  0  0  0  0  0  0
    8.7348   -2.0273   22.9478 C   0  0  0  0  0  0  0  0  0  0  0  0
    9.3540   -2.7553   24.0900 C   0  0  0  0  0  0  0  0  0  0  0  0
   10.4326   -2.7954   23.9049 H   0  0  0  0  0  0  0  0  0  0  0  0
    8.9933   -3.7908   24.1296 H   0  0  0  0  0  0  0  0  0  0  0  0
    9.0875   -2.0447   25.4304 C   0  0  0  0  0  0  0  0  0  0  0  0
    9.6737   -2.5231   26.2237 H   0  0  0  0  0  0  0  0  0  0  0  0
    9.4381   -1.0013   25.3703 H   0  0  0  0  0  0  0  0  0  0  0  0
    7.6179   -2.0803   25.8580 C   0  0  0  0  0  0  0  0  0  0  0  0
    7.2863   -3.1288   25.8562 H   0  0  0  0  0  0  0  0  0  0  0  0
    6.9838   -1.5514   25.1327 H   0  0  0  0  0  0  0  0  0  0  0  0
    7.3956   -1.5072   27.2586 C   0  0  0  0  0  0  0  0  0  0  0  0
    6.3472   -1.6658   27.5497 H   0  0  0  0  0  0  0  0  0  0  0  0
    8.0164   -2.1010   27.9363 H   0  0  0  0  0  0  0  0  0  0  0  0
    7.7413   -0.0229   27.4361 C   0  0  0  0  0  0  0  0  0  0  0  0
    8.8205    0.1326   27.2851 H   0  0  0  0  0  0  0  0  0  0  0  0
    7.5507    0.2641   28.4806 H   0  0  0  0  0  0  0  0  0  0  0  0
    6.9552    0.9108   26.5093 C   0  0  0  0  0  0  0  0  0  0  0  0
    5.8843    0.6702   26.5900 H   0  0  0  0  0  0  0  0  0  0  0  0
    7.2216    0.7037   25.4620 H   0  0  0  0  0  0  0  0  0  0  0  0
    7.1895    2.3878   26.8252 C   0  0  0  0  0  0  0  0  0  0  0  0
    6.8860    2.6218   27.8532 H   0  0  0  0  0  0  0  0  0  0  0  0
    8.2512    2.6481   26.7315 H   0  0  0  0  0  0  0  0  0  0  0  0
    6.6232    3.0378   26.1507 H   0  0  0  0  0  0  0  0  0  0  0  0
    7.5131   -2.4264   22.4737 N   0  0  0  0  0  0  0  0  0  0  0  0
    6.9770   -3.1991   22.8185 H   0  0  0  0  0  0  0  0  0  0  0  0
    6.7738   -1.8146   21.4998 C   0  0  0  0  0  0  0  0  0  0  0  0
    5.7127   -2.3184   21.1907 O   0  0  0  0  0  0  0  0  0  0  0  0
    5.4317    0.6461   20.1423 C   0  0  0  0  0  0  0  0  0  0  0  0
    5.0267    0.6097   21.1532 H   0  0  0  0  0  0  0  0  0  0  0  0
    4.7997    1.3216   19.0922 C   0  0  0  0  0  0  0  0  0  0  0  0
    3.8707    1.8508   19.2479 H   0  0  0  0  0  0  0  0  0  0  0  0
  1  2  1  0
  2  3  2  0
  3  4  1  0
  4  5  1  0
  4  6  2  0
  6  7  1  0
  7  8  1  0
  8  9  2  0
  8 10  1  0
 10 11  1  0
 10 12  2  0
 12 13  1  0
 13 14  1  0
 13 15  1  0
 13 16  1  0
 16 17  1  0
 16 18  1  0
 16 19  1  0
 19 20  1  0
 19 21  1  0
 19 22  1  0
 22 23  1  0
 22 24  1  0
 22 25  1  0
 25 26  1  0
 25 27  1  0
 25 28  1  0
 28 29  1  0
 28 30  1  0
 28 31  1  0
 31 32  1  0
 31 33  1  0
 31 34  1  0
 12 35  1  0
 35 36  1  0
 35 37  1  0
 37 38  2  0
  6 39  1  0
 39 40  1  0
 39 41  2  0
 41 42  1  0
 41  2  1  0
 37  7  1  0
M  END
>  <cnnaffinity>  (1) 
-5.64842

>  <filename>  (1) 
CCCCCCCc1cc(=O)n(-c2cccnc2)c(=O)[nH]1

$$$$
