
     RDKit          3D

 42 43  0  0  0  0  0  0  0  0999 V2000
    8.5245   -1.9449   19.8843 H   0  0  0  0  0  0  0  0  0  0  0  0
    8.2547   -1.6323   20.8750 C   0  0  0  0  0  0  0  0  0  0  0  0
    8.8108   -2.3055   21.8711 N   0  0  0  0  0  0  0  0  0  0  0  0
    8.5760   -1.8686   23.1206 N   0  0  0  0  0  0  0  0  0  0  0  0
    7.8193   -0.7808   23.3086 C   0  0  0  0  0  0  0  0  0  0  0  0
    7.7741   -0.2385   24.7131 C   0  0  0  0  0  0  0  0  0  0  0  0
    7.7738   -1.0911   25.3983 H   0  0  0  0  0  0  0  0  0  0  0  0
    6.8251    0.2944   24.8209 H   0  0  0  0  0  0  0  0  0  0  0  0
    8.9731    0.6958   25.0346 C   0  0  0  0  0  0  0  0  0  0  0  0
    9.9000    0.1032   25.0284 H   0  0  0  0  0  0  0  0  0  0  0  0
    8.8639    1.0719   26.0650 H   0  0  0  0  0  0  0  0  0  0  0  0
    9.1446    1.8687   24.0528 C   0  0  0  0  0  0  0  0  0  0  0  0
    9.3149    1.4809   23.0378 H   0  0  0  0  0  0  0  0  0  0  0  0
   10.0609    2.4182   24.3085 H   0  0  0  0  0  0  0  0  0  0  0  0
    7.9519    2.8304   24.0020 C   0  0  0  0  0  0  0  0  0  0  0  0
    7.0447    2.2641   23.7605 H   0  0  0  0  0  0  0  0  0  0  0  0
    7.7850    3.2647   24.9985 H   0  0  0  0  0  0  0  0  0  0  0  0
    8.0881    3.9650   22.9769 C   0  0  0  0  0  0  0  0  0  0  0  0
    7.1706    4.5732   23.0021 H   0  0  0  0  0  0  0  0  0  0  0  0
    8.1324    3.5432   21.9617 H   0  0  0  0  0  0  0  0  0  0  0  0
    9.2940    4.8854   23.1882 C   0  0  0  0  0  0  0  0  0  0  0  0
    9.2954    5.6479   22.3979 H   0  0  0  0  0  0  0  0  0  0  0  0
   10.2280    4.3213   23.0475 H   0  0  0  0  0  0  0  0  0  0  0  0
    9.3210    5.5978   24.5446 C   0  0  0  0  0  0  0  0  0  0  0  0
    8.3568    6.1014   24.6989 H   0  0  0  0  0  0  0  0  0  0  0  0
    9.4052    4.8679   25.3601 H   0  0  0  0  0  0  0  0  0  0  0  0
   10.4285    6.6463   24.5957 C   0  0  0  0  0  0  0  0  0  0  0  0
   10.2666    7.3332   23.7609 H   0  0  0  0  0  0  0  0  0  0  0  0
   10.4343    7.2358   25.5181 H   0  0  0  0  0  0  0  0  0  0  0  0
   11.4272    6.2116   24.4734 H   0  0  0  0  0  0  0  0  0  0  0  0
    7.1493   -0.1121   22.3400 N   0  0  0  0  0  0  0  0  0  0  0  0
    7.3616   -0.5526   21.0952 C   0  0  0  0  0  0  0  0  0  0  0  0
    6.6260    0.0992   19.9881 C   0  0  0  0  0  0  0  0  0  0  0  0
    7.1610    0.0914   18.6881 C   0  0  0  0  0  0  0  0  0  0  0  0
    8.1176   -0.3908   18.4730 H   0  0  0  0  0  0  0  0  0  0  0  0
    6.5753    0.6586   17.6363 N   0  0  0  0  0  0  0  0  0  0  0  0
    5.4057    1.2813   17.8443 C   0  0  0  0  0  0  0  0  0  0  0  0
    4.9811    1.7762   16.9795 H   0  0  0  0  0  0  0  0  0  0  0  0
    4.7651    1.3259   19.0870 C   0  0  0  0  0  0  0  0  0  0  0  0
    3.8187    1.8484   19.1838 H   0  0  0  0  0  0  0  0  0  0  0  0
    5.3808    0.7277   20.1832 C   0  0  0  0  0  0  0  0  0  0  0  0
    4.9218    0.7411   21.1745 H   0  0  0  0  0  0  0  0  0  0  0  0
  1  2  1  0
  2  3  2  0
  3  4  1  0
  4  5  2  0
  5  6  1  0
  6  7  1  0
  6  8  1  0
  6  9  1  0
  9 10  1  0
  9 11  1  0
  9 12  1  0
 12 13  1  0
 12 14  1  0
 12 15  1  0
 15 16  1  0
 15 17  1  0
 15 18  1  0
 18 19  1  0
 18 20  1  0
 18 21  1  0
 21 22  1  0
 21 23  1  0
 21 24  1  0
 24 25  1  0
 24 26  1  0
 24 27  1  0
 27 28  1  0
 27 29  1  0
 27 30  1  0
  5 31  1  0
 31 32  2  0
 32 33  1  0
 33 34  2  0
 34 35  1  0
 34 36  1  0
 36 37  2  0
 37 38  1  0
 37 39  1  0
 39 40  1  0
 39 41  2  0
 41 42  1  0
 32  2  1  0
 41 33  1  0
M  END
>  <cnnaffinity>  (1) 
-5.61333

>  <filename>  (1) 
CCCCCCCCc1nncc(-c2cccnc2)n1

$$$$
