
     RDKit          3D

 44 46  0  0  0  0  0  0  0  0999 V2000
    4.9936    1.7877   16.9725 H   0  0  0  0  0  0  0  0  0  0  0  0
    5.4263    1.2806   17.8355 C   0  0  0  0  0  0  0  0  0  0  0  0
    6.5861    0.6386   17.6276 N   0  0  0  0  0  0  0  0  0  0  0  0
    7.1366    0.0194   18.6805 C   0  0  0  0  0  0  0  0  0  0  0  0
    8.0774   -0.4982   18.4966 H   0  0  0  0  0  0  0  0  0  0  0  0
    6.5880   -0.0077   19.9759 C   0  0  0  0  0  0  0  0  0  0  0  0
    7.3102   -0.7098   21.0989 C   0  0  0  0  0  0  0  0  0  0  0  0
    7.0269   -2.1748   21.2967 C   0  0  0  0  0  0  0  0  0  0  0  0
    7.8722   -3.1407   21.1335 N   0  0  0  0  0  0  0  0  0  0  0  0
    7.2342   -4.3052   21.4940 N   0  0  0  0  0  0  0  0  0  0  0  0
    6.0583   -3.9671   21.9046 C   0  0  0  0  0  0  0  0  0  0  0  0
    5.1298   -4.9112   22.6080 C   0  0  0  0  0  0  0  0  0  0  0  0
    4.2367   -4.3832   22.9628 H   0  0  0  0  0  0  0  0  0  0  0  0
    4.8273   -5.6601   21.8667 H   0  0  0  0  0  0  0  0  0  0  0  0
    5.8878   -5.6107   23.7667 C   0  0  0  0  0  0  0  0  0  0  0  0
    5.2645   -6.3996   24.2108 H   0  0  0  0  0  0  0  0  0  0  0  0
    6.7736   -6.1005   23.3330 H   0  0  0  0  0  0  0  0  0  0  0  0
    6.3679   -4.5982   24.8186 C   0  0  0  0  0  0  0  0  0  0  0  0
    5.5001   -4.0693   25.2459 H   0  0  0  0  0  0  0  0  0  0  0  0
    6.9709   -3.8316   24.3101 H   0  0  0  0  0  0  0  0  0  0  0  0
    7.2093   -5.1813   25.9616 C   0  0  0  0  0  0  0  0  0  0  0  0
    7.5922   -4.3429   26.5645 H   0  0  0  0  0  0  0  0  0  0  0  0
    8.0964   -5.6886   25.5466 H   0  0  0  0  0  0  0  0  0  0  0  0
    6.4377   -6.1469   26.8658 C   0  0  0  0  0  0  0  0  0  0  0  0
    6.1678   -7.0455   26.2883 H   0  0  0  0  0  0  0  0  0  0  0  0
    5.4821   -5.6826   27.1594 H   0  0  0  0  0  0  0  0  0  0  0  0
    7.2005   -6.5699   28.1261 C   0  0  0  0  0  0  0  0  0  0  0  0
    8.1880   -6.9660   27.8460 H   0  0  0  0  0  0  0  0  0  0  0  0
    7.4128   -5.6872   28.7496 H   0  0  0  0  0  0  0  0  0  0  0  0
    6.4363   -7.6105   28.9507 C   0  0  0  0  0  0  0  0  0  0  0  0
    7.0585   -7.9914   29.7656 H   0  0  0  0  0  0  0  0  0  0  0  0
    6.1301   -8.4705   28.3408 H   0  0  0  0  0  0  0  0  0  0  0  0
    5.5200   -7.1932   29.3855 H   0  0  0  0  0  0  0  0  0  0  0  0
    5.8274   -2.6336   21.7641 O   0  0  0  0  0  0  0  0  0  0  0  0
    7.7165    0.1161   22.3182 C   0  0  0  0  0  0  0  0  0  0  0  0
    7.4399    1.1681   22.3351 H   0  0  0  0  0  0  0  0  0  0  0  0
    7.7190   -0.3724   23.2857 H   0  0  0  0  0  0  0  0  0  0  0  0
    8.7515   -0.2959   21.3330 C   0  0  0  0  0  0  0  0  0  0  0  0
    9.4293   -1.0899   21.6302 H   0  0  0  0  0  0  0  0  0  0  0  0
    9.1756    0.4724   20.6910 H   0  0  0  0  0  0  0  0  0  0  0  0
    5.3777    0.6662   20.1673 C   0  0  0  0  0  0  0  0  0  0  0  0
    4.9192    0.6794   21.1580 H   0  0  0  0  0  0  0  0  0  0  0  0
    4.7848    1.3147   19.0796 C   0  0  0  0  0  0  0  0  0  0  0  0
    3.8457    1.8443   19.1814 H   0  0  0  0  0  0  0  0  0  0  0  0
  1  2  1  0
  2  3  2  0
  3  4  1  0
  4  5  1  0
  4  6  2  0
  6  7  1  0
  7  8  1  0
  8  9  2  0
  9 10  1  0
 10 11  2  0
 11 12  1  0
 12 13  1  0
 12 14  1  0
 12 15  1  0
 15 16  1  0
 15 17  1  0
 15 18  1  0
 18 19  1  0
 18 20  1  0
 18 21  1  0
 21 22  1  0
 21 23  1  0
 21 24  1  0
 24 25  1  0
 24 26  1  0
 24 27  1  0
 27 28  1  0
 27 29  1  0
 27 30  1  0
 30 31  1  0
 30 32  1  0
 30 33  1  0
 11 34  1  0
  7 35  1  0
 35 36  1  0
 35 37  1  0
 35 38  1  0
 38 39  1  0
 38 40  1  0
  6 41  1  0
 41 42  1  0
 41 43  2  0
 43 44  1  0
 43  2  1  0
 38  7  1  0
 34  8  1  0
M  END
>  <cnnaffinity>  (1) 
-5.22727

>  <filename>  (1) 
CCCCCCCc1nnc(C2(c3cccnc3)CC2)o1

$$$$
