
     RDKit          3D

 38 39  0  0  0  0  0  0  0  0999 V2000
    4.9221    1.8147   16.9844 H   0  0  0  0  0  0  0  0  0  0  0  0
    5.3940    1.3042   17.8225 C   0  0  0  0  0  0  0  0  0  0  0  0
    6.5529    0.6797   17.5595 N   0  0  0  0  0  0  0  0  0  0  0  0
    7.1737    0.0616   18.5756 C   0  0  0  0  0  0  0  0  0  0  0  0
    8.1098   -0.4339   18.3226 H   0  0  0  0  0  0  0  0  0  0  0  0
    6.6763    0.0157   19.8979 C   0  0  0  0  0  0  0  0  0  0  0  0
    7.3446   -0.6609   20.9766 N   0  0  0  0  0  0  0  0  0  0  0  0
    6.8273   -1.6404   21.7937 C   0  0  0  0  0  0  0  0  0  0  0  0
    5.8179   -2.0096   21.6994 H   0  0  0  0  0  0  0  0  0  0  0  0
    7.7079   -2.0565   22.6548 N   0  0  0  0  0  0  0  0  0  0  0  0
    8.8524   -1.3260   22.4446 N   0  0  0  0  0  0  0  0  0  0  0  0
    8.6255   -0.4976   21.4588 C   0  0  0  0  0  0  0  0  0  0  0  0
    9.5492    0.5433   20.9278 C   0  0  0  0  0  0  0  0  0  0  0  0
    9.6200    0.3927   19.8483 H   0  0  0  0  0  0  0  0  0  0  0  0
   10.5380    0.3478   21.3544 H   0  0  0  0  0  0  0  0  0  0  0  0
    9.0778    1.9847   21.2031 C   0  0  0  0  0  0  0  0  0  0  0  0
    9.8650    2.6711   20.8676 H   0  0  0  0  0  0  0  0  0  0  0  0
    8.1898    2.1937   20.5908 H   0  0  0  0  0  0  0  0  0  0  0  0
    8.7720    2.2547   22.6797 C   0  0  0  0  0  0  0  0  0  0  0  0
    7.9785    1.5682   23.0152 H   0  0  0  0  0  0  0  0  0  0  0  0
    8.3787    3.2765   22.7872 H   0  0  0  0  0  0  0  0  0  0  0  0
    9.9899    2.0663   23.5845 C   0  0  0  0  0  0  0  0  0  0  0  0
   10.8487    2.6224   23.1742 H   0  0  0  0  0  0  0  0  0  0  0  0
   10.2846    1.0046   23.5866 H   0  0  0  0  0  0  0  0  0  0  0  0
    9.7867    2.5299   25.0269 C   0  0  0  0  0  0  0  0  0  0  0  0
   10.7265    2.2941   25.5401 H   0  0  0  0  0  0  0  0  0  0  0  0
    9.6619    3.6229   25.0424 H   0  0  0  0  0  0  0  0  0  0  0  0
    8.6499    1.8705   25.8213 C   0  0  0  0  0  0  0  0  0  0  0  0
    8.5732    2.3926   26.7845 H   0  0  0  0  0  0  0  0  0  0  0  0
    7.6737    2.0223   25.3329 H   0  0  0  0  0  0  0  0  0  0  0  0
    8.9135    0.3800   26.0546 C   0  0  0  0  0  0  0  0  0  0  0  0
    9.9112    0.2321   26.4894 H   0  0  0  0  0  0  0  0  0  0  0  0
    8.8900   -0.1791   25.1139 H   0  0  0  0  0  0  0  0  0  0  0  0
    8.1848   -0.0687   26.7372 H   0  0  0  0  0  0  0  0  0  0  0  0
    5.4576    0.6543   20.1460 C   0  0  0  0  0  0  0  0  0  0  0  0
    5.0479    0.6341   21.1568 H   0  0  0  0  0  0  0  0  0  0  0  0
    4.8100    1.3128   19.0933 C   0  0  0  0  0  0  0  0  0  0  0  0
    3.8731    1.8392   19.2452 H   0  0  0  0  0  0  0  0  0  0  0  0
  1  2  1  0
  2  3  2  0
  3  4  1  0
  4  5  1  0
  4  6  2  0
  6  7  1  0
  7  8  1  0
  8  9  1  0
  8 10  2  0
 10 11  1  0
 11 12  2  0
 12 13  1  0
 13 14  1  0
 13 15  1  0
 13 16  1  0
 16 17  1  0
 16 18  1  0
 16 19  1  0
 19 20  1  0
 19 21  1  0
 19 22  1  0
 22 23  1  0
 22 24  1  0
 22 25  1  0
 25 26  1  0
 25 27  1  0
 25 28  1  0
 28 29  1  0
 28 30  1  0
 28 31  1  0
 31 32  1  0
 31 33  1  0
 31 34  1  0
  6 35  1  0
 35 36  1  0
 35 37  2  0
 37 38  1  0
 37  2  1  0
 12  7  1  0
M  END
>  <cnnaffinity>  (1) 
-4.97625

>  <filename>  (1) 
CCCCCCCc1nncn1-c1cccnc1

$$$$
