
     RDKit          3D

 44 45  0  0  0  0  0  0  0  0999 V2000
    4.9820    1.8225   16.8587 H   0  0  0  0  0  0  0  0  0  0  0  0
    5.4267    1.3192   17.7105 C   0  0  0  0  0  0  0  0  0  0  0  0
    6.6034    0.7109   17.4830 N   0  0  0  0  0  0  0  0  0  0  0  0
    7.1922    0.1007   18.5199 C   0  0  0  0  0  0  0  0  0  0  0  0
    8.1396   -0.4026   18.3174 H   0  0  0  0  0  0  0  0  0  0  0  0
    6.6551    0.0416   19.8319 C   0  0  0  0  0  0  0  0  0  0  0  0
    7.3196   -0.5482   20.9297 N   0  0  0  0  0  0  0  0  0  0  0  0
    6.7313   -1.6965   21.6160 C   0  0  0  0  0  0  0  0  0  0  0  0
    7.0963   -2.6444   21.1723 H   0  0  0  0  0  0  0  0  0  0  0  0
    5.6451   -1.6882   21.4813 H   0  0  0  0  0  0  0  0  0  0  0  0
    7.0822   -1.6685   23.1070 C   0  0  0  0  0  0  0  0  0  0  0  0
    6.6883   -2.5709   23.5910 H   0  0  0  0  0  0  0  0  0  0  0  0
    6.5668   -0.8193   23.5749 H   0  0  0  0  0  0  0  0  0  0  0  0
    8.5993   -1.5399   23.3532 C   0  0  0  0  0  0  0  0  0  0  0  0
    9.0788   -2.4784   23.0231 H   0  0  0  0  0  0  0  0  0  0  0  0
    8.9433   -1.3012   24.8360 C   0  0  0  0  0  0  0  0  0  0  0  0
   10.0389   -1.2493   24.9317 H   0  0  0  0  0  0  0  0  0  0  0  0
    8.5704   -0.3079   25.1257 H   0  0  0  0  0  0  0  0  0  0  0  0
    8.4028   -2.3390   25.8300 C   0  0  0  0  0  0  0  0  0  0  0  0
    7.3086   -2.2571   25.8952 H   0  0  0  0  0  0  0  0  0  0  0  0
    8.7711   -2.0943   26.8353 H   0  0  0  0  0  0  0  0  0  0  0  0
    8.8052   -3.7707   25.4889 C   0  0  0  0  0  0  0  0  0  0  0  0
    8.4768   -4.0187   24.4718 H   0  0  0  0  0  0  0  0  0  0  0  0
    9.9032   -3.8240   25.4631 H   0  0  0  0  0  0  0  0  0  0  0  0
    8.2546   -4.8319   26.4397 C   0  0  0  0  0  0  0  0  0  0  0  0
    7.1571   -4.8585   26.3641 H   0  0  0  0  0  0  0  0  0  0  0  0
    8.4854   -4.5568   27.4822 H   0  0  0  0  0  0  0  0  0  0  0  0
    8.7964   -6.2342   26.1344 C   0  0  0  0  0  0  0  0  0  0  0  0
    8.4235   -6.9209   26.8993 H   0  0  0  0  0  0  0  0  0  0  0  0
    8.3831   -6.5850   25.1782 H   0  0  0  0  0  0  0  0  0  0  0  0
   10.3247   -6.3274   26.0824 C   0  0  0  0  0  0  0  0  0  0  0  0
   10.6434   -7.3698   26.1824 H   0  0  0  0  0  0  0  0  0  0  0  0
   10.7259   -5.9531   25.1351 H   0  0  0  0  0  0  0  0  0  0  0  0
   10.7956   -5.7599   26.8980 H   0  0  0  0  0  0  0  0  0  0  0  0
    9.1805   -0.4017   22.4974 C   0  0  0  0  0  0  0  0  0  0  0  0
    8.8120    0.5592   22.8796 H   0  0  0  0  0  0  0  0  0  0  0  0
   10.2737   -0.3778   22.5887 H   0  0  0  0  0  0  0  0  0  0  0  0
    8.7758   -0.5196   21.0280 C   0  0  0  0  0  0  0  0  0  0  0  0
    9.1609    0.3354   20.4629 H   0  0  0  0  0  0  0  0  0  0  0  0
    9.2333   -1.4325   20.5973 H   0  0  0  0  0  0  0  0  0  0  0  0
    5.3935    0.6451   20.0242 C   0  0  0  0  0  0  0  0  0  0  0  0
    4.9414    0.6020   21.0147 H   0  0  0  0  0  0  0  0  0  0  0  0
    4.7842    1.3079   18.9560 C   0  0  0  0  0  0  0  0  0  0  0  0
    3.8289    1.8140   19.0733 H   0  0  0  0  0  0  0  0  0  0  0  0
  1  2  1  0
  2  3  2  0
  3  4  1  0
  4  5  1  0
  4  6  2  0
  6  7  1  0
  7  8  1  0
  8  9  1  0
  8 10  1  0
  8 11  1  0
 11 12  1  0
 11 13  1  0
 11 14  1  0
 14 15  1  0
 14 16  1  0
 16 17  1  0
 16 18  1  0
 16 19  1  0
 19 20  1  0
 19 21  1  0
 19 22  1  0
 22 23  1  0
 22 24  1  0
 22 25  1  0
 25 26  1  0
 25 27  1  0
 25 28  1  0
 28 29  1  0
 28 30  1  0
 28 31  1  0
 31 32  1  0
 31 33  1  0
 31 34  1  0
 14 35  1  0
 35 36  1  0
 35 37  1  0
 35 38  1  0
 38 39  1  0
 38 40  1  0
  6 41  1  0
 41 42  1  0
 41 43  2  0
 43 44  1  0
 43  2  1  0
 38  7  1  0
M  END
>  <cnnaffinity>  (1) 
-4.99501

>  <filename>  (1) 
CCCCCCC1CCN(c2cccnc2)CC1

$$$$
