
     RDKit          3D

 41 42  0  0  0  0  0  0  0  0999 V2000
    4.9067    1.8319   16.9575 H   0  0  0  0  0  0  0  0  0  0  0  0
    5.3767    1.3200   17.7977 C   0  0  0  0  0  0  0  0  0  0  0  0
    6.5399    0.6980   17.5396 N   0  0  0  0  0  0  0  0  0  0  0  0
    7.1498    0.0824   18.5614 C   0  0  0  0  0  0  0  0  0  0  0  0
    8.0957   -0.4071   18.3280 H   0  0  0  0  0  0  0  0  0  0  0  0
    6.6474    0.0270   19.8795 C   0  0  0  0  0  0  0  0  0  0  0  0
    7.3367   -0.6761   20.9961 C   0  0  0  0  0  0  0  0  0  0  0  0
    8.6962   -0.5546   21.4507 C   0  0  0  0  0  0  0  0  0  0  0  0
    9.7363    0.4164   20.9744 C   0  0  0  0  0  0  0  0  0  0  0  0
   10.7234   -0.0561   21.0214 H   0  0  0  0  0  0  0  0  0  0  0  0
    9.5251    0.6230   19.9190 H   0  0  0  0  0  0  0  0  0  0  0  0
    9.7133    1.7418   21.7693 C   0  0  0  0  0  0  0  0  0  0  0  0
   10.5480    2.3748   21.4367 H   0  0  0  0  0  0  0  0  0  0  0  0
    9.8837    1.5300   22.8364 H   0  0  0  0  0  0  0  0  0  0  0  0
    8.4016    2.5091   21.5728 C   0  0  0  0  0  0  0  0  0  0  0  0
    8.2320    2.5769   20.4883 H   0  0  0  0  0  0  0  0  0  0  0  0
    7.5528    1.9136   21.9410 H   0  0  0  0  0  0  0  0  0  0  0  0
    8.3770    3.8718   22.2881 C   0  0  0  0  0  0  0  0  0  0  0  0
    9.2487    4.4952   22.0376 H   0  0  0  0  0  0  0  0  0  0  0  0
    8.4935    3.6855   23.3676 H   0  0  0  0  0  0  0  0  0  0  0  0
    7.1043    4.7012   22.0543 C   0  0  0  0  0  0  0  0  0  0  0  0
    6.8891    4.8109   20.9852 H   0  0  0  0  0  0  0  0  0  0  0  0
    6.2373    4.1643   22.4739 H   0  0  0  0  0  0  0  0  0  0  0  0
    7.1775    6.1181   22.6432 C   0  0  0  0  0  0  0  0  0  0  0  0
    8.0685    6.6340   22.2448 H   0  0  0  0  0  0  0  0  0  0  0  0
    6.3133    6.6982   22.2840 H   0  0  0  0  0  0  0  0  0  0  0  0
    7.2085    6.1466   24.1745 C   0  0  0  0  0  0  0  0  0  0  0  0
    8.1127    5.6317   24.5316 H   0  0  0  0  0  0  0  0  0  0  0  0
    6.3586    5.5535   24.5477 H   0  0  0  0  0  0  0  0  0  0  0  0
    7.1482    7.5681   24.7376 C   0  0  0  0  0  0  0  0  0  0  0  0
    6.2337    8.0783   24.4085 H   0  0  0  0  0  0  0  0  0  0  0  0
    7.1576    7.5742   25.8328 H   0  0  0  0  0  0  0  0  0  0  0  0
    7.9986    8.1696   24.3913 H   0  0  0  0  0  0  0  0  0  0  0  0
    8.9335   -1.3540   22.4621 N   0  0  0  0  0  0  0  0  0  0  0  0
    7.7543   -2.0083   22.7197 O   0  0  0  0  0  0  0  0  0  0  0  0
    6.8221   -1.5869   21.8642 C   0  0  0  0  0  0  0  0  0  0  0  0
    5.8478   -2.0433   21.9766 H   0  0  0  0  0  0  0  0  0  0  0  0
    5.4256    0.6676   20.1132 C   0  0  0  0  0  0  0  0  0  0  0  0
    5.0083    0.6512   21.1196 H   0  0  0  0  0  0  0  0  0  0  0  0
    4.7829    1.3276   19.0627 C   0  0  0  0  0  0  0  0  0  0  0  0
    3.8489    1.8604   19.2141 H   0  0  0  0  0  0  0  0  0  0  0  0
  1  2  1  0
  2  3  2  0
  3  4  1  0
  4  5  1  0
  4  6  2  0
  6  7  1  0
  7  8  1  0
  8  9  1  0
  9 10  1  0
  9 11  1  0
  9 12  1  0
 12 13  1  0
 12 14  1  0
 12 15  1  0
 15 16  1  0
 15 17  1  0
 15 18  1  0
 18 19  1  0
 18 20  1  0
 18 21  1  0
 21 22  1  0
 21 23  1  0
 21 24  1  0
 24 25  1  0
 24 26  1  0
 24 27  1  0
 27 28  1  0
 27 29  1  0
 27 30  1  0
 30 31  1  0
 30 32  1  0
 30 33  1  0
  8 34  2  0
 34 35  1  0
 35 36  1  0
 36 37  1  0
  6 38  1  0
 38 39  1  0
 38 40  2  0
 40 41  1  0
 40  2  1  0
 36  7  2  0
M  END
>  <cnnaffinity>  (1) 
-4.95932

>  <filename>  (1) 
CCCCCCCCc1nocc1-c1cccnc1

$$$$
