
     RDKit          3D

 34 35  0  0  0  0  0  0  0  0999 V2000
    4.9219    1.7919   16.9848 H   0  0  0  0  0  0  0  0  0  0  0  0
    5.3939    1.2975   17.8312 C   0  0  0  0  0  0  0  0  0  0  0  0
    6.5564    0.6791   17.5710 N   0  0  0  0  0  0  0  0  0  0  0  0
    7.1618    0.0682   18.5974 C   0  0  0  0  0  0  0  0  0  0  0  0
    8.1154   -0.4107   18.3796 H   0  0  0  0  0  0  0  0  0  0  0  0
    6.6427    0.0114   19.9002 C   0  0  0  0  0  0  0  0  0  0  0  0
    7.4164   -0.7122   20.9779 C   0  0  0  0  0  0  0  0  0  0  0  0
    6.8288   -0.7766   21.9014 H   0  0  0  0  0  0  0  0  0  0  0  0
    7.6831   -1.7325   20.6862 H   0  0  0  0  0  0  0  0  0  0  0  0
    8.6696   -0.0489   21.3058 N   0  0  0  0  0  0  0  0  0  0  0  0
    9.8357   -0.4306   20.7592 N   0  0  0  0  0  0  0  0  0  0  0  0
   10.7216    0.4117   21.1588 N   0  0  0  0  0  0  0  0  0  0  0  0
   10.1707    1.3599   21.9382 N   0  0  0  0  0  0  0  0  0  0  0  0
    8.8884    1.0741   22.0184 C   0  0  0  0  0  0  0  0  0  0  0  0
    7.8961    1.8331   22.8319 C   0  0  0  0  0  0  0  0  0  0  0  0
    8.0743    2.8989   22.6614 H   0  0  0  0  0  0  0  0  0  0  0  0
    6.8814    1.6264   22.4730 H   0  0  0  0  0  0  0  0  0  0  0  0
    8.0080    1.5084   24.3307 C   0  0  0  0  0  0  0  0  0  0  0  0
    7.3859    2.2087   24.9032 H   0  0  0  0  0  0  0  0  0  0  0  0
    9.0442    1.6828   24.6530 H   0  0  0  0  0  0  0  0  0  0  0  0
    7.6060    0.0749   24.6689 C   0  0  0  0  0  0  0  0  0  0  0  0
    6.5734   -0.1055   24.3327 H   0  0  0  0  0  0  0  0  0  0  0  0
    8.2287   -0.6374   24.1050 H   0  0  0  0  0  0  0  0  0  0  0  0
    7.7057   -0.2268   26.1632 C   0  0  0  0  0  0  0  0  0  0  0  0
    7.0847    0.4908   26.7179 H   0  0  0  0  0  0  0  0  0  0  0  0
    8.7364   -0.0462   26.4988 H   0  0  0  0  0  0  0  0  0  0  0  0
    7.2870   -1.6532   26.5101 C   0  0  0  0  0  0  0  0  0  0  0  0
    7.9153   -2.3848   25.9886 H   0  0  0  0  0  0  0  0  0  0  0  0
    7.3649   -1.8490   27.5837 H   0  0  0  0  0  0  0  0  0  0  0  0
    6.2498   -1.8440   26.2092 H   0  0  0  0  0  0  0  0  0  0  0  0
    5.4259    0.6516   20.1493 C   0  0  0  0  0  0  0  0  0  0  0  0
    4.9864    0.6356   21.1518 H   0  0  0  0  0  0  0  0  0  0  0  0
    4.7955    1.3144   19.0947 C   0  0  0  0  0  0  0  0  0  0  0  0
    3.8665    1.8490   19.2442 H   0  0  0  0  0  0  0  0  0  0  0  0
  1  2  1  0
  2  3  2  0
  3  4  1  0
  4  5  1  0
  4  6  2  0
  6  7  1  0
  7  8  1  0
  7  9  1  0
  7 10  1  0
 10 11  1  0
 11 12  2  0
 12 13  1  0
 13 14  2  0
 14 15  1  0
 15 16  1  0
 15 17  1  0
 15 18  1  0
 18 19  1  0
 18 20  1  0
 18 21  1  0
 21 22  1  0
 21 23  1  0
 21 24  1  0
 24 25  1  0
 24 26  1  0
 24 27  1  0
 27 28  1  0
 27 29  1  0
 27 30  1  0
  6 31  1  0
 31 32  1  0
 31 33  2  0
 33 34  1  0
 33  2  1  0
 14 10  1  0
M  END
>  <cnnaffinity>  (1) 
-5.08872

>  <filename>  (1) 
CCCCCc1nnnn1Cc1cccnc1

$$$$
