
     RDKit          3D

 40 41  0  0  0  0  0  0  0  0999 V2000
    8.8657   -3.0149   23.6941 H   0  0  0  0  0  0  0  0  0  0  0  0
    8.4046   -2.3896   22.9308 C   0  0  0  0  0  0  0  0  0  0  0  0
    7.1585   -2.6941   22.5881 N   0  0  0  0  0  0  0  0  0  0  0  0
    6.6074   -1.9094   21.6570 C   0  0  0  0  0  0  0  0  0  0  0  0
    5.5827   -2.1616   21.3757 H   0  0  0  0  0  0  0  0  0  0  0  0
    7.2707   -0.8592   21.0173 C   0  0  0  0  0  0  0  0  0  0  0  0
    6.6105   -0.0899   19.8945 C   0  0  0  0  0  0  0  0  0  0  0  0
    7.1427   -0.0054   18.5818 C   0  0  0  0  0  0  0  0  0  0  0  0
    8.0718   -0.5274   18.3515 H   0  0  0  0  0  0  0  0  0  0  0  0
    6.5814    0.6633   17.5645 N   0  0  0  0  0  0  0  0  0  0  0  0
    5.4331    1.3106   17.8194 C   0  0  0  0  0  0  0  0  0  0  0  0
    4.9895    1.8548   16.9878 H   0  0  0  0  0  0  0  0  0  0  0  0
    4.8055    1.2964   19.0701 C   0  0  0  0  0  0  0  0  0  0  0  0
    3.8836    1.8496   19.2124 H   0  0  0  0  0  0  0  0  0  0  0  0
    5.3959    0.5796   20.1156 C   0  0  0  0  0  0  0  0  0  0  0  0
    4.9396    0.5588   21.1076 H   0  0  0  0  0  0  0  0  0  0  0  0
    8.5673   -0.5891   21.5354 C   0  0  0  0  0  0  0  0  0  0  0  0
    9.3529    0.6212   21.0710 C   0  0  0  0  0  0  0  0  0  0  0  0
    8.6409    1.4421   20.8974 H   0  0  0  0  0  0  0  0  0  0  0  0
    9.7345    0.3775   20.0705 H   0  0  0  0  0  0  0  0  0  0  0  0
   10.5189    1.1144   21.9703 C   0  0  0  0  0  0  0  0  0  0  0  0
   11.2531    0.3121   22.1051 H   0  0  0  0  0  0  0  0  0  0  0  0
   10.1443    1.3554   22.9778 H   0  0  0  0  0  0  0  0  0  0  0  0
   11.1949    2.3370   21.3470 C   0  0  0  0  0  0  0  0  0  0  0  0
   11.7744    2.0089   20.4720 H   0  0  0  0  0  0  0  0  0  0  0  0
   10.3757    2.9420   20.9604 H   0  0  0  0  0  0  0  0  0  0  0  0
   12.0883    3.1819   22.2709 C   0  0  0  0  0  0  0  0  0  0  0  0
   11.5042    3.4931   23.1523 H   0  0  0  0  0  0  0  0  0  0  0  0
   12.9091    2.5588   22.6603 H   0  0  0  0  0  0  0  0  0  0  0  0
   12.6899    4.4290   21.5975 C   0  0  0  0  0  0  0  0  0  0  0  0
   13.1845    4.1457   20.6549 H   0  0  0  0  0  0  0  0  0  0  0  0
   11.8857    5.1200   21.3121 H   0  0  0  0  0  0  0  0  0  0  0  0
   13.7012    5.2016   22.4554 C   0  0  0  0  0  0  0  0  0  0  0  0
   13.2102    5.6112   23.3478 H   0  0  0  0  0  0  0  0  0  0  0  0
   14.4727    4.5121   22.8245 H   0  0  0  0  0  0  0  0  0  0  0  0
   14.3795    6.3388   21.6922 C   0  0  0  0  0  0  0  0  0  0  0  0
   14.8896    5.9512   20.8027 H   0  0  0  0  0  0  0  0  0  0  0  0
   15.1265    6.8478   22.3081 H   0  0  0  0  0  0  0  0  0  0  0  0
   13.6585    7.0940   21.3591 H   0  0  0  0  0  0  0  0  0  0  0  0
    9.1322   -1.3895   22.4436 N   0  0  0  0  0  0  0  0  0  0  0  0
  1  2  1  0
  2  3  2  0
  3  4  1  0
  4  5  1  0
  4  6  2  0
  6  7  1  0
  7  8  2  0
  8  9  1  0
  8 10  1  0
 10 11  2  0
 11 12  1  0
 11 13  1  0
 13 14  1  0
 13 15  2  0
 15 16  1  0
  6 17  1  0
 17 18  1  0
 18 19  1  0
 18 20  1  0
 18 21  1  0
 21 22  1  0
 21 23  1  0
 21 24  1  0
 24 25  1  0
 24 26  1  0
 24 27  1  0
 27 28  1  0
 27 29  1  0
 27 30  1  0
 30 31  1  0
 30 32  1  0
 30 33  1  0
 33 34  1  0
 33 35  1  0
 33 36  1  0
 36 37  1  0
 36 38  1  0
 36 39  1  0
 17 40  2  0
 40  2  1  0
 15  7  1  0
M  END
>  <cnnaffinity>  (1) 
-5.61041

>  <filename>  (1) 
CCCCCCCc1ncncc1-c1cccnc1

$$$$
