
     RDKit          3D

 43 44  0  0  0  0  0  0  0  0999 V2000
    4.9169    1.8091   16.9632 H   0  0  0  0  0  0  0  0  0  0  0  0
    5.3784    1.3095   17.8131 C   0  0  0  0  0  0  0  0  0  0  0  0
    6.5411    0.6886   17.5547 N   0  0  0  0  0  0  0  0  0  0  0  0
    7.1395    0.0736   18.5792 C   0  0  0  0  0  0  0  0  0  0  0  0
    8.0872   -0.4136   18.3521 H   0  0  0  0  0  0  0  0  0  0  0  0
    6.6344    0.0097   19.8903 C   0  0  0  0  0  0  0  0  0  0  0  0
    7.4094   -0.6900   20.9177 C   0  0  0  0  0  0  0  0  0  0  0  0
    8.7682   -0.9024   21.0138 C   0  0  0  0  0  0  0  0  0  0  0  0
    9.5016   -0.5420   20.3075 H   0  0  0  0  0  0  0  0  0  0  0  0
    9.0089   -1.6172   22.2147 C   0  0  0  0  0  0  0  0  0  0  0  0
    9.9739   -1.9186   22.6099 H   0  0  0  0  0  0  0  0  0  0  0  0
    7.7917   -1.8409   22.8224 C   0  0  0  0  0  0  0  0  0  0  0  0
    7.5102   -2.4595   24.1545 C   0  0  0  0  0  0  0  0  0  0  0  0
    8.1764   -3.3222   24.2697 H   0  0  0  0  0  0  0  0  0  0  0  0
    6.4832   -2.8558   24.1989 H   0  0  0  0  0  0  0  0  0  0  0  0
    7.7387   -1.4726   25.3174 C   0  0  0  0  0  0  0  0  0  0  0  0
    7.7078   -2.0135   26.2749 H   0  0  0  0  0  0  0  0  0  0  0  0
    8.7531   -1.0569   25.2360 H   0  0  0  0  0  0  0  0  0  0  0  0
    6.7314   -0.3235   25.3401 C   0  0  0  0  0  0  0  0  0  0  0  0
    6.7973    0.2636   24.4099 H   0  0  0  0  0  0  0  0  0  0  0  0
    5.7086   -0.7345   25.3617 H   0  0  0  0  0  0  0  0  0  0  0  0
    6.9320    0.6038   26.5356 C   0  0  0  0  0  0  0  0  0  0  0  0
    6.8715    0.0171   27.4673 H   0  0  0  0  0  0  0  0  0  0  0  0
    7.9534    1.0169   26.5135 H   0  0  0  0  0  0  0  0  0  0  0  0
    5.9021    1.7353   26.5762 C   0  0  0  0  0  0  0  0  0  0  0  0
    6.0115    2.3545   25.6706 H   0  0  0  0  0  0  0  0  0  0  0  0
    4.8924    1.3018   26.5243 H   0  0  0  0  0  0  0  0  0  0  0  0
    6.0125    2.6231   27.8197 C   0  0  0  0  0  0  0  0  0  0  0  0
    5.9881    1.9873   28.7202 H   0  0  0  0  0  0  0  0  0  0  0  0
    5.1289    3.2732   27.8828 H   0  0  0  0  0  0  0  0  0  0  0  0
    7.2772    3.4898   27.8528 C   0  0  0  0  0  0  0  0  0  0  0  0
    8.1598    2.8340   27.8552 H   0  0  0  0  0  0  0  0  0  0  0  0
    7.3447    4.0637   26.9161 H   0  0  0  0  0  0  0  0  0  0  0  0
    7.2921    4.4414   29.0543 C   0  0  0  0  0  0  0  0  0  0  0  0
    8.1717    5.0928   29.0682 H   0  0  0  0  0  0  0  0  0  0  0  0
    6.4154    5.1005   29.0410 H   0  0  0  0  0  0  0  0  0  0  0  0
    7.2675    3.8836   29.9994 H   0  0  0  0  0  0  0  0  0  0  0  0
    6.8340   -1.2663   22.0229 N   0  0  0  0  0  0  0  0  0  0  0  0
    5.8497   -1.2409   22.2280 H   0  0  0  0  0  0  0  0  0  0  0  0
    5.4113    0.6605   20.1367 C   0  0  0  0  0  0  0  0  0  0  0  0
    4.9860    0.6688   21.1444 H   0  0  0  0  0  0  0  0  0  0  0  0
    4.7829    1.3233   19.0816 C   0  0  0  0  0  0  0  0  0  0  0  0
    3.8534    1.8600   19.2283 H   0  0  0  0  0  0  0  0  0  0  0  0
  1  2  1  0
  2  3  2  0
  3  4  1  0
  4  5  1  0
  4  6  2  0
  6  7  1  0
  7  8  2  0
  8  9  1  0
  8 10  1  0
 10 11  1  0
 10 12  2  0
 12 13  1  0
 13 14  1  0
 13 15  1  0
 13 16  1  0
 16 17  1  0
 16 18  1  0
 16 19  1  0
 19 20  1  0
 19 21  1  0
 19 22  1  0
 22 23  1  0
 22 24  1  0
 22 25  1  0
 25 26  1  0
 25 27  1  0
 25 28  1  0
 28 29  1  0
 28 30  1  0
 28 31  1  0
 31 32  1  0
 31 33  1  0
 31 34  1  0
 34 35  1  0
 34 36  1  0
 34 37  1  0
 12 38  1  0
 38 39  1  0
  6 40  1  0
 40 41  1  0
 40 42  2  0
 42 43  1  0
 42  2  1  0
 38  7  1  0
M  END
>  <cnnaffinity>  (1) 
-5.22818

>  <filename>  (1) 
CCCCCCCCc1ccc(-c2cccnc2)[nH]1

$$$$
