
     RDKit          3D

 45 47  0  0  0  0  0  0  0  0999 V2000
    5.0052    1.7429   16.9607 H   0  0  0  0  0  0  0  0  0  0  0  0
    5.4808    1.2601   17.8099 C   0  0  0  0  0  0  0  0  0  0  0  0
    6.6515    0.6501   17.5720 N   0  0  0  0  0  0  0  0  0  0  0  0
    7.2622    0.0506   18.6057 C   0  0  0  0  0  0  0  0  0  0  0  0
    8.2029   -0.4364   18.3678 H   0  0  0  0  0  0  0  0  0  0  0  0
    6.7571    0.0024   19.9411 C   0  0  0  0  0  0  0  0  0  0  0  0
    7.4163   -0.6453   20.9724 N   0  0  0  0  0  0  0  0  0  0  0  0
    6.8192   -0.8562   22.2885 C   0  0  0  0  0  0  0  0  0  0  0  0
    5.8910   -1.4307   22.1860 H   0  0  0  0  0  0  0  0  0  0  0  0
    6.5845    0.0925   22.8040 H   0  0  0  0  0  0  0  0  0  0  0  0
    7.8450   -1.6597   23.0612 C   0  0  1  0  0  0  0  0  0  0  0  0
    7.4741   -2.4637   23.6850 H   0  0  0  0  0  0  0  0  0  0  0  0
    9.0386   -1.8584   22.1828 C   0  0  1  0  0  0  0  0  0  0  0  0
    9.5341   -2.8249   22.1562 H   0  0  0  0  0  0  0  0  0  0  0  0
    8.7766   -1.1662   20.8602 C   0  0  0  0  0  0  0  0  0  0  0  0
    8.8667   -1.8779   20.0344 H   0  0  0  0  0  0  0  0  0  0  0  0
    9.4981   -0.3586   20.6579 H   0  0  0  0  0  0  0  0  0  0  0  0
    9.1484   -0.9820   23.4119 C   0  0  1  0  0  0  0  0  0  0  0  0
    9.7164   -1.4168   24.2338 H   0  0  0  0  0  0  0  0  0  0  0  0
    9.3347    0.5217   23.2852 C   0  0  0  0  0  0  0  0  0  0  0  0
    9.0769    1.0103   24.2376 H   0  0  0  0  0  0  0  0  0  0  0  0
    8.6429    0.9341   22.5367 H   0  0  0  0  0  0  0  0  0  0  0  0
   10.7733    0.8574   22.8744 C   0  0  0  0  0  0  0  0  0  0  0  0
   11.4562    0.6295   23.7120 H   0  0  0  0  0  0  0  0  0  0  0  0
   11.0688    0.1736   22.0588 H   0  0  0  0  0  0  0  0  0  0  0  0
   10.9698    2.3032   22.3870 C   0  0  0  0  0  0  0  0  0  0  0  0
   10.7079    3.0159   23.1853 H   0  0  0  0  0  0  0  0  0  0  0  0
   10.2636    2.4990   21.5633 H   0  0  0  0  0  0  0  0  0  0  0  0
   12.4057    2.5386   21.8923 C   0  0  0  0  0  0  0  0  0  0  0  0
   12.7143    1.6166   21.3810 H   0  0  0  0  0  0  0  0  0  0  0  0
   12.4273    3.3214   21.1200 H   0  0  0  0  0  0  0  0  0  0  0  0
   13.4167    2.8772   23.0080 C   0  0  0  0  0  0  0  0  0  0  0  0
   13.0933    2.3931   23.9434 H   0  0  0  0  0  0  0  0  0  0  0  0
   14.3811    2.4080   22.7707 H   0  0  0  0  0  0  0  0  0  0  0  0
   13.6421    4.3799   23.2659 C   0  0  0  0  0  0  0  0  0  0  0  0
   13.9660    4.8605   22.3279 H   0  0  0  0  0  0  0  0  0  0  0  0
   14.4940    4.4859   23.9490 H   0  0  0  0  0  0  0  0  0  0  0  0
   12.4313    5.1466   23.8208 C   0  0  0  0  0  0  0  0  0  0  0  0
   11.9174    4.5959   24.6238 H   0  0  0  0  0  0  0  0  0  0  0  0
   11.6916    5.3366   23.0338 H   0  0  0  0  0  0  0  0  0  0  0  0
   12.7306    6.1271   24.2137 H   0  0  0  0  0  0  0  0  0  0  0  0
    5.5172    0.6511   20.1493 C   0  0  0  0  0  0  0  0  0  0  0  0
    5.0669    0.6552   21.1398 H   0  0  0  0  0  0  0  0  0  0  0  0
    4.8819    1.2820   19.0745 C   0  0  0  0  0  0  0  0  0  0  0  0
    3.9332    1.7909   19.2116 H   0  0  0  0  0  0  0  0  0  0  0  0
  1  2  1  0
  2  3  2  0
  3  4  1  0
  4  5  1  0
  4  6  2  0
  6  7  1  0
  7  8  1  0
  8  9  1  0
  8 10  1  0
  8 11  1  0
 11 12  1  1
 11 13  1  0
 13 14  1  6
 13 15  1  0
 15 16  1  0
 15 17  1  0
 13 18  1  0
 18 19  1  1
 18 20  1  0
 20 21  1  0
 20 22  1  0
 20 23  1  0
 23 24  1  0
 23 25  1  0
 23 26  1  0
 26 27  1  0
 26 28  1  0
 26 29  1  0
 29 30  1  0
 29 31  1  0
 29 32  1  0
 32 33  1  0
 32 34  1  0
 32 35  1  0
 35 36  1  0
 35 37  1  0
 35 38  1  0
 38 39  1  0
 38 40  1  0
 38 41  1  0
  6 42  1  0
 42 43  1  0
 42 44  2  0
 44 45  1  0
 44  2  1  0
 15  7  1  0
 18 11  1  0
M  END
>  <cnnaffinity>  (1) 
-5.46091

>  <filename>  (1) 
CCCCCCC[C@H]1[C@H]2CN(c3cccnc3)C[C@@H]12

$$$$
