
     RDKit          3D

 44 46  0  0  0  0  0  0  0  0999 V2000
    4.9929    1.7773   16.9843 H   0  0  0  0  0  0  0  0  0  0  0  0
    5.4428    1.2758   17.8376 C   0  0  0  0  0  0  0  0  0  0  0  0
    6.6047    0.6401   17.6223 N   0  0  0  0  0  0  0  0  0  0  0  0
    7.1747    0.0277   18.6633 C   0  0  0  0  0  0  0  0  0  0  0  0
    8.1178   -0.4820   18.4754 H   0  0  0  0  0  0  0  0  0  0  0  0
    6.6208    0.0150   19.9537 C   0  0  0  0  0  0  0  0  0  0  0  0
    7.3605   -0.6846   21.0054 C   0  0  0  0  0  0  0  0  0  0  0  0
    8.5588   -1.2951   20.7631 N   0  0  0  0  0  0  0  0  0  0  0  0
    8.8490   -1.7857   21.9521 C   0  0  0  0  0  0  0  0  0  0  0  0
   10.1045   -2.7158   22.7217 S   0  0  0  0  0  0  0  0  0  0  0  0
    9.2103   -2.6735   24.2331 C   0  0  0  0  0  0  0  0  0  0  0  0
    9.6283   -3.1422   25.1162 H   0  0  0  0  0  0  0  0  0  0  0  0
    8.0497   -1.9938   24.1365 C   0  0  0  0  0  0  0  0  0  0  0  0
    7.0204   -1.6659   25.1734 C   0  0  0  0  0  0  0  0  0  0  0  0
    7.1609   -2.3336   26.0325 H   0  0  0  0  0  0  0  0  0  0  0  0
    6.0297   -1.8723   24.7480 H   0  0  0  0  0  0  0  0  0  0  0  0
    7.0768   -0.1955   25.6166 C   0  0  0  0  0  0  0  0  0  0  0  0
    6.8936    0.4174   24.7234 H   0  0  0  0  0  0  0  0  0  0  0  0
    6.2406   -0.0026   26.3021 H   0  0  0  0  0  0  0  0  0  0  0  0
    8.3952    0.2345   26.2742 C   0  0  0  0  0  0  0  0  0  0  0  0
    9.2343   -0.0634   25.6328 H   0  0  0  0  0  0  0  0  0  0  0  0
    8.5468   -0.3144   27.2171 H   0  0  0  0  0  0  0  0  0  0  0  0
    8.4624    1.7503   26.4981 C   0  0  0  0  0  0  0  0  0  0  0  0
    8.1492    2.2359   25.5601 H   0  0  0  0  0  0  0  0  0  0  0  0
    9.4983    2.0690   26.6342 H   0  0  0  0  0  0  0  0  0  0  0  0
    7.5771    2.3091   27.6244 C   0  0  0  0  0  0  0  0  0  0  0  0
    6.5357    2.3017   27.2699 H   0  0  0  0  0  0  0  0  0  0  0  0
    7.8598    3.3597   27.7582 H   0  0  0  0  0  0  0  0  0  0  0  0
    7.5916    1.6075   28.9939 C   0  0  0  0  0  0  0  0  0  0  0  0
    8.5934    1.5807   29.4469 H   0  0  0  0  0  0  0  0  0  0  0  0
    7.2974    0.5593   28.8602 H   0  0  0  0  0  0  0  0  0  0  0  0
    6.6223    2.2435   30.0031 C   0  0  0  0  0  0  0  0  0  0  0  0
    6.4986    1.5620   30.8570 H   0  0  0  0  0  0  0  0  0  0  0  0
    5.6313    2.3311   29.5362 H   0  0  0  0  0  0  0  0  0  0  0  0
    7.0562    3.6116   30.5341 C   0  0  0  0  0  0  0  0  0  0  0  0
    7.1113    4.3639   29.7371 H   0  0  0  0  0  0  0  0  0  0  0  0
    6.3476    3.9768   31.2880 H   0  0  0  0  0  0  0  0  0  0  0  0
    8.0450    3.5431   31.0039 H   0  0  0  0  0  0  0  0  0  0  0  0
    7.8883   -1.4941   22.8441 N   0  0  0  0  0  0  0  0  0  0  0  0
    6.9084   -0.7735   22.2490 N   0  0  0  0  0  0  0  0  0  0  0  0
    5.3992    0.6719   20.1679 C   0  0  0  0  0  0  0  0  0  0  0  0
    4.9354    0.6877   21.1597 H   0  0  0  0  0  0  0  0  0  0  0  0
    4.8056    1.3116   19.0863 C   0  0  0  0  0  0  0  0  0  0  0  0
    3.8712    1.8481   19.1951 H   0  0  0  0  0  0  0  0  0  0  0  0
  1  2  1  0
  2  3  2  0
  3  4  1  0
  4  5  1  0
  4  6  2  0
  6  7  1  0
  7  8  1  0
  8  9  2  0
  9 10  1  0
 10 11  1  0
 11 12  1  0
 11 13  2  0
 13 14  1  0
 14 15  1  0
 14 16  1  0
 14 17  1  0
 17 18  1  0
 17 19  1  0
 17 20  1  0
 20 21  1  0
 20 22  1  0
 20 23  1  0
 23 24  1  0
 23 25  1  0
 23 26  1  0
 26 27  1  0
 26 28  1  0
 26 29  1  0
 29 30  1  0
 29 31  1  0
 29 32  1  0
 32 33  1  0
 32 34  1  0
 32 35  1  0
 35 36  1  0
 35 37  1  0
 35 38  1  0
 13 39  1  0
 39 40  1  0
  6 41  1  0
 41 42  1  0
 41 43  2  0
 43 44  1  0
 43  2  1  0
 40  7  2  0
 39  9  1  0
M  END
>  <cnnaffinity>  (1) 
-5.86765

>  <filename>  (1) 
CCCCCCCCc1csc2nc(-c3cccnc3)nn12

$$$$
