
     RDKit          3D

 38 40  0  0  0  0  0  0  0  0999 V2000
    4.9348    1.8216   16.9791 H   0  0  0  0  0  0  0  0  0  0  0  0
    5.3974    1.3033   17.8168 C   0  0  0  0  0  0  0  0  0  0  0  0
    6.5556    0.6728   17.5578 N   0  0  0  0  0  0  0  0  0  0  0  0
    7.1553    0.0298   18.5629 C   0  0  0  0  0  0  0  0  0  0  0  0
    8.1054   -0.4470   18.3207 H   0  0  0  0  0  0  0  0  0  0  0  0
    6.6367   -0.0173   19.8674 C   0  0  0  0  0  0  0  0  0  0  0  0
    7.3475   -0.6927   20.9566 C   0  0  0  0  0  0  0  0  0  0  0  0
    8.0388   -1.8176   20.7637 N   0  0  0  0  0  0  0  0  0  0  0  0
    8.4885   -2.1166   21.9773 N   0  0  0  0  0  0  0  0  0  0  0  0
    8.1820   -1.2556   22.9540 C   0  0  0  0  0  0  0  0  0  0  0  0
    7.4349   -0.2803   22.3339 C   0  0  0  0  0  0  0  0  0  0  0  0
    6.9155    0.8076   22.9511 O   0  0  0  0  0  0  0  0  0  0  0  0
    7.4172    2.0693   22.5050 C   0  0  0  0  0  0  0  0  0  0  0  0
    8.5041    2.1093   22.6728 H   0  0  0  0  0  0  0  0  0  0  0  0
    7.2439    2.1631   21.4235 H   0  0  0  0  0  0  0  0  0  0  0  0
    6.6840    3.1317   23.3011 C   0  0  0  0  0  0  0  0  0  0  0  0
    7.1155    4.1088   23.0403 H   0  0  0  0  0  0  0  0  0  0  0  0
    6.8898    2.9538   24.3686 H   0  0  0  0  0  0  0  0  0  0  0  0
    5.1688    3.1250   23.0548 C   0  0  0  0  0  0  0  0  0  0  0  0
    4.7661    2.1352   23.3186 H   0  0  0  0  0  0  0  0  0  0  0  0
    4.9795    3.2486   21.9750 H   0  0  0  0  0  0  0  0  0  0  0  0
    4.4414    4.2127   23.8473 C   0  0  0  0  0  0  0  0  0  0  0  0
    4.8091    5.2124   23.5837 H   0  0  0  0  0  0  0  0  0  0  0  0
    3.3621    4.1994   23.6602 H   0  0  0  0  0  0  0  0  0  0  0  0
    4.5896    4.0843   24.9270 H   0  0  0  0  0  0  0  0  0  0  0  0
    8.9245   -1.5714   24.2202 C   0  0  0  0  0  0  0  0  0  0  0  0
    9.5510   -0.7160   24.5108 H   0  0  0  0  0  0  0  0  0  0  0  0
    8.2437   -1.7668   25.0584 H   0  0  0  0  0  0  0  0  0  0  0  0
    9.7583   -2.8289   23.8195 C   0  0  0  0  0  0  0  0  0  0  0  0
    9.4835   -3.7012   24.4138 H   0  0  0  0  0  0  0  0  0  0  0  0
   10.8244   -2.6546   23.9613 H   0  0  0  0  0  0  0  0  0  0  0  0
    9.4657   -3.1090   22.3183 C   0  0  0  0  0  0  0  0  0  0  0  0
   10.3460   -2.9448   21.6884 H   0  0  0  0  0  0  0  0  0  0  0  0
    9.0435   -4.1027   22.1442 H   0  0  0  0  0  0  0  0  0  0  0  0
    5.4274    0.6470   20.1210 C   0  0  0  0  0  0  0  0  0  0  0  0
    5.0280    0.6583   21.1356 H   0  0  0  0  0  0  0  0  0  0  0  0
    4.7930    1.3129   19.0776 C   0  0  0  0  0  0  0  0  0  0  0  0
    3.8658    1.8586   19.2363 H   0  0  0  0  0  0  0  0  0  0  0  0
  1  2  1  0
  2  3  2  0
  3  4  1  0
  4  5  1  0
  4  6  2  0
  6  7  1  0
  7  8  2  0
  8  9  1  0
  9 10  1  0
 10 11  2  0
 11 12  1  0
 12 13  1  0
 13 14  1  0
 13 15  1  0
 13 16  1  0
 16 17  1  0
 16 18  1  0
 16 19  1  0
 19 20  1  0
 19 21  1  0
 19 22  1  0
 22 23  1  0
 22 24  1  0
 22 25  1  0
 10 26  1  0
 26 27  1  0
 26 28  1  0
 26 29  1  0
 29 30  1  0
 29 31  1  0
 29 32  1  0
 32 33  1  0
 32 34  1  0
  6 35  1  0
 35 36  1  0
 35 37  2  0
 37 38  1  0
 37  2  1  0
 11  7  1  0
 32  9  1  0
M  END
>  <cnnaffinity>  (1) 
-5.22148

>  <filename>  (1) 
CCCCOc1c(-c2cccnc2)nn2c1CCC2

$$$$
