
     RDKit          3D

 43 44  0  0  0  0  0  0  0  0999 V2000
    2.8597   -7.5370   27.8526 C   0  0  0  0  0  0  0  0  0  0  0  0
    4.1800   -7.1800   28.5401 C   0  0  0  0  0  0  0  0  0  0  0  0
    5.0617   -6.2201   27.7237 C   0  0  0  0  0  0  0  0  0  0  0  0
    5.5808   -6.8341   26.4214 C   0  0  0  0  0  0  0  0  0  0  0  0
    6.5029   -5.9941   25.7520 O   0  0  0  0  0  0  0  0  0  0  0  0
    5.9657   -5.1927   24.7188 C   0  0  0  0  0  0  0  0  0  0  0  0
    7.0462   -4.2288   24.2622 C   0  0  0  0  0  0  0  0  0  0  0  0
    6.6057   -3.4338   23.1313 N   0  0  0  0  0  0  0  0  0  0  0  0
    7.3120   -2.4369   22.5916 C   0  0  0  0  0  0  0  0  0  0  0  0
    8.5576   -2.2309   23.0027 N   0  0  0  0  0  0  0  0  0  0  0  0
    9.1662   -1.2222   22.3922 C   0  0  0  0  0  0  0  0  0  0  0  0
    8.5962   -0.4508   21.3877 C   0  0  0  0  0  0  0  0  0  0  0  0
    9.3438    0.6859   20.7624 C   0  0  0  0  0  0  0  0  0  0  0  0
   10.2371    0.9226   21.3453 H   0  0  0  0  0  0  0  0  0  0  0  0
    8.7084    1.5715   20.6737 H   0  0  0  0  0  0  0  0  0  0  0  0
    9.6378    0.4137   19.7492 H   0  0  0  0  0  0  0  0  0  0  0  0
    7.2735   -0.8127   21.0467 C   0  0  0  0  0  0  0  0  0  0  0  0
    6.5450   -0.1055   19.9848 C   0  0  0  0  0  0  0  0  0  0  0  0
    5.3336    0.5655   20.1878 C   0  0  0  0  0  0  0  0  0  0  0  0
    4.7881    1.2762   19.1187 C   0  0  0  0  0  0  0  0  0  0  0  0
    5.4467    1.2591   17.8838 C   0  0  0  0  0  0  0  0  0  0  0  0
    6.5840    0.5839   17.6701 N   0  0  0  0  0  0  0  0  0  0  0  0
    7.1106   -0.0750   18.7073 C   0  0  0  0  0  0  0  0  0  0  0  0
    8.0577   -0.5789   18.5106 H   0  0  0  0  0  0  0  0  0  0  0  0
    5.0452    1.8085   17.0345 H   0  0  0  0  0  0  0  0  0  0  0  0
    3.8889    1.8689   19.2314 H   0  0  0  0  0  0  0  0  0  0  0  0
    4.8578    0.5675   21.1708 H   0  0  0  0  0  0  0  0  0  0  0  0
    6.6161   -1.7772   21.6665 N   0  0  0  0  0  0  0  0  0  0  0  0
   10.1846   -0.9876   22.7237 H   0  0  0  0  0  0  0  0  0  0  0  0
    5.6597   -3.2757   22.8275 H   0  0  0  0  0  0  0  0  0  0  0  0
    7.3489   -3.5963   25.1082 H   0  0  0  0  0  0  0  0  0  0  0  0
    7.9344   -4.7962   23.9644 H   0  0  0  0  0  0  0  0  0  0  0  0
    5.6529   -5.8143   23.8627 H   0  0  0  0  0  0  0  0  0  0  0  0
    5.0942   -4.6172   25.0772 H   0  0  0  0  0  0  0  0  0  0  0  0
    6.1212   -7.7439   26.6756 H   0  0  0  0  0  0  0  0  0  0  0  0
    4.7482   -7.1432   25.7652 H   0  0  0  0  0  0  0  0  0  0  0  0
    5.9285   -5.9174   28.3238 H   0  0  0  0  0  0  0  0  0  0  0  0
    4.5027   -5.3002   27.5028 H   0  0  0  0  0  0  0  0  0  0  0  0
    4.7446   -8.1017   28.7462 H   0  0  0  0  0  0  0  0  0  0  0  0
    3.9683   -6.7303   29.5207 H   0  0  0  0  0  0  0  0  0  0  0  0
    2.2907   -6.6333   27.6041 H   0  0  0  0  0  0  0  0  0  0  0  0
    3.0262   -8.0920   26.9222 H   0  0  0  0  0  0  0  0  0  0  0  0
    2.2300   -8.1618   28.4953 H   0  0  0  0  0  0  0  0  0  0  0  0
  1  2  1  0
  2  3  1  0
  3  4  1  0
  4  5  1  0
  5  6  1  0
  6  7  1  0
  7  8  1  0
  8  9  1  0
  9 10  2  0
 10 11  1  0
 11 12  2  0
 12 13  1  0
 13 14  1  0
 13 15  1  0
 13 16  1  0
 12 17  1  0
 17 18  1  0
 18 19  2  0
 19 20  1  0
 20 21  2  0
 21 22  1  0
 22 23  2  0
 23 24  1  0
 21 25  1  0
 20 26  1  0
 19 27  1  0
 17 28  2  0
 11 29  1  0
  8 30  1  0
  7 31  1  0
  7 32  1  0
  6 33  1  0
  6 34  1  0
  4 35  1  0
  4 36  1  0
  3 37  1  0
  3 38  1  0
  2 39  1  0
  2 40  1  0
  1 41  1  0
  1 42  1  0
  1 43  1  0
 28  9  1  0
 23 18  1  0
M  END
>  <cnnaffinity>  (1) 
-5.07478

>  <filename>  (1) 
CCCCOCCNc1ncc(C)c(-c2cccnc2)n1

$$$$
