
     RDKit          3D

 36 38  0  0  0  0  0  0  0  0999 V2000
    4.9931    1.8469   16.9015 H   0  0  0  0  0  0  0  0  0  0  0  0
    5.4258    1.2947   17.7364 C   0  0  0  0  0  0  0  0  0  0  0  0
    6.5719    0.6415   17.4925 N   0  0  0  0  0  0  0  0  0  0  0  0
    7.1515   -0.0021   18.5128 C   0  0  0  0  0  0  0  0  0  0  0  0
    8.0839   -0.5176   18.2906 H   0  0  0  0  0  0  0  0  0  0  0  0
    6.6246   -0.0339   19.8182 C   0  0  0  0  0  0  0  0  0  0  0  0
    7.3700   -0.6583   20.9254 C   0  0  0  0  0  0  0  0  0  0  0  0
    8.4906   -1.3678   20.7197 N   0  0  0  0  0  0  0  0  0  0  0  0
    8.8951   -1.6475   21.9797 N   0  0  0  0  0  0  0  0  0  0  0  0
    9.9767   -2.3141   22.5334 C   0  0  0  0  0  0  0  0  0  0  0  0
   10.7177   -2.7731   21.9052 H   0  0  0  0  0  0  0  0  0  0  0  0
    9.8676   -2.1572   23.8737 C   0  0  0  0  0  0  0  0  0  0  0  0
   10.5005   -2.4958   24.6820 H   0  0  0  0  0  0  0  0  0  0  0  0
    8.7385   -1.4038   24.1469 N   0  0  0  0  0  0  0  0  0  0  0  0
    8.4696   -0.8762   25.4216 N   0  0  0  0  0  0  0  0  0  0  0  0
    8.8566   -1.5306   26.0954 H   0  0  0  0  0  0  0  0  0  0  0  0
    7.0435   -0.6672   25.7090 C   0  0  0  0  0  0  0  0  0  0  0  0
    6.6820    0.1454   25.0633 H   0  0  0  0  0  0  0  0  0  0  0  0
    6.9922   -0.2766   26.7335 H   0  0  0  0  0  0  0  0  0  0  0  0
    6.1374   -1.8918   25.5556 C   0  0  0  0  0  0  0  0  0  0  0  0
    6.1555   -2.2029   24.4990 H   0  0  0  0  0  0  0  0  0  0  0  0
    5.1209   -1.5345   25.7705 H   0  0  0  0  0  0  0  0  0  0  0  0
    6.4650   -3.0757   26.4758 C   0  0  0  0  0  0  0  0  0  0  0  0
    6.4720   -2.7288   27.5228 H   0  0  0  0  0  0  0  0  0  0  0  0
    7.4802   -3.4490   26.2593 H   0  0  0  0  0  0  0  0  0  0  0  0
    5.4750   -4.2421   26.3532 C   0  0  0  0  0  0  0  0  0  0  0  0
    5.4423   -4.6548   25.3354 H   0  0  0  0  0  0  0  0  0  0  0  0
    5.7703   -5.0542   27.0277 H   0  0  0  0  0  0  0  0  0  0  0  0
    4.4534   -3.9401   26.6227 H   0  0  0  0  0  0  0  0  0  0  0  0
    8.1264   -1.1105   22.9488 C   0  0  0  0  0  0  0  0  0  0  0  0
    7.0607   -0.4948   22.2974 C   0  0  0  0  0  0  0  0  0  0  0  0
    6.1795   -0.0415   22.7050 H   0  0  0  0  0  0  0  0  0  0  0  0
    5.4029    0.6225   20.0435 C   0  0  0  0  0  0  0  0  0  0  0  0
    4.9336    0.6230   21.0307 H   0  0  0  0  0  0  0  0  0  0  0  0
    4.7998    1.2982   18.9873 C   0  0  0  0  0  0  0  0  0  0  0  0
    3.8812    1.8544   19.1316 H   0  0  0  0  0  0  0  0  0  0  0  0
  1  2  1  0
  2  3  2  0
  3  4  1  0
  4  5  1  0
  4  6  2  0
  6  7  1  0
  7  8  2  0
  8  9  1  0
  9 10  1  0
 10 11  1  0
 10 12  2  0
 12 13  1  0
 12 14  1  0
 14 15  1  0
 15 16  1  0
 15 17  1  0
 17 18  1  0
 17 19  1  0
 17 20  1  0
 20 21  1  0
 20 22  1  0
 20 23  1  0
 23 24  1  0
 23 25  1  0
 23 26  1  0
 26 27  1  0
 26 28  1  0
 26 29  1  0
 14 30  1  0
 30 31  2  0
 31 32  1  0
  6 33  1  0
 33 34  1  0
 33 35  2  0
 35 36  1  0
 35  2  1  0
 31  7  1  0
 30  9  1  0
M  END
>  <cnnaffinity>  (1) 
-5.27137

>  <filename>  (1) 
CCCCNn1ccn2nc(-c3cccnc3)cc12

$$$$
