
     RDKit          3D

 37 38  0  0  0  0  0  0  0  0999 V2000
    5.0964    1.7973   16.9826 H   0  0  0  0  0  0  0  0  0  0  0  0
    5.5439    1.2755   17.8282 C   0  0  0  0  0  0  0  0  0  0  0  0
    6.6838    0.6136   17.5799 N   0  0  0  0  0  0  0  0  0  0  0  0
    7.2637   -0.0334   18.5972 C   0  0  0  0  0  0  0  0  0  0  0  0
    8.1993   -0.5354   18.3542 H   0  0  0  0  0  0  0  0  0  0  0  0
    6.7459   -0.0736   19.9099 C   0  0  0  0  0  0  0  0  0  0  0  0
    7.3865   -0.8623   20.9835 C   0  0  0  0  0  0  0  0  0  0  0  0
    7.6001   -0.6018   22.3274 C   0  0  0  0  0  0  0  0  0  0  0  0
    7.4319    0.7407   22.9935 C   0  0  0  0  0  0  0  0  0  0  0  0
    6.4164    1.1179   22.8743 H   0  0  0  0  0  0  0  0  0  0  0  0
    7.5995    0.6542   24.0739 H   0  0  0  0  0  0  0  0  0  0  0  0
    8.3331    1.8663   22.4629 C   0  0  0  0  0  0  0  0  0  0  0  0
    7.8830    2.8899   21.9839 O   0  0  0  0  0  0  0  0  0  0  0  0
    9.6726    1.6470   22.6197 N   0  0  0  0  0  0  0  0  0  0  0  0
    9.9135    0.8004   23.1007 H   0  0  0  0  0  0  0  0  0  0  0  0
   10.6731    2.7108   22.5028 C   0  0  0  0  0  0  0  0  0  0  0  0
   10.6683    3.0738   21.4688 H   0  0  0  0  0  0  0  0  0  0  0  0
   11.6693    2.2785   22.6750 H   0  0  0  0  0  0  0  0  0  0  0  0
   10.3900    3.8869   23.4618 C   0  0  0  0  0  0  0  0  0  0  0  0
    9.3021    4.0173   23.4538 H   0  0  0  0  0  0  0  0  0  0  0  0
   10.6405    3.5982   24.4912 H   0  0  0  0  0  0  0  0  0  0  0  0
   11.0332    5.2344   23.0758 C   0  0  0  0  0  0  0  0  0  0  0  0
   12.0445    5.3451   23.5037 H   0  0  0  0  0  0  0  0  0  0  0  0
   11.1736    5.2681   21.9874 H   0  0  0  0  0  0  0  0  0  0  0  0
   10.1222    6.4181   23.4401 C   0  0  0  0  0  0  0  0  0  0  0  0
    9.1340    6.2883   22.9735 H   0  0  0  0  0  0  0  0  0  0  0  0
   10.5236    7.3436   23.0333 H   0  0  0  0  0  0  0  0  0  0  0  0
    9.9643    6.5399   24.5220 H   0  0  0  0  0  0  0  0  0  0  0  0
    8.1148   -1.8089   22.8564 C   0  0  0  0  0  0  0  0  0  0  0  0
    8.3980   -2.0366   23.8819 H   0  0  0  0  0  0  0  0  0  0  0  0
    8.2493   -2.7409   21.9160 N   0  0  0  0  0  0  0  0  0  0  0  0
    7.8179   -2.1361   20.7991 N   0  0  0  0  0  0  0  0  0  0  0  0
    7.7564   -2.6463   19.9306 H   0  0  0  0  0  0  0  0  0  0  0  0
    5.5571    0.6331   20.1449 C   0  0  0  0  0  0  0  0  0  0  0  0
    5.1159    0.6258   21.1431 H   0  0  0  0  0  0  0  0  0  0  0  0
    4.9445    1.3134   19.0925 C   0  0  0  0  0  0  0  0  0  0  0  0
    4.0308    1.8768   19.2354 H   0  0  0  0  0  0  0  0  0  0  0  0
  1  2  1  0
  2  3  2  0
  3  4  1  0
  4  5  1  0
  4  6  2  0
  6  7  1  0
  7  8  2  0
  8  9  1  0
  9 10  1  0
  9 11  1  0
  9 12  1  0
 12 13  2  0
 12 14  1  0
 14 15  1  0
 14 16  1  0
 16 17  1  0
 16 18  1  0
 16 19  1  0
 19 20  1  0
 19 21  1  0
 19 22  1  0
 22 23  1  0
 22 24  1  0
 22 25  1  0
 25 26  1  0
 25 27  1  0
 25 28  1  0
  8 29  1  0
 29 30  1  0
 29 31  2  0
 31 32  1  0
 32 33  1  0
  6 34  1  0
 34 35  1  0
 34 36  2  0
 36 37  1  0
 36  2  1  0
 32  7  1  0
M  END
>  <cnnaffinity>  (1) 
-4.86701

>  <filename>  (1) 
CCCCNC(=O)Cc1cn[nH]c1-c1cccnc1

$$$$
