
     RDKit          3D

 35 36  0  0  0  0  0  0  0  0999 V2000
    4.9945    1.8181   16.9560 H   0  0  0  0  0  0  0  0  0  0  0  0
    5.4409    1.3043   17.8026 C   0  0  0  0  0  0  0  0  0  0  0  0
    6.5953    0.6566   17.5667 N   0  0  0  0  0  0  0  0  0  0  0  0
    7.1687    0.0074   18.5815 C   0  0  0  0  0  0  0  0  0  0  0  0
    8.0959   -0.5245   18.3785 H   0  0  0  0  0  0  0  0  0  0  0  0
    6.6315   -0.0051   19.8839 C   0  0  0  0  0  0  0  0  0  0  0  0
    7.3273   -0.6814   20.9282 N   0  0  0  0  0  0  0  0  0  0  0  0
    7.9166   -1.8803   20.7352 N   0  0  0  0  0  0  0  0  0  0  0  0
    8.4798   -2.2046   21.8390 N   0  0  0  0  0  0  0  0  0  0  0  0
    8.3000   -1.2438   22.7760 N   0  0  0  0  0  0  0  0  0  0  0  0
    7.5875   -0.3069   22.2117 C   0  0  0  0  0  0  0  0  0  0  0  0
    7.1384    0.9527   22.8612 C   0  0  0  0  0  0  0  0  0  0  0  0
    6.9843    1.7418   22.1188 H   0  0  0  0  0  0  0  0  0  0  0  0
    6.2096    0.7864   23.4083 H   0  0  0  0  0  0  0  0  0  0  0  0
    8.1870    1.4022   23.8630 C   0  0  0  0  0  0  0  0  0  0  0  0
    8.0606    1.3126   25.0632 O   0  0  0  0  0  0  0  0  0  0  0  0
    9.2772    1.9133   23.2479 N   0  0  0  0  0  0  0  0  0  0  0  0
    9.2880    1.8588   22.2480 H   0  0  0  0  0  0  0  0  0  0  0  0
   10.4394    2.4915   23.8959 C   0  0  0  0  0  0  0  0  0  0  0  0
   10.1222    3.2600   24.6126 H   0  0  0  0  0  0  0  0  0  0  0  0
   10.9852    1.7326   24.4757 H   0  0  0  0  0  0  0  0  0  0  0  0
   11.3539    3.0567   22.8058 C   0  0  0  0  0  0  0  0  0  0  0  0
   10.8151    3.8365   22.2452 H   0  0  0  0  0  0  0  0  0  0  0  0
   11.5586    2.2526   22.0869 H   0  0  0  0  0  0  0  0  0  0  0  0
   12.6906    3.6145   23.3007 C   0  0  0  0  0  0  0  0  0  0  0  0
   13.1943    2.8525   23.9140 H   0  0  0  0  0  0  0  0  0  0  0  0
   13.3509    3.7743   22.4372 H   0  0  0  0  0  0  0  0  0  0  0  0
   12.5516    4.9317   24.0604 C   0  0  0  0  0  0  0  0  0  0  0  0
   12.1827    5.7195   23.3956 H   0  0  0  0  0  0  0  0  0  0  0  0
   13.5091    5.2612   24.4702 H   0  0  0  0  0  0  0  0  0  0  0  0
   11.8362    4.8770   24.8879 H   0  0  0  0  0  0  0  0  0  0  0  0
    5.4239    0.6547   20.1224 C   0  0  0  0  0  0  0  0  0  0  0  0
    4.9680    0.6457   21.1135 H   0  0  0  0  0  0  0  0  0  0  0  0
    4.8165    1.3183   19.0541 C   0  0  0  0  0  0  0  0  0  0  0  0
    3.8812    1.8472   19.1852 H   0  0  0  0  0  0  0  0  0  0  0  0
  1  2  1  0
  2  3  2  0
  3  4  1  0
  4  5  1  0
  4  6  2  0
  6  7  1  0
  7  8  1  0
  8  9  2  0
  9 10  1  0
 10 11  2  0
 11 12  1  0
 12 13  1  0
 12 14  1  0
 12 15  1  0
 15 16  2  0
 15 17  1  0
 17 18  1  0
 17 19  1  0
 19 20  1  0
 19 21  1  0
 19 22  1  0
 22 23  1  0
 22 24  1  0
 22 25  1  0
 25 26  1  0
 25 27  1  0
 25 28  1  0
 28 29  1  0
 28 30  1  0
 28 31  1  0
  6 32  1  0
 32 33  1  0
 32 34  2  0
 34 35  1  0
 34  2  1  0
 11  7  1  0
M  END
>  <cnnaffinity>  (1) 
-5.18222

>  <filename>  (1) 
CCCCNC(=O)Cc1nnnn1-c1cccnc1

$$$$
