
     RDKit          3D

 42 43  0  0  0  0  0  0  0  0999 V2000
    4.9928    1.9119   16.8131 H   0  0  0  0  0  0  0  0  0  0  0  0
    5.4416    1.3906   17.6553 C   0  0  0  0  0  0  0  0  0  0  0  0
    6.5975    0.7537   17.4062 N   0  0  0  0  0  0  0  0  0  0  0  0
    7.1756    0.1153   18.4276 C   0  0  0  0  0  0  0  0  0  0  0  0
    8.1246   -0.3665   18.1881 H   0  0  0  0  0  0  0  0  0  0  0  0
    6.6514    0.0468   19.7346 C   0  0  0  0  0  0  0  0  0  0  0  0
    7.3646   -0.6917   20.7931 C   0  0  0  0  0  0  0  0  0  0  0  0
    6.7535   -0.7636   22.4163 S   0  0  0  0  0  0  0  0  0  0  0  0
    8.0857   -1.7184   22.9620 C   0  0  0  0  0  0  0  0  0  0  0  0
    8.3000   -2.0516   24.4102 C   0  0  0  0  0  0  0  0  0  0  0  0
    7.4134   -1.7943   25.0018 H   0  0  0  0  0  0  0  0  0  0  0  0
    8.4334   -3.1375   24.5152 H   0  0  0  0  0  0  0  0  0  0  0  0
    9.5394   -1.3348   24.9793 C   0  0  0  0  0  0  0  0  0  0  0  0
    9.6830   -1.6399   26.0217 H   0  0  0  0  0  0  0  0  0  0  0  0
   10.4229   -1.6917   24.4311 H   0  0  0  0  0  0  0  0  0  0  0  0
    9.5140    0.1987   24.8667 C   0  0  0  0  0  0  0  0  0  0  0  0
    9.3390    0.4627   23.8128 H   0  0  0  0  0  0  0  0  0  0  0  0
   10.5204    0.5588   25.1103 H   0  0  0  0  0  0  0  0  0  0  0  0
    8.5085    0.9949   25.7243 C   0  0  0  0  0  0  0  0  0  0  0  0
    8.9487    1.9912   25.8806 H   0  0  0  0  0  0  0  0  0  0  0  0
    7.5775    1.1721   25.1685 H   0  0  0  0  0  0  0  0  0  0  0  0
    8.1457    0.4347   27.1025 C   0  0  0  0  0  0  0  0  0  0  0  0
    7.4647   -0.4254   27.0054 H   0  0  0  0  0  0  0  0  0  0  0  0
    9.0453    0.0460   27.6055 H   0  0  0  0  0  0  0  0  0  0  0  0
    7.4867    1.5055   27.9787 C   0  0  0  0  0  0  0  0  0  0  0  0
    8.1334    2.3934   27.9839 H   0  0  0  0  0  0  0  0  0  0  0  0
    6.5338    1.8328   27.5328 H   0  0  0  0  0  0  0  0  0  0  0  0
    7.2656    1.0731   29.4288 C   0  0  0  0  0  0  0  0  0  0  0  0
    6.7529    0.1021   29.4408 H   0  0  0  0  0  0  0  0  0  0  0  0
    6.5804    1.7852   29.9022 H   0  0  0  0  0  0  0  0  0  0  0  0
    8.5625    1.0341   30.2441 C   0  0  0  0  0  0  0  0  0  0  0  0
    8.3991    0.6800   31.2676 H   0  0  0  0  0  0  0  0  0  0  0  0
    9.3270    0.3908   29.7903 H   0  0  0  0  0  0  0  0  0  0  0  0
    8.9797    2.0462   30.3039 H   0  0  0  0  0  0  0  0  0  0  0  0
    8.9416   -1.9764   21.9267 C   0  0  0  0  0  0  0  0  0  0  0  0
    9.8533   -2.5518   22.0560 H   0  0  0  0  0  0  0  0  0  0  0  0
    8.5357   -1.3906   20.6972 C   0  0  0  0  0  0  0  0  0  0  0  0
    9.1025   -1.4751   19.7761 H   0  0  0  0  0  0  0  0  0  0  0  0
    5.4340    0.7234   19.9688 C   0  0  0  0  0  0  0  0  0  0  0  0
    4.9903    0.7223   20.9643 H   0  0  0  0  0  0  0  0  0  0  0  0
    4.8272    1.4021   18.9117 C   0  0  0  0  0  0  0  0  0  0  0  0
    3.9033    1.9507   19.0556 H   0  0  0  0  0  0  0  0  0  0  0  0
  1  2  1  0
  2  3  2  0
  3  4  1  0
  4  5  1  0
  4  6  2  0
  6  7  1  0
  7  8  1  0
  8  9  1  0
  9 10  1  0
 10 11  1  0
 10 12  1  0
 10 13  1  0
 13 14  1  0
 13 15  1  0
 13 16  1  0
 16 17  1  0
 16 18  1  0
 16 19  1  0
 19 20  1  0
 19 21  1  0
 19 22  1  0
 22 23  1  0
 22 24  1  0
 22 25  1  0
 25 26  1  0
 25 27  1  0
 25 28  1  0
 28 29  1  0
 28 30  1  0
 28 31  1  0
 31 32  1  0
 31 33  1  0
 31 34  1  0
  9 35  2  0
 35 36  1  0
 35 37  1  0
 37 38  1  0
  6 39  1  0
 39 40  1  0
 39 41  2  0
 41 42  1  0
 41  2  1  0
 37  7  2  0
M  END
>  <cnnaffinity>  (1) 
-4.92773

>  <filename>  (1) 
CCCCCCCCc1ccc(-c2cccnc2)s1

$$$$
