
     RDKit          3D

 39 41  0  0  0  0  0  0  0  0999 V2000
    4.9877    1.7727   16.9681 H   0  0  0  0  0  0  0  0  0  0  0  0
    5.4603    1.2770   17.8111 C   0  0  0  0  0  0  0  0  0  0  0  0
    6.6281    0.6628   17.5640 N   0  0  0  0  0  0  0  0  0  0  0  0
    7.2387    0.0507   18.5882 C   0  0  0  0  0  0  0  0  0  0  0  0
    8.1800   -0.4372   18.3506 H   0  0  0  0  0  0  0  0  0  0  0  0
    6.7361   -0.0057   19.9246 C   0  0  0  0  0  0  0  0  0  0  0  0
    7.3983   -0.6599   20.9482 N   0  0  0  0  0  0  0  0  0  0  0  0
    6.8047   -0.8635   22.2653 C   0  0  0  0  0  0  0  0  0  0  0  0
    6.5667    0.0848   22.7770 H   0  0  0  0  0  0  0  0  0  0  0  0
    5.8771   -1.4375   22.1649 H   0  0  0  0  0  0  0  0  0  0  0  0
    7.8279   -1.6662   23.0410 C   0  0  1  0  0  0  0  0  0  0  0  0
    7.4487   -2.4232   23.7164 H   0  0  0  0  0  0  0  0  0  0  0  0
    9.0051   -1.9133   22.1468 C   0  0  1  0  0  0  0  0  0  0  0  0
    9.5006   -2.8783   22.1265 H   0  0  0  0  0  0  0  0  0  0  0  0
    8.7449   -1.2127   20.8244 C   0  0  0  0  0  0  0  0  0  0  0  0
    9.4969   -0.4276   20.6398 H   0  0  0  0  0  0  0  0  0  0  0  0
    8.8092   -1.9055   19.9869 H   0  0  0  0  0  0  0  0  0  0  0  0
    9.1565   -1.0166   23.3523 C   0  0  1  0  0  0  0  0  0  0  0  0
    9.6781   -1.4481   24.2045 H   0  0  0  0  0  0  0  0  0  0  0  0
    9.3546    0.4814   23.2158 C   0  0  0  0  0  0  0  0  0  0  0  0
    8.9248    0.8484   22.2764 H   0  0  0  0  0  0  0  0  0  0  0  0
    8.7764    0.9808   24.0074 H   0  0  0  0  0  0  0  0  0  0  0  0
   10.8146    0.9303   23.3388 C   0  0  0  0  0  0  0  0  0  0  0  0
   11.1816    0.6445   24.3380 H   0  0  0  0  0  0  0  0  0  0  0  0
   10.8265    2.0275   23.3020 H   0  0  0  0  0  0  0  0  0  0  0  0
   11.8180    0.4079   22.2996 C   0  0  0  0  0  0  0  0  0  0  0  0
   11.7708   -0.6923   22.2483 H   0  0  0  0  0  0  0  0  0  0  0  0
   11.5632    0.7765   21.2936 H   0  0  0  0  0  0  0  0  0  0  0  0
   13.2536    0.8615   22.6254 C   0  0  0  0  0  0  0  0  0  0  0  0
   13.9317    0.5441   21.8217 H   0  0  0  0  0  0  0  0  0  0  0  0
   13.6013    0.3490   23.5299 H   0  0  0  0  0  0  0  0  0  0  0  0
   13.3796    2.3743   22.8551 C   0  0  0  0  0  0  0  0  0  0  0  0
   12.8773    2.9396   22.0620 H   0  0  0  0  0  0  0  0  0  0  0  0
   12.9446    2.6785   23.8167 H   0  0  0  0  0  0  0  0  0  0  0  0
   14.4223    2.6923   22.8516 H   0  0  0  0  0  0  0  0  0  0  0  0
    5.4970    0.6452   20.1426 C   0  0  0  0  0  0  0  0  0  0  0  0
    5.0518    0.6436   21.1353 H   0  0  0  0  0  0  0  0  0  0  0  0
    4.8636    1.2882   19.0770 C   0  0  0  0  0  0  0  0  0  0  0  0
    3.9172    1.8032   19.2205 H   0  0  0  0  0  0  0  0  0  0  0  0
  1  2  1  0
  2  3  2  0
  3  4  1  0
  4  5  1  0
  4  6  2  0
  6  7  1  0
  7  8  1  0
  8  9  1  0
  8 10  1  0
  8 11  1  0
 11 12  1  1
 11 13  1  0
 13 14  1  6
 13 15  1  0
 15 16  1  0
 15 17  1  0
 13 18  1  0
 18 19  1  1
 18 20  1  0
 20 21  1  0
 20 22  1  0
 20 23  1  0
 23 24  1  0
 23 25  1  0
 23 26  1  0
 26 27  1  0
 26 28  1  0
 26 29  1  0
 29 30  1  0
 29 31  1  0
 29 32  1  0
 32 33  1  0
 32 34  1  0
 32 35  1  0
  6 36  1  0
 36 37  1  0
 36 38  2  0
 38 39  1  0
 38  2  1  0
 15  7  1  0
 18 11  1  0
M  END
>  <cnnaffinity>  (1) 
-5.14953

>  <filename>  (1) 
CCCCC[C@H]1[C@H]2CN(c3cccnc3)C[C@@H]12

$$$$
