
     RDKit          3D

 44 46  0  0  0  0  0  0  0  0999 V2000
    4.9554    1.8302   16.9683 H   0  0  0  0  0  0  0  0  0  0  0  0
    5.3983    1.2938   17.8072 C   0  0  0  0  0  0  0  0  0  0  0  0
    6.5455    0.6411   17.5614 N   0  0  0  0  0  0  0  0  0  0  0  0
    7.1353    0.0042   18.5783 C   0  0  0  0  0  0  0  0  0  0  0  0
    8.0714   -0.5041   18.3534 H   0  0  0  0  0  0  0  0  0  0  0  0
    6.6356   -0.0025   19.8880 C   0  0  0  0  0  0  0  0  0  0  0  0
    7.4197   -0.6553   20.9372 C   0  0  0  0  0  0  0  0  0  0  0  0
    7.9879   -1.9020   20.7742 N   0  0  0  0  0  0  0  0  0  0  0  0
    8.4989   -2.1602   21.9436 C   0  0  0  0  0  0  0  0  0  0  0  0
    8.4185   -1.1231   22.8153 N   0  0  0  0  0  0  0  0  0  0  0  0
    7.6954   -0.1412   22.1947 C   0  0  0  0  0  0  0  0  0  0  0  0
    7.3252    1.1140   22.8948 C   0  0  0  0  0  0  0  0  0  0  0  0
    8.2276    1.5356   23.3593 H   0  0  0  0  0  0  0  0  0  0  0  0
    6.9943    1.8525   22.1574 H   0  0  0  0  0  0  0  0  0  0  0  0
    6.2439    0.9292   23.9673 C   0  0  0  0  0  0  0  0  0  0  0  0
    5.3592    0.4713   23.5114 H   0  0  0  0  0  0  0  0  0  0  0  0
    6.5954    0.2200   24.7270 H   0  0  0  0  0  0  0  0  0  0  0  0
    5.8416    2.2470   24.6108 C   0  0  0  0  0  0  0  0  0  0  0  0
    6.7297    2.7356   25.0376 H   0  0  0  0  0  0  0  0  0  0  0  0
    5.4766    2.9164   23.8192 H   0  0  0  0  0  0  0  0  0  0  0  0
    4.7731    2.1107   25.6890 C   0  0  0  0  0  0  0  0  0  0  0  0
    3.8829    1.6330   25.2576 H   0  0  0  0  0  0  0  0  0  0  0  0
    5.1346    1.4309   26.4753 H   0  0  0  0  0  0  0  0  0  0  0  0
    4.3932    3.4537   26.3132 C   0  0  0  0  0  0  0  0  0  0  0  0
    5.3098    3.9415   26.6713 H   0  0  0  0  0  0  0  0  0  0  0  0
    3.9884    4.1131   25.5298 H   0  0  0  0  0  0  0  0  0  0  0  0
    3.3889    3.3506   27.4658 C   0  0  0  0  0  0  0  0  0  0  0  0
    3.3161    4.3240   27.9660 H   0  0  0  0  0  0  0  0  0  0  0  0
    3.7825    2.6546   28.2206 H   0  0  0  0  0  0  0  0  0  0  0  0
    1.9961    2.8980   27.0262 C   0  0  0  0  0  0  0  0  0  0  0  0
    1.2856    2.9032   27.8582 H   0  0  0  0  0  0  0  0  0  0  0  0
    1.5948    3.5573   26.2471 H   0  0  0  0  0  0  0  0  0  0  0  0
    2.0139    1.8801   26.6231 H   0  0  0  0  0  0  0  0  0  0  0  0
    9.0423   -1.2739   24.1125 C   0  0  0  0  0  0  0  0  0  0  0  0
    8.2903   -1.5001   24.8746 H   0  0  0  0  0  0  0  0  0  0  0  0
    9.5508   -0.3497   24.4045 H   0  0  0  0  0  0  0  0  0  0  0  0
   10.0260   -2.4340   23.9122 C   0  0  0  0  0  0  0  0  0  0  0  0
   10.9470   -2.0730   23.4466 H   0  0  0  0  0  0  0  0  0  0  0  0
   10.2617   -2.9735   24.8312 H   0  0  0  0  0  0  0  0  0  0  0  0
    9.2245   -3.5633   22.7100 S   0  0  0  0  0  0  0  0  0  0  0  0
    5.4144    0.6574   20.1201 C   0  0  0  0  0  0  0  0  0  0  0  0
    4.9652    0.6682   21.1121 H   0  0  0  0  0  0  0  0  0  0  0  0
    4.7817    1.3107   19.0624 C   0  0  0  0  0  0  0  0  0  0  0  0
    3.8534    1.8566   19.2027 H   0  0  0  0  0  0  0  0  0  0  0  0
  1  2  1  0
  2  3  2  0
  3  4  1  0
  4  5  1  0
  4  6  2  0
  6  7  1  0
  7  8  1  0
  8  9  2  0
  9 10  1  0
 10 11  1  0
 11 12  1  0
 12 13  1  0
 12 14  1  0
 12 15  1  0
 15 16  1  0
 15 17  1  0
 15 18  1  0
 18 19  1  0
 18 20  1  0
 18 21  1  0
 21 22  1  0
 21 23  1  0
 21 24  1  0
 24 25  1  0
 24 26  1  0
 24 27  1  0
 27 28  1  0
 27 29  1  0
 27 30  1  0
 30 31  1  0
 30 32  1  0
 30 33  1  0
 10 34  1  0
 34 35  1  0
 34 36  1  0
 34 37  1  0
 37 38  1  0
 37 39  1  0
 37 40  1  0
  6 41  1  0
 41 42  1  0
 41 43  2  0
 43 44  1  0
 43  2  1  0
 11  7  2  0
 40  9  1  0
M  END
>  <cnnaffinity>  (1) 
-6.03156

>  <filename>  (1) 
CCCCCCCc1c(-c2cccnc2)nc2n1CCS2

$$$$
