
     RDKit          3D

 46 47  0  0  0  0  0  0  0  0999 V2000
    5.6428   -1.6961   21.7221 H   0  0  0  0  0  0  0  0  0  0  0  0
    6.7072   -1.5657   21.8007 C   0  0  0  0  0  0  0  0  0  0  0  0
    7.3578   -0.7520   20.9455 C   0  0  0  0  0  0  0  0  0  0  0  0
    6.6975    0.0367   19.8871 C   0  0  0  0  0  0  0  0  0  0  0  0
    7.2139    0.0878   18.5779 C   0  0  0  0  0  0  0  0  0  0  0  0
    8.1555   -0.4098   18.3365 H   0  0  0  0  0  0  0  0  0  0  0  0
    6.5967    0.7003   17.5616 N   0  0  0  0  0  0  0  0  0  0  0  0
    5.4308    1.3153   17.8227 C   0  0  0  0  0  0  0  0  0  0  0  0
    4.9464    1.7934   16.9760 H   0  0  0  0  0  0  0  0  0  0  0  0
    4.8328    1.3371   19.0885 C   0  0  0  0  0  0  0  0  0  0  0  0
    3.8793    1.8349   19.2302 H   0  0  0  0  0  0  0  0  0  0  0  0
    5.4743    0.6850   20.1386 C   0  0  0  0  0  0  0  0  0  0  0  0
    5.0589    0.6797   21.1502 H   0  0  0  0  0  0  0  0  0  0  0  0
    8.7442   -0.6861   21.0272 N   0  0  0  0  0  0  0  0  0  0  0  0
    9.2937   -0.0025   20.5381 H   0  0  0  0  0  0  0  0  0  0  0  0
    9.4956   -1.4508   21.8599 C   0  0  0  0  0  0  0  0  0  0  0  0
   11.1461   -1.2942   21.9113 S   0  0  0  0  0  0  0  0  0  0  0  0
    8.8283   -2.3361   22.6328 N   0  0  0  0  0  0  0  0  0  0  0  0
    9.4678   -2.7410   23.2960 H   0  0  0  0  0  0  0  0  0  0  0  0
    7.3983   -2.1797   22.9693 C   0  0  1  0  0  0  0  0  0  0  0  0
    6.9813   -3.1888   23.1578 H   0  0  0  0  0  0  0  0  0  0  0  0
    7.1866   -1.3332   24.2568 C   0  0  0  0  0  0  0  0  0  0  0  0
    6.1121   -1.1311   24.3484 H   0  0  0  0  0  0  0  0  0  0  0  0
    7.6566   -0.3550   24.1063 H   0  0  0  0  0  0  0  0  0  0  0  0
    7.6994   -1.9955   25.5352 C   0  0  0  0  0  0  0  0  0  0  0  0
    7.3056   -3.0191   25.5812 H   0  0  0  0  0  0  0  0  0  0  0  0
    8.7932   -2.0961   25.4776 H   0  0  0  0  0  0  0  0  0  0  0  0
    7.3254   -1.2562   26.8308 C   0  0  0  0  0  0  0  0  0  0  0  0
    7.5969   -1.8832   27.6899 H   0  0  0  0  0  0  0  0  0  0  0  0
    6.2320   -1.1435   26.8753 H   0  0  0  0  0  0  0  0  0  0  0  0
    7.9921    0.1192   26.9661 C   0  0  0  0  0  0  0  0  0  0  0  0
    7.6418    0.7614   26.1478 H   0  0  0  0  0  0  0  0  0  0  0  0
    9.0755    0.0049   26.8148 H   0  0  0  0  0  0  0  0  0  0  0  0
    7.7543    0.8660   28.2861 C   0  0  0  0  0  0  0  0  0  0  0  0
    8.2132    0.3175   29.1164 H   0  0  0  0  0  0  0  0  0  0  0  0
    8.2854    1.8262   28.2388 H   0  0  0  0  0  0  0  0  0  0  0  0
    6.2910    1.1815   28.6034 C   0  0  0  0  0  0  0  0  0  0  0  0
    5.6990    0.2559   28.6446 H   0  0  0  0  0  0  0  0  0  0  0  0
    5.8872    1.7604   27.7635 H   0  0  0  0  0  0  0  0  0  0  0  0
    6.0980    1.9769   29.9031 C   0  0  0  0  0  0  0  0  0  0  0  0
    5.0758    2.3746   29.9342 H   0  0  0  0  0  0  0  0  0  0  0  0
    6.7556    2.8580   29.8822 H   0  0  0  0  0  0  0  0  0  0  0  0
    6.3670    1.1684   31.1762 C   0  0  0  0  0  0  0  0  0  0  0  0
    6.1610    1.7519   32.0797 H   0  0  0  0  0  0  0  0  0  0  0  0
    5.7405    0.2691   31.2168 H   0  0  0  0  0  0  0  0  0  0  0  0
    7.4113    0.8418   31.2356 H   0  0  0  0  0  0  0  0  0  0  0  0
  1  2  1  0
  2  3  2  0
  3  4  1  0
  4  5  2  0
  5  6  1  0
  5  7  1  0
  7  8  2  0
  8  9  1  0
  8 10  1  0
 10 11  1  0
 10 12  2  0
 12 13  1  0
  3 14  1  0
 14 15  1  0
 14 16  1  0
 16 17  2  0
 16 18  1  0
 18 19  1  0
 18 20  1  0
 20 21  1  1
 20 22  1  0
 22 23  1  0
 22 24  1  0
 22 25  1  0
 25 26  1  0
 25 27  1  0
 25 28  1  0
 28 29  1  0
 28 30  1  0
 28 31  1  0
 31 32  1  0
 31 33  1  0
 31 34  1  0
 34 35  1  0
 34 36  1  0
 34 37  1  0
 37 38  1  0
 37 39  1  0
 37 40  1  0
 40 41  1  0
 40 42  1  0
 40 43  1  0
 43 44  1  0
 43 45  1  0
 43 46  1  0
 20  2  1  0
 12  4  1  0
M  END
>  <cnnaffinity>  (1) 
-4.88269

>  <filename>  (1) 
CCCCCCCC[C@H]1C=C(c2cccnc2)NC(=S)N1

$$$$
