
     RDKit          3D

 46 47  0  0  0  0  0  0  0  0999 V2000
    4.9442    1.7996   17.0008 H   0  0  0  0  0  0  0  0  0  0  0  0
    5.4189    1.2861   17.8333 C   0  0  0  0  0  0  0  0  0  0  0  0
    6.5590    0.6407   17.5482 N   0  0  0  0  0  0  0  0  0  0  0  0
    7.1880    0.0152   18.5499 C   0  0  0  0  0  0  0  0  0  0  0  0
    8.1157   -0.4944   18.3009 H   0  0  0  0  0  0  0  0  0  0  0  0
    6.7108    0.0031   19.8710 C   0  0  0  0  0  0  0  0  0  0  0  0
    7.4353   -0.6346   20.9225 N   0  0  0  0  0  0  0  0  0  0  0  0
    6.6282   -1.3968   21.7503 N   0  0  0  0  0  0  0  0  0  0  0  0
    7.1380   -1.9492   22.7964 C   0  0  0  0  0  0  0  0  0  0  0  0
    6.2821   -2.9321   23.5165 C   0  0  0  0  0  0  0  0  0  0  0  0
    6.8184   -3.2583   24.4130 H   0  0  0  0  0  0  0  0  0  0  0  0
    5.3753   -2.4384   23.8786 H   0  0  0  0  0  0  0  0  0  0  0  0
    5.8962   -4.1352   22.6381 C   0  0  0  0  0  0  0  0  0  0  0  0
    6.8086   -4.6917   22.3855 H   0  0  0  0  0  0  0  0  0  0  0  0
    5.4774   -3.7757   21.6917 H   0  0  0  0  0  0  0  0  0  0  0  0
    4.9302   -5.0463   23.3769 C   0  0  0  0  0  0  0  0  0  0  0  0
    4.6432   -5.9003   22.7499 H   0  0  0  0  0  0  0  0  0  0  0  0
    4.0018   -4.4947   23.5805 H   0  0  0  0  0  0  0  0  0  0  0  0
    5.5463   -5.5049   24.6961 C   0  0  0  0  0  0  0  0  0  0  0  0
    6.5213   -5.9711   24.4868 H   0  0  0  0  0  0  0  0  0  0  0  0
    5.7722   -4.6247   25.3141 H   0  0  0  0  0  0  0  0  0  0  0  0
    4.6442   -6.4076   25.5090 C   0  0  0  0  0  0  0  0  0  0  0  0
    4.4519   -7.3406   24.9573 H   0  0  0  0  0  0  0  0  0  0  0  0
    3.6705   -5.9011   25.6201 H   0  0  0  0  0  0  0  0  0  0  0  0
    5.1944   -6.7053   26.9031 C   0  0  0  0  0  0  0  0  0  0  0  0
    6.0784   -7.3583   26.8412 H   0  0  0  0  0  0  0  0  0  0  0  0
    5.5540   -5.7754   27.3720 H   0  0  0  0  0  0  0  0  0  0  0  0
    4.1295   -7.3164   27.8118 C   0  0  0  0  0  0  0  0  0  0  0  0
    3.3913   -6.5443   28.0684 H   0  0  0  0  0  0  0  0  0  0  0  0
    3.5710   -8.0886   27.2648 H   0  0  0  0  0  0  0  0  0  0  0  0
    4.6860   -7.9052   29.1012 C   0  0  0  0  0  0  0  0  0  0  0  0
    5.2135   -7.1543   29.7019 H   0  0  0  0  0  0  0  0  0  0  0  0
    5.4212   -8.6888   28.8852 H   0  0  0  0  0  0  0  0  0  0  0  0
    3.8783   -8.3318   29.7089 H   0  0  0  0  0  0  0  0  0  0  0  0
    8.5517   -1.6952   23.2702 C   0  0  0  0  0  0  0  0  0  0  0  0
    8.5320   -0.8471   23.9699 H   0  0  0  0  0  0  0  0  0  0  0  0
    8.9194   -2.5580   23.8416 H   0  0  0  0  0  0  0  0  0  0  0  0
    9.4678   -1.4216   22.0777 C   0  0  0  0  0  0  0  0  0  0  0  0
    9.7127   -2.3554   21.5507 H   0  0  0  0  0  0  0  0  0  0  0  0
   10.4141   -0.9713   22.3802 H   0  0  0  0  0  0  0  0  0  0  0  0
    8.8347   -0.4957   21.0508 C   0  0  0  0  0  0  0  0  0  0  0  0
    9.4805    0.2647   20.3580 O   0  0  0  0  0  0  0  0  0  0  0  0
    5.4836    0.6192   20.1470 C   0  0  0  0  0  0  0  0  0  0  0  0
    5.0652    0.5392   21.1497 H   0  0  0  0  0  0  0  0  0  0  0  0
    4.8420    1.2964   19.1085 C   0  0  0  0  0  0  0  0  0  0  0  0
    3.9120    1.8267   19.2720 H   0  0  0  0  0  0  0  0  0  0  0  0
  1  2  1  0
  2  3  2  0
  3  4  1  0
  4  5  1  0
  4  6  2  0
  6  7  1  0
  7  8  1  0
  8  9  2  0
  9 10  1  0
 10 11  1  0
 10 12  1  0
 10 13  1  0
 13 14  1  0
 13 15  1  0
 13 16  1  0
 16 17  1  0
 16 18  1  0
 16 19  1  0
 19 20  1  0
 19 21  1  0
 19 22  1  0
 22 23  1  0
 22 24  1  0
 22 25  1  0
 25 26  1  0
 25 27  1  0
 25 28  1  0
 28 29  1  0
 28 30  1  0
 28 31  1  0
 31 32  1  0
 31 33  1  0
 31 34  1  0
  9 35  1  0
 35 36  1  0
 35 37  1  0
 35 38  1  0
 38 39  1  0
 38 40  1  0
 38 41  1  0
 41 42  2  0
  6 43  1  0
 43 44  1  0
 43 45  2  0
 45 46  1  0
 45  2  1  0
 41  7  1  0
M  END
>  <cnnaffinity>  (1) 
-5.49158

>  <filename>  (1) 
CCCCCCCCC1=NN(c2cccnc2)C(=O)CC1

$$$$
