
     RDKit          3D

 33 34  0  0  0  0  0  0  0  0999 V2000
    4.9876    1.7919   16.9978 H   0  0  0  0  0  0  0  0  0  0  0  0
    5.4493    1.2767   17.8363 C   0  0  0  0  0  0  0  0  0  0  0  0
    6.6030    0.6386   17.5876 N   0  0  0  0  0  0  0  0  0  0  0  0
    7.2002    0.0056   18.6088 C   0  0  0  0  0  0  0  0  0  0  0  0
    8.1348   -0.5086   18.3949 H   0  0  0  0  0  0  0  0  0  0  0  0
    6.6770   -0.0143   19.9168 C   0  0  0  0  0  0  0  0  0  0  0  0
    7.2337   -0.7013   20.9669 O   0  0  0  0  0  0  0  0  0  0  0  0
    8.6029   -0.7755   21.1141 C   0  0  0  0  0  0  0  0  0  0  0  0
    9.6381    0.0904   20.7056 C   0  0  0  0  0  0  0  0  0  0  0  0
    9.5650    0.9688   20.0766 H   0  0  0  0  0  0  0  0  0  0  0  0
   10.8239   -0.3018   21.1666 N   0  0  0  0  0  0  0  0  0  0  0  0
   10.5429   -1.4228   21.8681 N   0  0  0  0  0  0  0  0  0  0  0  0
   11.2762   -1.9652   22.2986 H   0  0  0  0  0  0  0  0  0  0  0  0
    9.2232   -1.7430   21.8754 C   0  0  0  0  0  0  0  0  0  0  0  0
    8.6802   -2.8630   22.4793 N   0  0  0  0  0  0  0  0  0  0  0  0
    7.6862   -2.7096   22.6289 H   0  0  0  0  0  0  0  0  0  0  0  0
    9.3653   -3.6088   23.5180 C   0  0  0  0  0  0  0  0  0  0  0  0
   10.4389   -3.5983   23.2912 H   0  0  0  0  0  0  0  0  0  0  0  0
    9.0390   -4.6519   23.4548 H   0  0  0  0  0  0  0  0  0  0  0  0
    9.1288   -3.0940   24.9389 C   0  0  0  0  0  0  0  0  0  0  0  0
    8.0619   -3.2103   25.1920 H   0  0  0  0  0  0  0  0  0  0  0  0
    9.6904   -3.7577   25.6173 H   0  0  0  0  0  0  0  0  0  0  0  0
    9.5481   -1.6367   25.1730 C   0  0  0  0  0  0  0  0  0  0  0  0
    8.9723   -0.9687   24.5146 H   0  0  0  0  0  0  0  0  0  0  0  0
   10.6033   -1.4909   24.8922 H   0  0  0  0  0  0  0  0  0  0  0  0
    9.3444   -1.1920   26.6264 C   0  0  0  0  0  0  0  0  0  0  0  0
   10.0025   -0.3541   26.8777 H   0  0  0  0  0  0  0  0  0  0  0  0
    8.3062   -0.8804   26.7936 H   0  0  0  0  0  0  0  0  0  0  0  0
    9.5711   -1.9874   27.3472 H   0  0  0  0  0  0  0  0  0  0  0  0
    5.4657    0.6363   20.1622 C   0  0  0  0  0  0  0  0  0  0  0  0
    5.0496    0.6218   21.1703 H   0  0  0  0  0  0  0  0  0  0  0  0
    4.8451    1.2957   19.1018 C   0  0  0  0  0  0  0  0  0  0  0  0
    3.9129    1.8300   19.2468 H   0  0  0  0  0  0  0  0  0  0  0  0
  1  2  1  0
  2  3  2  0
  3  4  1  0
  4  5  1  0
  4  6  2  0
  6  7  1  0
  7  8  1  0
  8  9  1  0
  9 10  1  0
  9 11  2  0
 11 12  1  0
 12 13  1  0
 12 14  1  0
 14 15  1  0
 15 16  1  0
 15 17  1  0
 17 18  1  0
 17 19  1  0
 17 20  1  0
 20 21  1  0
 20 22  1  0
 20 23  1  0
 23 24  1  0
 23 25  1  0
 23 26  1  0
 26 27  1  0
 26 28  1  0
 26 29  1  0
  6 30  1  0
 30 31  1  0
 30 32  2  0
 32 33  1  0
 32  2  1  0
 14  8  2  0
M  END
>  <cnnaffinity>  (1) 
-5.0398

>  <filename>  (1) 
CCCCNc1[nH]ncc1Oc1cccnc1

$$$$
