
     RDKit          3D

 44 45  0  0  0  0  0  0  0  0999 V2000
    4.9530    1.8259   16.9722 H   0  0  0  0  0  0  0  0  0  0  0  0
    5.3931    1.2921   17.8129 C   0  0  0  0  0  0  0  0  0  0  0  0
    6.5428    0.6484   17.5745 N   0  0  0  0  0  0  0  0  0  0  0  0
    7.1307    0.0364   18.6085 C   0  0  0  0  0  0  0  0  0  0  0  0
    8.0841   -0.4425   18.3929 H   0  0  0  0  0  0  0  0  0  0  0  0
    6.6091    0.0014   19.9138 C   0  0  0  0  0  0  0  0  0  0  0  0
    7.3433   -0.7116   20.9881 C   0  0  0  0  0  0  0  0  0  0  0  0
    6.6389   -1.4965   21.7769 N   0  0  0  0  0  0  0  0  0  0  0  0
    7.2553   -2.2012   22.7956 C   0  0  0  0  0  0  0  0  0  0  0  0
    6.3759   -3.1077   23.6258 C   0  0  0  0  0  0  0  0  0  0  0  0
    6.7590   -3.1581   24.6554 H   0  0  0  0  0  0  0  0  0  0  0  0
    5.3814   -2.6537   23.6884 H   0  0  0  0  0  0  0  0  0  0  0  0
    6.2548   -4.5416   23.0690 C   0  0  0  0  0  0  0  0  0  0  0  0
    7.2581   -4.9482   22.8914 H   0  0  0  0  0  0  0  0  0  0  0  0
    5.7743   -4.5018   22.0813 H   0  0  0  0  0  0  0  0  0  0  0  0
    5.4974   -5.5212   23.9787 C   0  0  0  0  0  0  0  0  0  0  0  0
    6.0408   -5.6216   24.9277 H   0  0  0  0  0  0  0  0  0  0  0  0
    5.5266   -6.5182   23.5187 H   0  0  0  0  0  0  0  0  0  0  0  0
    4.0369   -5.1561   24.2790 C   0  0  0  0  0  0  0  0  0  0  0  0
    3.5995   -5.9221   24.9333 H   0  0  0  0  0  0  0  0  0  0  0  0
    4.0050   -4.2279   24.8641 H   0  0  0  0  0  0  0  0  0  0  0  0
    3.1561   -4.9828   23.0359 C   0  0  0  0  0  0  0  0  0  0  0  0
    3.5714   -4.1634   22.4313 H   0  0  0  0  0  0  0  0  0  0  0  0
    2.1605   -4.6385   23.3478 H   0  0  0  0  0  0  0  0  0  0  0  0
    3.0258   -6.2054   22.1122 C   0  0  0  0  0  0  0  0  0  0  0  0
    3.9847   -6.3691   21.5985 H   0  0  0  0  0  0  0  0  0  0  0  0
    2.2900   -5.9427   21.3445 H   0  0  0  0  0  0  0  0  0  0  0  0
    2.5413   -7.5333   22.7083 C   0  0  0  0  0  0  0  0  0  0  0  0
    2.5436   -8.2787   21.9028 H   0  0  0  0  0  0  0  0  0  0  0  0
    3.2438   -7.9073   23.4648 H   0  0  0  0  0  0  0  0  0  0  0  0
    1.1145   -7.4602   23.2472 C   0  0  0  0  0  0  0  0  0  0  0  0
    0.4526   -7.1037   22.4484 H   0  0  0  0  0  0  0  0  0  0  0  0
    1.0190   -6.7642   24.0881 H   0  0  0  0  0  0  0  0  0  0  0  0
    0.7475   -8.4371   23.5789 H   0  0  0  0  0  0  0  0  0  0  0  0
    8.5958   -2.0966   23.0381 C   0  0  0  0  0  0  0  0  0  0  0  0
    9.0921   -2.6200   23.8508 H   0  0  0  0  0  0  0  0  0  0  0  0
    9.3635   -1.2997   22.2208 N   0  0  0  0  0  0  0  0  0  0  0  0
   10.3601   -1.1351   22.3017 H   0  0  0  0  0  0  0  0  0  0  0  0
    8.8490   -0.5557   21.1659 C   0  0  0  0  0  0  0  0  0  0  0  0
    9.6515    0.1163   20.5361 O   0  0  0  0  0  0  0  0  0  0  0  0
    5.3777    0.6426   20.1344 C   0  0  0  0  0  0  0  0  0  0  0  0
    4.9065    0.6203   21.1189 H   0  0  0  0  0  0  0  0  0  0  0  0
    4.7782    1.3175   19.0692 C   0  0  0  0  0  0  0  0  0  0  0  0
    3.8565    1.8697   19.1977 H   0  0  0  0  0  0  0  0  0  0  0  0
  1  2  1  0
  2  3  2  0
  3  4  1  0
  4  5  1  0
  4  6  2  0
  6  7  1  0
  7  8  2  0
  8  9  1  0
  9 10  1  0
 10 11  1  0
 10 12  1  0
 10 13  1  0
 13 14  1  0
 13 15  1  0
 13 16  1  0
 16 17  1  0
 16 18  1  0
 16 19  1  0
 19 20  1  0
 19 21  1  0
 19 22  1  0
 22 23  1  0
 22 24  1  0
 22 25  1  0
 25 26  1  0
 25 27  1  0
 25 28  1  0
 28 29  1  0
 28 30  1  0
 28 31  1  0
 31 32  1  0
 31 33  1  0
 31 34  1  0
  9 35  2  0
 35 36  1  0
 35 37  1  0
 37 38  1  0
 37 39  1  0
 39 40  2  0
  6 41  1  0
 41 42  1  0
 41 43  2  0
 43 44  1  0
 43  2  1  0
 39  7  1  0
M  END
>  <cnnaffinity>  (1) 
-5.37403

>  <filename>  (1) 
CCCCCCCCc1c[nH]c(=O)c(-c2cccnc2)n1

$$$$
