
     RDKit          3D

 40 41  0  0  0  0  0  0  0  0999 V2000
    4.9258    1.8123   16.9719 H   0  0  0  0  0  0  0  0  0  0  0  0
    5.3932    1.2954   17.8097 C   0  0  0  0  0  0  0  0  0  0  0  0
    6.5538    0.6697   17.5476 N   0  0  0  0  0  0  0  0  0  0  0  0
    7.1590    0.0338   18.5562 C   0  0  0  0  0  0  0  0  0  0  0  0
    8.1240   -0.4123   18.3170 H   0  0  0  0  0  0  0  0  0  0  0  0
    6.6420   -0.0130   19.8707 C   0  0  0  0  0  0  0  0  0  0  0  0
    7.3086   -0.6710   20.9426 N   0  0  0  0  0  0  0  0  0  0  0  0
    7.4640   -0.2558   22.2844 C   0  0  0  0  0  0  0  0  0  0  0  0
    6.9934    0.7625   22.7724 O   0  0  0  0  0  0  0  0  0  0  0  0
    8.2863   -1.2997   22.8975 C   0  0  0  0  0  0  0  0  0  0  0  0
    8.6365   -1.3281   24.3540 C   0  0  0  0  0  0  0  0  0  0  0  0
    9.6779   -1.6520   24.5010 H   0  0  0  0  0  0  0  0  0  0  0  0
    8.5832   -0.2987   24.7358 H   0  0  0  0  0  0  0  0  0  0  0  0
    7.6943   -2.2405   25.1631 C   0  0  0  0  0  0  0  0  0  0  0  0
    7.6971   -3.2410   24.7055 H   0  0  0  0  0  0  0  0  0  0  0  0
    8.0979   -2.3709   26.1765 H   0  0  0  0  0  0  0  0  0  0  0  0
    6.2463   -1.7311   25.2204 C   0  0  0  0  0  0  0  0  0  0  0  0
    5.8785   -1.5993   24.1960 H   0  0  0  0  0  0  0  0  0  0  0  0
    6.2247   -0.7249   25.6712 H   0  0  0  0  0  0  0  0  0  0  0  0
    5.2954   -2.6629   25.9849 C   0  0  0  0  0  0  0  0  0  0  0  0
    5.4051   -3.6912   25.6025 H   0  0  0  0  0  0  0  0  0  0  0  0
    4.2546   -2.3785   25.7774 H   0  0  0  0  0  0  0  0  0  0  0  0
    5.5392   -2.6721   27.4987 C   0  0  0  0  0  0  0  0  0  0  0  0
    5.4293   -1.6480   27.8901 H   0  0  0  0  0  0  0  0  0  0  0  0
    6.5874   -2.9488   27.6722 H   0  0  0  0  0  0  0  0  0  0  0  0
    4.6103   -3.6123   28.2835 C   0  0  0  0  0  0  0  0  0  0  0  0
    4.6716   -4.6223   27.8497 H   0  0  0  0  0  0  0  0  0  0  0  0
    4.9864   -3.7118   29.3114 H   0  0  0  0  0  0  0  0  0  0  0  0
    3.1467   -3.1443   28.3155 C   0  0  0  0  0  0  0  0  0  0  0  0
    3.0672   -2.1202   28.7026 H   0  0  0  0  0  0  0  0  0  0  0  0
    2.6929   -3.1409   27.3169 H   0  0  0  0  0  0  0  0  0  0  0  0
    2.5274   -3.7859   28.9528 H   0  0  0  0  0  0  0  0  0  0  0  0
    8.5533   -2.2202   21.9364 C   0  0  0  0  0  0  0  0  0  0  0  0
    9.0971   -3.1560   22.0177 H   0  0  0  0  0  0  0  0  0  0  0  0
    8.0467   -1.8132   20.7405 N   0  0  0  0  0  0  0  0  0  0  0  0
    7.9225   -2.3305   19.8858 H   0  0  0  0  0  0  0  0  0  0  0  0
    5.4395    0.6469   20.1362 C   0  0  0  0  0  0  0  0  0  0  0  0
    5.0623    0.6534   21.1566 H   0  0  0  0  0  0  0  0  0  0  0  0
    4.8048    1.3027   19.0788 C   0  0  0  0  0  0  0  0  0  0  0  0
    3.8794    1.8391   19.2372 H   0  0  0  0  0  0  0  0  0  0  0  0
  1  2  1  0
  2  3  2  0
  3  4  1  0
  4  5  1  0
  4  6  2  0
  6  7  1  0
  7  8  1  0
  8  9  2  0
  8 10  1  0
 10 11  1  0
 11 12  1  0
 11 13  1  0
 11 14  1  0
 14 15  1  0
 14 16  1  0
 14 17  1  0
 17 18  1  0
 17 19  1  0
 17 20  1  0
 20 21  1  0
 20 22  1  0
 20 23  1  0
 23 24  1  0
 23 25  1  0
 23 26  1  0
 26 27  1  0
 26 28  1  0
 26 29  1  0
 29 30  1  0
 29 31  1  0
 29 32  1  0
 10 33  2  0
 33 34  1  0
 33 35  1  0
 35 36  1  0
  6 37  1  0
 37 38  1  0
 37 39  2  0
 39 40  1  0
 39  2  1  0
 35  7  1  0
M  END
>  <cnnaffinity>  (1) 
-4.96069

>  <filename>  (1) 
CCCCCCCc1c[nH]n(-c2cccnc2)c1=O

$$$$
