
     RDKit          3D

 30 32  0  0  0  0  0  0  0  0999 V2000
    4.9556    1.8108   16.9685 H   0  0  0  0  0  0  0  0  0  0  0  0
    5.3993    1.2969   17.8206 C   0  0  0  0  0  0  0  0  0  0  0  0
    6.5546    0.6578   17.5784 N   0  0  0  0  0  0  0  0  0  0  0  0
    7.1448    0.0324   18.6028 C   0  0  0  0  0  0  0  0  0  0  0  0
    8.0880   -0.4590   18.3679 H   0  0  0  0  0  0  0  0  0  0  0  0
    6.6343    0.0084   19.9099 C   0  0  0  0  0  0  0  0  0  0  0  0
    7.3887   -0.6740   20.9617 C   0  0  0  0  0  0  0  0  0  0  0  0
    7.9445   -1.9194   20.7676 N   0  0  0  0  0  0  0  0  0  0  0  0
    8.4731   -2.1973   21.9295 C   0  0  0  0  0  0  0  0  0  0  0  0
    9.2572   -3.5654   22.6739 S   0  0  0  0  0  0  0  0  0  0  0  0
    9.6817   -2.5869   24.0690 C   0  0  0  0  0  0  0  0  0  0  0  0
   10.3285   -3.0162   24.8241 H   0  0  0  0  0  0  0  0  0  0  0  0
    9.1221   -1.3646   24.0119 C   0  0  0  0  0  0  0  0  0  0  0  0
    9.1178   -0.5647   24.7450 H   0  0  0  0  0  0  0  0  0  0  0  0
    8.4042   -1.1716   22.8343 N   0  0  0  0  0  0  0  0  0  0  0  0
    7.6615   -0.1764   22.2337 C   0  0  0  0  0  0  0  0  0  0  0  0
    7.5710    1.1930   22.8209 C   0  0  0  0  0  0  0  0  0  0  0  0
    6.7502    1.7285   22.3297 H   0  0  0  0  0  0  0  0  0  0  0  0
    7.3109    1.1433   23.8884 H   0  0  0  0  0  0  0  0  0  0  0  0
    8.8778    1.9899   22.6080 C   0  0  0  0  0  0  0  0  0  0  0  0
    8.7882    2.9607   23.1152 H   0  0  0  0  0  0  0  0  0  0  0  0
    9.7205    1.4685   23.0875 H   0  0  0  0  0  0  0  0  0  0  0  0
    9.1673    2.1990   21.1215 C   0  0  0  0  0  0  0  0  0  0  0  0
   10.0727    2.7965   20.9890 H   0  0  0  0  0  0  0  0  0  0  0  0
    8.3130    2.6887   20.6413 H   0  0  0  0  0  0  0  0  0  0  0  0
    9.3152    1.2509   20.5875 H   0  0  0  0  0  0  0  0  0  0  0  0
    5.4131    0.6664   20.1458 C   0  0  0  0  0  0  0  0  0  0  0  0
    4.9576    0.6669   21.1375 H   0  0  0  0  0  0  0  0  0  0  0  0
    4.7905    1.3168   19.0799 C   0  0  0  0  0  0  0  0  0  0  0  0
    3.8582    1.8513   19.2169 H   0  0  0  0  0  0  0  0  0  0  0  0
  1  2  1  0
  2  3  2  0
  3  4  1  0
  4  5  1  0
  4  6  2  0
  6  7  1  0
  7  8  1  0
  8  9  2  0
  9 10  1  0
 10 11  1  0
 11 12  1  0
 11 13  2  0
 13 14  1  0
 13 15  1  0
 15 16  1  0
 16 17  1  0
 17 18  1  0
 17 19  1  0
 17 20  1  0
 20 21  1  0
 20 22  1  0
 20 23  1  0
 23 24  1  0
 23 25  1  0
 23 26  1  0
  6 27  1  0
 27 28  1  0
 27 29  2  0
 29 30  1  0
 29  2  1  0
 16  7  2  0
 15  9  1  0
M  END
>  <cnnaffinity>  (1) 
-5.02893

>  <filename>  (1) 
CCCc1c(-c2cccnc2)nc2sccn12

$$$$
