
     RDKit          3D

 38 39  0  0  0  0  0  0  0  0999 V2000
    4.9808    1.8501   17.0064 H   0  0  0  0  0  0  0  0  0  0  0  0
    5.4384    1.3006   17.8271 C   0  0  0  0  0  0  0  0  0  0  0  0
    6.5844    0.6580   17.5476 N   0  0  0  0  0  0  0  0  0  0  0  0
    7.1853   -0.0249   18.5366 C   0  0  0  0  0  0  0  0  0  0  0  0
    8.1031   -0.5519   18.2711 H   0  0  0  0  0  0  0  0  0  0  0  0
    6.6851   -0.1007   19.8615 C   0  0  0  0  0  0  0  0  0  0  0  0
    7.3168   -0.8127   20.9047 N   0  0  0  0  0  0  0  0  0  0  0  0
    6.7821   -0.7839   21.7694 H   0  0  0  0  0  0  0  0  0  0  0  0
    8.7142   -0.7696   21.1323 C   0  0  0  0  0  0  0  0  0  0  0  0
    9.6594    0.2227   20.7683 C   0  0  0  0  0  0  0  0  0  0  0  0
    9.4675    1.1250   20.2096 H   0  0  0  0  0  0  0  0  0  0  0  0
   10.8851   -0.0643   21.1972 N   0  0  0  0  0  0  0  0  0  0  0  0
   10.7275   -1.2350   21.8302 N   0  0  0  0  0  0  0  0  0  0  0  0
   11.5252   -1.6629   22.2757 H   0  0  0  0  0  0  0  0  0  0  0  0
    9.4518   -1.7046   21.8425 C   0  0  0  0  0  0  0  0  0  0  0  0
    9.0466   -2.8390   22.7400 C   0  0  0  0  0  0  0  0  0  0  0  0
    9.8151   -3.6198   22.7395 H   0  0  0  0  0  0  0  0  0  0  0  0
    8.1442   -3.3072   22.3313 H   0  0  0  0  0  0  0  0  0  0  0  0
    8.7934   -2.3685   24.1897 C   0  0  0  0  0  0  0  0  0  0  0  0
    9.7402   -2.0358   24.6400 H   0  0  0  0  0  0  0  0  0  0  0  0
    8.4676   -3.2287   24.7913 H   0  0  0  0  0  0  0  0  0  0  0  0
    7.7363   -1.2575   24.2731 C   0  0  0  0  0  0  0  0  0  0  0  0
    6.8034   -1.6699   23.8511 H   0  0  0  0  0  0  0  0  0  0  0  0
    8.0190   -0.4050   23.6340 H   0  0  0  0  0  0  0  0  0  0  0  0
    7.4079   -0.7936   25.6952 C   0  0  0  0  0  0  0  0  0  0  0  0
    7.2085   -1.7051   26.2725 H   0  0  0  0  0  0  0  0  0  0  0  0
    6.4497   -0.2521   25.6681 H   0  0  0  0  0  0  0  0  0  0  0  0
    8.4106    0.0506   26.5052 C   0  0  0  0  0  0  0  0  0  0  0  0
    9.3976   -0.4366   26.5847 H   0  0  0  0  0  0  0  0  0  0  0  0
    8.5896    1.0095   26.0025 H   0  0  0  0  0  0  0  0  0  0  0  0
    7.8204    0.3249   27.9000 C   0  0  0  0  0  0  0  0  0  0  0  0
    7.1048    1.1533   27.8602 H   0  0  0  0  0  0  0  0  0  0  0  0
    7.2768   -0.5555   28.2561 H   0  0  0  0  0  0  0  0  0  0  0  0
    8.5615    0.5721   28.6657 H   0  0  0  0  0  0  0  0  0  0  0  0
    5.4695    0.5480   20.1165 C   0  0  0  0  0  0  0  0  0  0  0  0
    5.0330    0.4979   21.1126 H   0  0  0  0  0  0  0  0  0  0  0  0
    4.8416    1.2643   19.0925 C   0  0  0  0  0  0  0  0  0  0  0  0
    3.9097    1.7944   19.2600 H   0  0  0  0  0  0  0  0  0  0  0  0
  1  2  1  0
  2  3  2  0
  3  4  1  0
  4  5  1  0
  4  6  2  0
  6  7  1  0
  7  8  1  0
  7  9  1  0
  9 10  1  0
 10 11  1  0
 10 12  2  0
 12 13  1  0
 13 14  1  0
 13 15  1  0
 15 16  1  0
 16 17  1  0
 16 18  1  0
 16 19  1  0
 19 20  1  0
 19 21  1  0
 19 22  1  0
 22 23  1  0
 22 24  1  0
 22 25  1  0
 25 26  1  0
 25 27  1  0
 25 28  1  0
 28 29  1  0
 28 30  1  0
 28 31  1  0
 31 32  1  0
 31 33  1  0
 31 34  1  0
  6 35  1  0
 35 36  1  0
 35 37  2  0
 37 38  1  0
 37  2  1  0
 15  9  2  0
M  END
>  <cnnaffinity>  (1) 
-5.50468

>  <filename>  (1) 
CCCCCCc1[nH]ncc1Nc1cccnc1

$$$$
