
     RDKit          3D

 35 36  0  0  0  0  0  0  0  0999 V2000
    4.9381    1.7857   16.8944 H   0  0  0  0  0  0  0  0  0  0  0  0
    5.3967    1.3589   17.7851 C   0  0  0  0  0  0  0  0  0  0  0  0
    6.5893    0.7668   17.6126 N   0  0  0  0  0  0  0  0  0  0  0  0
    7.1408    0.1908   18.6909 C   0  0  0  0  0  0  0  0  0  0  0  0
    8.0928   -0.3113   18.5192 H   0  0  0  0  0  0  0  0  0  0  0  0
    6.5663    0.1727   19.9853 C   0  0  0  0  0  0  0  0  0  0  0  0
    7.2006   -0.5629   21.1296 C   0  0  0  0  0  0  0  0  0  0  0  0
    7.5983   -1.9047   20.9880 C   0  0  0  0  0  0  0  0  0  0  0  0
    7.3308   -2.4270   20.0794 H   0  0  0  0  0  0  0  0  0  0  0  0
    8.2709   -2.6099   21.9052 N   0  0  0  0  0  0  0  0  0  0  0  0
    8.5240   -1.9990   23.0694 C   0  0  0  0  0  0  0  0  0  0  0  0
    9.1409   -2.5529   23.7778 H   0  0  0  0  0  0  0  0  0  0  0  0
    8.0634   -0.7172   23.4071 C   0  0  0  0  0  0  0  0  0  0  0  0
    8.2964   -0.1348   24.7894 C   0  0  0  0  0  0  0  0  0  0  0  0
    8.5537   -0.9454   25.4908 H   0  0  0  0  0  0  0  0  0  0  0  0
    7.3670    0.3155   25.1669 H   0  0  0  0  0  0  0  0  0  0  0  0
    9.4094    0.9275   24.7942 C   0  0  0  0  0  0  0  0  0  0  0  0
    9.4461    1.4218   25.7762 H   0  0  0  0  0  0  0  0  0  0  0  0
    9.1383    1.7058   24.0627 H   0  0  0  0  0  0  0  0  0  0  0  0
   10.7903    0.3592   24.4527 C   0  0  0  0  0  0  0  0  0  0  0  0
   10.7301   -0.1750   23.4909 H   0  0  0  0  0  0  0  0  0  0  0  0
   11.0702   -0.3983   25.2032 H   0  0  0  0  0  0  0  0  0  0  0  0
   11.8788    1.4297   24.3479 C   0  0  0  0  0  0  0  0  0  0  0  0
   11.8879    2.0574   25.2515 H   0  0  0  0  0  0  0  0  0  0  0  0
   11.6181    2.0997   23.5166 H   0  0  0  0  0  0  0  0  0  0  0  0
   13.2744    0.8485   24.1262 C   0  0  0  0  0  0  0  0  0  0  0  0
   13.2800    0.1072   23.3160 H   0  0  0  0  0  0  0  0  0  0  0  0
   13.6387    0.3543   25.0344 H   0  0  0  0  0  0  0  0  0  0  0  0
   13.9841    1.6351   23.8565 H   0  0  0  0  0  0  0  0  0  0  0  0
    7.4286    0.0141   22.3871 C   0  0  0  0  0  0  0  0  0  0  0  0
    7.1236    1.0439   22.5611 H   0  0  0  0  0  0  0  0  0  0  0  0
    5.3435    0.8450   20.1373 C   0  0  0  0  0  0  0  0  0  0  0  0
    4.8674    0.8889   21.1183 H   0  0  0  0  0  0  0  0  0  0  0  0
    4.7396    1.4224   19.0163 C   0  0  0  0  0  0  0  0  0  0  0  0
    3.7710    1.9010   19.0805 H   0  0  0  0  0  0  0  0  0  0  0  0
  1  2  1  0
  2  3  2  0
  3  4  1  0
  4  5  1  0
  4  6  2  0
  6  7  1  0
  7  8  2  0
  8  9  1  0
  8 10  1  0
 10 11  2  0
 11 12  1  0
 11 13  1  0
 13 14  1  0
 14 15  1  0
 14 16  1  0
 14 17  1  0
 17 18  1  0
 17 19  1  0
 17 20  1  0
 20 21  1  0
 20 22  1  0
 20 23  1  0
 23 24  1  0
 23 25  1  0
 23 26  1  0
 26 27  1  0
 26 28  1  0
 26 29  1  0
 13 30  2  0
 30 31  1  0
  6 32  1  0
 32 33  1  0
 32 34  2  0
 34 35  1  0
 34  2  1  0
 30  7  1  0
M  END
>  <cnnaffinity>  (1) 
-5.16539

>  <filename>  (1) 
CCCCCc1cncc(-c2cccnc2)c1

$$$$
