
     RDKit          3D

 40 41  0  0  0  0  0  0  0  0999 V2000
    5.7161   -1.5388   21.9696 H   0  0  0  0  0  0  0  0  0  0  0  0
    6.7960   -1.4582   21.9681 C   0  0  0  0  0  0  0  0  0  0  0  0
    7.4518   -2.0943   22.9543 N   0  0  0  0  0  0  0  0  0  0  0  0
    8.7918   -2.0145   22.8829 C   0  0  0  0  0  0  0  0  0  0  0  0
    9.3535   -2.5001   23.6756 H   0  0  0  0  0  0  0  0  0  0  0  0
    9.4788   -1.3554   21.8351 C   0  0  0  0  0  0  0  0  0  0  0  0
   10.9897   -1.2951   21.8119 C   0  0  0  0  0  0  0  0  0  0  0  0
   11.3086   -1.1172   20.7813 H   0  0  0  0  0  0  0  0  0  0  0  0
   11.3910   -2.2800   22.0885 H   0  0  0  0  0  0  0  0  0  0  0  0
   11.5950   -0.2162   22.7422 C   0  0  0  0  0  0  0  0  0  0  0  0
   11.2592   -0.4076   23.7706 H   0  0  0  0  0  0  0  0  0  0  0  0
   12.6860   -0.3488   22.7457 H   0  0  0  0  0  0  0  0  0  0  0  0
   11.2501    1.2184   22.3155 C   0  0  0  0  0  0  0  0  0  0  0  0
   10.1576    1.3402   22.3216 H   0  0  0  0  0  0  0  0  0  0  0  0
   11.5546    1.3374   21.2650 H   0  0  0  0  0  0  0  0  0  0  0  0
   11.8886    2.3554   23.1315 C   0  0  0  0  0  0  0  0  0  0  0  0
   11.5476    2.3109   24.1759 H   0  0  0  0  0  0  0  0  0  0  0  0
   12.9807    2.2261   23.1584 H   0  0  0  0  0  0  0  0  0  0  0  0
   11.5575    3.7332   22.5378 C   0  0  0  0  0  0  0  0  0  0  0  0
   10.4717    3.8960   22.6059 H   0  0  0  0  0  0  0  0  0  0  0  0
   11.7873    3.7148   21.4622 H   0  0  0  0  0  0  0  0  0  0  0  0
   12.2424    4.9516   23.1751 C   0  0  0  0  0  0  0  0  0  0  0  0
   11.9283    5.8360   22.6075 H   0  0  0  0  0  0  0  0  0  0  0  0
   13.3315    4.8930   23.0472 H   0  0  0  0  0  0  0  0  0  0  0  0
   11.8842    5.1767   24.6449 C   0  0  0  0  0  0  0  0  0  0  0  0
   12.2644    6.1345   25.0187 H   0  0  0  0  0  0  0  0  0  0  0  0
   12.2865    4.3958   25.2901 H   0  0  0  0  0  0  0  0  0  0  0  0
   10.7954    5.1733   24.7675 H   0  0  0  0  0  0  0  0  0  0  0  0
    8.8017   -0.7439   20.8435 N   0  0  0  0  0  0  0  0  0  0  0  0
    7.4523   -0.7544   20.9280 C   0  0  0  0  0  0  0  0  0  0  0  0
    6.7164   -0.0077   19.8781 C   0  0  0  0  0  0  0  0  0  0  0  0
    7.2509    0.0733   18.5810 C   0  0  0  0  0  0  0  0  0  0  0  0
    8.2118   -0.3860   18.3648 H   0  0  0  0  0  0  0  0  0  0  0  0
    6.6426    0.6820   17.5574 N   0  0  0  0  0  0  0  0  0  0  0  0
    5.4687    1.2834   17.8042 C   0  0  0  0  0  0  0  0  0  0  0  0
    4.9940    1.7815   16.9582 H   0  0  0  0  0  0  0  0  0  0  0  0
    4.8648    1.2908   19.0630 C   0  0  0  0  0  0  0  0  0  0  0  0
    3.9194    1.8008   19.1999 H   0  0  0  0  0  0  0  0  0  0  0  0
    5.4965    0.6428   20.1258 C   0  0  0  0  0  0  0  0  0  0  0  0
    5.0703    0.6863   21.1288 H   0  0  0  0  0  0  0  0  0  0  0  0
  1  2  1  0
  2  3  2  0
  3  4  1  0
  4  5  1  0
  4  6  2  0
  6  7  1  0
  7  8  1  0
  7  9  1  0
  7 10  1  0
 10 11  1  0
 10 12  1  0
 10 13  1  0
 13 14  1  0
 13 15  1  0
 13 16  1  0
 16 17  1  0
 16 18  1  0
 16 19  1  0
 19 20  1  0
 19 21  1  0
 19 22  1  0
 22 23  1  0
 22 24  1  0
 22 25  1  0
 25 26  1  0
 25 27  1  0
 25 28  1  0
  6 29  1  0
 29 30  2  0
 30 31  1  0
 31 32  2  0
 32 33  1  0
 32 34  1  0
 34 35  2  0
 35 36  1  0
 35 37  1  0
 37 38  1  0
 37 39  2  0
 39 40  1  0
 30  2  1  0
 39 31  1  0
M  END
>  <cnnaffinity>  (1) 
-5.26879

>  <filename>  (1) 
CCCCCCCc1cncc(-c2cccnc2)n1

$$$$
