
     RDKit          3D

 41 42  0  0  0  0  0  0  0  0999 V2000
    8.9679   -3.1720   22.0337 H   0  0  0  0  0  0  0  0  0  0  0  0
    8.4985   -2.2023   21.9575 C   0  0  0  0  0  0  0  0  0  0  0  0
    8.4283   -1.2767   22.8536 N   0  0  0  0  0  0  0  0  0  0  0  0
    7.7072   -0.2644   22.2340 C   0  0  0  0  0  0  0  0  0  0  0  0
    7.5419    1.0995   22.8009 C   0  0  0  0  0  0  0  0  0  0  0  0
    7.7105    1.0451   23.8795 H   0  0  0  0  0  0  0  0  0  0  0  0
    6.5086    1.4364   22.6635 H   0  0  0  0  0  0  0  0  0  0  0  0
    8.4723    2.1269   22.1322 C   0  0  0  0  0  0  0  0  0  0  0  0
    8.3553    2.0611   21.0429 H   0  0  0  0  0  0  0  0  0  0  0  0
    9.5125    1.8419   22.3333 H   0  0  0  0  0  0  0  0  0  0  0  0
    8.2259    3.5657   22.5855 C   0  0  0  0  0  0  0  0  0  0  0  0
    7.2060    3.8563   22.3093 H   0  0  0  0  0  0  0  0  0  0  0  0
    8.8862    4.2405   22.0269 H   0  0  0  0  0  0  0  0  0  0  0  0
    8.4160    3.8151   24.0834 C   0  0  0  0  0  0  0  0  0  0  0  0
    7.6544    3.2714   24.6571 H   0  0  0  0  0  0  0  0  0  0  0  0
    8.2323    4.8756   24.3018 H   0  0  0  0  0  0  0  0  0  0  0  0
    9.7888    3.4322   24.6430 C   0  0  0  0  0  0  0  0  0  0  0  0
    9.7361    3.6912   25.7043 H   0  0  0  0  0  0  0  0  0  0  0  0
    9.9321    2.3433   24.6052 H   0  0  0  0  0  0  0  0  0  0  0  0
   10.9915    4.1138   23.9809 C   0  0  0  0  0  0  0  0  0  0  0  0
   11.0374    3.8341   22.9185 H   0  0  0  0  0  0  0  0  0  0  0  0
   11.9211    3.7236   24.4150 H   0  0  0  0  0  0  0  0  0  0  0  0
   10.9954    5.6358   24.0999 C   0  0  0  0  0  0  0  0  0  0  0  0
   10.8751    5.9137   25.1533 H   0  0  0  0  0  0  0  0  0  0  0  0
   10.1220    6.0546   23.5848 H   0  0  0  0  0  0  0  0  0  0  0  0
   12.2678    6.2629   23.5445 C   0  0  0  0  0  0  0  0  0  0  0  0
   13.1583    5.9003   24.0684 H   0  0  0  0  0  0  0  0  0  0  0  0
   12.2607    7.3507   23.6476 H   0  0  0  0  0  0  0  0  0  0  0  0
   12.3948    6.0143   22.4838 H   0  0  0  0  0  0  0  0  0  0  0  0
    7.3760   -0.6637   20.9696 C   0  0  0  0  0  0  0  0  0  0  0  0
    6.6509   -0.0044   19.8899 C   0  0  0  0  0  0  0  0  0  0  0  0
    7.1651    0.0432   18.5799 C   0  0  0  0  0  0  0  0  0  0  0  0
    8.1177   -0.4291   18.3603 H   0  0  0  0  0  0  0  0  0  0  0  0
    6.5638    0.6749   17.5673 N   0  0  0  0  0  0  0  0  0  0  0  0
    5.4029    1.2923   17.8341 C   0  0  0  0  0  0  0  0  0  0  0  0
    4.9213    1.7861   16.9935 H   0  0  0  0  0  0  0  0  0  0  0  0
    4.8059    1.3109   19.0997 C   0  0  0  0  0  0  0  0  0  0  0  0
    3.8759    1.8411   19.2558 H   0  0  0  0  0  0  0  0  0  0  0  0
    5.4424    0.6563   20.1528 C   0  0  0  0  0  0  0  0  0  0  0  0
    5.0056    0.6316   21.1565 H   0  0  0  0  0  0  0  0  0  0  0  0
    7.9031   -1.9091   20.7835 O   0  0  0  0  0  0  0  0  0  0  0  0
  1  2  1  0
  2  3  2  0
  3  4  1  0
  4  5  1  0
  5  6  1  0
  5  7  1  0
  5  8  1  0
  8  9  1  0
  8 10  1  0
  8 11  1  0
 11 12  1  0
 11 13  1  0
 11 14  1  0
 14 15  1  0
 14 16  1  0
 14 17  1  0
 17 18  1  0
 17 19  1  0
 17 20  1  0
 20 21  1  0
 20 22  1  0
 20 23  1  0
 23 24  1  0
 23 25  1  0
 23 26  1  0
 26 27  1  0
 26 28  1  0
 26 29  1  0
  4 30  2  0
 30 31  1  0
 31 32  2  0
 32 33  1  0
 32 34  1  0
 34 35  2  0
 35 36  1  0
 35 37  1  0
 37 38  1  0
 37 39  2  0
 39 40  1  0
 30 41  1  0
 41  2  1  0
 39 31  1  0
M  END
>  <cnnaffinity>  (1) 
-5.32391

>  <filename>  (1) 
CCCCCCCCc1ncoc1-c1cccnc1

$$$$
