
     RDKit          3D

 41 42  0  0  0  0  0  0  0  0999 V2000
    8.8118   -3.5504   21.7705 H   0  0  0  0  0  0  0  0  0  0  0  0
    8.4056   -2.5448   21.7369 C   0  0  0  0  0  0  0  0  0  0  0  0
    7.8440   -2.0183   20.6980 N   0  0  0  0  0  0  0  0  0  0  0  0
    7.4031   -0.7396   20.9735 C   0  0  0  0  0  0  0  0  0  0  0  0
    6.6503   -0.0255   19.9320 C   0  0  0  0  0  0  0  0  0  0  0  0
    7.1674   -0.0159   18.6263 C   0  0  0  0  0  0  0  0  0  0  0  0
    8.0918   -0.5494   18.4188 H   0  0  0  0  0  0  0  0  0  0  0  0
    6.6075    0.6299   17.6003 N   0  0  0  0  0  0  0  0  0  0  0  0
    5.4580    1.2812   17.8355 C   0  0  0  0  0  0  0  0  0  0  0  0
    5.0177    1.8023   16.9853 H   0  0  0  0  0  0  0  0  0  0  0  0
    4.8322    1.2977   19.0841 C   0  0  0  0  0  0  0  0  0  0  0  0
    3.8981    1.8294   19.2029 H   0  0  0  0  0  0  0  0  0  0  0  0
    5.4352    0.6422   20.1569 C   0  0  0  0  0  0  0  0  0  0  0  0
    4.9645    0.6455   21.1430 H   0  0  0  0  0  0  0  0  0  0  0  0
    7.7185   -0.2659   22.2217 C   0  0  0  0  0  0  0  0  0  0  0  0
    7.6140    1.1477   22.6953 C   0  0  0  0  0  0  0  0  0  0  0  0
    7.7355    1.2040   23.7841 H   0  0  0  0  0  0  0  0  0  0  0  0
    6.5953    1.4919   22.4817 H   0  0  0  0  0  0  0  0  0  0  0  0
    8.5737    2.1073   21.9729 C   0  0  0  0  0  0  0  0  0  0  0  0
    8.4222    2.0149   20.8887 H   0  0  0  0  0  0  0  0  0  0  0  0
    9.6135    1.8046   22.1616 H   0  0  0  0  0  0  0  0  0  0  0  0
    8.3422    3.5559   22.4048 C   0  0  0  0  0  0  0  0  0  0  0  0
    8.7596    4.2306   21.6528 H   0  0  0  0  0  0  0  0  0  0  0  0
    7.2578    3.7555   22.4021 H   0  0  0  0  0  0  0  0  0  0  0  0
    8.8742    3.9181   23.8007 C   0  0  0  0  0  0  0  0  0  0  0  0
    8.2058    3.4873   24.5682 H   0  0  0  0  0  0  0  0  0  0  0  0
    9.8737    3.4908   23.9868 H   0  0  0  0  0  0  0  0  0  0  0  0
    8.9716    5.4373   23.9542 C   0  0  0  0  0  0  0  0  0  0  0  0
    9.6943    5.8188   23.2101 H   0  0  0  0  0  0  0  0  0  0  0  0
    8.0012    5.8774   23.6826 H   0  0  0  0  0  0  0  0  0  0  0  0
    9.3931    5.8932   25.3516 C   0  0  0  0  0  0  0  0  0  0  0  0
   10.3778    5.4523   25.5723 H   0  0  0  0  0  0  0  0  0  0  0  0
    8.6917    5.4881   26.0987 H   0  0  0  0  0  0  0  0  0  0  0  0
    9.4843    7.4156   25.5333 C   0  0  0  0  0  0  0  0  0  0  0  0
    9.8885    7.6189   26.5351 H   0  0  0  0  0  0  0  0  0  0  0  0
   10.2162    7.8099   24.8193 H   0  0  0  0  0  0  0  0  0  0  0  0
    8.1631    8.1733   25.3594 C   0  0  0  0  0  0  0  0  0  0  0  0
    7.7758    8.0882   24.3352 H   0  0  0  0  0  0  0  0  0  0  0  0
    7.3936    7.7894   26.0432 H   0  0  0  0  0  0  0  0  0  0  0  0
    8.3048    9.2410   25.5703 H   0  0  0  0  0  0  0  0  0  0  0  0
    8.4954   -1.5211   23.1194 S   0  0  0  0  0  0  0  0  0  0  0  0
  1  2  1  0
  2  3  2  0
  3  4  1  0
  4  5  1  0
  5  6  2  0
  6  7  1  0
  6  8  1  0
  8  9  2  0
  9 10  1  0
  9 11  1  0
 11 12  1  0
 11 13  2  0
 13 14  1  0
  4 15  2  0
 15 16  1  0
 16 17  1  0
 16 18  1  0
 16 19  1  0
 19 20  1  0
 19 21  1  0
 19 22  1  0
 22 23  1  0
 22 24  1  0
 22 25  1  0
 25 26  1  0
 25 27  1  0
 25 28  1  0
 28 29  1  0
 28 30  1  0
 28 31  1  0
 31 32  1  0
 31 33  1  0
 31 34  1  0
 34 35  1  0
 34 36  1  0
 34 37  1  0
 37 38  1  0
 37 39  1  0
 37 40  1  0
 15 41  1  0
 41  2  1  0
 13  5  1  0
M  END
>  <cnnaffinity>  (1) 
-5.23981

>  <filename>  (1) 
CCCCCCCCc1scnc1-c1cccnc1

$$$$
