
     RDKit          3D

 40 41  0  0  0  0  0  0  0  0999 V2000
    4.9329    1.7834   17.0008 H   0  0  0  0  0  0  0  0  0  0  0  0
    5.4091    1.2842   17.8447 C   0  0  0  0  0  0  0  0  0  0  0  0
    6.5685    0.6602   17.5870 N   0  0  0  0  0  0  0  0  0  0  0  0
    7.1913    0.0496   18.6028 C   0  0  0  0  0  0  0  0  0  0  0  0
    8.1330   -0.4410   18.3624 H   0  0  0  0  0  0  0  0  0  0  0  0
    6.6884    0.0180   19.9134 C   0  0  0  0  0  0  0  0  0  0  0  0
    7.2752   -0.6680   20.9484 O   0  0  0  0  0  0  0  0  0  0  0  0
    8.6383   -0.7328   21.0845 C   0  0  0  0  0  0  0  0  0  0  0  0
    9.6592    0.1205   20.6222 C   0  0  0  0  0  0  0  0  0  0  0  0
    9.5980    0.9657   19.9533 H   0  0  0  0  0  0  0  0  0  0  0  0
   10.8424   -0.2466   21.1032 N   0  0  0  0  0  0  0  0  0  0  0  0
   10.5781   -1.3186   21.8532 N   0  0  0  0  0  0  0  0  0  0  0  0
   11.3409   -1.7605   22.3452 H   0  0  0  0  0  0  0  0  0  0  0  0
    9.2622   -1.6680   21.8906 C   0  0  0  0  0  0  0  0  0  0  0  0
    8.7167   -2.7262   22.7940 C   0  0  0  0  0  0  0  0  0  0  0  0
    9.3734   -3.6047   22.7949 H   0  0  0  0  0  0  0  0  0  0  0  0
    7.7569   -3.0512   22.3750 H   0  0  0  0  0  0  0  0  0  0  0  0
    8.4944   -2.2318   24.2364 C   0  0  0  0  0  0  0  0  0  0  0  0
    8.1916   -3.0829   24.8615 H   0  0  0  0  0  0  0  0  0  0  0  0
    9.4462   -1.8805   24.6603 H   0  0  0  0  0  0  0  0  0  0  0  0
    7.4378   -1.1238   24.3339 C   0  0  0  0  0  0  0  0  0  0  0  0
    7.7861   -0.2255   23.8016 H   0  0  0  0  0  0  0  0  0  0  0  0
    6.5258   -1.4420   23.8123 H   0  0  0  0  0  0  0  0  0  0  0  0
    7.0898   -0.7472   25.7732 C   0  0  0  0  0  0  0  0  0  0  0  0
    6.8393   -1.6605   26.3397 H   0  0  0  0  0  0  0  0  0  0  0  0
    6.1735   -0.1417   25.7841 H   0  0  0  0  0  0  0  0  0  0  0  0
    8.2105    0.0080   26.5005 C   0  0  0  0  0  0  0  0  0  0  0  0
    9.1154   -0.6160   26.5269 H   0  0  0  0  0  0  0  0  0  0  0  0
    8.4776    0.9109   25.9304 H   0  0  0  0  0  0  0  0  0  0  0  0
    7.8212    0.3820   27.9314 C   0  0  0  0  0  0  0  0  0  0  0  0
    7.3793   -0.5140   28.3653 H   0  0  0  0  0  0  0  0  0  0  0  0
    8.7102    0.6261   28.5197 H   0  0  0  0  0  0  0  0  0  0  0  0
    6.7862    1.5000   28.0566 C   0  0  0  0  0  0  0  0  0  0  0  0
    5.8158    1.1668   27.6715 H   0  0  0  0  0  0  0  0  0  0  0  0
    6.6439    1.7762   29.1080 H   0  0  0  0  0  0  0  0  0  0  0  0
    7.0828    2.3979   27.5008 H   0  0  0  0  0  0  0  0  0  0  0  0
    5.4652    0.6451   20.1743 C   0  0  0  0  0  0  0  0  0  0  0  0
    5.0468    0.6060   21.1803 H   0  0  0  0  0  0  0  0  0  0  0  0
    4.8283    1.2980   19.1163 C   0  0  0  0  0  0  0  0  0  0  0  0
    3.8942    1.8223   19.2663 H   0  0  0  0  0  0  0  0  0  0  0  0
  1  2  1  0
  2  3  2  0
  3  4  1  0
  4  5  1  0
  4  6  2  0
  6  7  1  0
  7  8  1  0
  8  9  1  0
  9 10  1  0
  9 11  2  0
 11 12  1  0
 12 13  1  0
 12 14  1  0
 14 15  1  0
 15 16  1  0
 15 17  1  0
 15 18  1  0
 18 19  1  0
 18 20  1  0
 18 21  1  0
 21 22  1  0
 21 23  1  0
 21 24  1  0
 24 25  1  0
 24 26  1  0
 24 27  1  0
 27 28  1  0
 27 29  1  0
 27 30  1  0
 30 31  1  0
 30 32  1  0
 30 33  1  0
 33 34  1  0
 33 35  1  0
 33 36  1  0
  6 37  1  0
 37 38  1  0
 37 39  2  0
 39 40  1  0
 39  2  1  0
 14  8  2  0
M  END
>  <cnnaffinity>  (1) 
-5.43629

>  <filename>  (1) 
CCCCCCCc1[nH]ncc1Oc1cccnc1

$$$$
