
     RDKit          3D

 49 51  0  0  0  0  0  0  0  0999 V2000
    5.0563    1.8040   16.8469 H   0  0  0  0  0  0  0  0  0  0  0  0
    5.4386    1.2951   17.7296 C   0  0  0  0  0  0  0  0  0  0  0  0
    6.5823    0.6133   17.5708 N   0  0  0  0  0  0  0  0  0  0  0  0
    7.0873   -0.0018   18.6441 C   0  0  0  0  0  0  0  0  0  0  0  0
    8.0200   -0.5407   18.4829 H   0  0  0  0  0  0  0  0  0  0  0  0
    6.5006    0.0367   19.9242 C   0  0  0  0  0  0  0  0  0  0  0  0
    7.2057   -0.5951   21.0526 C   0  0  0  0  0  0  0  0  0  0  0  0
    7.8355   -1.7540   20.8685 N   0  0  0  0  0  0  0  0  0  0  0  0
    8.4327   -1.9738   22.0373 N   0  0  0  0  0  0  0  0  0  0  0  0
    8.2800   -1.0014   22.9494 C   0  0  0  0  0  0  0  0  0  0  0  0
    7.4422   -0.0646   22.3670 C   0  0  0  0  0  0  0  0  0  0  0  0
    7.1227    1.3464   22.7957 C   0  0  0  0  0  0  0  0  0  0  0  0
    6.0442    1.5274   22.7302 H   0  0  0  0  0  0  0  0  0  0  0  0
    7.3792    1.4884   23.8540 H   0  0  0  0  0  0  0  0  0  0  0  0
    7.8694    2.3686   21.9159 C   0  0  0  0  0  0  0  0  0  0  0  0
    7.5398    2.2358   20.8768 H   0  0  0  0  0  0  0  0  0  0  0  0
    7.5836    3.3906   22.2004 H   0  0  0  0  0  0  0  0  0  0  0  0
    9.3906    2.1988   21.9788 C   0  0  0  0  0  0  0  0  0  0  0  0
    9.6365    1.1677   21.6766 H   0  0  0  0  0  0  0  0  0  0  0  0
    9.8569    2.8385   21.2264 H   0  0  0  0  0  0  0  0  0  0  0  0
    9.9896    2.5046   23.3535 C   0  0  0  0  0  0  0  0  0  0  0  0
    9.8283    3.5672   23.5868 H   0  0  0  0  0  0  0  0  0  0  0  0
    9.4602    1.9409   24.1296 H   0  0  0  0  0  0  0  0  0  0  0  0
   11.4752    2.1956   23.4771 C   0  0  0  0  0  0  0  0  0  0  0  0
   11.6374    1.1110   23.3838 H   0  0  0  0  0  0  0  0  0  0  0  0
   11.8085    2.4590   24.4905 H   0  0  0  0  0  0  0  0  0  0  0  0
   12.3676    2.9091   22.4621 C   0  0  0  0  0  0  0  0  0  0  0  0
   12.0968    3.9705   22.3850 H   0  0  0  0  0  0  0  0  0  0  0  0
   12.2284    2.4727   21.4656 H   0  0  0  0  0  0  0  0  0  0  0  0
   13.8350    2.7930   22.8479 C   0  0  0  0  0  0  0  0  0  0  0  0
   14.4711    3.3618   22.1570 H   0  0  0  0  0  0  0  0  0  0  0  0
   13.9639    3.2853   23.8140 H   0  0  0  0  0  0  0  0  0  0  0  0
   14.2930    1.3275   22.9198 C   0  0  0  0  0  0  0  0  0  0  0  0
   15.3563    1.2452   22.7198 H   0  0  0  0  0  0  0  0  0  0  0  0
   14.0895    0.8650   23.8923 H   0  0  0  0  0  0  0  0  0  0  0  0
   13.8185    0.7142   22.1486 H   0  0  0  0  0  0  0  0  0  0  0  0
    9.2210   -1.2633   24.1008 C   0  0  0  0  0  0  0  0  0  0  0  0
    8.6945   -1.2913   25.0571 H   0  0  0  0  0  0  0  0  0  0  0  0
    9.9746   -0.4708   24.1702 H   0  0  0  0  0  0  0  0  0  0  0  0
    9.8706   -2.6377   23.7468 C   0  0  0  0  0  0  0  0  0  0  0  0
    9.5243   -3.4197   24.4240 H   0  0  0  0  0  0  0  0  0  0  0  0
   10.9561   -2.6108   23.8109 H   0  0  0  0  0  0  0  0  0  0  0  0
    9.4420   -2.9613   22.2981 C   0  0  0  0  0  0  0  0  0  0  0  0
    9.0100   -3.9552   22.1741 H   0  0  0  0  0  0  0  0  0  0  0  0
   10.2554   -2.8270   21.5776 H   0  0  0  0  0  0  0  0  0  0  0  0
    5.2877    0.7282   20.0628 C   0  0  0  0  0  0  0  0  0  0  0  0
    4.7831    0.7743   21.0283 H   0  0  0  0  0  0  0  0  0  0  0  0
    4.7516    1.3705   18.9463 C   0  0  0  0  0  0  0  0  0  0  0  0
    3.8349    1.9409   19.0138 H   0  0  0  0  0  0  0  0  0  0  0  0
  1  2  1  0
  2  3  2  0
  3  4  1  0
  4  5  1  0
  4  6  2  0
  6  7  1  0
  7  8  2  0
  8  9  1  0
  9 10  1  0
 10 11  2  0
 11 12  1  0
 12 13  1  0
 12 14  1  0
 12 15  1  0
 15 16  1  0
 15 17  1  0
 15 18  1  0
 18 19  1  0
 18 20  1  0
 18 21  1  0
 21 22  1  0
 21 23  1  0
 21 24  1  0
 24 25  1  0
 24 26  1  0
 24 27  1  0
 27 28  1  0
 27 29  1  0
 27 30  1  0
 30 31  1  0
 30 32  1  0
 30 33  1  0
 33 34  1  0
 33 35  1  0
 33 36  1  0
 10 37  1  0
 37 38  1  0
 37 39  1  0
 37 40  1  0
 40 41  1  0
 40 42  1  0
 40 43  1  0
 43 44  1  0
 43 45  1  0
  6 46  1  0
 46 47  1  0
 46 48  2  0
 48 49  1  0
 48  2  1  0
 11  7  1  0
 43  9  1  0
M  END
>  <cnnaffinity>  (1) 
-6.07222

>  <filename>  (1) 
CCCCCCCCc1c(-c2cccnc2)nn2c1CCC2

$$$$
