
     RDKit          3D

 40 41  0  0  0  0  0  0  0  0999 V2000
    4.9226    1.7950   16.9945 H   0  0  0  0  0  0  0  0  0  0  0  0
    5.3923    1.2913   17.8337 C   0  0  0  0  0  0  0  0  0  0  0  0
    6.5490    0.6646   17.5623 N   0  0  0  0  0  0  0  0  0  0  0  0
    7.1720    0.0546   18.5757 C   0  0  0  0  0  0  0  0  0  0  0  0
    8.1275   -0.4172   18.3597 H   0  0  0  0  0  0  0  0  0  0  0  0
    6.6688    0.0117   19.8937 C   0  0  0  0  0  0  0  0  0  0  0  0
    7.3624   -0.6563   20.9347 N   0  0  0  0  0  0  0  0  0  0  0  0
    6.7612   -1.4481   21.9185 C   0  0  0  0  0  0  0  0  0  0  0  0
    5.6916   -1.5842   21.9537 H   0  0  0  0  0  0  0  0  0  0  0  0
    7.7203   -1.9446   22.7321 C   0  0  0  0  0  0  0  0  0  0  0  0
    7.6273   -2.7330   23.9922 C   0  0  0  0  0  0  0  0  0  0  0  0
    6.6519   -3.2389   24.0129 H   0  0  0  0  0  0  0  0  0  0  0  0
    8.3765   -3.5342   23.9984 H   0  0  0  0  0  0  0  0  0  0  0  0
    7.7658   -1.8646   25.2570 C   0  0  0  0  0  0  0  0  0  0  0  0
    8.7272   -1.3332   25.2271 H   0  0  0  0  0  0  0  0  0  0  0  0
    7.8135   -2.5191   26.1380 H   0  0  0  0  0  0  0  0  0  0  0  0
    6.6316   -0.8394   25.4164 C   0  0  0  0  0  0  0  0  0  0  0  0
    6.5520   -0.2294   24.5051 H   0  0  0  0  0  0  0  0  0  0  0  0
    5.6704   -1.3697   25.5033 H   0  0  0  0  0  0  0  0  0  0  0  0
    6.8032    0.0947   26.6225 C   0  0  0  0  0  0  0  0  0  0  0  0
    5.9898    0.8330   26.6394 H   0  0  0  0  0  0  0  0  0  0  0  0
    7.7313    0.6735   26.4977 H   0  0  0  0  0  0  0  0  0  0  0  0
    6.8747   -0.6272   27.9731 C   0  0  0  0  0  0  0  0  0  0  0  0
    7.0191    0.1220   28.7649 H   0  0  0  0  0  0  0  0  0  0  0  0
    7.7896   -1.2366   27.9493 H   0  0  0  0  0  0  0  0  0  0  0  0
    5.6591   -1.4993   28.3377 C   0  0  0  0  0  0  0  0  0  0  0  0
    5.5876   -2.3399   27.6324 H   0  0  0  0  0  0  0  0  0  0  0  0
    5.7930   -1.9485   29.3277 H   0  0  0  0  0  0  0  0  0  0  0  0
    4.3403   -0.7293   28.3962 C   0  0  0  0  0  0  0  0  0  0  0  0
    4.4341    0.1297   29.0734 H   0  0  0  0  0  0  0  0  0  0  0  0
    3.5336   -1.3653   28.7759 H   0  0  0  0  0  0  0  0  0  0  0  0
    4.0417   -0.3478   27.4142 H   0  0  0  0  0  0  0  0  0  0  0  0
    8.9221   -1.4507   22.2356 N   0  0  0  0  0  0  0  0  0  0  0  0
    9.8634   -1.5493   22.5572 H   0  0  0  0  0  0  0  0  0  0  0  0
    8.7520   -0.6577   21.1393 C   0  0  0  0  0  0  0  0  0  0  0  0
    9.6463   -0.1147   20.5203 O   0  0  0  0  0  0  0  0  0  0  0  0
    5.4493    0.6481   20.1584 C   0  0  0  0  0  0  0  0  0  0  0  0
    5.0403    0.6358   21.1722 H   0  0  0  0  0  0  0  0  0  0  0  0
    4.8095    1.3081   19.1051 C   0  0  0  0  0  0  0  0  0  0  0  0
    3.8796    1.8379   19.2602 H   0  0  0  0  0  0  0  0  0  0  0  0
  1  2  1  0
  2  3  2  0
  3  4  1  0
  4  5  1  0
  4  6  2  0
  6  7  1  0
  7  8  1  0
  8  9  1  0
  8 10  2  0
 10 11  1  0
 11 12  1  0
 11 13  1  0
 11 14  1  0
 14 15  1  0
 14 16  1  0
 14 17  1  0
 17 18  1  0
 17 19  1  0
 17 20  1  0
 20 21  1  0
 20 22  1  0
 20 23  1  0
 23 24  1  0
 23 25  1  0
 23 26  1  0
 26 27  1  0
 26 28  1  0
 26 29  1  0
 29 30  1  0
 29 31  1  0
 29 32  1  0
 10 33  1  0
 33 34  1  0
 33 35  1  0
 35 36  2  0
  6 37  1  0
 37 38  1  0
 37 39  2  0
 39 40  1  0
 39  2  1  0
 35  7  1  0
M  END
>  <cnnaffinity>  (1) 
-5.00311

>  <filename>  (1) 
CCCCCCCc1cn(-c2cccnc2)c(=O)[nH]1

$$$$
