
     RDKit          3D

 37 39  0  0  0  0  0  0  0  0999 V2000
    5.0231    1.8636   16.9928 H   0  0  0  0  0  0  0  0  0  0  0  0
    5.5567    1.3350   17.7808 C   0  0  0  0  0  0  0  0  0  0  0  0
    6.7042    0.7400   17.4173 N   0  0  0  0  0  0  0  0  0  0  0  0
    7.4068    0.0910   18.3560 C   0  0  0  0  0  0  0  0  0  0  0  0
    8.3471   -0.3550   18.0234 H   0  0  0  0  0  0  0  0  0  0  0  0
    6.9669   -0.0322   19.6901 C   0  0  0  0  0  0  0  0  0  0  0  0
    7.6484   -0.8269   20.6461 N   0  0  0  0  0  0  0  0  0  0  0  0
    8.9811   -0.7215   21.0346 C   0  0  0  0  0  0  0  0  0  0  0  0
    9.6021    0.0265   20.5696 H   0  0  0  0  0  0  0  0  0  0  0  0
    9.2271   -1.6085   22.0390 C   0  0  0  0  0  0  0  0  0  0  0  0
   10.0932   -1.8374   22.6343 H   0  0  0  0  0  0  0  0  0  0  0  0
    8.0289   -2.2702   22.2663 N   0  0  0  0  0  0  0  0  0  0  0  0
    7.5932   -3.2386   23.1178 N   0  0  0  0  0  0  0  0  0  0  0  0
    6.2966   -3.3315   22.8151 C   0  0  0  0  0  0  0  0  0  0  0  0
    5.3553   -4.3225   23.4397 C   0  0  0  0  0  0  0  0  0  0  0  0
    4.4361   -3.7810   23.7168 H   0  0  0  0  0  0  0  0  0  0  0  0
    5.7876   -4.7301   24.3645 H   0  0  0  0  0  0  0  0  0  0  0  0
    5.0241   -5.4285   22.4157 C   0  0  0  0  0  0  0  0  0  0  0  0
    4.7581   -4.9481   21.4649 H   0  0  0  0  0  0  0  0  0  0  0  0
    5.9499   -5.9902   22.2267 H   0  0  0  0  0  0  0  0  0  0  0  0
    3.8975   -6.3996   22.7650 C   0  0  0  0  0  0  0  0  0  0  0  0
    3.7250   -7.0334   21.8850 H   0  0  0  0  0  0  0  0  0  0  0  0
    2.9565   -5.8488   22.9064 H   0  0  0  0  0  0  0  0  0  0  0  0
    4.1717   -7.2869   23.9783 C   0  0  0  0  0  0  0  0  0  0  0  0
    4.3466   -6.6524   24.8589 H   0  0  0  0  0  0  0  0  0  0  0  0
    5.1086   -7.8352   23.8009 H   0  0  0  0  0  0  0  0  0  0  0  0
    3.0464   -8.2772   24.2845 C   0  0  0  0  0  0  0  0  0  0  0  0
    2.1000   -7.7593   24.4877 H   0  0  0  0  0  0  0  0  0  0  0  0
    3.2919   -8.8759   25.1680 H   0  0  0  0  0  0  0  0  0  0  0  0
    2.8724   -8.9671   23.4486 H   0  0  0  0  0  0  0  0  0  0  0  0
    5.9003   -2.4506   21.7901 C   0  0  0  0  0  0  0  0  0  0  0  0
    4.8987   -2.3278   21.4463 H   0  0  0  0  0  0  0  0  0  0  0  0
    7.0719   -1.7946   21.4461 C   0  0  0  0  0  0  0  0  0  0  0  0
    5.7774    0.6096   20.0650 C   0  0  0  0  0  0  0  0  0  0  0  0
    5.4600    0.5704   21.1101 H   0  0  0  0  0  0  0  0  0  0  0  0
    5.0592    1.3034   19.0904 C   0  0  0  0  0  0  0  0  0  0  0  0
    4.1393    1.8234   19.3345 H   0  0  0  0  0  0  0  0  0  0  0  0
  1  2  1  0
  2  3  2  0
  3  4  1  0
  4  5  1  0
  4  6  2  0
  6  7  1  0
  7  8  1  0
  8  9  1  0
  8 10  2  0
 10 11  1  0
 10 12  1  0
 12 13  1  0
 13 14  2  0
 14 15  1  0
 15 16  1  0
 15 17  1  0
 15 18  1  0
 18 19  1  0
 18 20  1  0
 18 21  1  0
 21 22  1  0
 21 23  1  0
 21 24  1  0
 24 25  1  0
 24 26  1  0
 24 27  1  0
 27 28  1  0
 27 29  1  0
 27 30  1  0
 14 31  1  0
 31 32  1  0
 31 33  2  0
  6 34  1  0
 34 35  1  0
 34 36  2  0
 36 37  1  0
 36  2  1  0
 33  7  1  0
 33 12  1  0
M  END
>  <cnnaffinity>  (1) 
-5.28538

>  <filename>  (1) 
CCCCCc1cc2n(-c3cccnc3)ccn2n1

$$$$
