
     RDKit          3D

 34 35  0  0  0  0  0  0  0  0999 V2000
    5.0337    1.8132   16.9314 H   0  0  0  0  0  0  0  0  0  0  0  0
    5.4972    1.2944   17.7672 C   0  0  0  0  0  0  0  0  0  0  0  0
    6.6418    0.6517   17.4912 N   0  0  0  0  0  0  0  0  0  0  0  0
    7.2281   -0.0031   18.5007 C   0  0  0  0  0  0  0  0  0  0  0  0
    8.1562   -0.5188   18.2615 H   0  0  0  0  0  0  0  0  0  0  0  0
    6.7098   -0.0704   19.8086 C   0  0  0  0  0  0  0  0  0  0  0  0
    7.3991   -0.8606   20.8341 C   0  0  0  0  0  0  0  0  0  0  0  0
    6.9519   -1.3285   22.0176 C   0  0  0  0  0  0  0  0  0  0  0  0
    5.9732   -1.2541   22.4400 H   0  0  0  0  0  0  0  0  0  0  0  0
    8.0640   -1.9341   22.7324 C   0  0  0  0  0  0  0  0  0  0  0  0
    8.1333   -2.4503   23.8424 O   0  0  0  0  0  0  0  0  0  0  0  0
    9.1372   -1.7820   21.8667 N   0  0  0  0  0  0  0  0  0  0  0  0
   10.5272   -1.8332   22.2690 C   0  0  0  0  0  0  0  0  0  0  0  0
   11.1080   -2.3132   21.4761 H   0  0  0  0  0  0  0  0  0  0  0  0
   10.5355   -2.5087   23.1264 H   0  0  0  0  0  0  0  0  0  0  0  0
   11.1611   -0.4810   22.6366 C   0  0  0  0  0  0  0  0  0  0  0  0
   11.1512    0.1779   21.7599 H   0  0  0  0  0  0  0  0  0  0  0  0
   12.2277   -0.6648   22.8244 H   0  0  0  0  0  0  0  0  0  0  0  0
   10.5507    0.2501   23.8422 C   0  0  0  0  0  0  0  0  0  0  0  0
   11.0857    1.2032   23.9692 H   0  0  0  0  0  0  0  0  0  0  0  0
    9.5028    0.5228   23.6450 H   0  0  0  0  0  0  0  0  0  0  0  0
   10.6484   -0.5394   25.1495 C   0  0  0  0  0  0  0  0  0  0  0  0
   10.0836   -1.4779   25.0632 H   0  0  0  0  0  0  0  0  0  0  0  0
   11.7046   -0.7970   25.3078 H   0  0  0  0  0  0  0  0  0  0  0  0
   10.1409    0.2255   26.3703 C   0  0  0  0  0  0  0  0  0  0  0  0
    9.0616    0.4146   26.3047 H   0  0  0  0  0  0  0  0  0  0  0  0
   10.6534    1.1910   26.4738 H   0  0  0  0  0  0  0  0  0  0  0  0
   10.3139   -0.3495   27.2882 H   0  0  0  0  0  0  0  0  0  0  0  0
    8.7479   -1.2006   20.6435 N   0  0  0  0  0  0  0  0  0  0  0  0
    9.3089   -0.3797   20.4188 H   0  0  0  0  0  0  0  0  0  0  0  0
    5.5208    0.6316   20.0804 C   0  0  0  0  0  0  0  0  0  0  0  0
    5.1013    0.6678   21.0893 H   0  0  0  0  0  0  0  0  0  0  0  0
    4.9021    1.3231   19.0352 C   0  0  0  0  0  0  0  0  0  0  0  0
    3.9828    1.8822   19.1879 H   0  0  0  0  0  0  0  0  0  0  0  0
  1  2  1  0
  2  3  2  0
  3  4  1  0
  4  5  1  0
  4  6  2  0
  6  7  1  0
  7  8  2  0
  8  9  1  0
  8 10  1  0
 10 11  2  0
 10 12  1  0
 12 13  1  0
 13 14  1  0
 13 15  1  0
 13 16  1  0
 16 17  1  0
 16 18  1  0
 16 19  1  0
 19 20  1  0
 19 21  1  0
 19 22  1  0
 22 23  1  0
 22 24  1  0
 22 25  1  0
 25 26  1  0
 25 27  1  0
 25 28  1  0
 12 29  1  0
 29 30  1  0
  6 31  1  0
 31 32  1  0
 31 33  2  0
 33 34  1  0
 33  2  1  0
 29  7  1  0
M  END
>  <cnnaffinity>  (1) 
-4.78233

>  <filename>  (1) 
CCCCCn1[nH]c(-c2cccnc2)cc1=O

$$$$
