
     RDKit          3D

 44 45  0  0  0  0  0  0  0  0999 V2000
    4.9229    1.8032   16.9707 H   0  0  0  0  0  0  0  0  0  0  0  0
    5.3896    1.3039   17.8175 C   0  0  0  0  0  0  0  0  0  0  0  0
    6.5508    0.6827   17.5584 N   0  0  0  0  0  0  0  0  0  0  0  0
    7.1596    0.0746   18.5841 C   0  0  0  0  0  0  0  0  0  0  0  0
    8.1034   -0.4190   18.3506 H   0  0  0  0  0  0  0  0  0  0  0  0
    6.6497    0.0195   19.8919 C   0  0  0  0  0  0  0  0  0  0  0  0
    7.3764   -0.7020   20.9595 C   0  0  0  0  0  0  0  0  0  0  0  0
    8.7582   -0.5771   21.1262 C   0  0  0  0  0  0  0  0  0  0  0  0
    9.3330    0.0735   20.4809 H   0  0  0  0  0  0  0  0  0  0  0  0
    9.3739   -1.2705   22.1638 C   0  0  0  0  0  0  0  0  0  0  0  0
   10.4456   -1.1910   22.3224 H   0  0  0  0  0  0  0  0  0  0  0  0
    8.7253   -2.0754   23.0155 N   0  0  0  0  0  0  0  0  0  0  0  0
    7.3975   -2.2007   22.8599 C   0  0  0  0  0  0  0  0  0  0  0  0
    6.6957   -3.1335   23.8139 C   0  0  0  0  0  0  0  0  0  0  0  0
    7.0354   -2.9033   24.8298 H   0  0  0  0  0  0  0  0  0  0  0  0
    5.6188   -2.9244   23.7740 H   0  0  0  0  0  0  0  0  0  0  0  0
    6.9620   -4.6181   23.4900 C   0  0  0  0  0  0  0  0  0  0  0  0
    8.0427   -4.7976   23.5704 H   0  0  0  0  0  0  0  0  0  0  0  0
    6.4853   -5.2430   24.2568 H   0  0  0  0  0  0  0  0  0  0  0  0
    6.4883   -5.0614   22.0989 C   0  0  0  0  0  0  0  0  0  0  0  0
    6.7969   -6.1046   21.9421 H   0  0  0  0  0  0  0  0  0  0  0  0
    7.0120   -4.4789   21.3266 H   0  0  0  0  0  0  0  0  0  0  0  0
    4.9764   -4.9739   21.8493 C   0  0  0  0  0  0  0  0  0  0  0  0
    4.8151   -5.3044   20.8151 H   0  0  0  0  0  0  0  0  0  0  0  0
    4.6369   -3.9261   21.8975 H   0  0  0  0  0  0  0  0  0  0  0  0
    4.1243   -5.8380   22.7889 C   0  0  0  0  0  0  0  0  0  0  0  0
    4.2389   -5.4859   23.8264 H   0  0  0  0  0  0  0  0  0  0  0  0
    4.5152   -6.8688   22.7799 H   0  0  0  0  0  0  0  0  0  0  0  0
    2.6359   -5.8596   22.4196 C   0  0  0  0  0  0  0  0  0  0  0  0
    2.2294   -4.8360   22.4615 H   0  0  0  0  0  0  0  0  0  0  0  0
    2.5141   -6.1909   21.3855 H   0  0  0  0  0  0  0  0  0  0  0  0
    1.7819   -6.7936   23.2841 C   0  0  0  0  0  0  0  0  0  0  0  0
    0.7988   -6.9048   22.8065 H   0  0  0  0  0  0  0  0  0  0  0  0
    2.2314   -7.7988   23.2707 H   0  0  0  0  0  0  0  0  0  0  0  0
    1.6101   -6.3026   24.7236 C   0  0  0  0  0  0  0  0  0  0  0  0
    2.5662   -6.2920   25.2610 H   0  0  0  0  0  0  0  0  0  0  0  0
    1.2199   -5.2766   24.7361 H   0  0  0  0  0  0  0  0  0  0  0  0
    0.9150   -6.9361   25.2849 H   0  0  0  0  0  0  0  0  0  0  0  0
    6.7008   -1.5355   21.8497 C   0  0  0  0  0  0  0  0  0  0  0  0
    5.6347   -1.6746   21.7406 H   0  0  0  0  0  0  0  0  0  0  0  0
    5.4267    0.6616   20.1358 C   0  0  0  0  0  0  0  0  0  0  0  0
    5.0084    0.6466   21.1454 H   0  0  0  0  0  0  0  0  0  0  0  0
    4.7940    1.3235   19.0849 C   0  0  0  0  0  0  0  0  0  0  0  0
    3.8621    1.8534   19.2326 H   0  0  0  0  0  0  0  0  0  0  0  0
  1  2  1  0
  2  3  2  0
  3  4  1  0
  4  5  1  0
  4  6  2  0
  6  7  1  0
  7  8  2  0
  8  9  1  0
  8 10  1  0
 10 11  1  0
 10 12  2  0
 12 13  1  0
 13 14  1  0
 14 15  1  0
 14 16  1  0
 14 17  1  0
 17 18  1  0
 17 19  1  0
 17 20  1  0
 20 21  1  0
 20 22  1  0
 20 23  1  0
 23 24  1  0
 23 25  1  0
 23 26  1  0
 26 27  1  0
 26 28  1  0
 26 29  1  0
 29 30  1  0
 29 31  1  0
 29 32  1  0
 32 33  1  0
 32 34  1  0
 32 35  1  0
 35 36  1  0
 35 37  1  0
 35 38  1  0
 13 39  2  0
 39 40  1  0
  6 41  1  0
 41 42  1  0
 41 43  2  0
 43 44  1  0
 43  2  1  0
 39  7  1  0
M  END
>  <cnnaffinity>  (1) 
-5.10292

>  <filename>  (1) 
CCCCCCCCc1cc(-c2cccnc2)ccn1

$$$$
