
     RDKit          3D

 37 38  0  0  0  0  0  0  0  0999 V2000
    4.9197    1.7834   16.9940 H   0  0  0  0  0  0  0  0  0  0  0  0
    5.4031    1.2934   17.8389 C   0  0  0  0  0  0  0  0  0  0  0  0
    6.5690    0.6748   17.5841 N   0  0  0  0  0  0  0  0  0  0  0  0
    7.1754    0.0490   18.5957 C   0  0  0  0  0  0  0  0  0  0  0  0
    8.1227   -0.4383   18.3810 H   0  0  0  0  0  0  0  0  0  0  0  0
    6.6576    0.0120   19.9040 C   0  0  0  0  0  0  0  0  0  0  0  0
    7.3808   -0.6562   20.9401 N   0  0  0  0  0  0  0  0  0  0  0  0
    7.8213   -1.9275   20.7959 N   0  0  0  0  0  0  0  0  0  0  0  0
    8.4323   -2.2342   21.8787 N   0  0  0  0  0  0  0  0  0  0  0  0
    8.4282   -1.2040   22.7526 N   0  0  0  0  0  0  0  0  0  0  0  0
    7.7773   -0.2261   22.1655 C   0  0  0  0  0  0  0  0  0  0  0  0
    7.6284    1.1789   22.6485 C   0  0  0  0  0  0  0  0  0  0  0  0
    7.8982    1.1726   23.7080 H   0  0  0  0  0  0  0  0  0  0  0  0
    6.5798    1.4905   22.5969 H   0  0  0  0  0  0  0  0  0  0  0  0
    8.5053    2.1727   21.8548 C   0  0  0  0  0  0  0  0  0  0  0  0
    8.3530    3.1833   22.2568 H   0  0  0  0  0  0  0  0  0  0  0  0
    8.1487    2.2031   20.8159 H   0  0  0  0  0  0  0  0  0  0  0  0
   10.0017    1.8293   21.8634 C   0  0  0  0  0  0  0  0  0  0  0  0
   10.5217    2.5292   21.2001 H   0  0  0  0  0  0  0  0  0  0  0  0
   10.1482    0.8349   21.4189 H   0  0  0  0  0  0  0  0  0  0  0  0
   10.6968    1.8698   23.2331 C   0  0  0  0  0  0  0  0  0  0  0  0
   11.7221    1.4999   23.1073 H   0  0  0  0  0  0  0  0  0  0  0  0
   10.2184    1.1460   23.9062 H   0  0  0  0  0  0  0  0  0  0  0  0
   10.7328    3.2592   23.8926 C   0  0  0  0  0  0  0  0  0  0  0  0
   11.7224    3.4363   24.3292 H   0  0  0  0  0  0  0  0  0  0  0  0
   10.6243    4.0340   23.1230 H   0  0  0  0  0  0  0  0  0  0  0  0
    9.6819    3.4877   24.9790 C   0  0  0  0  0  0  0  0  0  0  0  0
    8.6754    3.3176   24.5788 H   0  0  0  0  0  0  0  0  0  0  0  0
    9.8010    2.7149   25.7491 H   0  0  0  0  0  0  0  0  0  0  0  0
    9.7531    4.8859   25.5955 C   0  0  0  0  0  0  0  0  0  0  0  0
    9.0181    5.0077   26.3972 H   0  0  0  0  0  0  0  0  0  0  0  0
   10.7338    5.1356   26.0161 H   0  0  0  0  0  0  0  0  0  0  0  0
    9.5795    5.6554   24.8382 H   0  0  0  0  0  0  0  0  0  0  0  0
    5.4438    0.6542   20.1684 C   0  0  0  0  0  0  0  0  0  0  0  0
    5.0062    0.6241   21.1705 H   0  0  0  0  0  0  0  0  0  0  0  0
    4.8092    1.3075   19.1060 C   0  0  0  0  0  0  0  0  0  0  0  0
    3.8772    1.8390   19.2607 H   0  0  0  0  0  0  0  0  0  0  0  0
  1  2  1  0
  2  3  2  0
  3  4  1  0
  4  5  1  0
  4  6  2  0
  6  7  1  0
  7  8  1  0
  8  9  2  0
  9 10  1  0
 10 11  2  0
 11 12  1  0
 12 13  1  0
 12 14  1  0
 12 15  1  0
 15 16  1  0
 15 17  1  0
 15 18  1  0
 18 19  1  0
 18 20  1  0
 18 21  1  0
 21 22  1  0
 21 23  1  0
 21 24  1  0
 24 25  1  0
 24 26  1  0
 24 27  1  0
 27 28  1  0
 27 29  1  0
 27 30  1  0
 30 31  1  0
 30 32  1  0
 30 33  1  0
  6 34  1  0
 34 35  1  0
 34 36  2  0
 36 37  1  0
 36  2  1  0
 11  7  1  0
M  END
>  <cnnaffinity>  (1) 
-5.3416

>  <filename>  (1) 
CCCCCCCc1nnnn1-c1cccnc1

$$$$
