
     RDKit          3D

 32 34  0  0  0  0  0  0  0  0999 V2000
    5.0093    1.7645   16.9836 H   0  0  0  0  0  0  0  0  0  0  0  0
    5.4475    1.2702   17.8476 C   0  0  0  0  0  0  0  0  0  0  0  0
    6.6079    0.6328   17.6340 N   0  0  0  0  0  0  0  0  0  0  0  0
    7.1778    0.0234   18.6758 C   0  0  0  0  0  0  0  0  0  0  0  0
    8.1206   -0.4817   18.4776 H   0  0  0  0  0  0  0  0  0  0  0  0
    6.6242    0.0095   19.9650 C   0  0  0  0  0  0  0  0  0  0  0  0
    7.3638   -0.6978   21.0127 C   0  0  0  0  0  0  0  0  0  0  0  0
    8.5717   -1.2885   20.7659 N   0  0  0  0  0  0  0  0  0  0  0  0
    8.8640   -1.7921   21.9465 C   0  0  0  0  0  0  0  0  0  0  0  0
   10.1383   -2.7068   22.7034 S   0  0  0  0  0  0  0  0  0  0  0  0
    9.2474   -2.6847   24.2141 C   0  0  0  0  0  0  0  0  0  0  0  0
    9.6768   -3.1554   25.0888 H   0  0  0  0  0  0  0  0  0  0  0  0
    8.0799   -2.0139   24.1351 C   0  0  0  0  0  0  0  0  0  0  0  0
    7.0711   -1.7012   25.1967 C   0  0  0  0  0  0  0  0  0  0  0  0
    7.2340   -2.3816   26.0412 H   0  0  0  0  0  0  0  0  0  0  0  0
    6.0754   -1.9242   24.8000 H   0  0  0  0  0  0  0  0  0  0  0  0
    7.0859   -0.2271   25.6449 C   0  0  0  0  0  0  0  0  0  0  0  0
    6.8297    0.3774   24.7636 H   0  0  0  0  0  0  0  0  0  0  0  0
    6.2813   -0.0756   26.3799 H   0  0  0  0  0  0  0  0  0  0  0  0
    8.4079    0.2912   26.2289 C   0  0  0  0  0  0  0  0  0  0  0  0
    9.2354    0.1079   25.5288 H   0  0  0  0  0  0  0  0  0  0  0  0
    8.6628   -0.2353   27.1585 H   0  0  0  0  0  0  0  0  0  0  0  0
    8.3686    1.7913   26.5279 C   0  0  0  0  0  0  0  0  0  0  0  0
    9.3783    2.1807   26.6780 H   0  0  0  0  0  0  0  0  0  0  0  0
    7.7648    2.0227   27.4139 H   0  0  0  0  0  0  0  0  0  0  0  0
    7.9303    2.3443   25.6905 H   0  0  0  0  0  0  0  0  0  0  0  0
    7.8956   -1.5281   22.8396 N   0  0  0  0  0  0  0  0  0  0  0  0
    6.9076   -0.8121   22.2512 N   0  0  0  0  0  0  0  0  0  0  0  0
    5.4012    0.6708   20.1783 C   0  0  0  0  0  0  0  0  0  0  0  0
    4.9352    0.6817   21.1670 H   0  0  0  0  0  0  0  0  0  0  0  0
    4.8096    1.3110   19.0933 C   0  0  0  0  0  0  0  0  0  0  0  0
    3.8736    1.8510   19.1947 H   0  0  0  0  0  0  0  0  0  0  0  0
  1  2  1  0
  2  3  2  0
  3  4  1  0
  4  5  1  0
  4  6  2  0
  6  7  1  0
  7  8  1  0
  8  9  2  0
  9 10  1  0
 10 11  1  0
 11 12  1  0
 11 13  2  0
 13 14  1  0
 14 15  1  0
 14 16  1  0
 14 17  1  0
 17 18  1  0
 17 19  1  0
 17 20  1  0
 20 21  1  0
 20 22  1  0
 20 23  1  0
 23 24  1  0
 23 25  1  0
 23 26  1  0
 13 27  1  0
 27 28  1  0
  6 29  1  0
 29 30  1  0
 29 31  2  0
 31 32  1  0
 31  2  1  0
 28  7  2  0
 27  9  1  0
M  END
>  <cnnaffinity>  (1) 
-5.37987

>  <filename>  (1) 
CCCCc1csc2nc(-c3cccnc3)nn12

$$$$
