
     RDKit          3D

 43 45  0  0  0  0  0  0  0  0999 V2000
    4.9257    1.7748   17.0007 H   0  0  0  0  0  0  0  0  0  0  0  0
    5.4054    1.2881   17.8458 C   0  0  0  0  0  0  0  0  0  0  0  0
    6.5701    0.6701   17.5944 N   0  0  0  0  0  0  0  0  0  0  0  0
    7.1748    0.0567   18.6140 C   0  0  0  0  0  0  0  0  0  0  0  0
    8.1221   -0.4269   18.3726 H   0  0  0  0  0  0  0  0  0  0  0  0
    6.6480    0.0131   19.9166 C   0  0  0  0  0  0  0  0  0  0  0  0
    7.3478   -0.6874   20.9990 C   0  0  0  0  0  0  0  0  0  0  0  0
    6.8879   -0.7335   22.2108 N   0  0  0  0  0  0  0  0  0  0  0  0
    7.7403   -1.4571   22.9833 N   0  0  0  0  0  0  0  0  0  0  0  0
    7.7711   -1.9041   24.2837 C   0  0  0  0  0  0  0  0  0  0  0  0
    6.7068   -1.6515   25.2971 C   0  0  0  0  0  0  0  0  0  0  0  0
    6.4578   -0.5857   25.2828 H   0  0  0  0  0  0  0  0  0  0  0  0
    7.1225   -1.8900   26.2816 H   0  0  0  0  0  0  0  0  0  0  0  0
    5.4538   -2.4980   25.0426 C   0  0  0  0  0  0  0  0  0  0  0  0
    5.1370   -2.3503   24.0165 H   0  0  0  0  0  0  0  0  0  0  0  0
    4.6445   -2.1474   25.6964 H   0  0  0  0  0  0  0  0  0  0  0  0
    5.6795   -3.9979   25.1843 C   0  0  0  0  0  0  0  0  0  0  0  0
    6.5024   -4.3001   24.5238 H   0  0  0  0  0  0  0  0  0  0  0  0
    6.0103   -4.2119   26.2067 H   0  0  0  0  0  0  0  0  0  0  0  0
    4.4416   -4.8312   24.8537 C   0  0  0  0  0  0  0  0  0  0  0  0
    4.7455   -5.8775   24.7311 H   0  0  0  0  0  0  0  0  0  0  0  0
    4.0378   -4.5243   23.8769 H   0  0  0  0  0  0  0  0  0  0  0  0
    3.3323   -4.7347   25.9025 C   0  0  0  0  0  0  0  0  0  0  0  0
    3.0250   -3.6888   26.0255 H   0  0  0  0  0  0  0  0  0  0  0  0
    3.7361   -5.0435   26.8772 H   0  0  0  0  0  0  0  0  0  0  0  0
    2.1026   -5.5817   25.5806 C   0  0  0  0  0  0  0  0  0  0  0  0
    1.7641   -5.3564   24.5591 H   0  0  0  0  0  0  0  0  0  0  0  0
    1.2784   -5.2847   26.2421 H   0  0  0  0  0  0  0  0  0  0  0  0
    2.3269   -7.0881   25.7169 C   0  0  0  0  0  0  0  0  0  0  0  0
    2.7267   -7.3024   26.7167 H   0  0  0  0  0  0  0  0  0  0  0  0
    3.0948   -7.4230   25.0088 H   0  0  0  0  0  0  0  0  0  0  0  0
    1.0499   -7.8890   25.4973 C   0  0  0  0  0  0  0  0  0  0  0  0
    0.2808   -7.6021   26.2236 H   0  0  0  0  0  0  0  0  0  0  0  0
    1.2283   -8.9633   25.6002 H   0  0  0  0  0  0  0  0  0  0  0  0
    0.6428   -7.7057   24.4967 H   0  0  0  0  0  0  0  0  0  0  0  0
    8.8306   -2.6518   24.4463 N   0  0  0  0  0  0  0  0  0  0  0  0
    9.5240   -2.7169   23.2525 N   0  0  0  0  0  0  0  0  0  0  0  0
    8.8468   -1.9992   22.4050 C   0  0  0  0  0  0  0  0  0  0  0  0
    8.8844   -1.5448   20.7268 S   0  0  0  0  0  0  0  0  0  0  0  0
    5.4241    0.6595   20.1659 C   0  0  0  0  0  0  0  0  0  0  0  0
    4.9968    0.6376   21.1703 H   0  0  0  0  0  0  0  0  0  0  0  0
    4.8020    1.3121   19.1070 C   0  0  0  0  0  0  0  0  0  0  0  0
    3.8713    1.8457   19.2558 H   0  0  0  0  0  0  0  0  0  0  0  0
  1  2  1  0
  2  3  2  0
  3  4  1  0
  4  5  1  0
  4  6  2  0
  6  7  1  0
  7  8  2  0
  8  9  1  0
  9 10  1  0
 10 11  1  0
 11 12  1  0
 11 13  1  0
 11 14  1  0
 14 15  1  0
 14 16  1  0
 14 17  1  0
 17 18  1  0
 17 19  1  0
 17 20  1  0
 20 21  1  0
 20 22  1  0
 20 23  1  0
 23 24  1  0
 23 25  1  0
 23 26  1  0
 26 27  1  0
 26 28  1  0
 26 29  1  0
 29 30  1  0
 29 31  1  0
 29 32  1  0
 32 33  1  0
 32 34  1  0
 32 35  1  0
 10 36  2  0
 36 37  1  0
 37 38  2  0
 38 39  1  0
  6 40  1  0
 40 41  1  0
 40 42  2  0
 42 43  1  0
 42  2  1  0
 39  7  1  0
 38  9  1  0
M  END
>  <cnnaffinity>  (1) 
-5.71932

>  <filename>  (1) 
CCCCCCCCc1nnc2sc(-c3cccnc3)nn12

$$$$
