
     RDKit          3D

 32 33  0  0  0  0  0  0  0  0999 V2000
    4.9136    1.7864   16.9943 H   0  0  0  0  0  0  0  0  0  0  0  0
    5.3958    1.2972   17.8370 C   0  0  0  0  0  0  0  0  0  0  0  0
    6.5596    0.6816   17.5715 N   0  0  0  0  0  0  0  0  0  0  0  0
    7.1718    0.0594   18.5896 C   0  0  0  0  0  0  0  0  0  0  0  0
    8.1210   -0.4289   18.3744 H   0  0  0  0  0  0  0  0  0  0  0  0
    6.6621   -0.0124   19.9104 C   0  0  0  0  0  0  0  0  0  0  0  0
    7.3261   -0.7069   20.9286 N   0  0  0  0  0  0  0  0  0  0  0  0
    6.7656   -1.1226   21.6609 H   0  0  0  0  0  0  0  0  0  0  0  0
    8.7090   -0.6931   21.1421 C   0  0  0  0  0  0  0  0  0  0  0  0
    9.6815    0.2142   20.6665 C   0  0  0  0  0  0  0  0  0  0  0  0
    9.5046    1.0424   20.0024 H   0  0  0  0  0  0  0  0  0  0  0  0
   10.8977   -0.0578   21.1283 N   0  0  0  0  0  0  0  0  0  0  0  0
   10.7054   -1.1446   21.8887 N   0  0  0  0  0  0  0  0  0  0  0  0
   11.4949   -1.5337   22.3771 H   0  0  0  0  0  0  0  0  0  0  0  0
    9.4143   -1.5763   21.9345 C   0  0  0  0  0  0  0  0  0  0  0  0
    8.9596   -2.7006   22.7965 C   0  0  0  0  0  0  0  0  0  0  0  0
    7.9888   -3.0435   22.4169 H   0  0  0  0  0  0  0  0  0  0  0  0
    9.6461   -3.5502   22.7047 H   0  0  0  0  0  0  0  0  0  0  0  0
    8.8195   -2.2903   24.2686 C   0  0  0  0  0  0  0  0  0  0  0  0
    9.7823   -1.8978   24.6227 H   0  0  0  0  0  0  0  0  0  0  0  0
    8.6164   -3.1856   24.8685 H   0  0  0  0  0  0  0  0  0  0  0  0
    7.7291   -1.2469   24.5149 C   0  0  0  0  0  0  0  0  0  0  0  0
    7.9388   -0.3365   23.9337 H   0  0  0  0  0  0  0  0  0  0  0  0
    6.7654   -1.6286   24.1483 H   0  0  0  0  0  0  0  0  0  0  0  0
    7.6007   -0.8950   25.9949 C   0  0  0  0  0  0  0  0  0  0  0  0
    6.8109   -0.1576   26.1672 H   0  0  0  0  0  0  0  0  0  0  0  0
    7.3670   -1.7859   26.5909 H   0  0  0  0  0  0  0  0  0  0  0  0
    8.5388   -0.4794   26.3815 H   0  0  0  0  0  0  0  0  0  0  0  0
    5.4406    0.6315   20.1624 C   0  0  0  0  0  0  0  0  0  0  0  0
    5.0192    0.6226   21.1679 H   0  0  0  0  0  0  0  0  0  0  0  0
    4.8113    1.3056   19.1084 C   0  0  0  0  0  0  0  0  0  0  0  0
    3.8816    1.8379   19.2637 H   0  0  0  0  0  0  0  0  0  0  0  0
  1  2  1  0
  2  3  2  0
  3  4  1  0
  4  5  1  0
  4  6  2  0
  6  7  1  0
  7  8  1  0
  7  9  1  0
  9 10  1  0
 10 11  1  0
 10 12  2  0
 12 13  1  0
 13 14  1  0
 13 15  1  0
 15 16  1  0
 16 17  1  0
 16 18  1  0
 16 19  1  0
 19 20  1  0
 19 21  1  0
 19 22  1  0
 22 23  1  0
 22 24  1  0
 22 25  1  0
 25 26  1  0
 25 27  1  0
 25 28  1  0
  6 29  1  0
 29 30  1  0
 29 31  2  0
 31 32  1  0
 31  2  1  0
 15  9  2  0
M  END
>  <cnnaffinity>  (1) 
-5.24008

>  <filename>  (1) 
CCCCc1[nH]ncc1Nc1cccnc1

$$$$
