
     RDKit          3D

 43 44  0  0  0  0  0  0  0  0999 V2000
    4.9198    1.7876   16.9883 H   0  0  0  0  0  0  0  0  0  0  0  0
    5.3976    1.2960   17.8331 C   0  0  0  0  0  0  0  0  0  0  0  0
    6.5579    0.6788   17.5745 N   0  0  0  0  0  0  0  0  0  0  0  0
    7.1637    0.0679   18.5966 C   0  0  0  0  0  0  0  0  0  0  0  0
    8.1149   -0.4137   18.3814 H   0  0  0  0  0  0  0  0  0  0  0  0
    6.6445    0.0131   19.8996 C   0  0  0  0  0  0  0  0  0  0  0  0
    7.4131   -0.7113   20.9773 C   0  0  0  0  0  0  0  0  0  0  0  0
    6.8348   -0.7560   21.9046 H   0  0  0  0  0  0  0  0  0  0  0  0
    7.6503   -1.7420   20.6898 H   0  0  0  0  0  0  0  0  0  0  0  0
    8.6817   -0.0698   21.2832 N   0  0  0  0  0  0  0  0  0  0  0  0
    9.8434   -0.4887   20.7553 N   0  0  0  0  0  0  0  0  0  0  0  0
   10.7442    0.3372   21.1413 N   0  0  0  0  0  0  0  0  0  0  0  0
   10.2142    1.3195   21.8904 N   0  0  0  0  0  0  0  0  0  0  0  0
    8.9246    1.0671   21.9659 C   0  0  0  0  0  0  0  0  0  0  0  0
    7.9474    1.8728   22.7553 C   0  0  0  0  0  0  0  0  0  0  0  0
    6.9320    1.6846   22.3941 H   0  0  0  0  0  0  0  0  0  0  0  0
    8.1556    2.9290   22.5608 H   0  0  0  0  0  0  0  0  0  0  0  0
    8.0398    1.5818   24.2620 C   0  0  0  0  0  0  0  0  0  0  0  0
    9.0767    1.7398   24.5879 H   0  0  0  0  0  0  0  0  0  0  0  0
    7.4298    2.3137   24.8079 H   0  0  0  0  0  0  0  0  0  0  0  0
    7.5998    0.1695   24.6312 C   0  0  0  0  0  0  0  0  0  0  0  0
    6.5755    0.0056   24.2693 H   0  0  0  0  0  0  0  0  0  0  0  0
    8.2195   -0.5693   24.1020 H   0  0  0  0  0  0  0  0  0  0  0  0
    7.6665   -0.0941   26.1331 C   0  0  0  0  0  0  0  0  0  0  0  0
    8.6660    0.1748   26.5001 H   0  0  0  0  0  0  0  0  0  0  0  0
    6.9761    0.5853   26.6518 H   0  0  0  0  0  0  0  0  0  0  0  0
    7.3673   -1.5431   26.5265 C   0  0  0  0  0  0  0  0  0  0  0  0
    8.1338   -2.1896   26.0788 H   0  0  0  0  0  0  0  0  0  0  0  0
    7.4928   -1.6526   27.6113 H   0  0  0  0  0  0  0  0  0  0  0  0
    5.9817   -2.0645   26.1147 C   0  0  0  0  0  0  0  0  0  0  0  0
    5.8844   -3.1022   26.4600 H   0  0  0  0  0  0  0  0  0  0  0  0
    5.9233   -2.1147   25.0194 H   0  0  0  0  0  0  0  0  0  0  0  0
    4.7894   -1.2610   26.6476 C   0  0  0  0  0  0  0  0  0  0  0  0
    4.8179   -0.2402   26.2463 H   0  0  0  0  0  0  0  0  0  0  0  0
    3.8643   -1.7009   26.2559 H   0  0  0  0  0  0  0  0  0  0  0  0
    4.7174   -1.2113   28.1729 C   0  0  0  0  0  0  0  0  0  0  0  0
    4.7556   -2.2194   28.5994 H   0  0  0  0  0  0  0  0  0  0  0  0
    3.7937   -0.7381   28.5206 H   0  0  0  0  0  0  0  0  0  0  0  0
    5.5557   -0.6533   28.6046 H   0  0  0  0  0  0  0  0  0  0  0  0
    5.4283    0.6519   20.1521 C   0  0  0  0  0  0  0  0  0  0  0  0
    4.9906    0.6345   21.1567 H   0  0  0  0  0  0  0  0  0  0  0  0
    4.7971    1.3147   19.0973 C   0  0  0  0  0  0  0  0  0  0  0  0
    3.8665    1.8498   19.2478 H   0  0  0  0  0  0  0  0  0  0  0  0
  1  2  1  0
  2  3  2  0
  3  4  1  0
  4  5  1  0
  4  6  2  0
  6  7  1  0
  7  8  1  0
  7  9  1  0
  7 10  1  0
 10 11  1  0
 11 12  2  0
 12 13  1  0
 13 14  2  0
 14 15  1  0
 15 16  1  0
 15 17  1  0
 15 18  1  0
 18 19  1  0
 18 20  1  0
 18 21  1  0
 21 22  1  0
 21 23  1  0
 21 24  1  0
 24 25  1  0
 24 26  1  0
 24 27  1  0
 27 28  1  0
 27 29  1  0
 27 30  1  0
 30 31  1  0
 30 32  1  0
 30 33  1  0
 33 34  1  0
 33 35  1  0
 33 36  1  0
 36 37  1  0
 36 38  1  0
 36 39  1  0
  6 40  1  0
 40 41  1  0
 40 42  2  0
 42 43  1  0
 42  2  1  0
 14 10  1  0
M  END
>  <cnnaffinity>  (1) 
-5.50231

>  <filename>  (1) 
CCCCCCCCc1nnnn1Cc1cccnc1

$$$$
