
     RDKit          3D

 42 43  0  0  0  0  0  0  0  0999 V2000
    4.9910    1.7569   16.8521 H   0  0  0  0  0  0  0  0  0  0  0  0
    5.4654    1.2822   17.7108 C   0  0  0  0  0  0  0  0  0  0  0  0
    6.5966    0.6036   17.4591 N   0  0  0  0  0  0  0  0  0  0  0  0
    7.2119    0.0238   18.4984 C   0  0  0  0  0  0  0  0  0  0  0  0
    8.1298   -0.5129   18.2556 H   0  0  0  0  0  0  0  0  0  0  0  0
    6.7550    0.0914   19.8350 C   0  0  0  0  0  0  0  0  0  0  0  0
    7.4851   -0.5531   20.9423 C   0  0  0  0  0  0  0  0  0  0  0  0
    7.8290   -0.1715   22.2258 C   0  0  0  0  0  0  0  0  0  0  0  0
    7.6250    1.1288   22.9397 C   0  0  0  0  0  0  0  0  0  0  0  0
    7.8518    0.9317   23.9938 H   0  0  0  0  0  0  0  0  0  0  0  0
    6.5668    1.4177   22.8955 H   0  0  0  0  0  0  0  0  0  0  0  0
    8.4727    2.3317   22.4843 C   0  0  0  0  0  0  0  0  0  0  0  0
    8.1321    2.7153   21.5124 H   0  0  0  0  0  0  0  0  0  0  0  0
    9.5138    2.0228   22.3280 H   0  0  0  0  0  0  0  0  0  0  0  0
    8.4061    3.4494   23.5318 C   0  0  0  0  0  0  0  0  0  0  0  0
    7.3835    3.8584   23.5401 H   0  0  0  0  0  0  0  0  0  0  0  0
    8.5613    3.0212   24.5354 H   0  0  0  0  0  0  0  0  0  0  0  0
    9.3571    4.6223   23.2791 C   0  0  0  0  0  0  0  0  0  0  0  0
    9.1078    5.4198   23.9905 H   0  0  0  0  0  0  0  0  0  0  0  0
    9.1143    5.0157   22.2812 H   0  0  0  0  0  0  0  0  0  0  0  0
   10.8721    4.3713   23.3474 C   0  0  0  0  0  0  0  0  0  0  0  0
   11.1697    4.1378   24.3789 H   0  0  0  0  0  0  0  0  0  0  0  0
   11.1370    3.4832   22.7607 H   0  0  0  0  0  0  0  0  0  0  0  0
   11.6350    5.5889   22.8021 C   0  0  0  0  0  0  0  0  0  0  0  0
   11.2487    6.4948   23.2868 H   0  0  0  0  0  0  0  0  0  0  0  0
   11.3686    5.6909   21.7409 H   0  0  0  0  0  0  0  0  0  0  0  0
   13.1633    5.5952   22.9146 C   0  0  0  0  0  0  0  0  0  0  0  0
   13.5392    6.5489   22.5124 H   0  0  0  0  0  0  0  0  0  0  0  0
   13.4645    5.5836   23.9719 H   0  0  0  0  0  0  0  0  0  0  0  0
   13.8586    4.4374   22.1980 C   0  0  0  0  0  0  0  0  0  0  0  0
   13.4749    4.2689   21.1848 H   0  0  0  0  0  0  0  0  0  0  0  0
   14.9221    4.6488   22.0913 H   0  0  0  0  0  0  0  0  0  0  0  0
   13.7558    3.4974   22.7529 H   0  0  0  0  0  0  0  0  0  0  0  0
    8.4736   -1.2090   22.8577 N   0  0  0  0  0  0  0  0  0  0  0  0
    8.5460   -2.1795   21.9928 C   0  0  0  0  0  0  0  0  0  0  0  0
    8.9961   -3.1510   22.1639 H   0  0  0  0  0  0  0  0  0  0  0  0
    7.9854   -1.8293   20.8082 N   0  0  0  0  0  0  0  0  0  0  0  0
    7.8027   -2.4337   20.0264 H   0  0  0  0  0  0  0  0  0  0  0  0
    5.5555    0.7847   20.0619 C   0  0  0  0  0  0  0  0  0  0  0  0
    5.1356    0.8183   21.0676 H   0  0  0  0  0  0  0  0  0  0  0  0
    4.9026    1.3877   18.9851 C   0  0  0  0  0  0  0  0  0  0  0  0
    3.9810    1.9414   19.1216 H   0  0  0  0  0  0  0  0  0  0  0  0
  1  2  1  0
  2  3  2  0
  3  4  1  0
  4  5  1  0
  4  6  2  0
  6  7  1  0
  7  8  2  0
  8  9  1  0
  9 10  1  0
  9 11  1  0
  9 12  1  0
 12 13  1  0
 12 14  1  0
 12 15  1  0
 15 16  1  0
 15 17  1  0
 15 18  1  0
 18 19  1  0
 18 20  1  0
 18 21  1  0
 21 22  1  0
 21 23  1  0
 21 24  1  0
 24 25  1  0
 24 26  1  0
 24 27  1  0
 27 28  1  0
 27 29  1  0
 27 30  1  0
 30 31  1  0
 30 32  1  0
 30 33  1  0
  8 34  1  0
 34 35  2  0
 35 36  1  0
 35 37  1  0
 37 38  1  0
  6 39  1  0
 39 40  1  0
 39 41  2  0
 41 42  1  0
 41  2  1  0
 37  7  1  0
M  END
>  <cnnaffinity>  (1) 
-4.89162

>  <filename>  (1) 
CCCCCCCCc1nc[nH]c1-c1cccnc1

$$$$
