
     RDKit          3D

 36 37  0  0  0  0  0  0  0  0999 V2000
    5.0936    2.0552   16.8965 H   0  0  0  0  0  0  0  0  0  0  0  0
    5.4589    1.4128   17.6942 C   0  0  0  0  0  0  0  0  0  0  0  0
    6.5871    0.7321   17.4279 N   0  0  0  0  0  0  0  0  0  0  0  0
    7.0762   -0.0405   18.4020 C   0  0  0  0  0  0  0  0  0  0  0  0
    8.0195   -0.5462   18.1982 H   0  0  0  0  0  0  0  0  0  0  0  0
    6.4659   -0.2061   19.6623 C   0  0  0  0  0  0  0  0  0  0  0  0
    7.1564   -0.9064   20.7152 N   0  0  0  0  0  0  0  0  0  0  0  0
    8.3889   -0.3903   21.0467 C   0  0  0  0  0  0  0  0  0  0  0  0
    8.7251    0.4451   20.4390 H   0  0  0  0  0  0  0  0  0  0  0  0
    9.1573   -0.8564   22.0614 C   0  0  0  0  0  0  0  0  0  0  0  0
   10.4640   -0.1602   22.3283 C   0  0  0  0  0  0  0  0  0  0  0  0
   11.0204   -0.0630   21.3819 H   0  0  0  0  0  0  0  0  0  0  0  0
   11.0772   -0.8017   22.9655 H   0  0  0  0  0  0  0  0  0  0  0  0
   10.3313    1.2578   22.9250 C   0  0  0  0  0  0  0  0  0  0  0  0
    9.6619    1.8602   22.2945 H   0  0  0  0  0  0  0  0  0  0  0  0
    9.8502    1.2003   23.9106 H   0  0  0  0  0  0  0  0  0  0  0  0
   11.6826    1.9857   23.0291 C   0  0  0  0  0  0  0  0  0  0  0  0
   11.9555    2.3573   22.0320 H   0  0  0  0  0  0  0  0  0  0  0  0
   11.5703    2.8671   23.6761 H   0  0  0  0  0  0  0  0  0  0  0  0
   12.8268    1.1192   23.5830 C   0  0  0  0  0  0  0  0  0  0  0  0
   13.0892    0.3457   22.8492 H   0  0  0  0  0  0  0  0  0  0  0  0
   13.7244    1.7408   23.7088 H   0  0  0  0  0  0  0  0  0  0  0  0
   12.4549    0.4517   24.9142 C   0  0  0  0  0  0  0  0  0  0  0  0
   11.8405    1.1228   25.5168 H   0  0  0  0  0  0  0  0  0  0  0  0
   11.8417   -0.4426   24.7807 H   0  0  0  0  0  0  0  0  0  0  0  0
   13.3309    0.1661   25.4992 H   0  0  0  0  0  0  0  0  0  0  0  0
    8.6474   -1.9520   22.8320 C   0  0  0  0  0  0  0  0  0  0  0  0
    9.2511   -2.3636   23.6412 H   0  0  0  0  0  0  0  0  0  0  0  0
    7.4189   -2.4749   22.5555 C   0  0  0  0  0  0  0  0  0  0  0  0
    6.9756   -3.2908   23.1090 H   0  0  0  0  0  0  0  0  0  0  0  0
    6.5787   -1.9880   21.4683 C   0  0  0  0  0  0  0  0  0  0  0  0
    5.4933   -2.4774   21.1949 O   0  0  0  0  0  0  0  0  0  0  0  0
    5.2837    0.4906   19.9193 C   0  0  0  0  0  0  0  0  0  0  0  0
    4.8053    0.3901   20.8918 H   0  0  0  0  0  0  0  0  0  0  0  0
    4.7803    1.3242   18.9130 C   0  0  0  0  0  0  0  0  0  0  0  0
    3.8912    1.9240   19.0698 H   0  0  0  0  0  0  0  0  0  0  0  0
  1  2  1  0
  2  3  2  0
  3  4  1  0
  4  5  1  0
  4  6  2  0
  6  7  1  0
  7  8  1  0
  8  9  1  0
  8 10  2  0
 10 11  1  0
 11 12  1  0
 11 13  1  0
 11 14  1  0
 14 15  1  0
 14 16  1  0
 14 17  1  0
 17 18  1  0
 17 19  1  0
 17 20  1  0
 20 21  1  0
 20 22  1  0
 20 23  1  0
 23 24  1  0
 23 25  1  0
 23 26  1  0
 10 27  1  0
 27 28  1  0
 27 29  2  0
 29 30  1  0
 29 31  1  0
 31 32  2  0
  6 33  1  0
 33 34  1  0
 33 35  2  0
 35 36  1  0
 35  2  1  0
 31  7  1  0
M  END
>  <cnnaffinity>  (1) 
-5.14421

>  <filename>  (1) 
CCCCCc1ccc(=O)n(-c2cccnc2)c1

$$$$
