
     RDKit          3D

 37 38  0  0  0  0  0  0  0  0999 V2000
    5.0605    1.6978   16.7019 H   0  0  0  0  0  0  0  0  0  0  0  0
    5.4427    1.3133   17.6442 C   0  0  0  0  0  0  0  0  0  0  0  0
    6.6458    0.7195   17.5885 N   0  0  0  0  0  0  0  0  0  0  0  0
    7.1397    0.2363   18.7324 C   0  0  0  0  0  0  0  0  0  0  0  0
    8.1206   -0.2308   18.6721 H   0  0  0  0  0  0  0  0  0  0  0  0
    6.4808    0.3127   19.9731 C   0  0  0  0  0  0  0  0  0  0  0  0
    7.0828   -0.2636   21.1747 C   0  0  0  0  0  0  0  0  0  0  0  0
    6.9327    0.0496   22.4752 C   0  0  0  0  0  0  0  0  0  0  0  0
    6.3813    0.8560   22.9168 H   0  0  0  0  0  0  0  0  0  0  0  0
    7.6981   -0.8967   23.2711 C   0  0  0  0  0  0  0  0  0  0  0  0
    7.8878   -0.9762   24.4814 O   0  0  0  0  0  0  0  0  0  0  0  0
    8.2015   -1.7841   22.3326 N   0  0  0  0  0  0  0  0  0  0  0  0
    9.1745   -2.8111   22.6196 C   0  0  0  0  0  0  0  0  0  0  0  0
    8.7747   -3.3636   23.4737 H   0  0  0  0  0  0  0  0  0  0  0  0
    9.2104   -3.4926   21.7599 H   0  0  0  0  0  0  0  0  0  0  0  0
   10.5725   -2.2817   22.9577 C   0  0  0  0  0  0  0  0  0  0  0  0
   10.4961   -1.6549   23.8572 H   0  0  0  0  0  0  0  0  0  0  0  0
   11.1777   -3.1567   23.2315 H   0  0  0  0  0  0  0  0  0  0  0  0
   11.2398   -1.5474   21.7859 C   0  0  0  0  0  0  0  0  0  0  0  0
   11.1654   -2.2009   20.9132 H   0  0  0  0  0  0  0  0  0  0  0  0
   10.6532   -0.6563   21.5269 H   0  0  0  0  0  0  0  0  0  0  0  0
   12.7145   -1.1716   21.9917 C   0  0  0  0  0  0  0  0  0  0  0  0
   13.2467   -1.2073   21.0309 H   0  0  0  0  0  0  0  0  0  0  0  0
   13.2085   -1.9491   22.5777 H   0  0  0  0  0  0  0  0  0  0  0  0
   12.9406    0.1843   22.6655 C   0  0  0  0  0  0  0  0  0  0  0  0
   12.4459    0.1903   23.6483 H   0  0  0  0  0  0  0  0  0  0  0  0
   12.4489    0.9708   22.0752 H   0  0  0  0  0  0  0  0  0  0  0  0
   14.4170    0.5073   22.8556 C   0  0  0  0  0  0  0  0  0  0  0  0
   14.9074   -0.3001   23.4078 H   0  0  0  0  0  0  0  0  0  0  0  0
   14.9503    0.6308   21.9091 H   0  0  0  0  0  0  0  0  0  0  0  0
   14.5473    1.4317   23.4170 H   0  0  0  0  0  0  0  0  0  0  0  0
    7.9812   -1.3316   21.0185 N   0  0  0  0  0  0  0  0  0  0  0  0
    7.5692   -2.0603   20.4327 H   0  0  0  0  0  0  0  0  0  0  0  0
    5.2288    0.9470   20.0125 C   0  0  0  0  0  0  0  0  0  0  0  0
    4.6838    1.0341   20.9540 H   0  0  0  0  0  0  0  0  0  0  0  0
    4.6985    1.4440   18.8227 C   0  0  0  0  0  0  0  0  0  0  0  0
    3.7321    1.9349   18.7935 H   0  0  0  0  0  0  0  0  0  0  0  0
  1  2  1  0
  2  3  2  0
  3  4  1  0
  4  5  1  0
  4  6  2  0
  6  7  1  0
  7  8  2  0
  8  9  1  0
  8 10  1  0
 10 11  2  0
 10 12  1  0
 12 13  1  0
 13 14  1  0
 13 15  1  0
 13 16  1  0
 16 17  1  0
 16 18  1  0
 16 19  1  0
 19 20  1  0
 19 21  1  0
 19 22  1  0
 22 23  1  0
 22 24  1  0
 22 25  1  0
 25 26  1  0
 25 27  1  0
 25 28  1  0
 28 29  1  0
 28 30  1  0
 28 31  1  0
 12 32  1  0
 32 33  1  0
  6 34  1  0
 34 35  1  0
 34 36  2  0
 36 37  1  0
 36  2  1  0
 32  7  1  0
M  END
>  <cnnaffinity>  (1) 
-5.33558

>  <filename>  (1) 
CCCCCCn1[nH]c(-c2cccnc2)cc1=O

$$$$
