
     RDKit          3D

 41 42  0  0  0  0  0  0  0  0999 V2000
    4.9174    1.7826   16.9938 H   0  0  0  0  0  0  0  0  0  0  0  0
    5.4018    1.2945   17.8343 C   0  0  0  0  0  0  0  0  0  0  0  0
    6.5636    0.6790   17.5783 N   0  0  0  0  0  0  0  0  0  0  0  0
    7.1691    0.0567   18.5998 C   0  0  0  0  0  0  0  0  0  0  0  0
    8.1173   -0.4168   18.3568 H   0  0  0  0  0  0  0  0  0  0  0  0
    6.6608   -0.0181   19.9043 C   0  0  0  0  0  0  0  0  0  0  0  0
    7.3434   -0.7338   21.0811 C   0  0  2  0  0  0  0  0  0  0  0  0
    6.4267   -1.8935   21.5469 C   0  0  0  0  0  0  0  0  0  0  0  0
    6.5284   -2.7038   20.8093 H   0  0  0  0  0  0  0  0  0  0  0  0
    5.3781   -1.5867   21.4757 H   0  0  0  0  0  0  0  0  0  0  0  0
    6.6647   -2.4477   22.9507 C   0  0  0  0  0  0  0  0  0  0  0  0
    6.3777   -1.6894   23.6912 H   0  0  0  0  0  0  0  0  0  0  0  0
    7.7333   -2.6398   23.1185 H   0  0  0  0  0  0  0  0  0  0  0  0
    5.8772   -3.7258   23.2083 C   0  0  0  0  0  0  0  0  0  0  0  0
    4.8107   -3.5393   23.0238 H   0  0  0  0  0  0  0  0  0  0  0  0
    6.1769   -4.4902   22.4784 H   0  0  0  0  0  0  0  0  0  0  0  0
    6.0828   -4.2695   24.6180 C   0  0  0  0  0  0  0  0  0  0  0  0
    5.7232   -3.5274   25.3447 H   0  0  0  0  0  0  0  0  0  0  0  0
    7.1590   -4.3760   24.8070 H   0  0  0  0  0  0  0  0  0  0  0  0
    5.3889   -5.6073   24.8776 C   0  0  0  0  0  0  0  0  0  0  0  0
    5.7428   -6.0187   25.8303 H   0  0  0  0  0  0  0  0  0  0  0  0
    5.6956   -6.3255   24.1062 H   0  0  0  0  0  0  0  0  0  0  0  0
    3.8644   -5.5102   24.9051 C   0  0  0  0  0  0  0  0  0  0  0  0
    3.4545   -5.2247   23.9299 H   0  0  0  0  0  0  0  0  0  0  0  0
    3.5368   -4.7551   25.6289 H   0  0  0  0  0  0  0  0  0  0  0  0
    3.4109   -6.4644   25.1905 H   0  0  0  0  0  0  0  0  0  0  0  0
    7.7111    0.3236   22.1738 C   0  0  0  0  0  0  0  0  0  0  0  0
    6.9341    1.0782   22.3209 H   0  0  0  0  0  0  0  0  0  0  0  0
    7.8944   -0.1601   23.1424 H   0  0  0  0  0  0  0  0  0  0  0  0
    8.9569    0.9614   21.7387 N   0  0  0  0  0  0  0  0  0  0  0  0
    8.7356    1.7726   21.1675 H   0  0  0  0  0  0  0  0  0  0  0  0
    9.6669   -0.0152   20.8991 C   0  0  0  0  0  0  0  0  0  0  0  0
    9.7948    0.4153   19.9055 H   0  0  0  0  0  0  0  0  0  0  0  0
   10.6474   -0.2734   21.3247 H   0  0  0  0  0  0  0  0  0  0  0  0
    8.7685   -1.2491   20.7869 C   0  0  0  0  0  0  0  0  0  0  0  0
    9.0543   -1.9915   21.5431 H   0  0  0  0  0  0  0  0  0  0  0  0
    8.8651   -1.7394   19.8196 H   0  0  0  0  0  0  0  0  0  0  0  0
    5.4415    0.6470   20.1456 C   0  0  0  0  0  0  0  0  0  0  0  0
    5.0046    0.6356   21.1508 H   0  0  0  0  0  0  0  0  0  0  0  0
    4.8089    1.3127   19.1002 C   0  0  0  0  0  0  0  0  0  0  0  0
    3.8761    1.8431   19.2564 H   0  0  0  0  0  0  0  0  0  0  0  0
  1  2  1  0
  2  3  2  0
  3  4  1  0
  4  5  1  0
  4  6  2  0
  6  7  1  0
  7  8  1  1
  8  9  1  0
  8 10  1  0
  8 11  1  0
 11 12  1  0
 11 13  1  0
 11 14  1  0
 14 15  1  0
 14 16  1  0
 14 17  1  0
 17 18  1  0
 17 19  1  0
 17 20  1  0
 20 21  1  0
 20 22  1  0
 20 23  1  0
 23 24  1  0
 23 25  1  0
 23 26  1  0
  7 27  1  0
 27 28  1  0
 27 29  1  0
 27 30  1  0
 30 31  1  0
 30 32  1  0
 32 33  1  0
 32 34  1  0
 32 35  1  0
 35 36  1  0
 35 37  1  0
  6 38  1  0
 38 39  1  0
 38 40  2  0
 40 41  1  0
 40  2  1  0
 35  7  1  0
M  END
>  <cnnaffinity>  (1) 
-4.31215

>  <filename>  (1) 
CCCCCC[C@]1(c2cccnc2)CCNC1

$$$$
