
     RDKit          3D

 34 35  0  0  0  0  0  0  0  0999 V2000
    4.9527    1.7625   16.8967 H   0  0  0  0  0  0  0  0  0  0  0  0
    5.4293    1.2828   17.7473 C   0  0  0  0  0  0  0  0  0  0  0  0
    6.5803    0.6351   17.4986 N   0  0  0  0  0  0  0  0  0  0  0  0
    7.1845    0.0286   18.5255 C   0  0  0  0  0  0  0  0  0  0  0  0
    8.1087   -0.5037   18.3106 H   0  0  0  0  0  0  0  0  0  0  0  0
    6.6834    0.0567   19.8475 C   0  0  0  0  0  0  0  0  0  0  0  0
    7.3569   -0.5786   20.9120 N   0  0  0  0  0  0  0  0  0  0  0  0
    7.3574   -0.2281   22.2745 C   0  0  0  0  0  0  0  0  0  0  0  0
    6.8056    0.7422   22.7673 O   0  0  0  0  0  0  0  0  0  0  0  0
    8.1427   -1.2913   22.9097 C   0  0  0  0  0  0  0  0  0  0  0  0
    8.6244   -1.1873   24.3213 C   0  0  0  0  0  0  0  0  0  0  0  0
    8.9272   -2.1799   24.6980 H   0  0  0  0  0  0  0  0  0  0  0  0
    7.7956   -0.8420   24.9498 H   0  0  0  0  0  0  0  0  0  0  0  0
    9.7877   -0.1759   24.4109 C   0  0  0  0  0  0  0  0  0  0  0  0
   10.1258   -0.1323   25.4544 H   0  0  0  0  0  0  0  0  0  0  0  0
    9.4009    0.8251   24.1661 H   0  0  0  0  0  0  0  0  0  0  0  0
   10.9683   -0.4991   23.4778 C   0  0  0  0  0  0  0  0  0  0  0  0
   10.6949   -0.2279   22.4453 H   0  0  0  0  0  0  0  0  0  0  0  0
   11.1118   -1.5885   23.4403 H   0  0  0  0  0  0  0  0  0  0  0  0
   12.2646    0.1954   23.8981 C   0  0  0  0  0  0  0  0  0  0  0  0
   12.5549   -0.1830   24.8904 H   0  0  0  0  0  0  0  0  0  0  0  0
   12.0605    1.2674   24.0292 H   0  0  0  0  0  0  0  0  0  0  0  0
   13.4308    0.0239   22.9215 C   0  0  0  0  0  0  0  0  0  0  0  0
   13.6964   -1.0297   22.7672 H   0  0  0  0  0  0  0  0  0  0  0  0
   13.1816    0.4456   21.9437 H   0  0  0  0  0  0  0  0  0  0  0  0
   14.3199    0.5545   23.2854 H   0  0  0  0  0  0  0  0  0  0  0  0
    8.5156   -2.1555   21.9483 C   0  0  0  0  0  0  0  0  0  0  0  0
    9.1006   -3.0621   22.0499 H   0  0  0  0  0  0  0  0  0  0  0  0
    8.1441   -1.7175   20.6731 N   0  0  0  0  0  0  0  0  0  0  0  0
    7.6641   -2.4066   20.0909 H   0  0  0  0  0  0  0  0  0  0  0  0
    5.4817    0.7301   20.0939 C   0  0  0  0  0  0  0  0  0  0  0  0
    5.0883    0.7664   21.1087 H   0  0  0  0  0  0  0  0  0  0  0  0
    4.8409    1.3419   19.0166 C   0  0  0  0  0  0  0  0  0  0  0  0
    3.9034    1.8675   19.1549 H   0  0  0  0  0  0  0  0  0  0  0  0
  1  2  1  0
  2  3  2  0
  3  4  1  0
  4  5  1  0
  4  6  2  0
  6  7  1  0
  7  8  1  0
  8  9  2  0
  8 10  1  0
 10 11  1  0
 11 12  1  0
 11 13  1  0
 11 14  1  0
 14 15  1  0
 14 16  1  0
 14 17  1  0
 17 18  1  0
 17 19  1  0
 17 20  1  0
 20 21  1  0
 20 22  1  0
 20 23  1  0
 23 24  1  0
 23 25  1  0
 23 26  1  0
 10 27  2  0
 27 28  1  0
 27 29  1  0
 29 30  1  0
  6 31  1  0
 31 32  1  0
 31 33  2  0
 33 34  1  0
 33  2  1  0
 29  7  1  0
M  END
>  <cnnaffinity>  (1) 
-4.95259

>  <filename>  (1) 
CCCCCc1c[nH]n(-c2cccnc2)c1=O

$$$$
