
     RDKit          3D

 35 37  0  0  0  0  0  0  0  0999 V2000
    4.9193    1.7763   17.0026 H   0  0  0  0  0  0  0  0  0  0  0  0
    5.4064    1.2921   17.8443 C   0  0  0  0  0  0  0  0  0  0  0  0
    6.5726    0.6768   17.5851 N   0  0  0  0  0  0  0  0  0  0  0  0
    7.1720    0.0462   18.5978 C   0  0  0  0  0  0  0  0  0  0  0  0
    8.1220   -0.4374   18.3783 H   0  0  0  0  0  0  0  0  0  0  0  0
    6.6486    0.0077   19.8965 C   0  0  0  0  0  0  0  0  0  0  0  0
    7.3607   -0.6890   20.9471 C   0  0  0  0  0  0  0  0  0  0  0  0
    7.9298   -1.9257   20.7344 N   0  0  0  0  0  0  0  0  0  0  0  0
    8.3519   -2.2649   21.9196 C   0  0  0  0  0  0  0  0  0  0  0  0
    9.2038   -3.6276   22.5928 S   0  0  0  0  0  0  0  0  0  0  0  0
    9.2897   -2.8384   24.1490 C   0  0  0  0  0  0  0  0  0  0  0  0
    9.7936   -3.3368   24.9650 H   0  0  0  0  0  0  0  0  0  0  0  0
    8.6726   -1.6471   24.1504 C   0  0  0  0  0  0  0  0  0  0  0  0
    8.5681   -0.9573   24.9793 H   0  0  0  0  0  0  0  0  0  0  0  0
    8.1200   -1.3374   22.9058 N   0  0  0  0  0  0  0  0  0  0  0  0
    7.5132   -0.2644   22.2740 C   0  0  0  0  0  0  0  0  0  0  0  0
    7.2526    0.9209   22.8986 N   0  0  0  0  0  0  0  0  0  0  0  0
    7.0597    0.8979   23.8890 H   0  0  0  0  0  0  0  0  0  0  0  0
    7.3258    2.2177   22.2448 C   0  0  0  0  0  0  0  0  0  0  0  0
    7.7837    2.0653   21.2612 H   0  0  0  0  0  0  0  0  0  0  0  0
    6.3189    2.6105   22.0529 H   0  0  0  0  0  0  0  0  0  0  0  0
    8.1397    3.2315   23.0469 C   0  0  0  0  0  0  0  0  0  0  0  0
    7.8688    4.2350   22.7006 H   0  0  0  0  0  0  0  0  0  0  0  0
    7.8243    3.1769   24.0978 H   0  0  0  0  0  0  0  0  0  0  0  0
    9.6606    3.0696   22.9535 C   0  0  0  0  0  0  0  0  0  0  0  0
    9.9618    3.1027   21.8985 H   0  0  0  0  0  0  0  0  0  0  0  0
   10.1323    3.9399   23.4258 H   0  0  0  0  0  0  0  0  0  0  0  0
   10.2025    1.7932   23.5891 C   0  0  0  0  0  0  0  0  0  0  0  0
    9.9347    0.9065   23.0025 H   0  0  0  0  0  0  0  0  0  0  0  0
   11.2920    1.8327   23.6755 H   0  0  0  0  0  0  0  0  0  0  0  0
    9.7945    1.6607   24.5971 H   0  0  0  0  0  0  0  0  0  0  0  0
    5.4308    0.6575   20.1553 C   0  0  0  0  0  0  0  0  0  0  0  0
    5.0050    0.6342   21.1616 H   0  0  0  0  0  0  0  0  0  0  0  0
    4.8010    1.3131   19.1055 C   0  0  0  0  0  0  0  0  0  0  0  0
    3.8698    1.8447   19.2603 H   0  0  0  0  0  0  0  0  0  0  0  0
  1  2  1  0
  2  3  2  0
  3  4  1  0
  4  5  1  0
  4  6  2  0
  6  7  1  0
  7  8  1  0
  8  9  2  0
  9 10  1  0
 10 11  1  0
 11 12  1  0
 11 13  2  0
 13 14  1  0
 13 15  1  0
 15 16  1  0
 16 17  1  0
 17 18  1  0
 17 19  1  0
 19 20  1  0
 19 21  1  0
 19 22  1  0
 22 23  1  0
 22 24  1  0
 22 25  1  0
 25 26  1  0
 25 27  1  0
 25 28  1  0
 28 29  1  0
 28 30  1  0
 28 31  1  0
  6 32  1  0
 32 33  1  0
 32 34  2  0
 34 35  1  0
 34  2  1  0
 16  7  2  0
 15  9  1  0
M  END
>  <cnnaffinity>  (1) 
-5.50231

>  <filename>  (1) 
CCCCNc1c(-c2cccnc2)nc2sccn12

$$$$
