
     RDKit          3D

 43 44  0  0  0  0  0  0  0  0999 V2000
    8.6490   -1.7746   19.8371 H   0  0  0  0  0  0  0  0  0  0  0  0
    8.3206   -1.5510   20.8493 C   0  0  0  0  0  0  0  0  0  0  0  0
    8.9174   -2.2594   21.8223 N   0  0  0  0  0  0  0  0  0  0  0  0
    8.5918   -1.9181   23.0791 C   0  0  0  0  0  0  0  0  0  0  0  0
    9.0599   -2.4840   23.8888 H   0  0  0  0  0  0  0  0  0  0  0  0
    7.7003   -0.8516   23.3589 C   0  0  0  0  0  0  0  0  0  0  0  0
    7.6057   -0.3211   24.7609 C   0  0  0  0  0  0  0  0  0  0  0  0
    6.6841    0.2653   24.8646 H   0  0  0  0  0  0  0  0  0  0  0  0
    7.5597   -1.1633   25.4623 H   0  0  0  0  0  0  0  0  0  0  0  0
    8.8406    0.5335   25.0980 C   0  0  0  0  0  0  0  0  0  0  0  0
    9.7513   -0.0764   24.9739 H   0  0  0  0  0  0  0  0  0  0  0  0
    8.7988    0.7981   26.1651 H   0  0  0  0  0  0  0  0  0  0  0  0
    8.9911    1.8084   24.2531 C   0  0  0  0  0  0  0  0  0  0  0  0
    9.2590    1.5560   23.2159 H   0  0  0  0  0  0  0  0  0  0  0  0
    8.0309    2.3494   24.1972 H   0  0  0  0  0  0  0  0  0  0  0  0
   10.0681    2.6978   24.8699 C   0  0  0  0  0  0  0  0  0  0  0  0
    9.8203    2.7910   25.9350 H   0  0  0  0  0  0  0  0  0  0  0  0
   11.0297    2.1615   24.8174 H   0  0  0  0  0  0  0  0  0  0  0  0
   10.2297    4.1079   24.2884 C   0  0  0  0  0  0  0  0  0  0  0  0
    9.3781    4.7268   24.6056 H   0  0  0  0  0  0  0  0  0  0  0  0
   11.1247    4.5762   24.7279 H   0  0  0  0  0  0  0  0  0  0  0  0
   10.3344    4.1577   22.7606 C   0  0  0  0  0  0  0  0  0  0  0  0
    9.3985    3.7753   22.3305 H   0  0  0  0  0  0  0  0  0  0  0  0
   10.4043    5.2114   22.4546 H   0  0  0  0  0  0  0  0  0  0  0  0
   11.5331    3.3968   22.1785 C   0  0  0  0  0  0  0  0  0  0  0  0
   11.3806    3.2172   21.1086 H   0  0  0  0  0  0  0  0  0  0  0  0
   11.5946    2.4001   22.6310 H   0  0  0  0  0  0  0  0  0  0  0  0
   12.8493    4.1394   22.3846 C   0  0  0  0  0  0  0  0  0  0  0  0
   13.6778    3.6631   21.8604 H   0  0  0  0  0  0  0  0  0  0  0  0
   13.1192    4.2064   23.4417 H   0  0  0  0  0  0  0  0  0  0  0  0
   12.7801    5.1648   22.0101 H   0  0  0  0  0  0  0  0  0  0  0  0
    7.0330   -0.2197   22.3734 N   0  0  0  0  0  0  0  0  0  0  0  0
    7.3302   -0.5667   21.1027 C   0  0  0  0  0  0  0  0  0  0  0  0
    6.6001    0.1414   20.0115 C   0  0  0  0  0  0  0  0  0  0  0  0
    7.1637    0.1652   18.7242 C   0  0  0  0  0  0  0  0  0  0  0  0
    8.1345   -0.2925   18.5375 H   0  0  0  0  0  0  0  0  0  0  0  0
    6.5960    0.7274   17.6573 N   0  0  0  0  0  0  0  0  0  0  0  0
    5.4061    1.3143   17.8392 C   0  0  0  0  0  0  0  0  0  0  0  0
    4.9528    1.7495   16.9523 H   0  0  0  0  0  0  0  0  0  0  0  0
    4.7545    1.3730   19.0765 C   0  0  0  0  0  0  0  0  0  0  0  0
    3.7956    1.8786   19.1493 H   0  0  0  0  0  0  0  0  0  0  0  0
    5.3646    0.7942   20.1905 C   0  0  0  0  0  0  0  0  0  0  0  0
    4.9000    0.8581   21.1776 H   0  0  0  0  0  0  0  0  0  0  0  0
  1  2  1  0
  2  3  2  0
  3  4  1  0
  4  5  1  0
  4  6  2  0
  6  7  1  0
  7  8  1  0
  7  9  1  0
  7 10  1  0
 10 11  1  0
 10 12  1  0
 10 13  1  0
 13 14  1  0
 13 15  1  0
 13 16  1  0
 16 17  1  0
 16 18  1  0
 16 19  1  0
 19 20  1  0
 19 21  1  0
 19 22  1  0
 22 23  1  0
 22 24  1  0
 22 25  1  0
 25 26  1  0
 25 27  1  0
 25 28  1  0
 28 29  1  0
 28 30  1  0
 28 31  1  0
  6 32  1  0
 32 33  2  0
 33 34  1  0
 34 35  2  0
 35 36  1  0
 35 37  1  0
 37 38  2  0
 38 39  1  0
 38 40  1  0
 40 41  1  0
 40 42  2  0
 42 43  1  0
 33  2  1  0
 42 34  1  0
M  END
>  <cnnaffinity>  (1) 
-5.53649

>  <filename>  (1) 
CCCCCCCCc1cncc(-c2cccnc2)n1

$$$$
