
     RDKit          3D

 36 37  0  0  0  0  0  0  0  0999 V2000
    4.9824    1.8129   16.9484 H   0  0  0  0  0  0  0  0  0  0  0  0
    5.4390    1.2968   17.7910 C   0  0  0  0  0  0  0  0  0  0  0  0
    6.5987    0.6656   17.5401 N   0  0  0  0  0  0  0  0  0  0  0  0
    7.2006    0.0467   18.5640 C   0  0  0  0  0  0  0  0  0  0  0  0
    8.1339   -0.4568   18.3162 H   0  0  0  0  0  0  0  0  0  0  0  0
    6.7008    0.0234   19.8893 C   0  0  0  0  0  0  0  0  0  0  0  0
    7.4347   -0.6143   21.0114 C   0  0  0  0  0  0  0  0  0  0  0  0
    8.7483   -1.7121   20.7317 S   0  0  0  0  0  0  0  0  0  0  0  0
    8.9425   -2.0047   22.4128 C   0  0  0  0  0  0  0  0  0  0  0  0
    9.6602   -2.7327   22.7615 H   0  0  0  0  0  0  0  0  0  0  0  0
    8.0936   -1.2641   23.1779 C   0  0  0  0  0  0  0  0  0  0  0  0
    8.0368   -1.3025   24.6885 C   0  0  0  0  0  0  0  0  0  0  0  0
    8.9360   -1.7966   25.0844 H   0  0  0  0  0  0  0  0  0  0  0  0
    8.0688   -0.2774   25.0793 H   0  0  0  0  0  0  0  0  0  0  0  0
    6.7731   -1.9914   25.2372 C   0  0  0  0  0  0  0  0  0  0  0  0
    5.8967   -1.4305   24.8820 H   0  0  0  0  0  0  0  0  0  0  0  0
    6.7622   -1.9076   26.3337 H   0  0  0  0  0  0  0  0  0  0  0  0
    6.6085   -3.4598   24.8247 C   0  0  0  0  0  0  0  0  0  0  0  0
    6.5712   -3.5203   23.7271 H   0  0  0  0  0  0  0  0  0  0  0  0
    5.6248   -3.8021   25.1687 H   0  0  0  0  0  0  0  0  0  0  0  0
    7.6988   -4.4110   25.3378 C   0  0  0  0  0  0  0  0  0  0  0  0
    8.6318   -4.2112   24.7928 H   0  0  0  0  0  0  0  0  0  0  0  0
    7.9143   -4.2064   26.3987 H   0  0  0  0  0  0  0  0  0  0  0  0
    7.3479   -5.8969   25.1946 C   0  0  0  0  0  0  0  0  0  0  0  0
    7.0969   -6.1139   24.1430 H   0  0  0  0  0  0  0  0  0  0  0  0
    8.2413   -6.4869   25.4344 H   0  0  0  0  0  0  0  0  0  0  0  0
    6.2120   -6.3722   26.1119 C   0  0  0  0  0  0  0  0  0  0  0  0
    6.0332   -7.4473   26.0058 H   0  0  0  0  0  0  0  0  0  0  0  0
    5.2632   -5.8710   25.8930 H   0  0  0  0  0  0  0  0  0  0  0  0
    6.4401   -6.1993   27.1711 H   0  0  0  0  0  0  0  0  0  0  0  0
    7.2276   -0.4644   22.3557 C   0  0  0  0  0  0  0  0  0  0  0  0
    6.4873    0.2130   22.7717 H   0  0  0  0  0  0  0  0  0  0  0  0
    5.4614    0.6526   20.1075 C   0  0  0  0  0  0  0  0  0  0  0  0
    4.9993    0.6266   21.0931 H   0  0  0  0  0  0  0  0  0  0  0  0
    4.8265    1.3020   19.0465 C   0  0  0  0  0  0  0  0  0  0  0  0
    3.8842    1.8226   19.1837 H   0  0  0  0  0  0  0  0  0  0  0  0
  1  2  1  0
  2  3  2  0
  3  4  1  0
  4  5  1  0
  4  6  2  0
  6  7  1  0
  7  8  1  0
  8  9  1  0
  9 10  1  0
  9 11  2  0
 11 12  1  0
 12 13  1  0
 12 14  1  0
 12 15  1  0
 15 16  1  0
 15 17  1  0
 15 18  1  0
 18 19  1  0
 18 20  1  0
 18 21  1  0
 21 22  1  0
 21 23  1  0
 21 24  1  0
 24 25  1  0
 24 26  1  0
 24 27  1  0
 27 28  1  0
 27 29  1  0
 27 30  1  0
 11 31  1  0
 31 32  1  0
  6 33  1  0
 33 34  1  0
 33 35  2  0
 35 36  1  0
 35  2  1  0
 31  7  2  0
M  END
>  <cnnaffinity>  (1) 
-5.13212

>  <filename>  (1) 
CCCCCCc1csc(-c2cccnc2)c1

$$$$
