
     RDKit          3D

 45 46  0  0  0  0  0  0  0  0999 V2000
    4.9170    1.8053   16.9791 H   0  0  0  0  0  0  0  0  0  0  0  0
    5.3900    1.2973   17.8186 C   0  0  0  0  0  0  0  0  0  0  0  0
    6.5515    0.6777   17.5545 N   0  0  0  0  0  0  0  0  0  0  0  0
    7.1575    0.0458   18.5674 C   0  0  0  0  0  0  0  0  0  0  0  0
    8.1212   -0.4129   18.3500 H   0  0  0  0  0  0  0  0  0  0  0  0
    6.6444    0.0012   19.8778 C   0  0  0  0  0  0  0  0  0  0  0  0
    7.3467   -0.6734   20.9419 N   0  0  0  0  0  0  0  0  0  0  0  0
    7.5687   -2.0312   20.8194 C   0  0  0  0  0  0  0  0  0  0  0  0
    7.1174   -2.4510   19.9278 H   0  0  0  0  0  0  0  0  0  0  0  0
    8.2473   -2.7409   21.7569 C   0  0  0  0  0  0  0  0  0  0  0  0
    8.4198   -3.8086   21.6290 H   0  0  0  0  0  0  0  0  0  0  0  0
    8.7146   -2.0813   22.9408 C   0  0  0  0  0  0  0  0  0  0  0  0
    9.3877   -2.8863   24.0262 C   0  0  0  0  0  0  0  0  0  0  0  0
    9.9622   -2.2075   24.6709 H   0  0  0  0  0  0  0  0  0  0  0  0
   10.1101   -3.5795   23.5755 H   0  0  0  0  0  0  0  0  0  0  0  0
    8.3801   -3.6693   24.8876 C   0  0  0  0  0  0  0  0  0  0  0  0
    7.7796   -4.3236   24.2374 H   0  0  0  0  0  0  0  0  0  0  0  0
    8.9253   -4.3352   25.5730 H   0  0  0  0  0  0  0  0  0  0  0  0
    7.4400   -2.7728   25.6978 C   0  0  0  0  0  0  0  0  0  0  0  0
    8.0313   -2.0707   26.3079 H   0  0  0  0  0  0  0  0  0  0  0  0
    6.8361   -2.1440   25.0246 H   0  0  0  0  0  0  0  0  0  0  0  0
    6.5042   -3.5679   26.6046 C   0  0  0  0  0  0  0  0  0  0  0  0
    5.9063   -4.2640   25.9939 H   0  0  0  0  0  0  0  0  0  0  0  0
    7.0966   -4.2039   27.2804 H   0  0  0  0  0  0  0  0  0  0  0  0
    5.5634   -2.6699   27.4109 C   0  0  0  0  0  0  0  0  0  0  0  0
    5.0305   -1.9986   26.7219 H   0  0  0  0  0  0  0  0  0  0  0  0
    6.1571   -2.0092   28.0624 H   0  0  0  0  0  0  0  0  0  0  0  0
    4.5461   -3.4451   28.2547 C   0  0  0  0  0  0  0  0  0  0  0  0
    3.7911   -2.7473   28.6422 H   0  0  0  0  0  0  0  0  0  0  0  0
    4.0015   -4.1492   27.6051 H   0  0  0  0  0  0  0  0  0  0  0  0
    5.1584   -4.2195   29.4278 C   0  0  0  0  0  0  0  0  0  0  0  0
    5.8729   -4.9661   29.0529 H   0  0  0  0  0  0  0  0  0  0  0  0
    5.7427   -3.5290   30.0500 H   0  0  0  0  0  0  0  0  0  0  0  0
    4.1020   -4.8916   30.3045 C   0  0  0  0  0  0  0  0  0  0  0  0
    3.4144   -4.1444   30.7215 H   0  0  0  0  0  0  0  0  0  0  0  0
    3.4997   -5.6048   29.7285 H   0  0  0  0  0  0  0  0  0  0  0  0
    4.5567   -5.4300   31.1428 H   0  0  0  0  0  0  0  0  0  0  0  0
    8.4593   -0.7445   23.0963 C   0  0  0  0  0  0  0  0  0  0  0  0
    8.7343   -0.1823   23.9755 H   0  0  0  0  0  0  0  0  0  0  0  0
    7.7557    0.0512   22.1123 C   0  0  0  0  0  0  0  0  0  0  0  0
    7.5377    1.2432   22.2455 O   0  0  0  0  0  0  0  0  0  0  0  0
    5.4373    0.6435   20.1423 C   0  0  0  0  0  0  0  0  0  0  0  0
    5.0457    0.6409   21.1609 H   0  0  0  0  0  0  0  0  0  0  0  0
    4.8013    1.3031   19.0876 C   0  0  0  0  0  0  0  0  0  0  0  0
    3.8773    1.8404   19.2475 H   0  0  0  0  0  0  0  0  0  0  0  0
  1  2  1  0
  2  3  2  0
  3  4  1  0
  4  5  1  0
  4  6  2  0
  6  7  1  0
  7  8  1  0
  8  9  1  0
  8 10  2  0
 10 11  1  0
 10 12  1  0
 12 13  1  0
 13 14  1  0
 13 15  1  0
 13 16  1  0
 16 17  1  0
 16 18  1  0
 16 19  1  0
 19 20  1  0
 19 21  1  0
 19 22  1  0
 22 23  1  0
 22 24  1  0
 22 25  1  0
 25 26  1  0
 25 27  1  0
 25 28  1  0
 28 29  1  0
 28 30  1  0
 28 31  1  0
 31 32  1  0
 31 33  1  0
 31 34  1  0
 34 35  1  0
 34 36  1  0
 34 37  1  0
 12 38  2  0
 38 39  1  0
 38 40  1  0
 40 41  2  0
  6 42  1  0
 42 43  1  0
 42 44  2  0
 44 45  1  0
 44  2  1  0
 40  7  1  0
M  END
>  <cnnaffinity>  (1) 
-5.47633

>  <filename>  (1) 
CCCCCCCCc1ccn(-c2cccnc2)c(=O)c1

$$$$
