
     RDKit          3D

 42 43  0  0  0  0  0  0  0  0999 V2000
    4.9998    1.8451   16.7753 H   0  0  0  0  0  0  0  0  0  0  0  0
    5.4007    1.3695   17.6702 C   0  0  0  0  0  0  0  0  0  0  0  0
    6.5635    0.7109   17.5280 N   0  0  0  0  0  0  0  0  0  0  0  0
    7.0766    0.1211   18.6135 C   0  0  0  0  0  0  0  0  0  0  0  0
    8.0134   -0.4074   18.4470 H   0  0  0  0  0  0  0  0  0  0  0  0
    6.4875    0.1536   19.8981 C   0  0  0  0  0  0  0  0  0  0  0  0
    7.1034   -0.4757   21.0748 C   0  0  0  0  0  0  0  0  0  0  0  0
    6.9375   -0.2906   22.4277 C   0  0  0  0  0  0  0  0  0  0  0  0
    6.3052    0.4270   22.9334 H   0  0  0  0  0  0  0  0  0  0  0  0
    7.7300   -1.1488   23.1378 N   0  0  0  0  0  0  0  0  0  0  0  0
    8.3641   -1.8742   22.2489 C   0  0  0  0  0  0  0  0  0  0  0  0
    9.2704   -3.0150   22.5822 C   0  0  0  0  0  0  0  0  0  0  0  0
   10.0539   -3.0488   21.8241 H   0  0  0  0  0  0  0  0  0  0  0  0
    9.7637   -2.7529   23.5217 H   0  0  0  0  0  0  0  0  0  0  0  0
    8.5635   -4.3718   22.7848 C   0  0  0  0  0  0  0  0  0  0  0  0
    7.8017   -4.2222   23.5601 H   0  0  0  0  0  0  0  0  0  0  0  0
    9.2775   -5.0697   23.2381 H   0  0  0  0  0  0  0  0  0  0  0  0
    7.9284   -5.0558   21.5585 C   0  0  0  0  0  0  0  0  0  0  0  0
    8.6725   -5.6152   20.9863 H   0  0  0  0  0  0  0  0  0  0  0  0
    7.5159   -4.3105   20.8613 H   0  0  0  0  0  0  0  0  0  0  0  0
    6.8268   -6.0599   21.9588 C   0  0  0  0  0  0  0  0  0  0  0  0
    6.9377   -6.9826   21.3799 H   0  0  0  0  0  0  0  0  0  0  0  0
    6.9731   -6.3704   23.0045 H   0  0  0  0  0  0  0  0  0  0  0  0
    5.4095   -5.5079   21.7586 C   0  0  0  0  0  0  0  0  0  0  0  0
    5.2791   -5.2788   20.6910 H   0  0  0  0  0  0  0  0  0  0  0  0
    4.6775   -6.2936   21.9947 H   0  0  0  0  0  0  0  0  0  0  0  0
    5.0981   -4.2509   22.5813 C   0  0  0  0  0  0  0  0  0  0  0  0
    4.1426   -3.8326   22.2400 H   0  0  0  0  0  0  0  0  0  0  0  0
    5.8464   -3.4647   22.3818 H   0  0  0  0  0  0  0  0  0  0  0  0
    5.0104   -4.5087   24.0892 C   0  0  0  0  0  0  0  0  0  0  0  0
    5.9372   -4.9763   24.4488 H   0  0  0  0  0  0  0  0  0  0  0  0
    4.2244   -5.2524   24.2826 H   0  0  0  0  0  0  0  0  0  0  0  0
    4.7396   -3.2474   24.9042 C   0  0  0  0  0  0  0  0  0  0  0  0
    3.7887   -2.7811   24.6224 H   0  0  0  0  0  0  0  0  0  0  0  0
    5.5237   -2.4953   24.7575 H   0  0  0  0  0  0  0  0  0  0  0  0
    4.6901   -3.4792   25.9726 H   0  0  0  0  0  0  0  0  0  0  0  0
    8.0629   -1.4744   20.9827 N   0  0  0  0  0  0  0  0  0  0  0  0
    8.3233   -1.9602   20.1427 H   0  0  0  0  0  0  0  0  0  0  0  0
    5.2558    0.8222   20.0075 C   0  0  0  0  0  0  0  0  0  0  0  0
    4.7387    0.8344   20.9636 H   0  0  0  0  0  0  0  0  0  0  0  0
    4.7050    1.4350   18.8809 C   0  0  0  0  0  0  0  0  0  0  0  0
    3.7556    1.9556   18.9276 H   0  0  0  0  0  0  0  0  0  0  0  0
  1  2  1  0
  2  3  2  0
  3  4  1  0
  4  5  1  0
  4  6  2  0
  6  7  1  0
  7  8  2  0
  8  9  1  0
  8 10  1  0
 10 11  2  0
 11 12  1  0
 12 13  1  0
 12 14  1  0
 12 15  1  0
 15 16  1  0
 15 17  1  0
 15 18  1  0
 18 19  1  0
 18 20  1  0
 18 21  1  0
 21 22  1  0
 21 23  1  0
 21 24  1  0
 24 25  1  0
 24 26  1  0
 24 27  1  0
 27 28  1  0
 27 29  1  0
 27 30  1  0
 30 31  1  0
 30 32  1  0
 30 33  1  0
 33 34  1  0
 33 35  1  0
 33 36  1  0
 11 37  1  0
 37 38  1  0
  6 39  1  0
 39 40  1  0
 39 41  2  0
 41 42  1  0
 41  2  1  0
 37  7  1  0
M  END
>  <cnnaffinity>  (1) 
-5.13676

>  <filename>  (1) 
CCCCCCCCc1ncc(-c2cccnc2)[nH]1

$$$$
