
     RDKit          3D

 41 42  0  0  0  0  0  0  0  0999 V2000
    4.9072    1.8236   16.9633 H   0  0  0  0  0  0  0  0  0  0  0  0
    5.3823    1.3148   17.8046 C   0  0  0  0  0  0  0  0  0  0  0  0
    6.5427    0.6972   17.5400 N   0  0  0  0  0  0  0  0  0  0  0  0
    7.1655    0.0903   18.5637 C   0  0  0  0  0  0  0  0  0  0  0  0
    8.1021   -0.4083   18.3219 H   0  0  0  0  0  0  0  0  0  0  0  0
    6.6698    0.0354   19.8857 C   0  0  0  0  0  0  0  0  0  0  0  0
    7.3700   -0.6799   20.9836 C   0  0  0  0  0  0  0  0  0  0  0  0
    6.7695   -1.7078   21.7966 C   0  0  0  0  0  0  0  0  0  0  0  0
    5.7592   -2.0830   21.6659 H   0  0  0  0  0  0  0  0  0  0  0  0
    7.5147   -2.2508   22.7216 N   0  0  0  0  0  0  0  0  0  0  0  0
    9.0092   -1.5310   22.6890 S   0  0  0  0  0  0  0  0  0  0  0  0
    8.6624   -0.4623   21.3911 C   0  0  0  0  0  0  0  0  0  0  0  0
    9.6284    0.6163   20.9805 C   0  0  0  0  0  0  0  0  0  0  0  0
    9.4019    0.8630   19.9364 H   0  0  0  0  0  0  0  0  0  0  0  0
   10.6578    0.2421   21.0068 H   0  0  0  0  0  0  0  0  0  0  0  0
    9.4976    1.8950   21.8375 C   0  0  0  0  0  0  0  0  0  0  0  0
    9.7314    1.6777   22.8906 H   0  0  0  0  0  0  0  0  0  0  0  0
   10.2599    2.6108   21.5001 H   0  0  0  0  0  0  0  0  0  0  0  0
    8.1136    2.5427   21.7148 C   0  0  0  0  0  0  0  0  0  0  0  0
    7.8590    2.5783   20.6450 H   0  0  0  0  0  0  0  0  0  0  0  0
    7.3409    1.8883   22.1501 H   0  0  0  0  0  0  0  0  0  0  0  0
    8.0442    3.9145   22.4040 C   0  0  0  0  0  0  0  0  0  0  0  0
    8.2884    3.7832   23.4727 H   0  0  0  0  0  0  0  0  0  0  0  0
    8.8261    4.5917   22.0234 H   0  0  0  0  0  0  0  0  0  0  0  0
    6.6838    4.6090   22.2933 C   0  0  0  0  0  0  0  0  0  0  0  0
    5.9013    3.9365   22.6827 H   0  0  0  0  0  0  0  0  0  0  0  0
    6.4374    4.7734   21.2325 H   0  0  0  0  0  0  0  0  0  0  0  0
    6.6244    5.9439   23.0547 C   0  0  0  0  0  0  0  0  0  0  0  0
    7.3599    6.6437   22.6220 H   0  0  0  0  0  0  0  0  0  0  0  0
    6.9452    5.7770   24.0951 H   0  0  0  0  0  0  0  0  0  0  0  0
    5.2344    6.6044   23.0509 C   0  0  0  0  0  0  0  0  0  0  0  0
    4.4962    5.8827   23.4351 H   0  0  0  0  0  0  0  0  0  0  0  0
    5.2312    7.4393   23.7652 H   0  0  0  0  0  0  0  0  0  0  0  0
    4.7989    7.1069   21.6677 C   0  0  0  0  0  0  0  0  0  0  0  0
    4.6685    6.2795   20.9616 H   0  0  0  0  0  0  0  0  0  0  0  0
    5.5474    7.7843   21.2360 H   0  0  0  0  0  0  0  0  0  0  0  0
    3.8474    7.6483   21.7112 H   0  0  0  0  0  0  0  0  0  0  0  0
    5.4409    0.6646   20.1227 C   0  0  0  0  0  0  0  0  0  0  0  0
    5.0224    0.6387   21.1290 H   0  0  0  0  0  0  0  0  0  0  0  0
    4.7911    1.3239   19.0728 C   0  0  0  0  0  0  0  0  0  0  0  0
    3.8564    1.8500   19.2243 H   0  0  0  0  0  0  0  0  0  0  0  0
  1  2  1  0
  2  3  2  0
  3  4  1  0
  4  5  1  0
  4  6  2  0
  6  7  1  0
  7  8  1  0
  8  9  1  0
  8 10  2  0
 10 11  1  0
 11 12  1  0
 12 13  1  0
 13 14  1  0
 13 15  1  0
 13 16  1  0
 16 17  1  0
 16 18  1  0
 16 19  1  0
 19 20  1  0
 19 21  1  0
 19 22  1  0
 22 23  1  0
 22 24  1  0
 22 25  1  0
 25 26  1  0
 25 27  1  0
 25 28  1  0
 28 29  1  0
 28 30  1  0
 28 31  1  0
 31 32  1  0
 31 33  1  0
 31 34  1  0
 34 35  1  0
 34 36  1  0
 34 37  1  0
  6 38  1  0
 38 39  1  0
 38 40  2  0
 40 41  1  0
 40  2  1  0
 12  7  2  0
M  END
>  <cnnaffinity>  (1) 
-5.15011

>  <filename>  (1) 
CCCCCCCCc1sncc1-c1cccnc1

$$$$
