
     RDKit          3D

 35 37  0  0  0  0  0  0  0  0999 V2000
    4.9262    1.8052   16.9713 H   0  0  0  0  0  0  0  0  0  0  0  0
    5.4027    1.2971   17.8108 C   0  0  0  0  0  0  0  0  0  0  0  0
    6.5649    0.6757   17.5566 N   0  0  0  0  0  0  0  0  0  0  0  0
    7.1860    0.0650   18.5699 C   0  0  0  0  0  0  0  0  0  0  0  0
    8.1320   -0.4108   18.3230 H   0  0  0  0  0  0  0  0  0  0  0  0
    6.6831    0.0191   19.8805 C   0  0  0  0  0  0  0  0  0  0  0  0
    7.3995   -0.6929   20.9533 C   0  0  0  0  0  0  0  0  0  0  0  0
    8.6255   -1.2177   20.7880 N   0  0  0  0  0  0  0  0  0  0  0  0
    8.8613   -1.7960   21.9890 N   0  0  0  0  0  0  0  0  0  0  0  0
    9.8931   -2.5476   22.5272 C   0  0  0  0  0  0  0  0  0  0  0  0
   10.7759   -2.7270   21.9397 H   0  0  0  0  0  0  0  0  0  0  0  0
    9.4905   -2.8930   23.7827 C   0  0  0  0  0  0  0  0  0  0  0  0
    9.9305   -3.5036   24.5584 H   0  0  0  0  0  0  0  0  0  0  0  0
    8.2514   -2.3345   24.0028 N   0  0  0  0  0  0  0  0  0  0  0  0
    7.5472   -2.6163   25.1421 O   0  0  0  0  0  0  0  0  0  0  0  0
    6.3064   -1.8884   25.3072 C   0  0  0  0  0  0  0  0  0  0  0  0
    5.8762   -2.4324   26.1520 H   0  0  0  0  0  0  0  0  0  0  0  0
    5.6734   -2.0487   24.4214 H   0  0  0  0  0  0  0  0  0  0  0  0
    6.4611   -0.3969   25.6158 C   0  0  0  0  0  0  0  0  0  0  0  0
    5.4585    0.0423   25.5302 H   0  0  0  0  0  0  0  0  0  0  0  0
    7.0623    0.0874   24.8302 H   0  0  0  0  0  0  0  0  0  0  0  0
    7.0400   -0.0884   27.0061 C   0  0  0  0  0  0  0  0  0  0  0  0
    6.4312   -0.5933   27.7736 H   0  0  0  0  0  0  0  0  0  0  0  0
    6.9228    0.9852   27.2081 H   0  0  0  0  0  0  0  0  0  0  0  0
    8.5088   -0.4907   27.1530 C   0  0  0  0  0  0  0  0  0  0  0  0
    8.9302   -0.1200   28.0929 H   0  0  0  0  0  0  0  0  0  0  0  0
    9.1087   -0.0782   26.3323 H   0  0  0  0  0  0  0  0  0  0  0  0
    8.6255   -1.5773   27.1330 H   0  0  0  0  0  0  0  0  0  0  0  0
    7.8554   -1.6711   22.8684 C   0  0  0  0  0  0  0  0  0  0  0  0
    6.8658   -0.9320   22.2379 C   0  0  0  0  0  0  0  0  0  0  0  0
    5.9473   -0.5618   22.6394 H   0  0  0  0  0  0  0  0  0  0  0  0
    5.4566    0.6627   20.1246 C   0  0  0  0  0  0  0  0  0  0  0  0
    5.0051    0.6656   21.1170 H   0  0  0  0  0  0  0  0  0  0  0  0
    4.8098    1.3127   19.0783 C   0  0  0  0  0  0  0  0  0  0  0  0
    3.8715    1.8415   19.2332 H   0  0  0  0  0  0  0  0  0  0  0  0
  1  2  1  0
  2  3  2  0
  3  4  1  0
  4  5  1  0
  4  6  2  0
  6  7  1  0
  7  8  2  0
  8  9  1  0
  9 10  1  0
 10 11  1  0
 10 12  2  0
 12 13  1  0
 12 14  1  0
 14 15  1  0
 15 16  1  0
 16 17  1  0
 16 18  1  0
 16 19  1  0
 19 20  1  0
 19 21  1  0
 19 22  1  0
 22 23  1  0
 22 24  1  0
 22 25  1  0
 25 26  1  0
 25 27  1  0
 25 28  1  0
 14 29  1  0
 29 30  2  0
 30 31  1  0
  6 32  1  0
 32 33  1  0
 32 34  2  0
 34 35  1  0
 34  2  1  0
 30  7  1  0
 29  9  1  0
M  END
>  <cnnaffinity>  (1) 
-5.19497

>  <filename>  (1) 
CCCCOn1ccn2nc(-c3cccnc3)cc12

$$$$
