
     RDKit          3D

 35 36  0  0  0  0  0  0  0  0999 V2000
    4.9448    1.7892   16.9859 H   0  0  0  0  0  0  0  0  0  0  0  0
    5.4069    1.2856   17.8339 C   0  0  0  0  0  0  0  0  0  0  0  0
    6.5730    0.6645   17.5865 N   0  0  0  0  0  0  0  0  0  0  0  0
    7.1926    0.0640   18.6126 C   0  0  0  0  0  0  0  0  0  0  0  0
    8.1428   -0.4152   18.3927 H   0  0  0  0  0  0  0  0  0  0  0  0
    6.6736    0.0152   19.9191 C   0  0  0  0  0  0  0  0  0  0  0  0
    7.3829   -0.6768   20.9526 N   0  0  0  0  0  0  0  0  0  0  0  0
    8.7501   -0.5688   20.9354 N   0  0  0  0  0  0  0  0  0  0  0  0
    9.4269   -1.1435   21.8898 C   0  0  0  0  0  0  0  0  0  0  0  0
   10.9254   -0.9158   21.9170 C   0  0  0  0  0  0  0  0  0  0  0  0
   11.3983   -1.8710   22.1639 H   0  0  0  0  0  0  0  0  0  0  0  0
   11.2556   -0.6132   20.9131 H   0  0  0  0  0  0  0  0  0  0  0  0
   11.3410    0.1342   22.9659 C   0  0  0  0  0  0  0  0  0  0  0  0
   10.9704   -0.1827   23.9536 H   0  0  0  0  0  0  0  0  0  0  0  0
   12.4382    0.1475   23.0524 H   0  0  0  0  0  0  0  0  0  0  0  0
   10.8185    1.5315   22.6206 C   0  0  0  0  0  0  0  0  0  0  0  0
    9.7248    1.4957   22.4960 H   0  0  0  0  0  0  0  0  0  0  0  0
   11.2188    1.8160   21.6338 H   0  0  0  0  0  0  0  0  0  0  0  0
   11.2073    2.6141   23.6321 C   0  0  0  0  0  0  0  0  0  0  0  0
   10.6201    3.5172   23.4241 H   0  0  0  0  0  0  0  0  0  0  0  0
   10.9133    2.2957   24.6462 H   0  0  0  0  0  0  0  0  0  0  0  0
   12.6947    2.9869   23.5908 C   0  0  0  0  0  0  0  0  0  0  0  0
   13.3250    2.2271   24.0680 H   0  0  0  0  0  0  0  0  0  0  0  0
   12.8499    3.9393   24.1115 H   0  0  0  0  0  0  0  0  0  0  0  0
   13.0582    3.1033   22.5598 H   0  0  0  0  0  0  0  0  0  0  0  0
    8.8184   -2.0038   22.9687 C   0  0  0  0  0  0  0  0  0  0  0  0
    9.4767   -2.5541   23.8448 O   0  0  0  0  0  0  0  0  0  0  0  0
    7.3802   -2.1292   22.8480 C   0  0  0  0  0  0  0  0  0  0  0  0
    6.8735   -2.7442   23.5792 H   0  0  0  0  0  0  0  0  0  0  0  0
    6.7360   -1.4680   21.8617 C   0  0  0  0  0  0  0  0  0  0  0  0
    5.6647   -1.5322   21.7007 H   0  0  0  0  0  0  0  0  0  0  0  0
    5.4449    0.6513   20.1621 C   0  0  0  0  0  0  0  0  0  0  0  0
    5.0242    0.6547   21.1670 H   0  0  0  0  0  0  0  0  0  0  0  0
    4.8117    1.3063   19.0996 C   0  0  0  0  0  0  0  0  0  0  0  0
    3.8765    1.8382   19.2415 H   0  0  0  0  0  0  0  0  0  0  0  0
  1  2  1  0
  2  3  2  0
  3  4  1  0
  4  5  1  0
  4  6  2  0
  6  7  1  0
  7  8  1  0
  8  9  2  0
  9 10  1  0
 10 11  1  0
 10 12  1  0
 10 13  1  0
 13 14  1  0
 13 15  1  0
 13 16  1  0
 16 17  1  0
 16 18  1  0
 16 19  1  0
 19 20  1  0
 19 21  1  0
 19 22  1  0
 22 23  1  0
 22 24  1  0
 22 25  1  0
  9 26  1  0
 26 27  2  0
 26 28  1  0
 28 29  1  0
 28 30  2  0
 30 31  1  0
  6 32  1  0
 32 33  1  0
 32 34  2  0
 34 35  1  0
 34  2  1  0
 30  7  1  0
M  END
>  <cnnaffinity>  (1) 
-5.36227

>  <filename>  (1) 
CCCCCc1nn(-c2cccnc2)ccc1=O

$$$$
