
     RDKit          3D

 43 44  0  0  0  0  0  0  0  0999 V2000
   10.0774   -2.5227   21.3968 H   0  0  0  0  0  0  0  0  0  0  0  0
    9.1623   -1.9908   21.6611 C   0  0  0  0  0  0  0  0  0  0  0  0
    8.5294   -1.3666   20.6708 N   0  0  0  0  0  0  0  0  0  0  0  0
    7.4116   -0.7170   20.9996 C   0  0  0  0  0  0  0  0  0  0  0  0
    6.6695   -0.0036   19.9433 C   0  0  0  0  0  0  0  0  0  0  0  0
    7.1877    0.0389   18.6416 C   0  0  0  0  0  0  0  0  0  0  0  0
    8.1287   -0.4365   18.3889 H   0  0  0  0  0  0  0  0  0  0  0  0
    6.5785    0.6548   17.6212 N   0  0  0  0  0  0  0  0  0  0  0  0
    5.4177    1.2756   17.8627 C   0  0  0  0  0  0  0  0  0  0  0  0
    4.9427    1.7667   17.0128 H   0  0  0  0  0  0  0  0  0  0  0  0
    4.8187    1.2977   19.1246 C   0  0  0  0  0  0  0  0  0  0  0  0
    3.8893    1.8302   19.2623 H   0  0  0  0  0  0  0  0  0  0  0  0
    5.4464    0.6461   20.1819 C   0  0  0  0  0  0  0  0  0  0  0  0
    5.0009    0.6354   21.1797 H   0  0  0  0  0  0  0  0  0  0  0  0
    6.8942   -0.6590   22.2335 N   0  0  0  0  0  0  0  0  0  0  0  0
    7.5338   -1.2879   23.2170 C   0  0  0  0  0  0  0  0  0  0  0  0
    7.0138   -1.1845   24.6367 C   0  0  0  0  0  0  0  0  0  0  0  0
    7.0884   -2.1690   25.1136 H   0  0  0  0  0  0  0  0  0  0  0  0
    5.9488   -0.9360   24.6136 H   0  0  0  0  0  0  0  0  0  0  0  0
    7.7941   -0.1662   25.4934 C   0  0  0  0  0  0  0  0  0  0  0  0
    7.4542   -0.2367   26.5347 H   0  0  0  0  0  0  0  0  0  0  0  0
    8.8539   -0.4527   25.5137 H   0  0  0  0  0  0  0  0  0  0  0  0
    7.6729    1.2942   25.0369 C   0  0  0  0  0  0  0  0  0  0  0  0
    8.4249    1.8836   25.5730 H   0  0  0  0  0  0  0  0  0  0  0  0
    7.9446    1.3628   23.9747 H   0  0  0  0  0  0  0  0  0  0  0  0
    6.2836    1.9231   25.2567 C   0  0  0  0  0  0  0  0  0  0  0  0
    6.4002    2.9340   25.6653 H   0  0  0  0  0  0  0  0  0  0  0  0
    5.7413    1.3657   26.0341 H   0  0  0  0  0  0  0  0  0  0  0  0
    5.4097    1.9870   23.9984 C   0  0  0  0  0  0  0  0  0  0  0  0
    5.3187    0.9848   23.5623 H   0  0  0  0  0  0  0  0  0  0  0  0
    5.9305    2.5906   23.2403 H   0  0  0  0  0  0  0  0  0  0  0  0
    4.0235    2.5824   24.2379 C   0  0  0  0  0  0  0  0  0  0  0  0
    3.5327    2.0470   25.0642 H   0  0  0  0  0  0  0  0  0  0  0  0
    3.3971    2.4172   23.3530 H   0  0  0  0  0  0  0  0  0  0  0  0
    4.0245    4.0831   24.5417 C   0  0  0  0  0  0  0  0  0  0  0  0
    4.5709    4.6070   23.7462 H   0  0  0  0  0  0  0  0  0  0  0  0
    4.5807    4.2831   25.4654 H   0  0  0  0  0  0  0  0  0  0  0  0
    2.6147    4.6568   24.6564 C   0  0  0  0  0  0  0  0  0  0  0  0
    2.6303    5.7299   24.8697 H   0  0  0  0  0  0  0  0  0  0  0  0
    2.0539    4.1612   25.4574 H   0  0  0  0  0  0  0  0  0  0  0  0
    2.0542    4.5072   23.7258 H   0  0  0  0  0  0  0  0  0  0  0  0
    8.7102   -1.9861   22.9690 C   0  0  0  0  0  0  0  0  0  0  0  0
    9.2463   -2.4818   23.7636 H   0  0  0  0  0  0  0  0  0  0  0  0
  1  2  1  0
  2  3  2  0
  3  4  1  0
  4  5  1  0
  5  6  2  0
  6  7  1  0
  6  8  1  0
  8  9  2  0
  9 10  1  0
  9 11  1  0
 11 12  1  0
 11 13  2  0
 13 14  1  0
  4 15  2  0
 15 16  1  0
 16 17  1  0
 17 18  1  0
 17 19  1  0
 17 20  1  0
 20 21  1  0
 20 22  1  0
 20 23  1  0
 23 24  1  0
 23 25  1  0
 23 26  1  0
 26 27  1  0
 26 28  1  0
 26 29  1  0
 29 30  1  0
 29 31  1  0
 29 32  1  0
 32 33  1  0
 32 34  1  0
 32 35  1  0
 35 36  1  0
 35 37  1  0
 35 38  1  0
 38 39  1  0
 38 40  1  0
 38 41  1  0
 16 42  2  0
 42 43  1  0
 42  2  1  0
 13  5  1  0
M  END
>  <cnnaffinity>  (1) 
-5.20306

>  <filename>  (1) 
CCCCCCCCc1ccnc(-c2cccnc2)n1

$$$$
