
     RDKit          3D

 45 47  0  0  0  0  0  0  0  0999 V2000
    5.1476    1.7145   16.8054 H   0  0  0  0  0  0  0  0  0  0  0  0
    5.5237    1.2299   17.7044 C   0  0  0  0  0  0  0  0  0  0  0  0
    6.6289    0.4825   17.5608 N   0  0  0  0  0  0  0  0  0  0  0  0
    7.1188   -0.1123   18.6512 C   0  0  0  0  0  0  0  0  0  0  0  0
    8.0276   -0.6942   18.5122 H   0  0  0  0  0  0  0  0  0  0  0  0
    6.5562    0.0101   19.9330 C   0  0  0  0  0  0  0  0  0  0  0  0
    7.2665   -0.6043   21.0540 C   0  0  0  0  0  0  0  0  0  0  0  0
    7.8648   -1.8393   20.9179 N   0  0  0  0  0  0  0  0  0  0  0  0
    8.3676   -2.0679   22.0992 C   0  0  0  0  0  0  0  0  0  0  0  0
    9.2068   -3.3940   22.8687 S   0  0  0  0  0  0  0  0  0  0  0  0
    9.3763   -2.4459   24.3372 C   0  0  0  0  0  0  0  0  0  0  0  0
    9.9610   -2.8402   25.1558 H   0  0  0  0  0  0  0  0  0  0  0  0
    8.8031   -1.2291   24.2285 C   0  0  0  0  0  0  0  0  0  0  0  0
    8.8059   -0.4174   24.9484 H   0  0  0  0  0  0  0  0  0  0  0  0
    8.2084   -1.0345   22.9842 N   0  0  0  0  0  0  0  0  0  0  0  0
    7.4890   -0.0562   22.3125 C   0  0  0  0  0  0  0  0  0  0  0  0
    7.2480    1.3486   22.7686 C   0  0  0  0  0  0  0  0  0  0  0  0
    7.5924    1.4790   23.8034 H   0  0  0  0  0  0  0  0  0  0  0  0
    6.1670    1.5325   22.7943 H   0  0  0  0  0  0  0  0  0  0  0  0
    7.9072    2.3978   21.8401 C   0  0  0  0  0  0  0  0  0  0  0  0
    7.6541    3.4029   22.2051 H   0  0  0  0  0  0  0  0  0  0  0  0
    7.4664    2.3080   20.8382 H   0  0  0  0  0  0  0  0  0  0  0  0
    9.4275    2.2210   21.7264 C   0  0  0  0  0  0  0  0  0  0  0  0
    9.6148    1.2272   21.3002 H   0  0  0  0  0  0  0  0  0  0  0  0
    9.8278    2.9022   20.9767 H   0  0  0  0  0  0  0  0  0  0  0  0
   10.1849    2.4050   23.0484 C   0  0  0  0  0  0  0  0  0  0  0  0
    9.6261    1.9269   23.8663 H   0  0  0  0  0  0  0  0  0  0  0  0
   10.2053    3.4730   23.3047 H   0  0  0  0  0  0  0  0  0  0  0  0
   11.6198    1.8690   23.0612 C   0  0  0  0  0  0  0  0  0  0  0  0
   12.0371    2.0740   24.0581 H   0  0  0  0  0  0  0  0  0  0  0  0
   12.2483    2.4164   22.3377 H   0  0  0  0  0  0  0  0  0  0  0  0
   11.7436    0.3629   22.8032 C   0  0  0  0  0  0  0  0  0  0  0  0
   11.2165   -0.1707   23.6032 H   0  0  0  0  0  0  0  0  0  0  0  0
   11.2425    0.0759   21.8690 H   0  0  0  0  0  0  0  0  0  0  0  0
   13.1906   -0.1306   22.7633 C   0  0  0  0  0  0  0  0  0  0  0  0
   13.1856   -1.2267   22.7333 H   0  0  0  0  0  0  0  0  0  0  0  0
   13.6656    0.1892   21.8261 H   0  0  0  0  0  0  0  0  0  0  0  0
   14.0425    0.3913   23.9218 C   0  0  0  0  0  0  0  0  0  0  0  0
   13.5639    0.2940   24.9068 H   0  0  0  0  0  0  0  0  0  0  0  0
   14.2413    1.4579   23.7640 H   0  0  0  0  0  0  0  0  0  0  0  0
   14.9841   -0.1567   23.9707 H   0  0  0  0  0  0  0  0  0  0  0  0
    5.3759    0.7661   20.0589 C   0  0  0  0  0  0  0  0  0  0  0  0
    4.8677    0.8790   21.0195 H   0  0  0  0  0  0  0  0  0  0  0  0
    4.8607    1.3928   18.9257 C   0  0  0  0  0  0  0  0  0  0  0  0
    3.9767    2.0201   18.9793 H   0  0  0  0  0  0  0  0  0  0  0  0
  1  2  1  0
  2  3  2  0
  3  4  1  0
  4  5  1  0
  4  6  2  0
  6  7  1  0
  7  8  1  0
  8  9  2  0
  9 10  1  0
 10 11  1  0
 11 12  1  0
 11 13  2  0
 13 14  1  0
 13 15  1  0
 15 16  1  0
 16 17  1  0
 17 18  1  0
 17 19  1  0
 17 20  1  0
 20 21  1  0
 20 22  1  0
 20 23  1  0
 23 24  1  0
 23 25  1  0
 23 26  1  0
 26 27  1  0
 26 28  1  0
 26 29  1  0
 29 30  1  0
 29 31  1  0
 29 32  1  0
 32 33  1  0
 32 34  1  0
 32 35  1  0
 35 36  1  0
 35 37  1  0
 35 38  1  0
 38 39  1  0
 38 40  1  0
 38 41  1  0
  6 42  1  0
 42 43  1  0
 42 44  2  0
 44 45  1  0
 44  2  1  0
 16  7  2  0
 15  9  1  0
M  END
>  <cnnaffinity>  (1) 
-5.93791

>  <filename>  (1) 
CCCCCCCCc1c(-c2cccnc2)nc2sccn12

$$$$
