
     RDKit          3D

 50 51  0  0  0  0  0  0  0  0999 V2000
    4.9170    1.7983   16.9827 H   0  0  0  0  0  0  0  0  0  0  0  0
    5.3901    1.3020   17.8250 C   0  0  0  0  0  0  0  0  0  0  0  0
    6.5496    0.6796   17.5588 N   0  0  0  0  0  0  0  0  0  0  0  0
    7.1507    0.0575   18.5817 C   0  0  0  0  0  0  0  0  0  0  0  0
    8.1035   -0.4193   18.3449 H   0  0  0  0  0  0  0  0  0  0  0  0
    6.6510   -0.0096   19.8976 C   0  0  0  0  0  0  0  0  0  0  0  0
    7.3964   -0.7358   20.9890 C   0  0  0  0  0  0  0  0  0  0  0  0
    6.6665   -1.2206   21.6550 H   0  0  0  0  0  0  0  0  0  0  0  0
    7.9966   -1.5486   20.5543 H   0  0  0  0  0  0  0  0  0  0  0  0
    8.3465    0.1420   21.8759 C   0  0  1  0  0  0  0  0  0  0  0  0
    7.6023    1.2539   22.6296 C   0  0  0  0  0  0  0  0  0  0  0  0
    8.3571    1.8901   23.1156 H   0  0  0  0  0  0  0  0  0  0  0  0
    7.0990    1.9115   21.9084 H   0  0  0  0  0  0  0  0  0  0  0  0
    6.6196    0.7824   23.6924 C   0  0  0  0  0  0  0  0  0  0  0  0
    5.8975    0.0866   23.2511 H   0  0  0  0  0  0  0  0  0  0  0  0
    7.1514    0.1945   24.4542 H   0  0  0  0  0  0  0  0  0  0  0  0
    5.8790    1.9344   24.3591 C   0  0  0  0  0  0  0  0  0  0  0  0
    5.3433    2.5258   23.5998 H   0  0  0  0  0  0  0  0  0  0  0  0
    6.6024    2.6298   24.8130 H   0  0  0  0  0  0  0  0  0  0  0  0
    4.8938    1.4663   25.4219 C   0  0  0  0  0  0  0  0  0  0  0  0
    5.4299    0.8842   26.1866 H   0  0  0  0  0  0  0  0  0  0  0  0
    4.1752    0.7650   24.9738 H   0  0  0  0  0  0  0  0  0  0  0  0
    4.1604    2.6269   26.0916 C   0  0  0  0  0  0  0  0  0  0  0  0
    3.5745    3.1671   25.3323 H   0  0  0  0  0  0  0  0  0  0  0  0
    4.8997    3.3476   26.4669 H   0  0  0  0  0  0  0  0  0  0  0  0
    3.2389    2.1996   27.2341 C   0  0  0  0  0  0  0  0  0  0  0  0
    2.9128    3.0887   27.7892 H   0  0  0  0  0  0  0  0  0  0  0  0
    3.8113    1.5920   27.9516 H   0  0  0  0  0  0  0  0  0  0  0  0
    2.0075    1.4115   26.7796 C   0  0  0  0  0  0  0  0  0  0  0  0
    2.3176    0.4803   26.2874 H   0  0  0  0  0  0  0  0  0  0  0  0
    1.4807    1.9890   26.0073 H   0  0  0  0  0  0  0  0  0  0  0  0
    1.0566    1.0990   27.9339 C   0  0  0  0  0  0  0  0  0  0  0  0
    1.5584    0.5048   28.7074 H   0  0  0  0  0  0  0  0  0  0  0  0
    0.1772    0.5404   27.5989 H   0  0  0  0  0  0  0  0  0  0  0  0
    0.7066    2.0214   28.4131 H   0  0  0  0  0  0  0  0  0  0  0  0
    9.1373   -0.7749   22.8460 C   0  0  0  0  0  0  0  0  0  0  0  0
    9.4413   -0.1920   23.7331 H   0  0  0  0  0  0  0  0  0  0  0  0
    8.5207   -1.6090   23.2066 H   0  0  0  0  0  0  0  0  0  0  0  0
   10.2983   -1.2679   22.1009 N   0  0  0  0  0  0  0  0  0  0  0  0
   11.1106   -1.3193   22.7052 H   0  0  0  0  0  0  0  0  0  0  0  0
   10.5394   -0.3639   20.9751 C   0  0  0  0  0  0  0  0  0  0  0  0
   11.5744    0.0016   20.9422 H   0  0  0  0  0  0  0  0  0  0  0  0
   10.3098   -0.8782   20.0471 H   0  0  0  0  0  0  0  0  0  0  0  0
    9.5046    0.7550   21.0647 C   0  0  0  0  0  0  0  0  0  0  0  0
    9.1690    1.0568   20.0736 H   0  0  0  0  0  0  0  0  0  0  0  0
    9.9205    1.6380   21.5615 H   0  0  0  0  0  0  0  0  0  0  0  0
    5.4309    0.6411   20.1400 C   0  0  0  0  0  0  0  0  0  0  0  0
    5.0039    0.6339   21.1472 H   0  0  0  0  0  0  0  0  0  0  0  0
    4.7998    1.3125   19.0912 C   0  0  0  0  0  0  0  0  0  0  0  0
    3.8736    1.8459   19.2450 H   0  0  0  0  0  0  0  0  0  0  0  0
  1  2  1  0
  2  3  2  0
  3  4  1  0
  4  5  1  0
  4  6  2  0
  6  7  1  0
  7  8  1  0
  7  9  1  0
 10  7  1  6
 10 11  1  0
 11 12  1  0
 11 13  1  0
 11 14  1  0
 14 15  1  0
 14 16  1  0
 14 17  1  0
 17 18  1  0
 17 19  1  0
 17 20  1  0
 20 21  1  0
 20 22  1  0
 20 23  1  0
 23 24  1  0
 23 25  1  0
 23 26  1  0
 26 27  1  0
 26 28  1  0
 26 29  1  0
 29 30  1  0
 29 31  1  0
 29 32  1  0
 32 33  1  0
 32 34  1  0
 32 35  1  0
 10 36  1  0
 36 37  1  0
 36 38  1  0
 36 39  1  0
 39 40  1  0
 39 41  1  0
 41 42  1  0
 41 43  1  0
 41 44  1  0
 44 45  1  0
 44 46  1  0
  6 47  1  0
 47 48  1  0
 47 49  2  0
 49 50  1  0
 49  2  1  0
 44 10  1  0
M  END
>  <cnnaffinity>  (1) 
-4.77298

>  <filename>  (1) 
CCCCCCCC[C@@]1(Cc2cccnc2)CCNC1

$$$$
