
     RDKit          3D

 43 44  0  0  0  0  0  0  0  0999 V2000
   10.3879   -1.5049   22.2332 H   0  0  0  0  0  0  0  0  0  0  0  0
    9.3051   -1.4366   22.1182 C   0  0  0  0  0  0  0  0  0  0  0  0
    8.5736   -2.0405   23.0555 N   0  0  0  0  0  0  0  0  0  0  0  0
    7.2490   -1.9543   22.9162 C   0  0  0  0  0  0  0  0  0  0  0  0
    6.3980   -2.5572   24.0040 C   0  0  0  0  0  0  0  0  0  0  0  0
    5.4852   -2.9531   23.5548 H   0  0  0  0  0  0  0  0  0  0  0  0
    6.9478   -3.3956   24.4341 H   0  0  0  0  0  0  0  0  0  0  0  0
    6.0522   -1.5522   25.1215 C   0  0  0  0  0  0  0  0  0  0  0  0
    6.9785   -1.1095   25.5068 H   0  0  0  0  0  0  0  0  0  0  0  0
    5.4679   -0.7209   24.7036 H   0  0  0  0  0  0  0  0  0  0  0  0
    5.2691   -2.1572   26.2897 C   0  0  0  0  0  0  0  0  0  0  0  0
    5.8186   -3.0144   26.7041 H   0  0  0  0  0  0  0  0  0  0  0  0
    5.2272   -1.4200   27.1032 H   0  0  0  0  0  0  0  0  0  0  0  0
    3.8367   -2.5735   25.9386 C   0  0  0  0  0  0  0  0  0  0  0  0
    3.8578   -3.4219   25.2404 H   0  0  0  0  0  0  0  0  0  0  0  0
    3.3476   -1.7521   25.3992 H   0  0  0  0  0  0  0  0  0  0  0  0
    2.9830   -2.9495   27.1519 C   0  0  0  0  0  0  0  0  0  0  0  0
    2.9966   -2.1227   27.8778 H   0  0  0  0  0  0  0  0  0  0  0  0
    1.9353   -3.0562   26.8400 H   0  0  0  0  0  0  0  0  0  0  0  0
    3.4267   -4.2318   27.8501 C   0  0  0  0  0  0  0  0  0  0  0  0
    3.4809   -5.0458   27.1135 H   0  0  0  0  0  0  0  0  0  0  0  0
    4.4494   -4.1186   28.2344 H   0  0  0  0  0  0  0  0  0  0  0  0
    2.4980   -4.6412   28.9879 C   0  0  0  0  0  0  0  0  0  0  0  0
    1.4796   -4.7624   28.5950 H   0  0  0  0  0  0  0  0  0  0  0  0
    2.4433   -3.8243   29.7194 H   0  0  0  0  0  0  0  0  0  0  0  0
    2.9410   -5.9264   29.6778 C   0  0  0  0  0  0  0  0  0  0  0  0
    2.9767   -6.7608   28.9673 H   0  0  0  0  0  0  0  0  0  0  0  0
    3.9460   -5.8165   30.1016 H   0  0  0  0  0  0  0  0  0  0  0  0
    2.2617   -6.2028   30.4894 H   0  0  0  0  0  0  0  0  0  0  0  0
    6.6197   -1.3186   21.9295 N   0  0  0  0  0  0  0  0  0  0  0  0
    7.3631   -0.7262   20.9950 C   0  0  0  0  0  0  0  0  0  0  0  0
    6.6422   -0.0022   19.9288 C   0  0  0  0  0  0  0  0  0  0  0  0
    7.1714    0.0493   18.6327 C   0  0  0  0  0  0  0  0  0  0  0  0
    8.1127   -0.4328   18.3779 H   0  0  0  0  0  0  0  0  0  0  0  0
    6.5728    0.6621   17.6045 N   0  0  0  0  0  0  0  0  0  0  0  0
    5.4120    1.2851   17.8478 C   0  0  0  0  0  0  0  0  0  0  0  0
    4.9359    1.7730   16.9992 H   0  0  0  0  0  0  0  0  0  0  0  0
    4.8082    1.3133   19.1094 C   0  0  0  0  0  0  0  0  0  0  0  0
    3.8781    1.8433   19.2537 H   0  0  0  0  0  0  0  0  0  0  0  0
    5.4248    0.6528   20.1672 C   0  0  0  0  0  0  0  0  0  0  0  0
    4.9886    0.6351   21.1690 H   0  0  0  0  0  0  0  0  0  0  0  0
    8.7514   -0.7611   21.0440 C   0  0  0  0  0  0  0  0  0  0  0  0
    9.3643   -0.2552   20.3149 H   0  0  0  0  0  0  0  0  0  0  0  0
  1  2  1  0
  2  3  2  0
  3  4  1  0
  4  5  1  0
  5  6  1  0
  5  7  1  0
  5  8  1  0
  8  9  1  0
  8 10  1  0
  8 11  1  0
 11 12  1  0
 11 13  1  0
 11 14  1  0
 14 15  1  0
 14 16  1  0
 14 17  1  0
 17 18  1  0
 17 19  1  0
 17 20  1  0
 20 21  1  0
 20 22  1  0
 20 23  1  0
 23 24  1  0
 23 25  1  0
 23 26  1  0
 26 27  1  0
 26 28  1  0
 26 29  1  0
  4 30  2  0
 30 31  1  0
 31 32  1  0
 32 33  2  0
 33 34  1  0
 33 35  1  0
 35 36  2  0
 36 37  1  0
 36 38  1  0
 38 39  1  0
 38 40  2  0
 40 41  1  0
 31 42  2  0
 42 43  1  0
 42  2  1  0
 40 32  1  0
M  END
>  <cnnaffinity>  (1) 
-5.6322

>  <filename>  (1) 
CCCCCCCCc1nccc(-c2cccnc2)n1

$$$$
