
     RDKit          3D

 39 40  0  0  0  0  0  0  0  0999 V2000
    4.8878    1.9259   16.6092 H   0  0  0  0  0  0  0  0  0  0  0  0
    5.3372    1.4141   17.4550 C   0  0  0  0  0  0  0  0  0  0  0  0
    6.4483    0.7096   17.1896 N   0  0  0  0  0  0  0  0  0  0  0  0
    7.0526    0.0856   18.2072 C   0  0  0  0  0  0  0  0  0  0  0  0
    7.9685   -0.4557   17.9809 H   0  0  0  0  0  0  0  0  0  0  0  0
    6.5657    0.1203   19.5250 C   0  0  0  0  0  0  0  0  0  0  0  0
    7.2664   -0.5013   20.6154 N   0  0  0  0  0  0  0  0  0  0  0  0
    6.5951   -1.4334   21.3818 C   0  0  0  0  0  0  0  0  0  0  0  0
    5.6276   -1.7493   21.0005 H   0  0  0  0  0  0  0  0  0  0  0  0
    7.1329   -1.9250   22.5277 C   0  0  0  0  0  0  0  0  0  0  0  0
    6.5800   -2.6492   23.1146 H   0  0  0  0  0  0  0  0  0  0  0  0
    8.4155   -1.4730   22.9656 C   0  0  0  0  0  0  0  0  0  0  0  0
    9.0947   -2.1609   24.1217 C   0  0  0  0  0  0  0  0  0  0  0  0
    8.3389   -2.5898   24.7932 H   0  0  0  0  0  0  0  0  0  0  0  0
    9.6398   -1.4204   24.7223 H   0  0  0  0  0  0  0  0  0  0  0  0
   10.0352   -3.2647   23.5910 C   0  0  0  0  0  0  0  0  0  0  0  0
   10.7319   -2.8299   22.8560 H   0  0  0  0  0  0  0  0  0  0  0  0
    9.4322   -3.9891   23.0297 H   0  0  0  0  0  0  0  0  0  0  0  0
   10.8561   -3.9717   24.6665 C   0  0  0  0  0  0  0  0  0  0  0  0
   11.4788   -3.1956   25.0909 H   0  0  0  0  0  0  0  0  0  0  0  0
   11.5584   -4.6822   24.2129 H   0  0  0  0  0  0  0  0  0  0  0  0
   10.0993   -4.6500   25.8169 C   0  0  0  0  0  0  0  0  0  0  0  0
    9.8059   -3.8967   26.5643 H   0  0  0  0  0  0  0  0  0  0  0  0
   10.8133   -5.3099   26.3260 H   0  0  0  0  0  0  0  0  0  0  0  0
    8.8685   -5.4552   25.4070 C   0  0  0  0  0  0  0  0  0  0  0  0
    9.1311   -6.1353   24.5884 H   0  0  0  0  0  0  0  0  0  0  0  0
    8.1210   -4.7775   24.9846 H   0  0  0  0  0  0  0  0  0  0  0  0
    8.2515   -6.2553   26.5443 C   0  0  0  0  0  0  0  0  0  0  0  0
    7.3638   -6.7936   26.1943 H   0  0  0  0  0  0  0  0  0  0  0  0
    8.9605   -7.0044   26.8948 H   0  0  0  0  0  0  0  0  0  0  0  0
    7.9839   -5.6249   27.4041 H   0  0  0  0  0  0  0  0  0  0  0  0
    9.0700   -0.5204   22.2408 C   0  0  0  0  0  0  0  0  0  0  0  0
   10.0390   -0.1278   22.5173 H   0  0  0  0  0  0  0  0  0  0  0  0
    8.5674   -0.0045   20.9889 C   0  0  0  0  0  0  0  0  0  0  0  0
    9.1823    0.7776   20.2799 O   0  0  0  0  0  0  0  0  0  0  0  0
    5.3911    0.8311   19.7829 C   0  0  0  0  0  0  0  0  0  0  0  0
    5.0101    0.8644   20.8042 H   0  0  0  0  0  0  0  0  0  0  0  0
    4.7694    1.5033   18.7305 C   0  0  0  0  0  0  0  0  0  0  0  0
    3.8787    2.0975   18.8943 H   0  0  0  0  0  0  0  0  0  0  0  0
  1  2  1  0
  2  3  2  0
  3  4  1  0
  4  5  1  0
  4  6  2  0
  6  7  1  0
  7  8  1  0
  8  9  1  0
  8 10  2  0
 10 11  1  0
 10 12  1  0
 12 13  1  0
 13 14  1  0
 13 15  1  0
 13 16  1  0
 16 17  1  0
 16 18  1  0
 16 19  1  0
 19 20  1  0
 19 21  1  0
 19 22  1  0
 22 23  1  0
 22 24  1  0
 22 25  1  0
 25 26  1  0
 25 27  1  0
 25 28  1  0
 28 29  1  0
 28 30  1  0
 28 31  1  0
 12 32  2  0
 32 33  1  0
 32 34  1  0
 34 35  2  0
  6 36  1  0
 36 37  1  0
 36 38  2  0
 38 39  1  0
 38  2  1  0
 34  7  1  0
M  END
>  <cnnaffinity>  (1) 
-5.47577

>  <filename>  (1) 
CCCCCCc1ccn(-c2cccnc2)c(=O)c1

$$$$
