
     RDKit          3D

 31 32  0  0  0  0  0  0  0  0999 V2000
    4.9681    1.8082   16.9327 H   0  0  0  0  0  0  0  0  0  0  0  0
    5.4151    1.3080   17.7885 C   0  0  0  0  0  0  0  0  0  0  0  0
    6.5770    0.6745   17.5644 N   0  0  0  0  0  0  0  0  0  0  0  0
    7.1486    0.0693   18.6116 C   0  0  0  0  0  0  0  0  0  0  0  0
    8.0932   -0.4308   18.4154 H   0  0  0  0  0  0  0  0  0  0  0  0
    6.6208    0.0539   19.9123 C   0  0  0  0  0  0  0  0  0  0  0  0
    7.3651   -0.5950   21.0008 C   0  0  0  0  0  0  0  0  0  0  0  0
    6.8420   -0.3757   22.6392 S   0  0  0  0  0  0  0  0  0  0  0  0
    8.0996   -1.3769   23.2256 C   0  0  0  0  0  0  0  0  0  0  0  0
    8.1656   -1.5867   24.2754 H   0  0  0  0  0  0  0  0  0  0  0  0
    8.8672   -1.8794   22.2115 C   0  0  0  0  0  0  0  0  0  0  0  0
    9.9055   -2.7455   22.3285 O   0  0  0  0  0  0  0  0  0  0  0  0
   10.1076   -3.3039   23.6237 C   0  0  0  0  0  0  0  0  0  0  0  0
   11.0959   -3.7763   23.5904 H   0  0  0  0  0  0  0  0  0  0  0  0
   10.1704   -2.4897   24.3610 H   0  0  0  0  0  0  0  0  0  0  0  0
    9.0079   -4.3073   23.9889 C   0  0  0  0  0  0  0  0  0  0  0  0
    9.0311   -5.1099   23.2433 H   0  0  0  0  0  0  0  0  0  0  0  0
    8.0160   -3.8508   23.8671 H   0  0  0  0  0  0  0  0  0  0  0  0
    9.1912   -4.8736   25.3981 C   0  0  0  0  0  0  0  0  0  0  0  0
    8.2487   -5.3261   25.7273 H   0  0  0  0  0  0  0  0  0  0  0  0
    9.4022   -4.0503   26.0950 H   0  0  0  0  0  0  0  0  0  0  0  0
   10.3330   -5.8868   25.4155 C   0  0  0  0  0  0  0  0  0  0  0  0
   10.0881   -6.7353   24.7673 H   0  0  0  0  0  0  0  0  0  0  0  0
   11.2425   -5.4236   25.0117 H   0  0  0  0  0  0  0  0  0  0  0  0
   10.5488   -6.2945   26.4072 H   0  0  0  0  0  0  0  0  0  0  0  0
    8.4607   -1.4115   20.9377 C   0  0  0  0  0  0  0  0  0  0  0  0
    8.9750   -1.7121   20.0319 H   0  0  0  0  0  0  0  0  0  0  0  0
    5.3855    0.6998   20.1205 C   0  0  0  0  0  0  0  0  0  0  0  0
    4.9191    0.7089   21.1082 H   0  0  0  0  0  0  0  0  0  0  0  0
    4.7833    1.3357   19.0385 C   0  0  0  0  0  0  0  0  0  0  0  0
    3.8463    1.8641   19.1615 H   0  0  0  0  0  0  0  0  0  0  0  0
  1  2  1  0
  2  3  2  0
  3  4  1  0
  4  5  1  0
  4  6  2  0
  6  7  1  0
  7  8  1  0
  8  9  1  0
  9 10  1  0
  9 11  2  0
 11 12  1  0
 12 13  1  0
 13 14  1  0
 13 15  1  0
 13 16  1  0
 16 17  1  0
 16 18  1  0
 16 19  1  0
 19 20  1  0
 19 21  1  0
 19 22  1  0
 22 23  1  0
 22 24  1  0
 22 25  1  0
 11 26  1  0
 26 27  1  0
  6 28  1  0
 28 29  1  0
 28 30  2  0
 30 31  1  0
 30  2  1  0
 26  7  2  0
M  END
>  <cnnaffinity>  (1) 
-5.04546

>  <filename>  (1) 
CCCCOc1csc(-c2cccnc2)c1

$$$$
