
     RDKit          3D

 33 34  0  0  0  0  0  0  0  0999 V2000
    9.3390   -0.2978   20.3538 H   0  0  0  0  0  0  0  0  0  0  0  0
    8.7355   -0.8077   21.0988 C   0  0  0  0  0  0  0  0  0  0  0  0
    9.4023   -1.4447   22.0816 N   0  0  0  0  0  0  0  0  0  0  0  0
    8.6593   -2.0364   23.0295 C   0  0  0  0  0  0  0  0  0  0  0  0
    9.1593   -2.5639   23.8463 H   0  0  0  0  0  0  0  0  0  0  0  0
    7.2310   -1.9751   22.9863 C   0  0  0  0  0  0  0  0  0  0  0  0
    6.4023   -2.5141   23.9117 N   0  0  0  0  0  0  0  0  0  0  0  0
    5.4601   -2.2499   23.6427 H   0  0  0  0  0  0  0  0  0  0  0  0
    6.8157   -3.3803   24.9976 C   0  0  0  0  0  0  0  0  0  0  0  0
    7.6717   -2.9178   25.5208 H   0  0  0  0  0  0  0  0  0  0  0  0
    5.9863   -3.4310   25.7148 H   0  0  0  0  0  0  0  0  0  0  0  0
    7.2249   -4.7941   24.5432 C   0  0  0  0  0  0  0  0  0  0  0  0
    8.0239   -4.7137   23.7874 H   0  0  0  0  0  0  0  0  0  0  0  0
    6.3667   -5.2462   24.0283 H   0  0  0  0  0  0  0  0  0  0  0  0
    7.6979   -5.7054   25.6903 C   0  0  0  0  0  0  0  0  0  0  0  0
    7.8190   -6.7179   25.3089 H   0  0  0  0  0  0  0  0  0  0  0  0
    6.9208   -5.7647   26.4684 H   0  0  0  0  0  0  0  0  0  0  0  0
    9.0554   -5.3429   26.2955 C   0  0  0  0  0  0  0  0  0  0  0  0
    9.0710   -4.3853   26.8285 H   0  0  0  0  0  0  0  0  0  0  0  0
    9.3616   -6.1201   27.0019 H   0  0  0  0  0  0  0  0  0  0  0  0
    9.8179   -5.3138   25.5075 H   0  0  0  0  0  0  0  0  0  0  0  0
    6.5640   -1.3330   22.0061 N   0  0  0  0  0  0  0  0  0  0  0  0
    7.3163   -0.7573   21.0480 C   0  0  0  0  0  0  0  0  0  0  0  0
    6.6124   -0.0347   19.9521 C   0  0  0  0  0  0  0  0  0  0  0  0
    7.1552    0.0183   18.6558 C   0  0  0  0  0  0  0  0  0  0  0  0
    8.1051   -0.4598   18.4122 H   0  0  0  0  0  0  0  0  0  0  0  0
    6.5764    0.6443   17.6259 N   0  0  0  0  0  0  0  0  0  0  0  0
    5.4203    1.2789   17.8619 C   0  0  0  0  0  0  0  0  0  0  0  0
    4.9732    1.7777   17.0049 H   0  0  0  0  0  0  0  0  0  0  0  0
    4.7996    1.3103   19.1140 C   0  0  0  0  0  0  0  0  0  0  0  0
    3.8705    1.8556   19.2398 H   0  0  0  0  0  0  0  0  0  0  0  0
    5.4005    0.6399   20.1791 C   0  0  0  0  0  0  0  0  0  0  0  0
    4.9526    0.6375   21.1734 H   0  0  0  0  0  0  0  0  0  0  0  0
  1  2  1  0
  2  3  2  0
  3  4  1  0
  4  5  1  0
  4  6  2  0
  6  7  1  0
  7  8  1  0
  7  9  1  0
  9 10  1  0
  9 11  1  0
  9 12  1  0
 12 13  1  0
 12 14  1  0
 12 15  1  0
 15 16  1  0
 15 17  1  0
 15 18  1  0
 18 19  1  0
 18 20  1  0
 18 21  1  0
  6 22  1  0
 22 23  2  0
 23 24  1  0
 24 25  2  0
 25 26  1  0
 25 27  1  0
 27 28  2  0
 28 29  1  0
 28 30  1  0
 30 31  1  0
 30 32  2  0
 32 33  1  0
 23  2  1  0
 32 24  1  0
M  END
>  <cnnaffinity>  (1) 
-5.08877

>  <filename>  (1) 
CCCCNc1cncc(-c2cccnc2)n1

$$$$
