
     RDKit          3D

 40 41  0  0  0  0  0  0  0  0999 V2000
    5.1374    1.7614   16.8659 H   0  0  0  0  0  0  0  0  0  0  0  0
    5.5219    1.2709   17.7577 C   0  0  0  0  0  0  0  0  0  0  0  0
    6.6841    0.6133   17.6164 N   0  0  0  0  0  0  0  0  0  0  0  0
    7.1988    0.0279   18.7021 C   0  0  0  0  0  0  0  0  0  0  0  0
    8.1293   -0.5163   18.5526 H   0  0  0  0  0  0  0  0  0  0  0  0
    6.5897    0.0728   19.9631 C   0  0  0  0  0  0  0  0  0  0  0  0
    7.2185   -0.5520   21.1235 C   0  0  0  0  0  0  0  0  0  0  0  0
    6.7499   -0.6038   22.3244 N   0  0  0  0  0  0  0  0  0  0  0  0
    7.6879   -1.2709   23.0917 N   0  0  0  0  0  0  0  0  0  0  0  0
    8.6623   -1.5722   22.3013 C   0  0  0  0  0  0  0  0  0  0  0  0
    9.8986   -2.3006   22.7055 C   0  0  0  0  0  0  0  0  0  0  0  0
    9.9436   -2.2133   23.7953 H   0  0  0  0  0  0  0  0  0  0  0  0
    9.7365   -3.3609   22.4838 H   0  0  0  0  0  0  0  0  0  0  0  0
   11.2263   -1.8543   22.0838 C   0  0  0  0  0  0  0  0  0  0  0  0
   11.2408   -2.1402   21.0302 H   0  0  0  0  0  0  0  0  0  0  0  0
   12.0301   -2.4276   22.5666 H   0  0  0  0  0  0  0  0  0  0  0  0
   11.5382   -0.3592   22.1833 C   0  0  0  0  0  0  0  0  0  0  0  0
   10.6920    0.2261   21.8128 H   0  0  0  0  0  0  0  0  0  0  0  0
   12.3503   -0.1488   21.4877 H   0  0  0  0  0  0  0  0  0  0  0  0
   11.9557    0.1207   23.5762 C   0  0  0  0  0  0  0  0  0  0  0  0
   12.9676   -0.2498   23.7706 H   0  0  0  0  0  0  0  0  0  0  0  0
   11.3028   -0.3469   24.3250 H   0  0  0  0  0  0  0  0  0  0  0  0
   11.9550    1.6372   23.8141 C   0  0  0  0  0  0  0  0  0  0  0  0
   12.2916    2.1638   22.9095 H   0  0  0  0  0  0  0  0  0  0  0  0
   12.7137    1.8567   24.5765 H   0  0  0  0  0  0  0  0  0  0  0  0
   10.6240    2.2254   24.3078 C   0  0  0  0  0  0  0  0  0  0  0  0
   10.3601    1.7454   25.2603 H   0  0  0  0  0  0  0  0  0  0  0  0
   10.7856    3.2869   24.5406 H   0  0  0  0  0  0  0  0  0  0  0  0
    9.4215    2.1273   23.3629 C   0  0  0  0  0  0  0  0  0  0  0  0
    9.1884    1.0817   23.1288 H   0  0  0  0  0  0  0  0  0  0  0  0
    8.5353    2.5014   23.8895 H   0  0  0  0  0  0  0  0  0  0  0  0
    9.5943    2.9281   22.0787 C   0  0  0  0  0  0  0  0  0  0  0  0
    9.8502    3.9678   22.3141 H   0  0  0  0  0  0  0  0  0  0  0  0
   10.3970    2.5309   21.4475 H   0  0  0  0  0  0  0  0  0  0  0  0
    8.6793    2.9376   21.4790 H   0  0  0  0  0  0  0  0  0  0  0  0
    8.4366   -1.1596   21.0209 O   0  0  0  0  0  0  0  0  0  0  0  0
    5.3485    0.7274   20.0907 C   0  0  0  0  0  0  0  0  0  0  0  0
    4.8315    0.7390   21.0534 H   0  0  0  0  0  0  0  0  0  0  0  0
    4.8126    1.3432   18.9640 C   0  0  0  0  0  0  0  0  0  0  0  0
    3.8777    1.8931   19.0102 H   0  0  0  0  0  0  0  0  0  0  0  0
  1  2  1  0
  2  3  2  0
  3  4  1  0
  4  5  1  0
  4  6  2  0
  6  7  1  0
  7  8  2  0
  8  9  1  0
  9 10  2  0
 10 11  1  0
 11 12  1  0
 11 13  1  0
 11 14  1  0
 14 15  1  0
 14 16  1  0
 14 17  1  0
 17 18  1  0
 17 19  1  0
 17 20  1  0
 20 21  1  0
 20 22  1  0
 20 23  1  0
 23 24  1  0
 23 25  1  0
 23 26  1  0
 26 27  1  0
 26 28  1  0
 26 29  1  0
 29 30  1  0
 29 31  1  0
 29 32  1  0
 32 33  1  0
 32 34  1  0
 32 35  1  0
 10 36  1  0
  6 37  1  0
 37 38  1  0
 37 39  2  0
 39 40  1  0
 39  2  1  0
 36  7  1  0
M  END
>  <cnnaffinity>  (1) 
-5.44631

>  <filename>  (1) 
CCCCCCCCc1nnc(-c2cccnc2)o1

$$$$
