
     RDKit          3D

 43 45  0  0  0  0  0  0  0  0999 V2000
    4.9158    1.7752   17.0023 H   0  0  0  0  0  0  0  0  0  0  0  0
    5.4044    1.2899   17.8431 C   0  0  0  0  0  0  0  0  0  0  0  0
    6.5699    0.6781   17.5783 N   0  0  0  0  0  0  0  0  0  0  0  0
    7.1754    0.0571   18.5911 C   0  0  0  0  0  0  0  0  0  0  0  0
    8.1249   -0.4348   18.3743 H   0  0  0  0  0  0  0  0  0  0  0  0
    6.6488    0.0122   19.8918 C   0  0  0  0  0  0  0  0  0  0  0  0
    7.4032   -0.7034   20.9184 C   0  0  0  0  0  0  0  0  0  0  0  0
    8.3213   -1.6116   20.6966 N   0  0  0  0  0  0  0  0  0  0  0  0
    8.8160   -2.0558   21.9023 N   0  0  0  0  0  0  0  0  0  0  0  0
    8.1827   -1.3740   22.8161 C   0  0  0  0  0  0  0  0  0  0  0  0
    8.2329   -1.1460   24.5392 S   0  0  0  0  0  0  0  0  0  0  0  0
    7.0255    0.1301   24.3265 C   0  0  0  0  0  0  0  0  0  0  0  0
    6.4722    0.8782   25.4978 C   0  0  0  0  0  0  0  0  0  0  0  0
    7.1138    0.7099   26.3684 H   0  0  0  0  0  0  0  0  0  0  0  0
    6.5124    1.9469   25.2651 H   0  0  0  0  0  0  0  0  0  0  0  0
    5.0315    0.4639   25.8280 C   0  0  0  0  0  0  0  0  0  0  0  0
    4.6357    1.1476   26.5882 H   0  0  0  0  0  0  0  0  0  0  0  0
    4.4106    0.5907   24.9321 H   0  0  0  0  0  0  0  0  0  0  0  0
    4.9210   -0.9711   26.3288 C   0  0  0  0  0  0  0  0  0  0  0  0
    5.2971   -1.6671   25.5663 H   0  0  0  0  0  0  0  0  0  0  0  0
    5.5694   -1.1051   27.2067 H   0  0  0  0  0  0  0  0  0  0  0  0
    3.4942   -1.3505   26.6954 C   0  0  0  0  0  0  0  0  0  0  0  0
    2.8501   -1.2192   25.8143 H   0  0  0  0  0  0  0  0  0  0  0  0
    3.1169   -0.6513   27.4547 H   0  0  0  0  0  0  0  0  0  0  0  0
    3.3767   -2.7865   27.1951 C   0  0  0  0  0  0  0  0  0  0  0  0
    3.8300   -3.4598   26.4558 H   0  0  0  0  0  0  0  0  0  0  0  0
    3.9696   -2.8990   28.1150 H   0  0  0  0  0  0  0  0  0  0  0  0
    1.9407   -3.2297   27.4646 C   0  0  0  0  0  0  0  0  0  0  0  0
    1.3293   -3.0381   26.5704 H   0  0  0  0  0  0  0  0  0  0  0  0
    1.9245   -4.3168   27.6156 H   0  0  0  0  0  0  0  0  0  0  0  0
    1.2969   -2.5485   28.6711 C   0  0  0  0  0  0  0  0  0  0  0  0
    1.2294   -1.4665   28.5042 H   0  0  0  0  0  0  0  0  0  0  0  0
    1.9448   -2.6828   29.5471 H   0  0  0  0  0  0  0  0  0  0  0  0
   -0.0881   -3.0984   28.9765 C   0  0  0  0  0  0  0  0  0  0  0  0
   -0.7571   -2.9566   28.1210 H   0  0  0  0  0  0  0  0  0  0  0  0
   -0.5309   -2.5997   29.8425 H   0  0  0  0  0  0  0  0  0  0  0  0
   -0.0404   -4.1723   29.1884 H   0  0  0  0  0  0  0  0  0  0  0  0
    6.6204    0.3406   23.1180 N   0  0  0  0  0  0  0  0  0  0  0  0
    7.2715   -0.5253   22.2788 N   0  0  0  0  0  0  0  0  0  0  0  0
    5.4337    0.6524   20.1616 C   0  0  0  0  0  0  0  0  0  0  0  0
    5.0082    0.6353   21.1681 H   0  0  0  0  0  0  0  0  0  0  0  0
    4.8046    1.3088   19.1089 C   0  0  0  0  0  0  0  0  0  0  0  0
    3.8739    1.8437   19.2618 H   0  0  0  0  0  0  0  0  0  0  0  0
  1  2  1  0
  2  3  2  0
  3  4  1  0
  4  5  1  0
  4  6  2  0
  6  7  1  0
  7  8  2  0
  8  9  1  0
  9 10  2  0
 10 11  1  0
 11 12  1  0
 12 13  1  0
 13 14  1  0
 13 15  1  0
 13 16  1  0
 16 17  1  0
 16 18  1  0
 16 19  1  0
 19 20  1  0
 19 21  1  0
 19 22  1  0
 22 23  1  0
 22 24  1  0
 22 25  1  0
 25 26  1  0
 25 27  1  0
 25 28  1  0
 28 29  1  0
 28 30  1  0
 28 31  1  0
 31 32  1  0
 31 33  1  0
 31 34  1  0
 34 35  1  0
 34 36  1  0
 34 37  1  0
 12 38  2  0
 38 39  1  0
  6 40  1  0
 40 41  1  0
 40 42  2  0
 42 43  1  0
 42  2  1  0
 39  7  1  0
 39 10  1  0
M  END
>  <cnnaffinity>  (1) 
-5.66281

>  <filename>  (1) 
CCCCCCCCc1nn2c(-c3cccnc3)nnc2s1

$$$$
