
     RDKit          3D

 43 44  0  0  0  0  0  0  0  0999 V2000
    4.9180    1.7859   16.9941 H   0  0  0  0  0  0  0  0  0  0  0  0
    5.4013    1.2958   17.8377 C   0  0  0  0  0  0  0  0  0  0  0  0
    6.5593    0.6726   17.5741 N   0  0  0  0  0  0  0  0  0  0  0  0
    7.1675    0.0533   18.5897 C   0  0  0  0  0  0  0  0  0  0  0  0
    8.1139   -0.4363   18.3659 H   0  0  0  0  0  0  0  0  0  0  0  0
    6.6521    0.0083   19.8970 C   0  0  0  0  0  0  0  0  0  0  0  0
    7.3513   -0.6677   20.9381 N   0  0  0  0  0  0  0  0  0  0  0  0
    6.7471   -1.6062   21.7089 N   0  0  0  0  0  0  0  0  0  0  0  0
    7.6223   -2.0090   22.5527 N   0  0  0  0  0  0  0  0  0  0  0  0
    8.7952   -1.3614   22.3938 N   0  0  0  0  0  0  0  0  0  0  0  0
    8.6199   -0.5231   21.4001 C   0  0  0  0  0  0  0  0  0  0  0  0
    9.6033    0.5104   20.9639 C   0  0  0  0  0  0  0  0  0  0  0  0
    9.4119    0.7957   19.9273 H   0  0  0  0  0  0  0  0  0  0  0  0
   10.5986    0.0607   20.9950 H   0  0  0  0  0  0  0  0  0  0  0  0
    9.5487    1.7562   21.8635 C   0  0  0  0  0  0  0  0  0  0  0  0
    9.7105    1.4480   22.9025 H   0  0  0  0  0  0  0  0  0  0  0  0
   10.3809    2.4228   21.6012 H   0  0  0  0  0  0  0  0  0  0  0  0
    8.2306    2.5158   21.7444 C   0  0  0  0  0  0  0  0  0  0  0  0
    7.3928    1.9084   22.1134 H   0  0  0  0  0  0  0  0  0  0  0  0
    8.0208    2.6413   20.6817 H   0  0  0  0  0  0  0  0  0  0  0  0
    8.2319    3.8605   22.4729 C   0  0  0  0  0  0  0  0  0  0  0  0
    7.3517    4.4462   22.1758 H   0  0  0  0  0  0  0  0  0  0  0  0
    9.0996    4.4558   22.1611 H   0  0  0  0  0  0  0  0  0  0  0  0
    8.2572    3.7250   23.9928 C   0  0  0  0  0  0  0  0  0  0  0  0
    9.1707    3.2055   24.3105 H   0  0  0  0  0  0  0  0  0  0  0  0
    7.4286    3.0774   24.3072 H   0  0  0  0  0  0  0  0  0  0  0  0
    8.1586    5.0614   24.7134 C   0  0  0  0  0  0  0  0  0  0  0  0
    7.2378    5.5719   24.4021 H   0  0  0  0  0  0  0  0  0  0  0  0
    8.9783    5.7122   24.3827 H   0  0  0  0  0  0  0  0  0  0  0  0
    8.1683    4.9210   26.2319 C   0  0  0  0  0  0  0  0  0  0  0  0
    7.3872    4.2086   26.5283 H   0  0  0  0  0  0  0  0  0  0  0  0
    9.1182    4.4672   26.5428 H   0  0  0  0  0  0  0  0  0  0  0  0
    7.9680    6.2384   26.9814 C   0  0  0  0  0  0  0  0  0  0  0  0
    7.7898    6.0264   28.0422 H   0  0  0  0  0  0  0  0  0  0  0  0
    7.0528    6.7202   26.6156 H   0  0  0  0  0  0  0  0  0  0  0  0
    9.1429    7.2043   26.8463 C   0  0  0  0  0  0  0  0  0  0  0  0
    9.2774    7.5456   25.8144 H   0  0  0  0  0  0  0  0  0  0  0  0
   10.0783    6.7238   27.1505 H   0  0  0  0  0  0  0  0  0  0  0  0
    9.0048    8.0909   27.4722 H   0  0  0  0  0  0  0  0  0  0  0  0
    5.4387    0.6465   20.1691 C   0  0  0  0  0  0  0  0  0  0  0  0
    5.0194    0.6113   21.1795 H   0  0  0  0  0  0  0  0  0  0  0  0
    4.8117    1.3103   19.1083 C   0  0  0  0  0  0  0  0  0  0  0  0
    3.8796    1.8395   19.2604 H   0  0  0  0  0  0  0  0  0  0  0  0
  1  2  1  0
  2  3  2  0
  3  4  1  0
  4  5  1  0
  4  6  2  0
  6  7  1  0
  7  8  1  0
  8  9  2  0
  9 10  1  0
 10 11  2  0
 11 12  1  0
 12 13  1  0
 12 14  1  0
 12 15  1  0
 15 16  1  0
 15 17  1  0
 15 18  1  0
 18 19  1  0
 18 20  1  0
 18 21  1  0
 21 22  1  0
 21 23  1  0
 21 24  1  0
 24 25  1  0
 24 26  1  0
 24 27  1  0
 27 28  1  0
 27 29  1  0
 27 30  1  0
 30 31  1  0
 30 32  1  0
 30 33  1  0
 33 34  1  0
 33 35  1  0
 33 36  1  0
 36 37  1  0
 36 38  1  0
 36 39  1  0
  6 40  1  0
 40 41  1  0
 40 42  2  0
 42 43  1  0
 42  2  1  0
 11  7  1  0
M  END
>  <cnnaffinity>  (1) 
-5.55959

>  <filename>  (1) 
CCCCCCCCCc1nnnn1-c1cccnc1

$$$$
