
     RDKit          3D

 41 42  0  0  0  0  0  0  0  0999 V2000
    8.8411   -3.1839   22.1039 H   0  0  0  0  0  0  0  0  0  0  0  0
    8.3621   -2.2356   21.9066 C   0  0  0  0  0  0  0  0  0  0  0  0
    8.2675   -1.2561   22.8400 N   0  0  0  0  0  0  0  0  0  0  0  0
    7.6394   -0.2927   22.1985 C   0  0  0  0  0  0  0  0  0  0  0  0
    7.3064    1.0488   22.7671 C   0  0  0  0  0  0  0  0  0  0  0  0
    6.3379    0.9643   23.2807 H   0  0  0  0  0  0  0  0  0  0  0  0
    7.1784    1.7706   21.9508 H   0  0  0  0  0  0  0  0  0  0  0  0
    8.3734    1.5452   23.7421 C   0  0  0  0  0  0  0  0  0  0  0  0
    8.5233    0.7800   24.5131 H   0  0  0  0  0  0  0  0  0  0  0  0
    9.3323    1.6261   23.2067 H   0  0  0  0  0  0  0  0  0  0  0  0
    8.0146    2.8704   24.4089 C   0  0  0  0  0  0  0  0  0  0  0  0
    7.0836    2.7307   24.9760 H   0  0  0  0  0  0  0  0  0  0  0  0
    8.7866    3.1053   25.1550 H   0  0  0  0  0  0  0  0  0  0  0  0
    7.8379    4.0647   23.4576 C   0  0  0  0  0  0  0  0  0  0  0  0
    6.9501    3.9056   22.8298 H   0  0  0  0  0  0  0  0  0  0  0  0
    7.6141    4.9591   24.0556 H   0  0  0  0  0  0  0  0  0  0  0  0
    9.0375    4.3545   22.5439 C   0  0  0  0  0  0  0  0  0  0  0  0
    9.1672    3.5250   21.8328 H   0  0  0  0  0  0  0  0  0  0  0  0
    8.8072    5.2407   21.9330 H   0  0  0  0  0  0  0  0  0  0  0  0
   10.3658    4.6048   23.2669 C   0  0  0  0  0  0  0  0  0  0  0  0
   10.6577    3.7154   23.8477 H   0  0  0  0  0  0  0  0  0  0  0  0
   11.1567    4.7419   22.5143 H   0  0  0  0  0  0  0  0  0  0  0  0
   10.3470    5.8278   24.1865 C   0  0  0  0  0  0  0  0  0  0  0  0
    9.9904    6.7010   23.6202 H   0  0  0  0  0  0  0  0  0  0  0  0
    9.6326    5.6708   25.0071 H   0  0  0  0  0  0  0  0  0  0  0  0
   11.7157    6.1330   24.7745 C   0  0  0  0  0  0  0  0  0  0  0  0
   12.4400    6.3363   23.9771 H   0  0  0  0  0  0  0  0  0  0  0  0
   12.0798    5.2806   25.3596 H   0  0  0  0  0  0  0  0  0  0  0  0
   11.6706    7.0073   25.4305 H   0  0  0  0  0  0  0  0  0  0  0  0
    7.3534   -0.7018   20.9239 N   0  0  0  0  0  0  0  0  0  0  0  0
    6.6588    0.0019   19.9020 C   0  0  0  0  0  0  0  0  0  0  0  0
    7.1823    0.0504   18.5987 C   0  0  0  0  0  0  0  0  0  0  0  0
    8.1309   -0.4402   18.3828 H   0  0  0  0  0  0  0  0  0  0  0  0
    6.5716    0.6803   17.5918 N   0  0  0  0  0  0  0  0  0  0  0  0
    5.4005    1.2922   17.8453 C   0  0  0  0  0  0  0  0  0  0  0  0
    4.9071    1.7733   17.0042 H   0  0  0  0  0  0  0  0  0  0  0  0
    4.8058    1.3097   19.1102 C   0  0  0  0  0  0  0  0  0  0  0  0
    3.8721    1.8448   19.2685 H   0  0  0  0  0  0  0  0  0  0  0  0
    5.4450    0.6497   20.1624 C   0  0  0  0  0  0  0  0  0  0  0  0
    5.0066    0.6268   21.1582 H   0  0  0  0  0  0  0  0  0  0  0  0
    7.8422   -1.9482   20.7318 N   0  0  0  0  0  0  0  0  0  0  0  0
  1  2  1  0
  2  3  1  0
  3  4  2  0
  4  5  1  0
  5  6  1  0
  5  7  1  0
  5  8  1  0
  8  9  1  0
  8 10  1  0
  8 11  1  0
 11 12  1  0
 11 13  1  0
 11 14  1  0
 14 15  1  0
 14 16  1  0
 14 17  1  0
 17 18  1  0
 17 19  1  0
 17 20  1  0
 20 21  1  0
 20 22  1  0
 20 23  1  0
 23 24  1  0
 23 25  1  0
 23 26  1  0
 26 27  1  0
 26 28  1  0
 26 29  1  0
  4 30  1  0
 30 31  1  0
 31 32  2  0
 32 33  1  0
 32 34  1  0
 34 35  2  0
 35 36  1  0
 35 37  1  0
 37 38  1  0
 37 39  2  0
 39 40  1  0
 30 41  1  0
 41  2  2  0
 39 31  1  0
M  END
>  <cnnaffinity>  (1) 
-5.41077

>  <filename>  (1) 
CCCCCCCCc1ncnn1-c1cccnc1

$$$$
