
     RDKit          3D

 44 45  0  0  0  0  0  0  0  0999 V2000
    4.9235    1.8086   16.9783 H   0  0  0  0  0  0  0  0  0  0  0  0
    5.3900    1.3048   17.8222 C   0  0  0  0  0  0  0  0  0  0  0  0
    6.5482    0.6831   17.5548 N   0  0  0  0  0  0  0  0  0  0  0  0
    7.1541    0.0639   18.5790 C   0  0  0  0  0  0  0  0  0  0  0  0
    8.0998   -0.4292   18.3509 H   0  0  0  0  0  0  0  0  0  0  0  0
    6.6446    0.0021   19.8924 C   0  0  0  0  0  0  0  0  0  0  0  0
    7.3508   -0.7300   20.9436 C   0  0  0  0  0  0  0  0  0  0  0  0
    8.6101   -0.4696   21.3880 C   0  0  0  0  0  0  0  0  0  0  0  0
    9.5322    0.6501   21.0204 C   0  0  0  0  0  0  0  0  0  0  0  0
    9.2920    0.9681   19.9978 H   0  0  0  0  0  0  0  0  0  0  0  0
   10.5620    0.2719   21.0078 H   0  0  0  0  0  0  0  0  0  0  0  0
    9.4356    1.8495   21.9818 C   0  0  0  0  0  0  0  0  0  0  0  0
    9.6784    1.5075   22.9994 H   0  0  0  0  0  0  0  0  0  0  0  0
   10.2059    2.5806   21.7028 H   0  0  0  0  0  0  0  0  0  0  0  0
    8.0574    2.5243   21.9717 C   0  0  0  0  0  0  0  0  0  0  0  0
    7.8034    2.7889   20.9372 H   0  0  0  0  0  0  0  0  0  0  0  0
    7.2874    1.7936   22.2628 H   0  0  0  0  0  0  0  0  0  0  0  0
    7.9638    3.7643   22.8741 C   0  0  0  0  0  0  0  0  0  0  0  0
    6.9111    4.0698   22.9542 H   0  0  0  0  0  0  0  0  0  0  0  0
    8.2854    3.4958   23.8930 H   0  0  0  0  0  0  0  0  0  0  0  0
    8.7688    4.9765   22.3813 C   0  0  0  0  0  0  0  0  0  0  0  0
    9.8464    4.7443   22.4049 H   0  0  0  0  0  0  0  0  0  0  0  0
    8.4915    5.1770   21.3371 H   0  0  0  0  0  0  0  0  0  0  0  0
    8.5339    6.2677   23.1719 C   0  0  0  0  0  0  0  0  0  0  0  0
    7.4558    6.4978   23.1707 H   0  0  0  0  0  0  0  0  0  0  0  0
    9.0208    7.1018   22.6435 H   0  0  0  0  0  0  0  0  0  0  0  0
    9.0479    6.2173   24.6135 C   0  0  0  0  0  0  0  0  0  0  0  0
    8.5274    5.4141   25.1544 H   0  0  0  0  0  0  0  0  0  0  0  0
   10.1109    5.9302   24.6028 H   0  0  0  0  0  0  0  0  0  0  0  0
    8.8690    7.5484   25.3440 C   0  0  0  0  0  0  0  0  0  0  0  0
    7.8115    7.8387   25.3773 H   0  0  0  0  0  0  0  0  0  0  0  0
    9.2362    7.5000   26.3737 H   0  0  0  0  0  0  0  0  0  0  0  0
    9.4100    8.3526   24.8307 H   0  0  0  0  0  0  0  0  0  0  0  0
    8.8967   -1.3799   22.5160 C   0  0  0  0  0  0  0  0  0  0  0  0
    9.8775   -1.4855   23.2363 O   0  0  0  0  0  0  0  0  0  0  0  0
    7.7939   -2.1687   22.6462 N   0  0  0  0  0  0  0  0  0  0  0  0
    7.8196   -2.8206   23.4063 H   0  0  0  0  0  0  0  0  0  0  0  0
    6.7269   -1.8525   21.7322 C   0  0  0  0  0  0  0  0  0  0  0  0
    5.8169   -1.5188   22.2360 H   0  0  0  0  0  0  0  0  0  0  0  0
    6.4327   -2.7038   21.1021 H   0  0  0  0  0  0  0  0  0  0  0  0
    5.4206    0.6466   20.1364 C   0  0  0  0  0  0  0  0  0  0  0  0
    5.0017    0.6341   21.1451 H   0  0  0  0  0  0  0  0  0  0  0  0
    4.7885    1.3167   19.0870 C   0  0  0  0  0  0  0  0  0  0  0  0
    3.8591    1.8552   19.2329 H   0  0  0  0  0  0  0  0  0  0  0  0
  1  2  1  0
  2  3  2  0
  3  4  1  0
  4  5  1  0
  4  6  2  0
  6  7  1  0
  7  8  2  0
  8  9  1  0
  9 10  1  0
  9 11  1  0
  9 12  1  0
 12 13  1  0
 12 14  1  0
 12 15  1  0
 15 16  1  0
 15 17  1  0
 15 18  1  0
 18 19  1  0
 18 20  1  0
 18 21  1  0
 21 22  1  0
 21 23  1  0
 21 24  1  0
 24 25  1  0
 24 26  1  0
 24 27  1  0
 27 28  1  0
 27 29  1  0
 27 30  1  0
 30 31  1  0
 30 32  1  0
 30 33  1  0
  8 34  1  0
 34 35  2  0
 34 36  1  0
 36 37  1  0
 36 38  1  0
 38 39  1  0
 38 40  1  0
  6 41  1  0
 41 42  1  0
 41 43  2  0
 43 44  1  0
 43  2  1  0
 38  7  1  0
M  END
>  <cnnaffinity>  (1) 
-5.31251

>  <filename>  (1) 
CCCCCCCCC1=C(c2cccnc2)CNC1=O

$$$$
