
     RDKit          3D

 34 35  0  0  0  0  0  0  0  0999 V2000
    5.0871    1.6708   16.9090 H   0  0  0  0  0  0  0  0  0  0  0  0
    5.4943    1.1757   17.7886 C   0  0  0  0  0  0  0  0  0  0  0  0
    6.6024    0.4375   17.5999 N   0  0  0  0  0  0  0  0  0  0  0  0
    7.1360   -0.1704   18.6665 C   0  0  0  0  0  0  0  0  0  0  0  0
    8.0382   -0.7579   18.5066 H   0  0  0  0  0  0  0  0  0  0  0  0
    6.6022   -0.0497   19.9631 C   0  0  0  0  0  0  0  0  0  0  0  0
    7.2325   -0.6949   21.0701 N   0  0  0  0  0  0  0  0  0  0  0  0
    7.5390   -2.0278   20.8702 N   0  0  0  0  0  0  0  0  0  0  0  0
    8.1226   -2.6836   21.8452 C   0  0  0  0  0  0  0  0  0  0  0  0
    8.3418   -4.0150   21.5678 N   0  0  0  0  0  0  0  0  0  0  0  0
    7.7300   -4.2303   20.7952 H   0  0  0  0  0  0  0  0  0  0  0  0
    8.5722   -5.0416   22.5694 C   0  0  0  0  0  0  0  0  0  0  0  0
    8.9121   -5.9342   22.0261 H   0  0  0  0  0  0  0  0  0  0  0  0
    9.4405   -4.7363   23.1649 H   0  0  0  0  0  0  0  0  0  0  0  0
    7.4141   -5.4059   23.5172 C   0  0  0  0  0  0  0  0  0  0  0  0
    7.8122   -6.1498   24.2241 H   0  0  0  0  0  0  0  0  0  0  0  0
    7.1578   -4.5291   24.1299 H   0  0  0  0  0  0  0  0  0  0  0  0
    6.1301   -5.9438   22.8605 C   0  0  0  0  0  0  0  0  0  0  0  0
    5.7063   -5.1622   22.2147 H   0  0  0  0  0  0  0  0  0  0  0  0
    5.3828   -6.0802   23.6511 H   0  0  0  0  0  0  0  0  0  0  0  0
    6.2770   -7.2700   22.0881 C   0  0  0  0  0  0  0  0  0  0  0  0
    6.1565   -8.1443   22.7363 H   0  0  0  0  0  0  0  0  0  0  0  0
    7.2584   -7.3675   21.6118 H   0  0  0  0  0  0  0  0  0  0  0  0
    5.5210   -7.3485   21.2967 H   0  0  0  0  0  0  0  0  0  0  0  0
    8.5139   -2.0511   23.0787 C   0  0  0  0  0  0  0  0  0  0  0  0
    8.9967   -2.6586   23.8390 H   0  0  0  0  0  0  0  0  0  0  0  0
    8.2530   -0.7307   23.2533 C   0  0  0  0  0  0  0  0  0  0  0  0
    8.5358   -0.1572   24.1309 H   0  0  0  0  0  0  0  0  0  0  0  0
    7.5640    0.0668   22.2422 C   0  0  0  0  0  0  0  0  0  0  0  0
    7.3130    1.2564   22.3656 O   0  0  0  0  0  0  0  0  0  0  0  0
    5.4538    0.7242   20.1548 C   0  0  0  0  0  0  0  0  0  0  0  0
    5.0456    0.8561   21.1548 H   0  0  0  0  0  0  0  0  0  0  0  0
    4.8805    1.3296   19.0347 C   0  0  0  0  0  0  0  0  0  0  0  0
    3.9933    1.9455   19.1263 H   0  0  0  0  0  0  0  0  0  0  0  0
  1  2  1  0
  2  3  2  0
  3  4  1  0
  4  5  1  0
  4  6  2  0
  6  7  1  0
  7  8  1  0
  8  9  2  0
  9 10  1  0
 10 11  1  0
 10 12  1  0
 12 13  1  0
 12 14  1  0
 12 15  1  0
 15 16  1  0
 15 17  1  0
 15 18  1  0
 18 19  1  0
 18 20  1  0
 18 21  1  0
 21 22  1  0
 21 23  1  0
 21 24  1  0
  9 25  1  0
 25 26  1  0
 25 27  2  0
 27 28  1  0
 27 29  1  0
 29 30  2  0
  6 31  1  0
 31 32  1  0
 31 33  2  0
 33 34  1  0
 33  2  1  0
 29  7  1  0
M  END
>  <cnnaffinity>  (1) 
-5.21663

>  <filename>  (1) 
CCCCNc1ccc(=O)n(-c2cccnc2)n1

$$$$
