
     RDKit          3D

 47 49  0  0  0  0  0  0  0  0999 V2000
    5.0749    1.7027   16.8055 H   0  0  0  0  0  0  0  0  0  0  0  0
    5.4737    1.2065   17.6870 C   0  0  0  0  0  0  0  0  0  0  0  0
    6.5772    0.4626   17.5076 N   0  0  0  0  0  0  0  0  0  0  0  0
    7.1063   -0.1315   18.5786 C   0  0  0  0  0  0  0  0  0  0  0  0
    8.0083   -0.7189   18.4074 H   0  0  0  0  0  0  0  0  0  0  0  0
    6.5947    0.0045   19.8766 C   0  0  0  0  0  0  0  0  0  0  0  0
    7.3239   -0.6070   20.9822 C   0  0  0  0  0  0  0  0  0  0  0  0
    7.7332   -1.9178   20.9182 N   0  0  0  0  0  0  0  0  0  0  0  0
    8.2973   -2.1233   22.0722 C   0  0  0  0  0  0  0  0  0  0  0  0
    8.3491   -1.0214   22.8655 N   0  0  0  0  0  0  0  0  0  0  0  0
    7.7129   -0.0124   22.1732 C   0  0  0  0  0  0  0  0  0  0  0  0
    7.3104    1.2884   22.7803 C   0  0  0  0  0  0  0  0  0  0  0  0
    8.1257    1.6980   23.3934 H   0  0  0  0  0  0  0  0  0  0  0  0
    7.1427    2.0183   21.9782 H   0  0  0  0  0  0  0  0  0  0  0  0
    6.0295    1.1071   23.6203 C   0  0  0  0  0  0  0  0  0  0  0  0
    6.2539    0.3810   24.4131 H   0  0  0  0  0  0  0  0  0  0  0  0
    5.2801    0.6113   22.9980 H   0  0  0  0  0  0  0  0  0  0  0  0
    5.3997    2.3756   24.2070 C   0  0  0  0  0  0  0  0  0  0  0  0
    4.5689    2.0706   24.8618 H   0  0  0  0  0  0  0  0  0  0  0  0
    4.9397    2.9597   23.3974 H   0  0  0  0  0  0  0  0  0  0  0  0
    6.3647    3.2667   24.9993 C   0  0  0  0  0  0  0  0  0  0  0  0
    5.8243    4.1464   25.3724 H   0  0  0  0  0  0  0  0  0  0  0  0
    7.1277    3.6668   24.3144 H   0  0  0  0  0  0  0  0  0  0  0  0
    7.0167    2.5117   26.1608 C   0  0  0  0  0  0  0  0  0  0  0  0
    7.5191    1.6226   25.7525 H   0  0  0  0  0  0  0  0  0  0  0  0
    6.2222    2.1264   26.8168 H   0  0  0  0  0  0  0  0  0  0  0  0
    8.0452    3.2908   26.9821 C   0  0  0  0  0  0  0  0  0  0  0  0
    8.9166    3.4832   26.3402 H   0  0  0  0  0  0  0  0  0  0  0  0
    8.3987    2.6197   27.7747 H   0  0  0  0  0  0  0  0  0  0  0  0
    7.5952    4.6221   27.6049 C   0  0  0  0  0  0  0  0  0  0  0  0
    7.0737    5.2186   26.8476 H   0  0  0  0  0  0  0  0  0  0  0  0
    8.4922    5.2011   27.8489 H   0  0  0  0  0  0  0  0  0  0  0  0
    6.7232    4.5359   28.8591 C   0  0  0  0  0  0  0  0  0  0  0  0
    5.7865    3.9959   28.6827 H   0  0  0  0  0  0  0  0  0  0  0  0
    7.2433    4.0378   29.6853 H   0  0  0  0  0  0  0  0  0  0  0  0
    6.4598    5.5399   29.2106 H   0  0  0  0  0  0  0  0  0  0  0  0
    8.9280   -1.2107   24.1858 C   0  0  0  0  0  0  0  0  0  0  0  0
    9.4542   -0.3082   24.5103 H   0  0  0  0  0  0  0  0  0  0  0  0
    8.1447   -1.4318   24.9222 H   0  0  0  0  0  0  0  0  0  0  0  0
    9.8727   -2.4172   24.0079 C   0  0  0  0  0  0  0  0  0  0  0  0
   10.0701   -2.9751   24.9242 H   0  0  0  0  0  0  0  0  0  0  0  0
   10.8297   -2.1030   23.5833 H   0  0  0  0  0  0  0  0  0  0  0  0
    9.0460   -3.5270   22.8088 S   0  0  0  0  0  0  0  0  0  0  0  0
    5.4196    0.7545   20.0422 C   0  0  0  0  0  0  0  0  0  0  0  0
    4.9665    0.8697   21.0255 H   0  0  0  0  0  0  0  0  0  0  0  0
    4.8491    1.3573   18.9283 C   0  0  0  0  0  0  0  0  0  0  0  0
    3.9550    1.9615   19.0167 H   0  0  0  0  0  0  0  0  0  0  0  0
  1  2  1  0
  2  3  2  0
  3  4  1  0
  4  5  1  0
  4  6  2  0
  6  7  1  0
  7  8  1  0
  8  9  2  0
  9 10  1  0
 10 11  1  0
 11 12  1  0
 12 13  1  0
 12 14  1  0
 12 15  1  0
 15 16  1  0
 15 17  1  0
 15 18  1  0
 18 19  1  0
 18 20  1  0
 18 21  1  0
 21 22  1  0
 21 23  1  0
 21 24  1  0
 24 25  1  0
 24 26  1  0
 24 27  1  0
 27 28  1  0
 27 29  1  0
 27 30  1  0
 30 31  1  0
 30 32  1  0
 30 33  1  0
 33 34  1  0
 33 35  1  0
 33 36  1  0
 10 37  1  0
 37 38  1  0
 37 39  1  0
 37 40  1  0
 40 41  1  0
 40 42  1  0
 40 43  1  0
  6 44  1  0
 44 45  1  0
 44 46  2  0
 46 47  1  0
 46  2  1  0
 11  7  2  0
 43  9  1  0
M  END
>  <cnnaffinity>  (1) 
-5.65476

>  <filename>  (1) 
CCCCCCCCc1c(-c2cccnc2)nc2n1CCS2

$$$$
