
     RDKit          3D

 40 41  0  0  0  0  0  0  0  0999 V2000
    4.9882    1.8250   16.8931 H   0  0  0  0  0  0  0  0  0  0  0  0
    5.4027    1.3256   17.7633 C   0  0  0  0  0  0  0  0  0  0  0  0
    6.5635    0.6773   17.5815 N   0  0  0  0  0  0  0  0  0  0  0  0
    7.1008    0.0650   18.6374 C   0  0  0  0  0  0  0  0  0  0  0  0
    8.0534   -0.4413   18.4808 H   0  0  0  0  0  0  0  0  0  0  0  0
    6.5024    0.0610   19.9063 C   0  0  0  0  0  0  0  0  0  0  0  0
    7.1916   -0.6318   20.9795 C   0  0  0  0  0  0  0  0  0  0  0  0
    6.7823   -0.6869   22.2195 N   0  0  0  0  0  0  0  0  0  0  0  0
    7.7901   -1.4029   22.8487 O   0  0  0  0  0  0  0  0  0  0  0  0
    8.6909   -1.7069   21.9208 C   0  0  0  0  0  0  0  0  0  0  0  0
    9.8650   -2.5422   22.2763 C   0  0  0  0  0  0  0  0  0  0  0  0
    9.5172   -3.3671   22.9068 H   0  0  0  0  0  0  0  0  0  0  0  0
   10.1613   -2.9475   21.3148 H   0  0  0  0  0  0  0  0  0  0  0  0
   11.0885   -1.8508   22.8875 C   0  0  0  0  0  0  0  0  0  0  0  0
   11.8545   -2.6354   22.9517 H   0  0  0  0  0  0  0  0  0  0  0  0
   10.8512   -1.5120   23.9035 H   0  0  0  0  0  0  0  0  0  0  0  0
   11.6432   -0.6773   22.0659 C   0  0  0  0  0  0  0  0  0  0  0  0
   12.0529   -1.0937   21.1381 H   0  0  0  0  0  0  0  0  0  0  0  0
   10.8306   -0.0018   21.7558 H   0  0  0  0  0  0  0  0  0  0  0  0
   12.7487    0.1491   22.7524 C   0  0  0  0  0  0  0  0  0  0  0  0
   13.5647   -0.5127   23.0748 H   0  0  0  0  0  0  0  0  0  0  0  0
   13.2023    0.8092   22.0006 H   0  0  0  0  0  0  0  0  0  0  0  0
   12.3258    1.0231   23.9487 C   0  0  0  0  0  0  0  0  0  0  0  0
   13.2084    1.5829   24.2926 H   0  0  0  0  0  0  0  0  0  0  0  0
   12.0377    0.3916   24.8002 H   0  0  0  0  0  0  0  0  0  0  0  0
   11.1824    2.0151   23.6719 C   0  0  0  0  0  0  0  0  0  0  0  0
   10.2605    1.4522   23.4618 H   0  0  0  0  0  0  0  0  0  0  0  0
   10.9721    2.5751   24.5939 H   0  0  0  0  0  0  0  0  0  0  0  0
   11.4180    3.0204   22.5330 C   0  0  0  0  0  0  0  0  0  0  0  0
   11.5538    2.4793   21.5867 H   0  0  0  0  0  0  0  0  0  0  0  0
   10.5025    3.6115   22.4038 H   0  0  0  0  0  0  0  0  0  0  0  0
   12.5979    3.9729   22.7463 C   0  0  0  0  0  0  0  0  0  0  0  0
   12.5032    4.5208   23.6913 H   0  0  0  0  0  0  0  0  0  0  0  0
   12.6607    4.7156   21.9431 H   0  0  0  0  0  0  0  0  0  0  0  0
   13.5537    3.4370   22.7666 H   0  0  0  0  0  0  0  0  0  0  0  0
    8.3822   -1.2704   20.7399 N   0  0  0  0  0  0  0  0  0  0  0  0
    5.2967    0.7451   20.0940 C   0  0  0  0  0  0  0  0  0  0  0  0
    4.8371    0.7817   21.0828 H   0  0  0  0  0  0  0  0  0  0  0  0
    4.7337    1.3804   18.9944 C   0  0  0  0  0  0  0  0  0  0  0  0
    3.8012    1.9190   19.0797 H   0  0  0  0  0  0  0  0  0  0  0  0
  1  2  1  0
  2  3  2  0
  3  4  1  0
  4  5  1  0
  4  6  2  0
  6  7  1  0
  7  8  2  0
  8  9  1  0
  9 10  1  0
 10 11  1  0
 11 12  1  0
 11 13  1  0
 11 14  1  0
 14 15  1  0
 14 16  1  0
 14 17  1  0
 17 18  1  0
 17 19  1  0
 17 20  1  0
 20 21  1  0
 20 22  1  0
 20 23  1  0
 23 24  1  0
 23 25  1  0
 23 26  1  0
 26 27  1  0
 26 28  1  0
 26 29  1  0
 29 30  1  0
 29 31  1  0
 29 32  1  0
 32 33  1  0
 32 34  1  0
 32 35  1  0
 10 36  2  0
  6 37  1  0
 37 38  1  0
 37 39  2  0
 39 40  1  0
 39  2  1  0
 36  7  1  0
M  END
>  <cnnaffinity>  (1) 
-5.69088

>  <filename>  (1) 
CCCCCCCCc1nc(-c2cccnc2)no1

$$$$
