
     RDKit          3D

 40 41  0  0  0  0  0  0  0  0999 V2000
    8.3340   -3.7901   21.5503 H   0  0  0  0  0  0  0  0  0  0  0  0
    8.1880   -2.7253   21.7131 C   0  0  0  0  0  0  0  0  0  0  0  0
    7.5874   -2.0393   20.7247 N   0  0  0  0  0  0  0  0  0  0  0  0
    7.3627   -0.7313   20.9592 C   0  0  0  0  0  0  0  0  0  0  0  0
    6.6252   -0.0244   19.8795 C   0  0  0  0  0  0  0  0  0  0  0  0
    7.1205   -0.0664   18.5657 C   0  0  0  0  0  0  0  0  0  0  0  0
    8.0111   -0.6433   18.3234 H   0  0  0  0  0  0  0  0  0  0  0  0
    6.5695    0.5931   17.5405 N   0  0  0  0  0  0  0  0  0  0  0  0
    5.4448    1.2871   17.7908 C   0  0  0  0  0  0  0  0  0  0  0  0
    5.0000    1.7953   16.9411 H   0  0  0  0  0  0  0  0  0  0  0  0
    4.8357    1.3404   19.0463 C   0  0  0  0  0  0  0  0  0  0  0  0
    3.9069    1.8845   19.1755 H   0  0  0  0  0  0  0  0  0  0  0  0
    5.4370    0.6833   20.1196 C   0  0  0  0  0  0  0  0  0  0  0  0
    4.9975    0.7092   21.1185 H   0  0  0  0  0  0  0  0  0  0  0  0
    7.8225   -0.0886   22.1633 C   0  0  0  0  0  0  0  0  0  0  0  0
    7.7736    1.4193   22.3360 C   0  0  0  0  0  0  0  0  0  0  0  0
    6.7688    1.8007   22.1332 H   0  0  0  0  0  0  0  0  0  0  0  0
    7.9816    1.6489   23.3851 H   0  0  0  0  0  0  0  0  0  0  0  0
    8.7832    2.1201   21.4009 C   0  0  0  0  0  0  0  0  0  0  0  0
    8.5094    1.8913   20.3623 H   0  0  0  0  0  0  0  0  0  0  0  0
    8.6869    3.2105   21.5135 H   0  0  0  0  0  0  0  0  0  0  0  0
   10.2344    1.6912   21.6699 C   0  0  0  0  0  0  0  0  0  0  0  0
   10.3534    0.6229   21.4249 H   0  0  0  0  0  0  0  0  0  0  0  0
   10.8992    2.2408   20.9891 H   0  0  0  0  0  0  0  0  0  0  0  0
   10.6614    1.9125   23.1299 C   0  0  0  0  0  0  0  0  0  0  0  0
    9.9745    1.3745   23.7938 H   0  0  0  0  0  0  0  0  0  0  0  0
   10.5733    2.9830   23.3742 H   0  0  0  0  0  0  0  0  0  0  0  0
   12.0566    1.3939   23.4782 C   0  0  0  0  0  0  0  0  0  0  0  0
   12.2593    1.5925   24.5405 H   0  0  0  0  0  0  0  0  0  0  0  0
   12.0437    0.3023   23.3648 H   0  0  0  0  0  0  0  0  0  0  0  0
   13.1912    1.9558   22.6321 C   0  0  0  0  0  0  0  0  0  0  0  0
   14.1297    1.4600   22.9075 H   0  0  0  0  0  0  0  0  0  0  0  0
   12.9705    1.6803   21.5938 H   0  0  0  0  0  0  0  0  0  0  0  0
   13.3648    3.4654   22.7647 C   0  0  0  0  0  0  0  0  0  0  0  0
   13.5087    3.7325   23.8148 H   0  0  0  0  0  0  0  0  0  0  0  0
   14.2372    3.8217   22.2124 H   0  0  0  0  0  0  0  0  0  0  0  0
   12.4939    4.0124   22.3868 H   0  0  0  0  0  0  0  0  0  0  0  0
    8.4408   -0.7999   23.1336 N   0  0  0  0  0  0  0  0  0  0  0  0
    8.6053   -2.1195   22.9020 C   0  0  0  0  0  0  0  0  0  0  0  0
    9.1025   -2.7080   23.6703 H   0  0  0  0  0  0  0  0  0  0  0  0
  1  2  1  0
  2  3  2  0
  3  4  1  0
  4  5  1  0
  5  6  2  0
  6  7  1  0
  6  8  1  0
  8  9  2  0
  9 10  1  0
  9 11  1  0
 11 12  1  0
 11 13  2  0
 13 14  1  0
  4 15  2  0
 15 16  1  0
 16 17  1  0
 16 18  1  0
 16 19  1  0
 19 20  1  0
 19 21  1  0
 19 22  1  0
 22 23  1  0
 22 24  1  0
 22 25  1  0
 25 26  1  0
 25 27  1  0
 25 28  1  0
 28 29  1  0
 28 30  1  0
 28 31  1  0
 31 32  1  0
 31 33  1  0
 31 34  1  0
 34 35  1  0
 34 36  1  0
 34 37  1  0
 15 38  1  0
 38 39  2  0
 39 40  1  0
 39  2  1  0
 13  5  1  0
M  END
>  <cnnaffinity>  (1) 
-5.21696

>  <filename>  (1) 
CCCCCCCc1nccnc1-c1cccnc1

$$$$
