
     RDKit          3D

 37 37  0  0  0  0  0  0  0  0999 V2000
    4.8939    1.8298   17.0427 H   0  0  0  0  0  0  0  0  0  0  0  0
    5.3955    1.2897   17.8430 C   0  0  0  0  0  0  0  0  0  0  0  0
    6.5281    0.6493   17.5113 N   0  0  0  0  0  0  0  0  0  0  0  0
    7.1700   -0.0129   18.4859 C   0  0  0  0  0  0  0  0  0  0  0  0
    8.0724   -0.5513   18.2048 H   0  0  0  0  0  0  0  0  0  0  0  0
    6.7364   -0.0711   19.8389 C   0  0  0  0  0  0  0  0  0  0  0  0
    7.3495   -0.8206   20.8841 N   0  0  0  0  0  0  0  0  0  0  0  0
    6.9360   -0.7500   21.8053 H   0  0  0  0  0  0  0  0  0  0  0  0
    8.9135   -1.1454   21.3260 S   0  0  0  0  0  0  0  0  0  0  0  0
    8.7496   -1.2329   22.7657 O   0  0  0  0  0  0  0  0  0  0  0  0
    9.4485   -2.2424   20.5506 O   0  0  0  0  0  0  0  0  0  0  0  0
    9.8013    0.3158   20.8267 C   0  0  0  0  0  0  0  0  0  0  0  0
    9.5717    0.3593   19.7627 H   0  0  0  0  0  0  0  0  0  0  0  0
   10.8447    0.0010   20.9190 H   0  0  0  0  0  0  0  0  0  0  0  0
    9.5257    1.6547   21.5210 C   0  0  0  0  0  0  0  0  0  0  0  0
   10.2794    2.3669   21.1485 H   0  0  0  0  0  0  0  0  0  0  0  0
    8.5577    2.0711   21.2117 H   0  0  0  0  0  0  0  0  0  0  0  0
    9.6163    1.5873   23.0490 C   0  0  0  0  0  0  0  0  0  0  0  0
    8.8362    0.9199   23.4224 H   0  0  0  0  0  0  0  0  0  0  0  0
    9.4002    2.5791   23.4694 H   0  0  0  0  0  0  0  0  0  0  0  0
   10.9761    1.0863   23.5667 C   0  0  0  0  0  0  0  0  0  0  0  0
   10.9268    1.0186   24.6620 H   0  0  0  0  0  0  0  0  0  0  0  0
   11.1415    0.0540   23.2294 H   0  0  0  0  0  0  0  0  0  0  0  0
   12.1817    1.9547   23.1750 C   0  0  0  0  0  0  0  0  0  0  0  0
   13.0818    1.5473   23.6551 H   0  0  0  0  0  0  0  0  0  0  0  0
   12.3677    1.8762   22.0937 H   0  0  0  0  0  0  0  0  0  0  0  0
   12.0166    3.4267   23.5631 C   0  0  0  0  0  0  0  0  0  0  0  0
   11.1609    3.8526   23.0236 H   0  0  0  0  0  0  0  0  0  0  0  0
   11.7507    3.4799   24.6265 H   0  0  0  0  0  0  0  0  0  0  0  0
   13.2396    4.2986   23.2997 C   0  0  0  0  0  0  0  0  0  0  0  0
   14.1198    3.9337   23.8363 H   0  0  0  0  0  0  0  0  0  0  0  0
   13.4922    4.3244   22.2338 H   0  0  0  0  0  0  0  0  0  0  0  0
   13.0600    5.3286   23.6251 H   0  0  0  0  0  0  0  0  0  0  0  0
    5.5507    0.5983   20.1546 C   0  0  0  0  0  0  0  0  0  0  0  0
    5.1909    0.5721   21.1845 H   0  0  0  0  0  0  0  0  0  0  0  0
    4.8662    1.2790   19.1387 C   0  0  0  0  0  0  0  0  0  0  0  0
    3.9361    1.7974   19.3419 H   0  0  0  0  0  0  0  0  0  0  0  0
  1  2  1  0
  2  3  2  0
  3  4  1  0
  4  5  1  0
  4  6  2  0
  6  7  1  0
  7  8  1  0
  7  9  1  0
  9 10  2  0
  9 11  2  0
  9 12  1  0
 12 13  1  0
 12 14  1  0
 12 15  1  0
 15 16  1  0
 15 17  1  0
 15 18  1  0
 18 19  1  0
 18 20  1  0
 18 21  1  0
 21 22  1  0
 21 23  1  0
 21 24  1  0
 24 25  1  0
 24 26  1  0
 24 27  1  0
 27 28  1  0
 27 29  1  0
 27 30  1  0
 30 31  1  0
 30 32  1  0
 30 33  1  0
  6 34  1  0
 34 35  1  0
 34 36  2  0
 36 37  1  0
 36  2  1  0
M  END
>  <cnnaffinity>  (1) 
-4.80695

>  <filename>  (1) 
CCCCCCCS(=O)(=O)Nc1cccnc1

$$$$
