
     RDKit          3D

 45 46  0  0  0  0  0  0  0  0999 V2000
    4.9144    1.7901   16.9887 H   0  0  0  0  0  0  0  0  0  0  0  0
    5.3942    1.2980   17.8291 C   0  0  0  0  0  0  0  0  0  0  0  0
    6.5532    0.6770   17.5633 N   0  0  0  0  0  0  0  0  0  0  0  0
    7.1651    0.0677   18.5892 C   0  0  0  0  0  0  0  0  0  0  0  0
    8.1123   -0.4235   18.3674 H   0  0  0  0  0  0  0  0  0  0  0  0
    6.6575    0.0230   19.8967 C   0  0  0  0  0  0  0  0  0  0  0  0
    7.3656   -0.7282   20.9657 C   0  0  0  0  0  0  0  0  0  0  0  0
    6.7681   -1.9006   21.4580 C   0  0  0  0  0  0  0  0  0  0  0  0
    5.8168   -2.2083   21.0276 H   0  0  0  0  0  0  0  0  0  0  0  0
    7.3852   -2.6562   22.4552 C   0  0  0  0  0  0  0  0  0  0  0  0
    6.9123   -3.5658   22.8240 H   0  0  0  0  0  0  0  0  0  0  0  0
    8.6054   -2.2256   22.9876 C   0  0  0  0  0  0  0  0  0  0  0  0
    9.0936   -2.7933   23.7743 H   0  0  0  0  0  0  0  0  0  0  0  0
    9.1993   -1.0552   22.5145 C   0  0  0  0  0  0  0  0  0  0  0  0
   10.1375   -0.6957   22.9402 H   0  0  0  0  0  0  0  0  0  0  0  0
    8.6047   -0.2938   21.4987 C   0  0  0  0  0  0  0  0  0  0  0  0
    9.2653    1.0181   21.1040 C   0  0  0  0  0  0  0  0  0  0  0  0
    8.8856    1.3320   20.1305 H   0  0  0  0  0  0  0  0  0  0  0  0
   10.3488    0.8690   20.9981 H   0  0  0  0  0  0  0  0  0  0  0  0
    9.0106    2.1538   22.1113 C   0  0  0  0  0  0  0  0  0  0  0  0
    9.3466    1.8337   23.1078 H   0  0  0  0  0  0  0  0  0  0  0  0
    9.6275    3.0248   21.8441 H   0  0  0  0  0  0  0  0  0  0  0  0
    7.5439    2.5763   22.1846 C   0  0  0  0  0  0  0  0  0  0  0  0
    6.9249    1.7207   22.4940 H   0  0  0  0  0  0  0  0  0  0  0  0
    7.1797    2.8394   21.1805 H   0  0  0  0  0  0  0  0  0  0  0  0
    7.3183    3.7529   23.1257 C   0  0  0  0  0  0  0  0  0  0  0  0
    7.6838    3.4967   24.1309 H   0  0  0  0  0  0  0  0  0  0  0  0
    7.9309    4.6074   22.7974 H   0  0  0  0  0  0  0  0  0  0  0  0
    5.8537    4.1814   23.1890 C   0  0  0  0  0  0  0  0  0  0  0  0
    5.2518    3.3462   23.5780 H   0  0  0  0  0  0  0  0  0  0  0  0
    5.4889    4.3672   22.1691 H   0  0  0  0  0  0  0  0  0  0  0  0
    5.6094    5.4225   24.0478 C   0  0  0  0  0  0  0  0  0  0  0  0
    6.2719    6.2328   23.7084 H   0  0  0  0  0  0  0  0  0  0  0  0
    4.5855    5.7823   23.8790 H   0  0  0  0  0  0  0  0  0  0  0  0
    5.8200    5.1942   25.5459 C   0  0  0  0  0  0  0  0  0  0  0  0
    5.2110    4.3380   25.8662 H   0  0  0  0  0  0  0  0  0  0  0  0
    6.8615    4.9082   25.7416 H   0  0  0  0  0  0  0  0  0  0  0  0
    5.4593    6.4217   26.3780 C   0  0  0  0  0  0  0  0  0  0  0  0
    6.0710    7.2850   26.0876 H   0  0  0  0  0  0  0  0  0  0  0  0
    5.6109    6.2439   27.4479 H   0  0  0  0  0  0  0  0  0  0  0  0
    4.4088    6.7005   26.2270 H   0  0  0  0  0  0  0  0  0  0  0  0
    5.4312    0.6529   20.1502 C   0  0  0  0  0  0  0  0  0  0  0  0
    5.0108    0.6338   21.1609 H   0  0  0  0  0  0  0  0  0  0  0  0
    4.8005    1.3157   19.0962 C   0  0  0  0  0  0  0  0  0  0  0  0
    3.8713    1.8445   19.2506 H   0  0  0  0  0  0  0  0  0  0  0  0
  1  2  1  0
  2  3  2  0
  3  4  1  0
  4  5  1  0
  4  6  2  0
  6  7  1  0
  7  8  2  0
  8  9  1  0
  8 10  1  0
 10 11  1  0
 10 12  2  0
 12 13  1  0
 12 14  1  0
 14 15  1  0
 14 16  2  0
 16 17  1  0
 17 18  1  0
 17 19  1  0
 17 20  1  0
 20 21  1  0
 20 22  1  0
 20 23  1  0
 23 24  1  0
 23 25  1  0
 23 26  1  0
 26 27  1  0
 26 28  1  0
 26 29  1  0
 29 30  1  0
 29 31  1  0
 29 32  1  0
 32 33  1  0
 32 34  1  0
 32 35  1  0
 35 36  1  0
 35 37  1  0
 35 38  1  0
 38 39  1  0
 38 40  1  0
 38 41  1  0
  6 42  1  0
 42 43  1  0
 42 44  2  0
 44 45  1  0
 44  2  1  0
 16  7  1  0
M  END
>  <cnnaffinity>  (1) 
-5.20587

>  <filename>  (1) 
CCCCCCCCc1ccccc1-c1cccnc1

$$$$
