
     RDKit          3D

 44 45  0  0  0  0  0  0  0  0999 V2000
    4.9549    1.8089   16.9406 H   0  0  0  0  0  0  0  0  0  0  0  0
    5.4113    1.2994   17.7875 C   0  0  0  0  0  0  0  0  0  0  0  0
    6.5615    0.6523   17.5425 N   0  0  0  0  0  0  0  0  0  0  0  0
    7.1338    0.0181   18.5775 C   0  0  0  0  0  0  0  0  0  0  0  0
    8.0727   -0.4878   18.3529 H   0  0  0  0  0  0  0  0  0  0  0  0
    6.6285   -0.0011   19.8963 C   0  0  0  0  0  0  0  0  0  0  0  0
    7.3309   -0.7345   21.0079 C   0  0  0  0  0  0  0  0  0  0  0  0
    7.4280   -2.1353   20.9607 C   0  0  0  0  0  0  0  0  0  0  0  0
    6.9487   -2.6616   20.1330 H   0  0  0  0  0  0  0  0  0  0  0  0
    8.0533   -2.9018   21.8613 N   0  0  0  0  0  0  0  0  0  0  0  0
    8.6193   -2.2740   22.8976 C   0  0  0  0  0  0  0  0  0  0  0  0
    9.1500   -2.8976   23.6217 H   0  0  0  0  0  0  0  0  0  0  0  0
    8.5619   -0.8925   23.0717 C   0  0  0  0  0  0  0  0  0  0  0  0
    9.0399   -0.4448   23.9335 H   0  0  0  0  0  0  0  0  0  0  0  0
    7.9113   -0.0876   22.1236 C   0  0  0  0  0  0  0  0  0  0  0  0
    7.9666    1.4200   22.2287 C   0  0  0  0  0  0  0  0  0  0  0  0
    8.2944    1.6987   23.2369 H   0  0  0  0  0  0  0  0  0  0  0  0
    6.9554    1.8251   22.0958 H   0  0  0  0  0  0  0  0  0  0  0  0
    8.9114    2.0307   21.1770 C   0  0  0  0  0  0  0  0  0  0  0  0
    8.8446    3.1247   21.2247 H   0  0  0  0  0  0  0  0  0  0  0  0
    8.5285    1.7389   20.1929 H   0  0  0  0  0  0  0  0  0  0  0  0
   10.3849    1.5984   21.3050 C   0  0  0  0  0  0  0  0  0  0  0  0
   10.9401    1.9831   20.4390 H   0  0  0  0  0  0  0  0  0  0  0  0
   10.4538    0.5013   21.2435 H   0  0  0  0  0  0  0  0  0  0  0  0
   11.0817    2.0734   22.5910 C   0  0  0  0  0  0  0  0  0  0  0  0
   12.0934    1.6454   22.6354 H   0  0  0  0  0  0  0  0  0  0  0  0
   10.5510    1.6561   23.4594 H   0  0  0  0  0  0  0  0  0  0  0  0
   11.1656    3.5985   22.7356 C   0  0  0  0  0  0  0  0  0  0  0  0
   10.1546    4.0090   22.8654 H   0  0  0  0  0  0  0  0  0  0  0  0
   11.5636    4.0336   21.8097 H   0  0  0  0  0  0  0  0  0  0  0  0
   12.0329    4.0742   23.8988 C   0  0  0  0  0  0  0  0  0  0  0  0
   11.7943    3.4709   24.7817 H   0  0  0  0  0  0  0  0  0  0  0  0
   13.0895    3.8701   23.6714 H   0  0  0  0  0  0  0  0  0  0  0  0
   11.8548    5.5588   24.2281 C   0  0  0  0  0  0  0  0  0  0  0  0
   10.7856    5.7743   24.3543 H   0  0  0  0  0  0  0  0  0  0  0  0
   12.1900    6.1570   23.3713 H   0  0  0  0  0  0  0  0  0  0  0  0
   12.5993    6.0156   25.4793 C   0  0  0  0  0  0  0  0  0  0  0  0
   12.6257    7.1082   25.5289 H   0  0  0  0  0  0  0  0  0  0  0  0
   12.1093    5.6472   26.3864 H   0  0  0  0  0  0  0  0  0  0  0  0
   13.6301    5.6507   25.4780 H   0  0  0  0  0  0  0  0  0  0  0  0
    5.4238    0.6835   20.1191 C   0  0  0  0  0  0  0  0  0  0  0  0
    4.9886    0.6960   21.1196 H   0  0  0  0  0  0  0  0  0  0  0  0
    4.8020    1.3301   19.0450 C   0  0  0  0  0  0  0  0  0  0  0  0
    3.8676    1.8596   19.1774 H   0  0  0  0  0  0  0  0  0  0  0  0
  1  2  1  0
  2  3  2  0
  3  4  1  0
  4  5  1  0
  4  6  2  0
  6  7  1  0
  7  8  2  0
  8  9  1  0
  8 10  1  0
 10 11  2  0
 11 12  1  0
 11 13  1  0
 13 14  1  0
 13 15  2  0
 15 16  1  0
 16 17  1  0
 16 18  1  0
 16 19  1  0
 19 20  1  0
 19 21  1  0
 19 22  1  0
 22 23  1  0
 22 24  1  0
 22 25  1  0
 25 26  1  0
 25 27  1  0
 25 28  1  0
 28 29  1  0
 28 30  1  0
 28 31  1  0
 31 32  1  0
 31 33  1  0
 31 34  1  0
 34 35  1  0
 34 36  1  0
 34 37  1  0
 37 38  1  0
 37 39  1  0
 37 40  1  0
  6 41  1  0
 41 42  1  0
 41 43  2  0
 43 44  1  0
 43  2  1  0
 15  7  1  0
M  END
>  <cnnaffinity>  (1) 
-5.26537

>  <filename>  (1) 
CCCCCCCCc1ccncc1-c1cccnc1

$$$$
