
     RDKit          3D

 45 46  0  0  0  0  0  0  0  0999 V2000
    5.0075    1.8084   16.9300 H   0  0  0  0  0  0  0  0  0  0  0  0
    5.4545    1.3027   17.7822 C   0  0  0  0  0  0  0  0  0  0  0  0
    6.6065    0.6572   17.5417 N   0  0  0  0  0  0  0  0  0  0  0  0
    7.1827    0.0320   18.5768 C   0  0  0  0  0  0  0  0  0  0  0  0
    8.1089   -0.5029   18.3632 H   0  0  0  0  0  0  0  0  0  0  0  0
    6.6569   -0.0026   19.8820 C   0  0  0  0  0  0  0  0  0  0  0  0
    7.3789   -0.7327   20.9640 C   0  0  0  0  0  0  0  0  0  0  0  0
    8.8038   -0.6499   21.1114 C   0  0  0  0  0  0  0  0  0  0  0  0
    9.3481   -0.0158   20.4085 H   0  0  0  0  0  0  0  0  0  0  0  0
    9.4770   -1.3146   22.1164 C   0  0  0  0  0  0  0  0  0  0  0  0
   10.9525   -1.2193   22.3962 C   0  0  0  0  0  0  0  0  0  0  0  0
   11.3271   -2.2335   22.5920 H   0  0  0  0  0  0  0  0  0  0  0  0
   11.4983   -0.8517   21.5146 H   0  0  0  0  0  0  0  0  0  0  0  0
   11.2525   -0.3333   23.6278 C   0  0  0  0  0  0  0  0  0  0  0  0
   10.7009   -0.7664   24.4714 H   0  0  0  0  0  0  0  0  0  0  0  0
   12.3217   -0.3912   23.8714 H   0  0  0  0  0  0  0  0  0  0  0  0
   10.8668    1.1400   23.4587 C   0  0  0  0  0  0  0  0  0  0  0  0
    9.7867    1.1870   23.2423 H   0  0  0  0  0  0  0  0  0  0  0  0
   10.9979    1.6520   24.4229 H   0  0  0  0  0  0  0  0  0  0  0  0
   11.6861    1.8414   22.3622 C   0  0  0  0  0  0  0  0  0  0  0  0
   12.7433    1.8863   22.6658 H   0  0  0  0  0  0  0  0  0  0  0  0
   11.6596    1.2327   21.4466 H   0  0  0  0  0  0  0  0  0  0  0  0
   11.1914    3.2318   21.9740 C   0  0  0  0  0  0  0  0  0  0  0  0
   10.1578    3.1095   21.6132 H   0  0  0  0  0  0  0  0  0  0  0  0
   11.7831    3.5932   21.1194 H   0  0  0  0  0  0  0  0  0  0  0  0
   11.1983    4.2998   23.0675 C   0  0  0  0  0  0  0  0  0  0  0  0
   10.7168    3.8987   23.9710 H   0  0  0  0  0  0  0  0  0  0  0  0
   12.2302    4.5331   23.3642 H   0  0  0  0  0  0  0  0  0  0  0  0
   10.4688    5.5664   22.6195 C   0  0  0  0  0  0  0  0  0  0  0  0
    9.4476    5.2803   22.3291 H   0  0  0  0  0  0  0  0  0  0  0  0
   10.9473    5.9893   21.7234 H   0  0  0  0  0  0  0  0  0  0  0  0
   10.4189    6.6566   23.6738 C   0  0  0  0  0  0  0  0  0  0  0  0
   11.4273    7.0214   23.8946 H   0  0  0  0  0  0  0  0  0  0  0  0
    9.7997    7.4912   23.3345 H   0  0  0  0  0  0  0  0  0  0  0  0
    9.9940    6.3074   24.6184 H   0  0  0  0  0  0  0  0  0  0  0  0
    8.7063   -2.1378   23.0674 C   0  0  0  0  0  0  0  0  0  0  0  0
    9.1175   -2.7845   24.0185 O   0  0  0  0  0  0  0  0  0  0  0  0
    7.3416   -2.1886   22.8309 N   0  0  0  0  0  0  0  0  0  0  0  0
    6.9128   -2.7705   23.5346 H   0  0  0  0  0  0  0  0  0  0  0  0
    6.6816   -1.5249   21.8364 C   0  0  0  0  0  0  0  0  0  0  0  0
    5.6114   -1.6825   21.7616 H   0  0  0  0  0  0  0  0  0  0  0  0
    5.4359    0.6608   20.0997 C   0  0  0  0  0  0  0  0  0  0  0  0
    4.9819    0.6675   21.0913 H   0  0  0  0  0  0  0  0  0  0  0  0
    4.8319    1.3334   19.0351 C   0  0  0  0  0  0  0  0  0  0  0  0
    3.9033    1.8792   19.1635 H   0  0  0  0  0  0  0  0  0  0  0  0
  1  2  1  0
  2  3  2  0
  3  4  1  0
  4  5  1  0
  4  6  2  0
  6  7  1  0
  7  8  1  0
  8  9  1  0
  8 10  2  0
 10 11  1  0
 11 12  1  0
 11 13  1  0
 11 14  1  0
 14 15  1  0
 14 16  1  0
 14 17  1  0
 17 18  1  0
 17 19  1  0
 17 20  1  0
 20 21  1  0
 20 22  1  0
 20 23  1  0
 23 24  1  0
 23 25  1  0
 23 26  1  0
 26 27  1  0
 26 28  1  0
 26 29  1  0
 29 30  1  0
 29 31  1  0
 29 32  1  0
 32 33  1  0
 32 34  1  0
 32 35  1  0
 10 36  1  0
 36 37  2  0
 36 38  1  0
 38 39  1  0
 38 40  1  0
 40 41  1  0
  6 42  1  0
 42 43  1  0
 42 44  2  0
 44 45  1  0
 44  2  1  0
 40  7  2  0
M  END
>  <cnnaffinity>  (1) 
-5.35458

>  <filename>  (1) 
CCCCCCCCc1cc(-c2cccnc2)c[nH]c1=O

$$$$
