
     RDKit          3D

 45 46  0  0  0  0  0  0  0  0999 V2000
    4.9556    1.7926   16.9496 H   0  0  0  0  0  0  0  0  0  0  0  0
    5.3962    1.3170   17.8212 C   0  0  0  0  0  0  0  0  0  0  0  0
    6.5670    0.6913   17.6281 N   0  0  0  0  0  0  0  0  0  0  0  0
    7.1349    0.1189   18.6953 C   0  0  0  0  0  0  0  0  0  0  0  0
    8.0867   -0.3727   18.4859 H   0  0  0  0  0  0  0  0  0  0  0  0
    6.6011    0.1179   20.0087 C   0  0  0  0  0  0  0  0  0  0  0  0
    7.3504   -0.5196   21.1888 C   0  0  0  0  0  0  0  0  0  0  0  0
    8.2060    0.4800   21.9904 C   0  0  0  0  0  0  0  0  0  0  0  0
    7.5762    1.2441   22.4713 H   0  0  0  0  0  0  0  0  0  0  0  0
    8.7094   -0.0549   22.8134 H   0  0  0  0  0  0  0  0  0  0  0  0
    9.2568    1.1324   21.0789 C   0  0  0  0  0  0  0  0  0  0  0  0
    9.7552    0.3542   20.4844 H   0  0  0  0  0  0  0  0  0  0  0  0
    8.7119    1.7669   20.3675 H   0  0  0  0  0  0  0  0  0  0  0  0
   10.3017    1.9810   21.7959 C   0  0  0  0  0  0  0  0  0  0  0  0
   10.8766    1.3540   22.4956 H   0  0  0  0  0  0  0  0  0  0  0  0
   11.0195    2.3646   21.0532 H   0  0  0  0  0  0  0  0  0  0  0  0
    9.6644    3.1475   22.5514 C   0  0  0  0  0  0  0  0  0  0  0  0
    9.0222    3.7077   21.8539 H   0  0  0  0  0  0  0  0  0  0  0  0
    8.9882    2.7569   23.3252 H   0  0  0  0  0  0  0  0  0  0  0  0
   10.6768    4.0845   23.2010 C   0  0  0  0  0  0  0  0  0  0  0  0
   11.2444    3.5110   23.9480 H   0  0  0  0  0  0  0  0  0  0  0  0
   11.4029    4.4106   22.4408 H   0  0  0  0  0  0  0  0  0  0  0  0
   10.0372    5.3176   23.8468 C   0  0  0  0  0  0  0  0  0  0  0  0
    9.4415    5.8440   23.0868 H   0  0  0  0  0  0  0  0  0  0  0  0
    9.3263    4.9923   24.6221 H   0  0  0  0  0  0  0  0  0  0  0  0
   11.0321    6.3053   24.4715 C   0  0  0  0  0  0  0  0  0  0  0  0
   11.7677    6.6093   23.7138 H   0  0  0  0  0  0  0  0  0  0  0  0
   10.4929    7.2188   24.7522 H   0  0  0  0  0  0  0  0  0  0  0  0
   11.7497    5.7549   25.7044 C   0  0  0  0  0  0  0  0  0  0  0  0
   12.4540    6.4790   26.1268 H   0  0  0  0  0  0  0  0  0  0  0  0
   12.3135    4.8447   25.4712 H   0  0  0  0  0  0  0  0  0  0  0  0
   11.0186    5.5088   26.4839 H   0  0  0  0  0  0  0  0  0  0  0  0
    8.1958   -1.7542   20.7692 C   0  0  0  0  0  0  0  0  0  0  0  0
    7.9712   -1.9083   19.7302 H   0  0  0  0  0  0  0  0  0  0  0  0
    9.2814   -1.7114   20.9322 H   0  0  0  0  0  0  0  0  0  0  0  0
    7.4014   -2.6740   21.6978 C   0  0  0  0  0  0  0  0  0  0  0  0
    6.8750   -3.4910   21.1969 H   0  0  0  0  0  0  0  0  0  0  0  0
    7.9889   -3.0863   22.5272 H   0  0  0  0  0  0  0  0  0  0  0  0
    6.4794   -1.4862   22.0531 C   0  0  0  0  0  0  0  0  0  0  0  0
    5.4725   -1.6178   21.6388 H   0  0  0  0  0  0  0  0  0  0  0  0
    6.4018   -1.2397   23.1193 H   0  0  0  0  0  0  0  0  0  0  0  0
    5.3630    0.7552   20.1670 C   0  0  0  0  0  0  0  0  0  0  0  0
    4.8773    0.7692   21.1461 H   0  0  0  0  0  0  0  0  0  0  0  0
    4.7581    1.3629   19.0653 C   0  0  0  0  0  0  0  0  0  0  0  0
    3.8096    1.8747   19.1559 H   0  0  0  0  0  0  0  0  0  0  0  0
  1  2  1  0
  2  3  2  0
  3  4  1  0
  4  5  1  0
  4  6  2  0
  6  7  1  0
  7  8  1  0
  8  9  1  0
  8 10  1  0
  8 11  1  0
 11 12  1  0
 11 13  1  0
 11 14  1  0
 14 15  1  0
 14 16  1  0
 14 17  1  0
 17 18  1  0
 17 19  1  0
 17 20  1  0
 20 21  1  0
 20 22  1  0
 20 23  1  0
 23 24  1  0
 23 25  1  0
 23 26  1  0
 26 27  1  0
 26 28  1  0
 26 29  1  0
 29 30  1  0
 29 31  1  0
 29 32  1  0
  7 33  1  0
 33 34  1  0
 33 35  1  0
 33 36  1  0
 36 37  1  0
 36 38  1  0
 36 39  1  0
 39 40  1  0
 39 41  1  0
  6 42  1  0
 42 43  1  0
 42 44  2  0
 44 45  1  0
 44  2  1  0
 39  7  1  0
M  END
>  <cnnaffinity>  (1) 
-4.59814

>  <filename>  (1) 
CCCCCCCCC1(c2cccnc2)CCC1

$$$$
