
     RDKit          3D

 42 44  0  0  0  0  0  0  0  0999 V2000
    4.9570    1.7652   16.9974 H   0  0  0  0  0  0  0  0  0  0  0  0
    5.4393    1.2672   17.8369 C   0  0  0  0  0  0  0  0  0  0  0  0
    6.6022    0.6489   17.5773 N   0  0  0  0  0  0  0  0  0  0  0  0
    7.2183    0.0517   18.6085 C   0  0  0  0  0  0  0  0  0  0  0  0
    8.1509   -0.4490   18.3644 H   0  0  0  0  0  0  0  0  0  0  0  0
    6.7454    0.0226   19.9582 C   0  0  0  0  0  0  0  0  0  0  0  0
    7.4543   -0.5480   21.0040 N   0  0  0  0  0  0  0  0  0  0  0  0
    8.7336   -1.2252   20.8223 C   0  0  0  0  0  0  0  0  0  0  0  0
    9.5200   -0.5050   20.5567 H   0  0  0  0  0  0  0  0  0  0  0  0
    8.6798   -1.9597   20.0144 H   0  0  0  0  0  0  0  0  0  0  0  0
    9.0391   -1.8774   22.1558 C   0  0  1  0  0  0  0  0  0  0  0  0
   10.0692   -1.8930   22.4826 H   0  0  0  0  0  0  0  0  0  0  0  0
    7.9269   -1.5454   23.1030 C   0  0  1  0  0  0  0  0  0  0  0  0
    8.1250   -1.2799   24.1339 H   0  0  0  0  0  0  0  0  0  0  0  0
    6.8840   -0.7469   22.3355 C   0  0  0  0  0  0  0  0  0  0  0  0
    5.9350   -1.3016   22.2683 H   0  0  0  0  0  0  0  0  0  0  0  0
    6.6921    0.2178   22.8239 H   0  0  0  0  0  0  0  0  0  0  0  0
    8.1529   -2.9820   22.6853 C   0  0  1  0  0  0  0  0  0  0  0  0
    8.6432   -3.5788   23.4507 H   0  0  0  0  0  0  0  0  0  0  0  0
    7.1421   -3.7552   21.8578 C   0  0  0  0  0  0  0  0  0  0  0  0
    6.7127   -3.0986   21.0914 H   0  0  0  0  0  0  0  0  0  0  0  0
    7.6560   -4.5707   21.3213 H   0  0  0  0  0  0  0  0  0  0  0  0
    5.9784   -4.3044   22.7099 C   0  0  0  0  0  0  0  0  0  0  0  0
    5.1676   -4.6287   22.0414 H   0  0  0  0  0  0  0  0  0  0  0  0
    5.5621   -3.4672   23.2964 H   0  0  0  0  0  0  0  0  0  0  0  0
    6.3407   -5.4731   23.6415 C   0  0  0  0  0  0  0  0  0  0  0  0
    7.2870   -5.2612   24.1579 H   0  0  0  0  0  0  0  0  0  0  0  0
    6.5264   -6.3719   23.0341 H   0  0  0  0  0  0  0  0  0  0  0  0
    5.2735   -5.8135   24.6938 C   0  0  0  0  0  0  0  0  0  0  0  0
    5.1770   -4.9847   25.4102 H   0  0  0  0  0  0  0  0  0  0  0  0
    5.6318   -6.6750   25.2777 H   0  0  0  0  0  0  0  0  0  0  0  0
    3.8898   -6.1606   24.1224 C   0  0  0  0  0  0  0  0  0  0  0  0
    3.2378   -6.4470   24.9550 H   0  0  0  0  0  0  0  0  0  0  0  0
    3.4448   -5.2619   23.6720 H   0  0  0  0  0  0  0  0  0  0  0  0
    3.9515   -7.3115   23.1146 C   0  0  0  0  0  0  0  0  0  0  0  0
    4.5118   -7.0170   22.2180 H   0  0  0  0  0  0  0  0  0  0  0  0
    2.9724   -7.6853   22.7964 H   0  0  0  0  0  0  0  0  0  0  0  0
    4.4852   -8.1575   23.5631 H   0  0  0  0  0  0  0  0  0  0  0  0
    5.4938    0.6486   20.1768 C   0  0  0  0  0  0  0  0  0  0  0  0
    5.0497    0.6359   21.1701 H   0  0  0  0  0  0  0  0  0  0  0  0
    4.8498    1.2797   19.1056 C   0  0  0  0  0  0  0  0  0  0  0  0
    3.9013    1.7881   19.2543 H   0  0  0  0  0  0  0  0  0  0  0  0
  1  2  1  0
  2  3  2  0
  3  4  1  0
  4  5  1  0
  4  6  2  0
  6  7  1  0
  7  8  1  0
  8  9  1  0
  8 10  1  0
  8 11  1  0
 11 12  1  1
 11 13  1  0
 13 14  1  1
 13 15  1  0
 15 16  1  0
 15 17  1  0
 13 18  1  0
 18 19  1  1
 18 20  1  0
 20 21  1  0
 20 22  1  0
 20 23  1  0
 23 24  1  0
 23 25  1  0
 23 26  1  0
 26 27  1  0
 26 28  1  0
 26 29  1  0
 29 30  1  0
 29 31  1  0
 29 32  1  0
 32 33  1  0
 32 34  1  0
 32 35  1  0
 35 36  1  0
 35 37  1  0
 35 38  1  0
  6 39  1  0
 39 40  1  0
 39 41  2  0
 41 42  1  0
 41  2  1  0
 15  7  1  0
 18 11  1  0
M  END
>  <cnnaffinity>  (1) 
-5.55818

>  <filename>  (1) 
CCCCCC[C@H]1[C@H]2CN(c3cccnc3)C[C@@H]12

$$$$
