
     RDKit          3D

 32 34  0  0  0  0  0  0  0  0999 V2000
    4.9575    1.8187   16.9624 H   0  0  0  0  0  0  0  0  0  0  0  0
    5.4012    1.2966   17.8110 C   0  0  0  0  0  0  0  0  0  0  0  0
    6.5514    0.6468   17.5718 N   0  0  0  0  0  0  0  0  0  0  0  0
    7.1452    0.0277   18.5970 C   0  0  0  0  0  0  0  0  0  0  0  0
    8.0780   -0.4870   18.3747 H   0  0  0  0  0  0  0  0  0  0  0  0
    6.6428    0.0306   19.9100 C   0  0  0  0  0  0  0  0  0  0  0  0
    7.4123   -0.6150   20.9749 C   0  0  0  0  0  0  0  0  0  0  0  0
    8.0166   -1.8368   20.7756 N   0  0  0  0  0  0  0  0  0  0  0  0
    8.5168   -2.1160   21.9455 C   0  0  0  0  0  0  0  0  0  0  0  0
    8.3777   -1.1337   22.8662 N   0  0  0  0  0  0  0  0  0  0  0  0
    7.6502   -0.1370   22.2582 C   0  0  0  0  0  0  0  0  0  0  0  0
    7.4842    1.2401   22.8049 C   0  0  0  0  0  0  0  0  0  0  0  0
    7.7491    1.2444   23.8711 H   0  0  0  0  0  0  0  0  0  0  0  0
    6.4267    1.5318   22.7541 H   0  0  0  0  0  0  0  0  0  0  0  0
    8.3349    2.2613   22.0174 C   0  0  0  0  0  0  0  0  0  0  0  0
    8.0306    2.2072   20.9620 H   0  0  0  0  0  0  0  0  0  0  0  0
    8.0827    3.2703   22.3616 H   0  0  0  0  0  0  0  0  0  0  0  0
    9.8424    2.0170   22.1504 C   0  0  0  0  0  0  0  0  0  0  0  0
   10.4269    2.7835   21.6308 H   0  0  0  0  0  0  0  0  0  0  0  0
   10.1544    2.0260   23.2037 H   0  0  0  0  0  0  0  0  0  0  0  0
   10.1284    1.0460   21.7267 H   0  0  0  0  0  0  0  0  0  0  0  0
    9.1921   -1.1826   24.0656 C   0  0  0  0  0  0  0  0  0  0  0  0
    9.9520   -0.3959   24.0198 H   0  0  0  0  0  0  0  0  0  0  0  0
    8.5787   -0.9806   24.9483 H   0  0  0  0  0  0  0  0  0  0  0  0
    9.8252   -2.5996   24.0997 C   0  0  0  0  0  0  0  0  0  0  0  0
    9.5210   -3.1574   24.9834 H   0  0  0  0  0  0  0  0  0  0  0  0
   10.9143   -2.5542   24.0958 H   0  0  0  0  0  0  0  0  0  0  0  0
    9.2733   -3.5345   22.6160 S   0  0  0  0  0  0  0  0  0  0  0  0
    5.4173    0.6862   20.1308 C   0  0  0  0  0  0  0  0  0  0  0  0
    4.9581    0.6858   21.1192 H   0  0  0  0  0  0  0  0  0  0  0  0
    4.7823    1.3286   19.0674 C   0  0  0  0  0  0  0  0  0  0  0  0
    3.8422    1.8625   19.1980 H   0  0  0  0  0  0  0  0  0  0  0  0
  1  2  1  0
  2  3  2  0
  3  4  1  0
  4  5  1  0
  4  6  2  0
  6  7  1  0
  7  8  1  0
  8  9  2  0
  9 10  1  0
 10 11  1  0
 11 12  1  0
 12 13  1  0
 12 14  1  0
 12 15  1  0
 15 16  1  0
 15 17  1  0
 15 18  1  0
 18 19  1  0
 18 20  1  0
 18 21  1  0
 10 22  1  0
 22 23  1  0
 22 24  1  0
 22 25  1  0
 25 26  1  0
 25 27  1  0
 25 28  1  0
  6 29  1  0
 29 30  1  0
 29 31  2  0
 31 32  1  0
 31  2  1  0
 11  7  2  0
 28  9  1  0
M  END
>  <cnnaffinity>  (1) 
-5.18975

>  <filename>  (1) 
CCCc1c(-c2cccnc2)nc2n1CCS2

$$$$
