
     RDKit          3D

 37 38  0  0  0  0  0  0  0  0999 V2000
    6.7612   -2.5069   23.6144 H   0  0  0  0  0  0  0  0  0  0  0  0
    7.3297   -1.9895   22.8455 C   0  0  0  0  0  0  0  0  0  0  0  0
    6.6313   -1.3384   21.9211 N   0  0  0  0  0  0  0  0  0  0  0  0
    7.3398   -0.7232   20.9715 C   0  0  0  0  0  0  0  0  0  0  0  0
    6.6054   -0.0223   19.8998 C   0  0  0  0  0  0  0  0  0  0  0  0
    7.1506   -0.0288   18.6086 C   0  0  0  0  0  0  0  0  0  0  0  0
    8.0623   -0.5862   18.3904 H   0  0  0  0  0  0  0  0  0  0  0  0
    6.6218    0.6059   17.5596 N   0  0  0  0  0  0  0  0  0  0  0  0
    5.4904    1.2932   17.7736 C   0  0  0  0  0  0  0  0  0  0  0  0
    5.0864    1.8112   16.9079 H   0  0  0  0  0  0  0  0  0  0  0  0
    4.8385    1.3407   19.0102 C   0  0  0  0  0  0  0  0  0  0  0  0
    3.9184    1.9097   19.1042 H   0  0  0  0  0  0  0  0  0  0  0  0
    5.3940    0.6647   20.0962 C   0  0  0  0  0  0  0  0  0  0  0  0
    4.9040    0.6709   21.0738 H   0  0  0  0  0  0  0  0  0  0  0  0
    8.7362   -0.7385   20.9800 C   0  0  0  0  0  0  0  0  0  0  0  0
    9.3048   -0.1892   20.2510 H   0  0  0  0  0  0  0  0  0  0  0  0
    9.3690   -1.4219   22.0101 C   0  0  0  0  0  0  0  0  0  0  0  0
   10.8708   -1.3920   22.1608 C   0  0  0  0  0  0  0  0  0  0  0  0
   11.3372   -1.6313   21.1946 H   0  0  0  0  0  0  0  0  0  0  0  0
   11.1521   -2.1961   22.8514 H   0  0  0  0  0  0  0  0  0  0  0  0
   11.4029   -0.0295   22.6794 C   0  0  0  0  0  0  0  0  0  0  0  0
   12.4703   -0.1458   22.9189 H   0  0  0  0  0  0  0  0  0  0  0  0
   11.3430    0.7204   21.8757 H   0  0  0  0  0  0  0  0  0  0  0  0
   10.6523    0.4886   23.9195 C   0  0  0  0  0  0  0  0  0  0  0  0
   11.0862    1.4516   24.2282 H   0  0  0  0  0  0  0  0  0  0  0  0
    9.6055    0.6996   23.6440 H   0  0  0  0  0  0  0  0  0  0  0  0
   10.7330   -0.4899   25.0990 C   0  0  0  0  0  0  0  0  0  0  0  0
   10.2847   -1.4540   24.8174 H   0  0  0  0  0  0  0  0  0  0  0  0
   11.7986   -0.6706   25.3038 H   0  0  0  0  0  0  0  0  0  0  0  0
   10.1075    0.0189   26.3976 C   0  0  0  0  0  0  0  0  0  0  0  0
   10.4892   -0.5972   27.2255 H   0  0  0  0  0  0  0  0  0  0  0  0
   10.4806    1.0385   26.5602 H   0  0  0  0  0  0  0  0  0  0  0  0
    8.5791    0.0491   26.4336 C   0  0  0  0  0  0  0  0  0  0  0  0
    8.2430    0.3352   27.4371 H   0  0  0  0  0  0  0  0  0  0  0  0
    8.1884    0.7878   25.7200 H   0  0  0  0  0  0  0  0  0  0  0  0
    8.1412   -0.9291   26.1897 H   0  0  0  0  0  0  0  0  0  0  0  0
    8.6573   -2.0739   22.9437 N   0  0  0  0  0  0  0  0  0  0  0  0
  1  2  1  0
  2  3  2  0
  3  4  1  0
  4  5  1  0
  5  6  2  0
  6  7  1  0
  6  8  1  0
  8  9  2  0
  9 10  1  0
  9 11  1  0
 11 12  1  0
 11 13  2  0
 13 14  1  0
  4 15  2  0
 15 16  1  0
 15 17  1  0
 17 18  1  0
 18 19  1  0
 18 20  1  0
 18 21  1  0
 21 22  1  0
 21 23  1  0
 21 24  1  0
 24 25  1  0
 24 26  1  0
 24 27  1  0
 27 28  1  0
 27 29  1  0
 27 30  1  0
 30 31  1  0
 30 32  1  0
 30 33  1  0
 33 34  1  0
 33 35  1  0
 33 36  1  0
 17 37  2  0
 37  2  1  0
 13  5  1  0
M  END
>  <cnnaffinity>  (1) 
-5.52751

>  <filename>  (1) 
CCCCCCc1cc(-c2cccnc2)ncn1

$$$$
