
     RDKit          3D

 39 41  0  0  0  0  0  0  0  0999 V2000
    4.9433    1.8325   16.9681 H   0  0  0  0  0  0  0  0  0  0  0  0
    5.4010    1.2993   17.7990 C   0  0  0  0  0  0  0  0  0  0  0  0
    6.5561    0.6684   17.5388 N   0  0  0  0  0  0  0  0  0  0  0  0
    7.1499    0.0211   18.5502 C   0  0  0  0  0  0  0  0  0  0  0  0
    8.0957   -0.4675   18.3194 H   0  0  0  0  0  0  0  0  0  0  0  0
    6.6237   -0.0256   19.8545 C   0  0  0  0  0  0  0  0  0  0  0  0
    7.3453   -0.6958   20.9471 C   0  0  0  0  0  0  0  0  0  0  0  0
    8.0902   -1.7856   20.7474 N   0  0  0  0  0  0  0  0  0  0  0  0
    8.5542   -2.0670   21.9648 N   0  0  0  0  0  0  0  0  0  0  0  0
    8.2097   -1.2136   22.9351 C   0  0  0  0  0  0  0  0  0  0  0  0
    7.4117   -0.2692   22.3263 C   0  0  0  0  0  0  0  0  0  0  0  0
    6.8895    0.8863   22.9376 N   0  0  0  0  0  0  0  0  0  0  0  0
    7.0443    0.7852   23.9388 H   0  0  0  0  0  0  0  0  0  0  0  0
    7.4030    2.1698   22.4459 C   0  0  0  0  0  0  0  0  0  0  0  0
    7.3152    2.1727   21.3545 H   0  0  0  0  0  0  0  0  0  0  0  0
    6.7144    2.9532   22.7864 H   0  0  0  0  0  0  0  0  0  0  0  0
    8.8397    2.5392   22.8457 C   0  0  0  0  0  0  0  0  0  0  0  0
    8.9709    2.3640   23.9226 H   0  0  0  0  0  0  0  0  0  0  0  0
    8.9317    3.6228   22.6983 H   0  0  0  0  0  0  0  0  0  0  0  0
    9.9702    1.8489   22.0689 C   0  0  0  0  0  0  0  0  0  0  0  0
    9.9057    0.7564   22.1755 H   0  0  0  0  0  0  0  0  0  0  0  0
    9.8406    2.0604   21.0006 H   0  0  0  0  0  0  0  0  0  0  0  0
   11.3618    2.3161   22.4932 C   0  0  0  0  0  0  0  0  0  0  0  0
   11.5571    2.1026   23.5497 H   0  0  0  0  0  0  0  0  0  0  0  0
   11.4840    3.3952   22.3466 H   0  0  0  0  0  0  0  0  0  0  0  0
   12.1473    1.8211   21.9127 H   0  0  0  0  0  0  0  0  0  0  0  0
    9.0028   -1.4884   24.1761 C   0  0  0  0  0  0  0  0  0  0  0  0
    8.3500   -1.7376   25.0119 H   0  0  0  0  0  0  0  0  0  0  0  0
    9.5761   -0.6054   24.4889 H   0  0  0  0  0  0  0  0  0  0  0  0
    9.9072   -2.6876   23.7649 C   0  0  0  0  0  0  0  0  0  0  0  0
    9.7457   -3.5546   24.4041 H   0  0  0  0  0  0  0  0  0  0  0  0
   10.9544   -2.4164   23.8363 H   0  0  0  0  0  0  0  0  0  0  0  0
    9.5636   -3.0303   22.2948 C   0  0  0  0  0  0  0  0  0  0  0  0
    9.1578   -4.0351   22.1596 H   0  0  0  0  0  0  0  0  0  0  0  0
   10.4131   -2.8864   21.6233 H   0  0  0  0  0  0  0  0  0  0  0  0
    5.4145    0.6382   20.1062 C   0  0  0  0  0  0  0  0  0  0  0  0
    5.0183    0.6595   21.1227 H   0  0  0  0  0  0  0  0  0  0  0  0
    4.7855    1.3057   19.0563 C   0  0  0  0  0  0  0  0  0  0  0  0
    3.8620    1.8498   19.2108 H   0  0  0  0  0  0  0  0  0  0  0  0
  1  2  1  0
  2  3  2  0
  3  4  1  0
  4  5  1  0
  4  6  2  0
  6  7  1  0
  7  8  2  0
  8  9  1  0
  9 10  1  0
 10 11  2  0
 11 12  1  0
 12 13  1  0
 12 14  1  0
 14 15  1  0
 14 16  1  0
 14 17  1  0
 17 18  1  0
 17 19  1  0
 17 20  1  0
 20 21  1  0
 20 22  1  0
 20 23  1  0
 23 24  1  0
 23 25  1  0
 23 26  1  0
 10 27  1  0
 27 28  1  0
 27 29  1  0
 27 30  1  0
 30 31  1  0
 30 32  1  0
 30 33  1  0
 33 34  1  0
 33 35  1  0
  6 36  1  0
 36 37  1  0
 36 38  2  0
 38 39  1  0
 38  2  1  0
 11  7  1  0
 33  9  1  0
M  END
>  <cnnaffinity>  (1) 
-5.57864

>  <filename>  (1) 
CCCCNc1c(-c2cccnc2)nn2c1CCC2

$$$$
