
     RDKit          3D

 32 34  0  0  0  0  0  0  0  0999 V2000
    4.9720    1.8255   16.9731 H   0  0  0  0  0  0  0  0  0  0  0  0
    5.4215    1.2997   17.8128 C   0  0  0  0  0  0  0  0  0  0  0  0
    6.5656    0.6431   17.5674 N   0  0  0  0  0  0  0  0  0  0  0  0
    7.1448    0.0006   18.5853 C   0  0  0  0  0  0  0  0  0  0  0  0
    8.0731   -0.5219   18.3587 H   0  0  0  0  0  0  0  0  0  0  0  0
    6.6387    0.0063   19.8962 C   0  0  0  0  0  0  0  0  0  0  0  0
    7.3603   -0.6981   20.9547 C   0  0  0  0  0  0  0  0  0  0  0  0
    7.7972   -2.0018   20.7932 N   0  0  0  0  0  0  0  0  0  0  0  0
    8.2538   -2.3219   21.9735 C   0  0  0  0  0  0  0  0  0  0  0  0
    8.9166   -3.7625   22.7031 S   0  0  0  0  0  0  0  0  0  0  0  0
    9.2297   -2.8844   24.1902 C   0  0  0  0  0  0  0  0  0  0  0  0
    9.7565   -3.3724   25.0012 H   0  0  0  0  0  0  0  0  0  0  0  0
    8.7900   -1.6176   24.1442 C   0  0  0  0  0  0  0  0  0  0  0  0
    8.8471   -0.8740   24.9326 H   0  0  0  0  0  0  0  0  0  0  0  0
    8.2115   -1.3094   22.9047 N   0  0  0  0  0  0  0  0  0  0  0  0
    7.6452   -0.2297   22.2462 C   0  0  0  0  0  0  0  0  0  0  0  0
    7.4762    0.9791   22.8493 N   0  0  0  0  0  0  0  0  0  0  0  0
    7.5768    1.0024   23.8529 H   0  0  0  0  0  0  0  0  0  0  0  0
    7.5677    2.2228   22.1101 C   0  0  0  0  0  0  0  0  0  0  0  0
    8.3175    2.1333   21.3061 H   0  0  0  0  0  0  0  0  0  0  0  0
    6.6126    2.4321   21.6095 H   0  0  0  0  0  0  0  0  0  0  0  0
    7.9668    3.3610   23.0338 C   0  0  0  0  0  0  0  0  0  0  0  0
    8.9608    3.1302   23.4470 H   0  0  0  0  0  0  0  0  0  0  0  0
    7.2609    3.3879   23.8799 H   0  0  0  0  0  0  0  0  0  0  0  0
    7.9711    4.6890   22.2700 C   0  0  0  0  0  0  0  0  0  0  0  0
    6.9428    5.0368   22.1038 H   0  0  0  0  0  0  0  0  0  0  0  0
    8.5392    5.4625   22.7917 H   0  0  0  0  0  0  0  0  0  0  0  0
    8.4179    4.5658   21.2790 H   0  0  0  0  0  0  0  0  0  0  0  0
    5.4244    0.6762   20.1317 C   0  0  0  0  0  0  0  0  0  0  0  0
    4.9942    0.6953   21.1357 H   0  0  0  0  0  0  0  0  0  0  0  0
    4.8054    1.3281   19.0668 C   0  0  0  0  0  0  0  0  0  0  0  0
    3.8724    1.8591   19.2008 H   0  0  0  0  0  0  0  0  0  0  0  0
  1  2  1  0
  2  3  2  0
  3  4  1  0
  4  5  1  0
  4  6  2  0
  6  7  1  0
  7  8  1  0
  8  9  2  0
  9 10  1  0
 10 11  1  0
 11 12  1  0
 11 13  2  0
 13 14  1  0
 13 15  1  0
 15 16  1  0
 16 17  1  0
 17 18  1  0
 17 19  1  0
 19 20  1  0
 19 21  1  0
 19 22  1  0
 22 23  1  0
 22 24  1  0
 22 25  1  0
 25 26  1  0
 25 27  1  0
 25 28  1  0
  6 29  1  0
 29 30  1  0
 29 31  2  0
 31 32  1  0
 31  2  1  0
 16  7  2  0
 15  9  1  0
M  END
>  <cnnaffinity>  (1) 
-5.28225

>  <filename>  (1) 
CCCNc1c(-c2cccnc2)nc2sccn12

$$$$
