
     RDKit          3D

 41 42  0  0  0  0  0  0  0  0999 V2000
    4.9410    2.0241   16.7484 H   0  0  0  0  0  0  0  0  0  0  0  0
    5.3114    1.3539   17.5219 C   0  0  0  0  0  0  0  0  0  0  0  0
    6.4309    0.6741   17.2264 N   0  0  0  0  0  0  0  0  0  0  0  0
    6.9448   -0.1164   18.1743 C   0  0  0  0  0  0  0  0  0  0  0  0
    7.8543   -0.6575   17.9165 H   0  0  0  0  0  0  0  0  0  0  0  0
    6.3759   -0.2756   19.4542 C   0  0  0  0  0  0  0  0  0  0  0  0
    7.0850   -0.9922   20.4964 N   0  0  0  0  0  0  0  0  0  0  0  0
    8.3295   -0.5005   20.9021 C   0  0  0  0  0  0  0  0  0  0  0  0
    8.7161    0.3100   20.2842 H   0  0  0  0  0  0  0  0  0  0  0  0
    8.9908   -0.9725   21.9796 C   0  0  0  0  0  0  0  0  0  0  0  0
   10.2904   -0.3680   22.4770 C   0  0  0  0  0  0  0  0  0  0  0  0
   10.7619   -1.1437   23.0867 H   0  0  0  0  0  0  0  0  0  0  0  0
   10.9704   -0.1349   21.6428 H   0  0  0  0  0  0  0  0  0  0  0  0
   10.1141    0.9454   23.2933 C   0  0  0  0  0  0  0  0  0  0  0  0
    9.8424    0.6846   24.3340 H   0  0  0  0  0  0  0  0  0  0  0  0
    9.2764    1.5310   22.8790 H   0  0  0  0  0  0  0  0  0  0  0  0
   11.3203    1.7867   23.3507 N   0  0  0  0  0  0  0  0  0  0  0  0
   11.3042    3.0134   22.5643 C   0  0  0  0  0  0  0  0  0  0  0  0
   12.0978    3.6653   22.9587 H   0  0  0  0  0  0  0  0  0  0  0  0
   10.3595    3.5490   22.7513 H   0  0  0  0  0  0  0  0  0  0  0  0
   11.5139    2.7941   21.0587 C   0  0  0  0  0  0  0  0  0  0  0  0
   11.8868    3.6952   20.5470 H   0  0  0  0  0  0  0  0  0  0  0  0
   12.2485    1.9956   20.9154 H   0  0  0  0  0  0  0  0  0  0  0  0
   10.5792    2.5016   20.5566 H   0  0  0  0  0  0  0  0  0  0  0  0
   13.4408    0.5888   24.0794 C   0  0  0  0  0  0  0  0  0  0  0  0
   13.1310   -0.4729   23.5342 H   0  0  0  0  0  0  0  0  0  0  0  0
   12.6018    1.1461   23.2522 H   0  0  0  0  0  0  0  0  0  0  0  0
   13.6341    0.5996   23.8391 C   0  0  0  0  0  0  0  0  0  0  0  0
   12.5071    0.4450   25.4799 H   0  0  0  0  0  0  0  0  0  0  0  0
   14.9312    0.5356   22.6983 H   0  0  0  0  0  0  0  0  0  0  0  0
   13.9503    1.7062   24.3069 H   0  0  0  0  0  0  0  0  0  0  0  0
    8.3770   -2.0912   22.7355 C   0  0  0  0  0  0  0  0  0  0  0  0
    8.8366   -2.6736   23.6961 O   0  0  0  0  0  0  0  0  0  0  0  0
    7.1499   -2.4962   22.2769 N   0  0  0  0  0  0  0  0  0  0  0  0
    6.7442   -3.2829   22.7446 H   0  0  0  0  0  0  0  0  0  0  0  0
    6.4928   -2.0921   21.1608 C   0  0  0  0  0  0  0  0  0  0  0  0
    5.4974   -2.6810   20.8079 O   0  0  0  0  0  0  0  0  0  0  0  0
    5.1660    0.3766   19.7247 C   0  0  0  0  0  0  0  0  0  0  0  0
    4.6676    0.2369   20.6848 H   0  0  0  0  0  0  0  0  0  0  0  0
    4.6381    1.2243   18.7416 C   0  0  0  0  0  0  0  0  0  0  0  0
    3.7343    1.7992   18.9137 H   0  0  0  0  0  0  0  0  0  0  0  0
  1  2  1  0
  2  3  2  0
  3  4  1  0
  4  5  1  0
  4  6  2  0
  6  7  1  0
  7  8  1  0
  8  9  1  0
  8 10  2  0
 10 11  1  0
 11 12  1  0
 11 13  1  0
 11 14  1  0
 14 15  1  0
 14 16  1  0
 14 17  1  0
 17 18  1  0
 18 19  1  0
 18 20  1  0
 18 21  1  0
 21 22  1  0
 21 23  1  0
 21 24  1  0
 17 25  1  0
 25 26  1  0
 25 27  1  0
 25 28  1  0
 28 29  1  0
 28 30  1  0
 28 31  1  0
 10 32  1  0
 32 33  2  0
 32 34  1  0
 34 35  1  0
 34 36  1  0
 36 37  2  0
  6 38  1  0
 38 39  1  0
 38 40  2  0
 40 41  1  0
 40  2  1  0
 36  7  1  0
M  END
>  <cnnaffinity>  (1) 
-5.00177

>  <filename>  (1) 
CCN(CC)CCc1cn(-c2cccnc2)c(=O)[nH]c1=O

$$$$
