
     RDKit          3D

 33 34  0  0  0  0  0  0  0  0999 V2000
    4.9551    1.9236   16.9355 H   0  0  0  0  0  0  0  0  0  0  0  0
    5.4273    1.3591   17.7384 C   0  0  0  0  0  0  0  0  0  0  0  0
    6.5773    0.7380   17.4301 N   0  0  0  0  0  0  0  0  0  0  0  0
    7.2023    0.0512   18.3968 C   0  0  0  0  0  0  0  0  0  0  0  0
    8.1408   -0.4274   18.1184 H   0  0  0  0  0  0  0  0  0  0  0  0
    6.6898   -0.0785   19.7050 C   0  0  0  0  0  0  0  0  0  0  0  0
    7.3695   -0.8124   20.7146 N   0  0  0  0  0  0  0  0  0  0  0  0
    8.6745   -0.5478   21.1508 C   0  0  0  0  0  0  0  0  0  0  0  0
    9.3306    0.1433   20.6528 H   0  0  0  0  0  0  0  0  0  0  0  0
    8.8896   -1.2812   22.2628 C   0  0  0  0  0  0  0  0  0  0  0  0
    9.9998   -1.3912   23.0418 N   0  0  0  0  0  0  0  0  0  0  0  0
    9.9894   -2.2486   24.2152 C   0  0  0  0  0  0  0  0  0  0  0  0
    9.0415   -2.1139   24.7528 H   0  0  0  0  0  0  0  0  0  0  0  0
   10.7710   -1.8833   24.8876 H   0  0  0  0  0  0  0  0  0  0  0  0
   10.2450   -3.7078   23.8357 C   0  0  0  0  0  0  0  0  0  0  0  0
   11.2552   -3.8010   23.4146 H   0  0  0  0  0  0  0  0  0  0  0  0
    9.5390   -4.0562   23.0714 H   0  0  0  0  0  0  0  0  0  0  0  0
   10.1578   -4.3809   24.6931 H   0  0  0  0  0  0  0  0  0  0  0  0
   11.2843   -1.0348   22.4442 C   0  0  0  0  0  0  0  0  0  0  0  0
   12.0696   -1.6962   22.8185 H   0  0  0  0  0  0  0  0  0  0  0  0
   11.2531   -1.2419   21.3666 H   0  0  0  0  0  0  0  0  0  0  0  0
   11.7011    0.4074   22.7069 C   0  0  0  0  0  0  0  0  0  0  0  0
   10.9404    1.1227   22.3833 H   0  0  0  0  0  0  0  0  0  0  0  0
   11.8725    0.5834   23.7735 H   0  0  0  0  0  0  0  0  0  0  0  0
   12.6322    0.6295   22.1751 H   0  0  0  0  0  0  0  0  0  0  0  0
    7.7171   -1.9628   22.5443 N   0  0  0  0  0  0  0  0  0  0  0  0
    7.6164   -2.7615   23.1357 H   0  0  0  0  0  0  0  0  0  0  0  0
    6.7777   -1.7543   21.5682 C   0  0  0  0  0  0  0  0  0  0  0  0
    5.7100   -2.3278   21.4818 O   0  0  0  0  0  0  0  0  0  0  0  0
    5.4772    0.5524   20.0055 C   0  0  0  0  0  0  0  0  0  0  0  0
    5.0661    0.4543   21.0095 H   0  0  0  0  0  0  0  0  0  0  0  0
    4.8394    1.2944   19.0076 C   0  0  0  0  0  0  0  0  0  0  0  0
    3.9135    1.8250   19.2057 H   0  0  0  0  0  0  0  0  0  0  0  0
  1  2  1  0
  2  3  2  0
  3  4  1  0
  4  5  1  0
  4  6  2  0
  6  7  1  0
  7  8  1  0
  8  9  1  0
  8 10  2  0
 10 11  1  0
 11 12  1  0
 12 13  1  0
 12 14  1  0
 12 15  1  0
 15 16  1  0
 15 17  1  0
 15 18  1  0
 11 19  1  0
 19 20  1  0
 19 21  1  0
 19 22  1  0
 22 23  1  0
 22 24  1  0
 22 25  1  0
 10 26  1  0
 26 27  1  0
 26 28  1  0
 28 29  2  0
  6 30  1  0
 30 31  1  0
 30 32  2  0
 32 33  1  0
 32  2  1  0
 28  7  1  0
M  END
>  <cnnaffinity>  (1) 
-4.74208

>  <filename>  (1) 
CCN(CC)c1cn(-c2cccnc2)c(=O)[nH]1

$$$$
