
     RDKit          3D

 37 39  0  0  0  0  0  0  0  0999 V2000
    4.9701    1.8426   16.9387 H   0  0  0  0  0  0  0  0  0  0  0  0
    5.4009    1.2969   17.7765 C   0  0  0  0  0  0  0  0  0  0  0  0
    6.5455    0.6360   17.5393 N   0  0  0  0  0  0  0  0  0  0  0  0
    7.1333    0.0043   18.5595 C   0  0  0  0  0  0  0  0  0  0  0  0
    8.0649   -0.5110   18.3336 H   0  0  0  0  0  0  0  0  0  0  0  0
    6.6291    0.0097   19.8717 C   0  0  0  0  0  0  0  0  0  0  0  0
    7.3913   -0.6267   20.9469 C   0  0  0  0  0  0  0  0  0  0  0  0
    8.1755   -1.7445   20.7554 N   0  0  0  0  0  0  0  0  0  0  0  0
    8.6024   -2.0271   21.9519 C   0  0  0  0  0  0  0  0  0  0  0  0
    8.1954   -1.1770   22.9210 N   0  0  0  0  0  0  0  0  0  0  0  0
    7.4265   -0.2321   22.2958 C   0  0  0  0  0  0  0  0  0  0  0  0
    7.0097    0.8950   22.9610 N   0  0  0  0  0  0  0  0  0  0  0  0
    7.5412    2.1665   22.4829 C   0  0  0  0  0  0  0  0  0  0  0  0
    7.4122    2.2007   21.3940 H   0  0  0  0  0  0  0  0  0  0  0  0
    6.9602    2.9966   22.9008 H   0  0  0  0  0  0  0  0  0  0  0  0
    9.0280    2.2807   22.8042 C   0  0  0  0  0  0  0  0  0  0  0  0
    9.5579    1.4464   22.3338 H   0  0  0  0  0  0  0  0  0  0  0  0
    9.4671    3.2128   22.4376 H   0  0  0  0  0  0  0  0  0  0  0  0
    9.2048    2.2148   23.8824 H   0  0  0  0  0  0  0  0  0  0  0  0
    6.0435    0.8165   24.0479 C   0  0  0  0  0  0  0  0  0  0  0  0
    5.1483    1.4033   23.7776 H   0  0  0  0  0  0  0  0  0  0  0  0
    5.7249   -0.2250   24.1352 H   0  0  0  0  0  0  0  0  0  0  0  0
    6.5817    1.3015   25.3883 C   0  0  0  0  0  0  0  0  0  0  0  0
    6.9330    2.3351   25.3198 H   0  0  0  0  0  0  0  0  0  0  0  0
    7.4144    0.6796   25.7318 H   0  0  0  0  0  0  0  0  0  0  0  0
    5.7949    1.2623   26.1489 H   0  0  0  0  0  0  0  0  0  0  0  0
    8.8115   -1.2551   24.2351 C   0  0  0  0  0  0  0  0  0  0  0  0
    8.0986   -1.6645   24.9533 H   0  0  0  0  0  0  0  0  0  0  0  0
    9.1286   -0.2736   24.5970 H   0  0  0  0  0  0  0  0  0  0  0  0
   10.0319   -2.1651   24.0252 C   0  0  0  0  0  0  0  0  0  0  0  0
   10.2805   -2.7859   24.8867 H   0  0  0  0  0  0  0  0  0  0  0  0
   10.9009   -1.5708   23.7287 H   0  0  0  0  0  0  0  0  0  0  0  0
    9.6105   -3.2784   22.6419 S   0  0  0  0  0  0  0  0  0  0  0  0
    5.4045    0.6679   20.0913 C   0  0  0  0  0  0  0  0  0  0  0  0
    4.9560    0.6787   21.0854 H   0  0  0  0  0  0  0  0  0  0  0  0
    4.7788    1.3173   19.0296 C   0  0  0  0  0  0  0  0  0  0  0  0
    3.8519    1.8641   19.1657 H   0  0  0  0  0  0  0  0  0  0  0  0
  1  2  1  0
  2  3  2  0
  3  4  1  0
  4  5  1  0
  4  6  2  0
  6  7  1  0
  7  8  1  0
  8  9  2  0
  9 10  1  0
 10 11  1  0
 11 12  1  0
 12 13  1  0
 13 14  1  0
 13 15  1  0
 13 16  1  0
 16 17  1  0
 16 18  1  0
 16 19  1  0
 12 20  1  0
 20 21  1  0
 20 22  1  0
 20 23  1  0
 23 24  1  0
 23 25  1  0
 23 26  1  0
 10 27  1  0
 27 28  1  0
 27 29  1  0
 27 30  1  0
 30 31  1  0
 30 32  1  0
 30 33  1  0
  6 34  1  0
 34 35  1  0
 34 36  2  0
 36 37  1  0
 36  2  1  0
 11  7  2  0
 33  9  1  0
M  END
>  <cnnaffinity>  (1) 
-5.17259

>  <filename>  (1) 
CCN(CC)c1c(-c2cccnc2)nc2n1CCS2

$$$$
