
     RDKit          3D

 36 37  0  0  0  0  0  0  0  0999 V2000
    4.9246    1.7748   17.0017 H   0  0  0  0  0  0  0  0  0  0  0  0
    5.4080    1.2872   17.8452 C   0  0  0  0  0  0  0  0  0  0  0  0
    6.5707    0.6704   17.5895 N   0  0  0  0  0  0  0  0  0  0  0  0
    7.1794    0.0564   18.6060 C   0  0  0  0  0  0  0  0  0  0  0  0
    8.1224   -0.4269   18.3727 H   0  0  0  0  0  0  0  0  0  0  0  0
    6.6580    0.0090   19.9085 C   0  0  0  0  0  0  0  0  0  0  0  0
    7.4008   -0.7076   20.9455 C   0  0  0  0  0  0  0  0  0  0  0  0
    8.5341   -1.3263   20.7433 N   0  0  0  0  0  0  0  0  0  0  0  0
    8.8399   -1.8492   21.9927 O   0  0  0  0  0  0  0  0  0  0  0  0
    7.8511   -1.5038   22.8159 C   0  0  0  0  0  0  0  0  0  0  0  0
    7.8757   -1.9208   24.2430 C   0  0  0  0  0  0  0  0  0  0  0  0
    7.6818   -1.0326   24.8470 H   0  0  0  0  0  0  0  0  0  0  0  0
    8.8627   -2.2997   24.5057 H   0  0  0  0  0  0  0  0  0  0  0  0
    6.8062   -2.9724   24.5588 C   0  0  0  0  0  0  0  0  0  0  0  0
    5.8122   -2.5532   24.3603 H   0  0  0  0  0  0  0  0  0  0  0  0
    6.8084   -3.1888   25.6359 H   0  0  0  0  0  0  0  0  0  0  0  0
    6.9265   -4.2224   23.8217 N   0  0  0  0  0  0  0  0  0  0  0  0
    6.4168   -4.2173   22.4519 C   0  0  0  0  0  0  0  0  0  0  0  0
    7.2361   -4.1150   21.7276 H   0  0  0  0  0  0  0  0  0  0  0  0
    5.7750   -3.3423   22.3045 H   0  0  0  0  0  0  0  0  0  0  0  0
    5.6176   -5.4706   22.1251 C   0  0  0  0  0  0  0  0  0  0  0  0
    4.7831   -5.5846   22.8203 H   0  0  0  0  0  0  0  0  0  0  0  0
    6.2356   -6.3721   22.1877 H   0  0  0  0  0  0  0  0  0  0  0  0
    5.2138   -5.4121   21.1085 H   0  0  0  0  0  0  0  0  0  0  0  0
    8.2105   -4.9085   23.9511 C   0  0  0  0  0  0  0  0  0  0  0  0
    8.1780   -5.8324   23.3624 H   0  0  0  0  0  0  0  0  0  0  0  0
    9.0294   -4.3142   23.5107 H   0  0  0  0  0  0  0  0  0  0  0  0
    8.5589   -5.2893   25.3821 C   0  0  0  0  0  0  0  0  0  0  0  0
    9.4451   -5.9319   25.4090 H   0  0  0  0  0  0  0  0  0  0  0  0
    7.7349   -5.8349   25.8494 H   0  0  0  0  0  0  0  0  0  0  0  0
    8.7784   -4.4130   25.9976 H   0  0  0  0  0  0  0  0  0  0  0  0
    6.9293   -0.7976   22.2368 N   0  0  0  0  0  0  0  0  0  0  0  0
    5.4356    0.6519   20.1684 C   0  0  0  0  0  0  0  0  0  0  0  0
    4.9989    0.6364   21.1709 H   0  0  0  0  0  0  0  0  0  0  0  0
    4.8087    1.3060   19.1122 C   0  0  0  0  0  0  0  0  0  0  0  0
    3.8751    1.8423   19.2592 H   0  0  0  0  0  0  0  0  0  0  0  0
  1  2  1  0
  2  3  2  0
  3  4  1  0
  4  5  1  0
  4  6  2  0
  6  7  1  0
  7  8  2  0
  8  9  1  0
  9 10  1  0
 10 11  1  0
 11 12  1  0
 11 13  1  0
 11 14  1  0
 14 15  1  0
 14 16  1  0
 14 17  1  0
 17 18  1  0
 18 19  1  0
 18 20  1  0
 18 21  1  0
 21 22  1  0
 21 23  1  0
 21 24  1  0
 17 25  1  0
 25 26  1  0
 25 27  1  0
 25 28  1  0
 28 29  1  0
 28 30  1  0
 28 31  1  0
 10 32  2  0
  6 33  1  0
 33 34  1  0
 33 35  2  0
 35 36  1  0
 35  2  1  0
 32  7  1  0
M  END
>  <cnnaffinity>  (1) 
-4.96841

>  <filename>  (1) 
CCN(CC)CCc1nc(-c2cccnc2)no1

$$$$
