
     RDKit          3D

 40 42  0  0  0  0  0  0  0  0999 V2000
    5.0114    1.7811   16.9705 H   0  0  0  0  0  0  0  0  0  0  0  0
    5.4485    1.2760   17.8276 C   0  0  0  0  0  0  0  0  0  0  0  0
    6.6084    0.6343   17.6175 N   0  0  0  0  0  0  0  0  0  0  0  0
    7.1673    0.0242   18.6655 C   0  0  0  0  0  0  0  0  0  0  0  0
    8.1082   -0.4880   18.4845 H   0  0  0  0  0  0  0  0  0  0  0  0
    6.6106    0.0167   19.9519 C   0  0  0  0  0  0  0  0  0  0  0  0
    7.3601   -0.6824   20.9929 C   0  0  0  0  0  0  0  0  0  0  0  0
    8.5606   -1.2917   20.7434 N   0  0  0  0  0  0  0  0  0  0  0  0
    8.8707   -1.7668   21.9354 C   0  0  0  0  0  0  0  0  0  0  0  0
   10.1443   -2.6472   22.7444 S   0  0  0  0  0  0  0  0  0  0  0  0
    9.2735   -2.5312   24.2650 C   0  0  0  0  0  0  0  0  0  0  0  0
    9.7082   -2.9692   25.1545 H   0  0  0  0  0  0  0  0  0  0  0  0
    8.1027   -1.8738   24.1474 C   0  0  0  0  0  0  0  0  0  0  0  0
    7.0998   -1.4318   25.1630 C   0  0  0  0  0  0  0  0  0  0  0  0
    6.0980   -1.7229   24.8403 H   0  0  0  0  0  0  0  0  0  0  0  0
    7.3153   -1.9499   26.1006 H   0  0  0  0  0  0  0  0  0  0  0  0
    7.1476    0.0854   25.4217 C   0  0  0  0  0  0  0  0  0  0  0  0
    6.3395    0.3672   26.1252 H   0  0  0  0  0  0  0  0  0  0  0  0
    6.9314    0.6193   24.4904 H   0  0  0  0  0  0  0  0  0  0  0  0
    8.4656    0.4361   25.9420 N   0  0  0  0  0  0  0  0  0  0  0  0
    9.0327    1.7171   25.5062 C   0  0  0  0  0  0  0  0  0  0  0  0
    8.3329    2.5665   25.6438 H   0  0  0  0  0  0  0  0  0  0  0  0
    9.9031    1.9562   26.1333 H   0  0  0  0  0  0  0  0  0  0  0  0
    9.5084    1.6641   24.0546 C   0  0  0  0  0  0  0  0  0  0  0  0
    8.6967    1.3877   23.3741 H   0  0  0  0  0  0  0  0  0  0  0  0
   10.3154    0.9309   23.9429 H   0  0  0  0  0  0  0  0  0  0  0  0
    9.8899    2.6402   23.7306 H   0  0  0  0  0  0  0  0  0  0  0  0
    8.6218    0.1155   27.3615 C   0  0  0  0  0  0  0  0  0  0  0  0
    7.8704   -0.6310   27.6571 H   0  0  0  0  0  0  0  0  0  0  0  0
    8.4043    0.9863   28.0105 H   0  0  0  0  0  0  0  0  0  0  0  0
   10.0036   -0.4618   27.6433 C   0  0  0  0  0  0  0  0  0  0  0  0
   10.0558   -1.5192   27.3728 H   0  0  0  0  0  0  0  0  0  0  0  0
   10.2342   -0.3638   28.7091 H   0  0  0  0  0  0  0  0  0  0  0  0
   10.7691    0.0495   27.0488 H   0  0  0  0  0  0  0  0  0  0  0  0
    7.9148   -1.4694   22.8277 N   0  0  0  0  0  0  0  0  0  0  0  0
    6.9256   -0.7573   22.2409 N   0  0  0  0  0  0  0  0  0  0  0  0
    5.3877    0.6777   20.1673 C   0  0  0  0  0  0  0  0  0  0  0  0
    4.9189    0.7021   21.1546 H   0  0  0  0  0  0  0  0  0  0  0  0
    4.8051    1.3146   19.0729 C   0  0  0  0  0  0  0  0  0  0  0  0
    3.8718    1.8521   19.1730 H   0  0  0  0  0  0  0  0  0  0  0  0
  1  2  1  0
  2  3  2  0
  3  4  1  0
  4  5  1  0
  4  6  2  0
  6  7  1  0
  7  8  1  0
  8  9  2  0
  9 10  1  0
 10 11  1  0
 11 12  1  0
 11 13  2  0
 13 14  1  0
 14 15  1  0
 14 16  1  0
 14 17  1  0
 17 18  1  0
 17 19  1  0
 17 20  1  0
 20 21  1  0
 21 22  1  0
 21 23  1  0
 21 24  1  0
 24 25  1  0
 24 26  1  0
 24 27  1  0
 20 28  1  0
 28 29  1  0
 28 30  1  0
 28 31  1  0
 31 32  1  0
 31 33  1  0
 31 34  1  0
 13 35  1  0
 35 36  1  0
  6 37  1  0
 37 38  1  0
 37 39  2  0
 39 40  1  0
 39  2  1  0
 36  7  2  0
 35  9  1  0
M  END
>  <cnnaffinity>  (1) 
-5.53637

>  <filename>  (1) 
CCN(CC)CCc1csc2nc(-c3cccnc3)nn12

$$$$
