
     RDKit          3D

 46 48  0  0  0  0  0  0  0  0999 V2000
    5.1760    1.7040   16.8083 H   0  0  0  0  0  0  0  0  0  0  0  0
    5.5389    1.2278   17.7186 C   0  0  0  0  0  0  0  0  0  0  0  0
    6.6403    0.4735   17.5868 N   0  0  0  0  0  0  0  0  0  0  0  0
    7.1178   -0.1102   18.6899 C   0  0  0  0  0  0  0  0  0  0  0  0
    8.0046   -0.7260   18.5605 H   0  0  0  0  0  0  0  0  0  0  0  0
    6.5403    0.0332   19.9682 C   0  0  0  0  0  0  0  0  0  0  0  0
    7.1732   -0.6353   21.1158 C   0  0  0  0  0  0  0  0  0  0  0  0
    7.9918   -1.6767   20.9182 N   0  0  0  0  0  0  0  0  0  0  0  0
    8.3982   -2.0088   22.1345 N   0  0  0  0  0  0  0  0  0  0  0  0
    7.9513   -1.2296   23.1267 C   0  0  0  0  0  0  0  0  0  0  0  0
    7.1174   -0.3092   22.5132 C   0  0  0  0  0  0  0  0  0  0  0  0
    6.3384    0.6591   23.0715 O   0  0  0  0  0  0  0  0  0  0  0  0
    6.7463    1.1744   24.3443 C   0  0  0  0  0  0  0  0  0  0  0  0
    5.8828    1.7529   24.6919 H   0  0  0  0  0  0  0  0  0  0  0  0
    6.9331    0.3584   25.0510 H   0  0  0  0  0  0  0  0  0  0  0  0
    8.0214    2.0491   24.2565 C   0  0  0  0  0  0  0  0  0  0  0  0
    8.8730    1.3779   24.0175 H   0  0  0  0  0  0  0  0  0  0  0  0
    8.2188    2.4227   25.2746 H   0  0  0  0  0  0  0  0  0  0  0  0
    7.9847    3.1599   23.3329 N   0  0  0  0  0  0  0  0  0  0  0  0
    8.7080    2.9459   22.1118 C   0  0  0  0  0  0  0  0  0  0  0  0
    9.8135    1.7534   22.3389 H   0  0  0  0  0  0  0  0  0  0  0  0
    7.7715    2.2588   21.6787 H   0  0  0  0  0  0  0  0  0  0  0  0
    8.5248    3.1877   22.0003 C   0  0  0  0  0  0  0  0  0  0  0  0
    7.8038    4.4810   21.2819 H   0  0  0  0  0  0  0  0  0  0  0  0
    9.1593    2.9992   20.8729 H   0  0  0  0  0  0  0  0  0  0  0  0
    9.5499    3.8586   22.1984 H   0  0  0  0  0  0  0  0  0  0  0  0
    6.8579    4.0433   23.5970 C   0  0  0  0  0  0  0  0  0  0  0  0
    5.8845    3.5259   23.4614 H   0  0  0  0  0  0  0  0  0  0  0  0
    6.8621    4.8416   22.8288 H   0  0  0  0  0  0  0  0  0  0  0  0
    6.8960    4.6533   24.9835 C   0  0  0  0  0  0  0  0  0  0  0  0
    6.6896    3.9063   25.7587 H   0  0  0  0  0  0  0  0  0  0  0  0
    6.1334    5.4324   25.0815 H   0  0  0  0  0  0  0  0  0  0  0  0
    7.8686    5.1015   25.1938 H   0  0  0  0  0  0  0  0  0  0  0  0
    8.6198   -1.6146   24.4168 C   0  0  0  0  0  0  0  0  0  0  0  0
    7.8835   -1.8551   25.1900 H   0  0  0  0  0  0  0  0  0  0  0  0
    9.2340   -0.7911   24.8020 H   0  0  0  0  0  0  0  0  0  0  0  0
    9.4962   -2.8442   24.0273 C   0  0  0  0  0  0  0  0  0  0  0  0
    9.1470   -3.7443   24.5344 H   0  0  0  0  0  0  0  0  0  0  0  0
   10.5433   -2.7003   24.2972 H   0  0  0  0  0  0  0  0  0  0  0  0
    9.3668   -3.0172   22.4873 C   0  0  0  0  0  0  0  0  0  0  0  0
   10.2996   -2.8184   21.9512 H   0  0  0  0  0  0  0  0  0  0  0  0
    8.9931   -4.0015   22.1986 H   0  0  0  0  0  0  0  0  0  0  0  0
    5.3778    0.8109   20.0848 C   0  0  0  0  0  0  0  0  0  0  0  0
    4.8893    0.9337   21.0524 H   0  0  0  0  0  0  0  0  0  0  0  0
    4.8706    1.4140   18.9336 C   0  0  0  0  0  0  0  0  0  0  0  0
    3.9815    2.0334   18.9603 H   0  0  0  0  0  0  0  0  0  0  0  0
  1  2  1  0
  2  3  2  0
  3  4  1  0
  4  5  1  0
  4  6  2  0
  6  7  1  0
  7  8  2  0
  8  9  1  0
  9 10  1  0
 10 11  2  0
 11 12  1  0
 12 13  1  0
 13 14  1  0
 13 15  1  0
 13 16  1  0
 16 17  1  0
 16 18  1  0
 16 19  1  0
 19 20  1  0
 20 21  1  0
 20 22  1  0
 20 23  1  0
 23 24  1  0
 23 25  1  0
 23 26  1  0
 19 27  1  0
 27 28  1  0
 27 29  1  0
 27 30  1  0
 30 31  1  0
 30 32  1  0
 30 33  1  0
 10 34  1  0
 34 35  1  0
 34 36  1  0
 34 37  1  0
 37 38  1  0
 37 39  1  0
 37 40  1  0
 40 41  1  0
 40 42  1  0
  6 43  1  0
 43 44  1  0
 43 45  2  0
 45 46  1  0
 45  2  1  0
 11  7  1  0
 40  9  1  0
M  END
>  <cnnaffinity>  (1) 
-5.32639

>  <filename>  (1) 
CCN(CC)CCOc1c(-c2cccnc2)nn2c1CCC2

$$$$
