
     RDKit          3D

 40 41  0  0  0  0  0  0  0  0999 V2000
    5.0935    1.8554   16.9586 H   0  0  0  0  0  0  0  0  0  0  0  0
    5.5444    1.3340   17.8007 C   0  0  0  0  0  0  0  0  0  0  0  0
    6.7467    0.7755   17.5712 N   0  0  0  0  0  0  0  0  0  0  0  0
    7.3237    0.1194   18.5807 C   0  0  0  0  0  0  0  0  0  0  0  0
    8.3252   -0.2735   18.4208 H   0  0  0  0  0  0  0  0  0  0  0  0
    6.7015   -0.0829   19.8264 C   0  0  0  0  0  0  0  0  0  0  0  0
    7.3699   -0.8666   20.8139 N   0  0  0  0  0  0  0  0  0  0  0  0
    8.7088   -0.5927   20.9162 N   0  0  0  0  0  0  0  0  0  0  0  0
    9.3744   -1.0857   21.9204 C   0  0  0  0  0  0  0  0  0  0  0  0
   10.7548   -0.5386   22.1451 C   0  0  0  0  0  0  0  0  0  0  0  0
   11.4145   -1.3260   22.5222 H   0  0  0  0  0  0  0  0  0  0  0  0
   11.1601   -0.1517   21.2033 H   0  0  0  0  0  0  0  0  0  0  0  0
   10.6657    0.6113   23.1538 C   0  0  0  0  0  0  0  0  0  0  0  0
   10.3200    0.2192   24.1326 H   0  0  0  0  0  0  0  0  0  0  0  0
    9.8974    1.3158   22.8090 H   0  0  0  0  0  0  0  0  0  0  0  0
   11.9175    1.3194   23.2795 N   0  0  0  0  0  0  0  0  0  0  0  0
   11.8348    2.7498   23.5559 C   0  0  0  0  0  0  0  0  0  0  0  0
   10.9577    3.1535   23.0233 H   0  0  0  0  0  0  0  0  0  0  0  0
   11.6684    2.9763   24.6294 H   0  0  0  0  0  0  0  0  0  0  0  0
   13.0730    3.4901   23.0620 C   0  0  0  0  0  0  0  0  0  0  0  0
   13.0949    4.5201   23.4346 H   0  0  0  0  0  0  0  0  0  0  0  0
   13.9911    2.9963   23.3970 H   0  0  0  0  0  0  0  0  0  0  0  0
   13.0912    3.5218   21.9674 H   0  0  0  0  0  0  0  0  0  0  0  0
   12.9835    0.5731   23.9458 C   0  0  0  0  0  0  0  0  0  0  0  0
   13.5022    1.1977   24.6846 H   0  0  0  0  0  0  0  0  0  0  0  0
   12.5610   -0.2517   24.5391 H   0  0  0  0  0  0  0  0  0  0  0  0
   13.9719    0.0289   22.9173 C   0  0  0  0  0  0  0  0  0  0  0  0
   14.3793    0.8627   22.3405 H   0  0  0  0  0  0  0  0  0  0  0  0
   14.7972   -0.5267   23.3697 H   0  0  0  0  0  0  0  0  0  0  0  0
   13.4623   -0.6256   22.2066 H   0  0  0  0  0  0  0  0  0  0  0  0
    8.7749   -2.0014   22.8581 C   0  0  0  0  0  0  0  0  0  0  0  0
    9.3716   -2.3526   23.6976 H   0  0  0  0  0  0  0  0  0  0  0  0
    7.4802   -2.3755   22.6874 C   0  0  0  0  0  0  0  0  0  0  0  0
    6.9528   -3.0638   23.3391 H   0  0  0  0  0  0  0  0  0  0  0  0
    6.6743   -1.8627   21.5866 C   0  0  0  0  0  0  0  0  0  0  0  0
    5.5420   -2.2356   21.3269 O   0  0  0  0  0  0  0  0  0  0  0  0
    5.4696    0.5328   20.0769 C   0  0  0  0  0  0  0  0  0  0  0  0
    4.9980    0.4562   21.0563 H   0  0  0  0  0  0  0  0  0  0  0  0
    4.8881    1.2640   19.0339 C   0  0  0  0  0  0  0  0  0  0  0  0
    3.9373    1.7727   19.1613 H   0  0  0  0  0  0  0  0  0  0  0  0
  1  2  1  0
  2  3  2  0
  3  4  1  0
  4  5  1  0
  4  6  2  0
  6  7  1  0
  7  8  1  0
  8  9  2  0
  9 10  1  0
 10 11  1  0
 10 12  1  0
 10 13  1  0
 13 14  1  0
 13 15  1  0
 13 16  1  0
 16 17  1  0
 17 18  1  0
 17 19  1  0
 17 20  1  0
 20 21  1  0
 20 22  1  0
 20 23  1  0
 16 24  1  0
 24 25  1  0
 24 26  1  0
 24 27  1  0
 27 28  1  0
 27 29  1  0
 27 30  1  0
  9 31  1  0
 31 32  1  0
 31 33  2  0
 33 34  1  0
 33 35  1  0
 35 36  2  0
  6 37  1  0
 37 38  1  0
 37 39  2  0
 39 40  1  0
 39  2  1  0
 35  7  1  0
M  END
>  <cnnaffinity>  (1) 
-5.21687

>  <filename>  (1) 
CCN(CC)CCc1ccc(=O)n(-c2cccnc2)n1

$$$$
