
     RDKit          3D

 38 40  0  0  0  0  0  0  0  0999 V2000
    5.0593    1.8086   16.9013 H   0  0  0  0  0  0  0  0  0  0  0  0
    5.4634    1.2871   17.7659 C   0  0  0  0  0  0  0  0  0  0  0  0
    6.6100    0.6226   17.5630 N   0  0  0  0  0  0  0  0  0  0  0  0
    7.1336   -0.0153   18.6111 C   0  0  0  0  0  0  0  0  0  0  0  0
    8.0708   -0.5384   18.4574 H   0  0  0  0  0  0  0  0  0  0  0  0
    6.5549   -0.0464   19.8942 C   0  0  0  0  0  0  0  0  0  0  0  0
    7.3026   -0.7497   20.9407 C   0  0  0  0  0  0  0  0  0  0  0  0
    8.5421   -1.2663   20.6349 N   0  0  0  0  0  0  0  0  0  0  0  0
    9.0221   -1.7013   21.7699 C   0  0  0  0  0  0  0  0  0  0  0  0
    9.9867   -2.1625   21.9313 H   0  0  0  0  0  0  0  0  0  0  0  0
    8.1506   -1.5140   22.8055 N   0  0  0  0  0  0  0  0  0  0  0  0
    8.4225   -1.8018   24.1437 N   0  0  0  0  0  0  0  0  0  0  0  0
    7.5884   -1.0424   25.1077 C   0  0  0  0  0  0  0  0  0  0  0  0
    7.6593    0.0288   24.8889 H   0  0  0  0  0  0  0  0  0  0  0  0
    6.5239   -1.3310   25.0201 H   0  0  0  0  0  0  0  0  0  0  0  0
    8.0379   -1.3395   26.5508 C   0  0  0  0  0  0  0  0  0  0  0  0
    9.0587   -0.9618   26.6874 H   0  0  0  0  0  0  0  0  0  0  0  0
    7.4048   -0.7868   27.2566 H   0  0  0  0  0  0  0  0  0  0  0  0
    8.0405   -2.7710   26.8985 N   0  0  0  0  0  0  0  0  0  0  0  0
    6.7095   -3.3428   27.1426 C   0  0  0  0  0  0  0  0  0  0  0  0
    6.0720   -3.4024   26.2418 H   0  0  0  0  0  0  0  0  0  0  0  0
    6.1670   -2.6555   27.8082 H   0  0  0  0  0  0  0  0  0  0  0  0
    6.8295   -4.7516   27.7256 C   0  0  0  0  0  0  0  0  0  0  0  0
    7.5755   -4.7747   28.5268 H   0  0  0  0  0  0  0  0  0  0  0  0
    7.1401   -5.4640   26.9467 H   0  0  0  0  0  0  0  0  0  0  0  0
    5.8780   -5.1099   28.1280 H   0  0  0  0  0  0  0  0  0  0  0  0
    8.8375   -3.4850   25.8747 C   0  0  0  0  0  0  0  0  0  0  0  0
    8.8935   -4.5541   26.1100 H   0  0  0  0  0  0  0  0  0  0  0  0
    9.8633   -3.0972   25.9294 H   0  0  0  0  0  0  0  0  0  0  0  0
    8.3335   -3.2527   24.4386 C   0  0  0  0  0  0  0  0  0  0  0  0
    7.2923   -3.5999   24.3289 H   0  0  0  0  0  0  0  0  0  0  0  0
    8.9412   -3.8121   23.7205 H   0  0  0  0  0  0  0  0  0  0  0  0
    7.0259   -0.9217   22.2658 C   0  0  0  0  0  0  0  0  0  0  0  0
    6.1722   -0.6705   22.8734 H   0  0  0  0  0  0  0  0  0  0  0  0
    5.3506    0.6501   20.0897 C   0  0  0  0  0  0  0  0  0  0  0  0
    4.8552    0.6870   21.0637 H   0  0  0  0  0  0  0  0  0  0  0  0
    4.7986    1.3255   18.9994 C   0  0  0  0  0  0  0  0  0  0  0  0
    3.8802    1.8965   19.0872 H   0  0  0  0  0  0  0  0  0  0  0  0
  1  2  1  0
  2  3  2  0
  3  4  1  0
  4  5  1  0
  4  6  2  0
  6  7  1  0
  7  8  1  0
  8  9  2  0
  9 10  1  0
  9 11  1  0
 11 12  1  0
 12 13  1  0
 13 14  1  0
 13 15  1  0
 13 16  1  0
 16 17  1  0
 16 18  1  0
 16 19  1  0
 19 20  1  0
 20 21  1  0
 20 22  1  0
 20 23  1  0
 23 24  1  0
 23 25  1  0
 23 26  1  0
 19 27  1  0
 27 28  1  0
 27 29  1  0
 27 30  1  0
 30 31  1  0
 30 32  1  0
 11 33  1  0
 33 34  1  0
  6 35  1  0
 35 36  1  0
 35 37  2  0
 37 38  1  0
 37  2  1  0
 33  7  2  0
 30 12  1  0
M  END
>  <cnnaffinity>  (1) 
-4.72335

>  <filename>  (1) 
CCN1CCN(n2cnc(-c3cccnc3)c2)CC1

$$$$
