
     RDKit          3D

 43 46  0  0  0  0  0  0  0  0999 V2000
    4.9697    1.8438   16.9550 H   0  0  0  0  0  0  0  0  0  0  0  0
    5.4107    1.2985   17.7878 C   0  0  0  0  0  0  0  0  0  0  0  0
    6.5515    0.6374   17.5381 N   0  0  0  0  0  0  0  0  0  0  0  0
    7.1363   -0.0116   18.5493 C   0  0  0  0  0  0  0  0  0  0  0  0
    8.0667   -0.5257   18.3184 H   0  0  0  0  0  0  0  0  0  0  0  0
    6.6325   -0.0157   19.8627 C   0  0  0  0  0  0  0  0  0  0  0  0
    7.3883   -0.6614   20.9388 C   0  0  0  0  0  0  0  0  0  0  0  0
    8.2433   -1.7242   20.7460 N   0  0  0  0  0  0  0  0  0  0  0  0
    8.7050   -1.9618   21.9359 C   0  0  0  0  0  0  0  0  0  0  0  0
    8.2442   -1.1356   22.9100 N   0  0  0  0  0  0  0  0  0  0  0  0
    7.3900   -0.2711   22.2808 C   0  0  0  0  0  0  0  0  0  0  0  0
    6.8970    0.8471   22.8924 N   0  0  0  0  0  0  0  0  0  0  0  0
    6.3280    0.8065   24.2368 C   0  0  0  0  0  0  0  0  0  0  0  0
    7.0931    0.9283   25.0205 H   0  0  0  0  0  0  0  0  0  0  0  0
    5.8527   -0.1690   24.3839 H   0  0  0  0  0  0  0  0  0  0  0  0
    5.2817    1.9259   24.3541 C   0  0  0  0  0  0  0  0  0  0  0  0
    4.4425    1.6581   23.6825 H   0  0  0  0  0  0  0  0  0  0  0  0
    4.8790    1.9400   25.3718 H   0  0  0  0  0  0  0  0  0  0  0  0
    5.8613    3.2414   24.0236 N   0  0  0  0  0  0  0  0  0  0  0  0
    4.9614    4.3685   24.2523 C   0  0  0  0  0  0  0  0  0  0  0  0
    5.3565    5.2428   23.7179 H   0  0  0  0  0  0  0  0  0  0  0  0
    3.9466    4.1952   23.8391 H   0  0  0  0  0  0  0  0  0  0  0  0
    4.8830    4.7271   25.7304 C   0  0  0  0  0  0  0  0  0  0  0  0
    4.2719    5.6214   25.8872 H   0  0  0  0  0  0  0  0  0  0  0  0
    4.4401    3.9188   26.3191 H   0  0  0  0  0  0  0  0  0  0  0  0
    5.8865    4.9239   26.1198 H   0  0  0  0  0  0  0  0  0  0  0  0
    6.4188    3.2311   22.6652 C   0  0  0  0  0  0  0  0  0  0  0  0
    5.6468    3.0647   21.8876 H   0  0  0  0  0  0  0  0  0  0  0  0
    6.8814    4.2034   22.4557 H   0  0  0  0  0  0  0  0  0  0  0  0
    7.4707    2.1443   22.5059 C   0  0  0  0  0  0  0  0  0  0  0  0
    8.3659    2.3748   23.1042 H   0  0  0  0  0  0  0  0  0  0  0  0
    7.7902    2.0832   21.4612 H   0  0  0  0  0  0  0  0  0  0  0  0
    8.8682   -1.1727   24.2237 C   0  0  0  0  0  0  0  0  0  0  0  0
    8.1836   -1.6415   24.9344 H   0  0  0  0  0  0  0  0  0  0  0  0
    9.1154   -0.1707   24.5880 H   0  0  0  0  0  0  0  0  0  0  0  0
   10.1565   -1.9870   24.0075 C   0  0  0  0  0  0  0  0  0  0  0  0
   10.9777   -1.3208   23.7297 H   0  0  0  0  0  0  0  0  0  0  0  0
   10.4485   -2.5976   24.8616 H   0  0  0  0  0  0  0  0  0  0  0  0
    9.8452   -3.1061   22.6040 S   0  0  0  0  0  0  0  0  0  0  0  0
    5.4269    0.6682   20.1000 C   0  0  0  0  0  0  0  0  0  0  0  0
    5.0055    0.6964   21.1046 H   0  0  0  0  0  0  0  0  0  0  0  0
    4.7960    1.3183   19.0443 C   0  0  0  0  0  0  0  0  0  0  0  0
    3.8667    1.8621   19.1805 H   0  0  0  0  0  0  0  0  0  0  0  0
  1  2  1  0
  2  3  2  0
  3  4  1  0
  4  5  1  0
  4  6  2  0
  6  7  1  0
  7  8  1  0
  8  9  2  0
  9 10  1  0
 10 11  1  0
 11 12  1  0
 12 13  1  0
 13 14  1  0
 13 15  1  0
 13 16  1  0
 16 17  1  0
 16 18  1  0
 16 19  1  0
 19 20  1  0
 20 21  1  0
 20 22  1  0
 20 23  1  0
 23 24  1  0
 23 25  1  0
 23 26  1  0
 19 27  1  0
 27 28  1  0
 27 29  1  0
 27 30  1  0
 30 31  1  0
 30 32  1  0
 10 33  1  0
 33 34  1  0
 33 35  1  0
 33 36  1  0
 36 37  1  0
 36 38  1  0
 36 39  1  0
  6 40  1  0
 40 41  1  0
 40 42  2  0
 42 43  1  0
 42  2  1  0
 11  7  2  0
 30 12  1  0
 39  9  1  0
M  END
>  <cnnaffinity>  (1) 
-5.39338

>  <filename>  (1) 
CCN1CCN(c2c(-c3cccnc3)nc3n2CCS3)CC1

$$$$
