
     RDKit          3D

 42 45  0  0  0  0  0  0  0  0999 V2000
    5.0116    1.8132   16.8169 H   0  0  0  0  0  0  0  0  0  0  0  0
    5.4887    1.3438   17.6752 C   0  0  0  0  0  0  0  0  0  0  0  0
    6.6664    0.7465   17.4419 N   0  0  0  0  0  0  0  0  0  0  0  0
    7.2796    0.1548   18.4748 C   0  0  0  0  0  0  0  0  0  0  0  0
    8.2312   -0.3180   18.2446 H   0  0  0  0  0  0  0  0  0  0  0  0
    6.7434    0.1059   19.7822 C   0  0  0  0  0  0  0  0  0  0  0  0
    7.3707   -0.7021   20.8576 C   0  0  0  0  0  0  0  0  0  0  0  0
    8.5673   -1.2850   20.6829 N   0  0  0  0  0  0  0  0  0  0  0  0
    8.7243   -2.0040   21.8138 N   0  0  0  0  0  0  0  0  0  0  0  0
    9.7715   -2.7447   22.3514 C   0  0  0  0  0  0  0  0  0  0  0  0
   10.7212   -2.7433   21.8484 H   0  0  0  0  0  0  0  0  0  0  0  0
    9.3017   -3.2391   23.5266 C   0  0  0  0  0  0  0  0  0  0  0  0
    9.7421   -3.8294   24.3156 H   0  0  0  0  0  0  0  0  0  0  0  0
    7.9894   -2.8218   23.7078 N   0  0  0  0  0  0  0  0  0  0  0  0
    7.3195   -3.0880   24.8892 N   0  0  0  0  0  0  0  0  0  0  0  0
    6.2574   -2.1403   25.2777 C   0  0  0  0  0  0  0  0  0  0  0  0
    5.3674   -2.2384   24.6299 H   0  0  0  0  0  0  0  0  0  0  0  0
    6.6185   -1.1097   25.1909 H   0  0  0  0  0  0  0  0  0  0  0  0
    5.8600   -2.4248   26.7353 C   0  0  0  0  0  0  0  0  0  0  0  0
    5.1300   -1.6745   27.0644 H   0  0  0  0  0  0  0  0  0  0  0  0
    6.7675   -2.2627   27.3388 H   0  0  0  0  0  0  0  0  0  0  0  0
    5.3153   -3.7868   26.9556 N   0  0  0  0  0  0  0  0  0  0  0  0
    5.6500   -4.3295   28.2741 C   0  0  0  0  0  0  0  0  0  0  0  0
    6.7464   -4.3992   28.4304 H   0  0  0  0  0  0  0  0  0  0  0  0
    5.2706   -5.3581   28.3172 H   0  0  0  0  0  0  0  0  0  0  0  0
    4.9986   -3.5279   29.3973 C   0  0  0  0  0  0  0  0  0  0  0  0
    3.9110   -3.5217   29.2714 H   0  0  0  0  0  0  0  0  0  0  0  0
    5.2350   -3.9591   30.3762 H   0  0  0  0  0  0  0  0  0  0  0  0
    5.3461   -2.4884   29.4053 H   0  0  0  0  0  0  0  0  0  0  0  0
    5.5927   -4.6888   25.8259 C   0  0  0  0  0  0  0  0  0  0  0  0
    5.4729   -5.7277   26.1508 H   0  0  0  0  0  0  0  0  0  0  0  0
    4.8247   -4.5271   25.0580 H   0  0  0  0  0  0  0  0  0  0  0  0
    6.9863   -4.5135   25.1674 C   0  0  0  0  0  0  0  0  0  0  0  0
    7.7401   -4.9321   25.8546 H   0  0  0  0  0  0  0  0  0  0  0  0
    7.0073   -5.0940   24.2355 H   0  0  0  0  0  0  0  0  0  0  0  0
    7.6706   -1.9671   22.6544 C   0  0  0  0  0  0  0  0  0  0  0  0
    6.7839   -1.0385   22.1069 C   0  0  0  0  0  0  0  0  0  0  0  0
    5.9492   -0.5733   22.5963 H   0  0  0  0  0  0  0  0  0  0  0  0
    5.5271    0.7777   20.0077 C   0  0  0  0  0  0  0  0  0  0  0  0
    5.0855    0.8151   21.0047 H   0  0  0  0  0  0  0  0  0  0  0  0
    4.8860    1.3962   18.9358 C   0  0  0  0  0  0  0  0  0  0  0  0
    3.9408    1.9142   19.0624 H   0  0  0  0  0  0  0  0  0  0  0  0
  1  2  1  0
  2  3  2  0
  3  4  1  0
  4  5  1  0
  4  6  2  0
  6  7  1  0
  7  8  2  0
  8  9  1  0
  9 10  1  0
 10 11  1  0
 10 12  2  0
 12 13  1  0
 12 14  1  0
 14 15  1  0
 15 16  1  0
 16 17  1  0
 16 18  1  0
 16 19  1  0
 19 20  1  0
 19 21  1  0
 19 22  1  0
 22 23  1  0
 23 24  1  0
 23 25  1  0
 23 26  1  0
 26 27  1  0
 26 28  1  0
 26 29  1  0
 22 30  1  0
 30 31  1  0
 30 32  1  0
 30 33  1  0
 33 34  1  0
 33 35  1  0
 14 36  1  0
 36 37  2  0
 37 38  1  0
  6 39  1  0
 39 40  1  0
 39 41  2  0
 41 42  1  0
 41  2  1  0
 37  7  1  0
 36  9  1  0
 33 15  1  0
M  END
>  <cnnaffinity>  (1) 
-5.44919

>  <filename>  (1) 
CCN1CCN(n2ccn3nc(-c4cccnc4)cc23)CC1

$$$$
