
     RDKit          3D

 40 42  0  0  0  0  0  0  0  0999 V2000
    4.9408    1.8012   16.9827 H   0  0  0  0  0  0  0  0  0  0  0  0
    5.3911    1.2970   17.8360 C   0  0  0  0  0  0  0  0  0  0  0  0
    6.5437    0.6636   17.5886 N   0  0  0  0  0  0  0  0  0  0  0  0
    7.1311    0.0282   18.6068 C   0  0  0  0  0  0  0  0  0  0  0  0
    8.1069   -0.4072   18.3978 H   0  0  0  0  0  0  0  0  0  0  0  0
    6.5865   -0.0441   19.9075 C   0  0  0  0  0  0  0  0  0  0  0  0
    7.2962   -0.7706   21.0116 C   0  0  0  0  0  0  0  0  0  0  0  0
    6.5722   -1.5616   21.7702 N   0  0  0  0  0  0  0  0  0  0  0  0
    7.1747   -2.1740   22.8203 N   0  0  0  0  0  0  0  0  0  0  0  0
    6.4715   -3.0720   23.5707 N   0  0  0  0  0  0  0  0  0  0  0  0
    6.3104   -2.7814   25.0196 C   0  0  0  0  0  0  0  0  0  0  0  0
    5.5515   -1.9948   25.1650 H   0  0  0  0  0  0  0  0  0  0  0  0
    7.2505   -2.3736   25.4076 H   0  0  0  0  0  0  0  0  0  0  0  0
    5.9283   -4.0875   25.7621 C   0  0  0  0  0  0  0  0  0  0  0  0
    6.7771   -4.7876   25.7069 H   0  0  0  0  0  0  0  0  0  0  0  0
    5.7385   -3.8798   26.8230 H   0  0  0  0  0  0  0  0  0  0  0  0
    4.7599   -4.7753   25.1861 N   0  0  0  0  0  0  0  0  0  0  0  0
    3.4702   -4.1681   25.5286 C   0  0  0  0  0  0  0  0  0  0  0  0
    2.7445   -4.4597   24.7562 H   0  0  0  0  0  0  0  0  0  0  0  0
    3.5145   -3.0621   25.5150 H   0  0  0  0  0  0  0  0  0  0  0  0
    2.9663   -4.6445   26.8904 C   0  0  0  0  0  0  0  0  0  0  0  0
    1.9675   -4.2377   27.0914 H   0  0  0  0  0  0  0  0  0  0  0  0
    3.6298   -4.3197   27.7020 H   0  0  0  0  0  0  0  0  0  0  0  0
    2.9117   -5.7385   26.9147 H   0  0  0  0  0  0  0  0  0  0  0  0
    4.9763   -5.0020   23.7499 C   0  0  0  0  0  0  0  0  0  0  0  0
    5.8334   -5.6844   23.6511 H   0  0  0  0  0  0  0  0  0  0  0  0
    4.0974   -5.5124   23.3342 H   0  0  0  0  0  0  0  0  0  0  0  0
    5.2883   -3.7065   22.9572 C   0  0  0  0  0  0  0  0  0  0  0  0
    4.4177   -3.0345   22.9829 H   0  0  0  0  0  0  0  0  0  0  0  0
    5.5321   -3.8991   21.9092 H   0  0  0  0  0  0  0  0  0  0  0  0
    8.5238   -2.1203   23.0355 C   0  0  0  0  0  0  0  0  0  0  0  0
    8.7939   -2.7815   23.8537 H   0  0  0  0  0  0  0  0  0  0  0  0
    9.3375   -1.3729   22.2909 C   0  0  0  0  0  0  0  0  0  0  0  0
   10.4044   -1.2912   22.4364 H   0  0  0  0  0  0  0  0  0  0  0  0
    8.7682   -0.5941   21.2143 C   0  0  0  0  0  0  0  0  0  0  0  0
    9.4674    0.1458   20.5231 O   0  0  0  0  0  0  0  0  0  0  0  0
    5.3843    0.6320   20.1504 C   0  0  0  0  0  0  0  0  0  0  0  0
    4.9652    0.6379   21.1571 H   0  0  0  0  0  0  0  0  0  0  0  0
    4.7834    1.3228   19.0956 C   0  0  0  0  0  0  0  0  0  0  0  0
    3.8618    1.8724   19.2279 H   0  0  0  0  0  0  0  0  0  0  0  0
  1  2  1  0
  2  3  2  0
  3  4  1  0
  4  5  1  0
  4  6  2  0
  6  7  1  0
  7  8  2  0
  8  9  1  0
  9 10  1  0
 10 11  1  0
 11 12  1  0
 11 13  1  0
 11 14  1  0
 14 15  1  0
 14 16  1  0
 14 17  1  0
 17 18  1  0
 18 19  1  0
 18 20  1  0
 18 21  1  0
 21 22  1  0
 21 23  1  0
 21 24  1  0
 17 25  1  0
 25 26  1  0
 25 27  1  0
 25 28  1  0
 28 29  1  0
 28 30  1  0
  9 31  1  0
 31 32  1  0
 31 33  2  0
 33 34  1  0
 33 35  1  0
 35 36  2  0
  6 37  1  0
 37 38  1  0
 37 39  2  0
 39 40  1  0
 39  2  1  0
 35  7  1  0
 28 10  1  0
M  END
>  <cnnaffinity>  (1) 
-5.11409

>  <filename>  (1) 
CCN1CCN(n2ccc(=O)c(-c3cccnc3)n2)CC1

$$$$
