
     RDKit          3D

 40 42  0  0  0  0  0  0  0  0999 V2000
    4.9315    1.8751   16.8913 H   0  0  0  0  0  0  0  0  0  0  0  0
    5.3779    1.3480   17.7325 C   0  0  0  0  0  0  0  0  0  0  0  0
    6.5322    0.7080   17.4867 N   0  0  0  0  0  0  0  0  0  0  0  0
    7.1232    0.0581   18.5052 C   0  0  0  0  0  0  0  0  0  0  0  0
    8.0336   -0.4873   18.2560 H   0  0  0  0  0  0  0  0  0  0  0  0
    6.6127    0.0222   19.8304 C   0  0  0  0  0  0  0  0  0  0  0  0
    7.2529   -0.6242   20.9151 N   0  0  0  0  0  0  0  0  0  0  0  0
    6.6438   -0.9768   21.6410 H   0  0  0  0  0  0  0  0  0  0  0  0
    8.6225   -0.5509   21.2671 C   0  0  0  0  0  0  0  0  0  0  0  0
    9.6036    0.3131   20.7152 C   0  0  0  0  0  0  0  0  0  0  0  0
    9.4314    1.0701   19.9690 H   0  0  0  0  0  0  0  0  0  0  0  0
   10.8132    0.1309   21.2228 N   0  0  0  0  0  0  0  0  0  0  0  0
   10.6302   -0.8677   22.1024 N   0  0  0  0  0  0  0  0  0  0  0  0
   11.3747   -1.1795   22.7093 H   0  0  0  0  0  0  0  0  0  0  0  0
    9.3404   -1.2893   22.2127 C   0  0  0  0  0  0  0  0  0  0  0  0
    9.0626   -2.2219   23.2013 N   0  0  0  0  0  0  0  0  0  0  0  0
    9.6736   -3.5499   23.1176 C   0  0  0  0  0  0  0  0  0  0  0  0
    9.0718   -4.2007   22.4665 H   0  0  0  0  0  0  0  0  0  0  0  0
   10.6670   -3.4444   22.6744 H   0  0  0  0  0  0  0  0  0  0  0  0
    9.8152   -4.1748   24.5062 C   0  0  0  0  0  0  0  0  0  0  0  0
   10.1884   -5.2022   24.4175 H   0  0  0  0  0  0  0  0  0  0  0  0
   10.5881   -3.6010   25.0557 H   0  0  0  0  0  0  0  0  0  0  0  0
    8.5225   -4.1996   25.1973 N   0  0  0  0  0  0  0  0  0  0  0  0
    8.5035   -5.0269   26.4038 C   0  0  0  0  0  0  0  0  0  0  0  0
    7.5433   -4.8532   26.9050 H   0  0  0  0  0  0  0  0  0  0  0  0
    8.5027   -6.0890   26.1075 H   0  0  0  0  0  0  0  0  0  0  0  0
    9.6374   -4.7977   27.4118 C   0  0  0  0  0  0  0  0  0  0  0  0
    9.3882   -5.2913   28.3554 H   0  0  0  0  0  0  0  0  0  0  0  0
   10.5921   -5.2050   27.0508 H   0  0  0  0  0  0  0  0  0  0  0  0
    9.7697   -3.7307   27.6150 H   0  0  0  0  0  0  0  0  0  0  0  0
    8.0103   -2.8225   25.3226 C   0  0  0  0  0  0  0  0  0  0  0  0
    8.6964   -2.1561   25.8848 H   0  0  0  0  0  0  0  0  0  0  0  0
    7.0649   -2.8374   25.8752 H   0  0  0  0  0  0  0  0  0  0  0  0
    7.7910   -2.2255   23.9177 C   0  0  0  0  0  0  0  0  0  0  0  0
    7.0313   -2.8365   23.3988 H   0  0  0  0  0  0  0  0  0  0  0  0
    7.4271   -1.1957   23.9903 H   0  0  0  0  0  0  0  0  0  0  0  0
    5.3755    0.6502   20.0397 C   0  0  0  0  0  0  0  0  0  0  0  0
    4.9222    0.6163   21.0284 H   0  0  0  0  0  0  0  0  0  0  0  0
    4.7545    1.3328   18.9849 C   0  0  0  0  0  0  0  0  0  0  0  0
    3.8077    1.8490   19.1197 H   0  0  0  0  0  0  0  0  0  0  0  0
  1  2  1  0
  2  3  2  0
  3  4  1  0
  4  5  1  0
  4  6  2  0
  6  7  1  0
  7  8  1  0
  7  9  1  0
  9 10  1  0
 10 11  1  0
 10 12  2  0
 12 13  1  0
 13 14  1  0
 13 15  1  0
 15 16  1  0
 16 17  1  0
 17 18  1  0
 17 19  1  0
 17 20  1  0
 20 21  1  0
 20 22  1  0
 20 23  1  0
 23 24  1  0
 24 25  1  0
 24 26  1  0
 24 27  1  0
 27 28  1  0
 27 29  1  0
 27 30  1  0
 23 31  1  0
 31 32  1  0
 31 33  1  0
 31 34  1  0
 34 35  1  0
 34 36  1  0
  6 37  1  0
 37 38  1  0
 37 39  2  0
 39 40  1  0
 39  2  1  0
 15  9  2  0
 34 16  1  0
M  END
>  <cnnaffinity>  (1) 
-5.03065

>  <filename>  (1) 
CCN1CCN(c2[nH]ncc2Nc2cccnc2)CC1

$$$$
