
     RDKit          3D

 41 44  0  0  0  0  0  0  0  0999 V2000
    4.9191    1.7765   17.0028 H   0  0  0  0  0  0  0  0  0  0  0  0
    5.4060    1.2914   17.8437 C   0  0  0  0  0  0  0  0  0  0  0  0
    6.5701    0.6764   17.5804 N   0  0  0  0  0  0  0  0  0  0  0  0
    7.1726    0.0468   18.5915 C   0  0  0  0  0  0  0  0  0  0  0  0
    8.1224   -0.4353   18.3720 H   0  0  0  0  0  0  0  0  0  0  0  0
    6.6518    0.0060   19.8929 C   0  0  0  0  0  0  0  0  0  0  0  0
    7.3744   -0.6835   20.9459 C   0  0  0  0  0  0  0  0  0  0  0  0
    8.1103   -1.8205   20.7174 N   0  0  0  0  0  0  0  0  0  0  0  0
    8.5381   -2.1413   21.9056 C   0  0  0  0  0  0  0  0  0  0  0  0
    9.5695   -3.3721   22.5688 S   0  0  0  0  0  0  0  0  0  0  0  0
    9.4928   -2.6462   24.1502 C   0  0  0  0  0  0  0  0  0  0  0  0
   10.0491   -3.1073   24.9543 H   0  0  0  0  0  0  0  0  0  0  0  0
    8.7109   -1.5565   24.1667 C   0  0  0  0  0  0  0  0  0  0  0  0
    8.5029   -0.9089   25.0093 H   0  0  0  0  0  0  0  0  0  0  0  0
    8.1527   -1.2927   22.9122 N   0  0  0  0  0  0  0  0  0  0  0  0
    7.4040   -0.3073   22.2912 C   0  0  0  0  0  0  0  0  0  0  0  0
    6.9496    0.8221   22.9122 N   0  0  0  0  0  0  0  0  0  0  0  0
    7.4598    2.1397   22.5053 C   0  0  0  0  0  0  0  0  0  0  0  0
    7.7748    2.0783   21.4597 H   0  0  0  0  0  0  0  0  0  0  0  0
    8.3446    2.4163   23.0987 H   0  0  0  0  0  0  0  0  0  0  0  0
    6.3804    3.2088   22.6565 C   0  0  0  0  0  0  0  0  0  0  0  0
    6.8231    4.1828   22.4264 H   0  0  0  0  0  0  0  0  0  0  0  0
    5.6026    3.0259   21.8896 H   0  0  0  0  0  0  0  0  0  0  0  0
    5.8099    3.2129   24.0132 N   0  0  0  0  0  0  0  0  0  0  0  0
    4.8443    4.2920   24.1976 C   0  0  0  0  0  0  0  0  0  0  0  0
    4.1917    4.0431   25.0422 H   0  0  0  0  0  0  0  0  0  0  0  0
    4.1778    4.3922   23.3193 H   0  0  0  0  0  0  0  0  0  0  0  0
    5.5279    5.6159   24.4960 C   0  0  0  0  0  0  0  0  0  0  0  0
    4.7862    6.3742   24.7619 H   0  0  0  0  0  0  0  0  0  0  0  0
    6.0918    5.9827   23.6336 H   0  0  0  0  0  0  0  0  0  0  0  0
    6.2225    5.4988   25.3316 H   0  0  0  0  0  0  0  0  0  0  0  0
    5.2367    1.8924   24.2972 C   0  0  0  0  0  0  0  0  0  0  0  0
    4.4072    1.6531   23.6036 H   0  0  0  0  0  0  0  0  0  0  0  0
    4.8163    1.8910   25.3084 H   0  0  0  0  0  0  0  0  0  0  0  0
    6.2934    0.7870   24.2122 C   0  0  0  0  0  0  0  0  0  0  0  0
    5.8148   -0.1881   24.3347 H   0  0  0  0  0  0  0  0  0  0  0  0
    7.0091    0.9231   25.0385 H   0  0  0  0  0  0  0  0  0  0  0  0
    5.4393    0.6630   20.1571 C   0  0  0  0  0  0  0  0  0  0  0  0
    5.0078    0.6342   21.1614 H   0  0  0  0  0  0  0  0  0  0  0  0
    4.8038    1.3137   19.1084 C   0  0  0  0  0  0  0  0  0  0  0  0
    3.8707    1.8444   19.2602 H   0  0  0  0  0  0  0  0  0  0  0  0
  1  2  1  0
  2  3  2  0
  3  4  1  0
  4  5  1  0
  4  6  2  0
  6  7  1  0
  7  8  1  0
  8  9  2  0
  9 10  1  0
 10 11  1  0
 11 12  1  0
 11 13  2  0
 13 14  1  0
 13 15  1  0
 15 16  1  0
 16 17  1  0
 17 18  1  0
 18 19  1  0
 18 20  1  0
 18 21  1  0
 21 22  1  0
 21 23  1  0
 21 24  1  0
 24 25  1  0
 25 26  1  0
 25 27  1  0
 25 28  1  0
 28 29  1  0
 28 30  1  0
 28 31  1  0
 24 32  1  0
 32 33  1  0
 32 34  1  0
 32 35  1  0
 35 36  1  0
 35 37  1  0
  6 38  1  0
 38 39  1  0
 38 40  2  0
 40 41  1  0
 40  2  1  0
 16  7  2  0
 35 17  1  0
 15  9  1  0
M  END
>  <cnnaffinity>  (1) 
-5.56324

>  <filename>  (1) 
CCN1CCN(c2c(-c3cccnc3)nc3sccn23)CC1

$$$$
