
     RDKit          3D

 29 30  0  0  0  0  0  0  0  0999 V2000
    5.1715    1.6925   17.0213 H   0  0  0  0  0  0  0  0  0  0  0  0
    5.5534    1.0554   17.8176 C   0  0  0  0  0  0  0  0  0  0  0  0
    6.6109    0.2883   17.5096 N   0  0  0  0  0  0  0  0  0  0  0  0
    7.1287   -0.4810   18.4780 C   0  0  0  0  0  0  0  0  0  0  0  0
    7.9714   -1.1216   18.2190 H   0  0  0  0  0  0  0  0  0  0  0  0
    6.6358   -0.4961   19.7971 C   0  0  0  0  0  0  0  0  0  0  0  0
    7.2705   -1.2511   20.8526 N   0  0  0  0  0  0  0  0  0  0  0  0
    8.2185   -0.7530   21.7640 C   0  0  0  0  0  0  0  0  0  0  0  0
    9.1007    0.4662   21.5435 C   0  0  0  0  0  0  0  0  0  0  0  0
    8.7146    1.0076   20.6638 H   0  0  0  0  0  0  0  0  0  0  0  0
    8.9508    1.1093   22.4262 H   0  0  0  0  0  0  0  0  0  0  0  0
   10.5719    0.1904   21.4423 N   0  0  0  0  0  0  0  0  0  0  0  0
   10.6688   -0.4958   20.6507 H   0  0  0  0  0  0  0  0  0  0  0  0
   12.3094    2.1999   21.7608 C   0  0  0  0  0  0  0  0  0  0  0  0
   11.4337    1.4159   21.3018 H   0  0  0  0  0  0  0  0  0  0  0  0
   12.0608    3.4754   20.5153 H   0  0  0  0  0  0  0  0  0  0  0  0
   12.3825    1.9592   21.9213 C   0  0  0  0  0  0  0  0  0  0  0  0
   13.2541    2.7545   22.3370 H   0  0  0  0  0  0  0  0  0  0  0  0
   11.5987    2.5479   22.7636 H   0  0  0  0  0  0  0  0  0  0  0  0
   12.9668    0.5077   22.6557 H   0  0  0  0  0  0  0  0  0  0  0  0
    8.2278   -1.4570   22.8582 N   0  0  0  0  0  0  0  0  0  0  0  0
    7.3141   -2.4353   22.6316 N   0  0  0  0  0  0  0  0  0  0  0  0
    7.0654   -3.1237   23.3206 H   0  0  0  0  0  0  0  0  0  0  0  0
    6.6942   -2.3728   21.4392 C   0  0  0  0  0  0  0  0  0  0  0  0
    5.5351   -3.4160   20.8764 S   0  0  0  0  0  0  0  0  0  0  0  0
    5.4929    0.2549   20.0931 C   0  0  0  0  0  0  0  0  0  0  0  0
    5.0539    0.2089   21.0923 H   0  0  0  0  0  0  0  0  0  0  0  0
    4.9522    1.0571   19.0819 C   0  0  0  0  0  0  0  0  0  0  0  0
    4.0867    1.6864   19.2625 H   0  0  0  0  0  0  0  0  0  0  0  0
  1  2  1  0
  2  3  2  0
  3  4  1  0
  4  5  1  0
  4  6  2  0
  6  7  1  0
  7  8  1  0
  8  9  1  0
  9 10  1  0
  9 11  1  0
  9 12  1  0
 12 13  1  0
 12 14  1  0
 14 15  1  0
 14 16  1  0
 14 17  1  0
 17 18  1  0
 17 19  1  0
 17 20  1  0
  8 21  2  0
 21 22  1  0
 22 23  1  0
 22 24  1  0
 24 25  2  0
  6 26  1  0
 26 27  1  0
 26 28  2  0
 28 29  1  0
 28  2  1  0
 24  7  1  0
M  END
>  <cnnaffinity>  (1) 
-4.10011

>  <filename>  (1) 
CCNCc1n[nH]c(=S)n1-c1cccnc1

$$$$
