
     RDKit          3D

 34 36  0  0  0  0  0  0  0  0999 V2000
    4.9767    1.7831   16.8980 H   0  0  0  0  0  0  0  0  0  0  0  0
    5.4548    1.3173   17.7605 C   0  0  0  0  0  0  0  0  0  0  0  0
    6.6248    0.7014   17.5357 N   0  0  0  0  0  0  0  0  0  0  0  0
    7.2307    0.1060   18.5684 C   0  0  0  0  0  0  0  0  0  0  0  0
    8.1741   -0.3891   18.3511 H   0  0  0  0  0  0  0  0  0  0  0  0
    6.7112    0.0888   19.8750 C   0  0  0  0  0  0  0  0  0  0  0  0
    7.3890   -0.6634   20.9502 C   0  0  0  0  0  0  0  0  0  0  0  0
    8.6014   -1.2177   20.7822 N   0  0  0  0  0  0  0  0  0  0  0  0
    8.7523   -1.9261   21.9163 N   0  0  0  0  0  0  0  0  0  0  0  0
    9.7160   -2.8004   22.3849 C   0  0  0  0  0  0  0  0  0  0  0  0
   10.6717   -2.8593   21.8956 H   0  0  0  0  0  0  0  0  0  0  0  0
    9.1938   -3.3830   23.4844 C   0  0  0  0  0  0  0  0  0  0  0  0
    9.5534   -4.1377   24.1660 H   0  0  0  0  0  0  0  0  0  0  0  0
    7.9366   -2.8304   23.7263 N   0  0  0  0  0  0  0  0  0  0  0  0
    6.9502   -3.4484   24.5044 N   0  0  0  0  0  0  0  0  0  0  0  0
    6.1875   -2.8039   24.6760 H   0  0  0  0  0  0  0  0  0  0  0  0
    7.3034   -3.9805   25.7642 C   0  0  0  0  0  0  0  0  0  0  0  0
    8.4295   -4.2492   26.1176 O   0  0  0  0  0  0  0  0  0  0  0  0
    6.1595   -4.1622   26.5067 N   0  0  0  0  0  0  0  0  0  0  0  0
    5.3808   -4.2807   25.8750 H   0  0  0  0  0  0  0  0  0  0  0  0
    6.1578   -5.1035   27.6315 C   0  0  0  0  0  0  0  0  0  0  0  0
    5.1529   -5.0666   28.0673 H   0  0  0  0  0  0  0  0  0  0  0  0
    6.8559   -4.7330   28.3913 H   0  0  0  0  0  0  0  0  0  0  0  0
    6.5232   -6.5329   27.2423 C   0  0  0  0  0  0  0  0  0  0  0  0
    6.5491   -7.1761   28.1240 H   0  0  0  0  0  0  0  0  0  0  0  0
    7.5134   -6.5580   26.7814 H   0  0  0  0  0  0  0  0  0  0  0  0
    5.8029   -6.9709   26.5446 H   0  0  0  0  0  0  0  0  0  0  0  0
    7.6855   -1.8953   22.7499 C   0  0  0  0  0  0  0  0  0  0  0  0
    6.8001   -0.9843   22.1939 C   0  0  0  0  0  0  0  0  0  0  0  0
    5.9602   -0.4865   22.6301 H   0  0  0  0  0  0  0  0  0  0  0  0
    5.4840    0.7372   20.0891 C   0  0  0  0  0  0  0  0  0  0  0  0
    5.0335    0.7608   21.0802 H   0  0  0  0  0  0  0  0  0  0  0  0
    4.8452    1.3552   19.0177 C   0  0  0  0  0  0  0  0  0  0  0  0
    3.8965    1.8635   19.1443 H   0  0  0  0  0  0  0  0  0  0  0  0
  1  2  1  0
  2  3  2  0
  3  4  1  0
  4  5  1  0
  4  6  2  0
  6  7  1  0
  7  8  2  0
  8  9  1  0
  9 10  1  0
 10 11  1  0
 10 12  2  0
 12 13  1  0
 12 14  1  0
 14 15  1  0
 15 16  1  0
 15 17  1  0
 17 18  2  0
 17 19  1  0
 19 20  1  0
 19 21  1  0
 21 22  1  0
 21 23  1  0
 21 24  1  0
 24 25  1  0
 24 26  1  0
 24 27  1  0
 14 28  1  0
 28 29  2  0
 29 30  1  0
  6 31  1  0
 31 32  1  0
 31 33  2  0
 33 34  1  0
 33  2  1  0
 29  7  1  0
 28  9  1  0
M  END
>  <cnnaffinity>  (1) 
-5.07036

>  <filename>  (1) 
CCNC(=O)Nn1ccn2nc(-c3cccnc3)cc12

$$$$
