
     RDKit          3D

 37 38  0  0  0  0  0  0  0  0999 V2000
    4.9102    1.8215   16.9830 H   0  0  0  0  0  0  0  0  0  0  0  0
    5.3904    1.3162   17.8198 C   0  0  0  0  0  0  0  0  0  0  0  0
    6.5534    0.7064   17.5432 N   0  0  0  0  0  0  0  0  0  0  0  0
    7.1704    0.0767   18.5498 C   0  0  0  0  0  0  0  0  0  0  0  0
    8.1184   -0.4060   18.3148 H   0  0  0  0  0  0  0  0  0  0  0  0
    6.6713   -0.0190   19.8764 C   0  0  0  0  0  0  0  0  0  0  0  0
    7.3749   -0.7737   20.8494 N   0  0  0  0  0  0  0  0  0  0  0  0
    6.6409   -1.6145   21.7983 C   0  0  0  0  0  0  0  0  0  0  0  0
    6.3468   -1.0637   22.7135 H   0  0  0  0  0  0  0  0  0  0  0  0
    5.7177   -1.9414   21.3022 H   0  0  0  0  0  0  0  0  0  0  0  0
    7.5052   -2.8257   22.1772 C   0  0  0  0  0  0  0  0  0  0  0  0
    6.9582   -3.4674   22.8800 H   0  0  0  0  0  0  0  0  0  0  0  0
    7.6664   -3.4113   21.2621 H   0  0  0  0  0  0  0  0  0  0  0  0
    8.8631   -2.3758   22.7480 C   0  0  0  0  0  0  0  0  0  0  0  0
    8.7181   -1.8576   23.7107 H   0  0  0  0  0  0  0  0  0  0  0  0
    9.5058   -3.2404   22.9662 H   0  0  0  0  0  0  0  0  0  0  0  0
    9.5663   -1.4314   21.7555 C   0  0  0  0  0  0  0  0  0  0  0  0
   10.4926   -1.0247   22.1790 H   0  0  0  0  0  0  0  0  0  0  0  0
    9.8307   -1.9829   20.8433 H   0  0  0  0  0  0  0  0  0  0  0  0
    8.6775   -0.2526   21.3167 C   0  0  2  0  0  0  0  0  0  0  0  0
    9.1562    0.2149   20.4420 H   0  0  0  0  0  0  0  0  0  0  0  0
    8.5499    0.8595   22.3892 C   0  0  0  0  0  0  0  0  0  0  0  0
    7.7901    1.5800   22.0242 H   0  0  0  0  0  0  0  0  0  0  0  0
    8.1278    0.4173   23.3091 H   0  0  0  0  0  0  0  0  0  0  0  0
    9.8438    1.4613   22.7268 N   0  0  0  0  0  0  0  0  0  0  0  0
   10.2782    1.9159   21.9202 H   0  0  0  0  0  0  0  0  0  0  0  0
    9.7787    2.4285   23.8052 C   0  0  0  0  0  0  0  0  0  0  0  0
    9.3968    1.9061   24.6963 H   0  0  0  0  0  0  0  0  0  0  0  0
    9.0793    3.2580   23.5966 H   0  0  0  0  0  0  0  0  0  0  0  0
   11.1660    2.9816   24.0762 C   0  0  0  0  0  0  0  0  0  0  0  0
   11.1178    3.8395   24.7528 H   0  0  0  0  0  0  0  0  0  0  0  0
   11.8065    2.2156   24.5198 H   0  0  0  0  0  0  0  0  0  0  0  0
   11.6498    3.3076   23.1483 H   0  0  0  0  0  0  0  0  0  0  0  0
    5.4572    0.6437   20.1384 C   0  0  0  0  0  0  0  0  0  0  0  0
    5.0461    0.6137   21.1477 H   0  0  0  0  0  0  0  0  0  0  0  0
    4.8112    1.3178   19.0933 C   0  0  0  0  0  0  0  0  0  0  0  0
    3.8713    1.8387   19.2479 H   0  0  0  0  0  0  0  0  0  0  0  0
  1  2  1  0
  2  3  2  0
  3  4  1  0
  4  5  1  0
  4  6  2  0
  6  7  1  0
  7  8  1  0
  8  9  1  0
  8 10  1  0
  8 11  1  0
 11 12  1  0
 11 13  1  0
 11 14  1  0
 14 15  1  0
 14 16  1  0
 14 17  1  0
 17 18  1  0
 17 19  1  0
 17 20  1  0
 20 21  1  6
 20 22  1  0
 22 23  1  0
 22 24  1  0
 22 25  1  0
 25 26  1  0
 25 27  1  0
 27 28  1  0
 27 29  1  0
 27 30  1  0
 30 31  1  0
 30 32  1  0
 30 33  1  0
  6 34  1  0
 34 35  1  0
 34 36  2  0
 36 37  1  0
 36  2  1  0
 20  7  1  0
M  END
>  <cnnaffinity>  (1) 
-4.77738

>  <filename>  (1) 
CCNC[C@H]1CCCCN1c1cccnc1

$$$$
