
     RDKit          3D

 33 35  0  0  0  0  0  0  0  0999 V2000
    4.9494    1.8090   16.9711 H   0  0  0  0  0  0  0  0  0  0  0  0
    5.3977    1.2945   17.8196 C   0  0  0  0  0  0  0  0  0  0  0  0
    6.5545    0.6566   17.5782 N   0  0  0  0  0  0  0  0  0  0  0  0
    7.1542    0.0425   18.6025 C   0  0  0  0  0  0  0  0  0  0  0  0
    8.0922   -0.4618   18.3779 H   0  0  0  0  0  0  0  0  0  0  0  0
    6.6403    0.0379   19.9117 C   0  0  0  0  0  0  0  0  0  0  0  0
    7.3801   -0.6065   20.9909 C   0  0  0  0  0  0  0  0  0  0  0  0
    8.1435   -1.7322   20.7648 N   0  0  0  0  0  0  0  0  0  0  0  0
    8.6026   -2.0369   21.9429 C   0  0  0  0  0  0  0  0  0  0  0  0
    9.7004   -3.2195   22.5723 S   0  0  0  0  0  0  0  0  0  0  0  0
    9.6373   -2.4795   24.1491 C   0  0  0  0  0  0  0  0  0  0  0  0
   10.2588   -2.8926   24.9300 H   0  0  0  0  0  0  0  0  0  0  0  0
    8.8024   -1.4296   24.1916 C   0  0  0  0  0  0  0  0  0  0  0  0
    8.5141   -0.8183   25.0381 H   0  0  0  0  0  0  0  0  0  0  0  0
    8.2183   -1.1815   22.9466 N   0  0  0  0  0  0  0  0  0  0  0  0
    7.4387   -0.2282   22.3337 C   0  0  0  0  0  0  0  0  0  0  0  0
    6.9716    0.8612   23.0585 N   0  0  0  0  0  0  0  0  0  0  0  0
    6.8437    1.7374   22.5895 H   0  0  0  0  0  0  0  0  0  0  0  0
    6.3660    0.7827   24.3052 C   0  0  0  0  0  0  0  0  0  0  0  0
    6.1729   -0.2555   24.9055 O   0  0  0  0  0  0  0  0  0  0  0  0
    6.0473    2.0137   24.7709 N   0  0  0  0  0  0  0  0  0  0  0  0
    6.4027    2.7861   24.2448 H   0  0  0  0  0  0  0  0  0  0  0  0
    5.4546    2.1943   26.0853 C   0  0  0  0  0  0  0  0  0  0  0  0
    5.9519    1.5141   26.7867 H   0  0  0  0  0  0  0  0  0  0  0  0
    5.6474    3.2186   26.4242 H   0  0  0  0  0  0  0  0  0  0  0  0
    3.9661    1.8794   26.0520 C   0  0  0  0  0  0  0  0  0  0  0  0
    3.8100    0.8461   25.7274 H   0  0  0  0  0  0  0  0  0  0  0  0
    3.5226    1.9921   27.0443 H   0  0  0  0  0  0  0  0  0  0  0  0
    3.4405    2.5356   25.3521 H   0  0  0  0  0  0  0  0  0  0  0  0
    5.4091    0.6786   20.1367 C   0  0  0  0  0  0  0  0  0  0  0  0
    4.9527    0.6561   21.1270 H   0  0  0  0  0  0  0  0  0  0  0  0
    4.7785    1.3201   19.0739 C   0  0  0  0  0  0  0  0  0  0  0  0
    3.8441    1.8578   19.2038 H   0  0  0  0  0  0  0  0  0  0  0  0
  1  2  1  0
  2  3  2  0
  3  4  1  0
  4  5  1  0
  4  6  2  0
  6  7  1  0
  7  8  1  0
  8  9  2  0
  9 10  1  0
 10 11  1  0
 11 12  1  0
 11 13  2  0
 13 14  1  0
 13 15  1  0
 15 16  1  0
 16 17  1  0
 17 18  1  0
 17 19  1  0
 19 20  2  0
 19 21  1  0
 21 22  1  0
 21 23  1  0
 23 24  1  0
 23 25  1  0
 23 26  1  0
 26 27  1  0
 26 28  1  0
 26 29  1  0
  6 30  1  0
 30 31  1  0
 30 32  2  0
 32 33  1  0
 32  2  1  0
 16  7  2  0
 15  9  1  0
M  END
>  <cnnaffinity>  (1) 
-5.1927

>  <filename>  (1) 
CCNC(=O)Nc1c(-c2cccnc2)nc2sccn12

$$$$
