
     RDKit          3D

 36 38  0  0  0  0  0  0  0  0999 V2000
    4.9334    1.8360   16.9331 H   0  0  0  0  0  0  0  0  0  0  0  0
    5.3827    1.3166   17.7772 C   0  0  0  0  0  0  0  0  0  0  0  0
    6.5325    0.6693   17.5273 N   0  0  0  0  0  0  0  0  0  0  0  0
    7.1154    0.0480   18.5567 C   0  0  0  0  0  0  0  0  0  0  0  0
    8.0441   -0.4742   18.3346 H   0  0  0  0  0  0  0  0  0  0  0  0
    6.6054    0.0549   19.8686 C   0  0  0  0  0  0  0  0  0  0  0  0
    7.3689   -0.5668   20.9520 C   0  0  0  0  0  0  0  0  0  0  0  0
    8.1667   -1.6143   20.7294 N   0  0  0  0  0  0  0  0  0  0  0  0
    8.7034   -1.8533   21.9219 N   0  0  0  0  0  0  0  0  0  0  0  0
    8.3412   -1.0160   22.8992 C   0  0  0  0  0  0  0  0  0  0  0  0
    7.4304   -0.1533   22.3256 C   0  0  0  0  0  0  0  0  0  0  0  0
    6.7188    0.8730   22.9951 N   0  0  0  0  0  0  0  0  0  0  0  0
    6.8967    1.8290   22.7187 H   0  0  0  0  0  0  0  0  0  0  0  0
    6.6105    0.9048   24.3696 C   0  0  0  0  0  0  0  0  0  0  0  0
    6.5851   -0.0280   25.1340 O   0  0  0  0  0  0  0  0  0  0  0  0
    6.5385    2.2097   24.7143 O   0  0  0  0  0  0  0  0  0  0  0  0
    6.2562    2.4898   26.0939 C   0  0  0  0  0  0  0  0  0  0  0  0
    5.9148    3.5283   26.0999 H   0  0  0  0  0  0  0  0  0  0  0  0
    5.4301    1.8515   26.4307 H   0  0  0  0  0  0  0  0  0  0  0  0
    7.4793    2.2820   26.9653 C   0  0  0  0  0  0  0  0  0  0  0  0
    8.3098    2.9195   26.6444 H   0  0  0  0  0  0  0  0  0  0  0  0
    7.7861    1.2327   26.9138 H   0  0  0  0  0  0  0  0  0  0  0  0
    7.2299    2.5250   28.0032 H   0  0  0  0  0  0  0  0  0  0  0  0
    9.1445   -1.2646   24.1438 C   0  0  0  0  0  0  0  0  0  0  0  0
    8.5068   -1.6055   24.9649 H   0  0  0  0  0  0  0  0  0  0  0  0
    9.6286   -0.3413   24.4753 H   0  0  0  0  0  0  0  0  0  0  0  0
   10.1847   -2.3096   23.6567 C   0  0  0  0  0  0  0  0  0  0  0  0
   10.3392   -3.1131   24.3785 H   0  0  0  0  0  0  0  0  0  0  0  0
   11.1324   -1.8081   23.4827 H   0  0  0  0  0  0  0  0  0  0  0  0
    9.7036   -2.8202   22.2727 C   0  0  0  0  0  0  0  0  0  0  0  0
   10.4955   -2.7741   21.5269 H   0  0  0  0  0  0  0  0  0  0  0  0
    9.2710   -3.8246   22.2992 H   0  0  0  0  0  0  0  0  0  0  0  0
    5.3795    0.6990   20.1036 C   0  0  0  0  0  0  0  0  0  0  0  0
    4.9363    0.6917   21.1035 H   0  0  0  0  0  0  0  0  0  0  0  0
    4.7615    1.3393   19.0316 C   0  0  0  0  0  0  0  0  0  0  0  0
    3.8246    1.8695   19.1567 H   0  0  0  0  0  0  0  0  0  0  0  0
  1  2  1  0
  2  3  2  0
  3  4  1  0
  4  5  1  0
  4  6  2  0
  6  7  1  0
  7  8  2  0
  8  9  1  0
  9 10  1  0
 10 11  2  0
 11 12  1  0
 12 13  1  0
 12 14  1  0
 14 15  2  0
 14 16  1  0
 16 17  1  0
 17 18  1  0
 17 19  1  0
 17 20  1  0
 20 21  1  0
 20 22  1  0
 20 23  1  0
 10 24  1  0
 24 25  1  0
 24 26  1  0
 24 27  1  0
 27 28  1  0
 27 29  1  0
 27 30  1  0
 30 31  1  0
 30 32  1  0
  6 33  1  0
 33 34  1  0
 33 35  2  0
 35 36  1  0
 35  2  1  0
 11  7  1  0
 30  9  1  0
M  END
>  <cnnaffinity>  (1) 
-5.29545

>  <filename>  (1) 
CCOC(=O)Nc1c(-c2cccnc2)nn2c1CCC2

$$$$
