
     RDKit          3D

 42 45  0  0  0  0  0  0  0  0999 V2000
    5.0298    1.8339   16.8985 H   0  0  0  0  0  0  0  0  0  0  0  0
    5.3942    1.3057   17.7773 C   0  0  0  0  0  0  0  0  0  0  0  0
    6.5417    0.6270   17.6215 N   0  0  0  0  0  0  0  0  0  0  0  0
    7.0302    0.0059   18.7017 C   0  0  0  0  0  0  0  0  0  0  0  0
    7.9561   -0.5475   18.5498 H   0  0  0  0  0  0  0  0  0  0  0  0
    6.4236    0.0014   19.9739 C   0  0  0  0  0  0  0  0  0  0  0  0
    7.1789   -0.6054   21.0925 C   0  0  0  0  0  0  0  0  0  0  0  0
    8.5435   -0.6003   21.3074 C   0  0  0  0  0  0  0  0  0  0  0  0
    8.7484   -1.2136   22.5347 C   0  0  0  0  0  0  0  0  0  0  0  0
    7.6266   -1.6331   23.0880 N   0  0  0  0  0  0  0  0  0  0  0  0
    6.6792   -1.2346   22.1972 N   0  0  0  0  0  0  0  0  0  0  0  0
    5.7223   -1.5267   22.3550 H   0  0  0  0  0  0  0  0  0  0  0  0
   10.1954   -1.2661   22.9272 C   0  0  0  0  0  0  0  0  0  0  0  0
   10.5605   -2.2935   22.9921 H   0  0  0  0  0  0  0  0  0  0  0  0
   10.3566   -0.8225   23.9150 H   0  0  0  0  0  0  0  0  0  0  0  0
   10.9175   -0.4549   21.7842 C   0  0  2  0  0  0  0  0  0  0  0  0
   11.7287   -1.0572   21.3591 H   0  0  0  0  0  0  0  0  0  0  0  0
   11.4747    0.8522   22.3205 C   0  0  0  0  0  0  0  0  0  0  0  0
   12.8269    1.2171   22.3283 C   0  0  0  0  0  0  0  0  0  0  0  0
   13.5804    0.5069   21.9994 H   0  0  0  0  0  0  0  0  0  0  0  0
   13.2351    2.4958   22.7339 C   0  0  0  0  0  0  0  0  0  0  0  0
   14.2801    2.7917   22.7006 H   0  0  0  0  0  0  0  0  0  0  0  0
   12.2774    3.4187   23.1592 C   0  0  0  0  0  0  0  0  0  0  0  0
   12.5200    4.6920   23.5563 O   0  0  0  0  0  0  0  0  0  0  0  0
   13.8325    5.2180   23.6240 C   0  0  0  0  0  0  0  0  0  0  0  0
   14.5158    4.4928   24.0853 H   0  0  0  0  0  0  0  0  0  0  0  0
   13.7127    6.0417   24.3269 H   0  0  0  0  0  0  0  0  0  0  0  0
   14.3525    5.7110   22.2797 C   0  0  0  0  0  0  0  0  0  0  0  0
   14.4118    4.9048   21.5445 H   0  0  0  0  0  0  0  0  0  0  0  0
   15.3535    6.1381   22.3930 H   0  0  0  0  0  0  0  0  0  0  0  0
   13.7044    6.4879   21.8668 H   0  0  0  0  0  0  0  0  0  0  0  0
   10.9248    3.0479   23.2214 C   0  0  0  0  0  0  0  0  0  0  0  0
   10.2109    3.7840   23.5714 H   0  0  0  0  0  0  0  0  0  0  0  0
   10.5447    1.7841   22.8145 C   0  0  0  0  0  0  0  0  0  0  0  0
    9.4912    1.5120   22.8334 H   0  0  0  0  0  0  0  0  0  0  0  0
    9.8254   -0.1743   20.6784 C   0  0  0  0  0  0  0  0  0  0  0  0
    9.8053    0.8823   20.3849 H   0  0  0  0  0  0  0  0  0  0  0  0
   10.0121   -0.7234   19.7557 H   0  0  0  0  0  0  0  0  0  0  0  0
    5.1918    0.6752   20.0973 C   0  0  0  0  0  0  0  0  0  0  0  0
    4.6590    0.7039   21.0493 H   0  0  0  0  0  0  0  0  0  0  0  0
    4.6828    1.3475   18.9826 C   0  0  0  0  0  0  0  0  0  0  0  0
    3.7631    1.9234   19.0366 H   0  0  0  0  0  0  0  0  0  0  0  0
  1  2  1  0
  2  3  2  0
  3  4  1  0
  4  5  1  0
  4  6  2  0
  6  7  1  0
  7  8  2  0
  8  9  1  0
  9 10  2  0
 10 11  1  0
 11 12  1  0
  9 13  1  0
 13 14  1  0
 13 15  1  0
 13 16  1  0
 16 17  1  6
 16 18  1  0
 18 19  2  0
 19 20  1  0
 19 21  1  0
 21 22  1  0
 21 23  2  0
 23 24  1  0
 24 25  1  0
 25 26  1  0
 25 27  1  0
 25 28  1  0
 28 29  1  0
 28 30  1  0
 28 31  1  0
 23 32  1  0
 32 33  1  0
 32 34  2  0
 34 35  1  0
 16 36  1  0
 36 37  1  0
 36 38  1  0
  6 39  1  0
 39 40  1  0
 39 41  2  0
 41 42  1  0
 41  2  1  0
 11  7  1  0
 34 18  1  0
 36  8  1  0
M  END
>  <cnnaffinity>  (1) 
-5.7646

>  <filename>  (1) 
CCOc1ccc([C@H]2Cc3n[nH]c(-c4cccnc4)c3C2)cc1

$$$$
