
     RDKit          3D

 34 36  0  0  0  0  0  0  0  0999 V2000
    4.9852    1.7827   16.9142 H   0  0  0  0  0  0  0  0  0  0  0  0
    5.4165    1.3162   17.7948 C   0  0  0  0  0  0  0  0  0  0  0  0
    6.5788    0.6714   17.6117 N   0  0  0  0  0  0  0  0  0  0  0  0
    7.1358    0.0953   18.6773 C   0  0  0  0  0  0  0  0  0  0  0  0
    8.0525   -0.4649   18.4802 H   0  0  0  0  0  0  0  0  0  0  0  0
    6.5939    0.1576   19.9722 C   0  0  0  0  0  0  0  0  0  0  0  0
    7.3467   -0.4886   21.0560 C   0  0  0  0  0  0  0  0  0  0  0  0
    7.8721   -1.6966   20.8586 N   0  0  0  0  0  0  0  0  0  0  0  0
    8.5522   -1.9530   21.9727 N   0  0  0  0  0  0  0  0  0  0  0  0
    8.5881   -0.9545   22.8582 C   0  0  0  0  0  0  0  0  0  0  0  0
    7.7874    0.0118   22.3031 C   0  0  0  0  0  0  0  0  0  0  0  0
    7.3971    1.5499   22.9429 S   0  0  0  0  0  0  0  0  0  0  0  0
    8.1442    1.7084   24.1870 O   0  0  0  0  0  0  0  0  0  0  0  0
    5.9459    1.7037   22.9077 O   0  0  0  0  0  0  0  0  0  0  0  0
    8.1093    2.6097   21.7014 C   0  0  0  0  0  0  0  0  0  0  0  0
    9.1322    2.2410   21.5886 H   0  0  0  0  0  0  0  0  0  0  0  0
    7.5264    2.3848   20.8030 H   0  0  0  0  0  0  0  0  0  0  0  0
    8.0566    4.0774   22.1218 C   0  0  0  0  0  0  0  0  0  0  0  0
    7.0559    4.3510   22.4729 H   0  0  0  0  0  0  0  0  0  0  0  0
    8.3264    4.7353   21.2895 H   0  0  0  0  0  0  0  0  0  0  0  0
    8.7600    4.2573   22.9404 H   0  0  0  0  0  0  0  0  0  0  0  0
    9.5597   -1.2446   23.9554 C   0  0  0  0  0  0  0  0  0  0  0  0
   10.3432   -0.4828   24.0058 H   0  0  0  0  0  0  0  0  0  0  0  0
    9.0350   -1.2520   24.9114 H   0  0  0  0  0  0  0  0  0  0  0  0
   10.1104   -2.6500   23.5715 C   0  0  0  0  0  0  0  0  0  0  0  0
   11.1935   -2.6839   23.4907 H   0  0  0  0  0  0  0  0  0  0  0  0
    9.8267   -3.3955   24.3125 H   0  0  0  0  0  0  0  0  0  0  0  0
    9.5010   -3.0024   22.1969 C   0  0  0  0  0  0  0  0  0  0  0  0
   10.2385   -2.9412   21.3969 H   0  0  0  0  0  0  0  0  0  0  0  0
    8.9990   -3.9691   22.1899 H   0  0  0  0  0  0  0  0  0  0  0  0
    5.3548    0.7930   20.1382 C   0  0  0  0  0  0  0  0  0  0  0  0
    4.8861    0.8272   21.1217 H   0  0  0  0  0  0  0  0  0  0  0  0
    4.7596    1.3876   19.0277 C   0  0  0  0  0  0  0  0  0  0  0  0
    3.8101    1.9069   19.1096 H   0  0  0  0  0  0  0  0  0  0  0  0
  1  2  1  0
  2  3  2  0
  3  4  1  0
  4  5  1  0
  4  6  2  0
  6  7  1  0
  7  8  2  0
  8  9  1  0
  9 10  1  0
 10 11  2  0
 11 12  1  0
 12 13  2  0
 12 14  2  0
 12 15  1  0
 15 16  1  0
 15 17  1  0
 15 18  1  0
 18 19  1  0
 18 20  1  0
 18 21  1  0
 10 22  1  0
 22 23  1  0
 22 24  1  0
 22 25  1  0
 25 26  1  0
 25 27  1  0
 25 28  1  0
 28 29  1  0
 28 30  1  0
  6 31  1  0
 31 32  1  0
 31 33  2  0
 33 34  1  0
 33  2  1  0
 11  7  1  0
 28  9  1  0
M  END
>  <cnnaffinity>  (1) 
-4.9871

>  <filename>  (1) 
CCS(=O)(=O)c1c(-c2cccnc2)nn2c1CCC2

$$$$
