
     RDKit          3D

 28 30  0  0  0  0  0  0  0  0999 V2000
    4.9626    1.8060   16.9710 H   0  0  0  0  0  0  0  0  0  0  0  0
    5.4057    1.2878   17.8189 C   0  0  0  0  0  0  0  0  0  0  0  0
    6.5605    0.6490   17.5790 N   0  0  0  0  0  0  0  0  0  0  0  0
    7.1520    0.0220   18.6003 C   0  0  0  0  0  0  0  0  0  0  0  0
    8.0981   -0.4622   18.3623 H   0  0  0  0  0  0  0  0  0  0  0  0
    6.6315    0.0005   19.9078 C   0  0  0  0  0  0  0  0  0  0  0  0
    7.3670   -0.6599   20.9829 C   0  0  0  0  0  0  0  0  0  0  0  0
    8.1391   -1.7801   20.7388 N   0  0  0  0  0  0  0  0  0  0  0  0
    8.5945   -2.0955   21.9208 C   0  0  0  0  0  0  0  0  0  0  0  0
    9.5686   -3.3570   22.6011 S   0  0  0  0  0  0  0  0  0  0  0  0
    9.6218   -2.5365   24.1406 C   0  0  0  0  0  0  0  0  0  0  0  0
   10.2257   -2.9728   24.9259 H   0  0  0  0  0  0  0  0  0  0  0  0
    8.8631   -1.4265   24.1451 C   0  0  0  0  0  0  0  0  0  0  0  0
    8.6723   -0.7238   24.9485 H   0  0  0  0  0  0  0  0  0  0  0  0
    8.2479   -1.2220   22.9140 N   0  0  0  0  0  0  0  0  0  0  0  0
    7.4329   -0.2711   22.3204 C   0  0  0  0  0  0  0  0  0  0  0  0
    7.0435    1.2224   23.1307 S   0  0  0  0  0  0  0  0  0  0  0  0
    8.5008    2.1765   22.5663 C   0  0  0  0  0  0  0  0  0  0  0  0
    9.3996    1.6686   22.9292 H   0  0  0  0  0  0  0  0  0  0  0  0
    8.5203    2.1204   21.4724 H   0  0  0  0  0  0  0  0  0  0  0  0
    8.3781    3.6052   23.0794 C   0  0  0  0  0  0  0  0  0  0  0  0
    7.4840    4.0934   22.6779 H   0  0  0  0  0  0  0  0  0  0  0  0
    9.2476    4.2093   22.7926 H   0  0  0  0  0  0  0  0  0  0  0  0
    8.2991    3.6272   24.1707 H   0  0  0  0  0  0  0  0  0  0  0  0
    5.4142    0.6604   20.1420 C   0  0  0  0  0  0  0  0  0  0  0  0
    4.9684    0.6732   21.1366 H   0  0  0  0  0  0  0  0  0  0  0  0
    4.7944    1.3090   19.0765 C   0  0  0  0  0  0  0  0  0  0  0  0
    3.8613    1.8492   19.2115 H   0  0  0  0  0  0  0  0  0  0  0  0
  1  2  1  0
  2  3  2  0
  3  4  1  0
  4  5  1  0
  4  6  2  0
  6  7  1  0
  7  8  1  0
  8  9  2  0
  9 10  1  0
 10 11  1  0
 11 12  1  0
 11 13  2  0
 13 14  1  0
 13 15  1  0
 15 16  1  0
 16 17  1  0
 17 18  1  0
 18 19  1  0
 18 20  1  0
 18 21  1  0
 21 22  1  0
 21 23  1  0
 21 24  1  0
  6 25  1  0
 25 26  1  0
 25 27  2  0
 27 28  1  0
 27  2  1  0
 16  7  2  0
 15  9  1  0
M  END
>  <cnnaffinity>  (1) 
-5.22022

>  <filename>  (1) 
CCSc1c(-c2cccnc2)nc2sccn12

$$$$
