
     RDKit          3D

 28 29  0  0  0  0  0  0  0  0999 V2000
    4.9118    1.7867   16.9901 H   0  0  0  0  0  0  0  0  0  0  0  0
    5.3969    1.2979   17.8315 C   0  0  0  0  0  0  0  0  0  0  0  0
    6.5610    0.6839   17.5678 N   0  0  0  0  0  0  0  0  0  0  0  0
    7.1823    0.0782   18.5838 C   0  0  0  0  0  0  0  0  0  0  0  0
    8.1222   -0.4264   18.3644 H   0  0  0  0  0  0  0  0  0  0  0  0
    6.6616    0.0267   19.8891 C   0  0  0  0  0  0  0  0  0  0  0  0
    7.3587   -0.6698   20.9395 N   0  0  0  0  0  0  0  0  0  0  0  0
    8.6555   -0.2829   21.2581 C   0  0  0  0  0  0  0  0  0  0  0  0
    9.0517    0.5607   20.6910 H   0  0  0  0  0  0  0  0  0  0  0  0
    9.3740   -0.8917   22.2337 C   0  0  0  0  0  0  0  0  0  0  0  0
   10.9896   -0.2895   22.6341 S   0  0  0  0  0  0  0  0  0  0  0  0
   10.4925    1.0337   23.7816 C   0  0  0  0  0  0  0  0  0  0  0  0
   11.3558    1.7043   23.8388 H   0  0  0  0  0  0  0  0  0  0  0  0
    9.6781    1.5863   23.2985 H   0  0  0  0  0  0  0  0  0  0  0  0
   10.0745    0.5317   25.1571 C   0  0  0  0  0  0  0  0  0  0  0  0
    9.1692   -0.0835   25.0995 H   0  0  0  0  0  0  0  0  0  0  0  0
   10.8627   -0.0870   25.5965 H   0  0  0  0  0  0  0  0  0  0  0  0
    9.8756    1.3799   25.8244 H   0  0  0  0  0  0  0  0  0  0  0  0
    8.7518   -2.0009   22.9904 C   0  0  0  0  0  0  0  0  0  0  0  0
    9.2108   -2.6450   23.9084 O   0  0  0  0  0  0  0  0  0  0  0  0
    7.4788   -2.3095   22.5832 N   0  0  0  0  0  0  0  0  0  0  0  0
    7.0346   -3.0626   23.0681 H   0  0  0  0  0  0  0  0  0  0  0  0
    6.7212   -1.7402   21.6120 C   0  0  0  0  0  0  0  0  0  0  0  0
    5.6248   -2.1781   21.3697 O   0  0  0  0  0  0  0  0  0  0  0  0
    5.4428    0.6535   20.1571 C   0  0  0  0  0  0  0  0  0  0  0  0
    5.0146    0.6137   21.1601 H   0  0  0  0  0  0  0  0  0  0  0  0
    4.8101    1.3149   19.1017 C   0  0  0  0  0  0  0  0  0  0  0  0
    3.8769    1.8411   19.2574 H   0  0  0  0  0  0  0  0  0  0  0  0
  1  2  1  0
  2  3  2  0
  3  4  1  0
  4  5  1  0
  4  6  2  0
  6  7  1  0
  7  8  1  0
  8  9  1  0
  8 10  2  0
 10 11  1  0
 11 12  1  0
 12 13  1  0
 12 14  1  0
 12 15  1  0
 15 16  1  0
 15 17  1  0
 15 18  1  0
 10 19  1  0
 19 20  2  0
 19 21  1  0
 21 22  1  0
 21 23  1  0
 23 24  2  0
  6 25  1  0
 25 26  1  0
 25 27  2  0
 27 28  1  0
 27  2  1  0
 23  7  1  0
M  END
>  <cnnaffinity>  (1) 
-5.15926

>  <filename>  (1) 
CCSc1cn(-c2cccnc2)c(=O)[nH]c1=O

$$$$
