
     RDKit          3D

 31 33  0  0  0  0  0  0  0  0999 V2000
    5.1714    1.6924   16.9842 H   0  0  0  0  0  0  0  0  0  0  0  0
    5.6781    1.1649   17.7878 C   0  0  0  0  0  0  0  0  0  0  0  0
    6.8068    0.5251   17.4512 N   0  0  0  0  0  0  0  0  0  0  0  0
    7.4725   -0.0980   18.4323 C   0  0  0  0  0  0  0  0  0  0  0  0
    8.3684   -0.6301   18.1115 H   0  0  0  0  0  0  0  0  0  0  0  0
    7.0620   -0.1250   19.7804 C   0  0  0  0  0  0  0  0  0  0  0  0
    7.9234   -0.7781   20.8013 C   0  0  0  0  0  0  0  0  0  0  0  0
    9.2177   -0.3990   21.0187 C   0  0  0  0  0  0  0  0  0  0  0  0
    9.7060    0.4856   20.6396 H   0  0  0  0  0  0  0  0  0  0  0  0
   10.0494   -1.4372   22.0981 S   0  0  0  0  0  0  0  0  0  0  0  0
    8.6422   -2.3978   22.3054 C   0  0  0  0  0  0  0  0  0  0  0  0
    8.6720   -3.2927   22.9164 H   0  0  0  0  0  0  0  0  0  0  0  0
    7.5645   -1.9124   21.6249 C   0  0  0  0  0  0  0  0  0  0  0  0
    6.1549   -2.3875   21.9088 C   0  0  0  0  0  0  0  0  0  0  0  0
    5.4452   -1.8727   21.2604 H   0  0  0  0  0  0  0  0  0  0  0  0
    5.9098   -2.0894   22.9367 H   0  0  0  0  0  0  0  0  0  0  0  0
    5.9672   -3.8809   21.7814 C   0  0  0  0  0  0  0  0  0  0  0  0
    6.0251   -4.6928   22.9230 C   0  0  0  0  0  0  0  0  0  0  0  0
    6.1573   -4.2252   23.8939 H   0  0  0  0  0  0  0  0  0  0  0  0
    5.9150   -6.0809   22.8415 C   0  0  0  0  0  0  0  0  0  0  0  0
    5.8920   -6.6818   23.7442 H   0  0  0  0  0  0  0  0  0  0  0  0
    5.8009   -6.6767   21.5860 C   0  0  0  0  0  0  0  0  0  0  0  0
    5.7975   -7.7542   21.5249 H   0  0  0  0  0  0  0  0  0  0  0  0
    5.7291   -5.9011   20.4271 C   0  0  0  0  0  0  0  0  0  0  0  0
    5.6617   -6.3636   19.4457 H   0  0  0  0  0  0  0  0  0  0  0  0
    5.7824   -4.5093   20.5410 C   0  0  0  0  0  0  0  0  0  0  0  0
    5.5960   -3.5654   19.0834 Cl  0  0  0  0  0  0  0  0  0  0  0  0
    5.8448    0.4997   20.0932 C   0  0  0  0  0  0  0  0  0  0  0  0
    5.4537    0.4371   21.1120 H   0  0  0  0  0  0  0  0  0  0  0  0
    5.1554    1.1762   19.0849 C   0  0  0  0  0  0  0  0  0  0  0  0
    4.2407    1.7174   19.2965 H   0  0  0  0  0  0  0  0  0  0  0  0
  1  2  1  0
  2  3  2  0
  3  4  1  0
  4  5  1  0
  4  6  2  0
  6  7  1  0
  7  8  2  0
  8  9  1  0
  8 10  1  0
 10 11  1  0
 11 12  1  0
 11 13  2  0
 13 14  1  0
 14 15  1  0
 14 16  1  0
 14 17  1  0
 17 18  2  0
 18 19  1  0
 18 20  1  0
 20 21  1  0
 20 22  2  0
 22 23  1  0
 22 24  1  0
 24 25  1  0
 24 26  2  0
 26 27  1  0
  6 28  1  0
 28 29  1  0
 28 30  2  0
 30 31  1  0
 30  2  1  0
 13  7  1  0
 26 17  1  0
M  END
>  <cnnaffinity>  (1) 
-4.6979

>  <filename>  (1) 
Clc1ccccc1Cc1cscc1-c1cccnc1

$$$$
