
     RDKit          3D

 40 43  0  0  0  0  0  0  0  0999 V2000
    6.1793   -5.0770   29.0446 Cl  0  0  0  0  0  0  0  0  0  0  0  0
    6.8115   -4.1128   27.7415 C   0  0  0  0  0  0  0  0  0  0  0  0
    8.2078   -4.1697   27.4420 C   0  0  0  0  0  0  0  0  0  0  0  0
    8.7887   -3.4496   26.5178 N   0  0  0  0  0  0  0  0  0  0  0  0
    8.0261   -2.5893   25.7868 C   0  0  0  0  0  0  0  0  0  0  0  0
    8.7119   -1.8803   24.8729 N   0  0  0  0  0  0  0  0  0  0  0  0
    8.0203   -1.0671   24.1041 C   0  0  0  0  0  0  0  0  0  0  0  0
    8.7160   -0.3882   23.1473 N   0  0  0  0  0  0  0  0  0  0  0  0
   10.1572   -0.1937   23.2377 C   0  0  0  0  0  0  0  0  0  0  0  0
   10.4351    0.9648   22.2726 C   0  0  0  0  0  0  0  0  0  0  0  0
    9.2658    0.9560   21.2846 C   0  0  0  0  0  0  0  0  0  0  0  0
    8.0944    0.2568   21.9927 C   0  0  0  0  0  0  0  0  0  0  0  0
    7.3628   -0.7277   21.0336 C   0  0  0  0  0  0  0  0  0  0  0  0
    6.6386   -0.0295   19.8890 C   0  0  0  0  0  0  0  0  0  0  0  0
    5.4265    0.6411   20.1254 C   0  0  0  0  0  0  0  0  0  0  0  0
    4.7940    1.3134   19.0772 C   0  0  0  0  0  0  0  0  0  0  0  0
    5.3992    1.3032   17.8170 C   0  0  0  0  0  0  0  0  0  0  0  0
    6.5551    0.6786   17.5579 N   0  0  0  0  0  0  0  0  0  0  0  0
    7.1528    0.0402   18.5749 C   0  0  0  0  0  0  0  0  0  0  0  0
    8.1021   -0.4377   18.3280 H   0  0  0  0  0  0  0  0  0  0  0  0
    4.9351    1.8206   16.9809 H   0  0  0  0  0  0  0  0  0  0  0  0
    3.8633    1.8557   19.2231 H   0  0  0  0  0  0  0  0  0  0  0  0
    4.9927    0.6498   21.1289 H   0  0  0  0  0  0  0  0  0  0  0  0
    8.1103   -1.4374   20.6564 H   0  0  0  0  0  0  0  0  0  0  0  0
    6.6505   -1.3316   21.6063 H   0  0  0  0  0  0  0  0  0  0  0  0
    7.3695    1.0083   22.3457 H   0  0  0  0  0  0  0  0  0  0  0  0
    8.9749    1.9590   20.9574 H   0  0  0  0  0  0  0  0  0  0  0  0
    9.5317    0.3833   20.3886 H   0  0  0  0  0  0  0  0  0  0  0  0
   11.4015    0.8457   21.7718 H   0  0  0  0  0  0  0  0  0  0  0  0
   10.4553    1.9099   22.8232 H   0  0  0  0  0  0  0  0  0  0  0  0
   10.4592    0.0421   24.2651 H   0  0  0  0  0  0  0  0  0  0  0  0
   10.6862   -1.1155   22.9639 H   0  0  0  0  0  0  0  0  0  0  0  0
    6.6052   -0.8429   24.2379 C   0  0  0  0  0  0  0  0  0  0  0  0
    5.9063   -1.5292   25.1973 C   0  0  0  0  0  0  0  0  0  0  0  0
    6.6121   -2.4597   26.0151 C   0  0  0  0  0  0  0  0  0  0  0  0
    6.0093   -3.2454   27.0390 C   0  0  0  0  0  0  0  0  0  0  0  0
    4.9439   -3.1427   27.2578 H   0  0  0  0  0  0  0  0  0  0  0  0
    4.8341   -1.3879   25.3426 H   0  0  0  0  0  0  0  0  0  0  0  0
    6.1334   -0.1311   23.5709 H   0  0  0  0  0  0  0  0  0  0  0  0
    8.8331   -4.8467   28.0285 H   0  0  0  0  0  0  0  0  0  0  0  0
  1  2  1  0
  2  3  2  0
  3  4  1  0
  4  5  2  0
  5  6  1  0
  6  7  2  0
  7  8  1  0
  8  9  1  0
  9 10  1  0
 10 11  1  0
 11 12  1  0
 12 13  1  0
 13 14  1  0
 14 15  2  0
 15 16  1  0
 16 17  2  0
 17 18  1  0
 18 19  2  0
 19 20  1  0
 17 21  1  0
 16 22  1  0
 15 23  1  0
 13 24  1  0
 13 25  1  0
 12 26  1  0
 11 27  1  0
 11 28  1  0
 10 29  1  0
 10 30  1  0
  9 31  1  0
  9 32  1  0
  7 33  1  0
 33 34  2  0
 34 35  1  0
 35 36  2  0
 36 37  1  0
 34 38  1  0
 33 39  1  0
  3 40  1  0
 36  2  1  0
 35  5  1  0
 12  8  1  0
 19 14  1  0
M  END
>  <cnnaffinity>  (1) 
-5.55719

>  <filename>  (1) 
Clc1cnc2nc(N3CCCC3Cc3cccnc3)ccc2c1

$$$$
