
     RDKit          3D

 26 28  0  0  0  0  0  0  0  0999 V2000
    4.9040    1.7709   17.0072 H   0  0  0  0  0  0  0  0  0  0  0  0
    5.3985    1.2916   17.8485 C   0  0  0  0  0  0  0  0  0  0  0  0
    6.5702    0.6835   17.5924 N   0  0  0  0  0  0  0  0  0  0  0  0
    7.1860    0.0544   18.5967 C   0  0  0  0  0  0  0  0  0  0  0  0
    8.1353   -0.4421   18.3854 H   0  0  0  0  0  0  0  0  0  0  0  0
    6.6576    0.0055   19.8990 C   0  0  0  0  0  0  0  0  0  0  0  0
    7.3506   -0.6935   20.9318 N   0  0  0  0  0  0  0  0  0  0  0  0
    7.8662   -1.9299   20.7429 N   0  0  0  0  0  0  0  0  0  0  0  0
    8.3190   -2.3169   21.8780 N   0  0  0  0  0  0  0  0  0  0  0  0
    8.1246   -1.3829   22.8307 N   0  0  0  0  0  0  0  0  0  0  0  0
    7.5345   -0.3699   22.2391 C   0  0  0  0  0  0  0  0  0  0  0  0
    7.2074    0.9178   22.8707 C   0  0  0  0  0  0  0  0  0  0  0  0
    7.4057    2.1354   22.1964 C   0  0  0  0  0  0  0  0  0  0  0  0
    7.7939    2.1508   21.1814 H   0  0  0  0  0  0  0  0  0  0  0  0
    7.1092    3.3357   22.8365 C   0  0  0  0  0  0  0  0  0  0  0  0
    7.2565    4.2749   22.3113 H   0  0  0  0  0  0  0  0  0  0  0  0
    6.6323    3.3430   24.1514 C   0  0  0  0  0  0  0  0  0  0  0  0
    6.4073    4.2810   24.6440 H   0  0  0  0  0  0  0  0  0  0  0  0
    6.4587    2.1302   24.8238 C   0  0  0  0  0  0  0  0  0  0  0  0
    5.8785    2.1332   26.4685 Cl  0  0  0  0  0  0  0  0  0  0  0  0
    6.7466    0.9196   24.1965 C   0  0  0  0  0  0  0  0  0  0  0  0
    6.6113   -0.0160   24.7317 H   0  0  0  0  0  0  0  0  0  0  0  0
    5.4418    0.6456   20.1587 C   0  0  0  0  0  0  0  0  0  0  0  0
    5.0119    0.6280   21.1573 H   0  0  0  0  0  0  0  0  0  0  0  0
    4.8059    1.3118   19.1125 C   0  0  0  0  0  0  0  0  0  0  0  0
    3.8735    1.8444   19.2689 H   0  0  0  0  0  0  0  0  0  0  0  0
  1  2  1  0
  2  3  2  0
  3  4  1  0
  4  5  1  0
  4  6  2  0
  6  7  1  0
  7  8  1  0
  8  9  2  0
  9 10  1  0
 10 11  2  0
 11 12  1  0
 12 13  2  0
 13 14  1  0
 13 15  1  0
 15 16  1  0
 15 17  2  0
 17 18  1  0
 17 19  1  0
 19 20  1  0
 19 21  2  0
 21 22  1  0
  6 23  1  0
 23 24  1  0
 23 25  2  0
 25 26  1  0
 25  2  1  0
 11  7  1  0
 21 12  1  0
M  END
>  <cnnaffinity>  (1) 
-4.95154

>  <filename>  (1) 
Clc1cccc(-c2nnnn2-c2cccnc2)c1

$$$$
