
     RDKit          3D

 31 33  0  0  0  0  0  0  0  0999 V2000
    4.9140    1.8171   16.9522 H   0  0  0  0  0  0  0  0  0  0  0  0
    5.3839    1.3118   17.7969 C   0  0  0  0  0  0  0  0  0  0  0  0
    6.5486    0.6922   17.5415 N   0  0  0  0  0  0  0  0  0  0  0  0
    7.1654    0.0817   18.5624 C   0  0  0  0  0  0  0  0  0  0  0  0
    8.1017   -0.4109   18.3023 H   0  0  0  0  0  0  0  0  0  0  0  0
    6.6693    0.0320   19.8850 C   0  0  0  0  0  0  0  0  0  0  0  0
    7.3482   -0.6828   20.9786 C   0  0  0  0  0  0  0  0  0  0  0  0
    6.8720   -1.2461   22.1338 C   0  0  0  0  0  0  0  0  0  0  0  0
    5.8518   -1.2965   22.4704 H   0  0  0  0  0  0  0  0  0  0  0  0
    7.8633   -1.8531   22.8400 N   0  0  0  0  0  0  0  0  0  0  0  0
    8.9525   -1.6601   22.1468 C   0  0  0  0  0  0  0  0  0  0  0  0
   10.3178   -2.0463   22.5920 C   0  0  0  0  0  0  0  0  0  0  0  0
   10.1819   -2.8098   23.3616 H   0  0  0  0  0  0  0  0  0  0  0  0
   10.8632   -2.4800   21.7489 H   0  0  0  0  0  0  0  0  0  0  0  0
   11.0618   -0.8411   23.1294 C   0  0  0  0  0  0  0  0  0  0  0  0
   11.8991   -0.1037   22.2833 C   0  0  0  0  0  0  0  0  0  0  0  0
   12.0031   -0.4432   21.2543 H   0  0  0  0  0  0  0  0  0  0  0  0
   12.5701    1.0347   22.7368 C   0  0  0  0  0  0  0  0  0  0  0  0
   13.2189    1.5966   22.0709 H   0  0  0  0  0  0  0  0  0  0  0  0
   12.3947    1.4592   24.0576 C   0  0  0  0  0  0  0  0  0  0  0  0
   12.9233    2.3405   24.3946 H   0  0  0  0  0  0  0  0  0  0  0  0
   11.5266    0.7681   24.9094 C   0  0  0  0  0  0  0  0  0  0  0  0
   11.2975    1.0761   25.9238 H   0  0  0  0  0  0  0  0  0  0  0  0
   10.8597   -0.3616   24.4338 C   0  0  0  0  0  0  0  0  0  0  0  0
    9.7151   -1.1217   25.5034 Cl  0  0  0  0  0  0  0  0  0  0  0  0
    8.7023   -0.9840   20.9947 N   0  0  0  0  0  0  0  0  0  0  0  0
    9.4033   -0.6491   20.3538 H   0  0  0  0  0  0  0  0  0  0  0  0
    5.4400    0.6744   20.1170 C   0  0  0  0  0  0  0  0  0  0  0  0
    5.0116    0.6685   21.1183 H   0  0  0  0  0  0  0  0  0  0  0  0
    4.7936    1.3253   19.0649 C   0  0  0  0  0  0  0  0  0  0  0  0
    3.8600    1.8521   19.2173 H   0  0  0  0  0  0  0  0  0  0  0  0
  1  2  1  0
  2  3  2  0
  3  4  1  0
  4  5  1  0
  4  6  2  0
  6  7  1  0
  7  8  2  0
  8  9  1  0
  8 10  1  0
 10 11  2  0
 11 12  1  0
 12 13  1  0
 12 14  1  0
 12 15  1  0
 15 16  2  0
 16 17  1  0
 16 18  1  0
 18 19  1  0
 18 20  2  0
 20 21  1  0
 20 22  1  0
 22 23  1  0
 22 24  2  0
 24 25  1  0
 11 26  1  0
 26 27  1  0
  6 28  1  0
 28 29  1  0
 28 30  2  0
 30 31  1  0
 30  2  1  0
 26  7  1  0
 24 15  1  0
M  END
>  <cnnaffinity>  (1) 
-5.62571

>  <filename>  (1) 
Clc1ccccc1Cc1ncc(-c2cccnc2)[nH]1

$$$$
