
     RDKit          3D

 34 36  0  0  0  0  0  0  0  0999 V2000
    4.9223    1.8047   16.9762 H   0  0  0  0  0  0  0  0  0  0  0  0
    5.3938    1.2996   17.8196 C   0  0  0  0  0  0  0  0  0  0  0  0
    6.5532    0.6781   17.5588 N   0  0  0  0  0  0  0  0  0  0  0  0
    7.1625    0.0595   18.5794 C   0  0  0  0  0  0  0  0  0  0  0  0
    8.1113   -0.4248   18.3302 H   0  0  0  0  0  0  0  0  0  0  0  0
    6.6599    0.0054   19.8863 C   0  0  0  0  0  0  0  0  0  0  0  0
    7.3891   -0.7091   21.0055 C   0  0  0  0  0  0  0  0  0  0  0  0
    8.2719   -1.2383   20.6303 H   0  0  0  0  0  0  0  0  0  0  0  0
    6.7457   -1.4672   21.4663 H   0  0  0  0  0  0  0  0  0  0  0  0
    7.7855    0.1858   22.0875 N   0  0  0  0  0  0  0  0  0  0  0  0
    8.8018    1.0995   22.0868 C   0  0  0  0  0  0  0  0  0  0  0  0
    9.8547    1.2294   21.0315 C   0  0  0  0  0  0  0  0  0  0  0  0
    9.4878    0.8058   20.0901 H   0  0  0  0  0  0  0  0  0  0  0  0
   10.0224    2.2984   20.8736 H   0  0  0  0  0  0  0  0  0  0  0  0
   11.1505    0.5624   21.4566 C   0  0  0  0  0  0  0  0  0  0  0  0
   11.3558   -0.7845   21.1451 C   0  0  0  0  0  0  0  0  0  0  0  0
   10.5679   -1.3065   20.6072 H   0  0  0  0  0  0  0  0  0  0  0  0
   12.5204   -1.4502   21.5313 C   0  0  0  0  0  0  0  0  0  0  0  0
   12.6846   -2.4692   21.2255 H   0  0  0  0  0  0  0  0  0  0  0  0
   13.4853   -0.7952   22.3008 C   0  0  0  0  0  0  0  0  0  0  0  0
   14.3804   -1.3282   22.6186 H   0  0  0  0  0  0  0  0  0  0  0  0
   13.2861    0.5388   22.6646 C   0  0  0  0  0  0  0  0  0  0  0  0
   14.0053    1.0766   23.2758 H   0  0  0  0  0  0  0  0  0  0  0  0
   12.1326    1.2057   22.2327 C   0  0  0  0  0  0  0  0  0  0  0  0
   11.9297    2.8682   22.7134 Cl  0  0  0  0  0  0  0  0  0  0  0  0
    8.7835    1.8434   23.1645 N   0  0  0  0  0  0  0  0  0  0  0  0
    7.7141    1.4116   23.9007 C   0  0  0  0  0  0  0  0  0  0  0  0
    7.5049    1.8598   24.8672 H   0  0  0  0  0  0  0  0  0  0  0  0
    7.0741    0.3988   23.2510 C   0  0  0  0  0  0  0  0  0  0  0  0
    6.1770   -0.1570   23.4851 H   0  0  0  0  0  0  0  0  0  0  0  0
    5.4431    0.6532   20.1344 C   0  0  0  0  0  0  0  0  0  0  0  0
    5.0180    0.6416   21.1402 H   0  0  0  0  0  0  0  0  0  0  0  0
    4.8027    1.3123   19.0851 C   0  0  0  0  0  0  0  0  0  0  0  0
    3.8731    1.8442   19.2394 H   0  0  0  0  0  0  0  0  0  0  0  0
  1  2  1  0
  2  3  2  0
  3  4  1  0
  4  5  1  0
  4  6  2  0
  6  7  1  0
  7  8  1  0
  7  9  1  0
  7 10  1  0
 10 11  1  0
 11 12  1  0
 12 13  1  0
 12 14  1  0
 12 15  1  0
 15 16  2  0
 16 17  1  0
 16 18  1  0
 18 19  1  0
 18 20  2  0
 20 21  1  0
 20 22  1  0
 22 23  1  0
 22 24  2  0
 24 25  1  0
 11 26  2  0
 26 27  1  0
 27 28  1  0
 27 29  2  0
 29 30  1  0
  6 31  1  0
 31 32  1  0
 31 33  2  0
 33 34  1  0
 33  2  1  0
 29 10  1  0
 24 15  1  0
M  END
>  <cnnaffinity>  (1) 
-5.84718

>  <filename>  (1) 
Clc1ccccc1Cc1nccn1Cc1cccnc1

$$$$
