
     RDKit          3D

 29 31  0  0  0  0  0  0  0  0999 V2000
    9.0724   -3.0459   22.1949 H   0  0  0  0  0  0  0  0  0  0  0  0
    8.4930   -2.1810   21.9142 C   0  0  0  0  0  0  0  0  0  0  0  0
    8.0583   -1.8771   20.7436 N   0  0  0  0  0  0  0  0  0  0  0  0
    7.3654   -0.6873   20.9395 C   0  0  0  0  0  0  0  0  0  0  0  0
    6.6467    0.0053   19.8864 C   0  0  0  0  0  0  0  0  0  0  0  0
    7.1676    0.0463   18.5814 C   0  0  0  0  0  0  0  0  0  0  0  0
    8.1202   -0.4336   18.3684 H   0  0  0  0  0  0  0  0  0  0  0  0
    6.5669    0.6787   17.5711 N   0  0  0  0  0  0  0  0  0  0  0  0
    5.4028    1.2941   17.8367 C   0  0  0  0  0  0  0  0  0  0  0  0
    4.9216    1.7828   16.9947 H   0  0  0  0  0  0  0  0  0  0  0  0
    4.8006    1.3147   19.1011 C   0  0  0  0  0  0  0  0  0  0  0  0
    3.8694    1.8454   19.2543 H   0  0  0  0  0  0  0  0  0  0  0  0
    5.4329    0.6627   20.1537 C   0  0  0  0  0  0  0  0  0  0  0  0
    5.0015    0.6263   21.1585 H   0  0  0  0  0  0  0  0  0  0  0  0
    7.4758   -0.3295   22.2631 C   0  0  0  0  0  0  0  0  0  0  0  0
    7.0807    0.7705   22.9694 N   0  0  0  0  0  0  0  0  0  0  0  0
    6.8806    1.5786   22.4070 H   0  0  0  0  0  0  0  0  0  0  0  0
    6.9372    0.9466   24.3484 C   0  0  0  0  0  0  0  0  0  0  0  0
    7.0542    2.2346   24.8913 C   0  0  0  0  0  0  0  0  0  0  0  0
    7.2430    3.0862   24.2435 H   0  0  0  0  0  0  0  0  0  0  0  0
    6.9509    2.4252   26.2734 C   0  0  0  0  0  0  0  0  0  0  0  0
    7.0531    3.4102   26.7171 H   0  0  0  0  0  0  0  0  0  0  0  0
    6.7056    1.3255   27.1004 C   0  0  0  0  0  0  0  0  0  0  0  0
    6.5755    1.5426   28.8202 Cl  0  0  0  0  0  0  0  0  0  0  0  0
    6.5504    0.0476   26.5626 C   0  0  0  0  0  0  0  0  0  0  0  0
    6.3593   -0.7997   27.2098 H   0  0  0  0  0  0  0  0  0  0  0  0
    6.6537   -0.1344   25.1855 C   0  0  0  0  0  0  0  0  0  0  0  0
    6.5319   -1.1089   24.7348 H   0  0  0  0  0  0  0  0  0  0  0  0
    8.1850   -1.2924   22.8952 O   0  0  0  0  0  0  0  0  0  0  0  0
  1  2  1  0
  2  3  2  0
  3  4  1  0
  4  5  1  0
  5  6  2  0
  6  7  1  0
  6  8  1  0
  8  9  2  0
  9 10  1  0
  9 11  1  0
 11 12  1  0
 11 13  2  0
 13 14  1  0
  4 15  2  0
 15 16  1  0
 16 17  1  0
 16 18  1  0
 18 19  2  0
 19 20  1  0
 19 21  1  0
 21 22  1  0
 21 23  2  0
 23 24  1  0
 23 25  1  0
 25 26  1  0
 25 27  2  0
 27 28  1  0
 15 29  1  0
 29  2  1  0
 13  5  1  0
 27 18  1  0
M  END
>  <cnnaffinity>  (1) 
-5.2209

>  <filename>  (1) 
Clc1ccc(Nc2ocnc2-c2cccnc2)cc1

$$$$
