
     RDKit          3D

 35 37  0  0  0  0  0  0  0  0999 V2000
    5.0285    1.8977   16.7667 H   0  0  0  0  0  0  0  0  0  0  0  0
    5.4229    1.4265   17.6667 C   0  0  0  0  0  0  0  0  0  0  0  0
    6.5495    0.7119   17.5177 N   0  0  0  0  0  0  0  0  0  0  0  0
    7.0510    0.1079   18.6069 C   0  0  0  0  0  0  0  0  0  0  0  0
    7.9803   -0.4374   18.4589 H   0  0  0  0  0  0  0  0  0  0  0  0
    6.4733    0.1558   19.9049 C   0  0  0  0  0  0  0  0  0  0  0  0
    6.9499   -0.5579   21.0419 N   0  0  0  0  0  0  0  0  0  0  0  0
    7.6386   -1.8333   20.8162 C   0  0  0  0  0  0  0  0  0  0  0  0
    8.6480   -1.6804   20.3973 H   0  0  0  0  0  0  0  0  0  0  0  0
    7.0586   -2.4076   20.0871 H   0  0  0  0  0  0  0  0  0  0  0  0
    7.7405   -2.6722   22.0982 C   0  0  0  0  0  0  0  0  0  0  0  0
    8.3760   -3.5431   21.8927 H   0  0  0  0  0  0  0  0  0  0  0  0
    6.7356   -3.0530   22.3468 H   0  0  0  0  0  0  0  0  0  0  0  0
    8.3084   -1.9147   23.2260 N   0  0  0  0  0  0  0  0  0  0  0  0
    8.6354   -2.7311   24.3448 C   0  0  0  0  0  0  0  0  0  0  0  0
    9.8172   -3.4840   24.2819 C   0  0  0  0  0  0  0  0  0  0  0  0
   10.4661   -3.3844   23.4216 H   0  0  0  0  0  0  0  0  0  0  0  0
   10.1367   -4.3685   25.3075 C   0  0  0  0  0  0  0  0  0  0  0  0
   11.6050   -5.2698   25.1947 Cl  0  0  0  0  0  0  0  0  0  0  0  0
    9.2774   -4.5781   26.3855 C   0  0  0  0  0  0  0  0  0  0  0  0
    9.5010   -5.3089   27.1564 H   0  0  0  0  0  0  0  0  0  0  0  0
    8.0917   -3.8400   26.4178 C   0  0  0  0  0  0  0  0  0  0  0  0
    6.9484   -4.1728   27.6776 Cl  0  0  0  0  0  0  0  0  0  0  0  0
    7.7758   -2.8962   25.4372 C   0  0  0  0  0  0  0  0  0  0  0  0
    6.8447   -2.3444   25.4701 H   0  0  0  0  0  0  0  0  0  0  0  0
    7.5617   -0.6594   23.4306 C   0  0  0  0  0  0  0  0  0  0  0  0
    8.0112   -0.1061   24.2653 H   0  0  0  0  0  0  0  0  0  0  0  0
    6.4956   -0.8407   23.6685 H   0  0  0  0  0  0  0  0  0  0  0  0
    7.5844    0.1948   22.1444 C   0  0  0  0  0  0  0  0  0  0  0  0
    8.6231    0.4712   21.8893 H   0  0  0  0  0  0  0  0  0  0  0  0
    7.0324    1.1261   22.3199 H   0  0  0  0  0  0  0  0  0  0  0  0
    5.3122    0.9427   20.0307 C   0  0  0  0  0  0  0  0  0  0  0  0
    4.8576    1.0357   21.0153 H   0  0  0  0  0  0  0  0  0  0  0  0
    4.7729    1.5668   18.8978 C   0  0  0  0  0  0  0  0  0  0  0  0
    3.8690    2.1664   18.9573 H   0  0  0  0  0  0  0  0  0  0  0  0
  1  2  1  0
  2  3  2  0
  3  4  1  0
  4  5  1  0
  4  6  2  0
  6  7  1  0
  7  8  1  0
  8  9  1  0
  8 10  1  0
  8 11  1  0
 11 12  1  0
 11 13  1  0
 11 14  1  0
 14 15  1  0
 15 16  2  0
 16 17  1  0
 16 18  1  0
 18 19  1  0
 18 20  2  0
 20 21  1  0
 20 22  1  0
 22 23  1  0
 22 24  2  0
 24 25  1  0
 14 26  1  0
 26 27  1  0
 26 28  1  0
 26 29  1  0
 29 30  1  0
 29 31  1  0
  6 32  1  0
 32 33  1  0
 32 34  2  0
 34 35  1  0
 34  2  1  0
 29  7  1  0
 24 15  1  0
M  END
>  <cnnaffinity>  (1) 
-4.79596

>  <filename>  (1) 
Clc1cc(Cl)cc(N2CCN(c3cccnc3)CC2)c1

$$$$
