
     RDKit          3D

 35 37  0  0  0  0  0  0  0  0999 V2000
    4.9180    1.8159   16.9678 H   0  0  0  0  0  0  0  0  0  0  0  0
    5.3851    1.3152   17.8104 C   0  0  0  0  0  0  0  0  0  0  0  0
    6.5448    0.6895   17.5540 N   0  0  0  0  0  0  0  0  0  0  0  0
    7.1455    0.0757   18.5831 C   0  0  0  0  0  0  0  0  0  0  0  0
    8.0914   -0.4105   18.3424 H   0  0  0  0  0  0  0  0  0  0  0  0
    6.6431    0.0553   19.9037 C   0  0  0  0  0  0  0  0  0  0  0  0
    7.3597   -0.6925   20.9595 C   0  0  0  0  0  0  0  0  0  0  0  0
    7.6834   -2.0271   20.9818 C   0  0  0  0  0  0  0  0  0  0  0  0
    7.2906   -2.7390   20.2742 H   0  0  0  0  0  0  0  0  0  0  0  0
    8.5036   -2.2736   22.1129 C   0  0  0  0  0  0  0  0  0  0  0  0
    9.0009   -3.2044   22.3775 H   0  0  0  0  0  0  0  0  0  0  0  0
    8.6072   -1.0789   22.7756 C   0  0  0  0  0  0  0  0  0  0  0  0
    9.0350   -0.8407   23.7394 H   0  0  0  0  0  0  0  0  0  0  0  0
    7.9135   -0.1123   22.0876 N   0  0  0  0  0  0  0  0  0  0  0  0
    7.6732    1.2359   22.5866 C   0  0  0  0  0  0  0  0  0  0  0  0
    7.4450    1.8551   21.7188 H   0  0  0  0  0  0  0  0  0  0  0  0
    8.6050    1.6273   23.0105 H   0  0  0  0  0  0  0  0  0  0  0  0
    6.5475    1.3494   23.6350 C   0  0  0  0  0  0  0  0  0  0  0  0
    6.3746    2.4139   23.8128 H   0  0  0  0  0  0  0  0  0  0  0  0
    5.6145    0.9498   23.2261 H   0  0  0  0  0  0  0  0  0  0  0  0
    6.8813    0.6659   24.9414 C   0  0  0  0  0  0  0  0  0  0  0  0
    6.4100   -0.6245   25.2333 C   0  0  0  0  0  0  0  0  0  0  0  0
    5.7246   -1.0921   24.5343 H   0  0  0  0  0  0  0  0  0  0  0  0
    6.8439   -1.3411   26.3518 C   0  0  0  0  0  0  0  0  0  0  0  0
    6.4567   -2.3370   26.5423 H   0  0  0  0  0  0  0  0  0  0  0  0
    7.7582   -0.7519   27.2265 C   0  0  0  0  0  0  0  0  0  0  0  0
    8.2009   -1.3264   28.0284 H   0  0  0  0  0  0  0  0  0  0  0  0
    8.1559    0.5679   27.0273 C   0  0  0  0  0  0  0  0  0  0  0  0
    8.7404    1.0961   27.7604 H   0  0  0  0  0  0  0  0  0  0  0  0
    7.7573    1.2448   25.8755 C   0  0  0  0  0  0  0  0  0  0  0  0
    8.4597    2.8154   25.5893 Cl  0  0  0  0  0  0  0  0  0  0  0  0
    5.4182    0.7071   20.1314 C   0  0  0  0  0  0  0  0  0  0  0  0
    4.9763    0.6889   21.1277 H   0  0  0  0  0  0  0  0  0  0  0  0
    4.7776    1.3439   19.0679 C   0  0  0  0  0  0  0  0  0  0  0  0
    3.8345    1.8602   19.2068 H   0  0  0  0  0  0  0  0  0  0  0  0
  1  2  1  0
  2  3  2  0
  3  4  1  0
  4  5  1  0
  4  6  2  0
  6  7  1  0
  7  8  2  0
  8  9  1  0
  8 10  1  0
 10 11  1  0
 10 12  2  0
 12 13  1  0
 12 14  1  0
 14 15  1  0
 15 16  1  0
 15 17  1  0
 15 18  1  0
 18 19  1  0
 18 20  1  0
 18 21  1  0
 21 22  2  0
 22 23  1  0
 22 24  1  0
 24 25  1  0
 24 26  2  0
 26 27  1  0
 26 28  1  0
 28 29  1  0
 28 30  2  0
 30 31  1  0
  6 32  1  0
 32 33  1  0
 32 34  2  0
 34 35  1  0
 34  2  1  0
 14  7  1  0
 30 21  1  0
M  END
>  <cnnaffinity>  (1) 
-5.05283

>  <filename>  (1) 
Clc1ccccc1CCn1cccc1-c1cccnc1

$$$$
