
     RDKit          3D

 29 31  0  0  0  0  0  0  0  0999 V2000
    4.9220    1.7907   16.9869 H   0  0  0  0  0  0  0  0  0  0  0  0
    5.3991    1.2963   17.8305 C   0  0  0  0  0  0  0  0  0  0  0  0
    6.5576    0.6760   17.5672 N   0  0  0  0  0  0  0  0  0  0  0  0
    7.1629    0.0642   18.5941 C   0  0  0  0  0  0  0  0  0  0  0  0
    8.1072   -0.4247   18.3658 H   0  0  0  0  0  0  0  0  0  0  0  0
    6.6493    0.0033   19.9122 C   0  0  0  0  0  0  0  0  0  0  0  0
    7.3359   -0.7329   20.9830 C   0  0  0  0  0  0  0  0  0  0  0  0
    6.5739   -1.7835   22.0918 S   0  0  0  0  0  0  0  0  0  0  0  0
    8.0328   -2.1657   22.8672 N   0  0  0  0  0  0  0  0  0  0  0  0
    9.0074   -1.5376   22.3472 N   0  0  0  0  0  0  0  0  0  0  0  0
    8.6765   -0.7047   21.3229 C   0  0  0  0  0  0  0  0  0  0  0  0
    9.7448    0.0882   20.6341 C   0  0  0  0  0  0  0  0  0  0  0  0
    9.2781    0.9433   20.1404 H   0  0  0  0  0  0  0  0  0  0  0  0
   10.1402   -0.5643   19.8526 H   0  0  0  0  0  0  0  0  0  0  0  0
   10.8386    0.5833   21.5555 C   0  0  0  0  0  0  0  0  0  0  0  0
   10.6513    1.7878   22.2491 C   0  0  0  0  0  0  0  0  0  0  0  0
    9.7402    2.3501   22.0567 H   0  0  0  0  0  0  0  0  0  0  0  0
   11.5828    2.2502   23.1811 C   0  0  0  0  0  0  0  0  0  0  0  0
   11.4088    3.1899   23.6975 H   0  0  0  0  0  0  0  0  0  0  0  0
   12.7345    1.4998   23.4370 C   0  0  0  0  0  0  0  0  0  0  0  0
   13.4743    1.8492   24.1477 H   0  0  0  0  0  0  0  0  0  0  0  0
   12.9462    0.2907   22.7746 C   0  0  0  0  0  0  0  0  0  0  0  0
   13.8254   -0.3222   22.9533 H   0  0  0  0  0  0  0  0  0  0  0  0
   11.9983   -0.1541   21.8496 C   0  0  0  0  0  0  0  0  0  0  0  0
   12.2968   -1.6856   21.0852 Cl  0  0  0  0  0  0  0  0  0  0  0  0
    5.4300    0.6535   20.1567 C   0  0  0  0  0  0  0  0  0  0  0  0
    5.0055    0.6437   21.1607 H   0  0  0  0  0  0  0  0  0  0  0  0
    4.8052    1.3133   19.0978 C   0  0  0  0  0  0  0  0  0  0  0  0
    3.8770    1.8426   19.2497 H   0  0  0  0  0  0  0  0  0  0  0  0
  1  2  1  0
  2  3  2  0
  3  4  1  0
  4  5  1  0
  4  6  2  0
  6  7  1  0
  7  8  1  0
  8  9  1  0
  9 10  2  0
 10 11  1  0
 11 12  1  0
 12 13  1  0
 12 14  1  0
 12 15  1  0
 15 16  2  0
 16 17  1  0
 16 18  1  0
 18 19  1  0
 18 20  2  0
 20 21  1  0
 20 22  1  0
 22 23  1  0
 22 24  2  0
 24 25  1  0
  6 26  1  0
 26 27  1  0
 26 28  2  0
 28 29  1  0
 28  2  1  0
 11  7  2  0
 24 15  1  0
M  END
>  <cnnaffinity>  (1) 
-5.5754

>  <filename>  (1) 
Clc1ccccc1Cc1nnsc1-c1cccnc1

$$$$
