
     RDKit          3D

 29 31  0  0  0  0  0  0  0  0999 V2000
    4.9359    1.8484   16.9301 H   0  0  0  0  0  0  0  0  0  0  0  0
    5.3897    1.3299   17.7722 C   0  0  0  0  0  0  0  0  0  0  0  0
    6.5475    0.6958   17.5255 N   0  0  0  0  0  0  0  0  0  0  0  0
    7.1310    0.0683   18.5551 C   0  0  0  0  0  0  0  0  0  0  0  0
    8.0731   -0.4300   18.3249 H   0  0  0  0  0  0  0  0  0  0  0  0
    6.6003    0.0054   19.8630 C   0  0  0  0  0  0  0  0  0  0  0  0
    7.3350   -0.6988   20.9571 C   0  0  0  0  0  0  0  0  0  0  0  0
    6.7299   -1.5655   21.9032 C   0  0  0  0  0  0  0  0  0  0  0  0
    5.6735   -1.8048   21.8815 H   0  0  0  0  0  0  0  0  0  0  0  0
    7.4224   -2.2037   22.8559 N   0  0  0  0  0  0  0  0  0  0  0  0
    8.7461   -2.0260   22.9630 N   0  0  0  0  0  0  0  0  0  0  0  0
    9.3784   -1.1788   22.1341 C   0  0  0  0  0  0  0  0  0  0  0  0
   10.8561   -1.0422   22.2847 C   0  0  0  0  0  0  0  0  0  0  0  0
   11.6485   -2.1943   22.1891 C   0  0  0  0  0  0  0  0  0  0  0  0
   11.1500   -3.1573   22.1848 H   0  0  0  0  0  0  0  0  0  0  0  0
   13.0355   -2.0909   22.1045 C   0  0  0  0  0  0  0  0  0  0  0  0
   13.6601   -2.9592   21.9504 H   0  0  0  0  0  0  0  0  0  0  0  0
   13.6780   -0.8752   22.3113 C   0  0  0  0  0  0  0  0  0  0  0  0
   14.7607   -0.8120   22.2912 H   0  0  0  0  0  0  0  0  0  0  0  0
   12.9091    0.2618   22.5572 C   0  0  0  0  0  0  0  0  0  0  0  0
   13.7432    1.7010   23.0294 Cl  0  0  0  0  0  0  0  0  0  0  0  0
   11.5048    0.1977   22.4723 C   0  0  0  0  0  0  0  0  0  0  0  0
   10.5873    1.6498   22.6343 Cl  0  0  0  0  0  0  0  0  0  0  0  0
    8.7030   -0.5164   21.0962 C   0  0  0  0  0  0  0  0  0  0  0  0
    9.2637    0.1422   20.4417 H   0  0  0  0  0  0  0  0  0  0  0  0
    5.3840    0.6706   20.0875 C   0  0  0  0  0  0  0  0  0  0  0  0
    4.9498    0.6981   21.0881 H   0  0  0  0  0  0  0  0  0  0  0  0
    4.7732    1.3418   19.0267 C   0  0  0  0  0  0  0  0  0  0  0  0
    3.8413    1.8799   19.1590 H   0  0  0  0  0  0  0  0  0  0  0  0
  1  2  1  0
  2  3  2  0
  3  4  1  0
  4  5  1  0
  4  6  2  0
  6  7  1  0
  7  8  2  0
  8  9  1  0
  8 10  1  0
 10 11  2  0
 11 12  1  0
 12 13  1  0
 13 14  2  0
 14 15  1  0
 14 16  1  0
 16 17  1  0
 16 18  2  0
 18 19  1  0
 18 20  1  0
 20 21  1  0
 20 22  2  0
 22 23  1  0
 12 24  2  0
 24 25  1  0
  6 26  1  0
 26 27  1  0
 26 28  2  0
 28 29  1  0
 28  2  1  0
 24  7  1  0
 22 13  1  0
M  END
>  <cnnaffinity>  (1) 
-5.89348

>  <filename>  (1) 
Clc1cccc(-c2cc(-c3cccnc3)cnn2)c1Cl

$$$$
