
     RDKit          3D

 31 33  0  0  0  0  0  0  0  0999 V2000
    8.4199   -1.9832   19.8535 H   0  0  0  0  0  0  0  0  0  0  0  0
    8.2149   -1.7018   20.8637 C   0  0  0  0  0  0  0  0  0  0  0  0
    8.8029   -2.4097   21.8593 N   0  0  0  0  0  0  0  0  0  0  0  0
    8.5941   -1.9298   23.0881 C   0  0  0  0  0  0  0  0  0  0  0  0
    9.0812   -2.4343   23.9176 H   0  0  0  0  0  0  0  0  0  0  0  0
    7.8120   -0.7547   23.3356 C   0  0  0  0  0  0  0  0  0  0  0  0
    7.6666   -0.2414   24.5984 N   0  0  0  0  0  0  0  0  0  0  0  0
    7.8564   -0.8399   25.3834 H   0  0  0  0  0  0  0  0  0  0  0  0
    7.1108    1.0003   24.9196 C   0  0  0  0  0  0  0  0  0  0  0  0
    7.3282    2.1353   24.1252 C   0  0  0  0  0  0  0  0  0  0  0  0
    7.9119    2.0233   23.2205 H   0  0  0  0  0  0  0  0  0  0  0  0
    6.7659    3.3600   24.4944 C   0  0  0  0  0  0  0  0  0  0  0  0
    6.9070    4.2472   23.8791 H   0  0  0  0  0  0  0  0  0  0  0  0
    5.9813    3.4340   25.6475 C   0  0  0  0  0  0  0  0  0  0  0  0
    5.2319    4.9462   26.0711 Cl  0  0  0  0  0  0  0  0  0  0  0  0
    5.7658    2.3067   26.4530 C   0  0  0  0  0  0  0  0  0  0  0  0
    5.1513    2.3878   27.3448 H   0  0  0  0  0  0  0  0  0  0  0  0
    6.3511    1.0915   26.0865 C   0  0  0  0  0  0  0  0  0  0  0  0
    6.2258    0.1865   26.6755 H   0  0  0  0  0  0  0  0  0  0  0  0
    7.2043   -0.1022   22.3360 N   0  0  0  0  0  0  0  0  0  0  0  0
    7.3836   -0.5924   21.0956 C   0  0  0  0  0  0  0  0  0  0  0  0
    6.6456    0.0750   19.9934 C   0  0  0  0  0  0  0  0  0  0  0  0
    7.1741    0.0730   18.6902 C   0  0  0  0  0  0  0  0  0  0  0  0
    8.1292   -0.4052   18.4692 H   0  0  0  0  0  0  0  0  0  0  0  0
    6.5836    0.6485   17.6428 N   0  0  0  0  0  0  0  0  0  0  0  0
    5.4157    1.2684   17.8669 C   0  0  0  0  0  0  0  0  0  0  0  0
    4.9831    1.7629   17.0049 H   0  0  0  0  0  0  0  0  0  0  0  0
    4.7840    1.3111   19.1164 C   0  0  0  0  0  0  0  0  0  0  0  0
    3.8412    1.8387   19.2215 H   0  0  0  0  0  0  0  0  0  0  0  0
    5.4079    0.7077   20.2059 C   0  0  0  0  0  0  0  0  0  0  0  0
    4.9672    0.7233   21.2085 H   0  0  0  0  0  0  0  0  0  0  0  0
  1  2  1  0
  2  3  2  0
  3  4  1  0
  4  5  1  0
  4  6  2  0
  6  7  1  0
  7  8  1  0
  7  9  1  0
  9 10  2  0
 10 11  1  0
 10 12  1  0
 12 13  1  0
 12 14  2  0
 14 15  1  0
 14 16  1  0
 16 17  1  0
 16 18  2  0
 18 19  1  0
  6 20  1  0
 20 21  2  0
 21 22  1  0
 22 23  2  0
 23 24  1  0
 23 25  1  0
 25 26  2  0
 26 27  1  0
 26 28  1  0
 28 29  1  0
 28 30  2  0
 30 31  1  0
 21  2  1  0
 30 22  1  0
 18  9  1  0
M  END
>  <cnnaffinity>  (1) 
-5.31979

>  <filename>  (1) 
Clc1ccc(Nc2cncc(-c3cccnc3)n2)cc1

$$$$
