
     RDKit          3D

 32 35  0  0  0  0  0  0  0  0999 V2000
    4.9176    1.7761   17.0014 H   0  0  0  0  0  0  0  0  0  0  0  0
    5.4051    1.2899   17.8424 C   0  0  0  0  0  0  0  0  0  0  0  0
    6.5699    0.6775   17.5760 N   0  0  0  0  0  0  0  0  0  0  0  0
    7.1737    0.0568   18.5898 C   0  0  0  0  0  0  0  0  0  0  0  0
    8.1234   -0.4340   18.3731 H   0  0  0  0  0  0  0  0  0  0  0  0
    6.6475    0.0117   19.8915 C   0  0  0  0  0  0  0  0  0  0  0  0
    7.4039   -0.7023   20.9186 C   0  0  0  0  0  0  0  0  0  0  0  0
    8.3238   -1.6078   20.6961 N   0  0  0  0  0  0  0  0  0  0  0  0
    8.8199   -2.0510   21.9016 N   0  0  0  0  0  0  0  0  0  0  0  0
    8.1896   -1.3689   22.8161 C   0  0  0  0  0  0  0  0  0  0  0  0
    8.2551   -1.1299   24.5385 S   0  0  0  0  0  0  0  0  0  0  0  0
    7.0464    0.1468   24.3225 C   0  0  0  0  0  0  0  0  0  0  0  0
    6.5299    0.9358   25.4864 C   0  0  0  0  0  0  0  0  0  0  0  0
    7.0504    0.6227   26.3934 H   0  0  0  0  0  0  0  0  0  0  0  0
    6.7792    1.9896   25.3183 H   0  0  0  0  0  0  0  0  0  0  0  0
    5.0350    0.7717   25.6461 C   0  0  0  0  0  0  0  0  0  0  0  0
    4.1734    1.7012   25.0475 C   0  0  0  0  0  0  0  0  0  0  0  0
    4.6060    2.5421   24.5119 H   0  0  0  0  0  0  0  0  0  0  0  0
    2.7874    1.5579   25.1194 C   0  0  0  0  0  0  0  0  0  0  0  0
    2.1397    2.2956   24.6548 H   0  0  0  0  0  0  0  0  0  0  0  0
    2.2447    0.4570   25.7859 C   0  0  0  0  0  0  0  0  0  0  0  0
    1.1687    0.3371   25.8510 H   0  0  0  0  0  0  0  0  0  0  0  0
    3.0792   -0.4978   26.3712 C   0  0  0  0  0  0  0  0  0  0  0  0
    2.6683   -1.3586   26.8907 H   0  0  0  0  0  0  0  0  0  0  0  0
    4.4652   -0.3376   26.2916 C   0  0  0  0  0  0  0  0  0  0  0  0
    5.4662   -1.5626   27.0162 Cl  0  0  0  0  0  0  0  0  0  0  0  0
    6.6327    0.3513   23.1154 N   0  0  0  0  0  0  0  0  0  0  0  0
    7.2724   -0.5237   22.2794 N   0  0  0  0  0  0  0  0  0  0  0  0
    5.4331    0.6524   20.1633 C   0  0  0  0  0  0  0  0  0  0  0  0
    5.0093    0.6368   21.1721 H   0  0  0  0  0  0  0  0  0  0  0  0
    4.8047    1.3081   19.1089 C   0  0  0  0  0  0  0  0  0  0  0  0
    3.8739    1.8435   19.2609 H   0  0  0  0  0  0  0  0  0  0  0  0
  1  2  1  0
  2  3  2  0
  3  4  1  0
  4  5  1  0
  4  6  2  0
  6  7  1  0
  7  8  2  0
  8  9  1  0
  9 10  2  0
 10 11  1  0
 11 12  1  0
 12 13  1  0
 13 14  1  0
 13 15  1  0
 13 16  1  0
 16 17  2  0
 17 18  1  0
 17 19  1  0
 19 20  1  0
 19 21  2  0
 21 22  1  0
 21 23  1  0
 23 24  1  0
 23 25  2  0
 25 26  1  0
 12 27  2  0
 27 28  1  0
  6 29  1  0
 29 30  1  0
 29 31  2  0
 31 32  1  0
 31  2  1  0
 28  7  1  0
 28 10  1  0
 25 16  1  0
M  END
>  <cnnaffinity>  (1) 
-5.4426

>  <filename>  (1) 
Clc1ccccc1Cc1nn2c(-c3cccnc3)nnc2s1

$$$$
