
     RDKit          3D

 33 35  0  0  0  0  0  0  0  0999 V2000
    4.9191    1.7754   17.0009 H   0  0  0  0  0  0  0  0  0  0  0  0
    5.4099    1.2889   17.8439 C   0  0  0  0  0  0  0  0  0  0  0  0
    6.5702    0.6670   17.5901 N   0  0  0  0  0  0  0  0  0  0  0  0
    7.1688    0.0455   18.6152 C   0  0  0  0  0  0  0  0  0  0  0  0
    8.1185   -0.4311   18.3803 H   0  0  0  0  0  0  0  0  0  0  0  0
    6.6459   -0.0059   19.9124 C   0  0  0  0  0  0  0  0  0  0  0  0
    7.3403   -0.7764   20.9701 C   0  0  0  0  0  0  0  0  0  0  0  0
    6.6588   -1.8283   21.4508 N   0  0  0  0  0  0  0  0  0  0  0  0
    7.2462   -2.5624   22.4029 C   0  0  0  0  0  0  0  0  0  0  0  0
    6.6786   -3.4113   22.7650 H   0  0  0  0  0  0  0  0  0  0  0  0
    8.5088   -2.2829   22.9305 C   0  0  0  0  0  0  0  0  0  0  0  0
    8.9306   -2.9105   23.7031 H   0  0  0  0  0  0  0  0  0  0  0  0
    9.2005   -1.1772   22.4482 C   0  0  0  0  0  0  0  0  0  0  0  0
   10.1794   -0.9189   22.8523 H   0  0  0  0  0  0  0  0  0  0  0  0
    8.6244   -0.3989   21.4364 C   0  0  0  0  0  0  0  0  0  0  0  0
    9.3543    0.8777   21.0234 C   0  0  0  0  0  0  0  0  0  0  0  0
    8.9624    1.2313   20.0701 H   0  0  0  0  0  0  0  0  0  0  0  0
   10.4163    0.6569   20.8763 H   0  0  0  0  0  0  0  0  0  0  0  0
    9.1940    1.9911   22.0434 C   0  0  0  0  0  0  0  0  0  0  0  0
    7.9852    2.7115   22.0830 C   0  0  0  0  0  0  0  0  0  0  0  0
    7.2112    2.4855   21.3513 H   0  0  0  0  0  0  0  0  0  0  0  0
    7.7595    3.7055   23.0363 C   0  0  0  0  0  0  0  0  0  0  0  0
    6.8239    4.2571   23.0396 H   0  0  0  0  0  0  0  0  0  0  0  0
    8.7496    3.9960   23.9796 C   0  0  0  0  0  0  0  0  0  0  0  0
    8.5863    4.7716   24.7206 H   0  0  0  0  0  0  0  0  0  0  0  0
    9.9538    3.2934   23.9708 C   0  0  0  0  0  0  0  0  0  0  0  0
   10.7370    3.5116   24.6872 H   0  0  0  0  0  0  0  0  0  0  0  0
   10.1651    2.3034   23.0092 C   0  0  0  0  0  0  0  0  0  0  0  0
   11.7017    1.4687   23.0466 Cl  0  0  0  0  0  0  0  0  0  0  0  0
    5.4344    0.6474   20.1630 C   0  0  0  0  0  0  0  0  0  0  0  0
    4.9986    0.6277   21.1674 H   0  0  0  0  0  0  0  0  0  0  0  0
    4.8089    1.3140   19.1093 C   0  0  0  0  0  0  0  0  0  0  0  0
    3.8742    1.8444   19.2625 H   0  0  0  0  0  0  0  0  0  0  0  0
  1  2  1  0
  2  3  2  0
  3  4  1  0
  4  5  1  0
  4  6  2  0
  6  7  1  0
  7  8  2  0
  8  9  1  0
  9 10  1  0
  9 11  2  0
 11 12  1  0
 11 13  1  0
 13 14  1  0
 13 15  2  0
 15 16  1  0
 16 17  1  0
 16 18  1  0
 16 19  1  0
 19 20  2  0
 20 21  1  0
 20 22  1  0
 22 23  1  0
 22 24  2  0
 24 25  1  0
 24 26  1  0
 26 27  1  0
 26 28  2  0
 28 29  1  0
  6 30  1  0
 30 31  1  0
 30 32  2  0
 32 33  1  0
 32  2  1  0
 15  7  1  0
 28 19  1  0
M  END
>  <cnnaffinity>  (1) 
-5.58637

>  <filename>  (1) 
Clc1ccccc1Cc1cccnc1-c1cccnc1

$$$$
