
     RDKit          3D

 35 37  0  0  0  0  0  0  0  0999 V2000
    8.3470    1.1081   23.6591 H   0  0  0  0  0  0  0  0  0  0  0  0
    8.0164    0.9476   22.6267 C   0  0  0  0  0  0  0  0  0  0  0  0
    7.8426   -0.3164   22.2234 C   0  0  0  0  0  0  0  0  0  0  0  0
    7.3044   -0.8607   20.9550 C   0  0  0  0  0  0  0  0  0  0  0  0
    6.6023   -0.0660   19.9142 C   0  0  0  0  0  0  0  0  0  0  0  0
    7.1406   -0.0618   18.6250 C   0  0  0  0  0  0  0  0  0  0  0  0
    8.0497   -0.6215   18.4115 H   0  0  0  0  0  0  0  0  0  0  0  0
    6.6113    0.6148   17.6008 N   0  0  0  0  0  0  0  0  0  0  0  0
    5.4778    1.2977   17.8308 C   0  0  0  0  0  0  0  0  0  0  0  0
    5.0590    1.8336   16.9810 H   0  0  0  0  0  0  0  0  0  0  0  0
    4.8344    1.3247   19.0715 C   0  0  0  0  0  0  0  0  0  0  0  0
    3.9130    1.8839   19.1876 H   0  0  0  0  0  0  0  0  0  0  0  0
    5.4074    0.6325   20.1401 C   0  0  0  0  0  0  0  0  0  0  0  0
    4.9426    0.6465   21.1274 H   0  0  0  0  0  0  0  0  0  0  0  0
    7.4802   -2.1226   20.8048 N   0  0  0  0  0  0  0  0  0  0  0  0
    8.0903   -2.6848   22.0171 C   0  0  0  0  0  0  0  0  0  0  0  0
    9.0366   -3.1644   21.7484 H   0  0  0  0  0  0  0  0  0  0  0  0
    7.4312   -3.4557   22.4298 H   0  0  0  0  0  0  0  0  0  0  0  0
    8.2989   -1.5286   23.0160 C   0  0  0  0  0  0  0  0  0  0  0  0
    9.3464   -1.4341   23.3214 H   0  0  0  0  0  0  0  0  0  0  0  0
    7.6901   -1.6597   23.9159 H   0  0  0  0  0  0  0  0  0  0  0  0
    7.8537    2.2018   21.7929 C   0  0  0  0  0  0  0  0  0  0  0  0
    6.7844    2.4142   21.6667 H   0  0  0  0  0  0  0  0  0  0  0  0
    8.2305    2.0208   20.7750 H   0  0  0  0  0  0  0  0  0  0  0  0
    8.5452    3.3950   22.4411 C   0  0  0  0  0  0  0  0  0  0  0  0
    9.9487    3.4657   22.4877 C   0  0  0  0  0  0  0  0  0  0  0  0
   10.5345    2.6894   22.0000 H   0  0  0  0  0  0  0  0  0  0  0  0
   10.6073    4.5153   23.1361 C   0  0  0  0  0  0  0  0  0  0  0  0
   11.6906    4.5608   23.1637 H   0  0  0  0  0  0  0  0  0  0  0  0
    9.8551    5.5002   23.7801 C   0  0  0  0  0  0  0  0  0  0  0  0
   10.6789    6.7575   24.6610 Cl  0  0  0  0  0  0  0  0  0  0  0  0
    8.4601    5.4421   23.7798 C   0  0  0  0  0  0  0  0  0  0  0  0
    7.8912    6.1706   24.3471 H   0  0  0  0  0  0  0  0  0  0  0  0
    7.8179    4.4071   23.0857 C   0  0  0  0  0  0  0  0  0  0  0  0
    6.7300    4.3687   23.0980 H   0  0  0  0  0  0  0  0  0  0  0  0
  1  2  1  0
  2  3  2  3
  3  4  1  0
  4  5  1  0
  5  6  2  0
  6  7  1  0
  6  8  1  0
  8  9  2  0
  9 10  1  0
  9 11  1  0
 11 12  1  0
 11 13  2  0
 13 14  1  0
  4 15  2  0
 15 16  1  0
 16 17  1  0
 16 18  1  0
 16 19  1  0
 19 20  1  0
 19 21  1  0
  2 22  1  0
 22 23  1  0
 22 24  1  0
 22 25  1  0
 25 26  2  0
 26 27  1  0
 26 28  1  0
 28 29  1  0
 28 30  2  0
 30 31  1  0
 30 32  1  0
 32 33  1  0
 32 34  2  0
 34 35  1  0
 19  3  1  0
 34 25  1  0
 13  5  1  0
M  END
>  <cnnaffinity>  (1) 
-5.21072

>  <filename>  (1) 
Clc1ccc(CC=C2CCN=C2c2cccnc2)cc1

$$$$
