
     RDKit          3D

 35 38  0  0  0  0  0  0  0  0999 V2000
    4.9675    1.8494   16.9086 H   0  0  0  0  0  0  0  0  0  0  0  0
    5.3999    1.3041   17.7460 C   0  0  0  0  0  0  0  0  0  0  0  0
    6.5391    0.6407   17.4960 N   0  0  0  0  0  0  0  0  0  0  0  0
    7.1187    0.0086   18.5212 C   0  0  0  0  0  0  0  0  0  0  0  0
    8.0259   -0.5410   18.2819 H   0  0  0  0  0  0  0  0  0  0  0  0
    6.6220    0.0265   19.8409 C   0  0  0  0  0  0  0  0  0  0  0  0
    7.3887   -0.5927   20.9328 C   0  0  0  0  0  0  0  0  0  0  0  0
    8.1538   -1.6643   20.7181 N   0  0  0  0  0  0  0  0  0  0  0  0
    8.6513   -1.9364   21.9218 N   0  0  0  0  0  0  0  0  0  0  0  0
    8.2857   -1.1120   22.9013 C   0  0  0  0  0  0  0  0  0  0  0  0
    7.4365   -0.1927   22.3139 C   0  0  0  0  0  0  0  0  0  0  0  0
    6.9565    1.0290   22.9681 C   0  0  0  0  0  0  0  0  0  0  0  0
    7.2855    2.2671   22.3893 C   0  0  0  0  0  0  0  0  0  0  0  0
    7.8177    2.2660   21.4397 H   0  0  0  0  0  0  0  0  0  0  0  0
    6.9729    3.4679   23.0158 C   0  0  0  0  0  0  0  0  0  0  0  0
    7.3023    4.4013   22.5718 H   0  0  0  0  0  0  0  0  0  0  0  0
    6.2728    3.4607   24.2238 C   0  0  0  0  0  0  0  0  0  0  0  0
    6.0336    4.4007   24.7133 H   0  0  0  0  0  0  0  0  0  0  0  0
    5.9081    2.2511   24.8154 C   0  0  0  0  0  0  0  0  0  0  0  0
    5.3700    2.2417   25.7586 H   0  0  0  0  0  0  0  0  0  0  0  0
    6.2716    1.0468   24.2034 C   0  0  0  0  0  0  0  0  0  0  0  0
    5.8392   -0.4252   25.0384 Cl  0  0  0  0  0  0  0  0  0  0  0  0
    9.0762   -1.3822   24.1543 C   0  0  0  0  0  0  0  0  0  0  0  0
    8.4302   -1.6884   24.9797 H   0  0  0  0  0  0  0  0  0  0  0  0
    9.6236   -0.4897   24.4732 H   0  0  0  0  0  0  0  0  0  0  0  0
   10.0570   -2.4957   23.7028 C   0  0  0  0  0  0  0  0  0  0  0  0
   11.0493   -2.0749   23.5720 H   0  0  0  0  0  0  0  0  0  0  0  0
   10.1269   -3.2998   24.4362 H   0  0  0  0  0  0  0  0  0  0  0  0
    9.5841   -2.9651   22.3002 C   0  0  0  0  0  0  0  0  0  0  0  0
    9.0822   -3.9354   22.2952 H   0  0  0  0  0  0  0  0  0  0  0  0
   10.4049   -2.9499   21.5895 H   0  0  0  0  0  0  0  0  0  0  0  0
    5.3888    0.6632   20.0650 C   0  0  0  0  0  0  0  0  0  0  0  0
    4.9171    0.6476   21.0520 H   0  0  0  0  0  0  0  0  0  0  0  0
    4.7762    1.3162   18.9977 C   0  0  0  0  0  0  0  0  0  0  0  0
    3.8403    1.8483   19.1219 H   0  0  0  0  0  0  0  0  0  0  0  0
  1  2  1  0
  2  3  2  0
  3  4  1  0
  4  5  1  0
  4  6  2  0
  6  7  1  0
  7  8  2  0
  8  9  1  0
  9 10  1  0
 10 11  2  0
 11 12  1  0
 12 13  2  0
 13 14  1  0
 13 15  1  0
 15 16  1  0
 15 17  2  0
 17 18  1  0
 17 19  1  0
 19 20  1  0
 19 21  2  0
 21 22  1  0
 10 23  1  0
 23 24  1  0
 23 25  1  0
 23 26  1  0
 26 27  1  0
 26 28  1  0
 26 29  1  0
 29 30  1  0
 29 31  1  0
  6 32  1  0
 32 33  1  0
 32 34  2  0
 34 35  1  0
 34  2  1  0
 11  7  1  0
 21 12  1  0
 29  9  1  0
M  END
>  <cnnaffinity>  (1) 
-5.53393

>  <filename>  (1) 
Clc1ccccc1-c1c(-c2cccnc2)nn2c1CCC2

$$$$
