
     RDKit          3D

 33 35  0  0  0  0  0  0  0  0999 V2000
    5.0134    1.7708   16.9279 H   0  0  0  0  0  0  0  0  0  0  0  0
    5.4623    1.2977   17.7974 C   0  0  0  0  0  0  0  0  0  0  0  0
    6.6241    0.6593   17.5829 N   0  0  0  0  0  0  0  0  0  0  0  0
    7.1971    0.0716   18.6405 C   0  0  0  0  0  0  0  0  0  0  0  0
    8.1207   -0.4735   18.4344 H   0  0  0  0  0  0  0  0  0  0  0  0
    6.6769    0.0875   19.9423 C   0  0  0  0  0  0  0  0  0  0  0  0
    7.3913   -0.6187   21.0785 C   0  0  0  0  0  0  0  0  0  0  0  0
    6.7442   -1.4140   21.4646 H   0  0  0  0  0  0  0  0  0  0  0  0
    8.2969   -1.1151   20.7134 H   0  0  0  0  0  0  0  0  0  0  0  0
    7.7349    0.2349   22.2131 N   0  0  0  0  0  0  0  0  0  0  0  0
    6.9781    0.4272   23.3364 C   0  0  0  0  0  0  0  0  0  0  0  0
    6.1460   -0.2173   23.6018 H   0  0  0  0  0  0  0  0  0  0  0  0
    7.4326    1.4156   24.0497 N   0  0  0  0  0  0  0  0  0  0  0  0
    8.5415    1.8994   23.4018 N   0  0  0  0  0  0  0  0  0  0  0  0
    8.7277    1.1805   22.3253 C   0  0  0  0  0  0  0  0  0  0  0  0
    9.9074    1.3265   21.4084 C   0  0  0  0  0  0  0  0  0  0  0  0
   10.2084    2.3778   21.4496 H   0  0  0  0  0  0  0  0  0  0  0  0
    9.5669    1.1255   20.3866 H   0  0  0  0  0  0  0  0  0  0  0  0
   11.1115    0.4491   21.7493 C   0  0  0  0  0  0  0  0  0  0  0  0
   11.2661   -0.8005   21.1403 C   0  0  0  0  0  0  0  0  0  0  0  0
   10.4663   -1.1617   20.5038 H   0  0  0  0  0  0  0  0  0  0  0  0
   12.4272   -1.5559   21.2973 C   0  0  0  0  0  0  0  0  0  0  0  0
   12.5823   -2.4450   20.7057 H   0  0  0  0  0  0  0  0  0  0  0  0
   13.4313   -1.1232   22.1611 C   0  0  0  0  0  0  0  0  0  0  0  0
   14.3375   -1.7127   22.2746 H   0  0  0  0  0  0  0  0  0  0  0  0
   13.2673    0.0668   22.8687 C   0  0  0  0  0  0  0  0  0  0  0  0
   14.0082    0.4031   23.5885 H   0  0  0  0  0  0  0  0  0  0  0  0
   12.1295    0.8490   22.6379 C   0  0  0  0  0  0  0  0  0  0  0  0
   11.9879    2.3414   23.5162 Cl  0  0  0  0  0  0  0  0  0  0  0  0
    5.4409    0.7244   20.1316 C   0  0  0  0  0  0  0  0  0  0  0  0
    4.9702    0.7227   21.1179 H   0  0  0  0  0  0  0  0  0  0  0  0
    4.8285    1.3446   19.0430 C   0  0  0  0  0  0  0  0  0  0  0  0
    3.8769    1.8577   19.1453 H   0  0  0  0  0  0  0  0  0  0  0  0
  1  2  1  0
  2  3  2  0
  3  4  1  0
  4  5  1  0
  4  6  2  0
  6  7  1  0
  7  8  1  0
  7  9  1  0
  7 10  1  0
 10 11  1  0
 11 12  1  0
 11 13  2  0
 13 14  1  0
 14 15  2  0
 15 16  1  0
 16 17  1  0
 16 18  1  0
 16 19  1  0
 19 20  2  0
 20 21  1  0
 20 22  1  0
 22 23  1  0
 22 24  2  0
 24 25  1  0
 24 26  1  0
 26 27  1  0
 26 28  2  0
 28 29  1  0
  6 30  1  0
 30 31  1  0
 30 32  2  0
 32 33  1  0
 32  2  1  0
 15 10  1  0
 28 19  1  0
M  END
>  <cnnaffinity>  (1) 
-5.79304

>  <filename>  (1) 
Clc1ccccc1Cc1nncn1Cc1cccnc1

$$$$
