
     RDKit          3D

 38 41  0  0  0  0  0  0  0  0999 V2000
    4.9819    1.8488   16.9302 H   0  0  0  0  0  0  0  0  0  0  0  0
    5.3872    1.3169   17.7924 C   0  0  0  0  0  0  0  0  0  0  0  0
    6.5355    0.6534   17.5915 N   0  0  0  0  0  0  0  0  0  0  0  0
    7.0722    0.0258   18.6481 C   0  0  0  0  0  0  0  0  0  0  0  0
    8.0038   -0.5008   18.4467 H   0  0  0  0  0  0  0  0  0  0  0  0
    6.5056   -0.0080   19.9409 C   0  0  0  0  0  0  0  0  0  0  0  0
    7.2604   -0.6124   21.0613 C   0  0  0  0  0  0  0  0  0  0  0  0
    8.6130   -0.5485   21.2873 C   0  0  0  0  0  0  0  0  0  0  0  0
    8.8183   -1.0487   22.5732 C   0  0  0  0  0  0  0  0  0  0  0  0
    7.7038   -1.4849   23.1363 N   0  0  0  0  0  0  0  0  0  0  0  0
    6.7588   -1.1898   22.1970 N   0  0  0  0  0  0  0  0  0  0  0  0
    5.7951   -1.4355   22.3942 H   0  0  0  0  0  0  0  0  0  0  0  0
   10.2639   -0.9149   22.9748 C   0  0  0  0  0  0  0  0  0  0  0  0
   10.4130   -0.6697   24.0277 H   0  0  0  0  0  0  0  0  0  0  0  0
   10.7908   -1.8569   22.7750 H   0  0  0  0  0  0  0  0  0  0  0  0
   10.7534    0.2069   22.0036 C   0  0  2  0  0  0  0  0  0  0  0  0
   11.8165    0.0676   21.7712 H   0  0  0  0  0  0  0  0  0  0  0  0
   10.5925    1.6428   22.5825 C   0  0  0  0  0  0  0  0  0  0  0  0
   11.3534    1.7953   23.3531 H   0  0  0  0  0  0  0  0  0  0  0  0
   10.8163    2.3652   21.7841 H   0  0  0  0  0  0  0  0  0  0  0  0
    9.2224    1.9604   23.1517 C   0  0  0  0  0  0  0  0  0  0  0  0
    8.1668    2.3534   22.3085 C   0  0  0  0  0  0  0  0  0  0  0  0
    8.3535    2.4614   21.2417 H   0  0  0  0  0  0  0  0  0  0  0  0
    6.8872    2.6051   22.8035 C   0  0  0  0  0  0  0  0  0  0  0  0
    6.0933    2.8972   22.1201 H   0  0  0  0  0  0  0  0  0  0  0  0
    6.6265    2.4906   24.1735 C   0  0  0  0  0  0  0  0  0  0  0  0
    5.6374    2.7005   24.5717 H   0  0  0  0  0  0  0  0  0  0  0  0
    7.6521    2.1193   25.0404 C   0  0  0  0  0  0  0  0  0  0  0  0
    7.4882    2.0362   26.1123 H   0  0  0  0  0  0  0  0  0  0  0  0
    8.9271    1.8634   24.5263 C   0  0  0  0  0  0  0  0  0  0  0  0
   10.1662    1.4431   25.6868 Cl  0  0  0  0  0  0  0  0  0  0  0  0
    9.8806    0.0080   20.7369 C   0  0  0  0  0  0  0  0  0  0  0  0
   10.3733   -0.7203   20.0882 H   0  0  0  0  0  0  0  0  0  0  0  0
    9.7329    0.9289   20.1656 H   0  0  0  0  0  0  0  0  0  0  0  0
    5.2808    0.6613   20.1150 C   0  0  0  0  0  0  0  0  0  0  0  0
    4.7834    0.6720   21.0874 H   0  0  0  0  0  0  0  0  0  0  0  0
    4.7299    1.3412   19.0273 C   0  0  0  0  0  0  0  0  0  0  0  0
    3.8114    1.9058   19.1252 H   0  0  0  0  0  0  0  0  0  0  0  0
  1  2  1  0
  2  3  2  0
  3  4  1  0
  4  5  1  0
  4  6  2  0
  6  7  1  0
  7  8  2  0
  8  9  1  0
  9 10  2  0
 10 11  1  0
 11 12  1  0
  9 13  1  0
 13 14  1  0
 13 15  1  0
 13 16  1  0
 16 17  1  6
 16 18  1  0
 18 19  1  0
 18 20  1  0
 18 21  1  0
 21 22  2  0
 22 23  1  0
 22 24  1  0
 24 25  1  0
 24 26  2  0
 26 27  1  0
 26 28  1  0
 28 29  1  0
 28 30  2  0
 30 31  1  0
 16 32  1  0
 32 33  1  0
 32 34  1  0
  6 35  1  0
 35 36  1  0
 35 37  2  0
 37 38  1  0
 37  2  1  0
 11  7  1  0
 30 21  1  0
 32  8  1  0
M  END
>  <cnnaffinity>  (1) 
-5.91476

>  <filename>  (1) 
Clc1ccccc1C[C@H]1Cc2n[nH]c(-c3cccnc3)c2C1

$$$$
