
     RDKit          3D

 28 30  0  0  0  0  0  0  0  0999 V2000
    4.9407    1.7908   16.9972 H   0  0  0  0  0  0  0  0  0  0  0  0
    5.4113    1.2835   17.8390 C   0  0  0  0  0  0  0  0  0  0  0  0
    6.5723    0.6626   17.5872 N   0  0  0  0  0  0  0  0  0  0  0  0
    7.1890    0.0403   18.5985 C   0  0  0  0  0  0  0  0  0  0  0  0
    8.1358   -0.4327   18.3448 H   0  0  0  0  0  0  0  0  0  0  0  0
    6.6780   -0.0069   19.9080 C   0  0  0  0  0  0  0  0  0  0  0  0
    7.3989   -0.6977   20.9915 C   0  0  0  0  0  0  0  0  0  0  0  0
    8.4811   -1.4084   20.7722 N   0  0  0  0  0  0  0  0  0  0  0  0
    8.8524   -1.9125   22.0199 O   0  0  0  0  0  0  0  0  0  0  0  0
    7.9758   -1.4953   22.9277 C   0  0  0  0  0  0  0  0  0  0  0  0
    8.2194   -1.9329   24.1679 O   0  0  0  0  0  0  0  0  0  0  0  0
    7.2152   -1.8621   25.1272 C   0  0  0  0  0  0  0  0  0  0  0  0
    7.6034   -1.5190   26.4216 C   0  0  0  0  0  0  0  0  0  0  0  0
    8.6540   -1.3167   26.6188 H   0  0  0  0  0  0  0  0  0  0  0  0
    6.6261   -1.4662   27.4193 C   0  0  0  0  0  0  0  0  0  0  0  0
    6.8422   -1.1511   28.4280 H   0  0  0  0  0  0  0  0  0  0  0  0
    5.3045   -1.7989   27.1203 C   0  0  0  0  0  0  0  0  0  0  0  0
    4.1281   -1.7553   28.3967 Cl  0  0  0  0  0  0  0  0  0  0  0  0
    4.9213   -2.1522   25.8266 C   0  0  0  0  0  0  0  0  0  0  0  0
    3.8791   -2.3738   25.6228 H   0  0  0  0  0  0  0  0  0  0  0  0
    5.8891   -2.1838   24.8202 C   0  0  0  0  0  0  0  0  0  0  0  0
    5.6346   -2.4516   23.7991 H   0  0  0  0  0  0  0  0  0  0  0  0
    7.0319   -0.7047   22.3631 C   0  0  0  0  0  0  0  0  0  0  0  0
    6.2073   -0.2170   22.8504 H   0  0  0  0  0  0  0  0  0  0  0  0
    5.4555    0.6404   20.1511 C   0  0  0  0  0  0  0  0  0  0  0  0
    5.0126    0.6351   21.1457 H   0  0  0  0  0  0  0  0  0  0  0  0
    4.8173    1.2985   19.1036 C   0  0  0  0  0  0  0  0  0  0  0  0
    3.8868    1.8303   19.2533 H   0  0  0  0  0  0  0  0  0  0  0  0
  1  2  1  0
  2  3  2  0
  3  4  1  0
  4  5  1  0
  4  6  2  0
  6  7  1  0
  7  8  2  0
  8  9  1  0
  9 10  1  0
 10 11  1  0
 11 12  1  0
 12 13  2  0
 13 14  1  0
 13 15  1  0
 15 16  1  0
 15 17  2  0
 17 18  1  0
 17 19  1  0
 19 20  1  0
 19 21  2  0
 21 22  1  0
 10 23  2  0
 23 24  1  0
  6 25  1  0
 25 26  1  0
 25 27  2  0
 27 28  1  0
 27  2  1  0
 23  7  1  0
 21 12  1  0
M  END
>  <cnnaffinity>  (1) 
-4.92297

>  <filename>  (1) 
Clc1ccc(Oc2cc(-c3cccnc3)no2)cc1

$$$$
