
     RDKit          3D

 30 32  0  0  0  0  0  0  0  0999 V2000
    6.8433   -3.0860   23.3315 H   0  0  0  0  0  0  0  0  0  0  0  0
    7.1750   -2.2958   22.6666 C   0  0  0  0  0  0  0  0  0  0  0  0
    6.4393   -1.7825   21.7327 N   0  0  0  0  0  0  0  0  0  0  0  0
    7.1523   -0.8532   21.0093 C   0  0  0  0  0  0  0  0  0  0  0  0
    6.4811   -0.1017   19.9452 C   0  0  0  0  0  0  0  0  0  0  0  0
    7.0660   -0.0709   18.6711 C   0  0  0  0  0  0  0  0  0  0  0  0
    7.9964   -0.6096   18.5021 H   0  0  0  0  0  0  0  0  0  0  0  0
    6.5739    0.5968   17.6205 N   0  0  0  0  0  0  0  0  0  0  0  0
    5.4446    1.2873   17.8204 C   0  0  0  0  0  0  0  0  0  0  0  0
    5.0588    1.8274   16.9561 H   0  0  0  0  0  0  0  0  0  0  0  0
    4.7749    1.3274   19.0494 C   0  0  0  0  0  0  0  0  0  0  0  0
    3.8649    1.9116   19.1300 H   0  0  0  0  0  0  0  0  0  0  0  0
    5.2919    0.6222   20.1371 C   0  0  0  0  0  0  0  0  0  0  0  0
    4.7926    0.6541   21.1099 H   0  0  0  0  0  0  0  0  0  0  0  0
    8.4677   -0.6887   21.3885 C   0  0  0  0  0  0  0  0  0  0  0  0
    9.5849    0.0913   20.7398 C   0  0  0  0  0  0  0  0  0  0  0  0
   10.1410   -0.5945   20.0835 H   0  0  0  0  0  0  0  0  0  0  0  0
    9.1495    0.8624   20.1003 H   0  0  0  0  0  0  0  0  0  0  0  0
   10.5387    0.7579   21.7081 C   0  0  0  0  0  0  0  0  0  0  0  0
   10.1937    1.9967   22.2824 C   0  0  0  0  0  0  0  0  0  0  0  0
    9.2585    2.4798   21.9950 H   0  0  0  0  0  0  0  0  0  0  0  0
   11.0401    2.6298   23.1971 C   0  0  0  0  0  0  0  0  0  0  0  0
   10.7381    3.5639   23.6605 H   0  0  0  0  0  0  0  0  0  0  0  0
   12.2780    2.0596   23.5055 C   0  0  0  0  0  0  0  0  0  0  0  0
   12.9669    2.5651   24.1697 H   0  0  0  0  0  0  0  0  0  0  0  0
   12.6570    0.8518   22.9204 C   0  0  0  0  0  0  0  0  0  0  0  0
   13.6263    0.4083   23.1166 H   0  0  0  0  0  0  0  0  0  0  0  0
   11.7762    0.1924   22.0594 C   0  0  0  0  0  0  0  0  0  0  0  0
   12.2641   -1.3697   21.4470 Cl  0  0  0  0  0  0  0  0  0  0  0  0
    8.7794   -1.6882   22.7546 S   0  0  0  0  0  0  0  0  0  0  0  0
  1  2  1  0
  2  3  2  0
  3  4  1  0
  4  5  1  0
  5  6  2  0
  6  7  1  0
  6  8  1  0
  8  9  2  0
  9 10  1  0
  9 11  1  0
 11 12  1  0
 11 13  2  0
 13 14  1  0
  4 15  2  0
 15 16  1  0
 16 17  1  0
 16 18  1  0
 16 19  1  0
 19 20  2  0
 20 21  1  0
 20 22  1  0
 22 23  1  0
 22 24  2  0
 24 25  1  0
 24 26  1  0
 26 27  1  0
 26 28  2  0
 28 29  1  0
 15 30  1  0
 30  2  1  0
 13  5  1  0
 28 19  1  0
M  END
>  <cnnaffinity>  (1) 
-6.00692

>  <filename>  (1) 
Clc1ccccc1Cc1scnc1-c1cccnc1

$$$$
