
     RDKit          3D

 30 33  0  0  0  0  0  0  0  0999 V2000
    4.9477    1.7798   16.9748 H   0  0  0  0  0  0  0  0  0  0  0  0
    5.4038    1.2903   17.8333 C   0  0  0  0  0  0  0  0  0  0  0  0
    6.5657    0.6583   17.6027 N   0  0  0  0  0  0  0  0  0  0  0  0
    7.1575    0.0846   18.6523 C   0  0  0  0  0  0  0  0  0  0  0  0
    8.1018   -0.4120   18.4326 H   0  0  0  0  0  0  0  0  0  0  0  0
    6.6568    0.1062   19.9701 C   0  0  0  0  0  0  0  0  0  0  0  0
    7.4340   -0.5838   21.0196 C   0  0  0  0  0  0  0  0  0  0  0  0
    8.3026   -1.6010   20.8513 C   0  0  0  0  0  0  0  0  0  0  0  0
    8.7239   -1.9525   19.9272 H   0  0  0  0  0  0  0  0  0  0  0  0
    8.8702   -2.2940   22.3399 S   0  0  0  0  0  0  0  0  0  0  0  0
    8.0745   -1.0306   23.2180 C   0  0  0  0  0  0  0  0  0  0  0  0
    8.1041   -0.5289   24.4288 N   0  0  0  0  0  0  0  0  0  0  0  0
    7.3464    0.5963   24.2729 C   0  0  0  0  0  0  0  0  0  0  0  0
    7.0914    1.5563   25.3711 C   0  0  0  0  0  0  0  0  0  0  0  0
    6.3152    2.7067   25.1369 C   0  0  0  0  0  0  0  0  0  0  0  0
    5.9214    2.8839   24.1375 H   0  0  0  0  0  0  0  0  0  0  0  0
    6.0557    3.5959   26.1812 C   0  0  0  0  0  0  0  0  0  0  0  0
    5.4540    4.4784   25.9866 H   0  0  0  0  0  0  0  0  0  0  0  0
    6.5472    3.3566   27.4703 C   0  0  0  0  0  0  0  0  0  0  0  0
    6.3455    4.0464   28.2866 H   0  0  0  0  0  0  0  0  0  0  0  0
    7.3058    2.2023   27.6934 C   0  0  0  0  0  0  0  0  0  0  0  0
    7.8527    1.8414   29.3042 Cl  0  0  0  0  0  0  0  0  0  0  0  0
    7.6075    1.3161   26.6600 C   0  0  0  0  0  0  0  0  0  0  0  0
    8.2360    0.4490   26.8539 H   0  0  0  0  0  0  0  0  0  0  0  0
    6.8579    0.7966   23.0513 N   0  0  0  0  0  0  0  0  0  0  0  0
    7.3298   -0.2782   22.3805 N   0  0  0  0  0  0  0  0  0  0  0  0
    5.4206    0.7498   20.1869 C   0  0  0  0  0  0  0  0  0  0  0  0
    4.9855    0.7938   21.1890 H   0  0  0  0  0  0  0  0  0  0  0  0
    4.7896    1.3381   19.0901 C   0  0  0  0  0  0  0  0  0  0  0  0
    3.8363    1.8476   19.1927 H   0  0  0  0  0  0  0  0  0  0  0  0
  1  2  1  0
  2  3  2  0
  3  4  1  0
  4  5  1  0
  4  6  2  0
  6  7  1  0
  7  8  2  0
  8  9  1  0
  8 10  1  0
 10 11  1  0
 11 12  2  0
 12 13  1  0
 13 14  1  0
 14 15  2  0
 15 16  1  0
 15 17  1  0
 17 18  1  0
 17 19  2  0
 19 20  1  0
 19 21  1  0
 21 22  1  0
 21 23  2  0
 23 24  1  0
 13 25  2  0
 25 26  1  0
  6 27  1  0
 27 28  1  0
 27 29  2  0
 29 30  1  0
 29  2  1  0
 26  7  1  0
 26 11  1  0
 23 14  1  0
M  END
>  <cnnaffinity>  (1) 
-5.19655

>  <filename>  (1) 
Clc1cccc(-c2nc3scc(-c4cccnc4)n3n2)c1

$$$$
