
     RDKit          3D

 28 30  0  0  0  0  0  0  0  0999 V2000
    4.9130    1.7908   16.9852 H   0  0  0  0  0  0  0  0  0  0  0  0
    5.3935    1.3004   17.8251 C   0  0  0  0  0  0  0  0  0  0  0  0
    6.5560    0.6849   17.5548 N   0  0  0  0  0  0  0  0  0  0  0  0
    7.1597    0.0742   18.5789 C   0  0  0  0  0  0  0  0  0  0  0  0
    8.1021   -0.4189   18.3576 H   0  0  0  0  0  0  0  0  0  0  0  0
    6.6603    0.0125   19.8963 C   0  0  0  0  0  0  0  0  0  0  0  0
    7.3765   -0.7035   20.9688 C   0  0  0  0  0  0  0  0  0  0  0  0
    8.7412   -1.0843   21.0535 C   0  0  0  0  0  0  0  0  0  0  0  0
    9.5057   -0.8871   20.3157 H   0  0  0  0  0  0  0  0  0  0  0  0
    9.0266   -1.7190   22.1718 N   0  0  0  0  0  0  0  0  0  0  0  0
    7.8589   -1.7642   22.8600 N   0  0  0  0  0  0  0  0  0  0  0  0
    7.7558   -2.3923   24.1410 C   0  0  0  0  0  0  0  0  0  0  0  0
    8.7823   -3.2404   24.5845 C   0  0  0  0  0  0  0  0  0  0  0  0
    9.6492   -3.3968   23.9505 H   0  0  0  0  0  0  0  0  0  0  0  0
    8.6878   -3.8534   25.8334 C   0  0  0  0  0  0  0  0  0  0  0  0
    9.4916   -4.4993   26.1710 H   0  0  0  0  0  0  0  0  0  0  0  0
    7.5806   -3.6465   26.6609 C   0  0  0  0  0  0  0  0  0  0  0  0
    7.4984   -4.1238   27.6355 H   0  0  0  0  0  0  0  0  0  0  0  0
    6.5677   -2.8046   26.2027 C   0  0  0  0  0  0  0  0  0  0  0  0
    5.1835   -2.5354   27.2189 Cl  0  0  0  0  0  0  0  0  0  0  0  0
    6.6303   -2.1719   24.9591 C   0  0  0  0  0  0  0  0  0  0  0  0
    5.8126   -1.5160   24.6734 H   0  0  0  0  0  0  0  0  0  0  0  0
    6.8680   -1.1707   22.1519 C   0  0  0  0  0  0  0  0  0  0  0  0
    5.8593   -1.1367   22.5061 H   0  0  0  0  0  0  0  0  0  0  0  0
    5.4355    0.6562   20.1474 C   0  0  0  0  0  0  0  0  0  0  0  0
    5.0083    0.6444   21.1544 H   0  0  0  0  0  0  0  0  0  0  0  0
    4.8011    1.3158   19.0940 C   0  0  0  0  0  0  0  0  0  0  0  0
    3.8696    1.8458   19.2524 H   0  0  0  0  0  0  0  0  0  0  0  0
  1  2  1  0
  2  3  2  0
  3  4  1  0
  4  5  1  0
  4  6  2  0
  6  7  1  0
  7  8  1  0
  8  9  1  0
  8 10  2  0
 10 11  1  0
 11 12  1  0
 12 13  2  0
 13 14  1  0
 13 15  1  0
 15 16  1  0
 15 17  2  0
 17 18  1  0
 17 19  1  0
 19 20  1  0
 19 21  2  0
 21 22  1  0
 11 23  1  0
 23 24  1  0
  6 25  1  0
 25 26  1  0
 25 27  2  0
 27 28  1  0
 27  2  1  0
 23  7  2  0
 21 12  1  0
M  END
>  <cnnaffinity>  (1) 
-5.0319

>  <filename>  (1) 
Clc1cccc(-n2cc(-c3cccnc3)cn2)c1

$$$$
