
     RDKit          3D

 30 32  0  0  0  0  0  0  0  0999 V2000
    4.9721    1.8205   16.9649 H   0  0  0  0  0  0  0  0  0  0  0  0
    5.4331    1.3031   17.8045 C   0  0  0  0  0  0  0  0  0  0  0  0
    6.5873    0.6677   17.5552 N   0  0  0  0  0  0  0  0  0  0  0  0
    7.1789    0.0236   18.5747 C   0  0  0  0  0  0  0  0  0  0  0  0
    8.1103   -0.4906   18.3547 H   0  0  0  0  0  0  0  0  0  0  0  0
    6.6582   -0.0103   19.8839 C   0  0  0  0  0  0  0  0  0  0  0  0
    7.2188   -0.7135   20.9290 O   0  0  0  0  0  0  0  0  0  0  0  0
    8.5814   -0.8019   21.1152 C   0  0  0  0  0  0  0  0  0  0  0  0
    9.6337    0.0420   20.6843 C   0  0  0  0  0  0  0  0  0  0  0  0
    9.5387    0.9202   20.0575 H   0  0  0  0  0  0  0  0  0  0  0  0
   10.8144   -0.3641   21.1395 N   0  0  0  0  0  0  0  0  0  0  0  0
   10.5283   -1.4633   21.8686 N   0  0  0  0  0  0  0  0  0  0  0  0
   11.2325   -1.9941   22.3689 H   0  0  0  0  0  0  0  0  0  0  0  0
    9.2148   -1.7431   21.9093 C   0  0  0  0  0  0  0  0  0  0  0  0
    8.8599   -2.8195   22.6550 O   0  0  0  0  0  0  0  0  0  0  0  0
    7.6386   -2.7862   23.3033 C   0  0  0  0  0  0  0  0  0  0  0  0
    6.9121   -3.9741   23.2931 C   0  0  0  0  0  0  0  0  0  0  0  0
    7.3549   -4.8442   22.8212 H   0  0  0  0  0  0  0  0  0  0  0  0
    5.6676   -4.0283   23.9201 C   0  0  0  0  0  0  0  0  0  0  0  0
    5.0839   -4.9446   23.8966 H   0  0  0  0  0  0  0  0  0  0  0  0
    5.1849   -2.8930   24.5767 C   0  0  0  0  0  0  0  0  0  0  0  0
    3.6015   -2.9314   25.2982 Cl  0  0  0  0  0  0  0  0  0  0  0  0
    5.9472   -1.7224   24.6485 C   0  0  0  0  0  0  0  0  0  0  0  0
    5.5719   -0.8803   25.2197 H   0  0  0  0  0  0  0  0  0  0  0  0
    7.1798   -1.6533   23.9821 C   0  0  0  0  0  0  0  0  0  0  0  0
    7.7718   -0.7402   23.9559 H   0  0  0  0  0  0  0  0  0  0  0  0
    5.4460    0.6449   20.1287 C   0  0  0  0  0  0  0  0  0  0  0  0
    5.0201    0.6468   21.1311 H   0  0  0  0  0  0  0  0  0  0  0  0
    4.8283    1.3125   19.0665 C   0  0  0  0  0  0  0  0  0  0  0  0
    3.8955    1.8469   19.2098 H   0  0  0  0  0  0  0  0  0  0  0  0
  1  2  1  0
  2  3  2  0
  3  4  1  0
  4  5  1  0
  4  6  2  0
  6  7  1  0
  7  8  1  0
  8  9  1  0
  9 10  1  0
  9 11  2  0
 11 12  1  0
 12 13  1  0
 12 14  1  0
 14 15  1  0
 15 16  1  0
 16 17  2  0
 17 18  1  0
 17 19  1  0
 19 20  1  0
 19 21  2  0
 21 22  1  0
 21 23  1  0
 23 24  1  0
 23 25  2  0
 25 26  1  0
  6 27  1  0
 27 28  1  0
 27 29  2  0
 29 30  1  0
 29  2  1  0
 14  8  2  0
 25 16  1  0
M  END
>  <cnnaffinity>  (1) 
-4.81974

>  <filename>  (1) 
Clc1ccc(Oc2[nH]ncc2Oc2cccnc2)cc1

$$$$
