
     RDKit          3D

 30 32  0  0  0  0  0  0  0  0999 V2000
    4.9672    1.7875   17.0044 H   0  0  0  0  0  0  0  0  0  0  0  0
    5.4195    1.2784   17.8508 C   0  0  0  0  0  0  0  0  0  0  0  0
    6.5779    0.6537   17.6001 N   0  0  0  0  0  0  0  0  0  0  0  0
    7.1780    0.0366   18.6214 C   0  0  0  0  0  0  0  0  0  0  0  0
    8.1292   -0.4462   18.3963 H   0  0  0  0  0  0  0  0  0  0  0  0
    6.6490   -0.0051   19.9215 C   0  0  0  0  0  0  0  0  0  0  0  0
    7.3647   -0.7149   20.9927 C   0  0  0  0  0  0  0  0  0  0  0  0
    6.8948   -0.8170   22.2012 N   0  0  0  0  0  0  0  0  0  0  0  0
    7.7455   -1.5146   23.0198 C   0  0  0  0  0  0  0  0  0  0  0  0
    7.3620   -1.6682   24.4674 C   0  0  0  0  0  0  0  0  0  0  0  0
    6.3283   -2.0309   24.5046 H   0  0  0  0  0  0  0  0  0  0  0  0
    7.9878   -2.4397   24.9253 H   0  0  0  0  0  0  0  0  0  0  0  0
    7.5069   -0.3574   25.2289 C   0  0  0  0  0  0  0  0  0  0  0  0
    6.4002    0.4891   25.4208 C   0  0  0  0  0  0  0  0  0  0  0  0
    5.4366    0.1920   25.0023 H   0  0  0  0  0  0  0  0  0  0  0  0
    6.5289    1.7219   26.0737 C   0  0  0  0  0  0  0  0  0  0  0  0
    5.6628    2.3729   26.1908 H   0  0  0  0  0  0  0  0  0  0  0  0
    7.7898    2.1439   26.5129 C   0  0  0  0  0  0  0  0  0  0  0  0
    7.9003    3.0914   27.0364 H   0  0  0  0  0  0  0  0  0  0  0  0
    8.9183    1.3579   26.2572 C   0  0  0  0  0  0  0  0  0  0  0  0
    9.9240    1.6986   26.4873 H   0  0  0  0  0  0  0  0  0  0  0  0
    8.7687    0.1172   25.6344 C   0  0  0  0  0  0  0  0  0  0  0  0
   10.2196   -0.8027   25.3295 Cl  0  0  0  0  0  0  0  0  0  0  0  0
    8.8843   -1.9700   22.4218 C   0  0  0  0  0  0  0  0  0  0  0  0
    9.6998   -2.5213   22.8735 H   0  0  0  0  0  0  0  0  0  0  0  0
    8.9199   -1.4899   20.7732 S   0  0  0  0  0  0  0  0  0  0  0  0
    5.4303    0.6531   20.1685 C   0  0  0  0  0  0  0  0  0  0  0  0
    4.9944    0.6521   21.1705 H   0  0  0  0  0  0  0  0  0  0  0  0
    4.8010    1.3054   19.1083 C   0  0  0  0  0  0  0  0  0  0  0  0
    3.8647    1.8431   19.2389 H   0  0  0  0  0  0  0  0  0  0  0  0
  1  2  1  0
  2  3  2  0
  3  4  1  0
  4  5  1  0
  4  6  2  0
  6  7  1  0
  7  8  2  0
  8  9  1  0
  9 10  1  0
 10 11  1  0
 10 12  1  0
 10 13  1  0
 13 14  2  0
 14 15  1  0
 14 16  1  0
 16 17  1  0
 16 18  2  0
 18 19  1  0
 18 20  1  0
 20 21  1  0
 20 22  2  0
 22 23  1  0
  9 24  2  0
 24 25  1  0
 24 26  1  0
  6 27  1  0
 27 28  1  0
 27 29  2  0
 29 30  1  0
 29  2  1  0
 26  7  1  0
 22 13  1  0
M  END
>  <cnnaffinity>  (1) 
-5.20601

>  <filename>  (1) 
Clc1ccccc1Cc1csc(-c2cccnc2)n1

$$$$
