
     RDKit          3D

 33 35  0  0  0  0  0  0  0  0999 V2000
    4.9158    1.8225   16.9709 H   0  0  0  0  0  0  0  0  0  0  0  0
    5.3835    1.3063   17.8079 C   0  0  0  0  0  0  0  0  0  0  0  0
    6.5388    0.6758   17.5410 N   0  0  0  0  0  0  0  0  0  0  0  0
    7.1410    0.0494   18.5618 C   0  0  0  0  0  0  0  0  0  0  0  0
    8.1024   -0.4187   18.3403 H   0  0  0  0  0  0  0  0  0  0  0  0
    6.6262   -0.0111   19.8741 C   0  0  0  0  0  0  0  0  0  0  0  0
    7.3080   -0.7519   20.9894 C   0  0  0  0  0  0  0  0  0  0  0  0
    8.5839   -0.3854   21.4844 C   0  0  0  0  0  0  0  0  0  0  0  0
    9.3280    0.8234   20.9593 C   0  0  0  0  0  0  0  0  0  0  0  0
    8.6484    1.4322   20.3572 H   0  0  0  0  0  0  0  0  0  0  0  0
   10.0943    0.3933   20.3251 H   0  0  0  0  0  0  0  0  0  0  0  0
    9.9679    1.6875   22.0198 C   0  0  0  0  0  0  0  0  0  0  0  0
   11.3360    1.5606   22.3080 C   0  0  0  0  0  0  0  0  0  0  0  0
   11.9233    0.8732   21.7029 H   0  0  0  0  0  0  0  0  0  0  0  0
   11.9381    2.3016   23.3310 C   0  0  0  0  0  0  0  0  0  0  0  0
   12.9923    2.1644   23.5533 H   0  0  0  0  0  0  0  0  0  0  0  0
   11.1692    3.2017   24.0761 C   0  0  0  0  0  0  0  0  0  0  0  0
   11.6596    3.8207   24.8214 H   0  0  0  0  0  0  0  0  0  0  0  0
    9.7967    3.3204   23.8331 C   0  0  0  0  0  0  0  0  0  0  0  0
    9.1636    3.9697   24.4331 H   0  0  0  0  0  0  0  0  0  0  0  0
    9.2131    2.5731   22.8060 C   0  0  0  0  0  0  0  0  0  0  0  0
    7.5034    2.7835   22.5111 Cl  0  0  0  0  0  0  0  0  0  0  0  0
    9.2436   -1.1117   22.3928 N   0  0  0  0  0  0  0  0  0  0  0  0
    8.6490   -2.1914   22.9097 C   0  0  0  0  0  0  0  0  0  0  0  0
    9.2273   -2.7315   23.6545 H   0  0  0  0  0  0  0  0  0  0  0  0
    7.3679   -2.6009   22.5379 C   0  0  0  0  0  0  0  0  0  0  0  0
    6.9264   -3.4593   23.0216 H   0  0  0  0  0  0  0  0  0  0  0  0
    6.6862   -1.8592   21.5684 C   0  0  0  0  0  0  0  0  0  0  0  0
    5.6854   -2.1224   21.2352 H   0  0  0  0  0  0  0  0  0  0  0  0
    5.4175    0.6493   20.1185 C   0  0  0  0  0  0  0  0  0  0  0  0
    5.0009    0.6375   21.1266 H   0  0  0  0  0  0  0  0  0  0  0  0
    4.7869    1.3276   19.0729 C   0  0  0  0  0  0  0  0  0  0  0  0
    3.8566    1.8667   19.2263 H   0  0  0  0  0  0  0  0  0  0  0  0
  1  2  1  0
  2  3  2  0
  3  4  1  0
  4  5  1  0
  4  6  2  0
  6  7  1  0
  7  8  1  0
  8  9  1  0
  9 10  1  0
  9 11  1  0
  9 12  1  0
 12 13  2  0
 13 14  1  0
 13 15  1  0
 15 16  1  0
 15 17  2  0
 17 18  1  0
 17 19  1  0
 19 20  1  0
 19 21  2  0
 21 22  1  0
  8 23  2  0
 23 24  1  0
 24 25  1  0
 24 26  2  0
 26 27  1  0
 26 28  1  0
 28 29  1  0
  6 30  1  0
 30 31  1  0
 30 32  2  0
 32 33  1  0
 32  2  1  0
 28  7  2  0
 21 12  1  0
M  END
>  <cnnaffinity>  (1) 
-5.42938

>  <filename>  (1) 
Clc1ccccc1Cc1ncccc1-c1cccnc1

$$$$
