
     RDKit          3D

 33 35  0  0  0  0  0  0  0  0999 V2000
    4.9099    1.7799   16.9964 H   0  0  0  0  0  0  0  0  0  0  0  0
    5.3988    1.2952   17.8359 C   0  0  0  0  0  0  0  0  0  0  0  0
    6.5642    0.6806   17.5673 N   0  0  0  0  0  0  0  0  0  0  0  0
    7.1748    0.0744   18.5908 C   0  0  0  0  0  0  0  0  0  0  0  0
    8.1175   -0.4280   18.3739 H   0  0  0  0  0  0  0  0  0  0  0  0
    6.6596    0.0124   19.8998 C   0  0  0  0  0  0  0  0  0  0  0  0
    7.3871   -0.6975   20.9788 C   0  0  0  0  0  0  0  0  0  0  0  0
    6.7209   -1.5350   21.8938 C   0  0  0  0  0  0  0  0  0  0  0  0
    5.6491   -1.6831   21.7816 H   0  0  0  0  0  0  0  0  0  0  0  0
    7.3288   -2.2060   22.8770 N   0  0  0  0  0  0  0  0  0  0  0  0
    8.6539   -2.0417   22.9895 C   0  0  0  0  0  0  0  0  0  0  0  0
    9.1371   -2.5792   23.7980 H   0  0  0  0  0  0  0  0  0  0  0  0
    9.4325   -1.2472   22.1367 C   0  0  0  0  0  0  0  0  0  0  0  0
   10.9252   -1.0708   22.3230 C   0  0  0  0  0  0  0  0  0  0  0  0
   11.4259   -1.1945   21.3550 H   0  0  0  0  0  0  0  0  0  0  0  0
   11.3246   -1.8521   22.9752 H   0  0  0  0  0  0  0  0  0  0  0  0
   11.2597    0.3024   22.8716 C   0  0  0  0  0  0  0  0  0  0  0  0
   11.5589    1.3624   22.0024 C   0  0  0  0  0  0  0  0  0  0  0  0
   11.5889    1.1704   20.9361 H   0  0  0  0  0  0  0  0  0  0  0  0
   11.8249    2.6479   22.4720 C   0  0  0  0  0  0  0  0  0  0  0  0
   12.0645    3.4432   21.7741 H   0  0  0  0  0  0  0  0  0  0  0  0
   11.7827    2.9059   23.8427 C   0  0  0  0  0  0  0  0  0  0  0  0
   11.9877    3.8998   24.2224 H   0  0  0  0  0  0  0  0  0  0  0  0
   11.4655    1.8796   24.7276 C   0  0  0  0  0  0  0  0  0  0  0  0
   11.4032    2.0335   25.7922 H   0  0  0  0  0  0  0  0  0  0  0  0
   11.2009    0.6034   24.2385 C   0  0  0  0  0  0  0  0  0  0  0  0
   10.7714   -0.5992   25.4070 Cl  0  0  0  0  0  0  0  0  0  0  0  0
    8.7696   -0.5631   21.1160 C   0  0  0  0  0  0  0  0  0  0  0  0
    9.3162    0.0976   20.4388 H   0  0  0  0  0  0  0  0  0  0  0  0
    5.4347    0.6477   20.1512 C   0  0  0  0  0  0  0  0  0  0  0  0
    5.0123    0.6337   21.1597 H   0  0  0  0  0  0  0  0  0  0  0  0
    4.8034    1.3149   19.1030 C   0  0  0  0  0  0  0  0  0  0  0  0
    3.8701    1.8462   19.2601 H   0  0  0  0  0  0  0  0  0  0  0  0
  1  2  1  0
  2  3  2  0
  3  4  1  0
  4  5  1  0
  4  6  2  0
  6  7  1  0
  7  8  2  0
  8  9  1  0
  8 10  1  0
 10 11  2  0
 11 12  1  0
 11 13  1  0
 13 14  1  0
 14 15  1  0
 14 16  1  0
 14 17  1  0
 17 18  2  0
 18 19  1  0
 18 20  1  0
 20 21  1  0
 20 22  2  0
 22 23  1  0
 22 24  1  0
 24 25  1  0
 24 26  2  0
 26 27  1  0
 13 28  2  0
 28 29  1  0
  6 30  1  0
 30 31  1  0
 30 32  2  0
 32 33  1  0
 32  2  1  0
 28  7  1  0
 26 17  1  0
M  END
>  <cnnaffinity>  (1) 
-5.47952

>  <filename>  (1) 
Clc1ccccc1Cc1cncc(-c2cccnc2)c1

$$$$
