
     RDKit          3D

 31 33  0  0  0  0  0  0  0  0999 V2000
    4.9621    1.7804   17.0138 H   0  0  0  0  0  0  0  0  0  0  0  0
    5.4186    1.2741   17.8580 C   0  0  0  0  0  0  0  0  0  0  0  0
    6.5797    0.6489   17.6067 N   0  0  0  0  0  0  0  0  0  0  0  0
    7.1828    0.0365   18.6334 C   0  0  0  0  0  0  0  0  0  0  0  0
    8.1331   -0.4409   18.3995 H   0  0  0  0  0  0  0  0  0  0  0  0
    6.6704   -0.0041   19.9509 C   0  0  0  0  0  0  0  0  0  0  0  0
    7.3523   -0.6443   20.9885 N   0  0  0  0  0  0  0  0  0  0  0  0
    6.7997   -0.6913   22.2341 N   0  0  0  0  0  0  0  0  0  0  0  0
    7.6070   -1.3584   22.9927 C   0  0  0  0  0  0  0  0  0  0  0  0
    7.4240   -1.6594   24.2855 O   0  0  0  0  0  0  0  0  0  0  0  0
    6.4834   -1.0090   25.0784 C   0  0  0  0  0  0  0  0  0  0  0  0
    6.1123    0.3289   24.8927 C   0  0  0  0  0  0  0  0  0  0  0  0
    6.5339    0.8837   24.0595 H   0  0  0  0  0  0  0  0  0  0  0  0
    5.1845    0.9034   25.7663 C   0  0  0  0  0  0  0  0  0  0  0  0
    4.8519    1.9296   25.6389 H   0  0  0  0  0  0  0  0  0  0  0  0
    4.6512    0.1434   26.8065 C   0  0  0  0  0  0  0  0  0  0  0  0
    3.4649    0.8563   27.8562 Cl  0  0  0  0  0  0  0  0  0  0  0  0
    5.0454   -1.1837   27.0097 C   0  0  0  0  0  0  0  0  0  0  0  0
    4.6270   -1.7413   27.8421 H   0  0  0  0  0  0  0  0  0  0  0  0
    5.9788   -1.7604   26.1434 C   0  0  0  0  0  0  0  0  0  0  0  0
    6.3380   -2.7766   26.2786 H   0  0  0  0  0  0  0  0  0  0  0  0
    8.8386   -1.8541   22.3158 C   0  0  0  0  0  0  0  0  0  0  0  0
    9.7396   -1.4843   22.8136 H   0  0  0  0  0  0  0  0  0  0  0  0
    8.8789   -2.9472   22.3566 H   0  0  0  0  0  0  0  0  0  0  0  0
    8.6388   -1.3077   20.8876 C   0  0  0  0  0  0  0  0  0  0  0  0
    8.5991   -2.1066   20.1427 H   0  0  0  0  0  0  0  0  0  0  0  0
    9.4209   -0.6063   20.5489 H   0  0  0  0  0  0  0  0  0  0  0  0
    5.4389    0.6421   20.1887 C   0  0  0  0  0  0  0  0  0  0  0  0
    5.0127    0.6237   21.1916 H   0  0  0  0  0  0  0  0  0  0  0  0
    4.8150    1.2928   19.1223 C   0  0  0  0  0  0  0  0  0  0  0  0
    3.8795    1.8277   19.2629 H   0  0  0  0  0  0  0  0  0  0  0  0
  1  2  1  0
  2  3  2  0
  3  4  1  0
  4  5  1  0
  4  6  2  0
  6  7  1  0
  7  8  1  0
  8  9  2  0
  9 10  1  0
 10 11  1  0
 11 12  2  0
 12 13  1  0
 12 14  1  0
 14 15  1  0
 14 16  2  0
 16 17  1  0
 16 18  1  0
 18 19  1  0
 18 20  2  0
 20 21  1  0
  9 22  1  0
 22 23  1  0
 22 24  1  0
 22 25  1  0
 25 26  1  0
 25 27  1  0
  6 28  1  0
 28 29  1  0
 28 30  2  0
 30 31  1  0
 30  2  1  0
 25  7  1  0
 20 11  1  0
M  END
>  <cnnaffinity>  (1) 
-4.83546

>  <filename>  (1) 
Clc1ccc(OC2=NN(c3cccnc3)CC2)cc1

$$$$
