
     RDKit          3D

 34 37  0  0  0  0  0  0  0  0999 V2000
    4.9703    1.8423   16.9384 H   0  0  0  0  0  0  0  0  0  0  0  0
    5.3865    1.3083   17.7890 C   0  0  0  0  0  0  0  0  0  0  0  0
    6.5439    0.6595   17.5859 N   0  0  0  0  0  0  0  0  0  0  0  0
    7.0899    0.0293   18.6371 C   0  0  0  0  0  0  0  0  0  0  0  0
    8.0401   -0.4657   18.4259 H   0  0  0  0  0  0  0  0  0  0  0  0
    6.5106   -0.0205   19.9249 C   0  0  0  0  0  0  0  0  0  0  0  0
    7.2537   -0.6459   21.0450 C   0  0  0  0  0  0  0  0  0  0  0  0
    8.6074   -0.5976   21.2809 C   0  0  0  0  0  0  0  0  0  0  0  0
    8.8184   -1.1857   22.5217 C   0  0  0  0  0  0  0  0  0  0  0  0
    7.7025   -1.6453   23.0551 N   0  0  0  0  0  0  0  0  0  0  0  0
    6.7515   -1.2982   22.1429 N   0  0  0  0  0  0  0  0  0  0  0  0
    5.7822   -1.4741   22.3856 H   0  0  0  0  0  0  0  0  0  0  0  0
   10.2503   -1.0977   22.9617 C   0  0  0  0  0  0  0  0  0  0  0  0
   10.6886   -2.0898   23.0815 H   0  0  0  0  0  0  0  0  0  0  0  0
   10.3607   -0.5977   23.9298 H   0  0  0  0  0  0  0  0  0  0  0  0
   10.9429   -0.2925   21.8038 C   0  0  2  0  0  0  0  0  0  0  0  0
   11.7304   -0.9256   21.3809 H   0  0  0  0  0  0  0  0  0  0  0  0
   11.5565    0.9990   22.3047 C   0  0  0  0  0  0  0  0  0  0  0  0
   10.7490    2.0088   22.8488 C   0  0  0  0  0  0  0  0  0  0  0  0
    9.6710    1.8542   22.9130 H   0  0  0  0  0  0  0  0  0  0  0  0
   11.2109    3.1819   23.3129 N   0  0  0  0  0  0  0  0  0  0  0  0
   12.5152    3.3933   23.2334 C   0  0  0  0  0  0  0  0  0  0  0  0
   13.1155    4.9228   23.8144 Cl  0  0  0  0  0  0  0  0  0  0  0  0
   13.4351    2.4701   22.7305 C   0  0  0  0  0  0  0  0  0  0  0  0
   14.4902    2.7108   22.6635 H   0  0  0  0  0  0  0  0  0  0  0  0
   12.9366    1.2514   22.2787 C   0  0  0  0  0  0  0  0  0  0  0  0
   13.6148    0.4911   21.9002 H   0  0  0  0  0  0  0  0  0  0  0  0
    9.8631   -0.0670   20.6883 C   0  0  0  0  0  0  0  0  0  0  0  0
   10.1257   -0.6157   19.7816 H   0  0  0  0  0  0  0  0  0  0  0  0
    9.7699    0.9821   20.3817 H   0  0  0  0  0  0  0  0  0  0  0  0
    5.2919    0.6599   20.1010 C   0  0  0  0  0  0  0  0  0  0  0  0
    4.8261    0.7096   21.0854 H   0  0  0  0  0  0  0  0  0  0  0  0
    4.7256    1.3351   19.0207 C   0  0  0  0  0  0  0  0  0  0  0  0
    3.8099    1.9071   19.1321 H   0  0  0  0  0  0  0  0  0  0  0  0
  1  2  1  0
  2  3  2  0
  3  4  1  0
  4  5  1  0
  4  6  2  0
  6  7  1  0
  7  8  2  0
  8  9  1  0
  9 10  2  0
 10 11  1  0
 11 12  1  0
  9 13  1  0
 13 14  1  0
 13 15  1  0
 13 16  1  0
 16 17  1  6
 16 18  1  0
 18 19  2  0
 19 20  1  0
 19 21  1  0
 21 22  2  0
 22 23  1  0
 22 24  1  0
 24 25  1  0
 24 26  2  0
 26 27  1  0
 16 28  1  0
 28 29  1  0
 28 30  1  0
  6 31  1  0
 31 32  1  0
 31 33  2  0
 33 34  1  0
 33  2  1  0
 11  7  1  0
 26 18  1  0
 28  8  1  0
M  END
>  <cnnaffinity>  (1) 
-5.76628

>  <filename>  (1) 
Clc1ccc([C@H]2Cc3n[nH]c(-c4cccnc4)c3C2)cn1

$$$$
