
     RDKit          3D

 32 34  0  0  0  0  0  0  0  0999 V2000
    4.9746    1.8182   16.9190 H   0  0  0  0  0  0  0  0  0  0  0  0
    5.4556    1.3066   17.7480 C   0  0  0  0  0  0  0  0  0  0  0  0
    6.6062    0.6712   17.4633 N   0  0  0  0  0  0  0  0  0  0  0  0
    7.2215    0.0423   18.4751 C   0  0  0  0  0  0  0  0  0  0  0  0
    8.1410   -0.4792   18.2052 H   0  0  0  0  0  0  0  0  0  0  0  0
    6.7473    0.0052   19.8017 C   0  0  0  0  0  0  0  0  0  0  0  0
    7.4841   -0.6760   20.8857 C   0  0  0  0  0  0  0  0  0  0  0  0
    8.8771   -0.9932   20.9625 C   0  0  0  0  0  0  0  0  0  0  0  0
    9.6234   -0.7895   20.2045 H   0  0  0  0  0  0  0  0  0  0  0  0
    9.1014   -1.6079   22.1685 C   0  0  0  0  0  0  0  0  0  0  0  0
   10.0148   -1.9876   22.6097 H   0  0  0  0  0  0  0  0  0  0  0  0
    7.9095   -1.6838   22.8583 N   0  0  0  0  0  0  0  0  0  0  0  0
    7.6883   -2.3999   24.1231 C   0  0  0  0  0  0  0  0  0  0  0  0
    8.5055   -2.1588   24.8125 H   0  0  0  0  0  0  0  0  0  0  0  0
    6.7658   -2.0246   24.5762 H   0  0  0  0  0  0  0  0  0  0  0  0
    7.5868   -3.9099   23.9262 C   0  0  0  0  0  0  0  0  0  0  0  0
    8.6889   -4.7497   24.1621 C   0  0  0  0  0  0  0  0  0  0  0  0
    9.5522   -4.3351   24.6762 H   0  0  0  0  0  0  0  0  0  0  0  0
    8.7030   -6.0770   23.7212 C   0  0  0  0  0  0  0  0  0  0  0  0
    9.5524   -6.7197   23.9435 H   0  0  0  0  0  0  0  0  0  0  0  0
    7.6162   -6.5667   22.9953 C   0  0  0  0  0  0  0  0  0  0  0  0
    7.6302   -7.5770   22.5988 H   0  0  0  0  0  0  0  0  0  0  0  0
    6.4621   -5.7938   22.8486 C   0  0  0  0  0  0  0  0  0  0  0  0
    5.5902   -6.1681   22.3237 H   0  0  0  0  0  0  0  0  0  0  0  0
    6.4344   -4.5035   23.3825 C   0  0  0  0  0  0  0  0  0  0  0  0
    4.8937   -3.6770   23.4110 Cl  0  0  0  0  0  0  0  0  0  0  0  0
    6.9345   -1.1379   22.0614 C   0  0  0  0  0  0  0  0  0  0  0  0
    5.9053   -1.1496   22.3741 H   0  0  0  0  0  0  0  0  0  0  0  0
    5.5281    0.6575   20.0578 C   0  0  0  0  0  0  0  0  0  0  0  0
    5.1195    0.6627   21.0685 H   0  0  0  0  0  0  0  0  0  0  0  0
    4.8728    1.3182   19.0185 C   0  0  0  0  0  0  0  0  0  0  0  0
    3.9328    1.8366   19.1877 H   0  0  0  0  0  0  0  0  0  0  0  0
  1  2  1  0
  2  3  2  0
  3  4  1  0
  4  5  1  0
  4  6  2  0
  6  7  1  0
  7  8  1  0
  8  9  1  0
  8 10  2  0
 10 11  1  0
 10 12  1  0
 12 13  1  0
 13 14  1  0
 13 15  1  0
 13 16  1  0
 16 17  2  0
 17 18  1  0
 17 19  1  0
 19 20  1  0
 19 21  2  0
 21 22  1  0
 21 23  1  0
 23 24  1  0
 23 25  2  0
 25 26  1  0
 12 27  1  0
 27 28  1  0
  6 29  1  0
 29 30  1  0
 29 31  2  0
 31 32  1  0
 31  2  1  0
 27  7  2  0
 25 16  1  0
M  END
>  <cnnaffinity>  (1) 
-5.20077

>  <filename>  (1) 
Clc1ccccc1Cn1ccc(-c2cccnc2)c1

$$$$
