
     RDKit          3D

 30 32  0  0  0  0  0  0  0  0999 V2000
    4.9284    1.7813   16.9910 H   0  0  0  0  0  0  0  0  0  0  0  0
    5.4085    1.2933   17.8359 C   0  0  0  0  0  0  0  0  0  0  0  0
    6.5680    0.6680   17.5836 N   0  0  0  0  0  0  0  0  0  0  0  0
    7.1588    0.0530   18.6137 C   0  0  0  0  0  0  0  0  0  0  0  0
    8.1056   -0.4285   18.3784 H   0  0  0  0  0  0  0  0  0  0  0  0
    6.6234   -0.0014   19.9125 C   0  0  0  0  0  0  0  0  0  0  0  0
    7.3091   -0.7334   20.9810 C   0  0  0  0  0  0  0  0  0  0  0  0
    6.6669   -1.4795   21.8470 N   0  0  0  0  0  0  0  0  0  0  0  0
    7.6213   -2.0056   22.6858 O   0  0  0  0  0  0  0  0  0  0  0  0
    8.8187   -1.5480   22.3208 C   0  0  0  0  0  0  0  0  0  0  0  0
    9.6560   -1.8882   22.9126 H   0  0  0  0  0  0  0  0  0  0  0  0
    8.7090   -0.7248   21.2502 C   0  0  0  0  0  0  0  0  0  0  0  0
    9.8046    0.0262   20.5710 C   0  0  0  0  0  0  0  0  0  0  0  0
   10.2144   -0.6350   19.8142 H   0  0  0  0  0  0  0  0  0  0  0  0
    9.4008    0.8895   20.0352 H   0  0  0  0  0  0  0  0  0  0  0  0
   10.8833    0.4836   21.5215 C   0  0  0  0  0  0  0  0  0  0  0  0
   10.7009    1.6872   22.2138 C   0  0  0  0  0  0  0  0  0  0  0  0
    9.8008    2.2607   22.0082 H   0  0  0  0  0  0  0  0  0  0  0  0
   11.6265    2.1404   23.1526 C   0  0  0  0  0  0  0  0  0  0  0  0
   11.4596    3.0847   23.6610 H   0  0  0  0  0  0  0  0  0  0  0  0
   12.7667    1.3789   23.4225 C   0  0  0  0  0  0  0  0  0  0  0  0
   13.5012    1.7247   24.1397 H   0  0  0  0  0  0  0  0  0  0  0  0
   12.9698    0.1644   22.7702 C   0  0  0  0  0  0  0  0  0  0  0  0
   13.8458   -0.4514   22.9573 H   0  0  0  0  0  0  0  0  0  0  0  0
   12.0231   -0.2730   21.8399 C   0  0  0  0  0  0  0  0  0  0  0  0
   12.3387   -1.7967   21.0702 Cl  0  0  0  0  0  0  0  0  0  0  0  0
    5.4147    0.6583   20.1602 C   0  0  0  0  0  0  0  0  0  0  0  0
    4.9895    0.6322   21.1671 H   0  0  0  0  0  0  0  0  0  0  0  0
    4.8032    1.3207   19.0993 C   0  0  0  0  0  0  0  0  0  0  0  0
    3.8697    1.8503   19.2481 H   0  0  0  0  0  0  0  0  0  0  0  0
  1  2  1  0
  2  3  2  0
  3  4  1  0
  4  5  1  0
  4  6  2  0
  6  7  1  0
  7  8  2  0
  8  9  1  0
  9 10  1  0
 10 11  1  0
 10 12  2  0
 12 13  1  0
 13 14  1  0
 13 15  1  0
 13 16  1  0
 16 17  2  0
 17 18  1  0
 17 19  1  0
 19 20  1  0
 19 21  2  0
 21 22  1  0
 21 23  1  0
 23 24  1  0
 23 25  2  0
 25 26  1  0
  6 27  1  0
 27 28  1  0
 27 29  2  0
 29 30  1  0
 29  2  1  0
 12  7  1  0
 25 16  1  0
M  END
>  <cnnaffinity>  (1) 
-5.62747

>  <filename>  (1) 
Clc1ccccc1Cc1conc1-c1cccnc1

$$$$
