
     RDKit          3D

 30 32  0  0  0  0  0  0  0  0999 V2000
    4.9518    1.9314   16.5926 H   0  0  0  0  0  0  0  0  0  0  0  0
    5.3379    1.4376   17.4809 C   0  0  0  0  0  0  0  0  0  0  0  0
    6.4723    0.7390   17.3143 N   0  0  0  0  0  0  0  0  0  0  0  0
    6.9762    0.1316   18.3903 C   0  0  0  0  0  0  0  0  0  0  0  0
    7.9050   -0.4130   18.2450 H   0  0  0  0  0  0  0  0  0  0  0  0
    6.3925    0.1807   19.6731 C   0  0  0  0  0  0  0  0  0  0  0  0
    7.1064   -0.4486   20.7885 C   0  0  0  0  0  0  0  0  0  0  0  0
    8.3210   -1.0875   20.5320 N   0  0  0  0  0  0  0  0  0  0  0  0
    8.7266   -1.4987   21.6822 C   0  0  0  0  0  0  0  0  0  0  0  0
   10.0067   -2.2179   21.9776 C   0  0  0  0  0  0  0  0  0  0  0  0
   10.3689   -2.5461   21.0060 H   0  0  0  0  0  0  0  0  0  0  0  0
    9.7749   -3.1029   22.5825 H   0  0  0  0  0  0  0  0  0  0  0  0
   11.0669   -1.3747   22.6741 C   0  0  0  0  0  0  0  0  0  0  0  0
   10.7802   -0.7998   23.9229 C   0  0  0  0  0  0  0  0  0  0  0  0
    9.8421   -1.0732   24.3943 H   0  0  0  0  0  0  0  0  0  0  0  0
   11.6640    0.0843   24.5490 C   0  0  0  0  0  0  0  0  0  0  0  0
   11.4082    0.5090   25.5179 H   0  0  0  0  0  0  0  0  0  0  0  0
   12.8826    0.3932   23.9287 C   0  0  0  0  0  0  0  0  0  0  0  0
   13.5694    1.1247   24.3480 H   0  0  0  0  0  0  0  0  0  0  0  0
   13.2281   -0.2456   22.7376 C   0  0  0  0  0  0  0  0  0  0  0  0
   14.1822   -0.0789   22.2574 H   0  0  0  0  0  0  0  0  0  0  0  0
   12.3380   -1.1324   22.1295 C   0  0  0  0  0  0  0  0  0  0  0  0
   12.8962   -1.8758   20.6561 Cl  0  0  0  0  0  0  0  0  0  0  0  0
    7.8873   -1.2080   22.6996 O   0  0  0  0  0  0  0  0  0  0  0  0
    6.8487   -0.5289   22.1166 C   0  0  0  0  0  0  0  0  0  0  0  0
    6.0539   -0.2055   22.7744 H   0  0  0  0  0  0  0  0  0  0  0  0
    5.1891    0.8922   19.8224 C   0  0  0  0  0  0  0  0  0  0  0  0
    4.6873    0.9661   20.7899 H   0  0  0  0  0  0  0  0  0  0  0  0
    4.6590    1.5320   18.7023 C   0  0  0  0  0  0  0  0  0  0  0  0
    3.7422    2.1111   18.7593 H   0  0  0  0  0  0  0  0  0  0  0  0
  1  2  1  0
  2  3  2  0
  3  4  1  0
  4  5  1  0
  4  6  2  0
  6  7  1  0
  7  8  1  0
  8  9  2  0
  9 10  1  0
 10 11  1  0
 10 12  1  0
 10 13  1  0
 13 14  2  0
 14 15  1  0
 14 16  1  0
 16 17  1  0
 16 18  2  0
 18 19  1  0
 18 20  1  0
 20 21  1  0
 20 22  2  0
 22 23  1  0
  9 24  1  0
 24 25  1  0
 25 26  1  0
  6 27  1  0
 27 28  1  0
 27 29  2  0
 29 30  1  0
 29  2  1  0
 25  7  2  0
 22 13  1  0
M  END
>  <cnnaffinity>  (1) 
-5.44697

>  <filename>  (1) 
Clc1ccccc1Cc1nc(-c2cccnc2)co1

$$$$
