
     RDKit          3D

 31 33  0  0  0  0  0  0  0  0999 V2000
    4.9127    1.7941   16.9851 H   0  0  0  0  0  0  0  0  0  0  0  0
    5.3927    1.3009   17.8230 C   0  0  0  0  0  0  0  0  0  0  0  0
    6.5532    0.6832   17.5487 N   0  0  0  0  0  0  0  0  0  0  0  0
    7.1534    0.0517   18.5616 C   0  0  0  0  0  0  0  0  0  0  0  0
    8.1141   -0.4130   18.3484 H   0  0  0  0  0  0  0  0  0  0  0  0
    6.6426    0.0009   19.8752 C   0  0  0  0  0  0  0  0  0  0  0  0
    7.3715   -0.6715   20.9484 C   0  0  0  0  0  0  0  0  0  0  0  0
    7.8130   -0.2112   22.1703 C   0  0  0  0  0  0  0  0  0  0  0  0
    7.6630    1.1833   22.6986 C   0  0  0  0  0  0  0  0  0  0  0  0
    8.5188    1.3792   23.3553 H   0  0  0  0  0  0  0  0  0  0  0  0
    7.7274    1.8917   21.8667 H   0  0  0  0  0  0  0  0  0  0  0  0
    6.3678    1.4189   23.4698 C   0  0  0  0  0  0  0  0  0  0  0  0
    6.0362    0.5394   24.5111 C   0  0  0  0  0  0  0  0  0  0  0  0
    6.7213   -0.2779   24.7152 H   0  0  0  0  0  0  0  0  0  0  0  0
    4.8680    0.6961   25.2583 C   0  0  0  0  0  0  0  0  0  0  0  0
    4.6419   -0.0041   26.0560 H   0  0  0  0  0  0  0  0  0  0  0  0
    3.9989    1.7545   24.9789 C   0  0  0  0  0  0  0  0  0  0  0  0
    3.0909    1.8863   25.5594 H   0  0  0  0  0  0  0  0  0  0  0  0
    4.3042    2.6585   23.9610 C   0  0  0  0  0  0  0  0  0  0  0  0
    3.6580    3.5010   23.7275 H   0  0  0  0  0  0  0  0  0  0  0  0
    5.4856    2.4872   23.2294 C   0  0  0  0  0  0  0  0  0  0  0  0
    5.8210    3.6602   21.9829 Cl  0  0  0  0  0  0  0  0  0  0  0  0
    8.4672   -1.2176   22.8388 N   0  0  0  0  0  0  0  0  0  0  0  0
    8.4489   -2.2543   22.0391 C   0  0  0  0  0  0  0  0  0  0  0  0
    8.8863   -3.2266   22.2416 H   0  0  0  0  0  0  0  0  0  0  0  0
    7.8161   -1.9677   20.8706 N   0  0  0  0  0  0  0  0  0  0  0  0
    7.6403   -2.5855   20.0977 H   0  0  0  0  0  0  0  0  0  0  0  0
    5.4334    0.6586   20.1403 C   0  0  0  0  0  0  0  0  0  0  0  0
    5.0236    0.6296   21.1516 H   0  0  0  0  0  0  0  0  0  0  0  0
    4.7956    1.3181   19.0893 C   0  0  0  0  0  0  0  0  0  0  0  0
    3.8643    1.8481   19.2472 H   0  0  0  0  0  0  0  0  0  0  0  0
  1  2  1  0
  2  3  2  0
  3  4  1  0
  4  5  1  0
  4  6  2  0
  6  7  1  0
  7  8  2  0
  8  9  1  0
  9 10  1  0
  9 11  1  0
  9 12  1  0
 12 13  2  0
 13 14  1  0
 13 15  1  0
 15 16  1  0
 15 17  2  0
 17 18  1  0
 17 19  1  0
 19 20  1  0
 19 21  2  0
 21 22  1  0
  8 23  1  0
 23 24  2  0
 24 25  1  0
 24 26  1  0
 26 27  1  0
  6 28  1  0
 28 29  1  0
 28 30  2  0
 30 31  1  0
 30  2  1  0
 26  7  1  0
 21 12  1  0
M  END
>  <cnnaffinity>  (1) 
-4.98516

>  <filename>  (1) 
Clc1ccccc1Cc1nc[nH]c1-c1cccnc1

$$$$
