
     RDKit          3D

 30 32  0  0  0  0  0  0  0  0999 V2000
    4.9112    1.7956   16.9824 H   0  0  0  0  0  0  0  0  0  0  0  0
    5.3889    1.3038   17.8235 C   0  0  0  0  0  0  0  0  0  0  0  0
    6.5547    0.6896   17.5560 N   0  0  0  0  0  0  0  0  0  0  0  0
    7.1597    0.0643   18.5714 C   0  0  0  0  0  0  0  0  0  0  0  0
    8.1169   -0.4033   18.3386 H   0  0  0  0  0  0  0  0  0  0  0  0
    6.6513    0.0144   19.8860 C   0  0  0  0  0  0  0  0  0  0  0  0
    7.3654   -0.6551   20.9760 C   0  0  0  0  0  0  0  0  0  0  0  0
    7.5070   -0.3236   22.3192 C   0  0  0  0  0  0  0  0  0  0  0  0
    7.0296    0.8333   22.9397 N   0  0  0  0  0  0  0  0  0  0  0  0
    6.9792    1.6510   22.3557 H   0  0  0  0  0  0  0  0  0  0  0  0
    6.8218    1.0313   24.2983 C   0  0  0  0  0  0  0  0  0  0  0  0
    6.3567   -0.0237   25.0905 C   0  0  0  0  0  0  0  0  0  0  0  0
    6.1696   -0.9825   24.6251 H   0  0  0  0  0  0  0  0  0  0  0  0
    6.1530    0.1878   26.4472 C   0  0  0  0  0  0  0  0  0  0  0  0
    5.5889   -1.1246   27.4202 Cl  0  0  0  0  0  0  0  0  0  0  0  0
    6.3849    1.4226   27.0472 C   0  0  0  0  0  0  0  0  0  0  0  0
    6.2147    1.5645   28.1077 H   0  0  0  0  0  0  0  0  0  0  0  0
    6.8329    2.4629   26.2312 C   0  0  0  0  0  0  0  0  0  0  0  0
    7.1116    4.0110   26.9562 Cl  0  0  0  0  0  0  0  0  0  0  0  0
    7.0467    2.2954   24.8623 C   0  0  0  0  0  0  0  0  0  0  0  0
    7.4039    3.1228   24.2596 H   0  0  0  0  0  0  0  0  0  0  0  0
    8.2844   -1.3768   22.8638 C   0  0  0  0  0  0  0  0  0  0  0  0
    8.6229   -1.4614   23.8863 H   0  0  0  0  0  0  0  0  0  0  0  0
    8.6021   -2.2866   21.9510 N   0  0  0  0  0  0  0  0  0  0  0  0
    8.0460   -1.8213   20.8228 N   0  0  0  0  0  0  0  0  0  0  0  0
    8.1319   -2.3584   19.9748 H   0  0  0  0  0  0  0  0  0  0  0  0
    5.4326    0.6621   20.1434 C   0  0  0  0  0  0  0  0  0  0  0  0
    5.0164    0.6261   21.1528 H   0  0  0  0  0  0  0  0  0  0  0  0
    4.7954    1.3188   19.0907 C   0  0  0  0  0  0  0  0  0  0  0  0
    3.8654    1.8483   19.2473 H   0  0  0  0  0  0  0  0  0  0  0  0
  1  2  1  0
  2  3  2  0
  3  4  1  0
  4  5  1  0
  4  6  2  0
  6  7  1  0
  7  8  2  0
  8  9  1  0
  9 10  1  0
  9 11  1  0
 11 12  2  0
 12 13  1  0
 12 14  1  0
 14 15  1  0
 14 16  2  0
 16 17  1  0
 16 18  1  0
 18 19  1  0
 18 20  2  0
 20 21  1  0
  8 22  1  0
 22 23  1  0
 22 24  2  0
 24 25  1  0
 25 26  1  0
  6 27  1  0
 27 28  1  0
 27 29  2  0
 29 30  1  0
 29  2  1  0
 25  7  1  0
 20 11  1  0
M  END
>  <cnnaffinity>  (1) 
-5.76539

>  <filename>  (1) 
Clc1cc(Cl)cc(Nc2cn[nH]c2-c2cccnc2)c1

$$$$
