
     RDKit          3D

 27 29  0  0  0  0  0  0  0  0999 V2000
    4.9122    1.7835   16.9991 H   0  0  0  0  0  0  0  0  0  0  0  0
    5.3987    1.2919   17.8419 C   0  0  0  0  0  0  0  0  0  0  0  0
    6.5551    0.6701   17.5757 N   0  0  0  0  0  0  0  0  0  0  0  0
    7.1886    0.0600   18.5842 C   0  0  0  0  0  0  0  0  0  0  0  0
    8.1360   -0.4226   18.3597 H   0  0  0  0  0  0  0  0  0  0  0  0
    6.6909    0.0231   19.9013 C   0  0  0  0  0  0  0  0  0  0  0  0
    7.2953   -0.6881   20.9510 O   0  0  0  0  0  0  0  0  0  0  0  0
    8.6297   -0.7843   21.0826 C   0  0  0  0  0  0  0  0  0  0  0  0
    9.5540   -0.0911   20.4630 N   0  0  0  0  0  0  0  0  0  0  0  0
   10.7261   -0.5356   20.9763 N   0  0  0  0  0  0  0  0  0  0  0  0
   10.5497   -1.4521   21.8417 N   0  0  0  0  0  0  0  0  0  0  0  0
    9.2029   -1.6546   21.9407 N   0  0  0  0  0  0  0  0  0  0  0  0
    8.6476   -2.6310   22.8224 C   0  0  0  0  0  0  0  0  0  0  0  0
    9.3320   -2.9713   23.9981 C   0  0  0  0  0  0  0  0  0  0  0  0
   10.2964   -2.5327   24.2370 H   0  0  0  0  0  0  0  0  0  0  0  0
    8.7518   -3.9034   24.8583 C   0  0  0  0  0  0  0  0  0  0  0  0
    9.5775   -4.3471   26.3160 Cl  0  0  0  0  0  0  0  0  0  0  0  0
    7.5210   -4.5044   24.5848 C   0  0  0  0  0  0  0  0  0  0  0  0
    7.0806   -5.2263   25.2684 H   0  0  0  0  0  0  0  0  0  0  0  0
    6.8791   -4.1475   23.4001 C   0  0  0  0  0  0  0  0  0  0  0  0
    5.3518   -4.8734   23.0270 Cl  0  0  0  0  0  0  0  0  0  0  0  0
    7.4204   -3.2254   22.5056 C   0  0  0  0  0  0  0  0  0  0  0  0
    6.8875   -2.9743   21.5981 H   0  0  0  0  0  0  0  0  0  0  0  0
    5.4674    0.6413   20.1721 C   0  0  0  0  0  0  0  0  0  0  0  0
    5.0360    0.6110   21.1746 H   0  0  0  0  0  0  0  0  0  0  0  0
    4.8216    1.3005   19.1171 C   0  0  0  0  0  0  0  0  0  0  0  0
    3.8876    1.8313   19.2687 H   0  0  0  0  0  0  0  0  0  0  0  0
  1  2  1  0
  2  3  2  0
  3  4  1  0
  4  5  1  0
  4  6  2  0
  6  7  1  0
  7  8  1  0
  8  9  2  0
  9 10  1  0
 10 11  2  0
 11 12  1  0
 12 13  1  0
 13 14  2  0
 14 15  1  0
 14 16  1  0
 16 17  1  0
 16 18  2  0
 18 19  1  0
 18 20  1  0
 20 21  1  0
 20 22  2  0
 22 23  1  0
  6 24  1  0
 24 25  1  0
 24 26  2  0
 26 27  1  0
 26  2  1  0
 12  8  1  0
 22 13  1  0
M  END
>  <cnnaffinity>  (1) 
-5.61936

>  <filename>  (1) 
Clc1cc(Cl)cc(-n2nnnc2Oc2cccnc2)c1

$$$$
