
     RDKit          3D

 32 34  0  0  0  0  0  0  0  0999 V2000
    4.9850    1.7695   16.9678 H   0  0  0  0  0  0  0  0  0  0  0  0
    5.4510    1.2904   17.8259 C   0  0  0  0  0  0  0  0  0  0  0  0
    6.6034    0.6491   17.5805 N   0  0  0  0  0  0  0  0  0  0  0  0
    7.1925    0.0378   18.6176 C   0  0  0  0  0  0  0  0  0  0  0  0
    8.1152   -0.5025   18.3948 H   0  0  0  0  0  0  0  0  0  0  0  0
    6.6834    0.0418   19.9206 C   0  0  0  0  0  0  0  0  0  0  0  0
    7.3771   -0.6657   21.0652 C   0  0  0  0  0  0  0  0  0  0  0  0
    6.7032   -1.4114   21.4945 H   0  0  0  0  0  0  0  0  0  0  0  0
    8.2724   -1.1962   20.7256 H   0  0  0  0  0  0  0  0  0  0  0  0
    7.7262    0.2272   22.1677 N   0  0  0  0  0  0  0  0  0  0  0  0
    6.8761    0.3900   23.1995 N   0  0  0  0  0  0  0  0  0  0  0  0
    7.3534    1.3255   23.9348 N   0  0  0  0  0  0  0  0  0  0  0  0
    8.4994    1.8088   23.4157 N   0  0  0  0  0  0  0  0  0  0  0  0
    8.7232    1.1273   22.3146 C   0  0  0  0  0  0  0  0  0  0  0  0
    9.8849    1.3381   21.3995 C   0  0  0  0  0  0  0  0  0  0  0  0
    9.5550    1.1794   20.3674 H   0  0  0  0  0  0  0  0  0  0  0  0
   10.1634    2.3895   21.4851 H   0  0  0  0  0  0  0  0  0  0  0  0
   11.0916    0.4695   21.7174 C   0  0  0  0  0  0  0  0  0  0  0  0
   11.2293   -0.7698   21.0845 C   0  0  0  0  0  0  0  0  0  0  0  0
   10.4200   -1.1148   20.4526 H   0  0  0  0  0  0  0  0  0  0  0  0
   12.3808   -1.5453   21.2448 C   0  0  0  0  0  0  0  0  0  0  0  0
   12.5244   -2.4368   20.6559 H   0  0  0  0  0  0  0  0  0  0  0  0
   13.3813   -1.1300   22.1247 C   0  0  0  0  0  0  0  0  0  0  0  0
   14.2803   -1.7232   22.2438 H   0  0  0  0  0  0  0  0  0  0  0  0
   13.2256    0.0540   22.8514 C   0  0  0  0  0  0  0  0  0  0  0  0
   13.9690    0.3928   23.5673 H   0  0  0  0  0  0  0  0  0  0  0  0
   12.0937    0.8464   22.6273 C   0  0  0  0  0  0  0  0  0  0  0  0
   11.9355    2.3255   23.5324 Cl  0  0  0  0  0  0  0  0  0  0  0  0
    5.4710    0.7027   20.1517 C   0  0  0  0  0  0  0  0  0  0  0  0
    5.0553    0.7174   21.1609 H   0  0  0  0  0  0  0  0  0  0  0  0
    4.8409    1.3393   19.0830 C   0  0  0  0  0  0  0  0  0  0  0  0
    3.8990    1.8652   19.2118 H   0  0  0  0  0  0  0  0  0  0  0  0
  1  2  1  0
  2  3  2  0
  3  4  1  0
  4  5  1  0
  4  6  2  0
  6  7  1  0
  7  8  1  0
  7  9  1  0
  7 10  1  0
 10 11  1  0
 11 12  2  0
 12 13  1  0
 13 14  2  0
 14 15  1  0
 15 16  1  0
 15 17  1  0
 15 18  1  0
 18 19  2  0
 19 20  1  0
 19 21  1  0
 21 22  1  0
 21 23  2  0
 23 24  1  0
 23 25  1  0
 25 26  1  0
 25 27  2  0
 27 28  1  0
  6 29  1  0
 29 30  1  0
 29 31  2  0
 31 32  1  0
 31  2  1  0
 14 10  1  0
 27 18  1  0
M  END
>  <cnnaffinity>  (1) 
-5.73745

>  <filename>  (1) 
Clc1ccccc1Cc1nnnn1Cc1cccnc1

$$$$
