
     RDKit          3D

 30 32  0  0  0  0  0  0  0  0999 V2000
    4.9099    1.7825   16.9960 H   0  0  0  0  0  0  0  0  0  0  0  0
    5.3975    1.2971   17.8377 C   0  0  0  0  0  0  0  0  0  0  0  0
    6.5622    0.6819   17.5733 N   0  0  0  0  0  0  0  0  0  0  0  0
    7.1730    0.0620   18.5901 C   0  0  0  0  0  0  0  0  0  0  0  0
    8.1208   -0.4303   18.3767 H   0  0  0  0  0  0  0  0  0  0  0  0
    6.6644   -0.0107   19.9129 C   0  0  0  0  0  0  0  0  0  0  0  0
    7.3294   -0.7076   20.9291 N   0  0  0  0  0  0  0  0  0  0  0  0
    6.7675   -1.1193   21.6704 H   0  0  0  0  0  0  0  0  0  0  0  0
    8.7120   -0.7345   21.1205 C   0  0  0  0  0  0  0  0  0  0  0  0
    9.6959    0.1593   20.6499 C   0  0  0  0  0  0  0  0  0  0  0  0
    9.5236    1.0153   20.0249 H   0  0  0  0  0  0  0  0  0  0  0  0
   10.9118   -0.1592   21.0818 N   0  0  0  0  0  0  0  0  0  0  0  0
   10.7140   -1.2557   21.8189 N   0  0  0  0  0  0  0  0  0  0  0  0
   11.4980   -1.6977   22.2727 H   0  0  0  0  0  0  0  0  0  0  0  0
    9.4161   -1.6482   21.8832 C   0  0  0  0  0  0  0  0  0  0  0  0
    8.9206   -2.8222   22.6038 C   0  0  0  0  0  0  0  0  0  0  0  0
    8.0679   -3.7042   21.9260 C   0  0  0  0  0  0  0  0  0  0  0  0
    7.8147   -3.4815   20.8946 H   0  0  0  0  0  0  0  0  0  0  0  0
    7.5723   -4.8371   22.5586 C   0  0  0  0  0  0  0  0  0  0  0  0
    6.9184   -5.5128   22.0205 H   0  0  0  0  0  0  0  0  0  0  0  0
    7.9091   -5.0974   23.8873 C   0  0  0  0  0  0  0  0  0  0  0  0
    7.5273   -5.9730   24.3947 H   0  0  0  0  0  0  0  0  0  0  0  0
    8.7414   -4.2209   24.5892 C   0  0  0  0  0  0  0  0  0  0  0  0
    9.1255   -4.5825   26.2397 Cl  0  0  0  0  0  0  0  0  0  0  0  0
    9.2391   -3.0768   23.9529 C   0  0  0  0  0  0  0  0  0  0  0  0
   10.1894   -1.9292   24.8194 Cl  0  0  0  0  0  0  0  0  0  0  0  0
    5.4436    0.6343   20.1621 C   0  0  0  0  0  0  0  0  0  0  0  0
    5.0184    0.6224   21.1688 H   0  0  0  0  0  0  0  0  0  0  0  0
    4.8114    1.3065   19.1114 C   0  0  0  0  0  0  0  0  0  0  0  0
    3.8778    1.8409   19.2651 H   0  0  0  0  0  0  0  0  0  0  0  0
  1  2  1  0
  2  3  2  0
  3  4  1  0
  4  5  1  0
  4  6  2  0
  6  7  1  0
  7  8  1  0
  7  9  1  0
  9 10  1  0
 10 11  1  0
 10 12  2  0
 12 13  1  0
 13 14  1  0
 13 15  1  0
 15 16  1  0
 16 17  2  0
 17 18  1  0
 17 19  1  0
 19 20  1  0
 19 21  2  0
 21 22  1  0
 21 23  1  0
 23 24  1  0
 23 25  2  0
 25 26  1  0
  6 27  1  0
 27 28  1  0
 27 29  2  0
 29 30  1  0
 29  2  1  0
 15  9  2  0
 25 16  1  0
M  END
>  <cnnaffinity>  (1) 
-5.98594

>  <filename>  (1) 
Clc1cccc(-c2[nH]ncc2Nc2cccnc2)c1Cl

$$$$
