
     RDKit          3D

 32 34  0  0  0  0  0  0  0  0999 V2000
    2.3677    3.1824   26.2931 Cl  0  0  0  0  0  0  0  0  0  0  0  0
    3.8591    3.2722   25.4177 C   0  0  0  0  0  0  0  0  0  0  0  0
    4.5204    4.5058   25.3067 C   0  0  0  0  0  0  0  0  0  0  0  0
    5.6755    4.6323   24.6482 N   0  0  0  0  0  0  0  0  0  0  0  0
    6.1954    3.5378   24.0753 C   0  0  0  0  0  0  0  0  0  0  0  0
    5.6010    2.2434   24.1249 C   0  0  0  0  0  0  0  0  0  0  0  0
    6.1342    1.1232   23.5164 N   0  0  0  0  0  0  0  0  0  0  0  0
    7.3538    1.1244   22.7211 C   0  0  0  0  0  0  0  0  0  0  0  0
    7.6740   -0.2392   22.1998 C   0  0  0  0  0  0  0  0  0  0  0  0
    8.3647   -1.2525   22.8193 C   0  0  0  0  0  0  0  0  0  0  0  0
    8.4172   -2.2844   21.8676 C   0  0  0  0  0  0  0  0  0  0  0  0
    7.8301   -1.9379   20.7317 N   0  0  0  0  0  0  0  0  0  0  0  0
    7.3604   -0.6891   20.9424 N   0  0  0  0  0  0  0  0  0  0  0  0
    6.6551   -0.0033   19.9144 C   0  0  0  0  0  0  0  0  0  0  0  0
    5.4405    0.6474   20.1675 C   0  0  0  0  0  0  0  0  0  0  0  0
    4.8086    1.3044   19.1091 C   0  0  0  0  0  0  0  0  0  0  0  0
    5.4055    1.2897   17.8458 C   0  0  0  0  0  0  0  0  0  0  0  0
    6.5734    0.6694   17.5998 N   0  0  0  0  0  0  0  0  0  0  0  0
    7.1772    0.0386   18.6106 C   0  0  0  0  0  0  0  0  0  0  0  0
    8.1241   -0.4425   18.3805 H   0  0  0  0  0  0  0  0  0  0  0  0
    4.9246    1.7785   16.9992 H   0  0  0  0  0  0  0  0  0  0  0  0
    3.8782    1.8392   19.2614 H   0  0  0  0  0  0  0  0  0  0  0  0
    5.0037    0.6395   21.1641 H   0  0  0  0  0  0  0  0  0  0  0  0
    8.8692   -3.2611   21.9756 H   0  0  0  0  0  0  0  0  0  0  0  0
    8.7665   -1.2483   23.8238 H   0  0  0  0  0  0  0  0  0  0  0  0
    8.2058    1.4460   23.3361 H   0  0  0  0  0  0  0  0  0  0  0  0
    7.2820    1.8584   21.9065 H   0  0  0  0  0  0  0  0  0  0  0  0
    5.6665    0.2417   23.6661 H   0  0  0  0  0  0  0  0  0  0  0  0
    4.3877    2.1231   24.8343 C   0  0  0  0  0  0  0  0  0  0  0  0
    3.8819    1.1627   24.9232 H   0  0  0  0  0  0  0  0  0  0  0  0
    7.1346    3.6750   23.5488 H   0  0  0  0  0  0  0  0  0  0  0  0
    4.1073    5.4029   25.7613 H   0  0  0  0  0  0  0  0  0  0  0  0
  1  2  1  0
  2  3  2  0
  3  4  1  0
  4  5  2  0
  5  6  1  0
  6  7  1  0
  7  8  1  0
  8  9  1  0
  9 10  2  0
 10 11  1  0
 11 12  2  0
 12 13  1  0
 13 14  1  0
 14 15  2  0
 15 16  1  0
 16 17  2  0
 17 18  1  0
 18 19  2  0
 19 20  1  0
 17 21  1  0
 16 22  1  0
 15 23  1  0
 11 24  1  0
 10 25  1  0
  8 26  1  0
  8 27  1  0
  7 28  1  0
  6 29  2  0
 29 30  1  0
  5 31  1  0
  3 32  1  0
 29  2  1  0
 13  9  1  0
 19 14  1  0
M  END
>  <cnnaffinity>  (1) 
-5.65204

>  <filename>  (1) 
Clc1cncc(NCc2ccnn2-c2cccnc2)c1

$$$$
