
     RDKit          3D

 30 32  0  0  0  0  0  0  0  0999 V2000
    4.9096    1.7821   16.9963 H   0  0  0  0  0  0  0  0  0  0  0  0
    5.3973    1.2970   17.8380 C   0  0  0  0  0  0  0  0  0  0  0  0
    6.5625    0.6824   17.5739 N   0  0  0  0  0  0  0  0  0  0  0  0
    7.1735    0.0624   18.5905 C   0  0  0  0  0  0  0  0  0  0  0  0
    8.1210   -0.4303   18.3767 H   0  0  0  0  0  0  0  0  0  0  0  0
    6.6652   -0.0089   19.9132 C   0  0  0  0  0  0  0  0  0  0  0  0
    7.3258   -0.7126   20.9273 N   0  0  0  0  0  0  0  0  0  0  0  0
    6.7664   -1.0710   21.6967 H   0  0  0  0  0  0  0  0  0  0  0  0
    8.7130   -0.7696   21.1041 C   0  0  0  0  0  0  0  0  0  0  0  0
    9.6995    0.1406   20.6670 C   0  0  0  0  0  0  0  0  0  0  0  0
    9.5253    1.0196   20.0718 H   0  0  0  0  0  0  0  0  0  0  0  0
   10.9114   -0.1816   21.1036 N   0  0  0  0  0  0  0  0  0  0  0  0
   10.7075   -1.2980   21.8143 N   0  0  0  0  0  0  0  0  0  0  0  0
   11.4983   -1.7531   22.2429 H   0  0  0  0  0  0  0  0  0  0  0  0
    9.4123   -1.7115   21.8390 C   0  0  0  0  0  0  0  0  0  0  0  0
    8.9352   -2.9057   22.5386 C   0  0  0  0  0  0  0  0  0  0  0  0
    7.8794   -3.6540   21.9885 C   0  0  0  0  0  0  0  0  0  0  0  0
    7.4565   -3.3526   21.0328 H   0  0  0  0  0  0  0  0  0  0  0  0
    7.4062   -4.7811   22.6562 C   0  0  0  0  0  0  0  0  0  0  0  0
    6.5915   -5.3573   22.2288 H   0  0  0  0  0  0  0  0  0  0  0  0
    7.9694   -5.1727   23.8758 C   0  0  0  0  0  0  0  0  0  0  0  0
    7.6067   -6.0442   24.4048 H   0  0  0  0  0  0  0  0  0  0  0  0
    9.0193   -4.4204   24.4139 C   0  0  0  0  0  0  0  0  0  0  0  0
    9.7341   -4.9038   25.9248 Cl  0  0  0  0  0  0  0  0  0  0  0  0
    9.5100   -3.2968   23.7609 C   0  0  0  0  0  0  0  0  0  0  0  0
   10.3163   -2.7177   24.2066 H   0  0  0  0  0  0  0  0  0  0  0  0
    5.4442    0.6364   20.1620 C   0  0  0  0  0  0  0  0  0  0  0  0
    5.0176    0.6227   21.1681 H   0  0  0  0  0  0  0  0  0  0  0  0
    4.8112    1.3071   19.1115 C   0  0  0  0  0  0  0  0  0  0  0  0
    3.8775    1.8410   19.2650 H   0  0  0  0  0  0  0  0  0  0  0  0
  1  2  1  0
  2  3  2  0
  3  4  1  0
  4  5  1  0
  4  6  2  0
  6  7  1  0
  7  8  1  0
  7  9  1  0
  9 10  1  0
 10 11  1  0
 10 12  2  0
 12 13  1  0
 13 14  1  0
 13 15  1  0
 15 16  1  0
 16 17  2  0
 17 18  1  0
 17 19  1  0
 19 20  1  0
 19 21  2  0
 21 22  1  0
 21 23  1  0
 23 24  1  0
 23 25  2  0
 25 26  1  0
  6 27  1  0
 27 28  1  0
 27 29  2  0
 29 30  1  0
 29  2  1  0
 15  9  2  0
 25 16  1  0
M  END
>  <cnnaffinity>  (1) 
-5.74536

>  <filename>  (1) 
Clc1cccc(-c2[nH]ncc2Nc2cccnc2)c1

$$$$
