
     RDKit          3D

 31 33  0  0  0  0  0  0  0  0999 V2000
    5.0502    1.7748   16.9443 H   0  0  0  0  0  0  0  0  0  0  0  0
    5.4560    1.3011   17.8348 C   0  0  0  0  0  0  0  0  0  0  0  0
    6.6230    0.6570   17.6673 N   0  0  0  0  0  0  0  0  0  0  0  0
    7.1540    0.0542   18.7361 C   0  0  0  0  0  0  0  0  0  0  0  0
    8.1067   -0.4617   18.5942 H   0  0  0  0  0  0  0  0  0  0  0  0
    6.5618    0.0650   20.0183 C   0  0  0  0  0  0  0  0  0  0  0  0
    7.1689   -0.6669   21.0843 N   0  0  0  0  0  0  0  0  0  0  0  0
    7.6082   -0.2346   22.3272 C   0  0  0  0  0  0  0  0  0  0  0  0
    7.3291    1.0806   22.9943 C   0  0  0  0  0  0  0  0  0  0  0  0
    6.6501    0.8659   23.8303 H   0  0  0  0  0  0  0  0  0  0  0  0
    6.8257    1.7694   22.3169 H   0  0  0  0  0  0  0  0  0  0  0  0
    8.6036    1.6974   23.5370 C   0  0  0  0  0  0  0  0  0  0  0  0
    8.9496    1.5187   24.8818 C   0  0  0  0  0  0  0  0  0  0  0  0
    8.2131    1.0640   25.5409 H   0  0  0  0  0  0  0  0  0  0  0  0
   10.2138    1.8617   25.3621 C   0  0  0  0  0  0  0  0  0  0  0  0
   10.4665    1.6545   26.3954 H   0  0  0  0  0  0  0  0  0  0  0  0
   11.1458    2.4492   24.5017 C   0  0  0  0  0  0  0  0  0  0  0  0
   12.1393    2.6865   24.8709 H   0  0  0  0  0  0  0  0  0  0  0  0
   10.8027    2.7102   23.1725 C   0  0  0  0  0  0  0  0  0  0  0  0
   11.4991    3.1973   22.4993 H   0  0  0  0  0  0  0  0  0  0  0  0
    9.5434    2.3185   22.7014 C   0  0  0  0  0  0  0  0  0  0  0  0
    9.1577    2.5300   21.0254 Cl  0  0  0  0  0  0  0  0  0  0  0  0
    8.2423   -1.1897   22.9651 N   0  0  0  0  0  0  0  0  0  0  0  0
    8.2008   -2.2902   22.1545 C   0  0  0  0  0  0  0  0  0  0  0  0
    8.6531   -3.2250   22.4654 H   0  0  0  0  0  0  0  0  0  0  0  0
    7.5351   -1.9997   21.0015 C   0  0  0  0  0  0  0  0  0  0  0  0
    7.1957   -2.6058   20.1770 H   0  0  0  0  0  0  0  0  0  0  0  0
    5.3552    0.7638   20.1862 C   0  0  0  0  0  0  0  0  0  0  0  0
    4.8792    0.8096   21.1690 H   0  0  0  0  0  0  0  0  0  0  0  0
    4.7876    1.3785   19.0623 C   0  0  0  0  0  0  0  0  0  0  0  0
    3.8577    1.9341   19.1350 H   0  0  0  0  0  0  0  0  0  0  0  0
  1  2  1  0
  2  3  2  0
  3  4  1  0
  4  5  1  0
  4  6  2  0
  6  7  1  0
  7  8  1  0
  8  9  1  0
  9 10  1  0
  9 11  1  0
  9 12  1  0
 12 13  2  0
 13 14  1  0
 13 15  1  0
 15 16  1  0
 15 17  2  0
 17 18  1  0
 17 19  1  0
 19 20  1  0
 19 21  2  0
 21 22  1  0
  8 23  2  0
 23 24  1  0
 24 25  1  0
 24 26  2  0
 26 27  1  0
  6 28  1  0
 28 29  1  0
 28 30  2  0
 30 31  1  0
 30  2  1  0
 26  7  1  0
 21 12  1  0
M  END
>  <cnnaffinity>  (1) 
-5.48589

>  <filename>  (1) 
Clc1ccccc1Cc1nccn1-c1cccnc1

$$$$
