
     RDKit          3D

 35 37  0  0  0  0  0  0  0  0999 V2000
    4.9223    1.8042   16.9781 H   0  0  0  0  0  0  0  0  0  0  0  0
    5.3836    1.2996   17.8257 C   0  0  0  0  0  0  0  0  0  0  0  0
    6.5457    0.6804   17.5740 N   0  0  0  0  0  0  0  0  0  0  0  0
    7.1540    0.0664   18.5939 C   0  0  0  0  0  0  0  0  0  0  0  0
    8.1083   -0.4087   18.3606 H   0  0  0  0  0  0  0  0  0  0  0  0
    6.6402    0.0135   19.9023 C   0  0  0  0  0  0  0  0  0  0  0  0
    7.4114   -0.6966   20.9978 C   0  0  0  0  0  0  0  0  0  0  0  0
    6.9049   -0.5803   21.9606 H   0  0  0  0  0  0  0  0  0  0  0  0
    7.4626   -1.7721   20.7958 H   0  0  0  0  0  0  0  0  0  0  0  0
    8.7912   -0.2479   21.1326 N   0  0  0  0  0  0  0  0  0  0  0  0
    9.8917   -1.0132   20.8305 C   0  0  0  0  0  0  0  0  0  0  0  0
    9.7571   -1.9918   20.3943 H   0  0  0  0  0  0  0  0  0  0  0  0
   11.0257   -0.2838   21.0687 C   0  0  0  0  0  0  0  0  0  0  0  0
   12.0423   -0.6234   20.8929 H   0  0  0  0  0  0  0  0  0  0  0  0
   10.5963    0.9919   21.5214 C   0  0  0  0  0  0  0  0  0  0  0  0
   11.1956    1.8415   21.8313 H   0  0  0  0  0  0  0  0  0  0  0  0
    9.2185    0.9881   21.5610 C   0  0  0  0  0  0  0  0  0  0  0  0
    8.2942    2.0638   22.0516 C   0  0  0  0  0  0  0  0  0  0  0  0
    8.9038    2.9559   22.2424 H   0  0  0  0  0  0  0  0  0  0  0  0
    7.5881    2.3632   21.2713 H   0  0  0  0  0  0  0  0  0  0  0  0
    7.5283    1.7200   23.3307 C   0  0  0  0  0  0  0  0  0  0  0  0
    8.1139    0.9175   24.3256 C   0  0  0  0  0  0  0  0  0  0  0  0
    9.1202    0.5371   24.1565 H   0  0  0  0  0  0  0  0  0  0  0  0
    7.4334    0.5940   25.5052 C   0  0  0  0  0  0  0  0  0  0  0  0
    7.9157   -0.0387   26.2460 H   0  0  0  0  0  0  0  0  0  0  0  0
    6.1418    1.0848   25.7236 C   0  0  0  0  0  0  0  0  0  0  0  0
    5.6055    0.8325   26.6379 H   0  0  0  0  0  0  0  0  0  0  0  0
    5.5455    1.9130   24.7701 C   0  0  0  0  0  0  0  0  0  0  0  0
    4.5527    2.3297   24.9149 H   0  0  0  0  0  0  0  0  0  0  0  0
    6.2446    2.2294   23.5986 C   0  0  0  0  0  0  0  0  0  0  0  0
    5.4613    3.3219   22.4809 Cl  0  0  0  0  0  0  0  0  0  0  0  0
    5.4208    0.6522   20.1420 C   0  0  0  0  0  0  0  0  0  0  0  0
    4.9899    0.6495   21.1431 H   0  0  0  0  0  0  0  0  0  0  0  0
    4.7837    1.3128   19.0861 C   0  0  0  0  0  0  0  0  0  0  0  0
    3.8563    1.8533   19.2253 H   0  0  0  0  0  0  0  0  0  0  0  0
  1  2  1  0
  2  3  2  0
  3  4  1  0
  4  5  1  0
  4  6  2  0
  6  7  1  0
  7  8  1  0
  7  9  1  0
  7 10  1  0
 10 11  1  0
 11 12  1  0
 11 13  2  0
 13 14  1  0
 13 15  1  0
 15 16  1  0
 15 17  2  0
 17 18  1  0
 18 19  1  0
 18 20  1  0
 18 21  1  0
 21 22  2  0
 22 23  1  0
 22 24  1  0
 24 25  1  0
 24 26  2  0
 26 27  1  0
 26 28  1  0
 28 29  1  0
 28 30  2  0
 30 31  1  0
  6 32  1  0
 32 33  1  0
 32 34  2  0
 34 35  1  0
 34  2  1  0
 17 10  1  0
 30 21  1  0
M  END
>  <cnnaffinity>  (1) 
-5.76629

>  <filename>  (1) 
Clc1ccccc1Cc1cccn1Cc1cccnc1

$$$$
