
     RDKit          3D

 34 37  0  0  0  0  0  0  0  0999 V2000
    4.9644    1.8614   16.9873 H   0  0  0  0  0  0  0  0  0  0  0  0
    5.4807    1.3387   17.7865 C   0  0  0  0  0  0  0  0  0  0  0  0
    6.6394    0.7488   17.4471 N   0  0  0  0  0  0  0  0  0  0  0  0
    7.3125    0.0930   18.4007 C   0  0  0  0  0  0  0  0  0  0  0  0
    8.2472   -0.3782   18.0912 H   0  0  0  0  0  0  0  0  0  0  0  0
    6.8499   -0.0271   19.7248 C   0  0  0  0  0  0  0  0  0  0  0  0
    7.5421   -0.8184   20.6779 N   0  0  0  0  0  0  0  0  0  0  0  0
    8.8948   -0.7728   21.0099 C   0  0  0  0  0  0  0  0  0  0  0  0
    9.5368   -0.0721   20.5063 H   0  0  0  0  0  0  0  0  0  0  0  0
    9.1426   -1.6459   22.0226 C   0  0  0  0  0  0  0  0  0  0  0  0
   10.0367   -1.8795   22.5711 H   0  0  0  0  0  0  0  0  0  0  0  0
    7.9378   -2.2518   22.3077 N   0  0  0  0  0  0  0  0  0  0  0  0
    7.5151   -3.2108   23.1863 N   0  0  0  0  0  0  0  0  0  0  0  0
    6.2249   -3.2933   22.8738 C   0  0  0  0  0  0  0  0  0  0  0  0
    5.3244   -4.1462   23.4496 N   0  0  0  0  0  0  0  0  0  0  0  0
    4.4607   -4.1745   22.9439 H   0  0  0  0  0  0  0  0  0  0  0  0
    5.4378   -5.0738   24.4772 C   0  0  0  0  0  0  0  0  0  0  0  0
    6.2184   -4.8530   25.6164 C   0  0  0  0  0  0  0  0  0  0  0  0
    6.8408   -3.9630   25.6529 H   0  0  0  0  0  0  0  0  0  0  0  0
    6.1649   -5.7700   26.6752 C   0  0  0  0  0  0  0  0  0  0  0  0
    6.7269   -5.5857   27.5859 H   0  0  0  0  0  0  0  0  0  0  0  0
    5.3587   -6.9090   26.5784 C   0  0  0  0  0  0  0  0  0  0  0  0
    5.3051   -8.0555   27.8884 Cl  0  0  0  0  0  0  0  0  0  0  0  0
    4.6083   -7.1565   25.4226 C   0  0  0  0  0  0  0  0  0  0  0  0
    3.9757   -8.0380   25.3646 H   0  0  0  0  0  0  0  0  0  0  0  0
    4.6477   -6.2294   24.3818 C   0  0  0  0  0  0  0  0  0  0  0  0
    4.0782   -6.4007   23.4714 H   0  0  0  0  0  0  0  0  0  0  0  0
    5.8092   -2.4428   21.8372 C   0  0  0  0  0  0  0  0  0  0  0  0
    4.7959   -2.3759   21.5171 H   0  0  0  0  0  0  0  0  0  0  0  0
    6.9609   -1.7655   21.5049 C   0  0  0  0  0  0  0  0  0  0  0  0
    5.6497    0.6197   20.0734 C   0  0  0  0  0  0  0  0  0  0  0  0
    5.2919    0.5808   21.1033 H   0  0  0  0  0  0  0  0  0  0  0  0
    4.9488    1.3110   19.0822 C   0  0  0  0  0  0  0  0  0  0  0  0
    4.0152    1.8297   19.2978 H   0  0  0  0  0  0  0  0  0  0  0  0
  1  2  1  0
  2  3  2  0
  3  4  1  0
  4  5  1  0
  4  6  2  0
  6  7  1  0
  7  8  1  0
  8  9  1  0
  8 10  2  0
 10 11  1  0
 10 12  1  0
 12 13  1  0
 13 14  2  0
 14 15  1  0
 15 16  1  0
 15 17  1  0
 17 18  2  0
 18 19  1  0
 18 20  1  0
 20 21  1  0
 20 22  2  0
 22 23  1  0
 22 24  1  0
 24 25  1  0
 24 26  2  0
 26 27  1  0
 14 28  1  0
 28 29  1  0
 28 30  2  0
  6 31  1  0
 31 32  1  0
 31 33  2  0
 33 34  1  0
 33  2  1  0
 30  7  1  0
 30 12  1  0
 26 17  1  0
M  END
>  <cnnaffinity>  (1) 
-5.32949

>  <filename>  (1) 
Clc1ccc(Nc2cc3n(-c4cccnc4)ccn3n2)cc1

$$$$
