
     RDKit          3D

 29 31  0  0  0  0  0  0  0  0999 V2000
    5.1852    1.7985   16.8595 H   0  0  0  0  0  0  0  0  0  0  0  0
    5.5811    1.2554   17.7138 C   0  0  0  0  0  0  0  0  0  0  0  0
    6.6786    0.5132   17.4970 N   0  0  0  0  0  0  0  0  0  0  0  0
    7.1971   -0.1488   18.5360 C   0  0  0  0  0  0  0  0  0  0  0  0
    8.0809   -0.7509   18.3327 H   0  0  0  0  0  0  0  0  0  0  0  0
    6.6444   -0.1166   19.8218 C   0  0  0  0  0  0  0  0  0  0  0  0
    7.2867   -0.7850   20.8855 N   0  0  0  0  0  0  0  0  0  0  0  0
    6.5544   -1.2900   21.8845 N   0  0  0  0  0  0  0  0  0  0  0  0
    7.4164   -1.6424   22.8206 C   0  0  0  0  0  0  0  0  0  0  0  0
    7.0807   -2.0677   23.7549 H   0  0  0  0  0  0  0  0  0  0  0  0
    8.7311   -1.3415   22.4185 C   0  0  0  0  0  0  0  0  0  0  0  0
    9.8051   -1.5639   23.2239 O   0  0  0  0  0  0  0  0  0  0  0  0
   10.9907   -0.9562   22.8602 C   0  0  0  0  0  0  0  0  0  0  0  0
   11.3003    0.3298   23.2926 C   0  0  0  0  0  0  0  0  0  0  0  0
   10.5508    0.8633   23.8719 H   0  0  0  0  0  0  0  0  0  0  0  0
   12.5417    0.8765   22.9355 C   0  0  0  0  0  0  0  0  0  0  0  0
   12.7996    1.8893   23.2365 H   0  0  0  0  0  0  0  0  0  0  0  0
   13.4627    0.1355   22.1860 C   0  0  0  0  0  0  0  0  0  0  0  0
   14.4332    0.5390   21.9020 H   0  0  0  0  0  0  0  0  0  0  0  0
   13.1086   -1.1467   21.7575 C   0  0  0  0  0  0  0  0  0  0  0  0
   14.2447   -2.0989   20.8525 Cl  0  0  0  0  0  0  0  0  0  0  0  0
   11.8669   -1.6940   22.0744 C   0  0  0  0  0  0  0  0  0  0  0  0
   11.5587   -2.6675   21.7248 H   0  0  0  0  0  0  0  0  0  0  0  0
    8.6246   -0.8123   21.1541 C   0  0  0  0  0  0  0  0  0  0  0  0
    9.3555   -0.4683   20.4396 H   0  0  0  0  0  0  0  0  0  0  0  0
    5.4751    0.6301   20.0367 C   0  0  0  0  0  0  0  0  0  0  0  0
    5.0071    0.6284   21.0218 H   0  0  0  0  0  0  0  0  0  0  0  0
    4.9481    1.3418   18.9614 C   0  0  0  0  0  0  0  0  0  0  0  0
    4.0663    1.9637   19.0826 H   0  0  0  0  0  0  0  0  0  0  0  0
  1  2  1  0
  2  3  2  0
  3  4  1  0
  4  5  1  0
  4  6  2  0
  6  7  1  0
  7  8  1  0
  8  9  2  0
  9 10  1  0
  9 11  1  0
 11 12  1  0
 12 13  1  0
 13 14  2  0
 14 15  1  0
 14 16  1  0
 16 17  1  0
 16 18  2  0
 18 19  1  0
 18 20  1  0
 20 21  1  0
 20 22  2  0
 22 23  1  0
 11 24  2  0
 24 25  1  0
  6 26  1  0
 26 27  1  0
 26 28  2  0
 28 29  1  0
 28  2  1  0
 24  7  1  0
 22 13  1  0
M  END
>  <cnnaffinity>  (1) 
-5.23438

>  <filename>  (1) 
Clc1cccc(Oc2cnn(-c3cccnc3)c2)c1

$$$$
