
     RDKit          3D

 27 29  0  0  0  0  0  0  0  0999 V2000
    4.9183    1.7857   16.9936 H   0  0  0  0  0  0  0  0  0  0  0  0
    5.4018    1.2957   17.8369 C   0  0  0  0  0  0  0  0  0  0  0  0
    6.5653    0.6791   17.5741 N   0  0  0  0  0  0  0  0  0  0  0  0
    7.1688    0.0615   18.5940 C   0  0  0  0  0  0  0  0  0  0  0  0
    8.1132   -0.4266   18.3711 H   0  0  0  0  0  0  0  0  0  0  0  0
    6.6638    0.0043   19.9093 C   0  0  0  0  0  0  0  0  0  0  0  0
    7.3770   -0.7064   20.9922 C   0  0  0  0  0  0  0  0  0  0  0  0
    8.1212   -2.2370   20.8050 S   0  0  0  0  0  0  0  0  0  0  0  0
    8.5695   -2.4289   22.3813 N   0  0  0  0  0  0  0  0  0  0  0  0
    8.1904   -1.3761   23.0452 C   0  0  0  0  0  0  0  0  0  0  0  0
    8.4435   -1.3307   24.1019 H   0  0  0  0  0  0  0  0  0  0  0  0
    7.5177   -0.3459   22.3188 C   0  0  0  0  0  0  0  0  0  0  0  0
    7.1188    0.9313   22.9203 C   0  0  0  0  0  0  0  0  0  0  0  0
    7.3939    2.1463   22.2719 C   0  0  0  0  0  0  0  0  0  0  0  0
    7.8872    2.1200   21.3024 H   0  0  0  0  0  0  0  0  0  0  0  0
    7.0072    3.3502   22.8570 C   0  0  0  0  0  0  0  0  0  0  0  0
    7.2072    4.2835   22.3415 H   0  0  0  0  0  0  0  0  0  0  0  0
    6.3574    3.3589   24.0948 C   0  0  0  0  0  0  0  0  0  0  0  0
    6.0541    4.2879   24.5633 H   0  0  0  0  0  0  0  0  0  0  0  0
    6.1036    2.1438   24.7377 C   0  0  0  0  0  0  0  0  0  0  0  0
    5.3134    2.1441   26.2828 Cl  0  0  0  0  0  0  0  0  0  0  0  0
    6.4813    0.9322   24.1691 C   0  0  0  0  0  0  0  0  0  0  0  0
    6.2688   -0.0079   24.6738 H   0  0  0  0  0  0  0  0  0  0  0  0
    5.4364    0.6411   20.1550 C   0  0  0  0  0  0  0  0  0  0  0  0
    5.0161    0.6325   21.1642 H   0  0  0  0  0  0  0  0  0  0  0  0
    4.8028    1.3057   19.1023 C   0  0  0  0  0  0  0  0  0  0  0  0
    3.8721    1.8430   19.2552 H   0  0  0  0  0  0  0  0  0  0  0  0
  1  2  1  0
  2  3  2  0
  3  4  1  0
  4  5  1  0
  4  6  2  0
  6  7  1  0
  7  8  1  0
  8  9  1  0
  9 10  2  0
 10 11  1  0
 10 12  1  0
 12 13  1  0
 13 14  2  0
 14 15  1  0
 14 16  1  0
 16 17  1  0
 16 18  2  0
 18 19  1  0
 18 20  1  0
 20 21  1  0
 20 22  2  0
 22 23  1  0
  6 24  1  0
 24 25  1  0
 24 26  2  0
 26 27  1  0
 26  2  1  0
 12  7  2  0
 22 13  1  0
M  END
>  <cnnaffinity>  (1) 
-5.0033

>  <filename>  (1) 
Clc1cccc(-c2cnsc2-c2cccnc2)c1

$$$$
