
     RDKit          3D

 38 40  0  0  0  0  0  0  0  0999 V2000
    4.9067    1.8450   16.8703 H   0  0  0  0  0  0  0  0  0  0  0  0
    5.3573    1.3422   17.7235 C   0  0  0  0  0  0  0  0  0  0  0  0
    6.5317    0.7288   17.4990 N   0  0  0  0  0  0  0  0  0  0  0  0
    7.1202    0.1299   18.5459 C   0  0  0  0  0  0  0  0  0  0  0  0
    8.0659   -0.3681   18.3413 H   0  0  0  0  0  0  0  0  0  0  0  0
    6.5888    0.0856   19.8638 C   0  0  0  0  0  0  0  0  0  0  0  0
    7.2745   -0.5039   20.9488 N   0  0  0  0  0  0  0  0  0  0  0  0
    6.6397   -1.4887   21.8169 C   0  0  0  0  0  0  0  0  0  0  0  0
    5.5993   -1.6127   21.4902 H   0  0  0  0  0  0  0  0  0  0  0  0
    6.6280   -1.1312   22.8618 H   0  0  0  0  0  0  0  0  0  0  0  0
    7.3204   -2.8791   21.7868 C   0  0  0  0  0  0  0  0  0  0  0  0
    6.6104   -3.6382   22.1310 H   0  0  0  0  0  0  0  0  0  0  0  0
    7.5196   -3.1315   20.7366 H   0  0  0  0  0  0  0  0  0  0  0  0
    8.5439   -3.0092   22.5858 N   0  0  0  0  0  0  0  0  0  0  0  0
    8.4857   -3.5687   23.8646 C   0  0  0  0  0  0  0  0  0  0  0  0
    9.5893   -4.2845   24.3699 C   0  0  0  0  0  0  0  0  0  0  0  0
   10.5256   -4.3296   23.8265 H   0  0  0  0  0  0  0  0  0  0  0  0
    9.4699   -4.9290   25.5961 C   0  0  0  0  0  0  0  0  0  0  0  0
   10.7020   -6.0266   26.1061 Cl  0  0  0  0  0  0  0  0  0  0  0  0
    8.3516   -4.7581   26.4117 C   0  0  0  0  0  0  0  0  0  0  0  0
    8.3002   -5.2455   27.3736 H   0  0  0  0  0  0  0  0  0  0  0  0
    7.3038   -3.9736   25.9328 C   0  0  0  0  0  0  0  0  0  0  0  0
    5.9188   -3.7006   26.9414 Cl  0  0  0  0  0  0  0  0  0  0  0  0
    7.3303   -3.4192   24.6576 C   0  0  0  0  0  0  0  0  0  0  0  0
    6.4836   -2.8580   24.2813 H   0  0  0  0  0  0  0  0  0  0  0  0
    9.7434   -2.2297   22.2786 C   0  0  0  0  0  0  0  0  0  0  0  0
   10.0146   -1.6250   23.1650 H   0  0  0  0  0  0  0  0  0  0  0  0
   10.5915   -2.9179   22.1401 H   0  0  0  0  0  0  0  0  0  0  0  0
    9.6469   -1.3010   21.0664 C   0  0  0  0  0  0  0  0  0  0  0  0
   10.6486   -0.8965   20.8657 H   0  0  0  0  0  0  0  0  0  0  0  0
    9.3581   -1.8828   20.1858 H   0  0  0  0  0  0  0  0  0  0  0  0
    8.6537   -0.1445   21.2456 C   0  0  0  0  0  0  0  0  0  0  0  0
    8.7111    0.2250   22.2855 H   0  0  0  0  0  0  0  0  0  0  0  0
    8.9417    0.6964   20.5997 H   0  0  0  0  0  0  0  0  0  0  0  0
    5.3350    0.6975   20.0529 C   0  0  0  0  0  0  0  0  0  0  0  0
    4.8817    0.6774   21.0437 H   0  0  0  0  0  0  0  0  0  0  0  0
    4.7253    1.3436   18.9723 C   0  0  0  0  0  0  0  0  0  0  0  0
    3.7764    1.8573   19.0926 H   0  0  0  0  0  0  0  0  0  0  0  0
  1  2  1  0
  2  3  2  0
  3  4  1  0
  4  5  1  0
  4  6  2  0
  6  7  1  0
  7  8  1  0
  8  9  1  0
  8 10  1  0
  8 11  1  0
 11 12  1  0
 11 13  1  0
 11 14  1  0
 14 15  1  0
 15 16  2  0
 16 17  1  0
 16 18  1  0
 18 19  1  0
 18 20  2  0
 20 21  1  0
 20 22  1  0
 22 23  1  0
 22 24  2  0
 24 25  1  0
 14 26  1  0
 26 27  1  0
 26 28  1  0
 26 29  1  0
 29 30  1  0
 29 31  1  0
 29 32  1  0
 32 33  1  0
 32 34  1  0
  6 35  1  0
 35 36  1  0
 35 37  2  0
 37 38  1  0
 37  2  1  0
 32  7  1  0
 24 15  1  0
M  END
>  <cnnaffinity>  (1) 
-5.12049

>  <filename>  (1) 
Clc1cc(Cl)cc(N2CCCN(c3cccnc3)CC2)c1

$$$$
