
     RDKit          3D

 29 31  0  0  0  0  0  0  0  0999 V2000
    8.6167   -3.6995   21.4336 H   0  0  0  0  0  0  0  0  0  0  0  0
    8.3363   -2.6754   21.6548 C   0  0  0  0  0  0  0  0  0  0  0  0
    8.6185   -2.2320   22.8802 N   0  0  0  0  0  0  0  0  0  0  0  0
    8.2702   -0.9726   23.1311 C   0  0  0  0  0  0  0  0  0  0  0  0
    8.5148   -0.5880   24.1205 H   0  0  0  0  0  0  0  0  0  0  0  0
    7.6588   -0.1366   22.2034 C   0  0  0  0  0  0  0  0  0  0  0  0
    7.3846    1.2924   22.5331 C   0  0  0  0  0  0  0  0  0  0  0  0
    7.8569    2.3206   21.6981 C   0  0  0  0  0  0  0  0  0  0  0  0
    8.4183    2.0562   20.8043 H   0  0  0  0  0  0  0  0  0  0  0  0
    7.5893    3.6523   22.0110 C   0  0  0  0  0  0  0  0  0  0  0  0
    7.9530    4.4500   21.3691 H   0  0  0  0  0  0  0  0  0  0  0  0
    6.8484    3.9827   23.1495 C   0  0  0  0  0  0  0  0  0  0  0  0
    6.6353    5.0186   23.3906 H   0  0  0  0  0  0  0  0  0  0  0  0
    6.3887    2.9553   23.9785 C   0  0  0  0  0  0  0  0  0  0  0  0
    5.4814    3.3595   25.4072 Cl  0  0  0  0  0  0  0  0  0  0  0  0
    6.6557    1.6173   23.6867 C   0  0  0  0  0  0  0  0  0  0  0  0
    6.2802    0.8349   24.3418 H   0  0  0  0  0  0  0  0  0  0  0  0
    7.3894   -0.7356   20.9546 C   0  0  0  0  0  0  0  0  0  0  0  0
    6.6515   -0.0132   19.9036 C   0  0  0  0  0  0  0  0  0  0  0  0
    7.1740    0.0427   18.6100 C   0  0  0  0  0  0  0  0  0  0  0  0
    8.1237   -0.4386   18.3756 H   0  0  0  0  0  0  0  0  0  0  0  0
    6.5773    0.6748   17.5953 N   0  0  0  0  0  0  0  0  0  0  0  0
    5.4084    1.2875   17.8488 C   0  0  0  0  0  0  0  0  0  0  0  0
    4.9201    1.7745   17.0049 H   0  0  0  0  0  0  0  0  0  0  0  0
    4.8074    1.3020   19.1118 C   0  0  0  0  0  0  0  0  0  0  0  0
    3.8762    1.8415   19.2610 H   0  0  0  0  0  0  0  0  0  0  0  0
    5.4375    0.6417   20.1635 C   0  0  0  0  0  0  0  0  0  0  0  0
    5.0076    0.6385   21.1692 H   0  0  0  0  0  0  0  0  0  0  0  0
    7.7582   -1.9889   20.6770 N   0  0  0  0  0  0  0  0  0  0  0  0
  1  2  1  0
  2  3  2  0
  3  4  1  0
  4  5  1  0
  4  6  2  0
  6  7  1  0
  7  8  2  0
  8  9  1  0
  8 10  1  0
 10 11  1  0
 10 12  2  0
 12 13  1  0
 12 14  1  0
 14 15  1  0
 14 16  2  0
 16 17  1  0
  6 18  1  0
 18 19  1  0
 19 20  2  0
 20 21  1  0
 20 22  1  0
 22 23  2  0
 23 24  1  0
 23 25  1  0
 25 26  1  0
 25 27  2  0
 27 28  1  0
 18 29  2  0
 29  2  1  0
 16  7  1  0
 27 19  1  0
M  END
>  <cnnaffinity>  (1) 
-4.82189

>  <filename>  (1) 
Clc1cccc(-c2cncnc2-c2cccnc2)c1

$$$$
