
     RDKit          3D

 32 35  0  0  0  0  0  0  0  0999 V2000
    5.1109    1.8935   17.0125 H   0  0  0  0  0  0  0  0  0  0  0  0
    5.5790    1.3275   17.8172 C   0  0  0  0  0  0  0  0  0  0  0  0
    6.7044    0.6647   17.5030 N   0  0  0  0  0  0  0  0  0  0  0  0
    7.3001   -0.0435   18.4689 C   0  0  0  0  0  0  0  0  0  0  0  0
    8.2429   -0.5173   18.2016 H   0  0  0  0  0  0  0  0  0  0  0  0
    6.7871   -0.1742   19.7726 C   0  0  0  0  0  0  0  0  0  0  0  0
    7.4459   -0.9673   20.7412 N   0  0  0  0  0  0  0  0  0  0  0  0
    8.7889   -0.8568   21.1053 C   0  0  0  0  0  0  0  0  0  0  0  0
    9.4045   -0.1415   20.5837 H   0  0  0  0  0  0  0  0  0  0  0  0
    9.0422   -1.6940   22.1468 C   0  0  0  0  0  0  0  0  0  0  0  0
    9.9047   -1.9266   22.7486 H   0  0  0  0  0  0  0  0  0  0  0  0
    7.8367   -2.3154   22.4215 N   0  0  0  0  0  0  0  0  0  0  0  0
    7.4524   -3.2620   23.3044 N   0  0  0  0  0  0  0  0  0  0  0  0
    6.1525   -3.4128   23.0284 C   0  0  0  0  0  0  0  0  0  0  0  0
    5.3082   -4.4566   23.6863 C   0  0  0  0  0  0  0  0  0  0  0  0
    5.6506   -5.8235   23.5794 C   0  0  0  0  0  0  0  0  0  0  0  0
    6.6654   -6.0931   23.2966 H   0  0  0  0  0  0  0  0  0  0  0  0
    4.6911   -6.8196   23.7719 C   0  0  0  0  0  0  0  0  0  0  0  0
    4.9368   -7.8575   23.5661 H   0  0  0  0  0  0  0  0  0  0  0  0
    3.4031   -6.4726   24.1936 C   0  0  0  0  0  0  0  0  0  0  0  0
    2.6494   -7.2432   24.3339 H   0  0  0  0  0  0  0  0  0  0  0  0
    3.0930   -5.1421   24.4811 C   0  0  0  0  0  0  0  0  0  0  0  0
    2.1231   -4.8499   24.8733 H   0  0  0  0  0  0  0  0  0  0  0  0
    4.0608   -4.1532   24.2732 C   0  0  0  0  0  0  0  0  0  0  0  0
    3.7210   -2.5577   24.8750 Cl  0  0  0  0  0  0  0  0  0  0  0  0
    5.7130   -2.5813   21.9724 C   0  0  0  0  0  0  0  0  0  0  0  0
    4.6978   -2.5313   21.6368 H   0  0  0  0  0  0  0  0  0  0  0  0
    6.8591   -1.8879   21.5940 C   0  0  0  0  0  0  0  0  0  0  0  0
    5.6221    0.5342   20.0993 C   0  0  0  0  0  0  0  0  0  0  0  0
    5.2352    0.4917   21.1200 H   0  0  0  0  0  0  0  0  0  0  0  0
    5.0197    1.3029   19.1013 C   0  0  0  0  0  0  0  0  0  0  0  0
    4.1278    1.8833   19.3060 H   0  0  0  0  0  0  0  0  0  0  0  0
  1  2  1  0
  2  3  2  0
  3  4  1  0
  4  5  1  0
  4  6  2  0
  6  7  1  0
  7  8  1  0
  8  9  1  0
  8 10  2  0
 10 11  1  0
 10 12  1  0
 12 13  1  0
 13 14  2  0
 14 15  1  0
 15 16  2  0
 16 17  1  0
 16 18  1  0
 18 19  1  0
 18 20  2  0
 20 21  1  0
 20 22  1  0
 22 23  1  0
 22 24  2  0
 24 25  1  0
 14 26  1  0
 26 27  1  0
 26 28  2  0
  6 29  1  0
 29 30  1  0
 29 31  2  0
 31 32  1  0
 31  2  1  0
 28  7  1  0
 28 12  1  0
 24 15  1  0
M  END
>  <cnnaffinity>  (1) 
-5.41443

>  <filename>  (1) 
Clc1ccccc1-c1cc2n(-c3cccnc3)ccn2n1

$$$$
