
     RDKit          3D

 27 30  0  0  0  0  0  0  0  0999 V2000
    4.9244    1.7722   17.0034 H   0  0  0  0  0  0  0  0  0  0  0  0
    5.4100    1.2855   17.8467 C   0  0  0  0  0  0  0  0  0  0  0  0
    6.5747    0.6679   17.5954 N   0  0  0  0  0  0  0  0  0  0  0  0
    7.1807    0.0530   18.6169 C   0  0  0  0  0  0  0  0  0  0  0  0
    8.1268   -0.4332   18.3847 H   0  0  0  0  0  0  0  0  0  0  0  0
    6.6465    0.0142   19.9132 C   0  0  0  0  0  0  0  0  0  0  0  0
    7.3594   -0.6900   20.9733 C   0  0  0  0  0  0  0  0  0  0  0  0
    8.5439   -1.3294   20.7653 N   0  0  0  0  0  0  0  0  0  0  0  0
    8.8005   -1.8038   21.9695 C   0  0  0  0  0  0  0  0  0  0  0  0
   10.0390   -2.7379   22.7571 S   0  0  0  0  0  0  0  0  0  0  0  0
    9.1563   -2.6333   24.2472 C   0  0  0  0  0  0  0  0  0  0  0  0
    9.5712   -3.1150   25.1239 H   0  0  0  0  0  0  0  0  0  0  0  0
    7.9998   -1.9339   24.1638 C   0  0  0  0  0  0  0  0  0  0  0  0
    7.0332   -1.6575   25.2318 C   0  0  0  0  0  0  0  0  0  0  0  0
    7.3122   -2.2585   26.8423 S   0  0  0  0  0  0  0  0  0  0  0  0
    5.8432   -1.5514   27.4002 C   0  0  0  0  0  0  0  0  0  0  0  0
    5.3356   -1.6987   29.0311 Cl  0  0  0  0  0  0  0  0  0  0  0  0
    5.1681   -0.8883   26.4202 C   0  0  0  0  0  0  0  0  0  0  0  0
    4.2230   -0.3769   26.5740 H   0  0  0  0  0  0  0  0  0  0  0  0
    5.8596   -0.9473   25.1829 C   0  0  0  0  0  0  0  0  0  0  0  0
    5.5272   -0.4612   24.2779 H   0  0  0  0  0  0  0  0  0  0  0  0
    7.8305   -1.4754   22.8450 N   0  0  0  0  0  0  0  0  0  0  0  0
    6.8800   -0.7476   22.2141 N   0  0  0  0  0  0  0  0  0  0  0  0
    5.4273    0.6581   20.1656 C   0  0  0  0  0  0  0  0  0  0  0  0
    4.9977    0.6356   21.1713 H   0  0  0  0  0  0  0  0  0  0  0  0
    4.8042    1.3103   19.1088 C   0  0  0  0  0  0  0  0  0  0  0  0
    3.8739    1.8434   19.2596 H   0  0  0  0  0  0  0  0  0  0  0  0
  1  2  1  0
  2  3  2  0
  3  4  1  0
  4  5  1  0
  4  6  2  0
  6  7  1  0
  7  8  1  0
  8  9  2  0
  9 10  1  0
 10 11  1  0
 11 12  1  0
 11 13  2  0
 13 14  1  0
 14 15  1  0
 15 16  1  0
 16 17  1  0
 16 18  2  0
 18 19  1  0
 18 20  1  0
 20 21  1  0
 13 22  1  0
 22 23  1  0
  6 24  1  0
 24 25  1  0
 24 26  2  0
 26 27  1  0
 26  2  1  0
 23  7  2  0
 22  9  1  0
 20 14  2  0
M  END
>  <cnnaffinity>  (1) 
-5.45186

>  <filename>  (1) 
Clc1ccc(-c2csc3nc(-c4cccnc4)nn23)s1

$$$$
