
     RDKit          3D

 38 41  0  0  0  0  0  0  0  0999 V2000
    5.2951    1.6096   17.0470 H   0  0  0  0  0  0  0  0  0  0  0  0
    5.8564    1.2030   17.8863 C   0  0  0  0  0  0  0  0  0  0  0  0
    7.0324    0.6262   17.5973 N   0  0  0  0  0  0  0  0  0  0  0  0
    7.7353    0.0961   18.6036 C   0  0  0  0  0  0  0  0  0  0  0  0
    8.7028   -0.3265   18.3319 H   0  0  0  0  0  0  0  0  0  0  0  0
    7.2885    0.0646   19.9366 C   0  0  0  0  0  0  0  0  0  0  0  0
    8.0709   -0.6623   20.9519 C   0  0  0  0  0  0  0  0  0  0  0  0
    9.4057   -0.5934   20.9745 N   0  0  0  0  0  0  0  0  0  0  0  0
    9.7346   -1.3764   22.0038 N   0  0  0  0  0  0  0  0  0  0  0  0
    8.7017   -1.9862   22.6010 C   0  0  0  0  0  0  0  0  0  0  0  0
    7.5692   -1.5399   21.9684 C   0  0  0  0  0  0  0  0  0  0  0  0
    6.1839   -2.0868   22.1718 C   0  0  0  0  0  0  0  0  0  0  0  0
    5.9735   -2.2753   23.2336 H   0  0  0  0  0  0  0  0  0  0  0  0
    5.4936   -1.3321   21.7866 H   0  0  0  0  0  0  0  0  0  0  0  0
    5.9297   -3.3334   21.3612 C   0  0  0  0  0  0  0  0  0  0  0  0
    5.7513   -3.1483   19.9913 C   0  0  0  0  0  0  0  0  0  0  0  0
    5.8020   -2.1373   19.5975 H   0  0  0  0  0  0  0  0  0  0  0  0
    5.5573   -4.2142   19.1274 C   0  0  0  0  0  0  0  0  0  0  0  0
    5.3997   -3.9561   18.0891 H   0  0  0  0  0  0  0  0  0  0  0  0
    5.5595   -5.5133   19.6524 C   0  0  0  0  0  0  0  0  0  0  0  0
    5.4919   -6.8891   18.5948 Cl  0  0  0  0  0  0  0  0  0  0  0  0
    5.6562   -5.7240   21.0311 C   0  0  0  0  0  0  0  0  0  0  0  0
    5.5353   -6.7221   21.4448 H   0  0  0  0  0  0  0  0  0  0  0  0
    5.8638   -4.6281   21.8776 C   0  0  0  0  0  0  0  0  0  0  0  0
    5.9772   -4.7977   22.9473 H   0  0  0  0  0  0  0  0  0  0  0  0
    9.1840   -2.9750   23.6141 C   0  0  0  0  0  0  0  0  0  0  0  0
    9.0247   -3.9980   23.2562 H   0  0  0  0  0  0  0  0  0  0  0  0
    8.6517   -2.8858   24.5648 H   0  0  0  0  0  0  0  0  0  0  0  0
   10.6843   -2.6135   23.7307 C   0  0  0  0  0  0  0  0  0  0  0  0
   11.3276   -3.4907   23.8171 H   0  0  0  0  0  0  0  0  0  0  0  0
   10.8183   -1.9994   24.6242 H   0  0  0  0  0  0  0  0  0  0  0  0
   11.0416   -1.7769   22.4636 C   0  0  0  0  0  0  0  0  0  0  0  0
   11.6527   -0.8932   22.6599 H   0  0  0  0  0  0  0  0  0  0  0  0
   11.5480   -2.3602   21.6888 H   0  0  0  0  0  0  0  0  0  0  0  0
    6.0701    0.7044   20.2239 C   0  0  0  0  0  0  0  0  0  0  0  0
    5.7127    0.7767   21.2511 H   0  0  0  0  0  0  0  0  0  0  0  0
    5.3445    1.2775   19.1827 C   0  0  0  0  0  0  0  0  0  0  0  0
    4.3978    1.7701   19.3613 H   0  0  0  0  0  0  0  0  0  0  0  0
  1  2  1  0
  2  3  2  0
  3  4  1  0
  4  5  1  0
  4  6  2  0
  6  7  1  0
  7  8  2  0
  8  9  1  0
  9 10  1  0
 10 11  2  0
 11 12  1  0
 12 13  1  0
 12 14  1  0
 12 15  1  0
 15 16  2  0
 16 17  1  0
 16 18  1  0
 18 19  1  0
 18 20  2  0
 20 21  1  0
 20 22  1  0
 22 23  1  0
 22 24  2  0
 24 25  1  0
 10 26  1  0
 26 27  1  0
 26 28  1  0
 26 29  1  0
 29 30  1  0
 29 31  1  0
 29 32  1  0
 32 33  1  0
 32 34  1  0
  6 35  1  0
 35 36  1  0
 35 37  2  0
 37 38  1  0
 37  2  1  0
 11  7  1  0
 24 15  1  0
 32  9  1  0
M  END
>  <cnnaffinity>  (1) 
-5.94556

>  <filename>  (1) 
Clc1ccc(Cc2c(-c3cccnc3)nn3c2CCC3)cc1

$$$$
