
     RDKit          3D

 25 27  0  0  0  0  0  0  0  0999 V2000
    5.0282    1.8409   16.9327 H   0  0  0  0  0  0  0  0  0  0  0  0
    5.4891    1.3345   17.7771 C   0  0  0  0  0  0  0  0  0  0  0  0
    6.6755    0.7564   17.5260 N   0  0  0  0  0  0  0  0  0  0  0  0
    7.2668    0.1088   18.5322 C   0  0  0  0  0  0  0  0  0  0  0  0
    8.2469   -0.3239   18.3248 H   0  0  0  0  0  0  0  0  0  0  0  0
    6.6990   -0.0442   19.8059 C   0  0  0  0  0  0  0  0  0  0  0  0
    7.3906   -0.8655   20.8130 C   0  0  0  0  0  0  0  0  0  0  0  0
    8.7190   -0.8213   20.9665 N   0  0  0  0  0  0  0  0  0  0  0  0
    8.9533   -1.6632   21.9718 N   0  0  0  0  0  0  0  0  0  0  0  0
    7.8678   -2.2771   22.4696 C   0  0  0  0  0  0  0  0  0  0  0  0
    6.8224   -1.8183   21.7033 C   0  0  0  0  0  0  0  0  0  0  0  0
    5.2613   -2.5292   21.6529 Cl  0  0  0  0  0  0  0  0  0  0  0  0
    8.2306   -3.1836   23.5937 C   0  0  0  0  0  0  0  0  0  0  0  0
    7.8047   -4.1815   23.4490 H   0  0  0  0  0  0  0  0  0  0  0  0
    7.8316   -2.8069   24.5419 H   0  0  0  0  0  0  0  0  0  0  0  0
    9.7882   -3.1547   23.5730 C   0  0  0  0  0  0  0  0  0  0  0  0
   10.1889   -2.8530   24.5389 H   0  0  0  0  0  0  0  0  0  0  0  0
   10.1721   -4.1460   23.3477 H   0  0  0  0  0  0  0  0  0  0  0  0
   10.2239   -2.1295   22.4803 C   0  0  0  0  0  0  0  0  0  0  0  0
   10.8055   -2.5827   21.6713 H   0  0  0  0  0  0  0  0  0  0  0  0
   10.7984   -1.2818   22.8664 H   0  0  0  0  0  0  0  0  0  0  0  0
    5.4736    0.5962   20.0662 C   0  0  0  0  0  0  0  0  0  0  0  0
    5.0166    0.5577   21.0563 H   0  0  0  0  0  0  0  0  0  0  0  0
    4.8664    1.3009   19.0273 C   0  0  0  0  0  0  0  0  0  0  0  0
    3.9179    1.8108   19.1513 H   0  0  0  0  0  0  0  0  0  0  0  0
  1  2  1  0
  2  3  2  0
  3  4  1  0
  4  5  1  0
  4  6  2  0
  6  7  1  0
  7  8  2  0
  8  9  1  0
  9 10  1  0
 10 11  2  0
 11 12  1  0
 10 13  1  0
 13 14  1  0
 13 15  1  0
 13 16  1  0
 16 17  1  0
 16 18  1  0
 16 19  1  0
 19 20  1  0
 19 21  1  0
  6 22  1  0
 22 23  1  0
 22 24  2  0
 24 25  1  0
 24  2  1  0
 11  7  1  0
 19  9  1  0
M  END
>  <cnnaffinity>  (1) 
-4.76971

>  <filename>  (1) 
Clc1c(-c2cccnc2)nn2c1CCC2

$$$$
