
     RDKit          3D

 31 34  0  0  0  0  0  0  0  0999 V2000
    4.9564    1.8050   16.9773 H   0  0  0  0  0  0  0  0  0  0  0  0
    5.4029    1.2886   17.8253 C   0  0  0  0  0  0  0  0  0  0  0  0
    6.5599    0.6558   17.5801 N   0  0  0  0  0  0  0  0  0  0  0  0
    7.1521    0.0245   18.5968 C   0  0  0  0  0  0  0  0  0  0  0  0
    8.1005   -0.4544   18.3625 H   0  0  0  0  0  0  0  0  0  0  0  0
    6.6385   -0.0028   19.9028 C   0  0  0  0  0  0  0  0  0  0  0  0
    7.3897   -0.6753   20.9604 C   0  0  0  0  0  0  0  0  0  0  0  0
    8.0576   -1.8543   20.7376 N   0  0  0  0  0  0  0  0  0  0  0  0
    8.4629   -2.2096   21.9265 C   0  0  0  0  0  0  0  0  0  0  0  0
    9.3360   -3.5441   22.6113 S   0  0  0  0  0  0  0  0  0  0  0  0
    9.4279   -2.7371   24.1582 C   0  0  0  0  0  0  0  0  0  0  0  0
   10.0057   -3.2112   24.9417 H   0  0  0  0  0  0  0  0  0  0  0  0
    8.7403   -1.5793   24.1573 C   0  0  0  0  0  0  0  0  0  0  0  0
    8.5906   -0.8530   24.9488 H   0  0  0  0  0  0  0  0  0  0  0  0
    8.1623   -1.3183   22.9174 N   0  0  0  0  0  0  0  0  0  0  0  0
    7.4869   -0.2853   22.2958 C   0  0  0  0  0  0  0  0  0  0  0  0
    7.0942    0.9367   22.9789 C   0  0  0  0  0  0  0  0  0  0  0  0
    7.3066    2.1815   22.3621 C   0  0  0  0  0  0  0  0  0  0  0  0
    7.7543    2.2002   21.3744 H   0  0  0  0  0  0  0  0  0  0  0  0
    6.9103    3.3645   22.9893 C   0  0  0  0  0  0  0  0  0  0  0  0
    7.0773    4.3187   22.4929 H   0  0  0  0  0  0  0  0  0  0  0  0
    6.2874    3.3153   24.2426 C   0  0  0  0  0  0  0  0  0  0  0  0
    5.9653    4.2147   24.7602 H   0  0  0  0  0  0  0  0  0  0  0  0
    6.0673    2.0737   24.8447 C   0  0  0  0  0  0  0  0  0  0  0  0
    5.3011    2.0060   26.4078 Cl  0  0  0  0  0  0  0  0  0  0  0  0
    6.4570    0.8873   24.2298 C   0  0  0  0  0  0  0  0  0  0  0  0
    6.2478   -0.0702   24.6921 H   0  0  0  0  0  0  0  0  0  0  0  0
    5.4121    0.6483   20.1431 C   0  0  0  0  0  0  0  0  0  0  0  0
    4.9857    0.6703   21.1486 H   0  0  0  0  0  0  0  0  0  0  0  0
    4.7920    1.3039   19.0832 C   0  0  0  0  0  0  0  0  0  0  0  0
    3.8654    1.8456   19.2208 H   0  0  0  0  0  0  0  0  0  0  0  0
  1  2  1  0
  2  3  2  0
  3  4  1  0
  4  5  1  0
  4  6  2  0
  6  7  1  0
  7  8  1  0
  8  9  2  0
  9 10  1  0
 10 11  1  0
 11 12  1  0
 11 13  2  0
 13 14  1  0
 13 15  1  0
 15 16  1  0
 16 17  1  0
 17 18  2  0
 18 19  1  0
 18 20  1  0
 20 21  1  0
 20 22  2  0
 22 23  1  0
 22 24  1  0
 24 25  1  0
 24 26  2  0
 26 27  1  0
  6 28  1  0
 28 29  1  0
 28 30  2  0
 30 31  1  0
 30  2  1  0
 16  7  2  0
 26 17  1  0
 15  9  1  0
M  END
>  <cnnaffinity>  (1) 
-5.67659

>  <filename>  (1) 
Clc1cccc(-c2c(-c3cccnc3)nc3sccn23)c1

$$$$
