
     RDKit          3D

 35 37  0  0  0  0  0  0  0  0999 V2000
    8.2068    1.1797   23.7023 H   0  0  0  0  0  0  0  0  0  0  0  0
    7.9654    1.0098   22.6481 C   0  0  0  0  0  0  0  0  0  0  0  0
    7.8360   -0.2592   22.2407 C   0  0  0  0  0  0  0  0  0  0  0  0
    7.3260   -0.8112   20.9626 C   0  0  0  0  0  0  0  0  0  0  0  0
    6.6028   -0.0336   19.9195 C   0  0  0  0  0  0  0  0  0  0  0  0
    7.1366   -0.0322   18.6281 C   0  0  0  0  0  0  0  0  0  0  0  0
    8.0456   -0.5930   18.4136 H   0  0  0  0  0  0  0  0  0  0  0  0
    6.5988    0.6303   17.5983 N   0  0  0  0  0  0  0  0  0  0  0  0
    5.4575    1.3023   17.8246 C   0  0  0  0  0  0  0  0  0  0  0  0
    5.0377    1.8416   16.9764 H   0  0  0  0  0  0  0  0  0  0  0  0
    4.8209    1.3308   19.0665 C   0  0  0  0  0  0  0  0  0  0  0  0
    3.8921    1.8755   19.1754 H   0  0  0  0  0  0  0  0  0  0  0  0
    5.4022    0.6590   20.1420 C   0  0  0  0  0  0  0  0  0  0  0  0
    4.9333    0.6801   21.1270 H   0  0  0  0  0  0  0  0  0  0  0  0
    7.5364   -2.0659   20.8073 N   0  0  0  0  0  0  0  0  0  0  0  0
    8.1339   -2.6257   22.0293 C   0  0  0  0  0  0  0  0  0  0  0  0
    7.4903   -3.4215   22.4199 H   0  0  0  0  0  0  0  0  0  0  0  0
    9.0975   -3.0871   21.7880 H   0  0  0  0  0  0  0  0  0  0  0  0
    8.2858   -1.4728   23.0466 C   0  0  0  0  0  0  0  0  0  0  0  0
    9.3170   -1.3820   23.4083 H   0  0  0  0  0  0  0  0  0  0  0  0
    7.6320   -1.6235   23.9119 H   0  0  0  0  0  0  0  0  0  0  0  0
    7.8521    2.2628   21.8060 C   0  0  0  0  0  0  0  0  0  0  0  0
    8.2243    2.0846   20.7883 H   0  0  0  0  0  0  0  0  0  0  0  0
    6.7927    2.5218   21.6851 H   0  0  0  0  0  0  0  0  0  0  0  0
    8.5645    3.4545   22.4333 C   0  0  0  0  0  0  0  0  0  0  0  0
    7.8195    4.4830   23.0364 C   0  0  0  0  0  0  0  0  0  0  0  0
    6.7351    4.3977   23.0835 H   0  0  0  0  0  0  0  0  0  0  0  0
    8.4298    5.6256   23.5604 C   0  0  0  0  0  0  0  0  0  0  0  0
    7.8290    6.3920   24.0435 H   0  0  0  0  0  0  0  0  0  0  0  0
    9.8171    5.7616   23.4885 C   0  0  0  0  0  0  0  0  0  0  0  0
   10.2976    6.6582   23.8683 H   0  0  0  0  0  0  0  0  0  0  0  0
   10.5962    4.7428   22.9399 C   0  0  0  0  0  0  0  0  0  0  0  0
   11.6781    4.8326   22.8781 H   0  0  0  0  0  0  0  0  0  0  0  0
    9.9678    3.5920   22.4464 C   0  0  0  0  0  0  0  0  0  0  0  0
   11.0050    2.3580   21.7718 Cl  0  0  0  0  0  0  0  0  0  0  0  0
  1  2  1  0
  2  3  2  3
  3  4  1  0
  4  5  1  0
  5  6  2  0
  6  7  1  0
  6  8  1  0
  8  9  2  0
  9 10  1  0
  9 11  1  0
 11 12  1  0
 11 13  2  0
 13 14  1  0
  4 15  2  0
 15 16  1  0
 16 17  1  0
 16 18  1  0
 16 19  1  0
 19 20  1  0
 19 21  1  0
  2 22  1  0
 22 23  1  0
 22 24  1  0
 22 25  1  0
 25 26  2  0
 26 27  1  0
 26 28  1  0
 28 29  1  0
 28 30  2  0
 30 31  1  0
 30 32  1  0
 32 33  1  0
 32 34  2  0
 34 35  1  0
 19  3  1  0
 34 25  1  0
 13  5  1  0
M  END
>  <cnnaffinity>  (1) 
-5.45445

>  <filename>  (1) 
Clc1ccccc1CC=C1CCN=C1c1cccnc1

$$$$
