
     RDKit          3D

 35 38  0  0  0  0  0  0  0  0999 V2000
    4.9117    1.8331   16.9633 H   0  0  0  0  0  0  0  0  0  0  0  0
    5.3876    1.3176   17.7951 C   0  0  0  0  0  0  0  0  0  0  0  0
    6.5448    0.6985   17.5175 N   0  0  0  0  0  0  0  0  0  0  0  0
    7.1683    0.0809   18.5285 C   0  0  0  0  0  0  0  0  0  0  0  0
    8.1125   -0.4040   18.2750 H   0  0  0  0  0  0  0  0  0  0  0  0
    6.6928    0.0244   19.8521 C   0  0  0  0  0  0  0  0  0  0  0  0
    7.4568   -0.6985   20.9533 C   0  0  1  0  0  0  0  0  0  0  0  0
    8.3907   -1.0890   20.5248 H   0  0  0  0  0  0  0  0  0  0  0  0
    7.8490    0.2465   22.1494 C   0  0  0  0  0  0  0  0  0  0  0  0
    7.4406    1.2570   22.0602 H   0  0  0  0  0  0  0  0  0  0  0  0
    8.9358    0.3620   22.2138 H   0  0  0  0  0  0  0  0  0  0  0  0
    7.2805   -0.4503   23.3470 C   0  0  0  0  0  0  0  0  0  0  0  0
    7.2724   -0.2015   24.6423 N   0  0  0  0  0  0  0  0  0  0  0  0
    6.6495   -1.2903   25.1589 N   0  0  0  0  0  0  0  0  0  0  0  0
    6.6005   -1.3708   26.1637 H   0  0  0  0  0  0  0  0  0  0  0  0
    6.2527   -2.2052   24.2217 C   0  0  0  0  0  0  0  0  0  0  0  0
    5.6332   -3.5272   24.4687 C   0  0  0  0  0  0  0  0  0  0  0  0
    6.0298   -4.3325   25.5515 C   0  0  0  0  0  0  0  0  0  0  0  0
    6.7632   -3.9767   26.2681 H   0  0  0  0  0  0  0  0  0  0  0  0
    5.5180   -5.6231   25.6692 C   0  0  0  0  0  0  0  0  0  0  0  0
    6.0514   -6.6208   26.9862 Cl  0  0  0  0  0  0  0  0  0  0  0  0
    4.6131   -6.1389   24.7393 C   0  0  0  0  0  0  0  0  0  0  0  0
    4.2396   -7.1505   24.8369 H   0  0  0  0  0  0  0  0  0  0  0  0
    4.2196   -5.3268   23.6736 C   0  0  0  0  0  0  0  0  0  0  0  0
    3.1148   -5.9644   22.4947 Cl  0  0  0  0  0  0  0  0  0  0  0  0
    4.7182   -4.0328   23.5257 C   0  0  0  0  0  0  0  0  0  0  0  0
    4.3972   -3.4232   22.6870 H   0  0  0  0  0  0  0  0  0  0  0  0
    6.6614   -1.6512   23.0228 C   0  0  0  0  0  0  0  0  0  0  0  0
    6.6592   -1.9161   21.5510 C   0  0  0  0  0  0  0  0  0  0  0  0
    7.1242   -2.8708   21.2652 H   0  0  0  0  0  0  0  0  0  0  0  0
    5.6332   -1.9499   21.1600 H   0  0  0  0  0  0  0  0  0  0  0  0
    5.4667    0.6665   20.1052 C   0  0  0  0  0  0  0  0  0  0  0  0
    5.0363    0.6643   21.1073 H   0  0  0  0  0  0  0  0  0  0  0  0
    4.8029    1.3219   19.0643 C   0  0  0  0  0  0  0  0  0  0  0  0
    3.8628    1.8452   19.2199 H   0  0  0  0  0  0  0  0  0  0  0  0
  1  2  1  0
  2  3  2  0
  3  4  1  0
  4  5  1  0
  4  6  2  0
  6  7  1  0
  7  8  1  6
  7  9  1  0
  9 10  1  0
  9 11  1  0
  9 12  1  0
 12 13  2  0
 13 14  1  0
 14 15  1  0
 14 16  1  0
 16 17  1  0
 17 18  2  0
 18 19  1  0
 18 20  1  0
 20 21  1  0
 20 22  2  0
 22 23  1  0
 22 24  1  0
 24 25  1  0
 24 26  2  0
 26 27  1  0
 16 28  2  0
 28 29  1  0
 29 30  1  0
 29 31  1  0
  6 32  1  0
 32 33  1  0
 32 34  2  0
 34 35  1  0
 34  2  1  0
 29  7  1  0
 28 12  1  0
 26 17  1  0
M  END
>  <cnnaffinity>  (1) 
-5.70836

>  <filename>  (1) 
Clc1cc(Cl)cc(-c2[nH]nc3c2C[C@@H](c2cccnc2)C3)c1

$$$$
