
     RDKit          3D

 29 31  0  0  0  0  0  0  0  0999 V2000
    9.0880   -3.3135   21.7652 H   0  0  0  0  0  0  0  0  0  0  0  0
    8.5455   -2.3778   21.7447 C   0  0  0  0  0  0  0  0  0  0  0  0
    7.9978   -1.9025   20.6811 N   0  0  0  0  0  0  0  0  0  0  0  0
    7.3806   -0.7061   20.9628 C   0  0  0  0  0  0  0  0  0  0  0  0
    6.6511   -0.0021   19.9011 C   0  0  0  0  0  0  0  0  0  0  0  0
    7.1707    0.0473   18.5944 C   0  0  0  0  0  0  0  0  0  0  0  0
    8.1220   -0.4319   18.3732 H   0  0  0  0  0  0  0  0  0  0  0  0
    6.5707    0.6798   17.5809 N   0  0  0  0  0  0  0  0  0  0  0  0
    5.4050    1.2915   17.8422 C   0  0  0  0  0  0  0  0  0  0  0  0
    4.9185    1.7783   16.9997 H   0  0  0  0  0  0  0  0  0  0  0  0
    4.8029    1.3093   19.1060 C   0  0  0  0  0  0  0  0  0  0  0  0
    3.8721    1.8436   19.2598 H   0  0  0  0  0  0  0  0  0  0  0  0
    5.4387    0.6542   20.1577 C   0  0  0  0  0  0  0  0  0  0  0  0
    5.0043    0.6296   21.1623 H   0  0  0  0  0  0  0  0  0  0  0  0
    7.5325   -0.2499   22.2634 C   0  0  0  0  0  0  0  0  0  0  0  0
    7.1191    0.9551   22.8047 N   0  0  0  0  0  0  0  0  0  0  0  0
    7.0766    1.7433   22.1757 H   0  0  0  0  0  0  0  0  0  0  0  0
    6.8552    1.2600   24.1539 C   0  0  0  0  0  0  0  0  0  0  0  0
    6.2947    0.3039   25.0067 C   0  0  0  0  0  0  0  0  0  0  0  0
    6.0521   -0.6731   24.6081 H   0  0  0  0  0  0  0  0  0  0  0  0
    6.0509    0.5989   26.3489 C   0  0  0  0  0  0  0  0  0  0  0  0
    5.6318   -0.1543   27.0069 H   0  0  0  0  0  0  0  0  0  0  0  0
    6.3483    1.8700   26.8402 C   0  0  0  0  0  0  0  0  0  0  0  0
    6.0353    2.2360   28.5139 Cl  0  0  0  0  0  0  0  0  0  0  0  0
    6.8834    2.8491   25.9991 C   0  0  0  0  0  0  0  0  0  0  0  0
    7.0949    3.8365   26.3991 H   0  0  0  0  0  0  0  0  0  0  0  0
    7.1274    2.5430   24.6536 C   0  0  0  0  0  0  0  0  0  0  0  0
    7.5408    3.3069   24.0031 H   0  0  0  0  0  0  0  0  0  0  0  0
    8.4156   -1.4303   23.1800 S   0  0  0  0  0  0  0  0  0  0  0  0
  1  2  1  0
  2  3  2  0
  3  4  1  0
  4  5  1  0
  5  6  2  0
  6  7  1  0
  6  8  1  0
  8  9  2  0
  9 10  1  0
  9 11  1  0
 11 12  1  0
 11 13  2  0
 13 14  1  0
  4 15  2  0
 15 16  1  0
 16 17  1  0
 16 18  1  0
 18 19  2  0
 19 20  1  0
 19 21  1  0
 21 22  1  0
 21 23  2  0
 23 24  1  0
 23 25  1  0
 25 26  1  0
 25 27  2  0
 27 28  1  0
 15 29  1  0
 29  2  1  0
 13  5  1  0
 27 18  1  0
M  END
>  <cnnaffinity>  (1) 
-5.30595

>  <filename>  (1) 
Clc1ccc(Nc2scnc2-c2cccnc2)cc1

$$$$
