
     RDKit          3D

 32 35  0  0  0  0  0  0  0  0999 V2000
    4.9991    1.8357   17.2566 H   0  0  0  0  0  0  0  0  0  0  0  0
    5.4861    1.1944   17.9906 C   0  0  0  0  0  0  0  0  0  0  0  0
    6.5914    0.5546   17.5759 N   0  0  0  0  0  0  0  0  0  0  0  0
    7.2469   -0.1933   18.4704 C   0  0  0  0  0  0  0  0  0  0  0  0
    8.1471   -0.6908   18.1004 H   0  0  0  0  0  0  0  0  0  0  0  0
    6.8371   -0.3515   19.8142 C   0  0  0  0  0  0  0  0  0  0  0  0
    7.7062   -1.0106   20.7979 C   0  0  0  0  0  0  0  0  0  0  0  0
    9.0539   -0.8699   21.0314 C   0  0  0  0  0  0  0  0  0  0  0  0
    9.7204   -0.2647   20.4288 H   0  0  0  0  0  0  0  0  0  0  0  0
    9.4726   -1.5198   22.1643 N   0  0  0  0  0  0  0  0  0  0  0  0
    8.3661   -2.0369   22.6333 C   0  0  0  0  0  0  0  0  0  0  0  0
    7.8904   -2.8578   24.0970 S   0  0  0  0  0  0  0  0  0  0  0  0
    6.2511   -2.7351   23.5005 C   0  0  0  0  0  0  0  0  0  0  0  0
    5.1314   -3.1005   24.1692 N   0  0  0  0  0  0  0  0  0  0  0  0
    4.3755   -2.5612   23.7704 H   0  0  0  0  0  0  0  0  0  0  0  0
    4.9020   -3.9298   25.2762 C   0  0  0  0  0  0  0  0  0  0  0  0
    4.0487   -3.4679   26.2869 C   0  0  0  0  0  0  0  0  0  0  0  0
    3.6511   -2.4623   26.2061 H   0  0  0  0  0  0  0  0  0  0  0  0
    3.7115   -4.2888   27.3701 C   0  0  0  0  0  0  0  0  0  0  0  0
    3.0572   -3.9350   28.1607 H   0  0  0  0  0  0  0  0  0  0  0  0
    4.2289   -5.5859   27.4345 C   0  0  0  0  0  0  0  0  0  0  0  0
    3.8512   -6.5999   28.8020 Cl  0  0  0  0  0  0  0  0  0  0  0  0
    5.0665   -6.0675   26.4244 C   0  0  0  0  0  0  0  0  0  0  0  0
    5.4463   -7.0843   26.4862 H   0  0  0  0  0  0  0  0  0  0  0  0
    5.4082   -5.2332   25.3514 C   0  0  0  0  0  0  0  0  0  0  0  0
    6.0360   -5.5985   24.5465 H   0  0  0  0  0  0  0  0  0  0  0  0
    6.0620   -2.1624   22.3411 N   0  0  0  0  0  0  0  0  0  0  0  0
    7.2759   -1.7912   21.8589 N   0  0  0  0  0  0  0  0  0  0  0  0
    5.6250    0.2507   20.1972 C   0  0  0  0  0  0  0  0  0  0  0  0
    5.2348    0.0747   21.1999 H   0  0  0  0  0  0  0  0  0  0  0  0
    4.9593    1.0604   19.2799 C   0  0  0  0  0  0  0  0  0  0  0  0
    4.0561    1.5973   19.5487 H   0  0  0  0  0  0  0  0  0  0  0  0
  1  2  1  0
  2  3  2  0
  3  4  1  0
  4  5  1  0
  4  6  2  0
  6  7  1  0
  7  8  2  0
  8  9  1  0
  8 10  1  0
 10 11  2  0
 11 12  1  0
 12 13  1  0
 13 14  1  0
 14 15  1  0
 14 16  1  0
 16 17  2  0
 17 18  1  0
 17 19  1  0
 19 20  1  0
 19 21  2  0
 21 22  1  0
 21 23  1  0
 23 24  1  0
 23 25  2  0
 25 26  1  0
 13 27  2  0
 27 28  1  0
  6 29  1  0
 29 30  1  0
 29 31  2  0
 31 32  1  0
 31  2  1  0
 28  7  1  0
 28 11  1  0
 25 16  1  0
M  END
>  <cnnaffinity>  (1) 
-5.37546

>  <filename>  (1) 
Clc1ccc(Nc2nn3c(-c4cccnc4)cnc3s2)cc1

$$$$
