
     RDKit          3D

 30 32  0  0  0  0  0  0  0  0999 V2000
    4.9180    1.8091   16.9749 H   0  0  0  0  0  0  0  0  0  0  0  0
    5.3906    1.3034   17.8153 C   0  0  0  0  0  0  0  0  0  0  0  0
    6.5542    0.6854   17.5557 N   0  0  0  0  0  0  0  0  0  0  0  0
    7.1642    0.0645   18.5732 C   0  0  0  0  0  0  0  0  0  0  0  0
    8.1176   -0.4009   18.3264 H   0  0  0  0  0  0  0  0  0  0  0  0
    6.6589   -0.0026   19.8905 C   0  0  0  0  0  0  0  0  0  0  0  0
    7.3535   -0.7008   20.9892 C   0  0  0  0  0  0  0  0  0  0  0  0
    8.3968   -1.6701   20.9647 C   0  0  0  0  0  0  0  0  0  0  0  0
    8.9229   -2.0720   20.1117 H   0  0  0  0  0  0  0  0  0  0  0  0
    8.7451   -2.0747   22.1764 N   0  0  0  0  0  0  0  0  0  0  0  0
    7.9784   -1.3523   22.9914 N   0  0  0  0  0  0  0  0  0  0  0  0
    8.1076   -1.5773   24.3251 N   0  0  0  0  0  0  0  0  0  0  0  0
    8.4799   -2.4975   24.4780 H   0  0  0  0  0  0  0  0  0  0  0  0
    7.8394   -0.6360   25.3187 C   0  0  0  0  0  0  0  0  0  0  0  0
    7.3059   -1.0598   26.5427 C   0  0  0  0  0  0  0  0  0  0  0  0
    7.1448   -2.1251   26.6909 H   0  0  0  0  0  0  0  0  0  0  0  0
    6.9644   -0.1251   27.5255 C   0  0  0  0  0  0  0  0  0  0  0  0
    6.5382   -0.4448   28.4720 H   0  0  0  0  0  0  0  0  0  0  0  0
    7.1719    1.2372   27.2837 C   0  0  0  0  0  0  0  0  0  0  0  0
    6.7566    2.4014   28.5073 Cl  0  0  0  0  0  0  0  0  0  0  0  0
    7.7189    1.6771   26.0744 C   0  0  0  0  0  0  0  0  0  0  0  0
    7.8627    2.7419   25.9068 H   0  0  0  0  0  0  0  0  0  0  0  0
    8.0549    0.7364   25.0976 C   0  0  0  0  0  0  0  0  0  0  0  0
    8.4767    1.0367   24.1415 H   0  0  0  0  0  0  0  0  0  0  0  0
    7.1169   -0.5432   22.3444 C   0  0  0  0  0  0  0  0  0  0  0  0
    6.4806    0.0976   22.9431 H   0  0  0  0  0  0  0  0  0  0  0  0
    5.4393    0.6537   20.1276 C   0  0  0  0  0  0  0  0  0  0  0  0
    5.0008    0.6407   21.1242 H   0  0  0  0  0  0  0  0  0  0  0  0
    4.7985    1.3152   19.0818 C   0  0  0  0  0  0  0  0  0  0  0  0
    3.8653    1.8460   19.2358 H   0  0  0  0  0  0  0  0  0  0  0  0
  1  2  1  0
  2  3  2  0
  3  4  1  0
  4  5  1  0
  4  6  2  0
  6  7  1  0
  7  8  1  0
  8  9  1  0
  8 10  2  0
 10 11  1  0
 11 12  1  0
 12 13  1  0
 12 14  1  0
 14 15  2  0
 15 16  1  0
 15 17  1  0
 17 18  1  0
 17 19  2  0
 19 20  1  0
 19 21  1  0
 21 22  1  0
 21 23  2  0
 23 24  1  0
 11 25  1  0
 25 26  1  0
  6 27  1  0
 27 28  1  0
 27 29  2  0
 29 30  1  0
 29  2  1  0
 25  7  2  0
 23 14  1  0
M  END
>  <cnnaffinity>  (1) 
-4.87413

>  <filename>  (1) 
Clc1ccc(Nn2cc(-c3cccnc3)cn2)cc1

$$$$
