
     RDKit          3D

 31 33  0  0  0  0  0  0  0  0999 V2000
    4.9362    1.8026   16.9750 H   0  0  0  0  0  0  0  0  0  0  0  0
    5.3890    1.2966   17.8246 C   0  0  0  0  0  0  0  0  0  0  0  0
    6.5539    0.6744   17.5804 N   0  0  0  0  0  0  0  0  0  0  0  0
    7.1652    0.0871   18.6172 C   0  0  0  0  0  0  0  0  0  0  0  0
    8.1133   -0.4005   18.3793 H   0  0  0  0  0  0  0  0  0  0  0  0
    6.6543    0.0833   19.9366 C   0  0  0  0  0  0  0  0  0  0  0  0
    7.3464   -0.5852   21.0741 C   0  0  0  0  0  0  0  0  0  0  0  0
    7.8508   -1.8753   20.9152 C   0  0  0  0  0  0  0  0  0  0  0  0
    7.6095   -2.3799   20.0042 H   0  0  0  0  0  0  0  0  0  0  0  0
    8.5268   -2.5635   21.8407 N   0  0  0  0  0  0  0  0  0  0  0  0
    8.6945   -1.9842   23.0335 C   0  0  0  0  0  0  0  0  0  0  0  0
    9.2359   -2.5430   23.7923 H   0  0  0  0  0  0  0  0  0  0  0  0
    8.1831   -0.7129   23.3287 C   0  0  0  0  0  0  0  0  0  0  0  0
    8.3852   -0.2496   24.6015 O   0  0  0  0  0  0  0  0  0  0  0  0
    8.4637    1.0984   24.8564 C   0  0  0  0  0  0  0  0  0  0  0  0
    9.0559    2.0178   23.9800 C   0  0  0  0  0  0  0  0  0  0  0  0
    9.4371    1.6795   23.0207 H   0  0  0  0  0  0  0  0  0  0  0  0
    9.1229    3.3651   24.3419 C   0  0  0  0  0  0  0  0  0  0  0  0
    9.5617    4.1011   23.6736 H   0  0  0  0  0  0  0  0  0  0  0  0
    8.6097    3.7714   25.5752 C   0  0  0  0  0  0  0  0  0  0  0  0
    8.7096    5.4447   26.0343 Cl  0  0  0  0  0  0  0  0  0  0  0  0
    8.0197    2.8524   26.4531 C   0  0  0  0  0  0  0  0  0  0  0  0
    7.6418    3.1888   27.4136 H   0  0  0  0  0  0  0  0  0  0  0  0
    7.9479    1.5082   26.0857 C   0  0  0  0  0  0  0  0  0  0  0  0
    7.5098    0.7416   26.7211 H   0  0  0  0  0  0  0  0  0  0  0  0
    7.4826   -0.0116   22.3439 C   0  0  0  0  0  0  0  0  0  0  0  0
    7.0707    0.9649   22.5722 H   0  0  0  0  0  0  0  0  0  0  0  0
    5.4192    0.7045   20.1501 C   0  0  0  0  0  0  0  0  0  0  0  0
    4.9805    0.6664   21.1482 H   0  0  0  0  0  0  0  0  0  0  0  0
    4.7759    1.3265   19.0805 C   0  0  0  0  0  0  0  0  0  0  0  0
    3.8375    1.8516   19.2150 H   0  0  0  0  0  0  0  0  0  0  0  0
  1  2  1  0
  2  3  2  0
  3  4  1  0
  4  5  1  0
  4  6  2  0
  6  7  1  0
  7  8  2  0
  8  9  1  0
  8 10  1  0
 10 11  2  0
 11 12  1  0
 11 13  1  0
 13 14  1  0
 14 15  1  0
 15 16  2  0
 16 17  1  0
 16 18  1  0
 18 19  1  0
 18 20  2  0
 20 21  1  0
 20 22  1  0
 22 23  1  0
 22 24  2  0
 24 25  1  0
 13 26  2  0
 26 27  1  0
  6 28  1  0
 28 29  1  0
 28 30  2  0
 30 31  1  0
 30  2  1  0
 26  7  1  0
 24 15  1  0
M  END
>  <cnnaffinity>  (1) 
-5.13595

>  <filename>  (1) 
Clc1ccc(Oc2cncc(-c3cccnc3)c2)cc1

$$$$
