
     RDKit          3D

 33 36  0  0  0  0  0  0  0  0999 V2000
    5.1197    1.9013   16.8973 H   0  0  0  0  0  0  0  0  0  0  0  0
    5.5757    1.3732   17.7320 C   0  0  0  0  0  0  0  0  0  0  0  0
    6.7914    0.8510   17.4972 N   0  0  0  0  0  0  0  0  0  0  0  0
    7.3756    0.1860   18.4958 C   0  0  0  0  0  0  0  0  0  0  0  0
    8.3754   -0.2015   18.3019 H   0  0  0  0  0  0  0  0  0  0  0  0
    6.7669   -0.0489   19.7402 C   0  0  0  0  0  0  0  0  0  0  0  0
    7.4751   -0.8536   20.7320 C   0  0  0  0  0  0  0  0  0  0  0  0
    8.8289   -0.6660   20.9209 N   0  0  0  0  0  0  0  0  0  0  0  0
    9.1121   -1.4358   21.9342 C   0  0  0  0  0  0  0  0  0  0  0  0
   10.5200   -1.7320   22.9253 S   0  0  0  0  0  0  0  0  0  0  0  0
    9.5695   -2.7651   23.9843 C   0  0  0  0  0  0  0  0  0  0  0  0
   10.0387   -3.2109   24.8509 H   0  0  0  0  0  0  0  0  0  0  0  0
    8.2935   -2.8792   23.5782 C   0  0  0  0  0  0  0  0  0  0  0  0
    7.4685   -3.4041   24.0438 H   0  0  0  0  0  0  0  0  0  0  0  0
    8.0494   -2.1684   22.3977 N   0  0  0  0  0  0  0  0  0  0  0  0
    6.9677   -1.8275   21.5970 C   0  0  0  0  0  0  0  0  0  0  0  0
    5.7050   -2.4177   21.7259 N   0  0  0  0  0  0  0  0  0  0  0  0
    5.0244   -1.7966   22.1475 H   0  0  0  0  0  0  0  0  0  0  0  0
    5.4902   -3.7310   22.1907 C   0  0  0  0  0  0  0  0  0  0  0  0
    6.1850   -4.8294   21.6652 C   0  0  0  0  0  0  0  0  0  0  0  0
    6.8878   -4.6494   20.8571 H   0  0  0  0  0  0  0  0  0  0  0  0
    5.9549   -6.1148   22.1765 C   0  0  0  0  0  0  0  0  0  0  0  0
    6.4666   -6.9787   21.7608 H   0  0  0  0  0  0  0  0  0  0  0  0
    5.0625   -6.2816   23.2404 C   0  0  0  0  0  0  0  0  0  0  0  0
    4.7538   -7.8618   23.8957 Cl  0  0  0  0  0  0  0  0  0  0  0  0
    4.3661   -5.1924   23.7720 C   0  0  0  0  0  0  0  0  0  0  0  0
    3.6699   -5.3472   24.5922 H   0  0  0  0  0  0  0  0  0  0  0  0
    4.5694   -3.9269   23.2253 C   0  0  0  0  0  0  0  0  0  0  0  0
    4.0315   -3.0707   23.6219 H   0  0  0  0  0  0  0  0  0  0  0  0
    5.5099    0.5323   19.9833 C   0  0  0  0  0  0  0  0  0  0  0  0
    5.0369    0.4481   20.9656 H   0  0  0  0  0  0  0  0  0  0  0  0
    4.9097    1.2566   18.9572 C   0  0  0  0  0  0  0  0  0  0  0  0
    3.9517    1.7472   19.0906 H   0  0  0  0  0  0  0  0  0  0  0  0
  1  2  1  0
  2  3  2  0
  3  4  1  0
  4  5  1  0
  4  6  2  0
  6  7  1  0
  7  8  1  0
  8  9  2  0
  9 10  1  0
 10 11  1  0
 11 12  1  0
 11 13  2  0
 13 14  1  0
 13 15  1  0
 15 16  1  0
 16 17  1  0
 17 18  1  0
 17 19  1  0
 19 20  2  0
 20 21  1  0
 20 22  1  0
 22 23  1  0
 22 24  2  0
 24 25  1  0
 24 26  1  0
 26 27  1  0
 26 28  2  0
 28 29  1  0
  6 30  1  0
 30 31  1  0
 30 32  2  0
 32 33  1  0
 32  2  1  0
 16  7  2  0
 28 19  1  0
 15  9  1  0
M  END
>  <cnnaffinity>  (1) 
-5.6452

>  <filename>  (1) 
Clc1ccc(Nc2c(-c3cccnc3)nc3sccn23)cc1

$$$$
