
     RDKit          3D

 32 34  0  0  0  0  0  0  0  0999 V2000
    6.6800   -1.3379   21.6218 H   0  0  0  0  0  0  0  0  0  0  0  0
    7.3267   -0.7221   20.9931 C   0  0  0  0  0  0  0  0  0  0  0  0
    8.6096   -0.5366   21.3375 C   0  0  0  0  0  0  0  0  0  0  0  0
    9.3650   -1.1545   22.4388 C   0  0  0  0  0  0  0  0  0  0  0  0
    8.8491   -2.3289   23.2019 C   0  0  0  0  0  0  0  0  0  0  0  0
    9.0768   -2.3808   24.5861 C   0  0  0  0  0  0  0  0  0  0  0  0
    9.5972   -1.5702   25.0874 H   0  0  0  0  0  0  0  0  0  0  0  0
    8.6505   -3.4903   25.3107 C   0  0  0  0  0  0  0  0  0  0  0  0
    8.9509   -3.5586   27.0178 Cl  0  0  0  0  0  0  0  0  0  0  0  0
    7.9981   -4.5628   24.6990 C   0  0  0  0  0  0  0  0  0  0  0  0
    7.6741   -5.4202   25.2808 H   0  0  0  0  0  0  0  0  0  0  0  0
    7.7832   -4.4978   23.3217 C   0  0  0  0  0  0  0  0  0  0  0  0
    6.9814   -5.8219   22.5367 Cl  0  0  0  0  0  0  0  0  0  0  0  0
    8.1946   -3.3989   22.5642 C   0  0  0  0  0  0  0  0  0  0  0  0
    8.0155   -3.3964   21.4927 H   0  0  0  0  0  0  0  0  0  0  0  0
   10.4806   -0.5795   22.7001 N   0  0  0  0  0  0  0  0  0  0  0  0
   10.6987    0.5106   21.7474 C   0  0  0  0  0  0  0  0  0  0  0  0
   11.6668    0.3698   21.2641 H   0  0  0  0  0  0  0  0  0  0  0  0
   10.7416    1.4508   22.3048 H   0  0  0  0  0  0  0  0  0  0  0  0
    9.5141    0.5144   20.7510 C   0  0  0  0  0  0  0  0  0  0  0  0
    9.7585    0.1840   19.7430 H   0  0  0  0  0  0  0  0  0  0  0  0
    9.0303    1.4916   20.6589 H   0  0  0  0  0  0  0  0  0  0  0  0
    6.6429   -0.0137   19.8948 C   0  0  0  0  0  0  0  0  0  0  0  0
    7.1655    0.0663   18.5906 C   0  0  0  0  0  0  0  0  0  0  0  0
    8.1095   -0.4278   18.3749 H   0  0  0  0  0  0  0  0  0  0  0  0
    6.5634    0.6860   17.5690 N   0  0  0  0  0  0  0  0  0  0  0  0
    5.3999    1.2987   17.8346 C   0  0  0  0  0  0  0  0  0  0  0  0
    4.9139    1.7837   16.9935 H   0  0  0  0  0  0  0  0  0  0  0  0
    4.8003    1.3138   19.1022 C   0  0  0  0  0  0  0  0  0  0  0  0
    3.8690    1.8487   19.2566 H   0  0  0  0  0  0  0  0  0  0  0  0
    5.4232    0.6356   20.1461 C   0  0  0  0  0  0  0  0  0  0  0  0
    5.0066    0.6241   21.1603 H   0  0  0  0  0  0  0  0  0  0  0  0
  1  2  1  0
  2  3  2  3
  3  4  1  0
  4  5  1  0
  5  6  2  0
  6  7  1  0
  6  8  1  0
  8  9  1  0
  8 10  2  0
 10 11  1  0
 10 12  1  0
 12 13  1  0
 12 14  2  0
 14 15  1  0
  4 16  2  0
 16 17  1  0
 17 18  1  0
 17 19  1  0
 17 20  1  0
 20 21  1  0
 20 22  1  0
  2 23  1  0
 23 24  2  0
 24 25  1  0
 24 26  1  0
 26 27  2  0
 27 28  1  0
 27 29  1  0
 29 30  1  0
 29 31  2  0
 31 32  1  0
 20  3  1  0
 31 23  1  0
 14  5  1  0
M  END
>  <cnnaffinity>  (1) 
-5.75098

>  <filename>  (1) 
Clc1cc(Cl)cc(C2=NCCC2=Cc2cccnc2)c1

$$$$
