
     RDKit          3D

 30 32  0  0  0  0  0  0  0  0999 V2000
    4.9207    1.7804   16.9933 H   0  0  0  0  0  0  0  0  0  0  0  0
    5.4051    1.2961   17.8342 C   0  0  0  0  0  0  0  0  0  0  0  0
    6.5655    0.6714   17.5683 N   0  0  0  0  0  0  0  0  0  0  0  0
    7.1682    0.0664   18.5952 C   0  0  0  0  0  0  0  0  0  0  0  0
    8.1125   -0.4330   18.3772 H   0  0  0  0  0  0  0  0  0  0  0  0
    6.6449    0.0283   19.8946 C   0  0  0  0  0  0  0  0  0  0  0  0
    7.3073   -0.7208   20.9592 C   0  0  0  0  0  0  0  0  0  0  0  0
    6.7237   -1.5854   21.7493 N   0  0  0  0  0  0  0  0  0  0  0  0
    7.6741   -2.0873   22.5996 N   0  0  0  0  0  0  0  0  0  0  0  0
    8.7966   -1.4952   22.3124 C   0  0  0  0  0  0  0  0  0  0  0  0
    9.7409   -1.6579   22.8161 H   0  0  0  0  0  0  0  0  0  0  0  0
    8.6345   -0.6232   21.2715 N   0  0  0  0  0  0  0  0  0  0  0  0
    9.6655    0.2653   20.7520 C   0  0  0  0  0  0  0  0  0  0  0  0
    9.2270    0.9377   20.0135 H   0  0  0  0  0  0  0  0  0  0  0  0
   10.4019   -0.3780   20.2675 H   0  0  0  0  0  0  0  0  0  0  0  0
   10.3310    1.0913   21.8331 C   0  0  0  0  0  0  0  0  0  0  0  0
   11.5933    0.7252   22.3247 C   0  0  0  0  0  0  0  0  0  0  0  0
   12.0959   -0.1352   21.8886 H   0  0  0  0  0  0  0  0  0  0  0  0
   12.2015    1.4247   23.3683 C   0  0  0  0  0  0  0  0  0  0  0  0
   13.1800    1.1204   23.7306 H   0  0  0  0  0  0  0  0  0  0  0  0
   11.5418    2.5178   23.9356 C   0  0  0  0  0  0  0  0  0  0  0  0
   12.0001    3.0760   24.7403 H   0  0  0  0  0  0  0  0  0  0  0  0
   10.2835    2.9067   23.4742 C   0  0  0  0  0  0  0  0  0  0  0  0
    9.7588    3.7545   23.9070 H   0  0  0  0  0  0  0  0  0  0  0  0
    9.6909    2.1910   22.4304 C   0  0  0  0  0  0  0  0  0  0  0  0
    8.1144    2.7035   21.8967 Cl  0  0  0  0  0  0  0  0  0  0  0  0
    5.4224    0.6629   20.1554 C   0  0  0  0  0  0  0  0  0  0  0  0
    4.9981    0.6209   21.1665 H   0  0  0  0  0  0  0  0  0  0  0  0
    4.8036    1.3220   19.0989 C   0  0  0  0  0  0  0  0  0  0  0  0
    3.8687    1.8493   19.2537 H   0  0  0  0  0  0  0  0  0  0  0  0
  1  2  1  0
  2  3  2  0
  3  4  1  0
  4  5  1  0
  4  6  2  0
  6  7  1  0
  7  8  2  0
  8  9  1  0
  9 10  2  0
 10 11  1  0
 10 12  1  0
 12 13  1  0
 13 14  1  0
 13 15  1  0
 13 16  1  0
 16 17  2  0
 17 18  1  0
 17 19  1  0
 19 20  1  0
 19 21  2  0
 21 22  1  0
 21 23  1  0
 23 24  1  0
 23 25  2  0
 25 26  1  0
  6 27  1  0
 27 28  1  0
 27 29  2  0
 29 30  1  0
 29  2  1  0
 12  7  1  0
 25 16  1  0
M  END
>  <cnnaffinity>  (1) 
-5.47133

>  <filename>  (1) 
Clc1ccccc1Cn1cnnc1-c1cccnc1

$$$$
