
     RDKit          3D

 34 36  0  0  0  0  0  0  0  0999 V2000
    9.8838   -3.0046   24.3604 Cl  0  0  0  0  0  0  0  0  0  0  0  0
    8.4616   -2.0843   24.7451 C   0  0  0  0  0  0  0  0  0  0  0  0
    7.6245   -2.5363   25.7491 C   0  0  0  0  0  0  0  0  0  0  0  0
    6.4735   -1.9357   26.0666 N   0  0  0  0  0  0  0  0  0  0  0  0
    6.1360   -0.8822   25.3360 C   0  0  0  0  0  0  0  0  0  0  0  0
    6.8269   -0.3661   24.3283 N   0  0  0  0  0  0  0  0  0  0  0  0
    8.0222   -0.9191   24.0624 C   0  0  0  0  0  0  0  0  0  0  0  0
    8.7554   -0.3090   23.0897 N   0  0  0  0  0  0  0  0  0  0  0  0
   10.1881   -0.0257   23.1991 C   0  0  0  0  0  0  0  0  0  0  0  0
   10.3951    1.1458   22.2279 C   0  0  0  0  0  0  0  0  0  0  0  0
    9.2690    1.0095   21.1980 C   0  0  0  0  0  0  0  0  0  0  0  0
    8.1085    0.3164   21.9314 C   0  0  0  0  0  0  0  0  0  0  0  0
    7.3689   -0.7065   21.0285 C   0  0  0  0  0  0  0  0  0  0  0  0
    6.6352   -0.0276   19.8881 C   0  0  0  0  0  0  0  0  0  0  0  0
    5.4294    0.6443   20.1335 C   0  0  0  0  0  0  0  0  0  0  0  0
    4.7942    1.3134   19.0863 C   0  0  0  0  0  0  0  0  0  0  0  0
    5.3908    1.3044   17.8208 C   0  0  0  0  0  0  0  0  0  0  0  0
    6.5528    0.6864   17.5632 N   0  0  0  0  0  0  0  0  0  0  0  0
    7.1540    0.0534   18.5818 C   0  0  0  0  0  0  0  0  0  0  0  0
    8.1079   -0.4197   18.3397 H   0  0  0  0  0  0  0  0  0  0  0  0
    4.9194    1.8088   16.9782 H   0  0  0  0  0  0  0  0  0  0  0  0
    3.8661    1.8528   19.2364 H   0  0  0  0  0  0  0  0  0  0  0  0
    5.0195    0.6418   21.1474 H   0  0  0  0  0  0  0  0  0  0  0  0
    6.6630   -1.2703   21.6506 H   0  0  0  0  0  0  0  0  0  0  0  0
    8.1064   -1.4270   20.6514 H   0  0  0  0  0  0  0  0  0  0  0  0
    7.3681    1.0561   22.2829 H   0  0  0  0  0  0  0  0  0  0  0  0
    9.5829    0.3972   20.3414 H   0  0  0  0  0  0  0  0  0  0  0  0
    8.9523    1.9735   20.7927 H   0  0  0  0  0  0  0  0  0  0  0  0
   10.3170    2.1012   22.7591 H   0  0  0  0  0  0  0  0  0  0  0  0
   11.3858    1.1085   21.7657 H   0  0  0  0  0  0  0  0  0  0  0  0
   10.4659    0.2335   24.2331 H   0  0  0  0  0  0  0  0  0  0  0  0
   10.7828   -0.9006   22.9100 H   0  0  0  0  0  0  0  0  0  0  0  0
    5.1938   -0.3971   25.6032 H   0  0  0  0  0  0  0  0  0  0  0  0
    7.8859   -3.4238   26.3319 H   0  0  0  0  0  0  0  0  0  0  0  0
  1  2  1  0
  2  3  2  0
  3  4  1  0
  4  5  2  0
  5  6  1  0
  6  7  2  0
  7  8  1  0
  8  9  1  0
  9 10  1  0
 10 11  1  0
 11 12  1  0
 12 13  1  0
 13 14  1  0
 14 15  2  0
 15 16  1  0
 16 17  2  0
 17 18  1  0
 18 19  2  0
 19 20  1  0
 17 21  1  0
 16 22  1  0
 15 23  1  0
 13 24  1  0
 13 25  1  0
 12 26  1  0
 11 27  1  0
 11 28  1  0
 10 29  1  0
 10 30  1  0
  9 31  1  0
  9 32  1  0
  5 33  1  0
  3 34  1  0
  7  2  1  0
 12  8  1  0
 19 14  1  0
M  END
>  <cnnaffinity>  (1) 
-5.30766

>  <filename>  (1) 
Clc1cncnc1N1CCCC1Cc1cccnc1

$$$$
