
     RDKit          3D

 32 35  0  0  0  0  0  0  0  0999 V2000
    4.9411    1.8000   16.9485 H   0  0  0  0  0  0  0  0  0  0  0  0
    5.4224    1.3068   17.7848 C   0  0  0  0  0  0  0  0  0  0  0  0
    6.5858    0.6942   17.5231 N   0  0  0  0  0  0  0  0  0  0  0  0
    7.2174    0.1040   18.5418 C   0  0  0  0  0  0  0  0  0  0  0  0
    8.1543   -0.3978   18.2996 H   0  0  0  0  0  0  0  0  0  0  0  0
    6.7165    0.0838   19.8567 C   0  0  0  0  0  0  0  0  0  0  0  0
    7.4121   -0.6696   20.9168 C   0  0  0  0  0  0  0  0  0  0  0  0
    8.6361   -1.1984   20.7547 N   0  0  0  0  0  0  0  0  0  0  0  0
    8.8084   -1.8975   21.9020 N   0  0  0  0  0  0  0  0  0  0  0  0
    9.7710   -2.7754   22.3842 C   0  0  0  0  0  0  0  0  0  0  0  0
   10.7175   -2.8802   21.8832 H   0  0  0  0  0  0  0  0  0  0  0  0
    9.2351   -3.3455   23.4911 C   0  0  0  0  0  0  0  0  0  0  0  0
    9.6279   -4.1237   24.1274 H   0  0  0  0  0  0  0  0  0  0  0  0
    7.9799   -2.7777   23.7444 N   0  0  0  0  0  0  0  0  0  0  0  0
    7.0622   -3.0759   24.7781 C   0  0  0  0  0  0  0  0  0  0  0  0
    6.8681   -4.4041   25.1818 C   0  0  0  0  0  0  0  0  0  0  0  0
    7.4299   -5.2081   24.7160 H   0  0  0  0  0  0  0  0  0  0  0  0
    5.8918   -4.6862   26.1377 C   0  0  0  0  0  0  0  0  0  0  0  0
    5.6246   -6.3424   26.5919 Cl  0  0  0  0  0  0  0  0  0  0  0  0
    5.1050   -3.6808   26.7075 C   0  0  0  0  0  0  0  0  0  0  0  0
    4.3293   -3.9171   27.4281 H   0  0  0  0  0  0  0  0  0  0  0  0
    5.3259   -2.3634   26.2945 C   0  0  0  0  0  0  0  0  0  0  0  0
    4.3333   -1.1016   26.9578 Cl  0  0  0  0  0  0  0  0  0  0  0  0
    6.2917   -2.0438   25.3440 C   0  0  0  0  0  0  0  0  0  0  0  0
    6.4241   -1.0181   25.0108 H   0  0  0  0  0  0  0  0  0  0  0  0
    7.7476   -1.8570   22.7317 C   0  0  0  0  0  0  0  0  0  0  0  0
    6.8331   -0.9879   22.1631 C   0  0  0  0  0  0  0  0  0  0  0  0
    5.9316   -0.5559   22.5456 H   0  0  0  0  0  0  0  0  0  0  0  0
    5.4822    0.7150   20.1023 C   0  0  0  0  0  0  0  0  0  0  0  0
    5.0289    0.7149   21.0953 H   0  0  0  0  0  0  0  0  0  0  0  0
    4.8273    1.3339   19.0481 C   0  0  0  0  0  0  0  0  0  0  0  0
    3.8784    1.8328   19.1978 H   0  0  0  0  0  0  0  0  0  0  0  0
  1  2  1  0
  2  3  2  0
  3  4  1  0
  4  5  1  0
  4  6  2  0
  6  7  1  0
  7  8  2  0
  8  9  1  0
  9 10  1  0
 10 11  1  0
 10 12  2  0
 12 13  1  0
 12 14  1  0
 14 15  1  0
 15 16  2  0
 16 17  1  0
 16 18  1  0
 18 19  1  0
 18 20  2  0
 20 21  1  0
 20 22  1  0
 22 23  1  0
 22 24  2  0
 24 25  1  0
 14 26  1  0
 26 27  2  0
 27 28  1  0
  6 29  1  0
 29 30  1  0
 29 31  2  0
 31 32  1  0
 31  2  1  0
 27  7  1  0
 26  9  1  0
 24 15  1  0
M  END
>  <cnnaffinity>  (1) 
-5.9408

>  <filename>  (1) 
Clc1cc(Cl)cc(-n2ccn3nc(-c4cccnc4)cc23)c1

$$$$
