
     RDKit          3D

 36 39  0  0  0  0  0  0  0  0999 V2000
    4.9518    1.8266   16.9009 H   0  0  0  0  0  0  0  0  0  0  0  0
    5.3872    1.3031   17.7499 C   0  0  0  0  0  0  0  0  0  0  0  0
    6.5321    0.6468   17.5146 N   0  0  0  0  0  0  0  0  0  0  0  0
    7.1079    0.0338   18.5530 C   0  0  0  0  0  0  0  0  0  0  0  0
    8.0308   -0.5005   18.3407 H   0  0  0  0  0  0  0  0  0  0  0  0
    6.5911    0.0563   19.8645 C   0  0  0  0  0  0  0  0  0  0  0  0
    7.3510   -0.5524   20.9610 C   0  0  0  0  0  0  0  0  0  0  0  0
    8.2687   -1.5029   20.7427 N   0  0  0  0  0  0  0  0  0  0  0  0
    8.7800   -1.7352   21.9483 N   0  0  0  0  0  0  0  0  0  0  0  0
    8.2773   -0.9911   22.9466 C   0  0  0  0  0  0  0  0  0  0  0  0
    7.2958   -0.2276   22.3508 C   0  0  0  0  0  0  0  0  0  0  0  0
    6.4289    0.6791   22.9038 O   0  0  0  0  0  0  0  0  0  0  0  0
    6.2235    0.6721   24.2705 C   0  0  0  0  0  0  0  0  0  0  0  0
    5.8733   -0.4911   24.9669 C   0  0  0  0  0  0  0  0  0  0  0  0
    5.8853   -1.4472   24.4509 H   0  0  0  0  0  0  0  0  0  0  0  0
    5.5486   -0.4195   26.3238 C   0  0  0  0  0  0  0  0  0  0  0  0
    5.2672   -1.3106   26.8752 H   0  0  0  0  0  0  0  0  0  0  0  0
    5.5902    0.8156   26.9745 C   0  0  0  0  0  0  0  0  0  0  0  0
    5.1334    0.9156   28.6502 Cl  0  0  0  0  0  0  0  0  0  0  0  0
    5.9836    1.9703   26.2938 C   0  0  0  0  0  0  0  0  0  0  0  0
    6.0335    2.9190   26.8194 H   0  0  0  0  0  0  0  0  0  0  0  0
    6.3049    1.8958   24.9360 C   0  0  0  0  0  0  0  0  0  0  0  0
    6.6277    2.7724   24.3834 H   0  0  0  0  0  0  0  0  0  0  0  0
    8.9919   -1.2905   24.2378 C   0  0  0  0  0  0  0  0  0  0  0  0
    9.3933   -0.3808   24.6937 H   0  0  0  0  0  0  0  0  0  0  0  0
    8.3210   -1.7541   24.9721 H   0  0  0  0  0  0  0  0  0  0  0  0
   10.1267   -2.2418   23.7710 C   0  0  0  0  0  0  0  0  0  0  0  0
   11.0426   -1.6638   23.6722 H   0  0  0  0  0  0  0  0  0  0  0  0
   10.3042   -3.0603   24.4726 H   0  0  0  0  0  0  0  0  0  0  0  0
    9.7571   -2.7161   22.3409 C   0  0  0  0  0  0  0  0  0  0  0  0
    9.3260   -3.7247   22.3124 H   0  0  0  0  0  0  0  0  0  0  0  0
   10.6052   -2.6569   21.6561 H   0  0  0  0  0  0  0  0  0  0  0  0
    5.3656    0.7082   20.0840 C   0  0  0  0  0  0  0  0  0  0  0  0
    4.9108    0.7285   21.0760 H   0  0  0  0  0  0  0  0  0  0  0  0
    4.7612    1.3375   19.0003 C   0  0  0  0  0  0  0  0  0  0  0  0
    3.8312    1.8780   19.1185 H   0  0  0  0  0  0  0  0  0  0  0  0
  1  2  1  0
  2  3  2  0
  3  4  1  0
  4  5  1  0
  4  6  2  0
  6  7  1  0
  7  8  2  0
  8  9  1  0
  9 10  1  0
 10 11  2  0
 11 12  1  0
 12 13  1  0
 13 14  2  0
 14 15  1  0
 14 16  1  0
 16 17  1  0
 16 18  2  0
 18 19  1  0
 18 20  1  0
 20 21  1  0
 20 22  2  0
 22 23  1  0
 10 24  1  0
 24 25  1  0
 24 26  1  0
 24 27  1  0
 27 28  1  0
 27 29  1  0
 27 30  1  0
 30 31  1  0
 30 32  1  0
  6 33  1  0
 33 34  1  0
 33 35  2  0
 35 36  1  0
 35  2  1  0
 11  7  1  0
 22 13  1  0
 30  9  1  0
M  END
>  <cnnaffinity>  (1) 
-5.41502

>  <filename>  (1) 
Clc1ccc(Oc2c(-c3cccnc3)nn3c2CCC3)cc1

$$$$
