
     RDKit          3D

 30 32  0  0  0  0  0  0  0  0999 V2000
    4.9104    1.8294   16.9558 H   0  0  0  0  0  0  0  0  0  0  0  0
    5.3785    1.3182   17.7990 C   0  0  0  0  0  0  0  0  0  0  0  0
    6.5391    0.6914   17.5405 N   0  0  0  0  0  0  0  0  0  0  0  0
    7.1471    0.0755   18.5668 C   0  0  0  0  0  0  0  0  0  0  0  0
    8.0938   -0.4109   18.3303 H   0  0  0  0  0  0  0  0  0  0  0  0
    6.6373    0.0096   19.8843 C   0  0  0  0  0  0  0  0  0  0  0  0
    7.3010   -0.7229   20.9935 C   0  0  0  0  0  0  0  0  0  0  0  0
    6.6929   -1.7437   21.8117 C   0  0  0  0  0  0  0  0  0  0  0  0
    5.6590   -2.0684   21.7259 H   0  0  0  0  0  0  0  0  0  0  0  0
    7.4495   -2.3410   22.6890 N   0  0  0  0  0  0  0  0  0  0  0  0
    8.9725   -1.6829   22.6162 S   0  0  0  0  0  0  0  0  0  0  0  0
    8.6062   -0.5525   21.3796 C   0  0  0  0  0  0  0  0  0  0  0  0
    9.6661    0.3798   20.8641 C   0  0  0  0  0  0  0  0  0  0  0  0
   10.4839   -0.2462   20.4890 H   0  0  0  0  0  0  0  0  0  0  0  0
    9.2516    0.9394   20.0236 H   0  0  0  0  0  0  0  0  0  0  0  0
   10.2121    1.3360   21.9083 C   0  0  0  0  0  0  0  0  0  0  0  0
   11.4533    1.0675   22.5000 C   0  0  0  0  0  0  0  0  0  0  0  0
   12.0248    0.2193   22.1238 H   0  0  0  0  0  0  0  0  0  0  0  0
   11.9564    1.8569   23.5363 C   0  0  0  0  0  0  0  0  0  0  0  0
   12.9065    1.5971   23.9952 H   0  0  0  0  0  0  0  0  0  0  0  0
   11.2251    2.9636   23.9789 C   0  0  0  0  0  0  0  0  0  0  0  0
   11.6314    3.6037   24.7560 H   0  0  0  0  0  0  0  0  0  0  0  0
    9.9880    3.2645   23.3996 C   0  0  0  0  0  0  0  0  0  0  0  0
    9.3865    4.1040   23.7375 H   0  0  0  0  0  0  0  0  0  0  0  0
    9.4950    2.4533   22.3711 C   0  0  0  0  0  0  0  0  0  0  0  0
    7.9465    2.8584   21.6830 Cl  0  0  0  0  0  0  0  0  0  0  0  0
    5.4195    0.6621   20.1153 C   0  0  0  0  0  0  0  0  0  0  0  0
    5.0062    0.6438   21.1221 H   0  0  0  0  0  0  0  0  0  0  0  0
    4.7853    1.3317   19.0655 C   0  0  0  0  0  0  0  0  0  0  0  0
    3.8520    1.8650   19.2141 H   0  0  0  0  0  0  0  0  0  0  0  0
  1  2  1  0
  2  3  2  0
  3  4  1  0
  4  5  1  0
  4  6  2  0
  6  7  1  0
  7  8  1  0
  8  9  1  0
  8 10  2  0
 10 11  1  0
 11 12  1  0
 12 13  1  0
 13 14  1  0
 13 15  1  0
 13 16  1  0
 16 17  2  0
 17 18  1  0
 17 19  1  0
 19 20  1  0
 19 21  2  0
 21 22  1  0
 21 23  1  0
 23 24  1  0
 23 25  2  0
 25 26  1  0
  6 27  1  0
 27 28  1  0
 27 29  2  0
 29 30  1  0
 29  2  1  0
 12  7  2  0
 25 16  1  0
M  END
>  <cnnaffinity>  (1) 
-5.52253

>  <filename>  (1) 
Clc1ccccc1Cc1sncc1-c1cccnc1

$$$$
