
     RDKit          3D

 31 33  0  0  0  0  0  0  0  0999 V2000
    5.0695    1.8050   16.9464 H   0  0  0  0  0  0  0  0  0  0  0  0
    5.4887    1.3064   17.8179 C   0  0  0  0  0  0  0  0  0  0  0  0
    6.6289    0.6252   17.6222 N   0  0  0  0  0  0  0  0  0  0  0  0
    7.1629    0.0039   18.6743 C   0  0  0  0  0  0  0  0  0  0  0  0
    8.0537   -0.5894   18.4777 H   0  0  0  0  0  0  0  0  0  0  0  0
    6.6388    0.0720   19.9741 C   0  0  0  0  0  0  0  0  0  0  0  0
    7.3775   -0.6534   21.0020 C   0  0  0  0  0  0  0  0  0  0  0  0
    7.9719   -1.7943   20.7387 N   0  0  0  0  0  0  0  0  0  0  0  0
    8.4504   -2.2537   21.9335 C   0  0  0  0  0  0  0  0  0  0  0  0
    8.9704   -3.1981   22.0197 H   0  0  0  0  0  0  0  0  0  0  0  0
    8.1783   -1.3586   22.9248 C   0  0  0  0  0  0  0  0  0  0  0  0
    8.4377   -1.3580   23.9711 H   0  0  0  0  0  0  0  0  0  0  0  0
    7.4985   -0.3105   22.3343 N   0  0  0  0  0  0  0  0  0  0  0  0
    7.2311    0.9698   23.0202 C   0  0  0  0  0  0  0  0  0  0  0  0
    6.7934    1.6665   22.3022 H   0  0  0  0  0  0  0  0  0  0  0  0
    6.4929    0.7927   23.8105 H   0  0  0  0  0  0  0  0  0  0  0  0
    8.5007    1.5886   23.5997 C   0  0  0  0  0  0  0  0  0  0  0  0
    8.8038    1.5478   24.9691 C   0  0  0  0  0  0  0  0  0  0  0  0
    8.0513    1.1906   25.6636 H   0  0  0  0  0  0  0  0  0  0  0  0
   10.0476    1.9557   25.4567 C   0  0  0  0  0  0  0  0  0  0  0  0
   10.2754    1.8414   26.5075 H   0  0  0  0  0  0  0  0  0  0  0  0
   10.9927    2.4872   24.5778 C   0  0  0  0  0  0  0  0  0  0  0  0
   11.9493    2.8374   24.9461 H   0  0  0  0  0  0  0  0  0  0  0  0
   10.7080    2.5873   23.2184 C   0  0  0  0  0  0  0  0  0  0  0  0
   11.4077    3.0226   22.5101 H   0  0  0  0  0  0  0  0  0  0  0  0
    9.4827    2.1144   22.7455 C   0  0  0  0  0  0  0  0  0  0  0  0
    9.1959    2.1749   21.0344 Cl  0  0  0  0  0  0  0  0  0  0  0  0
    5.4205    0.7455   20.1555 C   0  0  0  0  0  0  0  0  0  0  0  0
    4.9376    0.7555   21.1324 H   0  0  0  0  0  0  0  0  0  0  0  0
    4.8327    1.3654   19.0529 C   0  0  0  0  0  0  0  0  0  0  0  0
    3.8876    1.8898   19.1397 H   0  0  0  0  0  0  0  0  0  0  0  0
  1  2  1  0
  2  3  2  0
  3  4  1  0
  4  5  1  0
  4  6  2  0
  6  7  1  0
  7  8  2  0
  8  9  1  0
  9 10  1  0
  9 11  2  0
 11 12  1  0
 11 13  1  0
 13 14  1  0
 14 15  1  0
 14 16  1  0
 14 17  1  0
 17 18  2  0
 18 19  1  0
 18 20  1  0
 20 21  1  0
 20 22  2  0
 22 23  1  0
 22 24  1  0
 24 25  1  0
 24 26  2  0
 26 27  1  0
  6 28  1  0
 28 29  1  0
 28 30  2  0
 30 31  1  0
 30  2  1  0
 13  7  1  0
 26 17  1  0
M  END
>  <cnnaffinity>  (1) 
-5.03221

>  <filename>  (1) 
Clc1ccccc1Cn1ccnc1-c1cccnc1

$$$$
