
     RDKit          3D

 28 30  0  0  0  0  0  0  0  0999 V2000
    4.9885    1.7634   16.9577 H   0  0  0  0  0  0  0  0  0  0  0  0
    5.4378    1.3017   17.8394 C   0  0  0  0  0  0  0  0  0  0  0  0
    6.6029    0.6614   17.6572 N   0  0  0  0  0  0  0  0  0  0  0  0
    7.1557    0.0715   18.7240 C   0  0  0  0  0  0  0  0  0  0  0  0
    8.0992   -0.4428   18.5435 H   0  0  0  0  0  0  0  0  0  0  0  0
    6.6125    0.0929   20.0232 C   0  0  0  0  0  0  0  0  0  0  0  0
    7.3017   -0.6286   21.1117 C   0  0  0  0  0  0  0  0  0  0  0  0
    7.8124   -1.9040   21.1007 C   0  0  0  0  0  0  0  0  0  0  0  0
    7.6381   -2.6403   20.3464 H   0  0  0  0  0  0  0  0  0  0  0  0
    8.4021   -2.0778   22.3622 C   0  0  0  0  0  0  0  0  0  0  0  0
    8.9270   -2.9347   22.7603 H   0  0  0  0  0  0  0  0  0  0  0  0
    8.2411   -1.0183   23.1300 N   0  0  0  0  0  0  0  0  0  0  0  0
    7.5553   -0.1371   22.3740 N   0  0  0  0  0  0  0  0  0  0  0  0
    7.1339    1.0922   22.9464 C   0  0  0  0  0  0  0  0  0  0  0  0
    6.2152    1.0592   24.0089 C   0  0  0  0  0  0  0  0  0  0  0  0
    5.8989    0.0984   24.4100 H   0  0  0  0  0  0  0  0  0  0  0  0
    5.7121    2.2446   24.5373 C   0  0  0  0  0  0  0  0  0  0  0  0
    4.9578    2.2138   25.3215 H   0  0  0  0  0  0  0  0  0  0  0  0
    6.1588    3.4768   24.0498 C   0  0  0  0  0  0  0  0  0  0  0  0
    5.7603    4.4083   24.4423 H   0  0  0  0  0  0  0  0  0  0  0  0
    7.1044    3.5181   23.0218 C   0  0  0  0  0  0  0  0  0  0  0  0
    7.6152    5.0700   22.4369 Cl  0  0  0  0  0  0  0  0  0  0  0  0
    7.6000    2.3299   22.4560 C   0  0  0  0  0  0  0  0  0  0  0  0
    8.7543    2.3908   21.1720 Cl  0  0  0  0  0  0  0  0  0  0  0  0
    5.4010    0.7814   20.1926 C   0  0  0  0  0  0  0  0  0  0  0  0
    4.9435    0.8330   21.1792 H   0  0  0  0  0  0  0  0  0  0  0  0
    4.7972    1.3719   19.0809 C   0  0  0  0  0  0  0  0  0  0  0  0
    3.8419    1.8749   19.1542 H   0  0  0  0  0  0  0  0  0  0  0  0
  1  2  1  0
  2  3  2  0
  3  4  1  0
  4  5  1  0
  4  6  2  0
  6  7  1  0
  7  8  2  0
  8  9  1  0
  8 10  1  0
 10 11  1  0
 10 12  2  0
 12 13  1  0
 13 14  1  0
 14 15  2  0
 15 16  1  0
 15 17  1  0
 17 18  1  0
 17 19  2  0
 19 20  1  0
 19 21  1  0
 21 22  1  0
 21 23  2  0
 23 24  1  0
  6 25  1  0
 25 26  1  0
 25 27  2  0
 27 28  1  0
 27  2  1  0
 13  7  1  0
 23 14  1  0
M  END
>  <cnnaffinity>  (1) 
-4.91609

>  <filename>  (1) 
Clc1cccc(-n2nccc2-c2cccnc2)c1Cl

$$$$
