
     RDKit          3D

 34 36  0  0  0  0  0  0  0  0999 V2000
    8.4482   -3.1205   27.2911 Cl  0  0  0  0  0  0  0  0  0  0  0  0
    7.6714   -2.1278   26.0995 C   0  0  0  0  0  0  0  0  0  0  0  0
    6.2862   -1.9051   26.2088 C   0  0  0  0  0  0  0  0  0  0  0  0
    5.6409   -1.1748   25.2845 N   0  0  0  0  0  0  0  0  0  0  0  0
    6.3770   -0.6835   24.2750 C   0  0  0  0  0  0  0  0  0  0  0  0
    7.7997   -0.9111   24.1814 C   0  0  0  0  0  0  0  0  0  0  0  0
    8.5854   -0.4234   23.1776 N   0  0  0  0  0  0  0  0  0  0  0  0
   10.0471   -0.5139   23.2143 C   0  0  0  0  0  0  0  0  0  0  0  0
   10.4877    0.1245   21.8887 C   0  0  0  0  0  0  0  0  0  0  0  0
    9.2831    0.9517   21.4141 C   0  0  0  0  0  0  0  0  0  0  0  0
    8.0485    0.2597   22.0047 C   0  0  0  0  0  0  0  0  0  0  0  0
    7.3718   -0.7223   21.0168 C   0  0  0  0  0  0  0  0  0  0  0  0
    6.6420   -0.0242   19.8833 C   0  0  0  0  0  0  0  0  0  0  0  0
    5.4335    0.6453   20.1274 C   0  0  0  0  0  0  0  0  0  0  0  0
    4.7945    1.3149   19.0809 C   0  0  0  0  0  0  0  0  0  0  0  0
    5.3888    1.3050   17.8146 C   0  0  0  0  0  0  0  0  0  0  0  0
    6.5475    0.6825   17.5539 N   0  0  0  0  0  0  0  0  0  0  0  0
    7.1508    0.0504   18.5712 C   0  0  0  0  0  0  0  0  0  0  0  0
    8.1036   -0.4199   18.3242 H   0  0  0  0  0  0  0  0  0  0  0  0
    4.9185    1.8141   16.9747 H   0  0  0  0  0  0  0  0  0  0  0  0
    3.8659    1.8529   19.2338 H   0  0  0  0  0  0  0  0  0  0  0  0
    5.0066    0.6433   21.1339 H   0  0  0  0  0  0  0  0  0  0  0  0
    8.1411   -1.4039   20.6327 H   0  0  0  0  0  0  0  0  0  0  0  0
    6.6711   -1.3419   21.5897 H   0  0  0  0  0  0  0  0  0  0  0  0
    7.2993    1.0046   22.3158 H   0  0  0  0  0  0  0  0  0  0  0  0
    9.3343    1.9856   21.7669 H   0  0  0  0  0  0  0  0  0  0  0  0
    9.2137    0.9839   20.3231 H   0  0  0  0  0  0  0  0  0  0  0  0
   10.7378   -0.6484   21.1535 H   0  0  0  0  0  0  0  0  0  0  0  0
   11.3800    0.7439   22.0159 H   0  0  0  0  0  0  0  0  0  0  0  0
   10.3683   -1.5590   23.3242 H   0  0  0  0  0  0  0  0  0  0  0  0
   10.4390    0.0240   24.0891 H   0  0  0  0  0  0  0  0  0  0  0  0
    8.4311   -1.6415   25.1304 N   0  0  0  0  0  0  0  0  0  0  0  0
    5.8577   -0.0940   23.5244 H   0  0  0  0  0  0  0  0  0  0  0  0
    5.7185   -2.3135   27.0399 H   0  0  0  0  0  0  0  0  0  0  0  0
  1  2  1  0
  2  3  2  0
  3  4  1  0
  4  5  2  0
  5  6  1  0
  6  7  1  0
  7  8  1  0
  8  9  1  0
  9 10  1  0
 10 11  1  0
 11 12  1  0
 12 13  1  0
 13 14  2  0
 14 15  1  0
 15 16  2  0
 16 17  1  0
 17 18  2  0
 18 19  1  0
 16 20  1  0
 15 21  1  0
 14 22  1  0
 12 23  1  0
 12 24  1  0
 11 25  1  0
 10 26  1  0
 10 27  1  0
  9 28  1  0
  9 29  1  0
  8 30  1  0
  8 31  1  0
  6 32  2  0
  5 33  1  0
  3 34  1  0
 32  2  1  0
 11  7  1  0
 18 13  1  0
M  END
>  <cnnaffinity>  (1) 
-5.26076

>  <filename>  (1) 
Clc1cncc(N2CCCC2Cc2cccnc2)n1

$$$$
