
     RDKit          3D

 30 32  0  0  0  0  0  0  0  0999 V2000
    4.9385    1.8343   16.9876 H   0  0  0  0  0  0  0  0  0  0  0  0
    5.4035    1.3047   17.8151 C   0  0  0  0  0  0  0  0  0  0  0  0
    6.5577    0.6736   17.5436 N   0  0  0  0  0  0  0  0  0  0  0  0
    7.1651    0.0361   18.5570 C   0  0  0  0  0  0  0  0  0  0  0  0
    8.0918   -0.4854   18.3174 H   0  0  0  0  0  0  0  0  0  0  0  0
    6.6585   -0.0084   19.8848 C   0  0  0  0  0  0  0  0  0  0  0  0
    7.2912   -0.6223   20.9670 N   0  0  0  0  0  0  0  0  0  0  0  0
    6.6956   -1.0679   21.6530 H   0  0  0  0  0  0  0  0  0  0  0  0
    8.6582   -0.7725   21.1662 C   0  0  0  0  0  0  0  0  0  0  0  0
    9.6956    0.0826   20.7234 C   0  0  0  0  0  0  0  0  0  0  0  0
    9.5691    0.9685   20.1133 H   0  0  0  0  0  0  0  0  0  0  0  0
   10.8825   -0.3057   21.1767 N   0  0  0  0  0  0  0  0  0  0  0  0
   10.6109   -1.3872   21.9272 N   0  0  0  0  0  0  0  0  0  0  0  0
   11.3805   -1.9079   22.3332 H   0  0  0  0  0  0  0  0  0  0  0  0
    9.2839   -1.7234   21.9611 C   0  0  0  0  0  0  0  0  0  0  0  0
    8.7583   -2.8171   22.7976 C   0  0  0  0  0  0  0  0  0  0  0  0
    9.2193   -2.9386   24.1287 C   0  0  0  0  0  0  0  0  0  0  0  0
    9.9091   -2.1904   24.5017 H   0  0  0  0  0  0  0  0  0  0  0  0
    8.8141   -3.9829   24.9487 C   0  0  0  0  0  0  0  0  0  0  0  0
    9.1684   -4.0343   25.9758 H   0  0  0  0  0  0  0  0  0  0  0  0
    7.9754   -4.9724   24.4334 C   0  0  0  0  0  0  0  0  0  0  0  0
    7.7265   -5.8296   25.0438 H   0  0  0  0  0  0  0  0  0  0  0  0
    7.4800   -4.8781   23.1322 C   0  0  0  0  0  0  0  0  0  0  0  0
    6.8395   -5.6479   22.7096 H   0  0  0  0  0  0  0  0  0  0  0  0
    7.8283   -3.7792   22.3438 C   0  0  0  0  0  0  0  0  0  0  0  0
    7.0305   -3.6684   20.8013 Cl  0  0  0  0  0  0  0  0  0  0  0  0
    5.4281    0.6143   20.1265 C   0  0  0  0  0  0  0  0  0  0  0  0
    5.0144    0.5822   21.1351 H   0  0  0  0  0  0  0  0  0  0  0  0
    4.8029    1.2914   19.0795 C   0  0  0  0  0  0  0  0  0  0  0  0
    3.8704    1.8188   19.2416 H   0  0  0  0  0  0  0  0  0  0  0  0
  1  2  1  0
  2  3  2  0
  3  4  1  0
  4  5  1  0
  4  6  2  0
  6  7  1  0
  7  8  1  0
  7  9  1  0
  9 10  1  0
 10 11  1  0
 10 12  2  0
 12 13  1  0
 13 14  1  0
 13 15  1  0
 15 16  1  0
 16 17  2  0
 17 18  1  0
 17 19  1  0
 19 20  1  0
 19 21  2  0
 21 22  1  0
 21 23  1  0
 23 24  1  0
 23 25  2  0
 25 26  1  0
  6 27  1  0
 27 28  1  0
 27 29  2  0
 29 30  1  0
 29  2  1  0
 15  9  2  0
 25 16  1  0
M  END
>  <cnnaffinity>  (1) 
-5.61504

>  <filename>  (1) 
Clc1ccccc1-c1[nH]ncc1Nc1cccnc1

$$$$
