
     RDKit          3D

 34 37  0  0  0  0  0  0  0  0999 V2000
    4.9263    1.7811   16.9983 H   0  0  0  0  0  0  0  0  0  0  0  0
    5.4048    1.2922   17.8411 C   0  0  0  0  0  0  0  0  0  0  0  0
    6.5657    0.6710   17.5803 N   0  0  0  0  0  0  0  0  0  0  0  0
    7.1589    0.0394   18.5953 C   0  0  0  0  0  0  0  0  0  0  0  0
    8.1106   -0.4377   18.3728 H   0  0  0  0  0  0  0  0  0  0  0  0
    6.6446    0.0082   19.8983 C   0  0  0  0  0  0  0  0  0  0  0  0
    7.4025   -0.6731   20.9410 C   0  0  0  0  0  0  0  0  0  0  0  0
    7.8344   -1.9688   20.7934 N   0  0  0  0  0  0  0  0  0  0  0  0
    8.4275   -2.2304   21.9263 C   0  0  0  0  0  0  0  0  0  0  0  0
    9.2765   -3.5694   22.6504 S   0  0  0  0  0  0  0  0  0  0  0  0
    9.6944   -2.5883   24.0339 C   0  0  0  0  0  0  0  0  0  0  0  0
   10.3051   -3.0270   24.8085 H   0  0  0  0  0  0  0  0  0  0  0  0
    9.1658   -1.3525   23.9664 C   0  0  0  0  0  0  0  0  0  0  0  0
    9.2410   -0.5510   24.6924 H   0  0  0  0  0  0  0  0  0  0  0  0
    8.4510   -1.1637   22.7901 N   0  0  0  0  0  0  0  0  0  0  0  0
    7.8092   -0.1260   22.1475 C   0  0  0  0  0  0  0  0  0  0  0  0
    7.6474    1.2493   22.7058 C   0  0  0  0  0  0  0  0  0  0  0  0
    8.5001    1.4773   23.3607 H   0  0  0  0  0  0  0  0  0  0  0  0
    7.7036    1.9557   21.8686 H   0  0  0  0  0  0  0  0  0  0  0  0
    6.3471    1.4760   23.4684 C   0  0  0  0  0  0  0  0  0  0  0  0
    5.4849    2.5233   23.1207 C   0  0  0  0  0  0  0  0  0  0  0  0
    5.7465    3.1625   22.2792 H   0  0  0  0  0  0  0  0  0  0  0  0
    4.2918    2.7378   23.8145 C   0  0  0  0  0  0  0  0  0  0  0  0
    3.6312    3.5564   23.5460 H   0  0  0  0  0  0  0  0  0  0  0  0
    3.9709    1.8870   24.8755 C   0  0  0  0  0  0  0  0  0  0  0  0
    2.4942    2.1476   25.7523 Cl  0  0  0  0  0  0  0  0  0  0  0  0
    4.8117    0.8359   25.2458 C   0  0  0  0  0  0  0  0  0  0  0  0
    4.5444    0.1885   26.0749 H   0  0  0  0  0  0  0  0  0  0  0  0
    5.9967    0.6393   24.5349 C   0  0  0  0  0  0  0  0  0  0  0  0
    6.6561   -0.1800   24.8084 H   0  0  0  0  0  0  0  0  0  0  0  0
    5.4317    0.6653   20.1593 C   0  0  0  0  0  0  0  0  0  0  0  0
    4.9994    0.6406   21.1637 H   0  0  0  0  0  0  0  0  0  0  0  0
    4.8019    1.3166   19.1038 C   0  0  0  0  0  0  0  0  0  0  0  0
    3.8692    1.8455   19.2544 H   0  0  0  0  0  0  0  0  0  0  0  0
  1  2  1  0
  2  3  2  0
  3  4  1  0
  4  5  1  0
  4  6  2  0
  6  7  1  0
  7  8  1  0
  8  9  2  0
  9 10  1  0
 10 11  1  0
 11 12  1  0
 11 13  2  0
 13 14  1  0
 13 15  1  0
 15 16  1  0
 16 17  1  0
 17 18  1  0
 17 19  1  0
 17 20  1  0
 20 21  2  0
 21 22  1  0
 21 23  1  0
 23 24  1  0
 23 25  2  0
 25 26  1  0
 25 27  1  0
 27 28  1  0
 27 29  2  0
 29 30  1  0
  6 31  1  0
 31 32  1  0
 31 33  2  0
 33 34  1  0
 33  2  1  0
 16  7  2  0
 29 20  1  0
 15  9  1  0
M  END
>  <cnnaffinity>  (1) 
-5.53759

>  <filename>  (1) 
Clc1ccc(Cc2c(-c3cccnc3)nc3sccn23)cc1

$$$$
