
     RDKit          3D

 30 33  0  0  0  0  0  0  0  0999 V2000
    4.9124    1.8144   16.9693 H   0  0  0  0  0  0  0  0  0  0  0  0
    5.3760    1.3057   17.8168 C   0  0  0  0  0  0  0  0  0  0  0  0
    6.5390    0.6852   17.5637 N   0  0  0  0  0  0  0  0  0  0  0  0
    7.1510    0.0767   18.5835 C   0  0  0  0  0  0  0  0  0  0  0  0
    8.1015   -0.3898   18.3328 H   0  0  0  0  0  0  0  0  0  0  0  0
    6.6616    0.0284   19.9101 C   0  0  0  0  0  0  0  0  0  0  0  0
    7.4162   -0.6747   20.9665 C   0  0  0  0  0  0  0  0  0  0  0  0
    8.3302   -1.7000   20.9074 C   0  0  0  0  0  0  0  0  0  0  0  0
    8.7419   -2.1104   20.0036 H   0  0  0  0  0  0  0  0  0  0  0  0
    8.7825   -2.1174   22.1283 N   0  0  0  0  0  0  0  0  0  0  0  0
    8.1702   -1.3078   22.9514 C   0  0  0  0  0  0  0  0  0  0  0  0
    8.2473   -0.9607   24.6388 S   0  0  0  0  0  0  0  0  0  0  0  0
    7.1310    0.3749   24.3202 C   0  0  0  0  0  0  0  0  0  0  0  0
    6.6700    1.2711   25.3938 C   0  0  0  0  0  0  0  0  0  0  0  0
    5.7751    2.3196   25.0964 C   0  0  0  0  0  0  0  0  0  0  0  0
    5.4398    2.4633   24.0715 H   0  0  0  0  0  0  0  0  0  0  0  0
    5.3316    3.1630   26.1161 C   0  0  0  0  0  0  0  0  0  0  0  0
    4.6410    3.9716   25.8886 H   0  0  0  0  0  0  0  0  0  0  0  0
    5.7724    2.9769   27.4313 C   0  0  0  0  0  0  0  0  0  0  0  0
    5.4455    3.6152   28.2424 H   0  0  0  0  0  0  0  0  0  0  0  0
    6.6624    1.9396   27.7132 C   0  0  0  0  0  0  0  0  0  0  0  0
    7.2268    1.6964   29.3373 Cl  0  0  0  0  0  0  0  0  0  0  0  0
    7.1159    1.0865   26.7147 C   0  0  0  0  0  0  0  0  0  0  0  0
    7.8092    0.2948   26.9865 H   0  0  0  0  0  0  0  0  0  0  0  0
    6.7499    0.5234   23.0886 N   0  0  0  0  0  0  0  0  0  0  0  0
    7.3319   -0.4277   22.3337 N   0  0  0  0  0  0  0  0  0  0  0  0
    5.4304    0.6677   20.1447 C   0  0  0  0  0  0  0  0  0  0  0  0
    5.0168    0.6566   21.1508 H   0  0  0  0  0  0  0  0  0  0  0  0
    4.7876    1.3158   19.0854 C   0  0  0  0  0  0  0  0  0  0  0  0
    3.8554    1.8504   19.2275 H   0  0  0  0  0  0  0  0  0  0  0  0
  1  2  1  0
  2  3  2  0
  3  4  1  0
  4  5  1  0
  4  6  2  0
  6  7  1  0
  7  8  2  0
  8  9  1  0
  8 10  1  0
 10 11  2  0
 11 12  1  0
 12 13  1  0
 13 14  1  0
 14 15  2  0
 15 16  1  0
 15 17  1  0
 17 18  1  0
 17 19  2  0
 19 20  1  0
 19 21  1  0
 21 22  1  0
 21 23  2  0
 23 24  1  0
 13 25  2  0
 25 26  1  0
  6 27  1  0
 27 28  1  0
 27 29  2  0
 29 30  1  0
 29  2  1  0
 26  7  1  0
 26 11  1  0
 23 14  1  0
M  END
>  <cnnaffinity>  (1) 
-5.26272

>  <filename>  (1) 
Clc1cccc(-c2nn3c(-c4cccnc4)cnc3s2)c1

$$$$
