
     RDKit          3D

 30 32  0  0  0  0  0  0  0  0999 V2000
    4.9261    1.7842   16.9939 H   0  0  0  0  0  0  0  0  0  0  0  0
    5.4042    1.2942   17.8394 C   0  0  0  0  0  0  0  0  0  0  0  0
    6.5604    0.6649   17.5813 N   0  0  0  0  0  0  0  0  0  0  0  0
    7.1658    0.0467   18.6004 C   0  0  0  0  0  0  0  0  0  0  0  0
    8.1129   -0.4323   18.3679 H   0  0  0  0  0  0  0  0  0  0  0  0
    6.6408   -0.0038   19.9047 C   0  0  0  0  0  0  0  0  0  0  0  0
    7.3275   -0.7003   20.9380 N   0  0  0  0  0  0  0  0  0  0  0  0
    6.6954   -1.6089   21.7162 N   0  0  0  0  0  0  0  0  0  0  0  0
    7.5582   -2.0906   22.5502 N   0  0  0  0  0  0  0  0  0  0  0  0
    8.7526   -1.4906   22.3392 C   0  0  0  0  0  0  0  0  0  0  0  0
    9.6349   -1.7149   22.9206 H   0  0  0  0  0  0  0  0  0  0  0  0
    8.6268   -0.5877   21.3200 C   0  0  0  0  0  0  0  0  0  0  0  0
    9.6542    0.3450   20.7805 C   0  0  0  0  0  0  0  0  0  0  0  0
    9.2372    0.9893   20.0026 H   0  0  0  0  0  0  0  0  0  0  0  0
   10.4212   -0.3057   20.3532 H   0  0  0  0  0  0  0  0  0  0  0  0
   10.2705    1.1885   21.8767 C   0  0  0  0  0  0  0  0  0  0  0  0
   11.4882    0.8140   22.4567 C   0  0  0  0  0  0  0  0  0  0  0  0
   12.0049   -0.0582   22.0631 H   0  0  0  0  0  0  0  0  0  0  0  0
   12.0419    1.5330   23.5169 C   0  0  0  0  0  0  0  0  0  0  0  0
   12.9977    1.2336   23.9376 H   0  0  0  0  0  0  0  0  0  0  0  0
   11.3627    2.6458   24.0171 C   0  0  0  0  0  0  0  0  0  0  0  0
   11.7977    3.2266   24.8179 H   0  0  0  0  0  0  0  0  0  0  0  0
   10.1315    3.0291   23.4833 C   0  0  0  0  0  0  0  0  0  0  0  0
    9.5830    3.8881   23.8605 H   0  0  0  0  0  0  0  0  0  0  0  0
    9.5972    2.2916   22.4232 C   0  0  0  0  0  0  0  0  0  0  0  0
    8.0514    2.7807   21.7942 Cl  0  0  0  0  0  0  0  0  0  0  0  0
    5.4311    0.6424   20.1708 C   0  0  0  0  0  0  0  0  0  0  0  0
    5.0108    0.6050   21.1808 H   0  0  0  0  0  0  0  0  0  0  0  0
    4.8140    1.3118   19.1113 C   0  0  0  0  0  0  0  0  0  0  0  0
    3.8815    1.8413   19.2587 H   0  0  0  0  0  0  0  0  0  0  0  0
  1  2  1  0
  2  3  2  0
  3  4  1  0
  4  5  1  0
  4  6  2  0
  6  7  1  0
  7  8  1  0
  8  9  2  0
  9 10  1  0
 10 11  1  0
 10 12  2  0
 12 13  1  0
 13 14  1  0
 13 15  1  0
 13 16  1  0
 16 17  2  0
 17 18  1  0
 17 19  1  0
 19 20  1  0
 19 21  2  0
 21 22  1  0
 21 23  1  0
 23 24  1  0
 23 25  2  0
 25 26  1  0
  6 27  1  0
 27 28  1  0
 27 29  2  0
 29 30  1  0
 29  2  1  0
 12  7  1  0
 25 16  1  0
M  END
>  <cnnaffinity>  (1) 
-5.54507

>  <filename>  (1) 
Clc1ccccc1Cc1cnnn1-c1cccnc1

$$$$
