
     RDKit          3D

 32 34  0  0  0  0  0  0  0  0999 V2000
    4.9195    1.7899   16.9881 H   0  0  0  0  0  0  0  0  0  0  0  0
    5.3975    1.2978   17.8320 C   0  0  0  0  0  0  0  0  0  0  0  0
    6.5558    0.6702   17.5729 N   0  0  0  0  0  0  0  0  0  0  0  0
    7.1664    0.0544   18.5946 C   0  0  0  0  0  0  0  0  0  0  0  0
    8.1130   -0.4281   18.3596 H   0  0  0  0  0  0  0  0  0  0  0  0
    6.6480   -0.0010   19.9052 C   0  0  0  0  0  0  0  0  0  0  0  0
    7.3115   -0.7149   20.9470 N   0  0  0  0  0  0  0  0  0  0  0  0
    6.7448   -1.7151   21.7120 C   0  0  0  0  0  0  0  0  0  0  0  0
    5.7104   -1.9739   21.5353 H   0  0  0  0  0  0  0  0  0  0  0  0
    7.6906   -2.2029   22.5814 C   0  0  0  0  0  0  0  0  0  0  0  0
    7.5530   -2.9859   23.3162 H   0  0  0  0  0  0  0  0  0  0  0  0
    8.8824   -1.4654   22.3543 C   0  0  0  0  0  0  0  0  0  0  0  0
    9.8427   -1.5497   22.8605 H   0  0  0  0  0  0  0  0  0  0  0  0
    8.6188   -0.5477   21.3692 C   0  0  0  0  0  0  0  0  0  0  0  0
    9.5717    0.4700   20.8374 C   0  0  0  0  0  0  0  0  0  0  0  0
    9.1111    1.1090   20.0779 H   0  0  0  0  0  0  0  0  0  0  0  0
   10.3671   -0.1349   20.3995 H   0  0  0  0  0  0  0  0  0  0  0  0
   10.1722    1.3227   21.9356 C   0  0  0  0  0  0  0  0  0  0  0  0
   11.4319    1.0089   22.4653 C   0  0  0  0  0  0  0  0  0  0  0  0
   11.9951    0.1860   22.0303 H   0  0  0  0  0  0  0  0  0  0  0  0
   11.9673    1.7258   23.5339 C   0  0  0  0  0  0  0  0  0  0  0  0
   12.9499    1.4806   23.9271 H   0  0  0  0  0  0  0  0  0  0  0  0
   11.2327    2.7772   24.0827 C   0  0  0  0  0  0  0  0  0  0  0  0
   11.6788    3.3722   24.8608 H   0  0  0  0  0  0  0  0  0  0  0  0
    9.9620    3.0978   23.6039 C   0  0  0  0  0  0  0  0  0  0  0  0
    9.3692    3.9050   24.0263 H   0  0  0  0  0  0  0  0  0  0  0  0
    9.4467    2.3649   22.5327 C   0  0  0  0  0  0  0  0  0  0  0  0
    7.8570    2.7721   21.9560 Cl  0  0  0  0  0  0  0  0  0  0  0  0
    5.4305    0.6441   20.1587 C   0  0  0  0  0  0  0  0  0  0  0  0
    5.0083    0.6305   21.1679 H   0  0  0  0  0  0  0  0  0  0  0  0
    4.8082    1.3136   19.1021 C   0  0  0  0  0  0  0  0  0  0  0  0
    3.8772    1.8432   19.2549 H   0  0  0  0  0  0  0  0  0  0  0  0
  1  2  1  0
  2  3  2  0
  3  4  1  0
  4  5  1  0
  4  6  2  0
  6  7  1  0
  7  8  1  0
  8  9  1  0
  8 10  2  0
 10 11  1  0
 10 12  1  0
 12 13  1  0
 12 14  2  0
 14 15  1  0
 15 16  1  0
 15 17  1  0
 15 18  1  0
 18 19  2  0
 19 20  1  0
 19 21  1  0
 21 22  1  0
 21 23  2  0
 23 24  1  0
 23 25  1  0
 25 26  1  0
 25 27  2  0
 27 28  1  0
  6 29  1  0
 29 30  1  0
 29 31  2  0
 31 32  1  0
 31  2  1  0
 14  7  1  0
 27 18  1  0
M  END
>  <cnnaffinity>  (1) 
-5.33371

>  <filename>  (1) 
Clc1ccccc1Cc1cccn1-c1cccnc1

$$$$
