
     RDKit          3D

 30 32  0  0  0  0  0  0  0  0999 V2000
    5.0803    1.9802   16.7019 H   0  0  0  0  0  0  0  0  0  0  0  0
    5.4344    1.4469   17.5812 C   0  0  0  0  0  0  0  0  0  0  0  0
    6.5954    0.7846   17.4486 N   0  0  0  0  0  0  0  0  0  0  0  0
    7.0499    0.0927   18.4984 C   0  0  0  0  0  0  0  0  0  0  0  0
    8.0020   -0.4139   18.3569 H   0  0  0  0  0  0  0  0  0  0  0  0
    6.3494    0.0113   19.7171 C   0  0  0  0  0  0  0  0  0  0  0  0
    6.8057   -0.8092   20.7917 N   0  0  0  0  0  0  0  0  0  0  0  0
    7.2129   -2.0778   20.5998 N   0  0  0  0  0  0  0  0  0  0  0  0
    7.5750   -2.5564   21.7424 N   0  0  0  0  0  0  0  0  0  0  0  0
    7.3992   -1.6043   22.7092 C   0  0  0  0  0  0  0  0  0  0  0  0
    7.8615   -1.8015   24.1235 C   0  0  0  0  0  0  0  0  0  0  0  0
    8.2271   -2.8259   24.2110 H   0  0  0  0  0  0  0  0  0  0  0  0
    7.0192   -1.7050   24.8175 H   0  0  0  0  0  0  0  0  0  0  0  0
    8.9541   -0.8226   24.5288 C   0  0  0  0  0  0  0  0  0  0  0  0
    8.6389    0.2610   25.3617 C   0  0  0  0  0  0  0  0  0  0  0  0
    7.6347    0.3164   25.7882 H   0  0  0  0  0  0  0  0  0  0  0  0
    9.5832    1.2519   25.6538 C   0  0  0  0  0  0  0  0  0  0  0  0
    9.3098    2.0805   26.3003 H   0  0  0  0  0  0  0  0  0  0  0  0
   10.8726    1.1686   25.1135 C   0  0  0  0  0  0  0  0  0  0  0  0
   11.6209    1.9253   25.3546 H   0  0  0  0  0  0  0  0  0  0  0  0
   11.2164    0.0906   24.2885 C   0  0  0  0  0  0  0  0  0  0  0  0
   12.2067    0.0037   23.8424 H   0  0  0  0  0  0  0  0  0  0  0  0
   10.2602   -0.8949   24.0104 C   0  0  0  0  0  0  0  0  0  0  0  0
   10.7208   -2.2459   23.0012 Cl  0  0  0  0  0  0  0  0  0  0  0  0
    6.8703   -0.4922   22.1088 C   0  0  0  0  0  0  0  0  0  0  0  0
    6.5249    0.4557   22.4930 H   0  0  0  0  0  0  0  0  0  0  0  0
    5.1724    0.7494   19.8701 C   0  0  0  0  0  0  0  0  0  0  0  0
    4.6455    0.7530   20.8265 H   0  0  0  0  0  0  0  0  0  0  0  0
    4.6954    1.4644   18.7685 C   0  0  0  0  0  0  0  0  0  0  0  0
    3.7759    2.0358   18.8285 H   0  0  0  0  0  0  0  0  0  0  0  0
  1  2  1  0
  2  3  2  0
  3  4  1  0
  4  5  1  0
  4  6  2  0
  6  7  1  0
  7  8  1  0
  8  9  2  0
  9 10  1  0
 10 11  1  0
 11 12  1  0
 11 13  1  0
 11 14  1  0
 14 15  2  0
 15 16  1  0
 15 17  1  0
 17 18  1  0
 17 19  2  0
 19 20  1  0
 19 21  1  0
 21 22  1  0
 21 23  2  0
 23 24  1  0
 10 25  2  0
 25 26  1  0
  6 27  1  0
 27 28  1  0
 27 29  2  0
 29 30  1  0
 29  2  1  0
 25  7  1  0
 23 14  1  0
M  END
>  <cnnaffinity>  (1) 
-5.32213

>  <filename>  (1) 
Clc1ccccc1Cc1cn(-c2cccnc2)nn1

$$$$
