
     RDKit          3D

 27 29  0  0  0  0  0  0  0  0999 V2000
    4.9212    1.7805   16.9964 H   0  0  0  0  0  0  0  0  0  0  0  0
    5.4060    1.2945   17.8374 C   0  0  0  0  0  0  0  0  0  0  0  0
    6.5710    0.6782   17.5743 N   0  0  0  0  0  0  0  0  0  0  0  0
    7.1682    0.0591   18.5950 C   0  0  0  0  0  0  0  0  0  0  0  0
    8.1134   -0.4358   18.3787 H   0  0  0  0  0  0  0  0  0  0  0  0
    6.6463    0.0250   19.8973 C   0  0  0  0  0  0  0  0  0  0  0  0
    7.3707   -0.7134   20.9315 C   0  0  0  0  0  0  0  0  0  0  0  0
    7.9408   -1.8746   20.7442 N   0  0  0  0  0  0  0  0  0  0  0  0
    8.4348   -2.3019   21.9496 N   0  0  0  0  0  0  0  0  0  0  0  0
    8.1683   -1.3743   22.8222 C   0  0  0  0  0  0  0  0  0  0  0  0
    8.4584   -1.3966   23.8640 H   0  0  0  0  0  0  0  0  0  0  0  0
    7.4953   -0.3251   22.2497 N   0  0  0  0  0  0  0  0  0  0  0  0
    7.1574    0.9185   22.8677 C   0  0  0  0  0  0  0  0  0  0  0  0
    7.4150    2.1375   22.2220 C   0  0  0  0  0  0  0  0  0  0  0  0
    7.8501    2.1378   21.2268 H   0  0  0  0  0  0  0  0  0  0  0  0
    7.0688    3.3383   22.8489 C   0  0  0  0  0  0  0  0  0  0  0  0
    7.2546    4.2799   22.3406 H   0  0  0  0  0  0  0  0  0  0  0  0
    6.4865    3.3466   24.1203 C   0  0  0  0  0  0  0  0  0  0  0  0
    6.2236    4.2783   24.6177 H   0  0  0  0  0  0  0  0  0  0  0  0
    6.2536    2.1214   24.7488 C   0  0  0  0  0  0  0  0  0  0  0  0
    5.5496    2.1148   26.3367 Cl  0  0  0  0  0  0  0  0  0  0  0  0
    6.5789    0.9066   24.1436 C   0  0  0  0  0  0  0  0  0  0  0  0
    6.3792   -0.0312   24.6527 H   0  0  0  0  0  0  0  0  0  0  0  0
    5.4197    0.6531   20.1529 C   0  0  0  0  0  0  0  0  0  0  0  0
    5.0006    0.6382   21.1648 H   0  0  0  0  0  0  0  0  0  0  0  0
    4.7966    1.3110   19.1003 C   0  0  0  0  0  0  0  0  0  0  0  0
    3.8661    1.8467   19.2558 H   0  0  0  0  0  0  0  0  0  0  0  0
  1  2  1  0
  2  3  2  0
  3  4  1  0
  4  5  1  0
  4  6  2  0
  6  7  1  0
  7  8  2  0
  8  9  1  0
  9 10  2  0
 10 11  1  0
 10 12  1  0
 12 13  1  0
 13 14  2  0
 14 15  1  0
 14 16  1  0
 16 17  1  0
 16 18  2  0
 18 19  1  0
 18 20  1  0
 20 21  1  0
 20 22  2  0
 22 23  1  0
  6 24  1  0
 24 25  1  0
 24 26  2  0
 26 27  1  0
 26  2  1  0
 12  7  1  0
 22 13  1  0
M  END
>  <cnnaffinity>  (1) 
-5.07568

>  <filename>  (1) 
Clc1cccc(-n2cnnc2-c2cccnc2)c1

$$$$
