
     RDKit          3D

 22 23  0  0  0  0  0  0  0  0999 V2000
    4.9165    1.7880   16.9896 H   0  0  0  0  0  0  0  0  0  0  0  0
    5.3964    1.2963   17.8325 C   0  0  0  0  0  0  0  0  0  0  0  0
    6.5606    0.6809   17.5707 N   0  0  0  0  0  0  0  0  0  0  0  0
    7.1579    0.0470   18.5864 C   0  0  0  0  0  0  0  0  0  0  0  0
    8.1133   -0.4281   18.3646 H   0  0  0  0  0  0  0  0  0  0  0  0
    6.6325   -0.0307   19.8872 C   0  0  0  0  0  0  0  0  0  0  0  0
    7.5483   -0.8290   21.1985 S   0  0  0  0  0  0  0  0  0  0  0  0
    8.4658    0.6046   21.7131 C   0  0  0  0  0  0  0  0  0  0  0  0
    9.6897    0.8830   21.0983 C   0  0  0  0  0  0  0  0  0  0  0  0
   10.0757    0.1945   20.3588 H   0  0  0  0  0  0  0  0  0  0  0  0
   10.3809    2.0337   21.4623 C   0  0  0  0  0  0  0  0  0  0  0  0
   11.9017    2.3884   20.7320 Cl  0  0  0  0  0  0  0  0  0  0  0  0
    9.8842    2.9161   22.4221 C   0  0  0  0  0  0  0  0  0  0  0  0
   10.4413    3.8025   22.6983 H   0  0  0  0  0  0  0  0  0  0  0  0
    8.6489    2.6249   23.0009 C   0  0  0  0  0  0  0  0  0  0  0  0
    8.0055    3.7012   24.1890 Cl  0  0  0  0  0  0  0  0  0  0  0  0
    7.9284    1.4855   22.6564 C   0  0  0  0  0  0  0  0  0  0  0  0
    6.9620    1.2922   23.1090 H   0  0  0  0  0  0  0  0  0  0  0  0
    5.4250    0.6352   20.1509 C   0  0  0  0  0  0  0  0  0  0  0  0
    5.0026    0.6315   21.1591 H   0  0  0  0  0  0  0  0  0  0  0  0
    4.8008    1.3109   19.0981 C   0  0  0  0  0  0  0  0  0  0  0  0
    3.8727    1.8468   19.2558 H   0  0  0  0  0  0  0  0  0  0  0  0
  1  2  1  0
  2  3  2  0
  3  4  1  0
  4  5  1  0
  4  6  2  0
  6  7  1  0
  7  8  1  0
  8  9  2  0
  9 10  1  0
  9 11  1  0
 11 12  1  0
 11 13  2  0
 13 14  1  0
 13 15  1  0
 15 16  1  0
 15 17  2  0
 17 18  1  0
  6 19  1  0
 19 20  1  0
 19 21  2  0
 21 22  1  0
 21  2  1  0
 17  8  1  0
M  END
>  <cnnaffinity>  (1) 
-4.84657

>  <filename>  (1) 
Clc1cc(Cl)cc(Sc2cccnc2)c1

$$$$
