
     RDKit          3D

 31 33  0  0  0  0  0  0  0  0999 V2000
    4.9171    1.7940   16.9758 H   0  0  0  0  0  0  0  0  0  0  0  0
    5.3882    1.3027   17.8209 C   0  0  0  0  0  0  0  0  0  0  0  0
    6.5522    0.6864   17.5636 N   0  0  0  0  0  0  0  0  0  0  0  0
    7.1514    0.0719   18.5883 C   0  0  0  0  0  0  0  0  0  0  0  0
    8.0978   -0.4197   18.3726 H   0  0  0  0  0  0  0  0  0  0  0  0
    6.6301    0.0152   19.8939 C   0  0  0  0  0  0  0  0  0  0  0  0
    7.3845   -0.6846   20.9331 C   0  0  0  0  0  0  0  0  0  0  0  0
    8.7250   -0.9711   21.0135 C   0  0  0  0  0  0  0  0  0  0  0  0
    9.4897   -0.6729   20.3152 H   0  0  0  0  0  0  0  0  0  0  0  0
    8.8984   -1.6610   22.2243 C   0  0  0  0  0  0  0  0  0  0  0  0
   10.2048   -2.1051   22.8040 C   0  0  0  0  0  0  0  0  0  0  0  0
   10.8070   -2.5089   21.9870 H   0  0  0  0  0  0  0  0  0  0  0  0
   10.0213   -2.9050   23.5258 H   0  0  0  0  0  0  0  0  0  0  0  0
   10.9304   -0.9317   23.4237 C   0  0  0  0  0  0  0  0  0  0  0  0
   11.8499   -0.1895   22.6669 C   0  0  0  0  0  0  0  0  0  0  0  0
   12.0475   -0.4832   21.6385 H   0  0  0  0  0  0  0  0  0  0  0  0
   12.5076    0.9142   23.2050 C   0  0  0  0  0  0  0  0  0  0  0  0
   13.2247    1.4828   22.6154 H   0  0  0  0  0  0  0  0  0  0  0  0
   12.2321    1.2870   24.5204 C   0  0  0  0  0  0  0  0  0  0  0  0
   12.7259    2.1387   24.9428 H   0  0  0  0  0  0  0  0  0  0  0  0
   11.3081    0.5865   25.2940 C   0  0  0  0  0  0  0  0  0  0  0  0
   11.0614    0.8695   26.3133 H   0  0  0  0  0  0  0  0  0  0  0  0
   10.6599   -0.5126   24.7338 C   0  0  0  0  0  0  0  0  0  0  0  0
    9.4812   -1.3331   25.7157 Cl  0  0  0  0  0  0  0  0  0  0  0  0
    7.7473   -1.8090   22.8545 N   0  0  0  0  0  0  0  0  0  0  0  0
    6.8409   -1.2017   22.0690 N   0  0  0  0  0  0  0  0  0  0  0  0
    5.8656   -1.2131   22.3390 H   0  0  0  0  0  0  0  0  0  0  0  0
    5.4090    0.6627   20.1436 C   0  0  0  0  0  0  0  0  0  0  0  0
    4.9864    0.6636   21.1519 H   0  0  0  0  0  0  0  0  0  0  0  0
    4.7881    1.3233   19.0848 C   0  0  0  0  0  0  0  0  0  0  0  0
    3.8598    1.8554   19.2408 H   0  0  0  0  0  0  0  0  0  0  0  0
  1  2  1  0
  2  3  2  0
  3  4  1  0
  4  5  1  0
  4  6  2  0
  6  7  1  0
  7  8  2  0
  8  9  1  0
  8 10  1  0
 10 11  1  0
 11 12  1  0
 11 13  1  0
 11 14  1  0
 14 15  2  0
 15 16  1  0
 15 17  1  0
 17 18  1  0
 17 19  2  0
 19 20  1  0
 19 21  1  0
 21 22  1  0
 21 23  2  0
 23 24  1  0
 10 25  2  0
 25 26  1  0
 26 27  1  0
  6 28  1  0
 28 29  1  0
 28 30  2  0
 30 31  1  0
 30  2  1  0
 26  7  1  0
 23 14  1  0
M  END
>  <cnnaffinity>  (1) 
-5.52671

>  <filename>  (1) 
Clc1ccccc1Cc1cc(-c2cccnc2)[nH]n1

$$$$
