
     RDKit          3D

 34 36  0  0  0  0  0  0  0  0999 V2000
    7.7719   -1.6446   20.6260 H   0  0  0  0  0  0  0  0  0  0  0  0
    7.3908   -0.6595   20.9268 C   0  0  0  0  0  0  0  0  0  0  0  0
    7.6207   -0.2672   22.1938 C   0  0  0  0  0  0  0  0  0  0  0  0
    7.5272    1.0811   22.8062 C   0  0  0  0  0  0  0  0  0  0  0  0
    7.2927    2.1997   22.0496 N   0  0  0  0  0  0  0  0  0  0  0  0
    7.2365    2.0232   21.0644 H   0  0  0  0  0  0  0  0  0  0  0  0
    6.8160    3.4423   22.4933 C   0  0  0  0  0  0  0  0  0  0  0  0
    7.2226    4.0011   23.7131 C   0  0  0  0  0  0  0  0  0  0  0  0
    7.9112    3.4099   24.3025 H   0  0  0  0  0  0  0  0  0  0  0  0
    6.7044    5.2298   24.1303 C   0  0  0  0  0  0  0  0  0  0  0  0
    6.9851    5.6720   25.0829 H   0  0  0  0  0  0  0  0  0  0  0  0
    5.7811    5.8968   23.3205 C   0  0  0  0  0  0  0  0  0  0  0  0
    5.0864    7.3895   23.8905 Cl  0  0  0  0  0  0  0  0  0  0  0  0
    5.3825    5.3635   22.0913 C   0  0  0  0  0  0  0  0  0  0  0  0
    4.6652    5.9105   21.4851 H   0  0  0  0  0  0  0  0  0  0  0  0
    5.9136    4.1329   21.6792 C   0  0  0  0  0  0  0  0  0  0  0  0
    5.6335    3.6570   20.7432 H   0  0  0  0  0  0  0  0  0  0  0  0
    7.7238    1.1173   24.0759 N   0  0  0  0  0  0  0  0  0  0  0  0
    7.9123   -0.2379   24.5637 C   0  0  0  0  0  0  0  0  0  0  0  0
    7.0255   -0.5149   25.1474 H   0  0  0  0  0  0  0  0  0  0  0  0
    8.7665   -0.2598   25.2477 H   0  0  0  0  0  0  0  0  0  0  0  0
    8.0880   -1.1627   23.3355 C   0  0  0  0  0  0  0  0  0  0  0  0
    9.1390   -1.4627   23.2074 H   0  0  0  0  0  0  0  0  0  0  0  0
    7.4832   -2.0753   23.4005 H   0  0  0  0  0  0  0  0  0  0  0  0
    6.6443    0.0559   19.8559 C   0  0  0  0  0  0  0  0  0  0  0  0
    7.1272    0.0663   18.5263 C   0  0  0  0  0  0  0  0  0  0  0  0
    8.0663   -0.4323   18.2846 H   0  0  0  0  0  0  0  0  0  0  0  0
    6.5282    0.6936   17.5093 N   0  0  0  0  0  0  0  0  0  0  0  0
    5.3818    1.3420   17.7739 C   0  0  0  0  0  0  0  0  0  0  0  0
    4.9225    1.8634   16.9387 H   0  0  0  0  0  0  0  0  0  0  0  0
    4.7841    1.3631   19.0360 C   0  0  0  0  0  0  0  0  0  0  0  0
    3.8551    1.9053   19.1876 H   0  0  0  0  0  0  0  0  0  0  0  0
    5.4222    0.7082   20.0915 C   0  0  0  0  0  0  0  0  0  0  0  0
    4.9946    0.6948   21.0942 H   0  0  0  0  0  0  0  0  0  0  0  0
  1  2  1  0
  2  3  2  3
  3  4  1  0
  4  5  1  0
  5  6  1  0
  5  7  1  0
  7  8  2  0
  8  9  1  0
  8 10  1  0
 10 11  1  0
 10 12  2  0
 12 13  1  0
 12 14  1  0
 14 15  1  0
 14 16  2  0
 16 17  1  0
  4 18  2  0
 18 19  1  0
 19 20  1  0
 19 21  1  0
 19 22  1  0
 22 23  1  0
 22 24  1  0
  2 25  1  0
 25 26  2  0
 26 27  1  0
 26 28  1  0
 28 29  2  0
 29 30  1  0
 29 31  1  0
 31 32  1  0
 31 33  2  0
 33 34  1  0
 22  3  1  0
 33 25  1  0
 16  7  1  0
M  END
>  <cnnaffinity>  (1) 
-5.105

>  <filename>  (1) 
Clc1ccc(NC2=NCCC2=Cc2cccnc2)cc1

$$$$
