
     RDKit          3D

 30 33  0  0  0  0  0  0  0  0999 V2000
    4.9515    1.7831   16.9837 H   0  0  0  0  0  0  0  0  0  0  0  0
    5.4007    1.2871   17.8356 C   0  0  0  0  0  0  0  0  0  0  0  0
    6.5624    0.6549   17.6008 N   0  0  0  0  0  0  0  0  0  0  0  0
    7.1574    0.0797   18.6466 C   0  0  0  0  0  0  0  0  0  0  0  0
    8.1054   -0.4139   18.4215 H   0  0  0  0  0  0  0  0  0  0  0  0
    6.6546    0.1054   19.9661 C   0  0  0  0  0  0  0  0  0  0  0  0
    7.4275   -0.5896   21.0177 C   0  0  0  0  0  0  0  0  0  0  0  0
    8.2775   -1.6199   20.8470 C   0  0  0  0  0  0  0  0  0  0  0  0
    8.6901   -1.9761   19.9198 H   0  0  0  0  0  0  0  0  0  0  0  0
    8.8625   -2.3161   22.3305 S   0  0  0  0  0  0  0  0  0  0  0  0
    8.0849   -1.0367   23.2088 C   0  0  0  0  0  0  0  0  0  0  0  0
    8.1108   -0.5359   24.4199 N   0  0  0  0  0  0  0  0  0  0  0  0
    7.3497    0.5893   24.2693 C   0  0  0  0  0  0  0  0  0  0  0  0
    7.0903    1.5460   25.3628 C   0  0  0  0  0  0  0  0  0  0  0  0
    7.6263    1.3163   26.6395 C   0  0  0  0  0  0  0  0  0  0  0  0
    8.2440    0.4367   26.7985 H   0  0  0  0  0  0  0  0  0  0  0  0
    7.3716    2.2064   27.6769 C   0  0  0  0  0  0  0  0  0  0  0  0
    7.7823    2.0249   28.6647 H   0  0  0  0  0  0  0  0  0  0  0  0
    6.5813    3.3439   27.4568 C   0  0  0  0  0  0  0  0  0  0  0  0
    6.2884    4.4175   28.7843 Cl  0  0  0  0  0  0  0  0  0  0  0  0
    6.0489    3.5869   26.1752 C   0  0  0  0  0  0  0  0  0  0  0  0
    5.0656    4.9740   25.8319 Cl  0  0  0  0  0  0  0  0  0  0  0  0
    6.3087    2.6918   25.1354 C   0  0  0  0  0  0  0  0  0  0  0  0
    5.9089    2.8842   24.1426 H   0  0  0  0  0  0  0  0  0  0  0  0
    6.8619    0.7935   23.0501 N   0  0  0  0  0  0  0  0  0  0  0  0
    7.3375   -0.2785   22.3773 N   0  0  0  0  0  0  0  0  0  0  0  0
    5.4147    0.7456   20.1820 C   0  0  0  0  0  0  0  0  0  0  0  0
    4.9808    0.7831   21.1852 H   0  0  0  0  0  0  0  0  0  0  0  0
    4.7850    1.3367   19.0893 C   0  0  0  0  0  0  0  0  0  0  0  0
    3.8340    1.8484   19.1944 H   0  0  0  0  0  0  0  0  0  0  0  0
  1  2  1  0
  2  3  2  0
  3  4  1  0
  4  5  1  0
  4  6  2  0
  6  7  1  0
  7  8  2  0
  8  9  1  0
  8 10  1  0
 10 11  1  0
 11 12  2  0
 12 13  1  0
 13 14  1  0
 14 15  2  0
 15 16  1  0
 15 17  1  0
 17 18  1  0
 17 19  2  0
 19 20  1  0
 19 21  1  0
 21 22  1  0
 21 23  2  0
 23 24  1  0
 13 25  2  0
 25 26  1  0
  6 27  1  0
 27 28  1  0
 27 29  2  0
 29 30  1  0
 29  2  1  0
 26  7  1  0
 26 11  1  0
 23 14  1  0
M  END
>  <cnnaffinity>  (1) 
-5.46045

>  <filename>  (1) 
Clc1ccc(-c2nc3scc(-c4cccnc4)n3n2)cc1Cl

$$$$
