
     RDKit          3D

 35 38  0  0  0  0  0  0  0  0999 V2000
    4.9665    1.8491   16.9069 H   0  0  0  0  0  0  0  0  0  0  0  0
    5.3986    1.3059   17.7452 C   0  0  0  0  0  0  0  0  0  0  0  0
    6.5379    0.6425   17.4970 N   0  0  0  0  0  0  0  0  0  0  0  0
    7.1167    0.0115   18.5225 C   0  0  0  0  0  0  0  0  0  0  0  0
    8.0238   -0.5393   18.2837 H   0  0  0  0  0  0  0  0  0  0  0  0
    6.6198    0.0318   19.8418 C   0  0  0  0  0  0  0  0  0  0  0  0
    7.3869   -0.5864   20.9331 C   0  0  0  0  0  0  0  0  0  0  0  0
    8.1547   -1.6567   20.7176 N   0  0  0  0  0  0  0  0  0  0  0  0
    8.6544   -1.9304   21.9207 N   0  0  0  0  0  0  0  0  0  0  0  0
    8.2811   -1.1095   22.9025 C   0  0  0  0  0  0  0  0  0  0  0  0
    7.4324   -0.1909   22.3154 C   0  0  0  0  0  0  0  0  0  0  0  0
    6.9573    1.0285   22.9748 C   0  0  0  0  0  0  0  0  0  0  0  0
    7.2975    2.2589   22.3935 C   0  0  0  0  0  0  0  0  0  0  0  0
    7.8338    2.2533   21.4476 H   0  0  0  0  0  0  0  0  0  0  0  0
    6.9866    3.4597   23.0173 C   0  0  0  0  0  0  0  0  0  0  0  0
    7.3240    4.3904   22.5751 H   0  0  0  0  0  0  0  0  0  0  0  0
    6.2760    3.4645   24.2144 C   0  0  0  0  0  0  0  0  0  0  0  0
    6.0314    4.4036   24.7026 H   0  0  0  0  0  0  0  0  0  0  0  0
    5.8991    2.2545   24.8027 C   0  0  0  0  0  0  0  0  0  0  0  0
    4.9999    2.3211   26.2831 Cl  0  0  0  0  0  0  0  0  0  0  0  0
    6.2671    1.0336   24.2091 C   0  0  0  0  0  0  0  0  0  0  0  0
    5.8557   -0.4491   25.0135 Cl  0  0  0  0  0  0  0  0  0  0  0  0
    9.0701   -1.3776   24.1565 C   0  0  0  0  0  0  0  0  0  0  0  0
    9.6103   -0.4806   24.4768 H   0  0  0  0  0  0  0  0  0  0  0  0
    8.4261   -1.6928   24.9815 H   0  0  0  0  0  0  0  0  0  0  0  0
   10.0603   -2.4826   23.7038 C   0  0  0  0  0  0  0  0  0  0  0  0
   11.0512   -2.0542   23.5698 H   0  0  0  0  0  0  0  0  0  0  0  0
   10.1381   -3.2858   24.4389 H   0  0  0  0  0  0  0  0  0  0  0  0
    9.5868   -2.9573   22.3033 C   0  0  0  0  0  0  0  0  0  0  0  0
   10.4072   -2.9450   21.5907 H   0  0  0  0  0  0  0  0  0  0  0  0
    9.0865   -3.9317   22.3013 H   0  0  0  0  0  0  0  0  0  0  0  0
    5.3856    0.6668   20.0655 C   0  0  0  0  0  0  0  0  0  0  0  0
    4.9118    0.6496   21.0515 H   0  0  0  0  0  0  0  0  0  0  0  0
    4.7749    1.3183   18.9967 C   0  0  0  0  0  0  0  0  0  0  0  0
    3.8386    1.8496   19.1190 H   0  0  0  0  0  0  0  0  0  0  0  0
  1  2  1  0
  2  3  2  0
  3  4  1  0
  4  5  1  0
  4  6  2  0
  6  7  1  0
  7  8  2  0
  8  9  1  0
  9 10  1  0
 10 11  2  0
 11 12  1  0
 12 13  2  0
 13 14  1  0
 13 15  1  0
 15 16  1  0
 15 17  2  0
 17 18  1  0
 17 19  1  0
 19 20  1  0
 19 21  2  0
 21 22  1  0
 10 23  1  0
 23 24  1  0
 23 25  1  0
 23 26  1  0
 26 27  1  0
 26 28  1  0
 26 29  1  0
 29 30  1  0
 29 31  1  0
  6 32  1  0
 32 33  1  0
 32 34  2  0
 34 35  1  0
 34  2  1  0
 11  7  1  0
 21 12  1  0
 29  9  1  0
M  END
>  <cnnaffinity>  (1) 
-5.81366

>  <filename>  (1) 
Clc1cccc(-c2c(-c3cccnc3)nn3c2CCC3)c1Cl

$$$$
