
     RDKit          3D

 32 34  0  0  0  0  0  0  0  0999 V2000
    9.3992    0.9372   20.3070 H   0  0  0  0  0  0  0  0  0  0  0  0
    9.6944    0.0678   20.9042 C   0  0  0  0  0  0  0  0  0  0  0  0
    8.7546   -0.8046   21.3155 C   0  0  0  0  0  0  0  0  0  0  0  0
    7.2970   -0.8171   21.0050 C   0  0  0  0  0  0  0  0  0  0  0  0
    6.6473   -0.0343   19.9255 C   0  0  0  0  0  0  0  0  0  0  0  0
    7.2203    0.0077   18.6496 C   0  0  0  0  0  0  0  0  0  0  0  0
    8.1670   -0.5008   18.4569 H   0  0  0  0  0  0  0  0  0  0  0  0
    6.6774    0.6542   17.6100 N   0  0  0  0  0  0  0  0  0  0  0  0
    5.5213    1.3010   17.8217 C   0  0  0  0  0  0  0  0  0  0  0  0
    5.0914    1.8031   16.9580 H   0  0  0  0  0  0  0  0  0  0  0  0
    4.8557    1.3136   19.0543 C   0  0  0  0  0  0  0  0  0  0  0  0
    3.9216    1.8583   19.1540 H   0  0  0  0  0  0  0  0  0  0  0  0
    5.4213    0.6217   20.1231 C   0  0  0  0  0  0  0  0  0  0  0  0
    4.9343    0.5882   21.0983 H   0  0  0  0  0  0  0  0  0  0  0  0
    6.6138   -1.5956   21.7568 N   0  0  0  0  0  0  0  0  0  0  0  0
    7.4834   -2.2106   22.7614 C   0  0  0  0  0  0  0  0  0  0  0  0
    7.2179   -1.7916   23.7382 H   0  0  0  0  0  0  0  0  0  0  0  0
    7.2851   -3.2851   22.8126 H   0  0  0  0  0  0  0  0  0  0  0  0
    8.9432   -1.8669   22.3847 C   0  0  0  0  0  0  0  0  0  0  0  0
    9.4562   -2.7449   21.9792 H   0  0  0  0  0  0  0  0  0  0  0  0
    9.5231   -1.4930   23.2339 H   0  0  0  0  0  0  0  0  0  0  0  0
   11.1156    0.0578   21.3551 C   0  0  0  0  0  0  0  0  0  0  0  0
   11.9148   -1.1029   21.3246 C   0  0  0  0  0  0  0  0  0  0  0  0
   11.4870   -2.0036   20.9022 H   0  0  0  0  0  0  0  0  0  0  0  0
   13.2138   -1.1137   21.8400 C   0  0  0  0  0  0  0  0  0  0  0  0
   13.8000   -2.0249   21.8022 H   0  0  0  0  0  0  0  0  0  0  0  0
   13.7571    0.0373   22.4138 C   0  0  0  0  0  0  0  0  0  0  0  0
   14.7495    0.0329   22.8588 H   0  0  0  0  0  0  0  0  0  0  0  0
   12.9955    1.2132   22.4291 C   0  0  0  0  0  0  0  0  0  0  0  0
   13.6539    2.6242   23.1892 Cl  0  0  0  0  0  0  0  0  0  0  0  0
   11.7000    1.2337   21.8797 C   0  0  0  0  0  0  0  0  0  0  0  0
   10.7765    2.7007   21.9198 Cl  0  0  0  0  0  0  0  0  0  0  0  0
  1  2  1  0
  2  3  2  3
  3  4  1  0
  4  5  1  0
  5  6  2  0
  6  7  1  0
  6  8  1  0
  8  9  2  0
  9 10  1  0
  9 11  1  0
 11 12  1  0
 11 13  2  0
 13 14  1  0
  4 15  2  0
 15 16  1  0
 16 17  1  0
 16 18  1  0
 16 19  1  0
 19 20  1  0
 19 21  1  0
  2 22  1  0
 22 23  2  0
 23 24  1  0
 23 25  1  0
 25 26  1  0
 25 27  2  0
 27 28  1  0
 27 29  1  0
 29 30  1  0
 29 31  2  0
 31 32  1  0
 19  3  1  0
 31 22  1  0
 13  5  1  0
M  END
>  <cnnaffinity>  (1) 
-6.21837

>  <filename>  (1) 
Clc1cccc(C=C2CCN=C2c2cccnc2)c1Cl

$$$$
