
     RDKit          3D

 27 29  0  0  0  0  0  0  0  0999 V2000
    4.9176    1.7800   16.9968 H   0  0  0  0  0  0  0  0  0  0  0  0
    5.4031    1.2907   17.8409 C   0  0  0  0  0  0  0  0  0  0  0  0
    6.5706    0.6747   17.5856 N   0  0  0  0  0  0  0  0  0  0  0  0
    7.1810    0.0531   18.5979 C   0  0  0  0  0  0  0  0  0  0  0  0
    8.1274   -0.4363   18.3760 H   0  0  0  0  0  0  0  0  0  0  0  0
    6.6529    0.0191   19.9057 C   0  0  0  0  0  0  0  0  0  0  0  0
    7.3515   -0.6312   20.9742 N   0  0  0  0  0  0  0  0  0  0  0  0
    8.1263   -1.7255   20.7335 N   0  0  0  0  0  0  0  0  0  0  0  0
    8.6073   -2.0988   21.8534 N   0  0  0  0  0  0  0  0  0  0  0  0
    8.1923   -1.3044   22.8706 N   0  0  0  0  0  0  0  0  0  0  0  0
    7.4228   -0.4017   22.3113 C   0  0  0  0  0  0  0  0  0  0  0  0
    6.8057    0.6489   22.8700 O   0  0  0  0  0  0  0  0  0  0  0  0
    6.6629    0.7920   24.2516 C   0  0  0  0  0  0  0  0  0  0  0  0
    6.4902   -0.3049   25.0951 C   0  0  0  0  0  0  0  0  0  0  0  0
    6.5073   -1.3151   24.7024 H   0  0  0  0  0  0  0  0  0  0  0  0
    6.3130   -0.0621   26.4572 C   0  0  0  0  0  0  0  0  0  0  0  0
    6.1443   -1.4159   27.5219 Cl  0  0  0  0  0  0  0  0  0  0  0  0
    6.2766    1.2222   26.9969 C   0  0  0  0  0  0  0  0  0  0  0  0
    6.1436    1.3769   28.0650 H   0  0  0  0  0  0  0  0  0  0  0  0
    6.4105    2.2923   26.1099 C   0  0  0  0  0  0  0  0  0  0  0  0
    6.3435    3.8981   26.7563 Cl  0  0  0  0  0  0  0  0  0  0  0  0
    6.5942    2.1039   24.7378 C   0  0  0  0  0  0  0  0  0  0  0  0
    6.6786    2.9592   24.0777 H   0  0  0  0  0  0  0  0  0  0  0  0
    5.4350    0.6487   20.1665 C   0  0  0  0  0  0  0  0  0  0  0  0
    5.0091    0.6362   21.1689 H   0  0  0  0  0  0  0  0  0  0  0  0
    4.8062    1.3040   19.1045 C   0  0  0  0  0  0  0  0  0  0  0  0
    3.8768    1.8397   19.2615 H   0  0  0  0  0  0  0  0  0  0  0  0
  1  2  1  0
  2  3  2  0
  3  4  1  0
  4  5  1  0
  4  6  2  0
  6  7  1  0
  7  8  1  0
  8  9  2  0
  9 10  1  0
 10 11  2  0
 11 12  1  0
 12 13  1  0
 13 14  2  0
 14 15  1  0
 14 16  1  0
 16 17  1  0
 16 18  2  0
 18 19  1  0
 18 20  1  0
 20 21  1  0
 20 22  2  0
 22 23  1  0
  6 24  1  0
 24 25  1  0
 24 26  2  0
 26 27  1  0
 26  2  1  0
 11  7  1  0
 22 13  1  0
M  END
>  <cnnaffinity>  (1) 
-5.38833

>  <filename>  (1) 
Clc1cc(Cl)cc(Oc2nnnn2-c2cccnc2)c1

$$$$
