
     RDKit          3D

 31 33  0  0  0  0  0  0  0  0999 V2000
    4.9166    1.8061   16.9715 H   0  0  0  0  0  0  0  0  0  0  0  0
    5.3864    1.3030   17.8155 C   0  0  0  0  0  0  0  0  0  0  0  0
    6.5500    0.6850   17.5557 N   0  0  0  0  0  0  0  0  0  0  0  0
    7.1612    0.0720   18.5745 C   0  0  0  0  0  0  0  0  0  0  0  0
    8.1054   -0.4151   18.3331 H   0  0  0  0  0  0  0  0  0  0  0  0
    6.6644    0.0200   19.8936 C   0  0  0  0  0  0  0  0  0  0  0  0
    7.4028   -0.6806   20.9537 C   0  0  0  0  0  0  0  0  0  0  0  0
    6.9264   -1.1682   22.2002 C   0  0  0  0  0  0  0  0  0  0  0  0
    5.9420   -1.1139   22.6251 H   0  0  0  0  0  0  0  0  0  0  0  0
    7.8714   -1.7872   22.8811 N   0  0  0  0  0  0  0  0  0  0  0  0
    8.9585   -1.7114   22.1134 N   0  0  0  0  0  0  0  0  0  0  0  0
   10.2443   -2.1567   22.6223 C   0  0  0  0  0  0  0  0  0  0  0  0
   10.0177   -2.9060   23.3860 H   0  0  0  0  0  0  0  0  0  0  0  0
   10.7735   -2.6235   21.7874 H   0  0  0  0  0  0  0  0  0  0  0  0
   11.0478   -0.9944   23.1642 C   0  0  0  0  0  0  0  0  0  0  0  0
   11.9508   -0.3168   22.3306 C   0  0  0  0  0  0  0  0  0  0  0  0
   12.0659   -0.6595   21.3021 H   0  0  0  0  0  0  0  0  0  0  0  0
   12.6879    0.7732   22.7963 C   0  0  0  0  0  0  0  0  0  0  0  0
   13.3732    1.2912   22.1310 H   0  0  0  0  0  0  0  0  0  0  0  0
   12.5284    1.2059   24.1172 C   0  0  0  0  0  0  0  0  0  0  0  0
   13.1037    2.0533   24.4735 H   0  0  0  0  0  0  0  0  0  0  0  0
   11.6124    0.5619   24.9555 C   0  0  0  0  0  0  0  0  0  0  0  0
   11.4034    0.8649   25.9729 H   0  0  0  0  0  0  0  0  0  0  0  0
   10.8677   -0.5124   24.4689 C   0  0  0  0  0  0  0  0  0  0  0  0
    9.6780   -1.2096   25.5356 Cl  0  0  0  0  0  0  0  0  0  0  0  0
    8.7310   -1.0576   20.9590 C   0  0  0  0  0  0  0  0  0  0  0  0
    9.5520   -0.8925   20.2719 H   0  0  0  0  0  0  0  0  0  0  0  0
    5.4395    0.6600   20.1357 C   0  0  0  0  0  0  0  0  0  0  0  0
    5.0120    0.6536   21.1390 H   0  0  0  0  0  0  0  0  0  0  0  0
    4.7987    1.3141   19.0859 C   0  0  0  0  0  0  0  0  0  0  0  0
    3.8676    1.8452   19.2358 H   0  0  0  0  0  0  0  0  0  0  0  0
  1  2  1  0
  2  3  2  0
  3  4  1  0
  4  5  1  0
  4  6  2  0
  6  7  1  0
  7  8  1  0
  8  9  1  0
  8 10  2  0
 10 11  1  0
 11 12  1  0
 12 13  1  0
 12 14  1  0
 12 15  1  0
 15 16  2  0
 16 17  1  0
 16 18  1  0
 18 19  1  0
 18 20  2  0
 20 21  1  0
 20 22  1  0
 22 23  1  0
 22 24  2  0
 24 25  1  0
 11 26  1  0
 26 27  1  0
  6 28  1  0
 28 29  1  0
 28 30  2  0
 30 31  1  0
 30  2  1  0
 26  7  2  0
 24 15  1  0
M  END
>  <cnnaffinity>  (1) 
-5.38352

>  <filename>  (1) 
Clc1ccccc1Cn1cc(-c2cccnc2)cn1

$$$$
