
     RDKit          3D

 29 31  0  0  0  0  0  0  0  0999 V2000
    8.5340   -1.8992   19.8146 H   0  0  0  0  0  0  0  0  0  0  0  0
    8.2650   -1.6254   20.8224 C   0  0  0  0  0  0  0  0  0  0  0  0
    8.8361   -2.3359   21.8059 N   0  0  0  0  0  0  0  0  0  0  0  0
    8.5887   -1.8956   23.0530 C   0  0  0  0  0  0  0  0  0  0  0  0
    9.0025   -2.4722   23.8770 H   0  0  0  0  0  0  0  0  0  0  0  0
    7.8098   -0.7439   23.3130 C   0  0  0  0  0  0  0  0  0  0  0  0
    7.6660   -0.2155   24.7047 C   0  0  0  0  0  0  0  0  0  0  0  0
    6.5414    0.5511   25.0481 C   0  0  0  0  0  0  0  0  0  0  0  0
    5.8117    0.7864   24.2793 H   0  0  0  0  0  0  0  0  0  0  0  0
    6.4081    1.0459   26.3443 C   0  0  0  0  0  0  0  0  0  0  0  0
    5.0345    2.0348   26.7358 Cl  0  0  0  0  0  0  0  0  0  0  0  0
    7.3526    0.7555   27.3305 C   0  0  0  0  0  0  0  0  0  0  0  0
    7.2433    1.1322   28.3403 H   0  0  0  0  0  0  0  0  0  0  0  0
    8.4334   -0.0620   26.9889 C   0  0  0  0  0  0  0  0  0  0  0  0
    9.4920   -0.6123   28.2467 Cl  0  0  0  0  0  0  0  0  0  0  0  0
    8.6416   -0.4953   25.6800 C   0  0  0  0  0  0  0  0  0  0  0  0
    9.5635   -1.0236   25.4522 H   0  0  0  0  0  0  0  0  0  0  0  0
    7.1633   -0.1033   22.3171 N   0  0  0  0  0  0  0  0  0  0  0  0
    7.3709   -0.5469   21.0647 C   0  0  0  0  0  0  0  0  0  0  0  0
    6.6164    0.1214   19.9764 C   0  0  0  0  0  0  0  0  0  0  0  0
    7.1621    0.1185   18.6878 C   0  0  0  0  0  0  0  0  0  0  0  0
    8.1227   -0.3649   18.5128 H   0  0  0  0  0  0  0  0  0  0  0  0
    6.5883    0.6888   17.6280 N   0  0  0  0  0  0  0  0  0  0  0  0
    5.4110    1.3011   17.8225 C   0  0  0  0  0  0  0  0  0  0  0  0
    4.9632    1.7727   16.9508 H   0  0  0  0  0  0  0  0  0  0  0  0
    4.7634    1.3475   19.0625 C   0  0  0  0  0  0  0  0  0  0  0  0
    3.8068    1.8505   19.1522 H   0  0  0  0  0  0  0  0  0  0  0  0
    5.3794    0.7546   20.1640 C   0  0  0  0  0  0  0  0  0  0  0  0
    4.9209    0.7854   21.1525 H   0  0  0  0  0  0  0  0  0  0  0  0
  1  2  1  0
  2  3  2  0
  3  4  1  0
  4  5  1  0
  4  6  2  0
  6  7  1  0
  7  8  2  0
  8  9  1  0
  8 10  1  0
 10 11  1  0
 10 12  2  0
 12 13  1  0
 12 14  1  0
 14 15  1  0
 14 16  2  0
 16 17  1  0
  6 18  1  0
 18 19  2  0
 19 20  1  0
 20 21  2  0
 21 22  1  0
 21 23  1  0
 23 24  2  0
 24 25  1  0
 24 26  1  0
 26 27  1  0
 26 28  2  0
 28 29  1  0
 19  2  1  0
 28 20  1  0
 16  7  1  0
M  END
>  <cnnaffinity>  (1) 
-5.24619

>  <filename>  (1) 
Clc1cc(Cl)cc(-c2cncc(-c3cccnc3)n2)c1

$$$$
