
     RDKit          3D

 32 34  0  0  0  0  0  0  0  0999 V2000
    4.9385    1.8424   16.9241 H   0  0  0  0  0  0  0  0  0  0  0  0
    5.3939    1.3282   17.7637 C   0  0  0  0  0  0  0  0  0  0  0  0
    6.5438    0.6783   17.5097 N   0  0  0  0  0  0  0  0  0  0  0  0
    7.1311    0.0474   18.5352 C   0  0  0  0  0  0  0  0  0  0  0  0
    8.0501   -0.4796   18.2848 H   0  0  0  0  0  0  0  0  0  0  0  0
    6.6328    0.0125   19.8549 C   0  0  0  0  0  0  0  0  0  0  0  0
    7.3945   -0.6767   20.9132 C   0  0  0  0  0  0  0  0  0  0  0  0
    8.7519   -0.9052   21.0133 C   0  0  0  0  0  0  0  0  0  0  0  0
    9.5042   -0.6326   20.2810 H   0  0  0  0  0  0  0  0  0  0  0  0
    8.9965   -1.5599   22.2370 C   0  0  0  0  0  0  0  0  0  0  0  0
    9.9700   -1.8647   22.5949 H   0  0  0  0  0  0  0  0  0  0  0  0
    7.7864   -1.7404   22.8729 C   0  0  0  0  0  0  0  0  0  0  0  0
    7.4840   -2.5058   24.1258 C   0  0  0  0  0  0  0  0  0  0  0  0
    8.2328   -2.2433   24.8786 H   0  0  0  0  0  0  0  0  0  0  0  0
    6.5129   -2.2080   24.5348 H   0  0  0  0  0  0  0  0  0  0  0  0
    7.5132   -4.0080   23.8816 C   0  0  0  0  0  0  0  0  0  0  0  0
    8.6440   -4.7735   24.2125 C   0  0  0  0  0  0  0  0  0  0  0  0
    9.4305   -4.3291   24.8233 H   0  0  0  0  0  0  0  0  0  0  0  0
    8.7838   -6.0910   23.7651 C   0  0  0  0  0  0  0  0  0  0  0  0
    9.6424   -6.6968   24.0412 H   0  0  0  0  0  0  0  0  0  0  0  0
    7.7909   -6.6550   22.9615 C   0  0  0  0  0  0  0  0  0  0  0  0
    7.9122   -7.6669   22.5823 H   0  0  0  0  0  0  0  0  0  0  0  0
    6.6106   -5.9558   22.7150 C   0  0  0  0  0  0  0  0  0  0  0  0
    5.8074   -6.4107   22.1511 H   0  0  0  0  0  0  0  0  0  0  0  0
    6.4673   -4.6526   23.1978 C   0  0  0  0  0  0  0  0  0  0  0  0
    4.9216   -3.8678   22.9648 Cl  0  0  0  0  0  0  0  0  0  0  0  0
    6.8220   -1.1928   22.0609 N   0  0  0  0  0  0  0  0  0  0  0  0
    5.8419   -1.4131   22.1537 H   0  0  0  0  0  0  0  0  0  0  0  0
    5.4170    0.6913   20.0814 C   0  0  0  0  0  0  0  0  0  0  0  0
    4.9864    0.7040   21.0813 H   0  0  0  0  0  0  0  0  0  0  0  0
    4.7880    1.3521   19.0245 C   0  0  0  0  0  0  0  0  0  0  0  0
    3.8502    1.8850   19.1666 H   0  0  0  0  0  0  0  0  0  0  0  0
  1  2  1  0
  2  3  2  0
  3  4  1  0
  4  5  1  0
  4  6  2  0
  6  7  1  0
  7  8  2  0
  8  9  1  0
  8 10  1  0
 10 11  1  0
 10 12  2  0
 12 13  1  0
 13 14  1  0
 13 15  1  0
 13 16  1  0
 16 17  2  0
 17 18  1  0
 17 19  1  0
 19 20  1  0
 19 21  2  0
 21 22  1  0
 21 23  1  0
 23 24  1  0
 23 25  2  0
 25 26  1  0
 12 27  1  0
 27 28  1  0
  6 29  1  0
 29 30  1  0
 29 31  2  0
 31 32  1  0
 31  2  1  0
 27  7  1  0
 25 16  1  0
M  END
>  <cnnaffinity>  (1) 
-5.26817

>  <filename>  (1) 
Clc1ccccc1Cc1ccc(-c2cccnc2)[nH]1

$$$$
