
     RDKit          3D

 27 29  0  0  0  0  0  0  0  0999 V2000
    4.9045    1.7709   17.0066 H   0  0  0  0  0  0  0  0  0  0  0  0
    5.3991    1.2911   17.8481 C   0  0  0  0  0  0  0  0  0  0  0  0
    6.5708    0.6828   17.5943 N   0  0  0  0  0  0  0  0  0  0  0  0
    7.1857    0.0551   18.6004 C   0  0  0  0  0  0  0  0  0  0  0  0
    8.1350   -0.4419   18.3856 H   0  0  0  0  0  0  0  0  0  0  0  0
    6.6598    0.0035   19.9027 C   0  0  0  0  0  0  0  0  0  0  0  0
    7.3658   -0.6862   20.9318 N   0  0  0  0  0  0  0  0  0  0  0  0
    7.9740   -1.8733   20.7116 N   0  0  0  0  0  0  0  0  0  0  0  0
    8.4703   -2.2836   21.8346 N   0  0  0  0  0  0  0  0  0  0  0  0
    8.1972   -1.3709   22.8024 C   0  0  0  0  0  0  0  0  0  0  0  0
    8.5091   -1.4551   23.8341 H   0  0  0  0  0  0  0  0  0  0  0  0
    7.4997   -0.3395   22.2438 C   0  0  0  0  0  0  0  0  0  0  0  0
    7.0529    0.9052   22.8704 C   0  0  0  0  0  0  0  0  0  0  0  0
    6.2001    0.8018   23.9793 C   0  0  0  0  0  0  0  0  0  0  0  0
    5.8827   -0.1770   24.3358 H   0  0  0  0  0  0  0  0  0  0  0  0
    5.7329    1.9477   24.6131 C   0  0  0  0  0  0  0  0  0  0  0  0
    5.0618    1.8637   25.4628 H   0  0  0  0  0  0  0  0  0  0  0  0
    6.1272    3.2073   24.1559 C   0  0  0  0  0  0  0  0  0  0  0  0
    5.7592    4.1000   24.6521 H   0  0  0  0  0  0  0  0  0  0  0  0
    7.0024    3.3254   23.0681 C   0  0  0  0  0  0  0  0  0  0  0  0
    7.4767    4.9149   22.5553 Cl  0  0  0  0  0  0  0  0  0  0  0  0
    7.4871    2.1747   22.4258 C   0  0  0  0  0  0  0  0  0  0  0  0
    8.6362    2.3184   21.1342 Cl  0  0  0  0  0  0  0  0  0  0  0  0
    5.4450    0.6485   20.1616 C   0  0  0  0  0  0  0  0  0  0  0  0
    5.0095    0.6282   21.1579 H   0  0  0  0  0  0  0  0  0  0  0  0
    4.8064    1.3107   19.1129 C   0  0  0  0  0  0  0  0  0  0  0  0
    3.8735    1.8446   19.2689 H   0  0  0  0  0  0  0  0  0  0  0  0
  1  2  1  0
  2  3  2  0
  3  4  1  0
  4  5  1  0
  4  6  2  0
  6  7  1  0
  7  8  1  0
  8  9  2  0
  9 10  1  0
 10 11  1  0
 10 12  2  0
 12 13  1  0
 13 14  2  0
 14 15  1  0
 14 16  1  0
 16 17  1  0
 16 18  2  0
 18 19  1  0
 18 20  1  0
 20 21  1  0
 20 22  2  0
 22 23  1  0
  6 24  1  0
 24 25  1  0
 24 26  2  0
 26 27  1  0
 26  2  1  0
 12  7  1  0
 22 13  1  0
M  END
>  <cnnaffinity>  (1) 
-5.24559

>  <filename>  (1) 
Clc1cccc(-c2cnnn2-c2cccnc2)c1Cl

$$$$
