
     RDKit          3D

 30 32  0  0  0  0  0  0  0  0999 V2000
    4.9117    1.7989   16.9796 H   0  0  0  0  0  0  0  0  0  0  0  0
    5.3877    1.3052   17.8205 C   0  0  0  0  0  0  0  0  0  0  0  0
    6.5530    0.6903   17.5517 N   0  0  0  0  0  0  0  0  0  0  0  0
    7.1577    0.0651   18.5682 C   0  0  0  0  0  0  0  0  0  0  0  0
    8.1154   -0.3998   18.3359 H   0  0  0  0  0  0  0  0  0  0  0  0
    6.6501    0.0136   19.8838 C   0  0  0  0  0  0  0  0  0  0  0  0
    7.3673   -0.6579   20.9747 C   0  0  0  0  0  0  0  0  0  0  0  0
    7.5236   -0.3202   22.3141 C   0  0  0  0  0  0  0  0  0  0  0  0
    7.0399    0.8424   22.9264 N   0  0  0  0  0  0  0  0  0  0  0  0
    6.9903    1.6581   22.3354 H   0  0  0  0  0  0  0  0  0  0  0  0
    6.9241    1.0578   24.2947 C   0  0  0  0  0  0  0  0  0  0  0  0
    6.3783    0.0447   25.0939 C   0  0  0  0  0  0  0  0  0  0  0  0
    6.1022   -0.8679   24.5800 H   0  0  0  0  0  0  0  0  0  0  0  0
    6.2239    0.2148   26.4623 C   0  0  0  0  0  0  0  0  0  0  0  0
    5.8097   -0.5903   27.0552 H   0  0  0  0  0  0  0  0  0  0  0  0
    6.6019    1.4097   27.0675 C   0  0  0  0  0  0  0  0  0  0  0  0
    6.4850    1.5654   28.1336 H   0  0  0  0  0  0  0  0  0  0  0  0
    7.1406    2.4360   26.2861 C   0  0  0  0  0  0  0  0  0  0  0  0
    7.5801    3.9057   27.0890 Cl  0  0  0  0  0  0  0  0  0  0  0  0
    7.3029    2.2793   24.8987 C   0  0  0  0  0  0  0  0  0  0  0  0
    7.9834    3.5537   23.9366 Cl  0  0  0  0  0  0  0  0  0  0  0  0
    8.2900   -1.3829   22.8608 C   0  0  0  0  0  0  0  0  0  0  0  0
    8.6296   -1.4760   23.8820 H   0  0  0  0  0  0  0  0  0  0  0  0
    8.5865   -2.3032   21.9522 N   0  0  0  0  0  0  0  0  0  0  0  0
    8.0295   -1.8346   20.8250 N   0  0  0  0  0  0  0  0  0  0  0  0
    8.0973   -2.3790   19.9818 H   0  0  0  0  0  0  0  0  0  0  0  0
    5.4320    0.6612   20.1422 C   0  0  0  0  0  0  0  0  0  0  0  0
    5.0194    0.6269   21.1535 H   0  0  0  0  0  0  0  0  0  0  0  0
    4.7940    1.3183   19.0891 C   0  0  0  0  0  0  0  0  0  0  0  0
    3.8647    1.8487   19.2453 H   0  0  0  0  0  0  0  0  0  0  0  0
  1  2  1  0
  2  3  2  0
  3  4  1  0
  4  5  1  0
  4  6  2  0
  6  7  1  0
  7  8  2  0
  8  9  1  0
  9 10  1  0
  9 11  1  0
 11 12  2  0
 12 13  1  0
 12 14  1  0
 14 15  1  0
 14 16  2  0
 16 17  1  0
 16 18  1  0
 18 19  1  0
 18 20  2  0
 20 21  1  0
  8 22  1  0
 22 23  1  0
 22 24  2  0
 24 25  1  0
 25 26  1  0
  6 27  1  0
 27 28  1  0
 27 29  2  0
 29 30  1  0
 29  2  1  0
 25  7  1  0
 20 11  1  0
M  END
>  <cnnaffinity>  (1) 
-5.81799

>  <filename>  (1) 
Clc1cccc(Nc2cn[nH]c2-c2cccnc2)c1Cl

$$$$
