
     RDKit          3D

 33 35  0  0  0  0  0  0  0  0999 V2000
    4.9272    1.8166   16.9596 H   0  0  0  0  0  0  0  0  0  0  0  0
    5.3851    1.3089   17.8080 C   0  0  0  0  0  0  0  0  0  0  0  0
    6.5455    0.6854   17.5528 N   0  0  0  0  0  0  0  0  0  0  0  0
    7.1545    0.0724   18.5770 C   0  0  0  0  0  0  0  0  0  0  0  0
    8.0987   -0.4169   18.3395 H   0  0  0  0  0  0  0  0  0  0  0  0
    6.6490    0.0183   19.8871 C   0  0  0  0  0  0  0  0  0  0  0  0
    7.3819   -0.7032   20.9576 C   0  0  0  0  0  0  0  0  0  0  0  0
    8.7675   -0.5768   21.1280 C   0  0  0  0  0  0  0  0  0  0  0  0
    9.3446    0.0676   20.4839 H   0  0  0  0  0  0  0  0  0  0  0  0
    9.3817   -1.2590   22.1807 C   0  0  0  0  0  0  0  0  0  0  0  0
   10.4563   -1.1914   22.3433 H   0  0  0  0  0  0  0  0  0  0  0  0
    8.7194   -2.0392   23.0414 N   0  0  0  0  0  0  0  0  0  0  0  0
    7.3991   -2.1839   22.8640 C   0  0  0  0  0  0  0  0  0  0  0  0
    6.6752   -3.1008   23.8205 C   0  0  0  0  0  0  0  0  0  0  0  0
    5.6084   -2.8597   23.8055 H   0  0  0  0  0  0  0  0  0  0  0  0
    7.0610   -2.9029   24.8273 H   0  0  0  0  0  0  0  0  0  0  0  0
    6.9103   -4.5538   23.4504 C   0  0  0  0  0  0  0  0  0  0  0  0
    8.0585   -5.1890   23.9441 C   0  0  0  0  0  0  0  0  0  0  0  0
    8.6616   -4.6407   24.6686 H   0  0  0  0  0  0  0  0  0  0  0  0
    8.4322   -6.4599   23.5107 C   0  0  0  0  0  0  0  0  0  0  0  0
    9.3398   -6.8885   23.9318 H   0  0  0  0  0  0  0  0  0  0  0  0
    7.6207   -7.1474   22.5935 C   0  0  0  0  0  0  0  0  0  0  0  0
    7.8621   -8.1644   22.2819 H   0  0  0  0  0  0  0  0  0  0  0  0
    6.4490   -6.5505   22.1166 C   0  0  0  0  0  0  0  0  0  0  0  0
    5.7681   -7.0738   21.4527 H   0  0  0  0  0  0  0  0  0  0  0  0
    6.1216   -5.2517   22.5253 C   0  0  0  0  0  0  0  0  0  0  0  0
    4.7147   -4.4880   21.8341 Cl  0  0  0  0  0  0  0  0  0  0  0  0
    6.7020   -1.5376   21.8388 C   0  0  0  0  0  0  0  0  0  0  0  0
    5.6383   -1.6910   21.7305 H   0  0  0  0  0  0  0  0  0  0  0  0
    5.4259    0.6657   20.1272 C   0  0  0  0  0  0  0  0  0  0  0  0
    5.0050    0.6559   21.1332 H   0  0  0  0  0  0  0  0  0  0  0  0
    4.7879    1.3272   19.0749 C   0  0  0  0  0  0  0  0  0  0  0  0
    3.8545    1.8594   19.2175 H   0  0  0  0  0  0  0  0  0  0  0  0
  1  2  1  0
  2  3  2  0
  3  4  1  0
  4  5  1  0
  4  6  2  0
  6  7  1  0
  7  8  2  0
  8  9  1  0
  8 10  1  0
 10 11  1  0
 10 12  2  0
 12 13  1  0
 13 14  1  0
 14 15  1  0
 14 16  1  0
 14 17  1  0
 17 18  2  0
 18 19  1  0
 18 20  1  0
 20 21  1  0
 20 22  2  0
 22 23  1  0
 22 24  1  0
 24 25  1  0
 24 26  2  0
 26 27  1  0
 13 28  2  0
 28 29  1  0
  6 30  1  0
 30 31  1  0
 30 32  2  0
 32 33  1  0
 32  2  1  0
 28  7  1  0
 26 17  1  0
M  END
>  <cnnaffinity>  (1) 
-5.20839

>  <filename>  (1) 
Clc1ccccc1Cc1cc(-c2cccnc2)ccn1

$$$$
