
     RDKit          3D

 35 38  0  0  0  0  0  0  0  0999 V2000
    4.9480    1.8220   16.9763 H   0  0  0  0  0  0  0  0  0  0  0  0
    5.4023    1.2954   17.8135 C   0  0  0  0  0  0  0  0  0  0  0  0
    6.5619    0.6672   17.5598 N   0  0  0  0  0  0  0  0  0  0  0  0
    7.1515    0.0207   18.5691 C   0  0  0  0  0  0  0  0  0  0  0  0
    8.1051   -0.4527   18.3345 H   0  0  0  0  0  0  0  0  0  0  0  0
    6.6232   -0.0294   19.8706 C   0  0  0  0  0  0  0  0  0  0  0  0
    7.3591   -0.6876   20.9534 C   0  0  0  0  0  0  0  0  0  0  0  0
    8.0848   -1.7830   20.7357 N   0  0  0  0  0  0  0  0  0  0  0  0
    8.5636   -2.0819   21.9413 N   0  0  0  0  0  0  0  0  0  0  0  0
    8.2355   -1.2472   22.9236 C   0  0  0  0  0  0  0  0  0  0  0  0
    7.4498   -0.2818   22.3234 C   0  0  0  0  0  0  0  0  0  0  0  0
    7.0832    0.9644   22.9670 C   0  0  0  0  0  0  0  0  0  0  0  0
    6.6103    0.9256   24.2836 C   0  0  0  0  0  0  0  0  0  0  0  0
    6.4827   -0.0278   24.7887 H   0  0  0  0  0  0  0  0  0  0  0  0
    6.2934    2.1165   24.9203 C   0  0  0  0  0  0  0  0  0  0  0  0
    5.6802    2.0842   26.5465 Cl  0  0  0  0  0  0  0  0  0  0  0  0
    6.4643    3.3437   24.2745 C   0  0  0  0  0  0  0  0  0  0  0  0
    6.2074    4.2643   24.7742 H   0  0  0  0  0  0  0  0  0  0  0  0
    6.9646    3.3639   22.9697 C   0  0  0  0  0  0  0  0  0  0  0  0
    7.1916    4.8812   22.1555 Cl  0  0  0  0  0  0  0  0  0  0  0  0
    7.2790    2.1873   22.3076 C   0  0  0  0  0  0  0  0  0  0  0  0
    7.6691    2.2069   21.2955 H   0  0  0  0  0  0  0  0  0  0  0  0
    9.0780   -1.4904   24.1537 C   0  0  0  0  0  0  0  0  0  0  0  0
    9.6766   -0.5947   24.3652 H   0  0  0  0  0  0  0  0  0  0  0  0
    8.4750   -1.6934   25.0475 H   0  0  0  0  0  0  0  0  0  0  0  0
    9.9498   -2.7088   23.7278 C   0  0  0  0  0  0  0  0  0  0  0  0
    9.7699   -3.5812   24.3543 H   0  0  0  0  0  0  0  0  0  0  0  0
   11.0103   -2.4797   23.7779 H   0  0  0  0  0  0  0  0  0  0  0  0
    9.5724   -3.0456   22.2599 C   0  0  0  0  0  0  0  0  0  0  0  0
   10.4050   -2.8928   21.5698 H   0  0  0  0  0  0  0  0  0  0  0  0
    9.1463   -4.0458   22.1527 H   0  0  0  0  0  0  0  0  0  0  0  0
    5.4068    0.6247   20.1159 C   0  0  0  0  0  0  0  0  0  0  0  0
    4.9863    0.6438   21.1223 H   0  0  0  0  0  0  0  0  0  0  0  0
    4.7873    1.2982   19.0685 C   0  0  0  0  0  0  0  0  0  0  0  0
    3.8629    1.8461   19.2228 H   0  0  0  0  0  0  0  0  0  0  0  0
  1  2  1  0
  2  3  2  0
  3  4  1  0
  4  5  1  0
  4  6  2  0
  6  7  1  0
  7  8  2  0
  8  9  1  0
  9 10  1  0
 10 11  2  0
 11 12  1  0
 12 13  2  0
 13 14  1  0
 13 15  1  0
 15 16  1  0
 15 17  2  0
 17 18  1  0
 17 19  1  0
 19 20  1  0
 19 21  2  0
 21 22  1  0
 10 23  1  0
 23 24  1  0
 23 25  1  0
 23 26  1  0
 26 27  1  0
 26 28  1  0
 26 29  1  0
 29 30  1  0
 29 31  1  0
  6 32  1  0
 32 33  1  0
 32 34  2  0
 34 35  1  0
 34  2  1  0
 11  7  1  0
 21 12  1  0
 29  9  1  0
M  END
>  <cnnaffinity>  (1) 
-5.77589

>  <filename>  (1) 
Clc1cc(Cl)cc(-c2c(-c3cccnc3)nn3c2CCC3)c1

$$$$
