
     RDKit          3D

 33 35  0  0  0  0  0  0  0  0999 V2000
    4.9110    1.8290   16.9621 H   0  0  0  0  0  0  0  0  0  0  0  0
    5.3759    1.3135   17.8012 C   0  0  0  0  0  0  0  0  0  0  0  0
    6.5378    0.6924   17.5386 N   0  0  0  0  0  0  0  0  0  0  0  0
    7.1569    0.0745   18.5537 C   0  0  0  0  0  0  0  0  0  0  0  0
    8.1095   -0.3888   18.2955 H   0  0  0  0  0  0  0  0  0  0  0  0
    6.6596    0.0196   19.8735 C   0  0  0  0  0  0  0  0  0  0  0  0
    7.3714   -0.6698   20.9789 C   0  0  0  0  0  0  0  0  0  0  0  0
    7.5768   -0.3014   22.3040 C   0  0  0  0  0  0  0  0  0  0  0  0
    7.0640    0.8693   22.8890 N   0  0  0  0  0  0  0  0  0  0  0  0
    6.9739    1.6030   22.1894 H   0  0  0  0  0  0  0  0  0  0  0  0
    7.5057    1.2931   24.2142 C   0  0  0  0  0  0  0  0  0  0  0  0
    7.2373    0.4995   24.9285 H   0  0  0  0  0  0  0  0  0  0  0  0
    6.9107    2.1759   24.4777 H   0  0  0  0  0  0  0  0  0  0  0  0
    8.9975    1.5872   24.3831 C   0  0  0  0  0  0  0  0  0  0  0  0
    9.7772    0.8276   25.2758 C   0  0  0  0  0  0  0  0  0  0  0  0
    9.3046    0.0778   25.9069 H   0  0  0  0  0  0  0  0  0  0  0  0
   11.1592    1.0062   25.3563 C   0  0  0  0  0  0  0  0  0  0  0  0
   11.7343    0.3623   26.0168 H   0  0  0  0  0  0  0  0  0  0  0  0
   11.7915    1.9834   24.5838 C   0  0  0  0  0  0  0  0  0  0  0  0
   12.8693    2.1001   24.5890 H   0  0  0  0  0  0  0  0  0  0  0  0
   11.0108    2.7904   23.7553 C   0  0  0  0  0  0  0  0  0  0  0  0
   11.7718    4.0642   22.8410 Cl  0  0  0  0  0  0  0  0  0  0  0  0
    9.6350    2.5869   23.6291 C   0  0  0  0  0  0  0  0  0  0  0  0
    9.0837    3.2005   22.9205 H   0  0  0  0  0  0  0  0  0  0  0  0
    8.3107   -1.3891   22.8637 C   0  0  0  0  0  0  0  0  0  0  0  0
    8.6920   -1.4879   23.8717 H   0  0  0  0  0  0  0  0  0  0  0  0
    8.5318   -2.3516   21.9680 N   0  0  0  0  0  0  0  0  0  0  0  0
    7.9615   -1.8896   20.8442 N   0  0  0  0  0  0  0  0  0  0  0  0
    7.9120   -2.4783   20.0237 H   0  0  0  0  0  0  0  0  0  0  0  0
    5.4334    0.6674   20.1122 C   0  0  0  0  0  0  0  0  0  0  0  0
    5.0082    0.6411   21.1135 H   0  0  0  0  0  0  0  0  0  0  0  0
    4.7791    1.3210   19.0642 C   0  0  0  0  0  0  0  0  0  0  0  0
    3.8466    1.8569   19.2150 H   0  0  0  0  0  0  0  0  0  0  0  0
  1  2  1  0
  2  3  2  0
  3  4  1  0
  4  5  1  0
  4  6  2  0
  6  7  1  0
  7  8  2  0
  8  9  1  0
  9 10  1  0
  9 11  1  0
 11 12  1  0
 11 13  1  0
 11 14  1  0
 14 15  2  0
 15 16  1  0
 15 17  1  0
 17 18  1  0
 17 19  2  0
 19 20  1  0
 19 21  1  0
 21 22  1  0
 21 23  2  0
 23 24  1  0
  8 25  1  0
 25 26  1  0
 25 27  2  0
 27 28  1  0
 28 29  1  0
  6 30  1  0
 30 31  1  0
 30 32  2  0
 32 33  1  0
 32  2  1  0
 28  7  1  0
 23 14  1  0
M  END
>  <cnnaffinity>  (1) 
-5.64607

>  <filename>  (1) 
Clc1cccc(CNc2cn[nH]c2-c2cccnc2)c1

$$$$
