
     RDKit          3D

 30 32  0  0  0  0  0  0  0  0999 V2000
    4.9280    1.8615   16.8954 H   0  0  0  0  0  0  0  0  0  0  0  0
    5.3852    1.3586   17.7476 C   0  0  0  0  0  0  0  0  0  0  0  0
    6.5478    0.7280   17.5173 N   0  0  0  0  0  0  0  0  0  0  0  0
    7.1139    0.0906   18.5433 C   0  0  0  0  0  0  0  0  0  0  0  0
    8.0519   -0.4148   18.3285 H   0  0  0  0  0  0  0  0  0  0  0  0
    6.5754    0.0323   19.8343 C   0  0  0  0  0  0  0  0  0  0  0  0
    7.2724   -0.7407   20.8635 C   0  0  0  0  0  0  0  0  0  0  0  0
    6.7400   -0.9657   22.0970 N   0  0  0  0  0  0  0  0  0  0  0  0
    7.5744   -1.6551   22.8039 N   0  0  0  0  0  0  0  0  0  0  0  0
    8.6468   -1.9033   22.0516 N   0  0  0  0  0  0  0  0  0  0  0  0
    9.8349   -2.4972   22.6584 C   0  0  0  0  0  0  0  0  0  0  0  0
   10.4011   -2.9765   21.8611 H   0  0  0  0  0  0  0  0  0  0  0  0
    9.5001   -3.2656   23.3664 H   0  0  0  0  0  0  0  0  0  0  0  0
   10.6988   -1.4511   23.3401 C   0  0  0  0  0  0  0  0  0  0  0  0
   10.3715   -1.0079   24.6354 C   0  0  0  0  0  0  0  0  0  0  0  0
    9.4656   -1.3773   25.1241 H   0  0  0  0  0  0  0  0  0  0  0  0
   11.1907   -0.0819   25.2916 C   0  0  0  0  0  0  0  0  0  0  0  0
   10.9487    0.2369   26.3007 H   0  0  0  0  0  0  0  0  0  0  0  0
   12.3220    0.4419   24.6543 C   0  0  0  0  0  0  0  0  0  0  0  0
   12.9501    1.1602   25.1727 H   0  0  0  0  0  0  0  0  0  0  0  0
   12.6397    0.0542   23.3512 C   0  0  0  0  0  0  0  0  0  0  0  0
   13.4901    0.4825   22.8229 H   0  0  0  0  0  0  0  0  0  0  0  0
   11.8141   -0.8722   22.7033 C   0  0  0  0  0  0  0  0  0  0  0  0
   12.2391   -1.3003   21.0663 Cl  0  0  0  0  0  0  0  0  0  0  0  0
    8.5007   -1.3544   20.8200 C   0  0  0  0  0  0  0  0  0  0  0  0
    9.2359   -1.4679   20.0383 H   0  0  0  0  0  0  0  0  0  0  0  0
    5.3745    0.7173   20.0727 C   0  0  0  0  0  0  0  0  0  0  0  0
    4.9370    0.7281   21.0734 H   0  0  0  0  0  0  0  0  0  0  0  0
    4.7698    1.3740   19.0052 C   0  0  0  0  0  0  0  0  0  0  0  0
    3.8293    1.8957   19.1271 H   0  0  0  0  0  0  0  0  0  0  0  0
  1  2  1  0
  2  3  2  0
  3  4  1  0
  4  5  1  0
  4  6  2  0
  6  7  1  0
  7  8  1  0
  8  9  2  0
  9 10  1  0
 10 11  1  0
 11 12  1  0
 11 13  1  0
 11 14  1  0
 14 15  2  0
 15 16  1  0
 15 17  1  0
 17 18  1  0
 17 19  2  0
 19 20  1  0
 19 21  1  0
 21 22  1  0
 21 23  2  0
 23 24  1  0
 10 25  1  0
 25 26  1  0
  6 27  1  0
 27 28  1  0
 27 29  2  0
 29 30  1  0
 29  2  1  0
 25  7  2  0
 23 14  1  0
M  END
>  <cnnaffinity>  (1) 
-5.11111

>  <filename>  (1) 
Clc1ccccc1Cn1cc(-c2cccnc2)nn1

$$$$
