
     RDKit          3D

 30 32  0  0  0  0  0  0  0  0999 V2000
    5.1060    1.8025   16.8523 H   0  0  0  0  0  0  0  0  0  0  0  0
    5.4880    1.2880   17.7318 C   0  0  0  0  0  0  0  0  0  0  0  0
    6.6318    0.6087   17.5721 N   0  0  0  0  0  0  0  0  0  0  0  0
    7.1438   -0.0083   18.6426 C   0  0  0  0  0  0  0  0  0  0  0  0
    8.0841   -0.5354   18.4920 H   0  0  0  0  0  0  0  0  0  0  0  0
    6.5359    0.0051   19.9072 C   0  0  0  0  0  0  0  0  0  0  0  0
    7.2029   -0.6597   21.0257 C   0  0  0  0  0  0  0  0  0  0  0  0
    6.6116   -0.8026   22.2388 N   0  0  0  0  0  0  0  0  0  0  0  0
    7.5384   -1.3881   22.9561 C   0  0  0  0  0  0  0  0  0  0  0  0
    7.4678   -1.6775   24.0018 H   0  0  0  0  0  0  0  0  0  0  0  0
    8.6398   -1.6159   22.2148 N   0  0  0  0  0  0  0  0  0  0  0  0
    9.9249   -2.1809   22.6242 C   0  0  0  0  0  0  0  0  0  0  0  0
   10.3513   -2.6852   21.7561 H   0  0  0  0  0  0  0  0  0  0  0  0
    9.7109   -2.9477   23.3767 H   0  0  0  0  0  0  0  0  0  0  0  0
   10.8778   -1.1565   23.2228 C   0  0  0  0  0  0  0  0  0  0  0  0
   10.5931   -0.6343   24.4982 C   0  0  0  0  0  0  0  0  0  0  0  0
    9.6942   -0.9622   25.0189 H   0  0  0  0  0  0  0  0  0  0  0  0
   11.4436    0.2773   25.1216 C   0  0  0  0  0  0  0  0  0  0  0  0
   11.1972    0.6314   26.1159 H   0  0  0  0  0  0  0  0  0  0  0  0
   12.5879    0.7319   24.4600 C   0  0  0  0  0  0  0  0  0  0  0  0
   13.2451    1.4570   24.9299 H   0  0  0  0  0  0  0  0  0  0  0  0
   12.8770    0.2543   23.1810 C   0  0  0  0  0  0  0  0  0  0  0  0
   13.7466    0.6020   22.6397 H   0  0  0  0  0  0  0  0  0  0  0  0
   12.0589   -0.7204   22.5961 C   0  0  0  0  0  0  0  0  0  0  0  0
   12.5907   -1.4149   21.0854 Cl  0  0  0  0  0  0  0  0  0  0  0  0
    8.4382   -1.1437   20.9642 N   0  0  0  0  0  0  0  0  0  0  0  0
    5.3206    0.6949   20.0560 C   0  0  0  0  0  0  0  0  0  0  0  0
    4.8066    0.7176   21.0200 H   0  0  0  0  0  0  0  0  0  0  0  0
    4.7976    1.3541   18.9487 C   0  0  0  0  0  0  0  0  0  0  0  0
    3.8824    1.9289   19.0112 H   0  0  0  0  0  0  0  0  0  0  0  0
  1  2  1  0
  2  3  2  0
  3  4  1  0
  4  5  1  0
  4  6  2  0
  6  7  1  0
  7  8  1  0
  8  9  2  0
  9 10  1  0
  9 11  1  0
 11 12  1  0
 12 13  1  0
 12 14  1  0
 12 15  1  0
 15 16  2  0
 16 17  1  0
 16 18  1  0
 18 19  1  0
 18 20  2  0
 20 21  1  0
 20 22  1  0
 22 23  1  0
 22 24  2  0
 24 25  1  0
 11 26  1  0
  6 27  1  0
 27 28  1  0
 27 29  2  0
 29 30  1  0
 29  2  1  0
 26  7  2  0
 24 15  1  0
M  END
>  <cnnaffinity>  (1) 
-5.25048

>  <filename>  (1) 
Clc1ccccc1Cn1cnc(-c2cccnc2)n1

$$$$
