
     RDKit          3D

 31 33  0  0  0  0  0  0  0  0999 V2000
    7.1025    1.7463   22.0635 H   0  0  0  0  0  0  0  0  0  0  0  0
    7.3496    0.9508   22.7779 C   0  0  0  0  0  0  0  0  0  0  0  0
    7.5458   -0.3021   22.3286 C   0  0  0  0  0  0  0  0  0  0  0  0
    7.3753   -0.7682   20.9376 C   0  0  0  0  0  0  0  0  0  0  0  0
    6.6299   -0.0075   19.9072 C   0  0  0  0  0  0  0  0  0  0  0  0
    7.1514    0.0220   18.6076 C   0  0  0  0  0  0  0  0  0  0  0  0
    8.0898   -0.4804   18.3836 H   0  0  0  0  0  0  0  0  0  0  0  0
    6.5724    0.6634   17.5898 N   0  0  0  0  0  0  0  0  0  0  0  0
    5.4167    1.3007   17.8321 C   0  0  0  0  0  0  0  0  0  0  0  0
    4.9674    1.8172   16.9864 H   0  0  0  0  0  0  0  0  0  0  0  0
    4.7935    1.3179   19.0839 C   0  0  0  0  0  0  0  0  0  0  0  0
    3.8570    1.8522   19.2142 H   0  0  0  0  0  0  0  0  0  0  0  0
    5.4185    0.6656   20.1487 C   0  0  0  0  0  0  0  0  0  0  0  0
    4.9834    0.6910   21.1502 H   0  0  0  0  0  0  0  0  0  0  0  0
    7.9534   -1.8883   20.6880 N   0  0  0  0  0  0  0  0  0  0  0  0
    8.5549   -2.4222   21.9117 C   0  0  0  0  0  0  0  0  0  0  0  0
    9.6363   -2.5043   21.7604 H   0  0  0  0  0  0  0  0  0  0  0  0
    8.1796   -3.4382   22.0699 H   0  0  0  0  0  0  0  0  0  0  0  0
    8.1867   -1.4588   23.0735 C   0  0  0  0  0  0  0  0  0  0  0  0
    9.0390   -1.1262   23.6745 H   0  0  0  0  0  0  0  0  0  0  0  0
    7.4758   -1.9406   23.7547 H   0  0  0  0  0  0  0  0  0  0  0  0
    7.5158    1.3624   24.1806 C   0  0  0  0  0  0  0  0  0  0  0  0
    7.0581    0.5671   25.2449 C   0  0  0  0  0  0  0  0  0  0  0  0
    6.5512   -0.3654   25.0224 H   0  0  0  0  0  0  0  0  0  0  0  0
    7.1530    0.9010   26.5353 N   0  0  0  0  0  0  0  0  0  0  0  0
    7.7483    2.0496   26.8095 C   0  0  0  0  0  0  0  0  0  0  0  0
    7.7177    2.5514   28.4730 Cl  0  0  0  0  0  0  0  0  0  0  0  0
    8.3230    2.9080   25.8574 C   0  0  0  0  0  0  0  0  0  0  0  0
    8.8673    3.7885   26.1836 H   0  0  0  0  0  0  0  0  0  0  0  0
    8.1650    2.5642   24.5181 C   0  0  0  0  0  0  0  0  0  0  0  0
    8.5522    3.2033   23.7280 H   0  0  0  0  0  0  0  0  0  0  0  0
  1  2  1  0
  2  3  2  3
  3  4  1  0
  4  5  1  0
  5  6  2  0
  6  7  1  0
  6  8  1  0
  8  9  2  0
  9 10  1  0
  9 11  1  0
 11 12  1  0
 11 13  2  0
 13 14  1  0
  4 15  2  0
 15 16  1  0
 16 17  1  0
 16 18  1  0
 16 19  1  0
 19 20  1  0
 19 21  1  0
  2 22  1  0
 22 23  2  0
 23 24  1  0
 23 25  1  0
 25 26  2  0
 26 27  1  0
 26 28  1  0
 28 29  1  0
 28 30  2  0
 30 31  1  0
 19  3  1  0
 30 22  1  0
 13  5  1  0
M  END
>  <cnnaffinity>  (1) 
-5.1701

>  <filename>  (1) 
Clc1ccc(C=C2CCN=C2c2cccnc2)cn1

$$$$
