
     RDKit          3D

 31 34  0  0  0  0  0  0  0  0999 V2000
    4.9886    1.8593   16.8953 H   0  0  0  0  0  0  0  0  0  0  0  0
    5.4171    1.3047   17.7273 C   0  0  0  0  0  0  0  0  0  0  0  0
    6.5619    0.6504   17.4752 N   0  0  0  0  0  0  0  0  0  0  0  0
    7.1324   -0.0002   18.4951 C   0  0  0  0  0  0  0  0  0  0  0  0
    8.0680   -0.5134   18.2789 H   0  0  0  0  0  0  0  0  0  0  0  0
    6.6009   -0.0369   19.7994 C   0  0  0  0  0  0  0  0  0  0  0  0
    7.3572   -0.6561   20.9054 C   0  0  0  0  0  0  0  0  0  0  0  0
    8.4905   -1.3405   20.6809 N   0  0  0  0  0  0  0  0  0  0  0  0
    8.9350   -1.6073   21.9276 N   0  0  0  0  0  0  0  0  0  0  0  0
   10.0579   -2.2253   22.4649 C   0  0  0  0  0  0  0  0  0  0  0  0
   10.7964   -2.6773   21.8291 H   0  0  0  0  0  0  0  0  0  0  0  0
    9.9477   -2.0888   23.8129 C   0  0  0  0  0  0  0  0  0  0  0  0
   10.5825   -2.4524   24.6050 H   0  0  0  0  0  0  0  0  0  0  0  0
    8.7815   -1.3851   24.1137 N   0  0  0  0  0  0  0  0  0  0  0  0
    8.3136   -0.9815   25.3807 C   0  0  0  0  0  0  0  0  0  0  0  0
    6.9266   -0.9086   25.6111 C   0  0  0  0  0  0  0  0  0  0  0  0
    6.2379   -1.2029   24.8195 H   0  0  0  0  0  0  0  0  0  0  0  0
    6.3883   -0.4484   26.7435 N   0  0  0  0  0  0  0  0  0  0  0  0
    7.2095   -0.0661   27.7087 C   0  0  0  0  0  0  0  0  0  0  0  0
    6.4671    0.6744   29.0975 Cl  0  0  0  0  0  0  0  0  0  0  0  0
    8.6053   -0.1788   27.6330 C   0  0  0  0  0  0  0  0  0  0  0  0
    9.2170    0.0611   28.4930 H   0  0  0  0  0  0  0  0  0  0  0  0
    9.1730   -0.6082   26.4308 C   0  0  0  0  0  0  0  0  0  0  0  0
   10.2582   -0.6189   26.3150 H   0  0  0  0  0  0  0  0  0  0  0  0
    8.1538   -1.1120   22.9042 C   0  0  0  0  0  0  0  0  0  0  0  0
    7.0700   -0.5096   22.2837 C   0  0  0  0  0  0  0  0  0  0  0  0
    6.2048   -0.0402   22.7136 H   0  0  0  0  0  0  0  0  0  0  0  0
    5.3793    0.6192   20.0321 C   0  0  0  0  0  0  0  0  0  0  0  0
    4.9135    0.6189   21.0218 H   0  0  0  0  0  0  0  0  0  0  0  0
    4.7865    1.3032   18.9764 C   0  0  0  0  0  0  0  0  0  0  0  0
    3.8709    1.8643   19.1213 H   0  0  0  0  0  0  0  0  0  0  0  0
  1  2  1  0
  2  3  2  0
  3  4  1  0
  4  5  1  0
  4  6  2  0
  6  7  1  0
  7  8  2  0
  8  9  1  0
  9 10  1  0
 10 11  1  0
 10 12  2  0
 12 13  1  0
 12 14  1  0
 14 15  1  0
 15 16  2  0
 16 17  1  0
 16 18  1  0
 18 19  2  0
 19 20  1  0
 19 21  1  0
 21 22  1  0
 21 23  2  0
 23 24  1  0
 14 25  1  0
 25 26  2  0
 26 27  1  0
  6 28  1  0
 28 29  1  0
 28 30  2  0
 30 31  1  0
 30  2  1  0
 26  7  1  0
 25  9  1  0
 23 15  1  0
M  END
>  <cnnaffinity>  (1) 
-5.47673

>  <filename>  (1) 
Clc1ccc(-n2ccn3nc(-c4cccnc4)cc23)cn1

$$$$
