
     RDKit          3D

 30 32  0  0  0  0  0  0  0  0999 V2000
    8.0921   -2.8493   23.6162 H   0  0  0  0  0  0  0  0  0  0  0  0
    8.0377   -2.1508   22.7980 C   0  0  0  0  0  0  0  0  0  0  0  0
    9.0585   -1.4988   22.3513 N   0  0  0  0  0  0  0  0  0  0  0  0
    8.6719   -0.6486   21.3502 C   0  0  0  0  0  0  0  0  0  0  0  0
    9.6908    0.2131   20.6697 C   0  0  0  0  0  0  0  0  0  0  0  0
    9.1866    1.0483   20.1779 H   0  0  0  0  0  0  0  0  0  0  0  0
   10.1117   -0.4314   19.8922 H   0  0  0  0  0  0  0  0  0  0  0  0
   10.7513    0.7660   21.5987 C   0  0  0  0  0  0  0  0  0  0  0  0
   10.4833    1.9463   22.3110 C   0  0  0  0  0  0  0  0  0  0  0  0
    9.5447    2.4651   22.1220 H   0  0  0  0  0  0  0  0  0  0  0  0
   11.3737    2.4460   23.2629 C   0  0  0  0  0  0  0  0  0  0  0  0
   11.1417    3.3653   23.7943 H   0  0  0  0  0  0  0  0  0  0  0  0
   12.5621    1.7571   23.5186 C   0  0  0  0  0  0  0  0  0  0  0  0
   13.2728    2.1339   24.2440 H   0  0  0  0  0  0  0  0  0  0  0  0
   12.8533    0.5735   22.8404 C   0  0  0  0  0  0  0  0  0  0  0  0
   13.7661    0.0184   23.0327 H   0  0  0  0  0  0  0  0  0  0  0  0
   11.9471    0.0873   21.8932 C   0  0  0  0  0  0  0  0  0  0  0  0
   12.3273   -1.4264   21.1157 Cl  0  0  0  0  0  0  0  0  0  0  0  0
    7.3507   -0.7237   20.9754 C   0  0  0  0  0  0  0  0  0  0  0  0
    6.6544    0.0034   19.9091 C   0  0  0  0  0  0  0  0  0  0  0  0
    7.1616    0.0638   18.5918 C   0  0  0  0  0  0  0  0  0  0  0  0
    8.1098   -0.4250   18.3673 H   0  0  0  0  0  0  0  0  0  0  0  0
    6.5581    0.6771   17.5679 N   0  0  0  0  0  0  0  0  0  0  0  0
    5.3961    1.2970   17.8326 C   0  0  0  0  0  0  0  0  0  0  0  0
    4.9158    1.7871   16.9904 H   0  0  0  0  0  0  0  0  0  0  0  0
    4.8055    1.3124   19.1015 C   0  0  0  0  0  0  0  0  0  0  0  0
    3.8750    1.8437   19.2541 H   0  0  0  0  0  0  0  0  0  0  0  0
    5.4313    0.6519   20.1544 C   0  0  0  0  0  0  0  0  0  0  0  0
    5.0081    0.6354   21.1602 H   0  0  0  0  0  0  0  0  0  0  0  0
    6.5430   -1.8321   22.0169 S   0  0  0  0  0  0  0  0  0  0  0  0
  1  2  1  0
  2  3  2  0
  3  4  1  0
  4  5  1  0
  5  6  1  0
  5  7  1  0
  5  8  1  0
  8  9  2  0
  9 10  1  0
  9 11  1  0
 11 12  1  0
 11 13  2  0
 13 14  1  0
 13 15  1  0
 15 16  1  0
 15 17  2  0
 17 18  1  0
  4 19  2  0
 19 20  1  0
 20 21  2  0
 21 22  1  0
 21 23  1  0
 23 24  2  0
 24 25  1  0
 24 26  1  0
 26 27  1  0
 26 28  2  0
 28 29  1  0
 19 30  1  0
 30  2  1  0
 17  8  1  0
 28 20  1  0
M  END
>  <cnnaffinity>  (1) 
-5.68525

>  <filename>  (1) 
Clc1ccccc1Cc1ncsc1-c1cccnc1

$$$$
