
     RDKit          3D

 28 30  0  0  0  0  0  0  0  0999 V2000
    8.5231   -1.9313   19.9010 H   0  0  0  0  0  0  0  0  0  0  0  0
    8.2468   -1.6044   20.8866 C   0  0  0  0  0  0  0  0  0  0  0  0
    8.7217   -2.3074   21.9117 N   0  0  0  0  0  0  0  0  0  0  0  0
    8.4844   -1.8531   23.1460 N   0  0  0  0  0  0  0  0  0  0  0  0
    7.8116   -0.6938   23.3159 C   0  0  0  0  0  0  0  0  0  0  0  0
    7.7827   -0.1702   24.7088 C   0  0  0  0  0  0  0  0  0  0  0  0
    8.9226   -0.3697   25.5153 C   0  0  0  0  0  0  0  0  0  0  0  0
    9.7779   -0.9031   25.1064 H   0  0  0  0  0  0  0  0  0  0  0  0
    8.9709    0.1069   26.8161 C   0  0  0  0  0  0  0  0  0  0  0  0
    9.8667   -0.0450   27.4088 H   0  0  0  0  0  0  0  0  0  0  0  0
    7.8764    0.7790   27.3563 C   0  0  0  0  0  0  0  0  0  0  0  0
    7.8969    1.1725   28.3665 H   0  0  0  0  0  0  0  0  0  0  0  0
    6.7301    0.9669   26.5847 C   0  0  0  0  0  0  0  0  0  0  0  0
    5.3834    1.7591   27.3259 Cl  0  0  0  0  0  0  0  0  0  0  0  0
    6.6829    0.5215   25.2495 C   0  0  0  0  0  0  0  0  0  0  0  0
    5.2663    0.8560   24.3237 Cl  0  0  0  0  0  0  0  0  0  0  0  0
    7.2246   -0.0083   22.3227 N   0  0  0  0  0  0  0  0  0  0  0  0
    7.4030   -0.4841   21.0909 C   0  0  0  0  0  0  0  0  0  0  0  0
    6.6470    0.1524   19.9920 C   0  0  0  0  0  0  0  0  0  0  0  0
    7.1730    0.1274   18.6953 C   0  0  0  0  0  0  0  0  0  0  0  0
    8.1273   -0.3624   18.5018 H   0  0  0  0  0  0  0  0  0  0  0  0
    6.5843    0.6781   17.6350 N   0  0  0  0  0  0  0  0  0  0  0  0
    5.4079    1.2915   17.8404 C   0  0  0  0  0  0  0  0  0  0  0  0
    4.9653    1.7691   16.9712 H   0  0  0  0  0  0  0  0  0  0  0  0
    4.7681    1.3354   19.0852 C   0  0  0  0  0  0  0  0  0  0  0  0
    3.8088    1.8344   19.1755 H   0  0  0  0  0  0  0  0  0  0  0  0
    5.3949    0.7593   20.1888 C   0  0  0  0  0  0  0  0  0  0  0  0
    4.9414    0.7752   21.1860 H   0  0  0  0  0  0  0  0  0  0  0  0
  1  2  1  0
  2  3  2  0
  3  4  1  0
  4  5  2  0
  5  6  1  0
  6  7  2  0
  7  8  1  0
  7  9  1  0
  9 10  1  0
  9 11  2  0
 11 12  1  0
 11 13  1  0
 13 14  1  0
 13 15  2  0
 15 16  1  0
  5 17  1  0
 17 18  2  0
 18 19  1  0
 19 20  2  0
 20 21  1  0
 20 22  1  0
 22 23  2  0
 23 24  1  0
 23 25  1  0
 25 26  1  0
 25 27  2  0
 27 28  1  0
 18  2  1  0
 27 19  1  0
 15  6  1  0
M  END
>  <cnnaffinity>  (1) 
-5.21929

>  <filename>  (1) 
Clc1cccc(-c2nncc(-c3cccnc3)n2)c1Cl

$$$$
