
     RDKit          3D

 30 32  0  0  0  0  0  0  0  0999 V2000
    4.9066    1.8253   16.9586 H   0  0  0  0  0  0  0  0  0  0  0  0
    5.3758    1.3159   17.8018 C   0  0  0  0  0  0  0  0  0  0  0  0
    6.5339    0.6907   17.5410 N   0  0  0  0  0  0  0  0  0  0  0  0
    7.1415    0.0733   18.5629 C   0  0  0  0  0  0  0  0  0  0  0  0
    8.0899   -0.4146   18.3396 H   0  0  0  0  0  0  0  0  0  0  0  0
    6.6328    0.0171   19.8813 C   0  0  0  0  0  0  0  0  0  0  0  0
    7.3014   -0.7048   20.9836 C   0  0  0  0  0  0  0  0  0  0  0  0
    8.6813   -0.6738   21.3744 C   0  0  0  0  0  0  0  0  0  0  0  0
    9.7850    0.1544   20.7917 C   0  0  0  0  0  0  0  0  0  0  0  0
   10.5216   -0.5407   20.3772 H   0  0  0  0  0  0  0  0  0  0  0  0
    9.3761    0.7530   19.9756 H   0  0  0  0  0  0  0  0  0  0  0  0
   10.4372    1.0596   21.8126 C   0  0  0  0  0  0  0  0  0  0  0  0
   11.6285    0.6563   22.4278 C   0  0  0  0  0  0  0  0  0  0  0  0
   12.0668   -0.2832   22.0931 H   0  0  0  0  0  0  0  0  0  0  0  0
   12.2081    1.4010   23.4600 C   0  0  0  0  0  0  0  0  0  0  0  0
   13.1276    1.0541   23.9252 H   0  0  0  0  0  0  0  0  0  0  0  0
   11.5825    2.5762   23.8918 C   0  0  0  0  0  0  0  0  0  0  0  0
   12.0121    3.1747   24.6891 H   0  0  0  0  0  0  0  0  0  0  0  0
   10.3902    3.0013   23.2959 C   0  0  0  0  0  0  0  0  0  0  0  0
    9.8807    3.9057   23.6162 H   0  0  0  0  0  0  0  0  0  0  0  0
    9.8283    2.2401   22.2664 C   0  0  0  0  0  0  0  0  0  0  0  0
    8.3084    2.7609   21.5896 Cl  0  0  0  0  0  0  0  0  0  0  0  0
    8.9224   -1.5069   22.3562 N   0  0  0  0  0  0  0  0  0  0  0  0
    7.7144   -2.0844   22.6739 O   0  0  0  0  0  0  0  0  0  0  0  0
    6.7718   -1.5879   21.8689 C   0  0  0  0  0  0  0  0  0  0  0  0
    5.7759   -1.9745   22.0226 H   0  0  0  0  0  0  0  0  0  0  0  0
    5.4174    0.6648   20.1218 C   0  0  0  0  0  0  0  0  0  0  0  0
    5.0126    0.6489   21.1324 H   0  0  0  0  0  0  0  0  0  0  0  0
    4.7851    1.3311   19.0691 C   0  0  0  0  0  0  0  0  0  0  0  0
    3.8566    1.8645   19.2186 H   0  0  0  0  0  0  0  0  0  0  0  0
  1  2  1  0
  2  3  2  0
  3  4  1  0
  4  5  1  0
  4  6  2  0
  6  7  1  0
  7  8  1  0
  8  9  1  0
  9 10  1  0
  9 11  1  0
  9 12  1  0
 12 13  2  0
 13 14  1  0
 13 15  1  0
 15 16  1  0
 15 17  2  0
 17 18  1  0
 17 19  1  0
 19 20  1  0
 19 21  2  0
 21 22  1  0
  8 23  2  0
 23 24  1  0
 24 25  1  0
 25 26  1  0
  6 27  1  0
 27 28  1  0
 27 29  2  0
 29 30  1  0
 29  2  1  0
 25  7  2  0
 21 12  1  0
M  END
>  <cnnaffinity>  (1) 
-5.3104

>  <filename>  (1) 
Clc1ccccc1Cc1nocc1-c1cccnc1

$$$$
