
     RDKit          3D

 29 31  0  0  0  0  0  0  0  0999 V2000
    4.9178    1.7901   16.9830 H   0  0  0  0  0  0  0  0  0  0  0  0
    5.3965    1.2993   17.8233 C   0  0  0  0  0  0  0  0  0  0  0  0
    6.5593    0.6828   17.5554 N   0  0  0  0  0  0  0  0  0  0  0  0
    7.1593    0.0745   18.5827 C   0  0  0  0  0  0  0  0  0  0  0  0
    8.1006   -0.4196   18.3626 H   0  0  0  0  0  0  0  0  0  0  0  0
    6.6517    0.0118   19.8943 C   0  0  0  0  0  0  0  0  0  0  0  0
    7.3815   -0.7005   20.9530 C   0  0  0  0  0  0  0  0  0  0  0  0
    8.7817   -1.0010   21.0123 C   0  0  0  0  0  0  0  0  0  0  0  0
    9.5106   -0.7134   20.2643 H   0  0  0  0  0  0  0  0  0  0  0  0
    9.0269   -1.6428   22.1934 C   0  0  0  0  0  0  0  0  0  0  0  0
    9.9397   -2.0246   22.6312 H   0  0  0  0  0  0  0  0  0  0  0  0
    7.8279   -1.7717   22.8830 N   0  0  0  0  0  0  0  0  0  0  0  0
    7.6249   -2.3592   24.1652 C   0  0  0  0  0  0  0  0  0  0  0  0
    6.9079   -1.6589   25.1568 C   0  0  0  0  0  0  0  0  0  0  0  0
    6.5000   -0.6849   24.9040 H   0  0  0  0  0  0  0  0  0  0  0  0
    6.7377   -2.1902   26.4362 C   0  0  0  0  0  0  0  0  0  0  0  0
    6.1831   -1.6271   27.1831 H   0  0  0  0  0  0  0  0  0  0  0  0
    7.2712   -3.4446   26.7486 C   0  0  0  0  0  0  0  0  0  0  0  0
    7.1413   -3.8715   27.7388 H   0  0  0  0  0  0  0  0  0  0  0  0
    7.9651   -4.1680   25.7781 C   0  0  0  0  0  0  0  0  0  0  0  0
    8.3869   -5.1465   25.9952 H   0  0  0  0  0  0  0  0  0  0  0  0
    8.1268   -3.6363   24.4951 C   0  0  0  0  0  0  0  0  0  0  0  0
    8.9433   -4.6213   23.3203 Cl  0  0  0  0  0  0  0  0  0  0  0  0
    6.8504   -1.1947   22.1104 C   0  0  0  0  0  0  0  0  0  0  0  0
    5.8314   -1.1961   22.4419 H   0  0  0  0  0  0  0  0  0  0  0  0
    5.4269    0.6565   20.1468 C   0  0  0  0  0  0  0  0  0  0  0  0
    5.0011    0.6528   21.1544 H   0  0  0  0  0  0  0  0  0  0  0  0
    4.7991    1.3164   19.0911 C   0  0  0  0  0  0  0  0  0  0  0  0
    3.8676    1.8474   19.2494 H   0  0  0  0  0  0  0  0  0  0  0  0
  1  2  1  0
  2  3  2  0
  3  4  1  0
  4  5  1  0
  4  6  2  0
  6  7  1  0
  7  8  1  0
  8  9  1  0
  8 10  2  0
 10 11  1  0
 10 12  1  0
 12 13  1  0
 13 14  2  0
 14 15  1  0
 14 16  1  0
 16 17  1  0
 16 18  2  0
 18 19  1  0
 18 20  1  0
 20 21  1  0
 20 22  2  0
 22 23  1  0
 12 24  1  0
 24 25  1  0
  6 26  1  0
 26 27  1  0
 26 28  2  0
 28 29  1  0
 28  2  1  0
 24  7  2  0
 22 13  1  0
M  END
>  <cnnaffinity>  (1) 
-5.25736

>  <filename>  (1) 
Clc1ccccc1-n1ccc(-c2cccnc2)c1

$$$$
