
     RDKit          3D

 32 34  0  0  0  0  0  0  0  0999 V2000
    6.6790   -1.3391   21.6237 H   0  0  0  0  0  0  0  0  0  0  0  0
    7.3276   -0.7234   20.9952 C   0  0  0  0  0  0  0  0  0  0  0  0
    8.6093   -0.5364   21.3397 C   0  0  0  0  0  0  0  0  0  0  0  0
    9.3669   -1.1575   22.4401 C   0  0  0  0  0  0  0  0  0  0  0  0
    8.8500   -2.3303   23.2019 C   0  0  0  0  0  0  0  0  0  0  0  0
    9.0714   -2.3901   24.5850 C   0  0  0  0  0  0  0  0  0  0  0  0
    9.5938   -1.5742   25.0731 H   0  0  0  0  0  0  0  0  0  0  0  0
    8.6525   -3.4897   25.3252 C   0  0  0  0  0  0  0  0  0  0  0  0
    8.8388   -3.5397   26.3929 H   0  0  0  0  0  0  0  0  0  0  0  0
    8.0000   -4.5560   24.6967 C   0  0  0  0  0  0  0  0  0  0  0  0
    7.4993   -5.9004   25.6649 Cl  0  0  0  0  0  0  0  0  0  0  0  0
    7.7736   -4.5122   23.3117 C   0  0  0  0  0  0  0  0  0  0  0  0
    6.9774   -5.8087   22.4832 Cl  0  0  0  0  0  0  0  0  0  0  0  0
    8.1942   -3.4023   22.5717 C   0  0  0  0  0  0  0  0  0  0  0  0
    8.0152   -3.3988   21.5011 H   0  0  0  0  0  0  0  0  0  0  0  0
   10.4830   -0.5786   22.7005 N   0  0  0  0  0  0  0  0  0  0  0  0
   10.6984    0.5109   21.7467 C   0  0  0  0  0  0  0  0  0  0  0  0
   11.6673    0.3703   21.2645 H   0  0  0  0  0  0  0  0  0  0  0  0
   10.7432    1.4502   22.3047 H   0  0  0  0  0  0  0  0  0  0  0  0
    9.5136    0.5143   20.7518 C   0  0  0  0  0  0  0  0  0  0  0  0
    9.0293    1.4921   20.6577 H   0  0  0  0  0  0  0  0  0  0  0  0
    9.7559    0.1837   19.7415 H   0  0  0  0  0  0  0  0  0  0  0  0
    6.6412   -0.0143   19.8939 C   0  0  0  0  0  0  0  0  0  0  0  0
    7.1644    0.0671   18.5890 C   0  0  0  0  0  0  0  0  0  0  0  0
    8.1079   -0.4270   18.3746 H   0  0  0  0  0  0  0  0  0  0  0  0
    6.5629    0.6862   17.5678 N   0  0  0  0  0  0  0  0  0  0  0  0
    5.4009    1.2989   17.8334 C   0  0  0  0  0  0  0  0  0  0  0  0
    4.9141    1.7849   16.9923 H   0  0  0  0  0  0  0  0  0  0  0  0
    4.8003    1.3135   19.1013 C   0  0  0  0  0  0  0  0  0  0  0  0
    3.8680    1.8491   19.2561 H   0  0  0  0  0  0  0  0  0  0  0  0
    5.4219    0.6345   20.1465 C   0  0  0  0  0  0  0  0  0  0  0  0
    5.0061    0.6240   21.1602 H   0  0  0  0  0  0  0  0  0  0  0  0
  1  2  1  0
  2  3  2  3
  3  4  1  0
  4  5  1  0
  5  6  2  0
  6  7  1  0
  6  8  1  0
  8  9  1  0
  8 10  2  0
 10 11  1  0
 10 12  1  0
 12 13  1  0
 12 14  2  0
 14 15  1  0
  4 16  2  0
 16 17  1  0
 17 18  1  0
 17 19  1  0
 17 20  1  0
 20 21  1  0
 20 22  1  0
  2 23  1  0
 23 24  2  0
 24 25  1  0
 24 26  1  0
 26 27  2  0
 27 28  1  0
 27 29  1  0
 29 30  1  0
 29 31  2  0
 31 32  1  0
 20  3  1  0
 31 23  1  0
 14  5  1  0
M  END
>  <cnnaffinity>  (1) 
-5.61971

>  <filename>  (1) 
Clc1ccc(C2=NCCC2=Cc2cccnc2)cc1Cl

$$$$
