
     RDKit          3D

 30 32  0  0  0  0  0  0  0  0999 V2000
    5.0088    1.8388   16.9780 H   0  0  0  0  0  0  0  0  0  0  0  0
    5.4404    1.2965   17.8196 C   0  0  0  0  0  0  0  0  0  0  0  0
    6.5763    0.6301   17.5579 N   0  0  0  0  0  0  0  0  0  0  0  0
    7.1492   -0.0343   18.5671 C   0  0  0  0  0  0  0  0  0  0  0  0
    8.0704   -0.5588   18.3104 H   0  0  0  0  0  0  0  0  0  0  0  0
    6.6273   -0.0970   19.8775 C   0  0  0  0  0  0  0  0  0  0  0  0
    7.3378   -0.8072   20.9655 C   0  0  0  0  0  0  0  0  0  0  0  0
    6.9691   -1.7937   21.8739 C   0  0  0  0  0  0  0  0  0  0  0  0
    5.6933   -2.3981   21.9527 N   0  0  0  0  0  0  0  0  0  0  0  0
    4.9892   -1.6995   22.1360 H   0  0  0  0  0  0  0  0  0  0  0  0
    5.4243   -3.6028   22.6215 C   0  0  0  0  0  0  0  0  0  0  0  0
    4.4409   -3.6797   23.6259 C   0  0  0  0  0  0  0  0  0  0  0  0
    3.9057   -2.7947   23.9532 H   0  0  0  0  0  0  0  0  0  0  0  0
    4.1315   -4.9118   24.2081 C   0  0  0  0  0  0  0  0  0  0  0  0
    3.3883   -4.9871   25.0052 H   0  0  0  0  0  0  0  0  0  0  0  0
    4.7579   -6.0820   23.7589 C   0  0  0  0  0  0  0  0  0  0  0  0
    4.2205   -7.5903   24.4230 Cl  0  0  0  0  0  0  0  0  0  0  0  0
    5.7588   -5.9998   22.7730 C   0  0  0  0  0  0  0  0  0  0  0  0
    6.5858   -7.4001   22.1776 Cl  0  0  0  0  0  0  0  0  0  0  0  0
    6.1009   -4.7606   22.2251 C   0  0  0  0  0  0  0  0  0  0  0  0
    6.8687   -4.6801   21.4641 H   0  0  0  0  0  0  0  0  0  0  0  0
    8.1319   -1.9959   22.6742 C   0  0  0  0  0  0  0  0  0  0  0  0
    8.2707   -2.6536   23.5259 H   0  0  0  0  0  0  0  0  0  0  0  0
    9.1351   -1.2233   22.2785 N   0  0  0  0  0  0  0  0  0  0  0  0
    8.6365   -0.5280   21.2467 N   0  0  0  0  0  0  0  0  0  0  0  0
    9.1951    0.1862   20.7944 H   0  0  0  0  0  0  0  0  0  0  0  0
    5.4247    0.5806   20.1213 C   0  0  0  0  0  0  0  0  0  0  0  0
    4.9891    0.5600   21.1223 H   0  0  0  0  0  0  0  0  0  0  0  0
    4.8299    1.2980   19.0782 C   0  0  0  0  0  0  0  0  0  0  0  0
    3.9170    1.8630   19.2176 H   0  0  0  0  0  0  0  0  0  0  0  0
  1  2  1  0
  2  3  2  0
  3  4  1  0
  4  5  1  0
  4  6  2  0
  6  7  1  0
  7  8  2  0
  8  9  1  0
  9 10  1  0
  9 11  1  0
 11 12  2  0
 12 13  1  0
 12 14  1  0
 14 15  1  0
 14 16  2  0
 16 17  1  0
 16 18  1  0
 18 19  1  0
 18 20  2  0
 20 21  1  0
  8 22  1  0
 22 23  1  0
 22 24  2  0
 24 25  1  0
 25 26  1  0
  6 27  1  0
 27 28  1  0
 27 29  2  0
 29 30  1  0
 29  2  1  0
 25  7  1  0
 20 11  1  0
M  END
>  <cnnaffinity>  (1) 
-5.75029

>  <filename>  (1) 
Clc1ccc(Nc2cn[nH]c2-c2cccnc2)cc1Cl

$$$$
