
     RDKit          3D

 36 39  0  0  0  0  0  0  0  0999 V2000
    5.0102    1.8361   16.9482 H   0  0  0  0  0  0  0  0  0  0  0  0
    5.4322    1.2865   17.7899 C   0  0  0  0  0  0  0  0  0  0  0  0
    6.5812    0.6318   17.5623 N   0  0  0  0  0  0  0  0  0  0  0  0
    7.1309   -0.0182   18.5960 C   0  0  0  0  0  0  0  0  0  0  0  0
    8.0614   -0.5387   18.3742 H   0  0  0  0  0  0  0  0  0  0  0  0
    6.5833   -0.0698   19.8881 C   0  0  0  0  0  0  0  0  0  0  0  0
    7.3053   -0.7516   20.9685 C   0  0  0  0  0  0  0  0  0  0  0  0
    6.6609   -1.5869   21.8531 N   0  0  0  0  0  0  0  0  0  0  0  0
    7.6047   -1.9720   22.6660 C   0  0  0  0  0  0  0  0  0  0  0  0
    8.8258   -1.4438   22.3822 N   0  0  0  0  0  0  0  0  0  0  0  0
    8.6511   -0.6133   21.3015 C   0  0  0  0  0  0  0  0  0  0  0  0
    9.6724    0.4107   20.9099 C   0  0  0  0  0  0  0  0  0  0  0  0
   10.6820    0.0036   21.0593 H   0  0  0  0  0  0  0  0  0  0  0  0
    9.5542    0.5908   19.8376 H   0  0  0  0  0  0  0  0  0  0  0  0
    9.5019    1.7562   21.6146 C   0  0  0  0  0  0  0  0  0  0  0  0
    8.3877    2.5438   21.2804 C   0  0  0  0  0  0  0  0  0  0  0  0
    7.6846    2.1961   20.5256 H   0  0  0  0  0  0  0  0  0  0  0  0
    8.1789    3.7739   21.9046 C   0  0  0  0  0  0  0  0  0  0  0  0
    7.2869    4.3486   21.6603 H   0  0  0  0  0  0  0  0  0  0  0  0
    9.1109    4.2611   22.8272 C   0  0  0  0  0  0  0  0  0  0  0  0
    8.9864    5.2348   23.2868 H   0  0  0  0  0  0  0  0  0  0  0  0
   10.2236    3.4820   23.1508 C   0  0  0  0  0  0  0  0  0  0  0  0
   11.4146    4.1087   24.2611 Cl  0  0  0  0  0  0  0  0  0  0  0  0
   10.4061    2.2157   22.5829 C   0  0  0  0  0  0  0  0  0  0  0  0
   11.2335    1.5950   22.9227 H   0  0  0  0  0  0  0  0  0  0  0  0
    9.8574   -1.5281   23.4015 C   0  0  0  0  0  0  0  0  0  0  0  0
   10.8385   -1.7319   22.9557 H   0  0  0  0  0  0  0  0  0  0  0  0
    9.9330   -0.5702   23.9351 H   0  0  0  0  0  0  0  0  0  0  0  0
    9.4251   -2.6713   24.3486 C   0  0  0  0  0  0  0  0  0  0  0  0
    9.6246   -2.4099   25.3904 H   0  0  0  0  0  0  0  0  0  0  0  0
    9.9597   -3.5980   24.1211 H   0  0  0  0  0  0  0  0  0  0  0  0
    7.6137   -2.9369   24.1308 S   0  0  0  0  0  0  0  0  0  0  0  0
    5.3562    0.5832   20.0958 C   0  0  0  0  0  0  0  0  0  0  0  0
    4.8751    0.5561   21.0772 H   0  0  0  0  0  0  0  0  0  0  0  0
    4.7865    1.2812   19.0313 C   0  0  0  0  0  0  0  0  0  0  0  0
    3.8655    1.8395   19.1530 H   0  0  0  0  0  0  0  0  0  0  0  0
  1  2  1  0
  2  3  2  0
  3  4  1  0
  4  5  1  0
  4  6  2  0
  6  7  1  0
  7  8  1  0
  8  9  2  0
  9 10  1  0
 10 11  1  0
 11 12  1  0
 12 13  1  0
 12 14  1  0
 12 15  1  0
 15 16  2  0
 16 17  1  0
 16 18  1  0
 18 19  1  0
 18 20  2  0
 20 21  1  0
 20 22  1  0
 22 23  1  0
 22 24  2  0
 24 25  1  0
 10 26  1  0
 26 27  1  0
 26 28  1  0
 26 29  1  0
 29 30  1  0
 29 31  1  0
 29 32  1  0
  6 33  1  0
 33 34  1  0
 33 35  2  0
 35 36  1  0
 35  2  1  0
 11  7  2  0
 24 15  1  0
 32  9  1  0
M  END
>  <cnnaffinity>  (1) 
-5.76882

>  <filename>  (1) 
Clc1cccc(Cc2c(-c3cccnc3)nc3n2CCS3)c1

$$$$
