
     RDKit          3D

 32 35  0  0  0  0  0  0  0  0999 V2000
    4.9847    1.8647   16.8853 H   0  0  0  0  0  0  0  0  0  0  0  0
    5.4163    1.3062   17.7158 C   0  0  0  0  0  0  0  0  0  0  0  0
    6.5606    0.6478   17.4712 N   0  0  0  0  0  0  0  0  0  0  0  0
    7.1335   -0.0035   18.4891 C   0  0  0  0  0  0  0  0  0  0  0  0
    8.0650   -0.5167   18.2592 H   0  0  0  0  0  0  0  0  0  0  0  0
    6.6043   -0.0402   19.7925 C   0  0  0  0  0  0  0  0  0  0  0  0
    7.3630   -0.6485   20.9015 C   0  0  0  0  0  0  0  0  0  0  0  0
    8.4986   -1.3299   20.6824 N   0  0  0  0  0  0  0  0  0  0  0  0
    8.9339   -1.5945   21.9307 N   0  0  0  0  0  0  0  0  0  0  0  0
   10.0526   -2.2173   22.4697 C   0  0  0  0  0  0  0  0  0  0  0  0
   10.7907   -2.6781   21.8429 H   0  0  0  0  0  0  0  0  0  0  0  0
    9.9253   -2.0887   23.8161 C   0  0  0  0  0  0  0  0  0  0  0  0
   10.5486   -2.4533   24.6141 H   0  0  0  0  0  0  0  0  0  0  0  0
    8.7592   -1.3842   24.1132 N   0  0  0  0  0  0  0  0  0  0  0  0
    8.2714   -1.0156   25.3883 C   0  0  0  0  0  0  0  0  0  0  0  0
    9.1406   -0.6462   26.4296 C   0  0  0  0  0  0  0  0  0  0  0  0
   10.2198   -0.6470   26.2847 H   0  0  0  0  0  0  0  0  0  0  0  0
    8.6181   -0.2098   27.6498 C   0  0  0  0  0  0  0  0  0  0  0  0
    9.2788    0.0335   28.4823 H   0  0  0  0  0  0  0  0  0  0  0  0
    7.2320   -0.0732   27.8229 C   0  0  0  0  0  0  0  0  0  0  0  0
    6.6371    0.6860   29.2636 Cl  0  0  0  0  0  0  0  0  0  0  0  0
    6.3674   -0.4787   26.7927 C   0  0  0  0  0  0  0  0  0  0  0  0
    4.6534   -0.2964   26.9116 Cl  0  0  0  0  0  0  0  0  0  0  0  0
    6.8841   -0.9728   25.5969 C   0  0  0  0  0  0  0  0  0  0  0  0
    6.2091   -1.2647   24.7984 H   0  0  0  0  0  0  0  0  0  0  0  0
    8.1443   -1.1016   22.9031 C   0  0  0  0  0  0  0  0  0  0  0  0
    7.0679   -0.4976   22.2761 C   0  0  0  0  0  0  0  0  0  0  0  0
    6.1957   -0.0334   22.6958 H   0  0  0  0  0  0  0  0  0  0  0  0
    5.3852    0.6209   20.0174 C   0  0  0  0  0  0  0  0  0  0  0  0
    4.9191    0.6131   21.0046 H   0  0  0  0  0  0  0  0  0  0  0  0
    4.7867    1.3063   18.9651 C   0  0  0  0  0  0  0  0  0  0  0  0
    3.8689    1.8656   19.1132 H   0  0  0  0  0  0  0  0  0  0  0  0
  1  2  1  0
  2  3  2  0
  3  4  1  0
  4  5  1  0
  4  6  2  0
  6  7  1  0
  7  8  2  0
  8  9  1  0
  9 10  1  0
 10 11  1  0
 10 12  2  0
 12 13  1  0
 12 14  1  0
 14 15  1  0
 15 16  2  0
 16 17  1  0
 16 18  1  0
 18 19  1  0
 18 20  2  0
 20 21  1  0
 20 22  1  0
 22 23  1  0
 22 24  2  0
 24 25  1  0
 14 26  1  0
 26 27  2  0
 27 28  1  0
  6 29  1  0
 29 30  1  0
 29 31  2  0
 31 32  1  0
 31  2  1  0
 27  7  1  0
 26  9  1  0
 24 15  1  0
M  END
>  <cnnaffinity>  (1) 
-5.71664

>  <filename>  (1) 
Clc1ccc(-n2ccn3nc(-c4cccnc4)cc23)cc1Cl

$$$$
