
     RDKit          3D

 30 31  0  0  0  0  0  0  0  0999 V2000
    4.9882    1.8513   16.9202 H   0  0  0  0  0  0  0  0  0  0  0  0
    5.4206    1.3217   17.7687 C   0  0  0  0  0  0  0  0  0  0  0  0
    6.5789    0.6857   17.5470 N   0  0  0  0  0  0  0  0  0  0  0  0
    7.1364    0.0477   18.5871 C   0  0  0  0  0  0  0  0  0  0  0  0
    8.0805   -0.4552   18.3823 H   0  0  0  0  0  0  0  0  0  0  0  0
    6.5905    0.0082   19.8769 C   0  0  0  0  0  0  0  0  0  0  0  0
    7.3315   -0.6318   21.0275 C   0  0  2  0  0  0  0  0  0  0  0  0
    8.2511   -1.1170   20.6832 H   0  0  0  0  0  0  0  0  0  0  0  0
    6.3209   -1.9666   21.6941 Cl  0  0  0  0  0  0  0  0  0  0  0  0
    7.6558    0.4078   22.1045 C   0  0  0  0  0  0  0  0  0  0  0  0
    8.1442    1.2414   21.5857 H   0  0  0  0  0  0  0  0  0  0  0  0
    6.7161    0.8056   22.4994 H   0  0  0  0  0  0  0  0  0  0  0  0
    8.5479   -0.0610   23.2589 C   0  0  0  0  0  0  0  0  0  0  0  0
    8.1592   -0.9885   23.6898 H   0  0  0  0  0  0  0  0  0  0  0  0
    8.4876    0.6910   24.0548 H   0  0  0  0  0  0  0  0  0  0  0  0
    9.9985   -0.2329   22.8475 C   0  0  0  0  0  0  0  0  0  0  0  0
   10.8205    0.9057   22.7006 C   0  0  0  0  0  0  0  0  0  0  0  0
   10.3901    1.8946   22.8566 H   0  0  0  0  0  0  0  0  0  0  0  0
   12.1647    0.8065   22.3335 C   0  0  0  0  0  0  0  0  0  0  0  0
   12.7618    1.7091   22.2181 H   0  0  0  0  0  0  0  0  0  0  0  0
   12.7272   -0.4497   22.0817 C   0  0  0  0  0  0  0  0  0  0  0  0
   13.7732   -0.5249   21.7919 H   0  0  0  0  0  0  0  0  0  0  0  0
   11.9332   -1.5942   22.1795 C   0  0  0  0  0  0  0  0  0  0  0  0
   12.3236   -2.5865   21.9819 H   0  0  0  0  0  0  0  0  0  0  0  0
   10.5902   -1.4782   22.5510 C   0  0  0  0  0  0  0  0  0  0  0  0
    9.6635   -2.9544   22.6332 Cl  0  0  0  0  0  0  0  0  0  0  0  0
    5.3621    0.6535   20.0781 C   0  0  0  0  0  0  0  0  0  0  0  0
    4.8860    0.6382   21.0603 H   0  0  0  0  0  0  0  0  0  0  0  0
    4.7704    1.3248   19.0077 C   0  0  0  0  0  0  0  0  0  0  0  0
    3.8413    1.8687   19.1330 H   0  0  0  0  0  0  0  0  0  0  0  0
  1  2  1  0
  2  3  2  0
  3  4  1  0
  4  5  1  0
  4  6  2  0
  6  7  1  0
  7  8  1  6
  7  9  1  0
  7 10  1  0
 10 11  1  0
 10 12  1  0
 10 13  1  0
 13 14  1  0
 13 15  1  0
 13 16  1  0
 16 17  2  0
 17 18  1  0
 17 19  1  0
 19 20  1  0
 19 21  2  0
 21 22  1  0
 21 23  1  0
 23 24  1  0
 23 25  2  0
 25 26  1  0
  6 27  1  0
 27 28  1  0
 27 29  2  0
 29 30  1  0
 29  2  1  0
 25 16  1  0
M  END
>  <cnnaffinity>  (1) 
-5.11396

>  <filename>  (1) 
Clc1ccccc1CC[C@@H](Cl)c1cccnc1

$$$$
