
     RDKit          3D

 31 34  0  0  0  0  0  0  0  0999 V2000
    4.9588    1.8061   16.9767 H   0  0  0  0  0  0  0  0  0  0  0  0
    5.4036    1.2885   17.8246 C   0  0  0  0  0  0  0  0  0  0  0  0
    6.5598    0.6541   17.5797 N   0  0  0  0  0  0  0  0  0  0  0  0
    7.1514    0.0233   18.5975 C   0  0  0  0  0  0  0  0  0  0  0  0
    8.0989   -0.4559   18.3624 H   0  0  0  0  0  0  0  0  0  0  0  0
    6.6385   -0.0020   19.9042 C   0  0  0  0  0  0  0  0  0  0  0  0
    7.3899   -0.6725   20.9624 C   0  0  0  0  0  0  0  0  0  0  0  0
    8.0595   -1.8504   20.7398 N   0  0  0  0  0  0  0  0  0  0  0  0
    8.4637   -2.2075   21.9286 C   0  0  0  0  0  0  0  0  0  0  0  0
    9.3342   -3.5437   22.6159 S   0  0  0  0  0  0  0  0  0  0  0  0
    9.4271   -2.7335   24.1626 C   0  0  0  0  0  0  0  0  0  0  0  0
   10.0067   -3.2077   24.9435 H   0  0  0  0  0  0  0  0  0  0  0  0
    8.7394   -1.5756   24.1601 C   0  0  0  0  0  0  0  0  0  0  0  0
    8.5874   -0.8468   24.9490 H   0  0  0  0  0  0  0  0  0  0  0  0
    8.1621   -1.3166   22.9196 N   0  0  0  0  0  0  0  0  0  0  0  0
    7.4863   -0.2832   22.2976 C   0  0  0  0  0  0  0  0  0  0  0  0
    7.0924    0.9363   22.9793 C   0  0  0  0  0  0  0  0  0  0  0  0
    7.3047    2.1810   22.3632 C   0  0  0  0  0  0  0  0  0  0  0  0
    7.7526    2.2054   21.3753 H   0  0  0  0  0  0  0  0  0  0  0  0
    6.9075    3.3603   22.9888 C   0  0  0  0  0  0  0  0  0  0  0  0
    7.0583    4.3297   22.5222 H   0  0  0  0  0  0  0  0  0  0  0  0
    6.2836    3.3097   24.2425 C   0  0  0  0  0  0  0  0  0  0  0  0
    5.8116    4.8029   24.9831 Cl  0  0  0  0  0  0  0  0  0  0  0  0
    6.0547    2.0664   24.8606 C   0  0  0  0  0  0  0  0  0  0  0  0
    5.2944    1.9425   26.4137 Cl  0  0  0  0  0  0  0  0  0  0  0  0
    6.4540    0.8903   24.2281 C   0  0  0  0  0  0  0  0  0  0  0  0
    6.2433   -0.0675   24.6927 H   0  0  0  0  0  0  0  0  0  0  0  0
    5.4118    0.6496   20.1432 C   0  0  0  0  0  0  0  0  0  0  0  0
    4.9837    0.6722   21.1486 H   0  0  0  0  0  0  0  0  0  0  0  0
    4.7918    1.3042   19.0824 C   0  0  0  0  0  0  0  0  0  0  0  0
    3.8649    1.8461   19.2191 H   0  0  0  0  0  0  0  0  0  0  0  0
  1  2  1  0
  2  3  2  0
  3  4  1  0
  4  5  1  0
  4  6  2  0
  6  7  1  0
  7  8  1  0
  8  9  2  0
  9 10  1  0
 10 11  1  0
 11 12  1  0
 11 13  2  0
 13 14  1  0
 13 15  1  0
 15 16  1  0
 16 17  1  0
 17 18  2  0
 18 19  1  0
 18 20  1  0
 20 21  1  0
 20 22  2  0
 22 23  1  0
 22 24  1  0
 24 25  1  0
 24 26  2  0
 26 27  1  0
  6 28  1  0
 28 29  1  0
 28 30  2  0
 30 31  1  0
 30  2  1  0
 16  7  2  0
 26 17  1  0
 15  9  1  0
M  END
>  <cnnaffinity>  (1) 
-5.97842

>  <filename>  (1) 
Clc1ccc(-c2c(-c3cccnc3)nc3sccn23)cc1Cl

$$$$
