
     RDKit          3D

 28 30  0  0  0  0  0  0  0  0999 V2000
    4.9625    1.8211   16.9812 H   0  0  0  0  0  0  0  0  0  0  0  0
    5.4158    1.2742   17.8084 C   0  0  0  0  0  0  0  0  0  0  0  0
    6.5535    0.6135   17.5429 N   0  0  0  0  0  0  0  0  0  0  0  0
    7.1553   -0.0321   18.5504 C   0  0  0  0  0  0  0  0  0  0  0  0
    8.0780   -0.5525   18.3052 H   0  0  0  0  0  0  0  0  0  0  0  0
    6.6667   -0.0410   19.8709 C   0  0  0  0  0  0  0  0  0  0  0  0
    7.3486   -0.7538   20.9205 N   0  0  0  0  0  0  0  0  0  0  0  0
    8.2852   -0.3727   21.8815 C   0  0  0  0  0  0  0  0  0  0  0  0
    8.8043    0.9991   22.1261 C   0  0  0  0  0  0  0  0  0  0  0  0
    8.2486    2.1474   21.5373 C   0  0  0  0  0  0  0  0  0  0  0  0
    7.4724    2.0702   20.7868 H   0  0  0  0  0  0  0  0  0  0  0  0
    8.7145    3.4154   21.9022 C   0  0  0  0  0  0  0  0  0  0  0  0
    8.2411    4.2879   21.4641 H   0  0  0  0  0  0  0  0  0  0  0  0
    9.7823    3.5754   22.7850 C   0  0  0  0  0  0  0  0  0  0  0  0
   10.1752    4.5600   23.0259 H   0  0  0  0  0  0  0  0  0  0  0  0
   10.3799    2.4306   23.3144 C   0  0  0  0  0  0  0  0  0  0  0  0
   11.8019    2.5791   24.3026 Cl  0  0  0  0  0  0  0  0  0  0  0  0
    9.8841    1.1608   23.0194 C   0  0  0  0  0  0  0  0  0  0  0  0
   10.3286    0.3067   23.5163 H   0  0  0  0  0  0  0  0  0  0  0  0
    8.6387   -1.4075   22.6153 N   0  0  0  0  0  0  0  0  0  0  0  0
    7.9097   -2.4702   22.1757 C   0  0  0  0  0  0  0  0  0  0  0  0
    7.9717   -3.4376   22.6601 H   0  0  0  0  0  0  0  0  0  0  0  0
    7.1110   -2.0953   21.1368 C   0  0  0  0  0  0  0  0  0  0  0  0
    6.3841   -2.6368   20.5596 H   0  0  0  0  0  0  0  0  0  0  0  0
    5.4493    0.5983   20.1249 C   0  0  0  0  0  0  0  0  0  0  0  0
    5.0336    0.5897   21.1341 H   0  0  0  0  0  0  0  0  0  0  0  0
    4.8247    1.2802   19.0757 C   0  0  0  0  0  0  0  0  0  0  0  0
    3.9066    1.8290   19.2365 H   0  0  0  0  0  0  0  0  0  0  0  0
  1  2  1  0
  2  3  2  0
  3  4  1  0
  4  5  1  0
  4  6  2  0
  6  7  1  0
  7  8  1  0
  8  9  1  0
  9 10  2  0
 10 11  1  0
 10 12  1  0
 12 13  1  0
 12 14  2  0
 14 15  1  0
 14 16  1  0
 16 17  1  0
 16 18  2  0
 18 19  1  0
  8 20  2  0
 20 21  1  0
 21 22  1  0
 21 23  2  0
 23 24  1  0
  6 25  1  0
 25 26  1  0
 25 27  2  0
 27 28  1  0
 27  2  1  0
 23  7  1  0
 18  9  1  0
M  END
>  <cnnaffinity>  (1) 
-5.10808

>  <filename>  (1) 
Clc1cccc(-c2nccn2-c2cccnc2)c1

$$$$
