
     RDKit          3D

 34 37  0  0  0  0  0  0  0  0999 V2000
    4.9418    1.8018   16.9865 H   0  0  0  0  0  0  0  0  0  0  0  0
    5.4009    1.2933   17.8341 C   0  0  0  0  0  0  0  0  0  0  0  0
    6.5536    0.6553   17.5780 N   0  0  0  0  0  0  0  0  0  0  0  0
    7.1513    0.0272   18.5939 C   0  0  0  0  0  0  0  0  0  0  0  0
    8.0942   -0.4641   18.3638 H   0  0  0  0  0  0  0  0  0  0  0  0
    6.6503    0.0049   19.9021 C   0  0  0  0  0  0  0  0  0  0  0  0
    7.4225   -0.6717   20.9409 C   0  0  0  0  0  0  0  0  0  0  0  0
    7.8534   -1.9694   20.8010 N   0  0  0  0  0  0  0  0  0  0  0  0
    8.4286   -2.2257   21.9473 C   0  0  0  0  0  0  0  0  0  0  0  0
    9.2099   -3.5941   22.6920 S   0  0  0  0  0  0  0  0  0  0  0  0
    9.6696   -2.6025   24.0638 C   0  0  0  0  0  0  0  0  0  0  0  0
   10.2994   -3.0289   24.8358 H   0  0  0  0  0  0  0  0  0  0  0  0
    9.1742   -1.3549   23.9759 C   0  0  0  0  0  0  0  0  0  0  0  0
    9.2415   -0.5350   24.6813 H   0  0  0  0  0  0  0  0  0  0  0  0
    8.4651   -1.1523   22.7969 N   0  0  0  0  0  0  0  0  0  0  0  0
    7.8191   -0.1171   22.1501 C   0  0  0  0  0  0  0  0  0  0  0  0
    7.6562    1.2589   22.7102 C   0  0  0  0  0  0  0  0  0  0  0  0
    7.7030    1.9717   21.8812 H   0  0  0  0  0  0  0  0  0  0  0  0
    8.5072    1.4922   23.3677 H   0  0  0  0  0  0  0  0  0  0  0  0
    6.3498    1.4859   23.4645 C   0  0  0  0  0  0  0  0  0  0  0  0
    5.4872    2.5348   23.1142 C   0  0  0  0  0  0  0  0  0  0  0  0
    5.7405    3.1693   22.2649 H   0  0  0  0  0  0  0  0  0  0  0  0
    4.2948    2.7455   23.8119 C   0  0  0  0  0  0  0  0  0  0  0  0
    3.6229    3.5570   23.5490 H   0  0  0  0  0  0  0  0  0  0  0  0
    3.9465    1.9024   24.8749 C   0  0  0  0  0  0  0  0  0  0  0  0
    2.4591    2.1967   25.7119 Cl  0  0  0  0  0  0  0  0  0  0  0  0
    4.8042    0.8509   25.2339 C   0  0  0  0  0  0  0  0  0  0  0  0
    4.4359   -0.2286   26.5361 Cl  0  0  0  0  0  0  0  0  0  0  0  0
    5.9954    0.6499   24.5284 C   0  0  0  0  0  0  0  0  0  0  0  0
    6.6360   -0.1833   24.8076 H   0  0  0  0  0  0  0  0  0  0  0  0
    5.4370    0.6673   20.1532 C   0  0  0  0  0  0  0  0  0  0  0  0
    4.9939    0.6626   21.1496 H   0  0  0  0  0  0  0  0  0  0  0  0
    4.7999    1.3188   19.0984 C   0  0  0  0  0  0  0  0  0  0  0  0
    3.8632    1.8528   19.2340 H   0  0  0  0  0  0  0  0  0  0  0  0
  1  2  1  0
  2  3  2  0
  3  4  1  0
  4  5  1  0
  4  6  2  0
  6  7  1  0
  7  8  1  0
  8  9  2  0
  9 10  1  0
 10 11  1  0
 11 12  1  0
 11 13  2  0
 13 14  1  0
 13 15  1  0
 15 16  1  0
 16 17  1  0
 17 18  1  0
 17 19  1  0
 17 20  1  0
 20 21  2  0
 21 22  1  0
 21 23  1  0
 23 24  1  0
 23 25  2  0
 25 26  1  0
 25 27  1  0
 27 28  1  0
 27 29  2  0
 29 30  1  0
  6 31  1  0
 31 32  1  0
 31 33  2  0
 33 34  1  0
 33  2  1  0
 16  7  2  0
 29 20  1  0
 15  9  1  0
M  END
>  <cnnaffinity>  (1) 
-5.76908

>  <filename>  (1) 
Clc1ccc(Cc2c(-c3cccnc3)nc3sccn23)cc1Cl

$$$$
