
     RDKit          3D

 32 34  0  0  0  0  0  0  0  0999 V2000
    6.3356   -3.4682   22.9555 H   0  0  0  0  0  0  0  0  0  0  0  0
    6.8997   -2.6427   22.5328 C   0  0  0  0  0  0  0  0  0  0  0  0
    6.3102   -1.9283   21.5509 N   0  0  0  0  0  0  0  0  0  0  0  0
    7.0301   -0.9164   21.0371 C   0  0  0  0  0  0  0  0  0  0  0  0
    6.3822   -0.1588   19.9325 C   0  0  0  0  0  0  0  0  0  0  0  0
    6.9812   -0.1653   18.6646 C   0  0  0  0  0  0  0  0  0  0  0  0
    7.8809   -0.7589   18.4923 H   0  0  0  0  0  0  0  0  0  0  0  0
    6.5424    0.5431   17.6188 N   0  0  0  0  0  0  0  0  0  0  0  0
    5.4430    1.2894   17.8071 C   0  0  0  0  0  0  0  0  0  0  0  0
    5.1065    1.8677   16.9494 H   0  0  0  0  0  0  0  0  0  0  0  0
    4.7374    1.3298   19.0145 C   0  0  0  0  0  0  0  0  0  0  0  0
    3.8476    1.9510   19.0873 H   0  0  0  0  0  0  0  0  0  0  0  0
    5.1969    0.5762   20.0962 C   0  0  0  0  0  0  0  0  0  0  0  0
    4.6570    0.5688   21.0460 H   0  0  0  0  0  0  0  0  0  0  0  0
    8.3649   -0.6170   21.5185 C   0  0  0  0  0  0  0  0  0  0  0  0
    9.2201    0.4910   20.9000 C   0  0  0  0  0  0  0  0  0  0  0  0
    9.7363    0.0473   20.0382 H   0  0  0  0  0  0  0  0  0  0  0  0
    8.5606    1.2629   20.4911 H   0  0  0  0  0  0  0  0  0  0  0  0
   10.2440    1.1590   21.8060 C   0  0  0  0  0  0  0  0  0  0  0  0
    9.9458    2.3757   22.4470 C   0  0  0  0  0  0  0  0  0  0  0  0
    8.9444    2.7859   22.3592 H   0  0  0  0  0  0  0  0  0  0  0  0
   10.8936    3.0712   23.2034 C   0  0  0  0  0  0  0  0  0  0  0  0
   10.6407    4.0156   23.6862 H   0  0  0  0  0  0  0  0  0  0  0  0
   12.1850    2.5539   23.3079 C   0  0  0  0  0  0  0  0  0  0  0  0
   12.9569    3.1081   23.8245 H   0  0  0  0  0  0  0  0  0  0  0  0
   12.5006    1.3155   22.7430 C   0  0  0  0  0  0  0  0  0  0  0  0
   13.4822    0.8716   22.8670 H   0  0  0  0  0  0  0  0  0  0  0  0
   11.5327    0.6240   22.0089 C   0  0  0  0  0  0  0  0  0  0  0  0
   11.9860   -0.9283   21.3468 Cl  0  0  0  0  0  0  0  0  0  0  0  0
    8.9262   -1.3554   22.4888 N   0  0  0  0  0  0  0  0  0  0  0  0
    8.1902   -2.3595   22.9978 C   0  0  0  0  0  0  0  0  0  0  0  0
    8.6464   -2.9564   23.7844 H   0  0  0  0  0  0  0  0  0  0  0  0
  1  2  1  0
  2  3  2  0
  3  4  1  0
  4  5  1  0
  5  6  2  0
  6  7  1  0
  6  8  1  0
  8  9  2  0
  9 10  1  0
  9 11  1  0
 11 12  1  0
 11 13  2  0
 13 14  1  0
  4 15  2  0
 15 16  1  0
 16 17  1  0
 16 18  1  0
 16 19  1  0
 19 20  2  0
 20 21  1  0
 20 22  1  0
 22 23  1  0
 22 24  2  0
 24 25  1  0
 24 26  1  0
 26 27  1  0
 26 28  2  0
 28 29  1  0
 15 30  1  0
 30 31  2  0
 31 32  1  0
 31  2  1  0
 13  5  1  0
 28 19  1  0
M  END
>  <cnnaffinity>  (1) 
-6.05153

>  <filename>  (1) 
Clc1ccccc1Cc1nccnc1-c1cccnc1

$$$$
