
     RDKit          3D

 29 31  0  0  0  0  0  0  0  0999 V2000
    4.9230    1.7868   16.9923 H   0  0  0  0  0  0  0  0  0  0  0  0
    5.4018    1.2956   17.8360 C   0  0  0  0  0  0  0  0  0  0  0  0
    6.5595    0.6709   17.5736 N   0  0  0  0  0  0  0  0  0  0  0  0
    7.1645    0.0510   18.5913 C   0  0  0  0  0  0  0  0  0  0  0  0
    8.1107   -0.4298   18.3617 H   0  0  0  0  0  0  0  0  0  0  0  0
    6.6468    0.0040   19.9001 C   0  0  0  0  0  0  0  0  0  0  0  0
    7.3305   -0.6847   20.9441 N   0  0  0  0  0  0  0  0  0  0  0  0
    6.6870   -1.5180   21.7867 N   0  0  0  0  0  0  0  0  0  0  0  0
    7.5677   -1.9955   22.5846 N   0  0  0  0  0  0  0  0  0  0  0  0
    8.7943   -1.5015   22.3142 N   0  0  0  0  0  0  0  0  0  0  0  0
    8.6406   -0.6688   21.3164 C   0  0  0  0  0  0  0  0  0  0  0  0
    9.7077    0.1241   20.6422 C   0  0  0  0  0  0  0  0  0  0  0  0
    9.2590    0.9993   20.1625 H   0  0  0  0  0  0  0  0  0  0  0  0
   10.1057   -0.5264   19.8587 H   0  0  0  0  0  0  0  0  0  0  0  0
   10.7852    0.5736   21.6038 C   0  0  0  0  0  0  0  0  0  0  0  0
   10.6093    1.7700   22.3098 C   0  0  0  0  0  0  0  0  0  0  0  0
    9.7265    2.3675   22.0948 H   0  0  0  0  0  0  0  0  0  0  0  0
   11.5252    2.1876   23.2780 C   0  0  0  0  0  0  0  0  0  0  0  0
   11.3721    3.1292   23.7963 H   0  0  0  0  0  0  0  0  0  0  0  0
   12.6385    1.3912   23.5640 C   0  0  0  0  0  0  0  0  0  0  0  0
   13.3654    1.7058   24.3033 H   0  0  0  0  0  0  0  0  0  0  0  0
   12.8280    0.1813   22.8989 C   0  0  0  0  0  0  0  0  0  0  0  0
   13.6764   -0.4660   23.1026 H   0  0  0  0  0  0  0  0  0  0  0  0
   11.8988   -0.2149   21.9334 C   0  0  0  0  0  0  0  0  0  0  0  0
   12.1529   -1.7489   21.1685 Cl  0  0  0  0  0  0  0  0  0  0  0  0
    5.4348    0.6447   20.1694 C   0  0  0  0  0  0  0  0  0  0  0  0
    5.0214    0.6065   21.1816 H   0  0  0  0  0  0  0  0  0  0  0  0
    4.8132    1.3098   19.1092 C   0  0  0  0  0  0  0  0  0  0  0  0
    3.8811    1.8398   19.2586 H   0  0  0  0  0  0  0  0  0  0  0  0
  1  2  1  0
  2  3  2  0
  3  4  1  0
  4  5  1  0
  4  6  2  0
  6  7  1  0
  7  8  1  0
  8  9  2  0
  9 10  1  0
 10 11  2  0
 11 12  1  0
 12 13  1  0
 12 14  1  0
 12 15  1  0
 15 16  2  0
 16 17  1  0
 16 18  1  0
 18 19  1  0
 18 20  2  0
 20 21  1  0
 20 22  1  0
 22 23  1  0
 22 24  2  0
 24 25  1  0
  6 26  1  0
 26 27  1  0
 26 28  2  0
 28 29  1  0
 28  2  1  0
 11  7  1  0
 24 15  1  0
M  END
>  <cnnaffinity>  (1) 
-5.46599

>  <filename>  (1) 
Clc1ccccc1Cc1nnnn1-c1cccnc1

$$$$
