
     RDKit          3D

 28 30  0  0  0  0  0  0  0  0999 V2000
    4.9146    1.7840   16.9904 H   0  0  0  0  0  0  0  0  0  0  0  0
    5.3982    1.2972   17.8294 C   0  0  0  0  0  0  0  0  0  0  0  0
    6.5609    0.6813   17.5595 N   0  0  0  0  0  0  0  0  0  0  0  0
    7.1693    0.0761   18.5850 C   0  0  0  0  0  0  0  0  0  0  0  0
    8.1084   -0.4249   18.3595 H   0  0  0  0  0  0  0  0  0  0  0  0
    6.6604    0.0214   19.8924 C   0  0  0  0  0  0  0  0  0  0  0  0
    7.3890   -0.6931   20.9568 C   0  0  0  0  0  0  0  0  0  0  0  0
    8.7461   -0.7663   21.0650 C   0  0  0  0  0  0  0  0  0  0  0  0
    9.4656   -0.3065   20.4107 H   0  0  0  0  0  0  0  0  0  0  0  0
    9.2515   -1.6420   22.4498 S   0  0  0  0  0  0  0  0  0  0  0  0
    7.6084   -1.9630   22.9132 C   0  0  0  0  0  0  0  0  0  0  0  0
    7.2159   -2.6961   24.1346 C   0  0  0  0  0  0  0  0  0  0  0  0
    6.1974   -2.1512   24.9428 C   0  0  0  0  0  0  0  0  0  0  0  0
    5.7249   -1.2244   24.6322 H   0  0  0  0  0  0  0  0  0  0  0  0
    5.8003   -2.7666   26.1266 C   0  0  0  0  0  0  0  0  0  0  0  0
    5.0157   -2.3275   26.7360 H   0  0  0  0  0  0  0  0  0  0  0  0
    6.4080   -3.9539   26.5311 C   0  0  0  0  0  0  0  0  0  0  0  0
    6.1177   -4.4505   27.4493 H   0  0  0  0  0  0  0  0  0  0  0  0
    7.4066   -4.5285   25.7404 C   0  0  0  0  0  0  0  0  0  0  0  0
    8.1220   -6.0105   26.2821 Cl  0  0  0  0  0  0  0  0  0  0  0  0
    7.8034   -3.9182   24.5371 C   0  0  0  0  0  0  0  0  0  0  0  0
    8.9814   -4.6979   23.5523 Cl  0  0  0  0  0  0  0  0  0  0  0  0
    6.7515   -1.3884   22.0189 C   0  0  0  0  0  0  0  0  0  0  0  0
    5.6736   -1.4846   22.0474 H   0  0  0  0  0  0  0  0  0  0  0  0
    5.4335    0.6551   20.1471 C   0  0  0  0  0  0  0  0  0  0  0  0
    5.0188    0.6371   21.1610 H   0  0  0  0  0  0  0  0  0  0  0  0
    4.8013    1.3158   19.0983 C   0  0  0  0  0  0  0  0  0  0  0  0
    3.8681    1.8467   19.2560 H   0  0  0  0  0  0  0  0  0  0  0  0
  1  2  1  0
  2  3  2  0
  3  4  1  0
  4  5  1  0
  4  6  2  0
  6  7  1  0
  7  8  2  0
  8  9  1  0
  8 10  1  0
 10 11  1  0
 11 12  1  0
 12 13  2  0
 13 14  1  0
 13 15  1  0
 15 16  1  0
 15 17  2  0
 17 18  1  0
 17 19  1  0
 19 20  1  0
 19 21  2  0
 21 22  1  0
 11 23  2  0
 23 24  1  0
  6 25  1  0
 25 26  1  0
 25 27  2  0
 27 28  1  0
 27  2  1  0
 23  7  1  0
 21 12  1  0
M  END
>  <cnnaffinity>  (1) 
-5.51997

>  <filename>  (1) 
Clc1cccc(-c2cc(-c3cccnc3)cs2)c1Cl

$$$$
