
     RDKit          3D

 39 41  0  0  0  0  0  0  0  0999 V2000
    4.9079    1.7862   16.9895 H   0  0  0  0  0  0  0  0  0  0  0  0
    5.3952    1.2992   17.8298 C   0  0  0  0  0  0  0  0  0  0  0  0
    6.5602    0.6852   17.5607 N   0  0  0  0  0  0  0  0  0  0  0  0
    7.1738    0.0793   18.5830 C   0  0  0  0  0  0  0  0  0  0  0  0
    8.1159   -0.4245   18.3707 H   0  0  0  0  0  0  0  0  0  0  0  0
    6.6694    0.0063   19.9063 C   0  0  0  0  0  0  0  0  0  0  0  0
    7.3700   -0.7184   20.8905 N   0  0  0  0  0  0  0  0  0  0  0  0
    6.6473   -1.5584   21.8355 C   0  0  0  0  0  0  0  0  0  0  0  0
    5.7149   -1.8829   21.3603 H   0  0  0  0  0  0  0  0  0  0  0  0
    6.3502   -1.0213   22.7579 H   0  0  0  0  0  0  0  0  0  0  0  0
    7.4957   -2.7872   22.1768 C   0  0  0  0  0  0  0  0  0  0  0  0
    6.9711   -3.3981   22.9182 H   0  0  0  0  0  0  0  0  0  0  0  0
    7.5839   -3.3984   21.2716 H   0  0  0  0  0  0  0  0  0  0  0  0
    8.9036   -2.4041   22.6693 C   0  0  0  0  0  0  0  0  0  0  0  0
    9.4998   -3.3236   22.7280 H   0  0  0  0  0  0  0  0  0  0  0  0
    8.8993   -1.7753   24.0825 C   0  0  0  0  0  0  0  0  0  0  0  0
    8.2777   -0.8711   24.0974 H   0  0  0  0  0  0  0  0  0  0  0  0
    9.9175   -1.4392   24.3177 H   0  0  0  0  0  0  0  0  0  0  0  0
    8.4346   -2.7339   25.1522 C   0  0  0  0  0  0  0  0  0  0  0  0
    9.2881   -3.7551   25.6014 C   0  0  0  0  0  0  0  0  0  0  0  0
   10.2921   -3.8274   25.1885 H   0  0  0  0  0  0  0  0  0  0  0  0
    8.8691   -4.6790   26.5588 C   0  0  0  0  0  0  0  0  0  0  0  0
    9.5346   -5.4644   26.9078 H   0  0  0  0  0  0  0  0  0  0  0  0
    7.5710   -4.5842   27.0670 C   0  0  0  0  0  0  0  0  0  0  0  0
    7.0396   -5.7264   28.2649 Cl  0  0  0  0  0  0  0  0  0  0  0  0
    6.6926   -3.5891   26.6306 C   0  0  0  0  0  0  0  0  0  0  0  0
    5.6866   -3.5330   27.0353 H   0  0  0  0  0  0  0  0  0  0  0  0
    7.1329   -2.6735   25.6725 C   0  0  0  0  0  0  0  0  0  0  0  0
    6.4502   -1.9032   25.3184 H   0  0  0  0  0  0  0  0  0  0  0  0
    9.5703   -1.4799   21.6372 C   0  0  0  0  0  0  0  0  0  0  0  0
    9.7508   -2.0407   20.7120 H   0  0  0  0  0  0  0  0  0  0  0  0
   10.5483   -1.1426   21.9988 H   0  0  0  0  0  0  0  0  0  0  0  0
    8.6964   -0.2704   21.3065 C   0  0  0  0  0  0  0  0  0  0  0  0
    9.1475    0.2946   20.4851 H   0  0  0  0  0  0  0  0  0  0  0  0
    8.6597    0.4320   22.1613 H   0  0  0  0  0  0  0  0  0  0  0  0
    5.4405    0.6453   20.1577 C   0  0  0  0  0  0  0  0  0  0  0  0
    5.0204    0.6190   21.1672 H   0  0  0  0  0  0  0  0  0  0  0  0
    4.8082    1.3121   19.1027 C   0  0  0  0  0  0  0  0  0  0  0  0
    3.8730    1.8422   19.2596 H   0  0  0  0  0  0  0  0  0  0  0  0
  1  2  1  0
  2  3  2  0
  3  4  1  0
  4  5  1  0
  4  6  2  0
  6  7  1  0
  7  8  1  0
  8  9  1  0
  8 10  1  0
  8 11  1  0
 11 12  1  0
 11 13  1  0
 11 14  1  0
 14 15  1  0
 14 16  1  0
 16 17  1  0
 16 18  1  0
 16 19  1  0
 19 20  2  0
 20 21  1  0
 20 22  1  0
 22 23  1  0
 22 24  2  0
 24 25  1  0
 24 26  1  0
 26 27  1  0
 26 28  2  0
 28 29  1  0
 14 30  1  0
 30 31  1  0
 30 32  1  0
 30 33  1  0
 33 34  1  0
 33 35  1  0
  6 36  1  0
 36 37  1  0
 36 38  2  0
 38 39  1  0
 38  2  1  0
 33  7  1  0
 28 19  1  0
M  END
>  <cnnaffinity>  (1) 
-5.39258

>  <filename>  (1) 
Clc1ccc(CC2CCN(c3cccnc3)CC2)cc1

$$$$
