
     RDKit          3D

 38 41  0  0  0  0  0  0  0  0999 V2000
    4.9910    1.8409   16.9717 H   0  0  0  0  0  0  0  0  0  0  0  0
    5.4062    1.3047   17.8221 C   0  0  0  0  0  0  0  0  0  0  0  0
    6.5516    0.6379   17.6060 N   0  0  0  0  0  0  0  0  0  0  0  0
    7.0929   -0.0023   18.6480 C   0  0  0  0  0  0  0  0  0  0  0  0
    8.0412   -0.5054   18.4447 H   0  0  0  0  0  0  0  0  0  0  0  0
    6.5377   -0.0422   19.9395 C   0  0  0  0  0  0  0  0  0  0  0  0
    7.2654   -0.7748   20.9980 C   0  0  0  0  0  0  0  0  0  0  0  0
    6.6560   -1.6342   21.8179 N   0  0  0  0  0  0  0  0  0  0  0  0
    7.6487   -2.1247   22.5599 N   0  0  0  0  0  0  0  0  0  0  0  0
    8.8654   -1.6512   22.2664 C   0  0  0  0  0  0  0  0  0  0  0  0
    8.6697   -0.7297   21.2628 C   0  0  0  0  0  0  0  0  0  0  0  0
    9.7493    0.0774   20.6115 C   0  0  0  0  0  0  0  0  0  0  0  0
    9.3024    0.9218   20.0823 H   0  0  0  0  0  0  0  0  0  0  0  0
   10.2044   -0.5668   19.8516 H   0  0  0  0  0  0  0  0  0  0  0  0
   10.8042    0.5691   21.5766 C   0  0  0  0  0  0  0  0  0  0  0  0
   10.5565    1.6801   22.4000 C   0  0  0  0  0  0  0  0  0  0  0  0
    9.6078    2.2130   22.3237 H   0  0  0  0  0  0  0  0  0  0  0  0
   11.5237    2.1127   23.3138 C   0  0  0  0  0  0  0  0  0  0  0  0
   11.3315    2.9885   23.9274 H   0  0  0  0  0  0  0  0  0  0  0  0
   12.7517    1.4479   23.4178 C   0  0  0  0  0  0  0  0  0  0  0  0
   13.5353    1.7902   24.0831 H   0  0  0  0  0  0  0  0  0  0  0  0
   12.9785    0.3247   22.6229 C   0  0  0  0  0  0  0  0  0  0  0  0
   14.4824   -0.5382   22.7462 Cl  0  0  0  0  0  0  0  0  0  0  0  0
   12.0128   -0.1278   21.7237 C   0  0  0  0  0  0  0  0  0  0  0  0
   12.2190   -1.0254   21.1457 H   0  0  0  0  0  0  0  0  0  0  0  0
    9.9064   -2.3316   23.1081 C   0  0  0  0  0  0  0  0  0  0  0  0
   10.4285   -1.5927   23.7180 H   0  0  0  0  0  0  0  0  0  0  0  0
   10.6680   -2.8256   22.4968 H   0  0  0  0  0  0  0  0  0  0  0  0
    9.0783   -3.3274   23.9690 C   0  0  0  0  0  0  0  0  0  0  0  0
    9.3903   -4.3555   23.7842 H   0  0  0  0  0  0  0  0  0  0  0  0
    9.2161   -3.1203   25.0293 H   0  0  0  0  0  0  0  0  0  0  0  0
    7.5839   -3.1382   23.5762 C   0  0  0  0  0  0  0  0  0  0  0  0
    6.9560   -2.7856   24.3995 H   0  0  0  0  0  0  0  0  0  0  0  0
    7.1372   -4.0390   23.1474 H   0  0  0  0  0  0  0  0  0  0  0  0
    5.3225    0.6465   20.1344 C   0  0  0  0  0  0  0  0  0  0  0  0
    4.8524    0.6733   21.1175 H   0  0  0  0  0  0  0  0  0  0  0  0
    4.7535    1.3333   19.0586 C   0  0  0  0  0  0  0  0  0  0  0  0
    3.8374    1.9144   19.1672 H   0  0  0  0  0  0  0  0  0  0  0  0
  1  2  1  0
  2  3  2  0
  3  4  1  0
  4  5  1  0
  4  6  2  0
  6  7  1  0
  7  8  2  0
  8  9  1  0
  9 10  1  0
 10 11  2  0
 11 12  1  0
 12 13  1  0
 12 14  1  0
 12 15  1  0
 15 16  2  0
 16 17  1  0
 16 18  1  0
 18 19  1  0
 18 20  2  0
 20 21  1  0
 20 22  1  0
 22 23  1  0
 22 24  2  0
 24 25  1  0
 10 26  1  0
 26 27  1  0
 26 28  1  0
 26 29  1  0
 29 30  1  0
 29 31  1  0
 29 32  1  0
 32 33  1  0
 32 34  1  0
  6 35  1  0
 35 36  1  0
 35 37  2  0
 37 38  1  0
 37  2  1  0
 11  7  1  0
 24 15  1  0
 32  9  1  0
M  END
>  <cnnaffinity>  (1) 
-6.206

>  <filename>  (1) 
Clc1cccc(Cc2c(-c3cccnc3)nn3c2CCC3)c1

$$$$
