
     RDKit          3D

 37 39  0  0  0  0  0  0  0  0999 V2000
    4.8719    1.4702   17.0677 H   0  0  0  0  0  0  0  0  0  0  0  0
    5.2595    0.8436   17.8665 C   0  0  0  0  0  0  0  0  0  0  0  0
    6.3177    0.0703   17.5478 N   0  0  0  0  0  0  0  0  0  0  0  0
    6.8826   -0.6293   18.5480 C   0  0  0  0  0  0  0  0  0  0  0  0
    7.7542   -1.2304   18.2676 H   0  0  0  0  0  0  0  0  0  0  0  0
    6.5011   -0.5467   19.9298 C   0  0  0  0  0  0  0  0  0  0  0  0
    7.3662   -1.0937   20.9460 N   0  0  0  0  0  0  0  0  0  0  0  0
    7.2383   -2.5524   21.0769 C   0  0  0  0  0  0  0  0  0  0  0  0
    8.2159   -2.9987   21.3326 H   0  0  0  0  0  0  0  0  0  0  0  0
    6.8490   -2.9426   20.1331 H   0  0  0  0  0  0  0  0  0  0  0  0
    6.2299   -2.9247   22.1553 C   0  0  0  0  0  0  0  0  0  0  0  0
    5.2459   -2.5547   21.8355 H   0  0  0  0  0  0  0  0  0  0  0  0
    6.1552   -4.0029   22.2924 H   0  0  0  0  0  0  0  0  0  0  0  0
    6.6016   -2.3874   23.4036 O   0  0  0  0  0  0  0  0  0  0  0  0
    6.7603   -0.9723   23.3606 C   0  0  0  0  0  0  0  0  0  0  0  0
    7.1035   -0.7421   24.3649 H   0  0  0  0  0  0  0  0  0  0  0  0
    5.8331   -0.4206   23.1934 H   0  0  0  0  0  0  0  0  0  0  0  0
    7.7629   -0.5099   22.2806 C   0  0  2  0  0  0  0  0  0  0  0  0
    8.7381   -0.9626   22.4834 H   0  0  0  0  0  0  0  0  0  0  0  0
    8.3333    1.0805   22.6593 C   0  0  0  0  0  0  0  0  0  0  0  0
    8.8126    0.6548   23.6291 H   0  0  0  0  0  0  0  0  0  0  0  0
    9.3497    0.9873   22.0618 H   0  0  0  0  0  0  0  0  0  0  0  0
    7.6238    2.6033   22.6871 C   0  0  0  0  0  0  0  0  0  0  0  0
    6.6434    2.8082   23.9291 C   0  0  0  0  0  0  0  0  0  0  0  0
    7.3371    3.1825   24.6255 H   0  0  0  0  0  0  0  0  0  0  0  0
    5.4119    3.4850   23.8174 C   0  0  0  0  0  0  0  0  0  0  0  0
    4.7800    3.6419   24.7065 H   0  0  0  0  0  0  0  0  0  0  0  0
    5.2817    4.2481   22.5283 C   0  0  0  0  0  0  0  0  0  0  0  0
    4.4054    4.8864   22.3710 H   0  0  0  0  0  0  0  0  0  0  0  0
    6.3591    4.0515   21.7259 C   0  0  0  0  0  0  0  0  0  0  0  0
    6.8193    4.6559   20.9449 H   0  0  0  0  0  0  0  0  0  0  0  0
    7.6238    2.6032   22.6869 C   0  0  0  0  0  0  0  0  0  0  0  0
    7.8611    2.1231   20.3370 Cl  0  0  0  0  0  0  0  0  0  0  0  0
    5.2840    0.1079   20.1690 C   0  0  0  0  0  0  0  0  0  0  0  0
    4.8455    0.1250   21.1611 H   0  0  0  0  0  0  0  0  0  0  0  0
    4.6728    0.8445   19.1327 C   0  0  0  0  0  0  0  0  0  0  0  0
    3.7226    1.3645   19.3052 H   0  0  0  0  0  0  0  0  0  0  0  0
  1  2  1  0
  2  3  2  0
  3  4  1  0
  4  5  1  0
  4  6  2  0
  6  7  1  0
  7  8  1  0
  8  9  1  0
  8 10  1  0
  8 11  1  0
 11 12  1  0
 11 13  1  0
 11 14  1  0
 14 15  1  0
 15 16  1  0
 15 17  1  0
 15 18  1  0
 18 19  1  1
 18 20  1  0
 20 21  1  0
 20 22  1  0
 20 23  1  0
 23 24  2  0
 24 25  1  0
 24 26  1  0
 26 27  1  0
 26 28  2  0
 28 29  1  0
 28 30  1  0
 30 31  1  0
 30 32  2  0
 32 33  1  0
  6 34  1  0
 34 35  1  0
 34 36  2  0
 36 37  1  0
 36  2  1  0
 18  7  1  0
 32 23  1  0
M  END
>  <cnnaffinity>  (1) 
-4.40001

>  <filename>  (1) 
Clc1ccccc1C[C@H]1COCCN1c1cccnc1

$$$$
