
     RDKit          3D

 29 32  0  0  0  0  0  0  0  0999 V2000
    4.9568    1.8018   16.9909 H   0  0  0  0  0  0  0  0  0  0  0  0
    5.4151    1.2905   17.8374 C   0  0  0  0  0  0  0  0  0  0  0  0
    6.5750    0.6570   17.6042 N   0  0  0  0  0  0  0  0  0  0  0  0
    7.1642    0.0341   18.6293 C   0  0  0  0  0  0  0  0  0  0  0  0
    8.1147   -0.4453   18.3932 H   0  0  0  0  0  0  0  0  0  0  0  0
    6.6334   -0.0118   19.9343 C   0  0  0  0  0  0  0  0  0  0  0  0
    7.3537   -0.7052   21.0300 C   0  0  0  0  0  0  0  0  0  0  0  0
    6.9252   -0.7277   22.2579 N   0  0  0  0  0  0  0  0  0  0  0  0
    7.8131   -1.3980   23.0570 N   0  0  0  0  0  0  0  0  0  0  0  0
    7.9822   -1.7024   24.4139 C   0  0  0  0  0  0  0  0  0  0  0  0
    7.0484   -1.3090   25.5013 C   0  0  0  0  0  0  0  0  0  0  0  0
    7.3739   -1.3906   26.8755 C   0  0  0  0  0  0  0  0  0  0  0  0
    8.3608   -1.7112   27.2075 H   0  0  0  0  0  0  0  0  0  0  0  0
    6.4039   -1.0228   27.8156 C   0  0  0  0  0  0  0  0  0  0  0  0
    6.5843   -0.9524   28.8730 H   0  0  0  0  0  0  0  0  0  0  0  0
    5.1127   -0.6624   27.4414 C   0  0  0  0  0  0  0  0  0  0  0  0
    4.3686   -0.4028   28.1833 H   0  0  0  0  0  0  0  0  0  0  0  0
    4.8118   -0.5822   26.0904 C   0  0  0  0  0  0  0  0  0  0  0  0
    3.1944   -0.1622   25.6318 Cl  0  0  0  0  0  0  0  0  0  0  0  0
    5.7869   -0.8086   25.1323 C   0  0  0  0  0  0  0  0  0  0  0  0
    5.6133   -0.5344   24.1071 H   0  0  0  0  0  0  0  0  0  0  0  0
    9.0945   -2.3841   24.5425 N   0  0  0  0  0  0  0  0  0  0  0  0
    9.6912   -2.5324   23.3117 N   0  0  0  0  0  0  0  0  0  0  0  0
    8.9183   -1.9205   22.4570 C   0  0  0  0  0  0  0  0  0  0  0  0
    8.9006   -1.5400   20.7618 S   0  0  0  0  0  0  0  0  0  0  0  0
    5.4142    0.6585   20.1567 C   0  0  0  0  0  0  0  0  0  0  0  0
    4.9696    0.6761   21.1503 H   0  0  0  0  0  0  0  0  0  0  0  0
    4.7973    1.3131   19.0903 C   0  0  0  0  0  0  0  0  0  0  0  0
    3.8630    1.8509   19.2212 H   0  0  0  0  0  0  0  0  0  0  0  0
  1  2  1  0
  2  3  2  0
  3  4  1  0
  4  5  1  0
  4  6  2  0
  6  7  1  0
  7  8  2  0
  8  9  1  0
  9 10  1  0
 10 11  1  0
 11 12  2  0
 12 13  1  0
 12 14  1  0
 14 15  1  0
 14 16  2  0
 16 17  1  0
 16 18  1  0
 18 19  1  0
 18 20  2  0
 20 21  1  0
 10 22  2  0
 22 23  1  0
 23 24  2  0
 24 25  1  0
  6 26  1  0
 26 27  1  0
 26 28  2  0
 28 29  1  0
 28  2  1  0
 25  7  1  0
 24  9  1  0
 20 11  1  0
M  END
>  <cnnaffinity>  (1) 
-4.90579

>  <filename>  (1) 
Clc1cccc(-c2nnc3sc(-c4cccnc4)nn23)c1

$$$$
