
     RDKit          3D

 36 39  0  0  0  0  0  0  0  0999 V2000
    4.9462    1.8172   16.9824 H   0  0  0  0  0  0  0  0  0  0  0  0
    5.3984    1.2944   17.8254 C   0  0  0  0  0  0  0  0  0  0  0  0
    6.5453    0.6469   17.5673 N   0  0  0  0  0  0  0  0  0  0  0  0
    7.1390    0.0123   18.5823 C   0  0  0  0  0  0  0  0  0  0  0  0
    8.0785   -0.4882   18.3566 H   0  0  0  0  0  0  0  0  0  0  0  0
    6.6408   -0.0010   19.8936 C   0  0  0  0  0  0  0  0  0  0  0  0
    7.4255   -0.6566   20.9376 C   0  0  0  0  0  0  0  0  0  0  0  0
    7.8426   -1.9633   20.8268 N   0  0  0  0  0  0  0  0  0  0  0  0
    8.4586   -2.1796   21.9557 C   0  0  0  0  0  0  0  0  0  0  0  0
    8.5827   -1.0739   22.7332 N   0  0  0  0  0  0  0  0  0  0  0  0
    7.8812   -0.0737   22.1096 C   0  0  0  0  0  0  0  0  0  0  0  0
    7.7192    1.3099   22.6533 C   0  0  0  0  0  0  0  0  0  0  0  0
    7.7882    2.0184   21.8194 H   0  0  0  0  0  0  0  0  0  0  0  0
    8.5627    1.5304   23.3218 H   0  0  0  0  0  0  0  0  0  0  0  0
    6.4110    1.5689   23.3938 C   0  0  0  0  0  0  0  0  0  0  0  0
    6.0201    0.7653   24.4735 C   0  0  0  0  0  0  0  0  0  0  0  0
    6.6438   -0.0767   24.7691 H   0  0  0  0  0  0  0  0  0  0  0  0
    4.8302    1.0152   25.1661 C   0  0  0  0  0  0  0  0  0  0  0  0
    4.5217    0.3926   25.9978 H   0  0  0  0  0  0  0  0  0  0  0  0
    4.0208    2.0828   24.7735 C   0  0  0  0  0  0  0  0  0  0  0  0
    2.5353    2.3986   25.6265 Cl  0  0  0  0  0  0  0  0  0  0  0  0
    4.3861    2.8986   23.7006 C   0  0  0  0  0  0  0  0  0  0  0  0
    3.7426    3.7219   23.4110 H   0  0  0  0  0  0  0  0  0  0  0  0
    5.5780    2.6324   23.0180 C   0  0  0  0  0  0  0  0  0  0  0  0
    5.8551    3.2379   22.1545 H   0  0  0  0  0  0  0  0  0  0  0  0
    9.4045   -1.1507   23.9211 C   0  0  0  0  0  0  0  0  0  0  0  0
   10.0535   -0.2680   23.9740 H   0  0  0  0  0  0  0  0  0  0  0  0
    8.7818   -1.1592   24.8219 H   0  0  0  0  0  0  0  0  0  0  0  0
   10.1954   -2.4637   23.7590 C   0  0  0  0  0  0  0  0  0  0  0  0
   10.4154   -2.9507   24.7101 H   0  0  0  0  0  0  0  0  0  0  0  0
   11.1330   -2.2825   23.2273 H   0  0  0  0  0  0  0  0  0  0  0  0
    9.1644   -3.5874   22.7243 S   0  0  0  0  0  0  0  0  0  0  0  0
    5.4297    0.6662   20.1426 C   0  0  0  0  0  0  0  0  0  0  0  0
    4.9954    0.6704   21.1412 H   0  0  0  0  0  0  0  0  0  0  0  0
    4.7921    1.3215   19.0877 C   0  0  0  0  0  0  0  0  0  0  0  0
    3.8578    1.8619   19.2241 H   0  0  0  0  0  0  0  0  0  0  0  0
  1  2  1  0
  2  3  2  0
  3  4  1  0
  4  5  1  0
  4  6  2  0
  6  7  1  0
  7  8  1  0
  8  9  2  0
  9 10  1  0
 10 11  1  0
 11 12  1  0
 12 13  1  0
 12 14  1  0
 12 15  1  0
 15 16  2  0
 16 17  1  0
 16 18  1  0
 18 19  1  0
 18 20  2  0
 20 21  1  0
 20 22  1  0
 22 23  1  0
 22 24  2  0
 24 25  1  0
 10 26  1  0
 26 27  1  0
 26 28  1  0
 26 29  1  0
 29 30  1  0
 29 31  1  0
 29 32  1  0
  6 33  1  0
 33 34  1  0
 33 35  2  0
 35 36  1  0
 35  2  1  0
 11  7  2  0
 24 15  1  0
 32  9  1  0
M  END
>  <cnnaffinity>  (1) 
-5.52836

>  <filename>  (1) 
Clc1ccc(Cc2c(-c3cccnc3)nc3n2CCS3)cc1

$$$$
