
     RDKit          3D

 39 41  0  0  0  0  0  0  0  0999 V2000
    4.9128    1.7859   16.9915 H   0  0  0  0  0  0  0  0  0  0  0  0
    5.3966    1.2984   17.8324 C   0  0  0  0  0  0  0  0  0  0  0  0
    6.5583    0.6807   17.5646 N   0  0  0  0  0  0  0  0  0  0  0  0
    7.1572    0.0584   18.5864 C   0  0  0  0  0  0  0  0  0  0  0  0
    8.1132   -0.4198   18.3673 H   0  0  0  0  0  0  0  0  0  0  0  0
    6.6504   -0.0065   19.8961 C   0  0  0  0  0  0  0  0  0  0  0  0
    7.3849   -0.7352   20.9879 C   0  0  0  0  0  0  0  0  0  0  0  0
    6.6509   -1.1330   21.7051 H   0  0  0  0  0  0  0  0  0  0  0  0
    7.8928   -1.6115   20.5582 H   0  0  0  0  0  0  0  0  0  0  0  0
    8.4500    0.1016   21.7683 C   0  0  1  0  0  0  0  0  0  0  0  0
    9.5481    0.5769   20.7866 C   0  0  0  0  0  0  0  0  0  0  0  0
    9.8636   -0.2638   20.1571 H   0  0  0  0  0  0  0  0  0  0  0  0
    9.0457    1.2897   20.1331 H   0  0  0  0  0  0  0  0  0  0  0  0
   10.7860    1.2153   21.3853 C   0  0  0  0  0  0  0  0  0  0  0  0
   10.8237    2.5957   21.6440 C   0  0  0  0  0  0  0  0  0  0  0  0
    9.9191    3.1494   21.4317 H   0  0  0  0  0  0  0  0  0  0  0  0
   11.9343    3.2354   22.1983 C   0  0  0  0  0  0  0  0  0  0  0  0
   11.9216    4.3100   22.3696 H   0  0  0  0  0  0  0  0  0  0  0  0
   13.0569    2.4784   22.5392 C   0  0  0  0  0  0  0  0  0  0  0  0
   13.9352    2.9541   22.9631 H   0  0  0  0  0  0  0  0  0  0  0  0
   13.0645    1.1016   22.3027 C   0  0  0  0  0  0  0  0  0  0  0  0
   13.9408    0.5009   22.5205 H   0  0  0  0  0  0  0  0  0  0  0  0
   11.9421    0.4924   21.7321 C   0  0  0  0  0  0  0  0  0  0  0  0
   12.0422   -1.2194   21.4136 Cl  0  0  0  0  0  0  0  0  0  0  0  0
    7.7898    1.2701   22.5420 C   0  0  0  0  0  0  0  0  0  0  0  0
    7.0392    1.8184   21.9602 H   0  0  0  0  0  0  0  0  0  0  0  0
    8.5399    2.0127   22.8451 H   0  0  0  0  0  0  0  0  0  0  0  0
    7.2047    0.6886   23.7496 N   0  0  0  0  0  0  0  0  0  0  0  0
    6.2336    0.4511   23.5766 H   0  0  0  0  0  0  0  0  0  0  0  0
    7.9582   -0.5371   24.0694 C   0  0  0  0  0  0  0  0  0  0  0  0
    8.4737   -0.4302   25.0310 H   0  0  0  0  0  0  0  0  0  0  0  0
    7.2796   -1.3946   24.1548 H   0  0  0  0  0  0  0  0  0  0  0  0
    8.9781   -0.7460   22.9362 C   0  0  0  0  0  0  0  0  0  0  0  0
    9.1020   -1.7942   22.6542 H   0  0  0  0  0  0  0  0  0  0  0  0
    9.9573   -0.3840   23.2567 H   0  0  0  0  0  0  0  0  0  0  0  0
    5.4355    0.6493   20.1503 C   0  0  0  0  0  0  0  0  0  0  0  0
    5.0013    0.6325   21.1573 H   0  0  0  0  0  0  0  0  0  0  0  0
    4.8014    1.3135   19.0985 C   0  0  0  0  0  0  0  0  0  0  0  0
    3.8701    1.8474   19.2555 H   0  0  0  0  0  0  0  0  0  0  0  0
  1  2  1  0
  2  3  2  0
  3  4  1  0
  4  5  1  0
  4  6  2  0
  6  7  1  0
  7  8  1  0
  7  9  1  0
 10  7  1  6
 10 11  1  0
 11 12  1  0
 11 13  1  0
 11 14  1  0
 14 15  2  0
 15 16  1  0
 15 17  1  0
 17 18  1  0
 17 19  2  0
 19 20  1  0
 19 21  1  0
 21 22  1  0
 21 23  2  0
 23 24  1  0
 10 25  1  0
 25 26  1  0
 25 27  1  0
 25 28  1  0
 28 29  1  0
 28 30  1  0
 30 31  1  0
 30 32  1  0
 30 33  1  0
 33 34  1  0
 33 35  1  0
  6 36  1  0
 36 37  1  0
 36 38  2  0
 38 39  1  0
 38  2  1  0
 33 10  1  0
 23 14  1  0
M  END
>  <cnnaffinity>  (1) 
-5.6652

>  <filename>  (1) 
Clc1ccccc1C[C@@]1(Cc2cccnc2)CCNC1

$$$$
