
     RDKit          3D

 33 36  0  0  0  0  0  0  0  0999 V2000
    4.9268    1.7728   17.0019 H   0  0  0  0  0  0  0  0  0  0  0  0
    5.4111    1.2854   17.8454 C   0  0  0  0  0  0  0  0  0  0  0  0
    6.5754    0.6660   17.5946 N   0  0  0  0  0  0  0  0  0  0  0  0
    7.1794    0.0532   18.6181 C   0  0  0  0  0  0  0  0  0  0  0  0
    8.1253   -0.4315   18.3842 H   0  0  0  0  0  0  0  0  0  0  0  0
    6.6438    0.0141   19.9148 C   0  0  0  0  0  0  0  0  0  0  0  0
    7.3589   -0.6903   20.9755 C   0  0  0  0  0  0  0  0  0  0  0  0
    8.5595   -1.3010   20.7658 N   0  0  0  0  0  0  0  0  0  0  0  0
    8.8284   -1.7771   21.9632 C   0  0  0  0  0  0  0  0  0  0  0  0
   10.0907   -2.6775   22.7723 S   0  0  0  0  0  0  0  0  0  0  0  0
    9.1830   -2.5918   24.2591 C   0  0  0  0  0  0  0  0  0  0  0  0
    9.5936   -3.0286   25.1607 H   0  0  0  0  0  0  0  0  0  0  0  0
    8.0125   -1.9366   24.1436 C   0  0  0  0  0  0  0  0  0  0  0  0
    7.0132   -1.6300   25.2246 C   0  0  0  0  0  0  0  0  0  0  0  0
    7.2833   -2.2068   26.1170 H   0  0  0  0  0  0  0  0  0  0  0  0
    6.0205   -1.9730   24.9138 H   0  0  0  0  0  0  0  0  0  0  0  0
    6.9694   -0.1510   25.5608 C   0  0  0  0  0  0  0  0  0  0  0  0
    5.9602    0.6568   25.0193 C   0  0  0  0  0  0  0  0  0  0  0  0
    5.2221    0.1888   24.3769 H   0  0  0  0  0  0  0  0  0  0  0  0
    5.9148    2.0295   25.2605 C   0  0  0  0  0  0  0  0  0  0  0  0
    5.1214    2.6318   24.8277 H   0  0  0  0  0  0  0  0  0  0  0  0
    6.8971    2.6192   26.0581 C   0  0  0  0  0  0  0  0  0  0  0  0
    6.8692    3.6850   26.2556 H   0  0  0  0  0  0  0  0  0  0  0  0
    7.9220    1.8434   26.6038 C   0  0  0  0  0  0  0  0  0  0  0  0
    8.6887    2.2910   27.2261 H   0  0  0  0  0  0  0  0  0  0  0  0
    7.9532    0.4709   26.3470 C   0  0  0  0  0  0  0  0  0  0  0  0
    9.2544   -0.4553   27.0420 Cl  0  0  0  0  0  0  0  0  0  0  0  0
    7.8432   -1.4830   22.8370 N   0  0  0  0  0  0  0  0  0  0  0  0
    6.8727   -0.7754   22.2111 N   0  0  0  0  0  0  0  0  0  0  0  0
    5.4244    0.6593   20.1652 C   0  0  0  0  0  0  0  0  0  0  0  0
    4.9939    0.6371   21.1712 H   0  0  0  0  0  0  0  0  0  0  0  0
    4.8036    1.3106   19.1072 C   0  0  0  0  0  0  0  0  0  0  0  0
    3.8725    1.8444   19.2577 H   0  0  0  0  0  0  0  0  0  0  0  0
  1  2  1  0
  2  3  2  0
  3  4  1  0
  4  5  1  0
  4  6  2  0
  6  7  1  0
  7  8  1  0
  8  9  2  0
  9 10  1  0
 10 11  1  0
 11 12  1  0
 11 13  2  0
 13 14  1  0
 14 15  1  0
 14 16  1  0
 14 17  1  0
 17 18  2  0
 18 19  1  0
 18 20  1  0
 20 21  1  0
 20 22  2  0
 22 23  1  0
 22 24  1  0
 24 25  1  0
 24 26  2  0
 26 27  1  0
 13 28  1  0
 28 29  1  0
  6 30  1  0
 30 31  1  0
 30 32  2  0
 32 33  1  0
 32  2  1  0
 29  7  2  0
 28  9  1  0
 26 17  1  0
M  END
>  <cnnaffinity>  (1) 
-5.82934

>  <filename>  (1) 
Clc1ccccc1Cc1csc2nc(-c3cccnc3)nn12

$$$$
