
     RDKit          3D

 35 38  0  0  0  0  0  0  0  0999 V2000
    4.9483    1.8237   16.9758 H   0  0  0  0  0  0  0  0  0  0  0  0
    5.4025    1.2947   17.8121 C   0  0  0  0  0  0  0  0  0  0  0  0
    6.5620    0.6653   17.5594 N   0  0  0  0  0  0  0  0  0  0  0  0
    7.1510    0.0171   18.5688 C   0  0  0  0  0  0  0  0  0  0  0  0
    8.1039   -0.4571   18.3335 H   0  0  0  0  0  0  0  0  0  0  0  0
    6.6220   -0.0317   19.8701 C   0  0  0  0  0  0  0  0  0  0  0  0
    7.3553   -0.6912   20.9559 C   0  0  0  0  0  0  0  0  0  0  0  0
    8.0809   -1.7863   20.7379 N   0  0  0  0  0  0  0  0  0  0  0  0
    8.5576   -2.0884   21.9431 N   0  0  0  0  0  0  0  0  0  0  0  0
    8.2322   -1.2533   22.9259 C   0  0  0  0  0  0  0  0  0  0  0  0
    7.4462   -0.2856   22.3269 C   0  0  0  0  0  0  0  0  0  0  0  0
    7.0809    0.9621   22.9669 C   0  0  0  0  0  0  0  0  0  0  0  0
    7.2793    2.1914   22.3191 C   0  0  0  0  0  0  0  0  0  0  0  0
    7.6797    2.1934   21.3042 H   0  0  0  0  0  0  0  0  0  0  0  0
    6.9737    3.3732   22.9784 C   0  0  0  0  0  0  0  0  0  0  0  0
    7.1142    4.3325   22.4901 H   0  0  0  0  0  0  0  0  0  0  0  0
    6.4722    3.3413   24.2883 C   0  0  0  0  0  0  0  0  0  0  0  0
    6.0852    4.8444   25.0523 Cl  0  0  0  0  0  0  0  0  0  0  0  0
    6.2878    2.1100   24.9425 C   0  0  0  0  0  0  0  0  0  0  0  0
    5.6765    2.0073   26.5593 Cl  0  0  0  0  0  0  0  0  0  0  0  0
    6.6053    0.9278   24.2819 C   0  0  0  0  0  0  0  0  0  0  0  0
    6.4728   -0.0288   24.7839 H   0  0  0  0  0  0  0  0  0  0  0  0
    9.0723   -1.5002   24.1557 C   0  0  0  0  0  0  0  0  0  0  0  0
    9.6720   -0.6056   24.3713 H   0  0  0  0  0  0  0  0  0  0  0  0
    8.4638   -1.7058   25.0452 H   0  0  0  0  0  0  0  0  0  0  0  0
    9.9417   -2.7198   23.7284 C   0  0  0  0  0  0  0  0  0  0  0  0
   11.0022   -2.4898   23.7831 H   0  0  0  0  0  0  0  0  0  0  0  0
    9.7574   -3.5909   24.3547 H   0  0  0  0  0  0  0  0  0  0  0  0
    9.5654   -3.0547   22.2591 C   0  0  0  0  0  0  0  0  0  0  0  0
    9.1411   -4.0554   22.1454 H   0  0  0  0  0  0  0  0  0  0  0  0
   10.4007   -2.9042   21.5723 H   0  0  0  0  0  0  0  0  0  0  0  0
    5.4069    0.6253   20.1130 C   0  0  0  0  0  0  0  0  0  0  0  0
    4.9898    0.6467   21.1205 H   0  0  0  0  0  0  0  0  0  0  0  0
    4.7857    1.2984   19.0661 C   0  0  0  0  0  0  0  0  0  0  0  0
    3.8611    1.8472   19.2212 H   0  0  0  0  0  0  0  0  0  0  0  0
  1  2  1  0
  2  3  2  0
  3  4  1  0
  4  5  1  0
  4  6  2  0
  6  7  1  0
  7  8  2  0
  8  9  1  0
  9 10  1  0
 10 11  2  0
 11 12  1  0
 12 13  2  0
 13 14  1  0
 13 15  1  0
 15 16  1  0
 15 17  2  0
 17 18  1  0
 17 19  1  0
 19 20  1  0
 19 21  2  0
 21 22  1  0
 10 23  1  0
 23 24  1  0
 23 25  1  0
 23 26  1  0
 26 27  1  0
 26 28  1  0
 26 29  1  0
 29 30  1  0
 29 31  1  0
  6 32  1  0
 32 33  1  0
 32 34  2  0
 34 35  1  0
 34  2  1  0
 11  7  1  0
 21 12  1  0
 29  9  1  0
M  END
>  <cnnaffinity>  (1) 
-5.85468

>  <filename>  (1) 
Clc1ccc(-c2c(-c3cccnc3)nn3c2CCC3)cc1Cl

$$$$
