
     RDKit          3D

 30 32  0  0  0  0  0  0  0  0999 V2000
    4.9283    1.7812   16.9966 H   0  0  0  0  0  0  0  0  0  0  0  0
    5.4071    1.2904   17.8430 C   0  0  0  0  0  0  0  0  0  0  0  0
    6.5740    0.6714   17.5946 N   0  0  0  0  0  0  0  0  0  0  0  0
    7.1765    0.0394   18.6043 C   0  0  0  0  0  0  0  0  0  0  0  0
    8.1239   -0.4399   18.3723 H   0  0  0  0  0  0  0  0  0  0  0  0
    6.6535   -0.0008   19.9094 C   0  0  0  0  0  0  0  0  0  0  0  0
    7.3658   -0.6664   20.9438 N   0  0  0  0  0  0  0  0  0  0  0  0
    7.9621   -1.8591   20.7001 N   0  0  0  0  0  0  0  0  0  0  0  0
    8.4778   -2.2214   21.8624 C   0  0  0  0  0  0  0  0  0  0  0  0
    9.0298   -3.1490   21.9301 H   0  0  0  0  0  0  0  0  0  0  0  0
    8.2449   -1.2820   22.8781 C   0  0  0  0  0  0  0  0  0  0  0  0
    8.5671   -1.2722   23.9071 H   0  0  0  0  0  0  0  0  0  0  0  0
    7.5431   -0.2801   22.2577 C   0  0  0  0  0  0  0  0  0  0  0  0
    7.0968    0.9163   22.7801 N   0  0  0  0  0  0  0  0  0  0  0  0
    7.1321    1.7069   22.1622 H   0  0  0  0  0  0  0  0  0  0  0  0
    6.8802    1.1827   24.1370 C   0  0  0  0  0  0  0  0  0  0  0  0
    7.1404    2.4567   24.6590 C   0  0  0  0  0  0  0  0  0  0  0  0
    7.5390    3.2300   24.0103 H   0  0  0  0  0  0  0  0  0  0  0  0
    6.9042    2.7283   26.0117 C   0  0  0  0  0  0  0  0  0  0  0  0
    7.1020    3.7098   26.4315 H   0  0  0  0  0  0  0  0  0  0  0  0
    6.3909    1.7220   26.8339 C   0  0  0  0  0  0  0  0  0  0  0  0
    6.0835    2.0491   28.5136 Cl  0  0  0  0  0  0  0  0  0  0  0  0
    6.1108    0.4544   26.3217 C   0  0  0  0  0  0  0  0  0  0  0  0
    5.7092   -0.3158   26.9702 H   0  0  0  0  0  0  0  0  0  0  0  0
    6.3534    0.1919   24.9742 C   0  0  0  0  0  0  0  0  0  0  0  0
    6.1430   -0.7768   24.5344 H   0  0  0  0  0  0  0  0  0  0  0  0
    5.4372    0.6455   20.1681 C   0  0  0  0  0  0  0  0  0  0  0  0
    5.0041    0.6276   21.1690 H   0  0  0  0  0  0  0  0  0  0  0  0
    4.8087    1.3020   19.1069 C   0  0  0  0  0  0  0  0  0  0  0  0
    3.8790    1.8378   19.2591 H   0  0  0  0  0  0  0  0  0  0  0  0
  1  2  1  0
  2  3  2  0
  3  4  1  0
  4  5  1  0
  4  6  2  0
  6  7  1  0
  7  8  1  0
  8  9  2  0
  9 10  1  0
  9 11  1  0
 11 12  1  0
 11 13  2  0
 13 14  1  0
 14 15  1  0
 14 16  1  0
 16 17  2  0
 17 18  1  0
 17 19  1  0
 19 20  1  0
 19 21  2  0
 21 22  1  0
 21 23  1  0
 23 24  1  0
 23 25  2  0
 25 26  1  0
  6 27  1  0
 27 28  1  0
 27 29  2  0
 29 30  1  0
 29  2  1  0
 13  7  1  0
 25 16  1  0
M  END
>  <cnnaffinity>  (1) 
-5.21146

>  <filename>  (1) 
Clc1ccc(Nc2ccnn2-c2cccnc2)cc1

$$$$
