
     RDKit          3D

 30 33  0  0  0  0  0  0  0  0999 V2000
    4.9267    1.7726   17.0024 H   0  0  0  0  0  0  0  0  0  0  0  0
    5.4114    1.2852   17.8458 C   0  0  0  0  0  0  0  0  0  0  0  0
    6.5754    0.6665   17.5942 N   0  0  0  0  0  0  0  0  0  0  0  0
    7.1796    0.0535   18.6163 C   0  0  0  0  0  0  0  0  0  0  0  0
    8.1250   -0.4319   18.3846 H   0  0  0  0  0  0  0  0  0  0  0  0
    6.6438    0.0161   19.9117 C   0  0  0  0  0  0  0  0  0  0  0  0
    7.3610   -0.6892   20.9673 C   0  0  0  0  0  0  0  0  0  0  0  0
    8.5483   -1.3234   20.7499 N   0  0  0  0  0  0  0  0  0  0  0  0
    8.8153   -1.8040   21.9465 C   0  0  0  0  0  0  0  0  0  0  0  0
   10.0512   -2.7436   22.7485 S   0  0  0  0  0  0  0  0  0  0  0  0
    9.1535   -2.6472   24.2315 C   0  0  0  0  0  0  0  0  0  0  0  0
    9.5429   -3.1198   25.1242 H   0  0  0  0  0  0  0  0  0  0  0  0
    7.9989   -1.9586   24.1267 C   0  0  0  0  0  0  0  0  0  0  0  0
    7.0274   -1.6548   25.2030 C   0  0  0  0  0  0  0  0  0  0  0  0
    6.6006   -0.3266   25.4011 C   0  0  0  0  0  0  0  0  0  0  0  0
    6.9566    0.4414   24.7198 H   0  0  0  0  0  0  0  0  0  0  0  0
    5.7288   -0.0021   26.4364 C   0  0  0  0  0  0  0  0  0  0  0  0
    5.4062    1.0254   26.5694 H   0  0  0  0  0  0  0  0  0  0  0  0
    5.2611   -0.9941   27.2974 C   0  0  0  0  0  0  0  0  0  0  0  0
    4.5812   -0.7570   28.1075 H   0  0  0  0  0  0  0  0  0  0  0  0
    5.6631   -2.3193   27.1198 C   0  0  0  0  0  0  0  0  0  0  0  0
    5.0469   -3.5132   28.2122 Cl  0  0  0  0  0  0  0  0  0  0  0  0
    6.5393   -2.6596   26.0746 C   0  0  0  0  0  0  0  0  0  0  0  0
    6.9501   -4.3306   25.8525 Cl  0  0  0  0  0  0  0  0  0  0  0  0
    7.8487   -1.4753   22.8264 N   0  0  0  0  0  0  0  0  0  0  0  0
    6.8903   -0.7489   22.2082 N   0  0  0  0  0  0  0  0  0  0  0  0
    5.4242    0.6595   20.1678 C   0  0  0  0  0  0  0  0  0  0  0  0
    4.9958    0.6354   21.1757 H   0  0  0  0  0  0  0  0  0  0  0  0
    4.8041    1.3102   19.1083 C   0  0  0  0  0  0  0  0  0  0  0  0
    3.8732    1.8436   19.2584 H   0  0  0  0  0  0  0  0  0  0  0  0
  1  2  1  0
  2  3  2  0
  3  4  1  0
  4  5  1  0
  4  6  2  0
  6  7  1  0
  7  8  1  0
  8  9  2  0
  9 10  1  0
 10 11  1  0
 11 12  1  0
 11 13  2  0
 13 14  1  0
 14 15  2  0
 15 16  1  0
 15 17  1  0
 17 18  1  0
 17 19  2  0
 19 20  1  0
 19 21  1  0
 21 22  1  0
 21 23  2  0
 23 24  1  0
 13 25  1  0
 25 26  1  0
  6 27  1  0
 27 28  1  0
 27 29  2  0
 29 30  1  0
 29  2  1  0
 26  7  2  0
 25  9  1  0
 23 14  1  0
M  END
>  <cnnaffinity>  (1) 
-5.94186

>  <filename>  (1) 
Clc1cccc(-c2csc3nc(-c4cccnc4)nn23)c1Cl

$$$$
