
     RDKit          3D

 28 30  0  0  0  0  0  0  0  0999 V2000
    4.9294    1.7814   16.9955 H   0  0  0  0  0  0  0  0  0  0  0  0
    5.4112    1.2895   17.8427 C   0  0  0  0  0  0  0  0  0  0  0  0
    6.5761    0.6693   17.5954 N   0  0  0  0  0  0  0  0  0  0  0  0
    7.1744    0.0361   18.6055 C   0  0  0  0  0  0  0  0  0  0  0  0
    8.1215   -0.4440   18.3792 H   0  0  0  0  0  0  0  0  0  0  0  0
    6.6546   -0.0155   19.9110 C   0  0  0  0  0  0  0  0  0  0  0  0
    7.3675   -0.7028   20.9328 N   0  0  0  0  0  0  0  0  0  0  0  0
    7.9596   -1.8881   20.6939 N   0  0  0  0  0  0  0  0  0  0  0  0
    8.4515   -2.2712   21.8638 C   0  0  0  0  0  0  0  0  0  0  0  0
    8.9642   -3.2179   21.9425 H   0  0  0  0  0  0  0  0  0  0  0  0
    8.2079   -1.3292   22.8751 C   0  0  0  0  0  0  0  0  0  0  0  0
    8.5096   -1.3259   23.9135 H   0  0  0  0  0  0  0  0  0  0  0  0
    7.5247   -0.3168   22.2438 C   0  0  0  0  0  0  0  0  0  0  0  0
    7.1043    0.9807   22.8110 C   0  0  0  0  0  0  0  0  0  0  0  0
    6.2351    0.9560   23.9094 C   0  0  0  0  0  0  0  0  0  0  0  0
    5.9069   -0.0104   24.2798 H   0  0  0  0  0  0  0  0  0  0  0  0
    5.7916    2.1350   24.5004 C   0  0  0  0  0  0  0  0  0  0  0  0
    5.1125    2.0934   25.3459 H   0  0  0  0  0  0  0  0  0  0  0  0
    6.2292    3.3633   24.0053 C   0  0  0  0  0  0  0  0  0  0  0  0
    5.8985    4.2953   24.4438 H   0  0  0  0  0  0  0  0  0  0  0  0
    7.1201    3.4135   22.9311 C   0  0  0  0  0  0  0  0  0  0  0  0
    7.6415    4.9656   22.3651 Cl  0  0  0  0  0  0  0  0  0  0  0  0
    7.5765    2.2271   22.3410 C   0  0  0  0  0  0  0  0  0  0  0  0
    8.7331    2.2916   21.0586 Cl  0  0  0  0  0  0  0  0  0  0  0  0
    5.4436    0.6416   20.1736 C   0  0  0  0  0  0  0  0  0  0  0  0
    5.0068    0.6363   21.1744 H   0  0  0  0  0  0  0  0  0  0  0  0
    4.8157    1.2993   19.1096 C   0  0  0  0  0  0  0  0  0  0  0  0
    3.8829    1.8362   19.2593 H   0  0  0  0  0  0  0  0  0  0  0  0
  1  2  1  0
  2  3  2  0
  3  4  1  0
  4  5  1  0
  4  6  2  0
  6  7  1  0
  7  8  1  0
  8  9  2  0
  9 10  1  0
  9 11  1  0
 11 12  1  0
 11 13  2  0
 13 14  1  0
 14 15  2  0
 15 16  1  0
 15 17  1  0
 17 18  1  0
 17 19  2  0
 19 20  1  0
 19 21  1  0
 21 22  1  0
 21 23  2  0
 23 24  1  0
  6 25  1  0
 25 26  1  0
 25 27  2  0
 27 28  1  0
 27  2  1  0
 13  7  1  0
 23 14  1  0
M  END
>  <cnnaffinity>  (1) 
-5.31753

>  <filename>  (1) 
Clc1cccc(-c2ccnn2-c2cccnc2)c1Cl

$$$$
