
     RDKit          3D

 36 39  0  0  0  0  0  0  0  0999 V2000
    5.2251    1.7727   16.9753 H   0  0  0  0  0  0  0  0  0  0  0  0
    5.6028    1.3057   17.8826 C   0  0  0  0  0  0  0  0  0  0  0  0
    6.7028    0.5480   17.7427 N   0  0  0  0  0  0  0  0  0  0  0  0
    7.1637   -0.0624   18.8425 C   0  0  0  0  0  0  0  0  0  0  0  0
    8.0544   -0.6815   18.7202 H   0  0  0  0  0  0  0  0  0  0  0  0
    6.5679    0.0310   20.1115 C   0  0  0  0  0  0  0  0  0  0  0  0
    7.0439   -0.7926   21.2765 C   0  0  0  0  0  0  0  0  0  0  0  0
    7.9245   -0.1067   22.2678 C   0  0  0  0  0  0  0  0  0  0  0  0
    7.4764    0.6801   23.1955 N   0  0  0  0  0  0  0  0  0  0  0  0
    8.4705    1.1858   23.9761 N   0  0  0  0  0  0  0  0  0  0  0  0
    9.6522    0.7849   23.6156 C   0  0  0  0  0  0  0  0  0  0  0  0
   10.8936    1.3541   24.2335 C   0  0  0  0  0  0  0  0  0  0  0  0
   10.8454    1.2342   25.3214 H   0  0  0  0  0  0  0  0  0  0  0  0
   11.7666    0.8137   23.8676 H   0  0  0  0  0  0  0  0  0  0  0  0
   11.0022    2.8196   23.8598 C   0  0  0  0  0  0  0  0  0  0  0  0
   10.3317    3.7895   24.6190 C   0  0  0  0  0  0  0  0  0  0  0  0
    9.7442    3.4622   25.4801 H   0  0  0  0  0  0  0  0  0  0  0  0
   10.4031    5.1383   24.2776 C   0  0  0  0  0  0  0  0  0  0  0  0
    9.9831    5.8909   24.9377 H   0  0  0  0  0  0  0  0  0  0  0  0
   11.0413    5.5242   23.0944 C   0  0  0  0  0  0  0  0  0  0  0  0
   11.0426    6.5701   22.8115 H   0  0  0  0  0  0  0  0  0  0  0  0
   11.6677    4.5682   22.2873 C   0  0  0  0  0  0  0  0  0  0  0  0
   12.1510    4.8458   21.3536 H   0  0  0  0  0  0  0  0  0  0  0  0
   11.6229    3.2227   22.6679 C   0  0  0  0  0  0  0  0  0  0  0  0
   12.2664    2.0367   21.5702 Cl  0  0  0  0  0  0  0  0  0  0  0  0
    9.6455   -0.3212   22.2796 S   0  0  0  0  0  0  0  0  0  0  0  0
    7.2516   -2.2695   21.0409 C   0  0  0  0  0  0  0  0  0  0  0  0
    7.0254   -2.6171   20.0386 H   0  0  0  0  0  0  0  0  0  0  0  0
    8.0948   -2.7436   21.5342 H   0  0  0  0  0  0  0  0  0  0  0  0
    6.0875   -1.8167   21.8538 C   0  0  0  0  0  0  0  0  0  0  0  0
    5.1092   -1.8506   21.3866 H   0  0  0  0  0  0  0  0  0  0  0  0
    6.0977   -1.9398   22.9351 H   0  0  0  0  0  0  0  0  0  0  0  0
    5.4583    0.8740   20.2441 C   0  0  0  0  0  0  0  0  0  0  0  0
    4.9946    0.9981   21.2237 H   0  0  0  0  0  0  0  0  0  0  0  0
    4.9557    1.5088   19.1059 C   0  0  0  0  0  0  0  0  0  0  0  0
    4.0792    2.1459   19.1492 H   0  0  0  0  0  0  0  0  0  0  0  0
  1  2  1  0
  2  3  2  0
  3  4  1  0
  4  5  1  0
  4  6  2  0
  6  7  1  0
  7  8  1  0
  8  9  2  0
  9 10  1  0
 10 11  2  0
 11 12  1  0
 12 13  1  0
 12 14  1  0
 12 15  1  0
 15 16  2  0
 16 17  1  0
 16 18  1  0
 18 19  1  0
 18 20  2  0
 20 21  1  0
 20 22  1  0
 22 23  1  0
 22 24  2  0
 24 25  1  0
 11 26  1  0
  7 27  1  0
 27 28  1  0
 27 29  1  0
 27 30  1  0
 30 31  1  0
 30 32  1  0
  6 33  1  0
 33 34  1  0
 33 35  2  0
 35 36  1  0
 35  2  1  0
 30  7  1  0
 26  8  1  0
 24 15  1  0
M  END
>  <cnnaffinity>  (1) 
-5.65076

>  <filename>  (1) 
Clc1ccccc1Cc1nnc(C2(c3cccnc3)CC2)s1

$$$$
