
     RDKit          3D

 34 36  0  0  0  0  0  0  0  0999 V2000
   10.1149   -0.8894   22.2904 H   0  0  0  0  0  0  0  0  0  0  0  0
    9.0670   -1.0831   22.0705 C   0  0  0  0  0  0  0  0  0  0  0  0
    8.2266   -1.4759   23.0359 C   0  0  0  0  0  0  0  0  0  0  0  0
    8.6688   -1.5144   24.4611 C   0  0  0  0  0  0  0  0  0  0  0  0
    9.1762   -0.3364   25.0437 C   0  0  0  0  0  0  0  0  0  0  0  0
    9.2982    0.5411   24.4115 H   0  0  0  0  0  0  0  0  0  0  0  0
    9.5019   -0.2814   26.3951 C   0  0  0  0  0  0  0  0  0  0  0  0
    9.8449    0.6532   26.8250 H   0  0  0  0  0  0  0  0  0  0  0  0
    9.3798   -1.4198   27.1934 C   0  0  0  0  0  0  0  0  0  0  0  0
    9.6464   -1.3574   28.2435 H   0  0  0  0  0  0  0  0  0  0  0  0
    8.9543   -2.6281   26.6280 C   0  0  0  0  0  0  0  0  0  0  0  0
    8.8785   -4.0714   27.5896 Cl  0  0  0  0  0  0  0  0  0  0  0  0
    8.6084   -2.6749   25.2634 C   0  0  0  0  0  0  0  0  0  0  0  0
    8.1213   -4.1814   24.5521 Cl  0  0  0  0  0  0  0  0  0  0  0  0
    6.7506   -1.6792   22.7399 C   0  0  0  0  0  0  0  0  0  0  0  0
    6.2408   -0.7783   23.1029 H   0  0  0  0  0  0  0  0  0  0  0  0
    6.3406   -2.5297   23.2916 H   0  0  0  0  0  0  0  0  0  0  0  0
    6.4727   -1.8022   21.2393 C   0  0  0  0  0  0  0  0  0  0  0  0
    5.3961   -1.7433   21.0470 H   0  0  0  0  0  0  0  0  0  0  0  0
    6.7871   -2.7933   20.8673 H   0  0  0  0  0  0  0  0  0  0  0  0
    7.1811   -0.7418   20.5329 N   0  0  0  0  0  0  0  0  0  0  0  0
    6.5772    0.0121   19.5168 C   0  0  0  0  0  0  0  0  0  0  0  0
    7.1707    0.2135   18.2418 C   0  0  0  0  0  0  0  0  0  0  0  0
    8.1466   -0.2286   18.0428 H   0  0  0  0  0  0  0  0  0  0  0  0
    6.6108    0.9071   17.2421 N   0  0  0  0  0  0  0  0  0  0  0  0
    5.4195    1.4808   17.4771 C   0  0  0  0  0  0  0  0  0  0  0  0
    4.9855    2.0411   16.6533 H   0  0  0  0  0  0  0  0  0  0  0  0
    4.7530    1.3800   18.7040 C   0  0  0  0  0  0  0  0  0  0  0  0
    3.8037    1.8873   18.8398 H   0  0  0  0  0  0  0  0  0  0  0  0
    5.3259    0.6280   19.7326 C   0  0  0  0  0  0  0  0  0  0  0  0
    4.8445    0.5376   20.7058 H   0  0  0  0  0  0  0  0  0  0  0  0
    8.6326   -0.8299   20.6472 C   0  0  0  0  0  0  0  0  0  0  0  0
    9.0544   -1.6202   20.0001 H   0  0  0  0  0  0  0  0  0  0  0  0
    9.0850    0.1129   20.3125 H   0  0  0  0  0  0  0  0  0  0  0  0
  1  2  1  0
  2  3  2  0
  3  4  1  0
  4  5  2  0
  5  6  1  0
  5  7  1  0
  7  8  1  0
  7  9  2  0
  9 10  1  0
  9 11  1  0
 11 12  1  0
 11 13  2  0
 13 14  1  0
  3 15  1  0
 15 16  1  0
 15 17  1  0
 15 18  1  0
 18 19  1  0
 18 20  1  0
 18 21  1  0
 21 22  1  0
 22 23  2  0
 23 24  1  0
 23 25  1  0
 25 26  2  0
 26 27  1  0
 26 28  1  0
 28 29  1  0
 28 30  2  0
 30 31  1  0
 21 32  1  0
 32 33  1  0
 32 34  1  0
 32  2  1  0
 13  4  1  0
 30 22  1  0
M  END
>  <cnnaffinity>  (1) 
-5.25909

>  <filename>  (1) 
Clc1cccc(C2=CCN(c3cccnc3)CC2)c1Cl

$$$$
