
     RDKit          3D

 36 39  0  0  0  0  0  0  0  0999 V2000
    5.1215    1.8041   16.8348 H   0  0  0  0  0  0  0  0  0  0  0  0
    5.5148    1.2923   17.7104 C   0  0  0  0  0  0  0  0  0  0  0  0
    6.6476    0.5898   17.5379 N   0  0  0  0  0  0  0  0  0  0  0  0
    7.1401   -0.0743   18.5891 C   0  0  0  0  0  0  0  0  0  0  0  0
    8.0321   -0.6738   18.3984 H   0  0  0  0  0  0  0  0  0  0  0  0
    6.5692   -0.0186   19.8726 C   0  0  0  0  0  0  0  0  0  0  0  0
    7.1988   -0.6998   20.9913 C   0  0  0  0  0  0  0  0  0  0  0  0
    7.7845   -1.9330   20.8192 N   0  0  0  0  0  0  0  0  0  0  0  0
    8.1795   -2.2619   22.0138 C   0  0  0  0  0  0  0  0  0  0  0  0
    7.9465   -1.3066   22.9482 N   0  0  0  0  0  0  0  0  0  0  0  0
    7.3080   -0.2706   22.3144 C   0  0  0  0  0  0  0  0  0  0  0  0
    7.0582    1.0250   23.0317 C   0  0  0  0  0  0  0  0  0  0  0  0
    6.3777    0.8522   23.8759 H   0  0  0  0  0  0  0  0  0  0  0  0
    6.5536    1.7238   22.3583 H   0  0  0  0  0  0  0  0  0  0  0  0
    8.3651    1.6479   23.5223 C   0  0  0  0  0  0  0  0  0  0  0  0
    8.7125    1.7163   24.8797 C   0  0  0  0  0  0  0  0  0  0  0  0
    7.9644    1.4434   25.6150 H   0  0  0  0  0  0  0  0  0  0  0  0
    9.9883    2.0960   25.3045 C   0  0  0  0  0  0  0  0  0  0  0  0
   10.2511    2.0233   26.3556 H   0  0  0  0  0  0  0  0  0  0  0  0
   10.9237    2.5276   24.3621 C   0  0  0  0  0  0  0  0  0  0  0  0
   11.8982    2.8903   24.6672 H   0  0  0  0  0  0  0  0  0  0  0  0
   10.6030    2.5065   23.0054 C   0  0  0  0  0  0  0  0  0  0  0  0
   11.3135    2.8281   22.2529 H   0  0  0  0  0  0  0  0  0  0  0  0
    9.3446    2.0525   22.6040 C   0  0  0  0  0  0  0  0  0  0  0  0
    9.0162    1.9824   20.9065 Cl  0  0  0  0  0  0  0  0  0  0  0  0
    8.6565   -1.4417   24.2066 C   0  0  0  0  0  0  0  0  0  0  0  0
    8.0581   -1.0561   25.0347 H   0  0  0  0  0  0  0  0  0  0  0  0
    9.5840   -0.8625   24.1764 H   0  0  0  0  0  0  0  0  0  0  0  0
    8.9778   -2.9413   24.3535 C   0  0  0  0  0  0  0  0  0  0  0  0
    9.9763   -3.0849   24.7694 H   0  0  0  0  0  0  0  0  0  0  0  0
    8.2572   -3.4411   25.0022 H   0  0  0  0  0  0  0  0  0  0  0  0
    8.9249   -3.6973   22.6823 S   0  0  0  0  0  0  0  0  0  0  0  0
    5.3699    0.6926   20.0259 C   0  0  0  0  0  0  0  0  0  0  0  0
    4.8708    0.6999   20.9940 H   0  0  0  0  0  0  0  0  0  0  0  0
    4.8283    1.3501   18.9269 C   0  0  0  0  0  0  0  0  0  0  0  0
    3.8978    1.8976   19.0049 H   0  0  0  0  0  0  0  0  0  0  0  0
  1  2  1  0
  2  3  2  0
  3  4  1  0
  4  5  1  0
  4  6  2  0
  6  7  1  0
  7  8  1  0
  8  9  2  0
  9 10  1  0
 10 11  1  0
 11 12  1  0
 12 13  1  0
 12 14  1  0
 12 15  1  0
 15 16  2  0
 16 17  1  0
 16 18  1  0
 18 19  1  0
 18 20  2  0
 20 21  1  0
 20 22  1  0
 22 23  1  0
 22 24  2  0
 24 25  1  0
 10 26  1  0
 26 27  1  0
 26 28  1  0
 26 29  1  0
 29 30  1  0
 29 31  1  0
 29 32  1  0
  6 33  1  0
 33 34  1  0
 33 35  2  0
 35 36  1  0
 35  2  1  0
 11  7  2  0
 24 15  1  0
 32  9  1  0
M  END
>  <cnnaffinity>  (1) 
-5.70867

>  <filename>  (1) 
Clc1ccccc1Cc1c(-c2cccnc2)nc2n1CCS2

$$$$
