
     RDKit          3D

 38 41  0  0  0  0  0  0  0  0999 V2000
    5.0736    1.9700   17.0100 H   0  0  0  0  0  0  0  0  0  0  0  0
    5.3294    1.2848   17.8138 C   0  0  0  0  0  0  0  0  0  0  0  0
    6.3224    0.4170   17.5635 N   0  0  0  0  0  0  0  0  0  0  0  0
    6.6670   -0.4030   18.5575 C   0  0  0  0  0  0  0  0  0  0  0  0
    7.4764   -1.0971   18.3326 H   0  0  0  0  0  0  0  0  0  0  0  0
    6.1067   -0.3837   19.8472 C   0  0  0  0  0  0  0  0  0  0  0  0
    6.8313   -1.1283   20.8887 C   0  0  0  0  0  0  0  0  0  0  0  0
    6.2672   -1.8798   21.8337 N   0  0  0  0  0  0  0  0  0  0  0  0
    7.3165   -2.3192   22.5415 N   0  0  0  0  0  0  0  0  0  0  0  0
    8.5033   -1.8744   22.1093 C   0  0  0  0  0  0  0  0  0  0  0  0
    8.2513   -1.0777   21.0193 C   0  0  0  0  0  0  0  0  0  0  0  0
    9.2101   -0.1624   20.2963 C   0  0  0  0  0  0  0  0  0  0  0  0
    9.5925   -0.6429   19.3862 H   0  0  0  0  0  0  0  0  0  0  0  0
    8.6411    0.7149   19.9604 H   0  0  0  0  0  0  0  0  0  0  0  0
   10.3408    0.3293   21.1646 C   0  0  0  0  0  0  0  0  0  0  0  0
   10.1346    1.4882   21.9176 C   0  0  0  0  0  0  0  0  0  0  0  0
    9.1559    1.9522   21.8797 H   0  0  0  0  0  0  0  0  0  0  0  0
   11.1495    2.0434   22.6903 C   0  0  0  0  0  0  0  0  0  0  0  0
   11.0057    2.9987   23.1863 H   0  0  0  0  0  0  0  0  0  0  0  0
   12.3756    1.3821   22.7907 C   0  0  0  0  0  0  0  0  0  0  0  0
   13.5958    2.0740   23.7829 Cl  0  0  0  0  0  0  0  0  0  0  0  0
   12.5782    0.1713   22.1132 C   0  0  0  0  0  0  0  0  0  0  0  0
   14.0794   -0.6864   22.2343 Cl  0  0  0  0  0  0  0  0  0  0  0  0
   11.5678   -0.3313   21.2825 C   0  0  0  0  0  0  0  0  0  0  0  0
   11.7728   -1.2422   20.7302 H   0  0  0  0  0  0  0  0  0  0  0  0
    9.5793   -2.2335   23.0830 C   0  0  0  0  0  0  0  0  0  0  0  0
    9.9436   -1.3134   23.5452 H   0  0  0  0  0  0  0  0  0  0  0  0
   10.4370   -2.6986   22.5952 H   0  0  0  0  0  0  0  0  0  0  0  0
    8.8615   -3.1599   24.0928 C   0  0  0  0  0  0  0  0  0  0  0  0
    9.1973   -4.1898   23.9708 H   0  0  0  0  0  0  0  0  0  0  0  0
    9.0734   -2.8617   25.1197 H   0  0  0  0  0  0  0  0  0  0  0  0
    7.3374   -3.0649   23.7829 C   0  0  0  0  0  0  0  0  0  0  0  0
    6.8721   -4.0426   23.6354 H   0  0  0  0  0  0  0  0  0  0  0  0
    6.7785   -2.5258   24.5551 H   0  0  0  0  0  0  0  0  0  0  0  0
    5.0122    0.4727   20.0630 C   0  0  0  0  0  0  0  0  0  0  0  0
    4.5038    0.4929   21.0279 H   0  0  0  0  0  0  0  0  0  0  0  0
    4.6303    1.3261   19.0259 C   0  0  0  0  0  0  0  0  0  0  0  0
    3.8281    2.0492   19.1519 H   0  0  0  0  0  0  0  0  0  0  0  0
  1  2  1  0
  2  3  2  0
  3  4  1  0
  4  5  1  0
  4  6  2  0
  6  7  1  0
  7  8  2  0
  8  9  1  0
  9 10  1  0
 10 11  2  0
 11 12  1  0
 12 13  1  0
 12 14  1  0
 12 15  1  0
 15 16  2  0
 16 17  1  0
 16 18  1  0
 18 19  1  0
 18 20  2  0
 20 21  1  0
 20 22  1  0
 22 23  1  0
 22 24  2  0
 24 25  1  0
 10 26  1  0
 26 27  1  0
 26 28  1  0
 26 29  1  0
 29 30  1  0
 29 31  1  0
 29 32  1  0
 32 33  1  0
 32 34  1  0
  6 35  1  0
 35 36  1  0
 35 37  2  0
 37 38  1  0
 37  2  1  0
 11  7  1  0
 24 15  1  0
 32  9  1  0
M  END
>  <cnnaffinity>  (1) 
-6.45574

>  <filename>  (1) 
Clc1ccc(Cc2c(-c3cccnc3)nn3c2CCC3)cc1Cl

$$$$
