
     RDKit          3D

 24 25  0  0  0  0  0  0  0  0999 V2000
    4.9434    1.7959   16.9474 H   0  0  0  0  0  0  0  0  0  0  0  0
    5.4180    1.3137   17.8030 C   0  0  0  0  0  0  0  0  0  0  0  0
    6.5908    0.7032   17.5612 N   0  0  0  0  0  0  0  0  0  0  0  0
    7.1723    0.0600   18.5832 C   0  0  0  0  0  0  0  0  0  0  0  0
    8.1042   -0.4648   18.3736 H   0  0  0  0  0  0  0  0  0  0  0  0
    6.6380    0.0197   19.8858 C   0  0  0  0  0  0  0  0  0  0  0  0
    7.4774   -0.8608   21.2154 S   0  0  0  0  0  0  0  0  0  0  0  0
    8.6347    0.4847   22.1916 S   0  0  0  0  0  0  0  0  0  0  0  0
    7.5640    1.2188   23.3107 O   0  0  0  0  0  0  0  0  0  0  0  0
    6.8677    2.3851   22.8994 C   0  0  0  0  0  0  0  0  0  0  0  0
    7.2142    3.1778   21.8051 C   0  0  0  0  0  0  0  0  0  0  0  0
    8.0850    2.9560   21.2017 H   0  0  0  0  0  0  0  0  0  0  0  0
    6.4197    4.2943   21.5099 C   0  0  0  0  0  0  0  0  0  0  0  0
    6.6246    4.9201   20.6427 H   0  0  0  0  0  0  0  0  0  0  0  0
    5.3293    4.6317   22.3044 C   0  0  0  0  0  0  0  0  0  0  0  0
    4.7311    5.5022   22.0716 H   0  0  0  0  0  0  0  0  0  0  0  0
    5.0321    3.8454   23.4244 C   0  0  0  0  0  0  0  0  0  0  0  0
    3.6675    4.2414   24.4247 Cl  0  0  0  0  0  0  0  0  0  0  0  0
    5.8089    2.7294   23.7393 C   0  0  0  0  0  0  0  0  0  0  0  0
    5.6257    2.1134   24.6134 H   0  0  0  0  0  0  0  0  0  0  0  0
    5.4035    0.6375   20.1137 C   0  0  0  0  0  0  0  0  0  0  0  0
    4.9716    0.5867   21.1165 H   0  0  0  0  0  0  0  0  0  0  0  0
    4.7794    1.2957   19.0476 C   0  0  0  0  0  0  0  0  0  0  0  0
    3.8150    1.7774   19.1750 H   0  0  0  0  0  0  0  0  0  0  0  0
  1  2  1  0
  2  3  2  0
  3  4  1  0
  4  5  1  0
  4  6  2  0
  6  7  1  0
  7  8  1  0
  8  9  1  0
  9 10  1  0
 10 11  2  0
 11 12  1  0
 11 13  1  0
 13 14  1  0
 13 15  2  0
 15 16  1  0
 15 17  1  0
 17 18  1  0
 17 19  2  0
 19 20  1  0
  6 21  1  0
 21 22  1  0
 21 23  2  0
 23 24  1  0
 23  2  1  0
 19 10  1  0
M  END
>  <cnnaffinity>  (1) 
-4.6717

>  <filename>  (1) 
Clc1cccc(OSSc2cccnc2)c1

$$$$
