
     RDKit          3D

 30 32  0  0  0  0  0  0  0  0999 V2000
    5.3370    1.3494   17.0527 H   0  0  0  0  0  0  0  0  0  0  0  0
    5.7408    0.8255   17.9157 C   0  0  0  0  0  0  0  0  0  0  0  0
    6.8617    0.1138   17.7059 N   0  0  0  0  0  0  0  0  0  0  0  0
    7.4072   -0.4904   18.7668 C   0  0  0  0  0  0  0  0  0  0  0  0
    8.3149   -1.0607   18.5612 H   0  0  0  0  0  0  0  0  0  0  0  0
    6.9136   -0.3934   20.0782 C   0  0  0  0  0  0  0  0  0  0  0  0
    7.7665   -0.8881   21.2013 C   0  0  0  0  0  0  0  0  0  0  0  0
    8.2421   -2.2450   21.0306 N   0  0  0  0  0  0  0  0  0  0  0  0
    7.8994   -2.5841   20.1412 H   0  0  0  0  0  0  0  0  0  0  0  0
    7.9697   -3.2258   22.0319 C   0  0  0  0  0  0  0  0  0  0  0  0
    9.0390   -3.7738   22.7464 C   0  0  0  0  0  0  0  0  0  0  0  0
   10.0263   -3.3995   22.4988 H   0  0  0  0  0  0  0  0  0  0  0  0
    8.8364   -4.7656   23.7089 C   0  0  0  0  0  0  0  0  0  0  0  0
    9.6836   -5.1782   24.2526 H   0  0  0  0  0  0  0  0  0  0  0  0
    7.5444   -5.2215   23.9775 C   0  0  0  0  0  0  0  0  0  0  0  0
    7.3542   -5.9823   24.7254 H   0  0  0  0  0  0  0  0  0  0  0  0
    6.4617   -4.6936   23.2630 C   0  0  0  0  0  0  0  0  0  0  0  0
    4.8860   -5.3588   23.5516 Cl  0  0  0  0  0  0  0  0  0  0  0  0
    6.6651   -3.6881   22.3040 C   0  0  0  0  0  0  0  0  0  0  0  0
    5.3201   -2.9665   21.4921 Cl  0  0  0  0  0  0  0  0  0  0  0  0
    7.5933   -0.3484   22.5829 C   0  0  0  0  0  0  0  0  0  0  0  0
    6.8011    0.3700   22.7733 H   0  0  0  0  0  0  0  0  0  0  0  0
    7.7586   -1.0679   23.3775 H   0  0  0  0  0  0  0  0  0  0  0  0
    8.7842    0.0743   21.7759 C   0  0  0  0  0  0  0  0  0  0  0  0
    9.7435   -0.3621   22.0395 H   0  0  0  0  0  0  0  0  0  0  0  0
    8.8108    1.0794   21.3643 H   0  0  0  0  0  0  0  0  0  0  0  0
    5.6913    0.2774   20.2599 C   0  0  0  0  0  0  0  0  0  0  0  0
    5.2305    0.2816   21.2510 H   0  0  0  0  0  0  0  0  0  0  0  0
    5.1140    0.9145   19.1644 C   0  0  0  0  0  0  0  0  0  0  0  0
    4.2112    1.5059   19.2756 H   0  0  0  0  0  0  0  0  0  0  0  0
  1  2  1  0
  2  3  2  0
  3  4  1  0
  4  5  1  0
  4  6  2  0
  6  7  1  0
  7  8  1  0
  8  9  1  0
  8 10  1  0
 10 11  2  0
 11 12  1  0
 11 13  1  0
 13 14  1  0
 13 15  2  0
 15 16  1  0
 15 17  1  0
 17 18  1  0
 17 19  2  0
 19 20  1  0
  7 21  1  0
 21 22  1  0
 21 23  1  0
 21 24  1  0
 24 25  1  0
 24 26  1  0
  6 27  1  0
 27 28  1  0
 27 29  2  0
 29 30  1  0
 29  2  1  0
 24  7  1  0
 19 10  1  0
M  END
>  <cnnaffinity>  (1) 
-4.80868

>  <filename>  (1) 
Clc1cccc(NC2(c3cccnc3)CC2)c1Cl

$$$$
