
     RDKit          3D

 27 29  0  0  0  0  0  0  0  0999 V2000
    4.9244    1.7834   16.9961 H   0  0  0  0  0  0  0  0  0  0  0  0
    5.4074    1.2932   17.8377 C   0  0  0  0  0  0  0  0  0  0  0  0
    6.5712    0.6803   17.5742 N   0  0  0  0  0  0  0  0  0  0  0  0
    7.1698    0.0508   18.5882 C   0  0  0  0  0  0  0  0  0  0  0  0
    8.1167   -0.4318   18.3645 H   0  0  0  0  0  0  0  0  0  0  0  0
    6.6475   -0.0099   19.8878 C   0  0  0  0  0  0  0  0  0  0  0  0
    7.3769   -0.7312   20.9375 C   0  0  0  0  0  0  0  0  0  0  0  0
    7.9569   -1.8827   20.7078 N   0  0  0  0  0  0  0  0  0  0  0  0
    8.4447   -2.3177   21.9148 O   0  0  0  0  0  0  0  0  0  0  0  0
    8.1636   -1.4122   22.8512 C   0  0  0  0  0  0  0  0  0  0  0  0
    8.5244   -1.6270   23.8467 H   0  0  0  0  0  0  0  0  0  0  0  0
    7.5093   -0.3510   22.3179 C   0  0  0  0  0  0  0  0  0  0  0  0
    7.1162    0.8854   23.0013 C   0  0  0  0  0  0  0  0  0  0  0  0
    7.2556    2.1335   22.3767 C   0  0  0  0  0  0  0  0  0  0  0  0
    7.6338    2.1689   21.3617 H   0  0  0  0  0  0  0  0  0  0  0  0
    6.8891    3.2984   23.0397 C   0  0  0  0  0  0  0  0  0  0  0  0
    6.9841    4.2636   22.5549 H   0  0  0  0  0  0  0  0  0  0  0  0
    6.3929    3.2312   24.3465 C   0  0  0  0  0  0  0  0  0  0  0  0
    5.9616    4.7036   25.1383 Cl  0  0  0  0  0  0  0  0  0  0  0  0
    6.2639    1.9859   24.9832 C   0  0  0  0  0  0  0  0  0  0  0  0
    5.6739    1.8490   26.6021 Cl  0  0  0  0  0  0  0  0  0  0  0  0
    6.6279    0.8223   24.3091 C   0  0  0  0  0  0  0  0  0  0  0  0
    6.5189   -0.1395   24.7997 H   0  0  0  0  0  0  0  0  0  0  0  0
    5.4269    0.6348   20.1499 C   0  0  0  0  0  0  0  0  0  0  0  0
    5.0028    0.6388   21.1579 H   0  0  0  0  0  0  0  0  0  0  0  0
    4.8034    1.3048   19.1014 C   0  0  0  0  0  0  0  0  0  0  0  0
    3.8740    1.8426   19.2553 H   0  0  0  0  0  0  0  0  0  0  0  0
  1  2  1  0
  2  3  2  0
  3  4  1  0
  4  5  1  0
  4  6  2  0
  6  7  1  0
  7  8  2  0
  8  9  1  0
  9 10  1  0
 10 11  1  0
 10 12  2  0
 12 13  1  0
 13 14  2  0
 14 15  1  0
 14 16  1  0
 16 17  1  0
 16 18  2  0
 18 19  1  0
 18 20  1  0
 20 21  1  0
 20 22  2  0
 22 23  1  0
  6 24  1  0
 24 25  1  0
 24 26  2  0
 26 27  1  0
 26  2  1  0
 12  7  1  0
 22 13  1  0
M  END
>  <cnnaffinity>  (1) 
-5.31143

>  <filename>  (1) 
Clc1ccc(-c2conc2-c2cccnc2)cc1Cl

$$$$
