
     RDKit          3D

 30 33  0  0  0  0  0  0  0  0999 V2000
    4.9265    1.7725   17.0029 H   0  0  0  0  0  0  0  0  0  0  0  0
    5.4111    1.2852   17.8465 C   0  0  0  0  0  0  0  0  0  0  0  0
    6.5753    0.6666   17.5946 N   0  0  0  0  0  0  0  0  0  0  0  0
    7.1801    0.0536   18.6164 C   0  0  0  0  0  0  0  0  0  0  0  0
    8.1254   -0.4320   18.3845 H   0  0  0  0  0  0  0  0  0  0  0  0
    6.6452    0.0163   19.9119 C   0  0  0  0  0  0  0  0  0  0  0  0
    7.3620   -0.6884   20.9676 C   0  0  0  0  0  0  0  0  0  0  0  0
    8.5471   -1.3257   20.7552 N   0  0  0  0  0  0  0  0  0  0  0  0
    8.8013   -1.8180   21.9506 C   0  0  0  0  0  0  0  0  0  0  0  0
    9.9962   -2.8181   22.7304 S   0  0  0  0  0  0  0  0  0  0  0  0
    9.0758   -2.7657   24.2041 C   0  0  0  0  0  0  0  0  0  0  0  0
    9.4617   -3.2857   25.0706 H   0  0  0  0  0  0  0  0  0  0  0  0
    7.9543   -2.0183   24.1187 C   0  0  0  0  0  0  0  0  0  0  0  0
    6.9683   -1.7624   25.1971 C   0  0  0  0  0  0  0  0  0  0  0  0
    6.2477   -0.5550   25.2806 C   0  0  0  0  0  0  0  0  0  0  0  0
    6.4010    0.2102   24.5232 H   0  0  0  0  0  0  0  0  0  0  0  0
    5.3355   -0.3622   26.3191 C   0  0  0  0  0  0  0  0  0  0  0  0
    4.7770    0.5668   26.3698 H   0  0  0  0  0  0  0  0  0  0  0  0
    5.1251   -1.3484   27.2889 C   0  0  0  0  0  0  0  0  0  0  0  0
    4.4167   -1.2022   28.0978 H   0  0  0  0  0  0  0  0  0  0  0  0
    5.8467   -2.5413   27.2030 C   0  0  0  0  0  0  0  0  0  0  0  0
    5.5740   -3.7893   28.3834 Cl  0  0  0  0  0  0  0  0  0  0  0  0
    6.7667   -2.7556   26.1783 C   0  0  0  0  0  0  0  0  0  0  0  0
    7.3025   -3.7023   26.1387 H   0  0  0  0  0  0  0  0  0  0  0  0
    7.8358   -1.4836   22.8312 N   0  0  0  0  0  0  0  0  0  0  0  0
    6.8838   -0.7510   22.2067 N   0  0  0  0  0  0  0  0  0  0  0  0
    5.4253    0.6588   20.1686 C   0  0  0  0  0  0  0  0  0  0  0  0
    4.9985    0.6342   21.1773 H   0  0  0  0  0  0  0  0  0  0  0  0
    4.8045    1.3097   19.1092 C   0  0  0  0  0  0  0  0  0  0  0  0
    3.8737    1.8432   19.2589 H   0  0  0  0  0  0  0  0  0  0  0  0
  1  2  1  0
  2  3  2  0
  3  4  1  0
  4  5  1  0
  4  6  2  0
  6  7  1  0
  7  8  1  0
  8  9  2  0
  9 10  1  0
 10 11  1  0
 11 12  1  0
 11 13  2  0
 13 14  1  0
 14 15  2  0
 15 16  1  0
 15 17  1  0
 17 18  1  0
 17 19  2  0
 19 20  1  0
 19 21  1  0
 21 22  1  0
 21 23  2  0
 23 24  1  0
 13 25  1  0
 25 26  1  0
  6 27  1  0
 27 28  1  0
 27 29  2  0
 29 30  1  0
 29  2  1  0
 26  7  2  0
 25  9  1  0
 23 14  1  0
M  END
>  <cnnaffinity>  (1) 
-5.57912

>  <filename>  (1) 
Clc1cccc(-c2csc3nc(-c4cccnc4)nn23)c1

$$$$
