
     RDKit          3D

 29 31  0  0  0  0  0  0  0  0999 V2000
    4.9208    1.7807   16.9972 H   0  0  0  0  0  0  0  0  0  0  0  0
    5.4029    1.2946   17.8390 C   0  0  0  0  0  0  0  0  0  0  0  0
    6.5662    0.6777   17.5757 N   0  0  0  0  0  0  0  0  0  0  0  0
    7.1662    0.0556   18.5914 C   0  0  0  0  0  0  0  0  0  0  0  0
    8.1132   -0.4354   18.3746 H   0  0  0  0  0  0  0  0  0  0  0  0
    6.6491    0.0231   19.8942 C   0  0  0  0  0  0  0  0  0  0  0  0
    7.4008   -0.7043   20.9142 C   0  0  0  0  0  0  0  0  0  0  0  0
    7.8047   -1.9538   20.8581 N   0  0  0  0  0  0  0  0  0  0  0  0
    8.4394   -2.1974   22.0217 N   0  0  0  0  0  0  0  0  0  0  0  0
    8.4620   -1.1461   22.7626 N   0  0  0  0  0  0  0  0  0  0  0  0
    7.8164   -0.1778   22.0873 N   0  0  0  0  0  0  0  0  0  0  0  0
    7.6743    1.1780   22.6130 C   0  0  0  0  0  0  0  0  0  0  0  0
    7.7385    1.8695   21.7744 H   0  0  0  0  0  0  0  0  0  0  0  0
    8.5351    1.3636   23.2608 H   0  0  0  0  0  0  0  0  0  0  0  0
    6.3899    1.4128   23.3961 C   0  0  0  0  0  0  0  0  0  0  0  0
    6.0451    0.5106   24.4159 C   0  0  0  0  0  0  0  0  0  0  0  0
    6.7014   -0.3354   24.5981 H   0  0  0  0  0  0  0  0  0  0  0  0
    4.8847    0.6743   25.1711 C   0  0  0  0  0  0  0  0  0  0  0  0
    4.6420   -0.0487   25.9449 H   0  0  0  0  0  0  0  0  0  0  0  0
    4.0422    1.7622   24.9311 C   0  0  0  0  0  0  0  0  0  0  0  0
    3.1391    1.8962   25.5185 H   0  0  0  0  0  0  0  0  0  0  0  0
    4.3677    2.6915   23.9421 C   0  0  0  0  0  0  0  0  0  0  0  0
    3.7381    3.5547   23.7447 H   0  0  0  0  0  0  0  0  0  0  0  0
    5.5392    2.5152   23.1951 C   0  0  0  0  0  0  0  0  0  0  0  0
    5.8890    3.7334   21.9917 Cl  0  0  0  0  0  0  0  0  0  0  0  0
    5.4293    0.6633   20.1577 C   0  0  0  0  0  0  0  0  0  0  0  0
    4.9978    0.6342   21.1630 H   0  0  0  0  0  0  0  0  0  0  0  0
    4.7981    1.3143   19.1015 C   0  0  0  0  0  0  0  0  0  0  0  0
    3.8643    1.8463   19.2532 H   0  0  0  0  0  0  0  0  0  0  0  0
  1  2  1  0
  2  3  2  0
  3  4  1  0
  4  5  1  0
  4  6  2  0
  6  7  1  0
  7  8  2  0
  8  9  1  0
  9 10  2  0
 10 11  1  0
 11 12  1  0
 12 13  1  0
 12 14  1  0
 12 15  1  0
 15 16  2  0
 16 17  1  0
 16 18  1  0
 18 19  1  0
 18 20  2  0
 20 21  1  0
 20 22  1  0
 22 23  1  0
 22 24  2  0
 24 25  1  0
  6 26  1  0
 26 27  1  0
 26 28  2  0
 28 29  1  0
 28  2  1  0
 11  7  1  0
 24 15  1  0
M  END
>  <cnnaffinity>  (1) 
-4.76248

>  <filename>  (1) 
Clc1ccccc1Cn1nnnc1-c1cccnc1

$$$$
