
     RDKit          3D

 36 38  0  0  0  0  0  0  0  0999 V2000
    5.0716    1.7649   17.0307 H   0  0  0  0  0  0  0  0  0  0  0  0
    5.4874    1.2004   17.8644 C   0  0  0  0  0  0  0  0  0  0  0  0
    6.6147    0.5229   17.6187 N   0  0  0  0  0  0  0  0  0  0  0  0
    7.1525   -0.1595   18.6419 C   0  0  0  0  0  0  0  0  0  0  0  0
    8.0954   -0.6510   18.4141 H   0  0  0  0  0  0  0  0  0  0  0  0
    6.6153   -0.2285   19.9475 C   0  0  0  0  0  0  0  0  0  0  0  0
    7.3172   -0.9923   21.0904 C   0  0  2  0  0  0  0  0  0  0  0  0
    6.6996   -2.4308   21.2140 C   0  0  0  0  0  0  0  0  0  0  0  0
    5.6026   -2.3172   21.2026 H   0  0  0  0  0  0  0  0  0  0  0  0
    6.9387   -2.9635   20.2931 H   0  0  0  0  0  0  0  0  0  0  0  0
    7.0823   -3.3076   22.4055 C   0  0  0  0  0  0  0  0  0  0  0  0
    6.7103   -2.9856   23.7273 C   0  0  0  0  0  0  0  0  0  0  0  0
    6.0453   -2.1479   23.9093 H   0  0  0  0  0  0  0  0  0  0  0  0
    7.1164   -3.7545   24.8224 C   0  0  0  0  0  0  0  0  0  0  0  0
    6.8917   -3.4268   25.8313 H   0  0  0  0  0  0  0  0  0  0  0  0
    7.8024   -4.9509   24.6373 C   0  0  0  0  0  0  0  0  0  0  0  0
    8.0959   -5.5897   25.4678 H   0  0  0  0  0  0  0  0  0  0  0  0
    8.0729   -5.3605   23.3322 C   0  0  0  0  0  0  0  0  0  0  0  0
    8.8182   -6.8961   23.0870 Cl  0  0  0  0  0  0  0  0  0  0  0  0
    7.7273   -4.5520   22.2363 C   0  0  0  0  0  0  0  0  0  0  0  0
    8.0669   -5.1652   20.6573 Cl  0  0  0  0  0  0  0  0  0  0  0  0
    7.2376   -0.2222   22.4429 C   0  0  0  0  0  0  0  0  0  0  0  0
    6.3163   -0.4401   22.9902 H   0  0  0  0  0  0  0  0  0  0  0  0
    7.2198    0.8584   22.2332 H   0  0  0  0  0  0  0  0  0  0  0  0
    8.4423   -0.5359   23.2188 N   0  0  0  0  0  0  0  0  0  0  0  0
    8.2582   -1.1791   23.9769 H   0  0  0  0  0  0  0  0  0  0  0  0
    9.4664   -1.0702   22.3129 C   0  0  0  0  0  0  0  0  0  0  0  0
    9.7264   -2.1124   22.5497 H   0  0  0  0  0  0  0  0  0  0  0  0
   10.3894   -0.4761   22.3879 H   0  0  0  0  0  0  0  0  0  0  0  0
    8.8596   -0.9591   20.9122 C   0  0  0  0  0  0  0  0  0  0  0  0
    9.1103    0.0351   20.5155 H   0  0  0  0  0  0  0  0  0  0  0  0
    9.2487   -1.7018   20.2065 H   0  0  0  0  0  0  0  0  0  0  0  0
    5.4161    0.4686   20.1598 C   0  0  0  0  0  0  0  0  0  0  0  0
    4.9521    0.4844   21.1491 H   0  0  0  0  0  0  0  0  0  0  0  0
    4.8501    1.1983   19.1091 C   0  0  0  0  0  0  0  0  0  0  0  0
    3.9511    1.7825   19.2568 H   0  0  0  0  0  0  0  0  0  0  0  0
  1  2  1  0
  2  3  2  0
  3  4  1  0
  4  5  1  0
  4  6  2  0
  6  7  1  0
  7  8  1  1
  8  9  1  0
  8 10  1  0
  8 11  1  0
 11 12  2  0
 12 13  1  0
 12 14  1  0
 14 15  1  0
 14 16  2  0
 16 17  1  0
 16 18  1  0
 18 19  1  0
 18 20  2  0
 20 21  1  0
  7 22  1  0
 22 23  1  0
 22 24  1  0
 22 25  1  0
 25 26  1  0
 25 27  1  0
 27 28  1  0
 27 29  1  0
 27 30  1  0
 30 31  1  0
 30 32  1  0
  6 33  1  0
 33 34  1  0
 33 35  2  0
 35 36  1  0
 35  2  1  0
 30  7  1  0
 20 11  1  0
M  END
>  <cnnaffinity>  (1) 
-5.26631

>  <filename>  (1) 
Clc1cccc(C[C@]2(c3cccnc3)CCNC2)c1Cl

$$$$
