
     RDKit          3D

 27 29  0  0  0  0  0  0  0  0999 V2000
    9.8568   -4.2025   26.8498 Cl  0  0  0  0  0  0  0  0  0  0  0  0
    9.1586   -2.7291   26.2254 C   0  0  0  0  0  0  0  0  0  0  0  0
    9.0566   -2.5857   24.8448 C   0  0  0  0  0  0  0  0  0  0  0  0
    8.3404   -1.4930   24.3488 C   0  0  0  0  0  0  0  0  0  0  0  0
    8.1081   -1.3355   22.9077 C   0  0  0  0  0  0  0  0  0  0  0  0
    7.2405   -0.4720   22.2705 C   0  0  0  0  0  0  0  0  0  0  0  0
    7.3579   -0.6739   20.9367 N   0  0  0  0  0  0  0  0  0  0  0  0
    6.6562   -0.0040   19.9103 C   0  0  0  0  0  0  0  0  0  0  0  0
    5.4358    0.6410   20.1632 C   0  0  0  0  0  0  0  0  0  0  0  0
    4.8146    1.2973   19.1028 C   0  0  0  0  0  0  0  0  0  0  0  0
    5.4190    1.2815   17.8431 C   0  0  0  0  0  0  0  0  0  0  0  0
    6.5830    0.6565   17.5954 N   0  0  0  0  0  0  0  0  0  0  0  0
    7.1863    0.0340   18.6104 C   0  0  0  0  0  0  0  0  0  0  0  0
    8.1340   -0.4481   18.3827 H   0  0  0  0  0  0  0  0  0  0  0  0
    4.9597    1.7861   16.9988 H   0  0  0  0  0  0  0  0  0  0  0  0
    3.8832    1.8315   19.2521 H   0  0  0  0  0  0  0  0  0  0  0  0
    4.9768    0.6297   21.1519 H   0  0  0  0  0  0  0  0  0  0  0  0
    8.2721   -1.6198   20.6528 N   0  0  0  0  0  0  0  0  0  0  0  0
    8.7165   -2.0297   21.8238 C   0  0  0  0  0  0  0  0  0  0  0  0
    9.4723   -2.8078   21.8371 H   0  0  0  0  0  0  0  0  0  0  0  0
    6.5561    0.2783   22.6453 H   0  0  0  0  0  0  0  0  0  0  0  0
    7.8181   -0.5734   25.2766 C   0  0  0  0  0  0  0  0  0  0  0  0
    8.0540   -0.7830   26.6305 C   0  0  0  0  0  0  0  0  0  0  0  0
    8.7140   -1.8517   27.1109 N   0  0  0  0  0  0  0  0  0  0  0  0
    7.6710   -0.0866   27.3783 H   0  0  0  0  0  0  0  0  0  0  0  0
    7.2224    0.2704   24.9473 H   0  0  0  0  0  0  0  0  0  0  0  0
    9.5047   -3.3296   24.2025 H   0  0  0  0  0  0  0  0  0  0  0  0
  1  2  1  0
  2  3  2  0
  3  4  1  0
  4  5  1  0
  5  6  2  0
  6  7  1  0
  7  8  1  0
  8  9  2  0
  9 10  1  0
 10 11  2  0
 11 12  1  0
 12 13  2  0
 13 14  1  0
 11 15  1  0
 10 16  1  0
  9 17  1  0
  7 18  1  0
 18 19  2  0
 19 20  1  0
  6 21  1  0
  4 22  2  0
 22 23  1  0
 23 24  2  0
 23 25  1  0
 22 26  1  0
  3 27  1  0
 24  2  1  0
 19  5  1  0
 13  8  1  0
M  END
>  <cnnaffinity>  (1) 
-5.11985

>  <filename>  (1) 
Clc1cc(-c2cnn(-c3cccnc3)c2)ccn1

$$$$
