
     RDKit          3D

 29 31  0  0  0  0  0  0  0  0999 V2000
    8.5952   -3.7492   21.3955 H   0  0  0  0  0  0  0  0  0  0  0  0
    8.3222   -2.7244   21.6262 C   0  0  0  0  0  0  0  0  0  0  0  0
    7.7530   -2.0054   20.6434 N   0  0  0  0  0  0  0  0  0  0  0  0
    7.3885   -0.7466   20.9564 C   0  0  0  0  0  0  0  0  0  0  0  0
    6.6485   -0.0151   19.8935 C   0  0  0  0  0  0  0  0  0  0  0  0
    7.1674    0.0399   18.5940 C   0  0  0  0  0  0  0  0  0  0  0  0
    8.1197   -0.4382   18.3662 H   0  0  0  0  0  0  0  0  0  0  0  0
    6.5720    0.6780   17.5838 N   0  0  0  0  0  0  0  0  0  0  0  0
    5.4049    1.2905   17.8430 C   0  0  0  0  0  0  0  0  0  0  0  0
    4.9198    1.7802   17.0000 H   0  0  0  0  0  0  0  0  0  0  0  0
    4.8059    1.3036   19.1062 C   0  0  0  0  0  0  0  0  0  0  0  0
    3.8762    1.8421   19.2570 H   0  0  0  0  0  0  0  0  0  0  0  0
    5.4343    0.6393   20.1574 C   0  0  0  0  0  0  0  0  0  0  0  0
    5.0126    0.6393   21.1671 H   0  0  0  0  0  0  0  0  0  0  0  0
    7.6731   -0.1848   22.2550 C   0  0  0  0  0  0  0  0  0  0  0  0
    7.4005    1.2544   22.5816 C   0  0  0  0  0  0  0  0  0  0  0  0
    7.7982    2.2993   21.7200 C   0  0  0  0  0  0  0  0  0  0  0  0
    8.2996    2.0749   20.7799 H   0  0  0  0  0  0  0  0  0  0  0  0
    7.5337    3.6282   22.0605 C   0  0  0  0  0  0  0  0  0  0  0  0
    7.8474    4.4396   21.4086 H   0  0  0  0  0  0  0  0  0  0  0  0
    6.8661    3.9477   23.2466 C   0  0  0  0  0  0  0  0  0  0  0  0
    6.6609    4.9794   23.5180 H   0  0  0  0  0  0  0  0  0  0  0  0
    6.4687    2.9065   24.0906 C   0  0  0  0  0  0  0  0  0  0  0  0
    5.6621    3.2868   25.5862 Cl  0  0  0  0  0  0  0  0  0  0  0  0
    6.7268    1.5743   23.7721 C   0  0  0  0  0  0  0  0  0  0  0  0
    6.4134    0.7870   24.4537 H   0  0  0  0  0  0  0  0  0  0  0  0
    8.2285   -0.9353   23.2351 N   0  0  0  0  0  0  0  0  0  0  0  0
    8.5601   -2.1915   22.9031 C   0  0  0  0  0  0  0  0  0  0  0  0
    9.0262   -2.7923   23.6757 H   0  0  0  0  0  0  0  0  0  0  0  0
  1  2  1  0
  2  3  2  0
  3  4  1  0
  4  5  1  0
  5  6  2  0
  6  7  1  0
  6  8  1  0
  8  9  2  0
  9 10  1  0
  9 11  1  0
 11 12  1  0
 11 13  2  0
 13 14  1  0
  4 15  2  0
 15 16  1  0
 16 17  2  0
 17 18  1  0
 17 19  1  0
 19 20  1  0
 19 21  2  0
 21 22  1  0
 21 23  1  0
 23 24  1  0
 23 25  2  0
 25 26  1  0
 15 27  1  0
 27 28  2  0
 28 29  1  0
 28  2  1  0
 13  5  1  0
 25 16  1  0
M  END
>  <cnnaffinity>  (1) 
-5.12117

>  <filename>  (1) 
Clc1cccc(-c2nccnc2-c2cccnc2)c1

$$$$
