
     RDKit          3D

 28 29  0  0  0  0  0  0  0  0999 V2000
    4.9196    1.7890   16.9856 H   0  0  0  0  0  0  0  0  0  0  0  0
    5.3975    1.2982   17.8299 C   0  0  0  0  0  0  0  0  0  0  0  0
    6.5600    0.6829   17.5696 N   0  0  0  0  0  0  0  0  0  0  0  0
    7.1562    0.0664   18.5914 C   0  0  0  0  0  0  0  0  0  0  0  0
    8.1054   -0.4132   18.3685 H   0  0  0  0  0  0  0  0  0  0  0  0
    6.6355   -0.0072   19.8963 C   0  0  0  0  0  0  0  0  0  0  0  0
    7.4015   -0.7292   20.9796 C   0  0  0  0  0  0  0  0  0  0  0  0
    7.5969   -1.7741   20.7013 H   0  0  0  0  0  0  0  0  0  0  0  0
    6.8305   -0.7439   21.9153 H   0  0  0  0  0  0  0  0  0  0  0  0
    9.0305    0.0372   21.2841 S   0  0  0  0  0  0  0  0  0  0  0  0
    8.4602    1.5804   22.0748 C   0  0  0  0  0  0  0  0  0  0  0  0
    7.8009    2.1034   21.3808 H   0  0  0  0  0  0  0  0  0  0  0  0
    9.3531    2.2053   22.1849 H   0  0  0  0  0  0  0  0  0  0  0  0
    7.7915    1.3721   23.4196 C   0  0  0  0  0  0  0  0  0  0  0  0
    8.4074    0.5464   24.3748 C   0  0  0  0  0  0  0  0  0  0  0  0
    9.3595    0.0935   24.1188 H   0  0  0  0  0  0  0  0  0  0  0  0
    7.8327    0.3050   25.6207 C   0  0  0  0  0  0  0  0  0  0  0  0
    8.3471   -0.3362   26.3332 H   0  0  0  0  0  0  0  0  0  0  0  0
    6.6115    0.8971   25.9480 C   0  0  0  0  0  0  0  0  0  0  0  0
    6.1582    0.7176   26.9171 H   0  0  0  0  0  0  0  0  0  0  0  0
    5.9732    1.7334   25.0326 C   0  0  0  0  0  0  0  0  0  0  0  0
    5.0305    2.2225   25.2648 H   0  0  0  0  0  0  0  0  0  0  0  0
    6.5710    1.9647   23.7887 C   0  0  0  0  0  0  0  0  0  0  0  0
    5.7457    3.0543   22.7115 Cl  0  0  0  0  0  0  0  0  0  0  0  0
    5.4260    0.6468   20.1509 C   0  0  0  0  0  0  0  0  0  0  0  0
    5.0058    0.6402   21.1587 H   0  0  0  0  0  0  0  0  0  0  0  0
    4.7955    1.3133   19.0928 C   0  0  0  0  0  0  0  0  0  0  0  0
    3.8640    1.8525   19.2506 H   0  0  0  0  0  0  0  0  0  0  0  0
  1  2  1  0
  2  3  2  0
  3  4  1  0
  4  5  1  0
  4  6  2  0
  6  7  1  0
  7  8  1  0
  7  9  1  0
  7 10  1  0
 10 11  1  0
 11 12  1  0
 11 13  1  0
 11 14  1  0
 14 15  2  0
 15 16  1  0
 15 17  1  0
 17 18  1  0
 17 19  2  0
 19 20  1  0
 19 21  1  0
 21 22  1  0
 21 23  2  0
 23 24  1  0
  6 25  1  0
 25 26  1  0
 25 27  2  0
 27 28  1  0
 27  2  1  0
 23 14  1  0
M  END
>  <cnnaffinity>  (1) 
-4.63558

>  <filename>  (1) 
Clc1ccccc1CSCc1cccnc1

$$$$
