
     RDKit          3D

 30 32  0  0  0  0  0  0  0  0999 V2000
    8.7468   -3.2127   22.0852 H   0  0  0  0  0  0  0  0  0  0  0  0
    8.3238   -2.2346   21.9065 C   0  0  0  0  0  0  0  0  0  0  0  0
    8.2523   -1.2660   22.8583 N   0  0  0  0  0  0  0  0  0  0  0  0
    7.6590   -0.2756   22.2272 C   0  0  0  0  0  0  0  0  0  0  0  0
    7.3833    1.0605   22.8536 C   0  0  0  0  0  0  0  0  0  0  0  0
    6.5892    0.9367   23.5973 H   0  0  0  0  0  0  0  0  0  0  0  0
    7.0282    1.7592   22.0939 H   0  0  0  0  0  0  0  0  0  0  0  0
    8.6263    1.6521   23.4913 C   0  0  0  0  0  0  0  0  0  0  0  0
    8.8875    1.5544   24.8624 C   0  0  0  0  0  0  0  0  0  0  0  0
    8.1442    1.1397   25.5361 H   0  0  0  0  0  0  0  0  0  0  0  0
   10.1074    1.9843   25.3883 C   0  0  0  0  0  0  0  0  0  0  0  0
   10.3080    1.8673   26.4389 H   0  0  0  0  0  0  0  0  0  0  0  0
   11.0747    2.5428   24.5531 C   0  0  0  0  0  0  0  0  0  0  0  0
   12.0200    2.8694   24.9577 H   0  0  0  0  0  0  0  0  0  0  0  0
   10.8422    2.6648   23.1914 C   0  0  0  0  0  0  0  0  0  0  0  0
   11.6017    3.0703   22.5299 H   0  0  0  0  0  0  0  0  0  0  0  0
    9.6219    2.2228   22.6820 C   0  0  0  0  0  0  0  0  0  0  0  0
    9.3509    2.3807   20.9872 Cl  0  0  0  0  0  0  0  0  0  0  0  0
    7.3650   -0.6583   20.9388 N   0  0  0  0  0  0  0  0  0  0  0  0
    6.6549    0.0128   19.9006 C   0  0  0  0  0  0  0  0  0  0  0  0
    7.1633   -0.0014   18.5887 C   0  0  0  0  0  0  0  0  0  0  0  0
    8.0876   -0.5364   18.3741 H   0  0  0  0  0  0  0  0  0  0  0  0
    6.5747    0.6309   17.5688 N   0  0  0  0  0  0  0  0  0  0  0  0
    5.4262    1.2901   17.8124 C   0  0  0  0  0  0  0  0  0  0  0  0
    4.9923    1.8333   16.9742 H   0  0  0  0  0  0  0  0  0  0  0  0
    4.8090    1.3018   19.0654 C   0  0  0  0  0  0  0  0  0  0  0  0
    3.8766    1.8381   19.2041 H   0  0  0  0  0  0  0  0  0  0  0  0
    5.4334    0.6561   20.1384 C   0  0  0  0  0  0  0  0  0  0  0  0
    4.9839    0.6363   21.1318 H   0  0  0  0  0  0  0  0  0  0  0  0
    7.8237   -1.9154   20.7340 N   0  0  0  0  0  0  0  0  0  0  0  0
  1  2  1  0
  2  3  1  0
  3  4  2  0
  4  5  1  0
  5  6  1  0
  5  7  1  0
  5  8  1  0
  8  9  2  0
  9 10  1  0
  9 11  1  0
 11 12  1  0
 11 13  2  0
 13 14  1  0
 13 15  1  0
 15 16  1  0
 15 17  2  0
 17 18  1  0
  4 19  1  0
 19 20  1  0
 20 21  2  0
 21 22  1  0
 21 23  1  0
 23 24  2  0
 24 25  1  0
 24 26  1  0
 26 27  1  0
 26 28  2  0
 28 29  1  0
 19 30  1  0
 30  2  2  0
 17  8  1  0
 28 20  1  0
M  END
>  <cnnaffinity>  (1) 
-4.92402

>  <filename>  (1) 
Clc1ccccc1Cc1ncnn1-c1cccnc1

$$$$
