
     RDKit          3D

 29 31  0  0  0  0  0  0  0  0999 V2000
    6.6700    0.8352   22.5405 H   0  0  0  0  0  0  0  0  0  0  0  0
    7.1432   -0.1084   22.2717 C   0  0  0  0  0  0  0  0  0  0  0  0
    7.6775   -0.8152   23.2843 N   0  0  0  0  0  0  0  0  0  0  0  0
    8.3448   -1.9426   22.9490 C   0  0  0  0  0  0  0  0  0  0  0  0
    9.0135   -2.7855   23.9929 C   0  0  0  0  0  0  0  0  0  0  0  0
   10.3275   -3.2292   23.7251 C   0  0  0  0  0  0  0  0  0  0  0  0
   10.8516   -2.8827   22.8399 H   0  0  0  0  0  0  0  0  0  0  0  0
   10.9909   -4.1000   24.5823 C   0  0  0  0  0  0  0  0  0  0  0  0
   11.9960   -4.4020   24.3263 H   0  0  0  0  0  0  0  0  0  0  0  0
   10.3531   -4.5964   25.7154 C   0  0  0  0  0  0  0  0  0  0  0  0
   10.8161   -5.3370   26.3611 H   0  0  0  0  0  0  0  0  0  0  0  0
    9.0671   -4.1541   26.0291 C   0  0  0  0  0  0  0  0  0  0  0  0
    8.3516   -4.7712   27.4875 Cl  0  0  0  0  0  0  0  0  0  0  0  0
    8.4014   -3.2310   25.1907 C   0  0  0  0  0  0  0  0  0  0  0  0
    6.8202   -2.6940   25.6305 Cl  0  0  0  0  0  0  0  0  0  0  0  0
    8.4720   -2.3046   21.5773 C   0  0  0  0  0  0  0  0  0  0  0  0
    9.0251   -3.1964   21.3079 H   0  0  0  0  0  0  0  0  0  0  0  0
    7.9431   -1.6075   20.5656 N   0  0  0  0  0  0  0  0  0  0  0  0
    7.2199   -0.5167   20.9033 C   0  0  0  0  0  0  0  0  0  0  0  0
    6.5340    0.1828   19.7871 C   0  0  0  0  0  0  0  0  0  0  0  0
    7.0713    0.1445   18.4813 C   0  0  0  0  0  0  0  0  0  0  0  0
    7.9895   -0.3993   18.2792 H   0  0  0  0  0  0  0  0  0  0  0  0
    6.5187    0.7409   17.4218 N   0  0  0  0  0  0  0  0  0  0  0  0
    5.3661    1.4007   17.6185 C   0  0  0  0  0  0  0  0  0  0  0  0
    4.9297    1.8741   16.7416 H   0  0  0  0  0  0  0  0  0  0  0  0
    4.7263    1.4793   18.8573 C   0  0  0  0  0  0  0  0  0  0  0  0
    3.7869    2.0165   18.9466 H   0  0  0  0  0  0  0  0  0  0  0  0
    5.3200    0.8715   19.9628 C   0  0  0  0  0  0  0  0  0  0  0  0
    4.8292    0.9116   20.9360 H   0  0  0  0  0  0  0  0  0  0  0  0
  1  2  1  0
  2  3  2  0
  3  4  1  0
  4  5  1  0
  5  6  2  0
  6  7  1  0
  6  8  1  0
  8  9  1  0
  8 10  2  0
 10 11  1  0
 10 12  1  0
 12 13  1  0
 12 14  2  0
 14 15  1  0
  4 16  2  0
 16 17  1  0
 16 18  1  0
 18 19  2  0
 19 20  1  0
 20 21  2  0
 21 22  1  0
 21 23  1  0
 23 24  2  0
 24 25  1  0
 24 26  1  0
 26 27  1  0
 26 28  2  0
 28 29  1  0
 19  2  1  0
 28 20  1  0
 14  5  1  0
M  END
>  <cnnaffinity>  (1) 
-5.47309

>  <filename>  (1) 
Clc1cccc(-c2cnc(-c3cccnc3)cn2)c1Cl

$$$$
