
     RDKit          3D

 29 31  0  0  0  0  0  0  0  0999 V2000
    4.9154    1.8049   16.9715 H   0  0  0  0  0  0  0  0  0  0  0  0
    5.3843    1.3019   17.8166 C   0  0  0  0  0  0  0  0  0  0  0  0
    6.5482    0.6835   17.5539 N   0  0  0  0  0  0  0  0  0  0  0  0
    7.1552    0.0623   18.5715 C   0  0  0  0  0  0  0  0  0  0  0  0
    8.1138   -0.3948   18.3236 H   0  0  0  0  0  0  0  0  0  0  0  0
    6.6458    0.0144   19.8879 C   0  0  0  0  0  0  0  0  0  0  0  0
    7.3513   -0.6442   20.9971 C   0  0  0  0  0  0  0  0  0  0  0  0
    7.4195   -0.3677   22.3555 C   0  0  0  0  0  0  0  0  0  0  0  0
    6.8189    0.7289   22.9207 O   0  0  0  0  0  0  0  0  0  0  0  0
    6.5708    0.8258   24.2730 C   0  0  0  0  0  0  0  0  0  0  0  0
    6.1917   -0.2677   25.0586 C   0  0  0  0  0  0  0  0  0  0  0  0
    6.1197   -1.2468   24.5954 H   0  0  0  0  0  0  0  0  0  0  0  0
    5.9142   -0.0885   26.4143 C   0  0  0  0  0  0  0  0  0  0  0  0
    5.6476   -0.9307   27.0428 H   0  0  0  0  0  0  0  0  0  0  0  0
    5.9897    1.1875   26.9725 C   0  0  0  0  0  0  0  0  0  0  0  0
    5.6479    1.4020   28.6633 Cl  0  0  0  0  0  0  0  0  0  0  0  0
    6.3329    2.2914   26.1867 C   0  0  0  0  0  0  0  0  0  0  0  0
    6.3656    3.2765   26.6450 H   0  0  0  0  0  0  0  0  0  0  0  0
    6.6192    2.1106   24.8310 C   0  0  0  0  0  0  0  0  0  0  0  0
    6.8682    2.9555   24.1949 H   0  0  0  0  0  0  0  0  0  0  0  0
    8.2583   -1.3583   22.9113 C   0  0  0  0  0  0  0  0  0  0  0  0
    8.5890   -1.4908   23.9373 H   0  0  0  0  0  0  0  0  0  0  0  0
    8.6748   -2.2018   21.9739 N   0  0  0  0  0  0  0  0  0  0  0  0
    8.1292   -1.7492   20.8427 N   0  0  0  0  0  0  0  0  0  0  0  0
    8.2617   -2.2707   19.9857 H   0  0  0  0  0  0  0  0  0  0  0  0
    5.4282    0.6643   20.1368 C   0  0  0  0  0  0  0  0  0  0  0  0
    5.0297    0.6513   21.1513 H   0  0  0  0  0  0  0  0  0  0  0  0
    4.7900    1.3156   19.0832 C   0  0  0  0  0  0  0  0  0  0  0  0
    3.8619    1.8509   19.2343 H   0  0  0  0  0  0  0  0  0  0  0  0
  1  2  1  0
  2  3  2  0
  3  4  1  0
  4  5  1  0
  4  6  2  0
  6  7  1  0
  7  8  2  0
  8  9  1  0
  9 10  1  0
 10 11  2  0
 11 12  1  0
 11 13  1  0
 13 14  1  0
 13 15  2  0
 15 16  1  0
 15 17  1  0
 17 18  1  0
 17 19  2  0
 19 20  1  0
  8 21  1  0
 21 22  1  0
 21 23  2  0
 23 24  1  0
 24 25  1  0
  6 26  1  0
 26 27  1  0
 26 28  2  0
 28 29  1  0
 28  2  1  0
 24  7  1  0
 19 10  1  0
M  END
>  <cnnaffinity>  (1) 
-5.23565

>  <filename>  (1) 
Clc1ccc(Oc2cn[nH]c2-c2cccnc2)cc1

$$$$
