
     RDKit          3D

 39 41  0  0  0  0  0  0  0  0999 V2000
    4.9110    1.8084   16.9826 H   0  0  0  0  0  0  0  0  0  0  0  0
    5.3887    1.3075   17.8239 C   0  0  0  0  0  0  0  0  0  0  0  0
    6.5512    0.6974   17.5535 N   0  0  0  0  0  0  0  0  0  0  0  0
    7.1712    0.0765   18.5632 C   0  0  0  0  0  0  0  0  0  0  0  0
    8.1135   -0.4157   18.3302 H   0  0  0  0  0  0  0  0  0  0  0  0
    6.6762   -0.0067   19.8927 C   0  0  0  0  0  0  0  0  0  0  0  0
    7.3797   -0.7434   20.8762 N   0  0  0  0  0  0  0  0  0  0  0  0
    6.6469   -1.5959   21.8091 C   0  0  0  0  0  0  0  0  0  0  0  0
    6.3326   -1.0666   22.7301 H   0  0  0  0  0  0  0  0  0  0  0  0
    5.7321   -1.9246   21.3005 H   0  0  0  0  0  0  0  0  0  0  0  0
    7.5072   -2.8126   22.1811 C   0  0  0  0  0  0  0  0  0  0  0  0
    7.6589   -3.4026   21.2672 H   0  0  0  0  0  0  0  0  0  0  0  0
    6.9626   -3.4487   22.8920 H   0  0  0  0  0  0  0  0  0  0  0  0
    8.8711   -2.3694   22.7412 C   0  0  0  0  0  0  0  0  0  0  0  0
    9.5104   -3.2396   22.9457 H   0  0  0  0  0  0  0  0  0  0  0  0
    8.7353   -1.8513   23.7065 H   0  0  0  0  0  0  0  0  0  0  0  0
    9.5670   -1.4245   21.7419 C   0  0  0  0  0  0  0  0  0  0  0  0
    9.7953   -1.9693   20.8177 H   0  0  0  0  0  0  0  0  0  0  0  0
   10.5193   -1.0469   22.1383 H   0  0  0  0  0  0  0  0  0  0  0  0
    8.6790   -0.2339   21.3366 C   0  0  2  0  0  0  0  0  0  0  0  0
    9.1513    0.2506   20.4684 H   0  0  0  0  0  0  0  0  0  0  0  0
    8.5483    0.8549   22.4335 C   0  0  0  0  0  0  0  0  0  0  0  0
    7.8243    1.5928   22.0622 H   0  0  0  0  0  0  0  0  0  0  0  0
    8.1186    0.4157   23.3437 H   0  0  0  0  0  0  0  0  0  0  0  0
    9.8680    1.5285   22.7471 C   0  0  0  0  0  0  0  0  0  0  0  0
   10.6361    1.1862   23.8760 C   0  0  0  0  0  0  0  0  0  0  0  0
   10.2543    0.4225   24.5552 H   0  0  0  0  0  0  0  0  0  0  0  0
   11.8751    1.8000   24.1305 C   0  0  0  0  0  0  0  0  0  0  0  0
   12.4629    1.5274   25.0028 H   0  0  0  0  0  0  0  0  0  0  0  0
   12.3384    2.7694   23.2341 C   0  0  0  0  0  0  0  0  0  0  0  0
   13.8144    3.6604   23.4686 Cl  0  0  0  0  0  0  0  0  0  0  0  0
   11.6051    3.1046   22.0955 C   0  0  0  0  0  0  0  0  0  0  0  0
   12.0175    3.8564   21.4323 H   0  0  0  0  0  0  0  0  0  0  0  0
   10.3794    2.4846   21.8549 C   0  0  0  0  0  0  0  0  0  0  0  0
    9.8041    2.7496   20.9701 H   0  0  0  0  0  0  0  0  0  0  0  0
    5.4552    0.6469   20.1476 C   0  0  0  0  0  0  0  0  0  0  0  0
    5.0420    0.6162   21.1543 H   0  0  0  0  0  0  0  0  0  0  0  0
    4.8120    1.3143   19.0982 C   0  0  0  0  0  0  0  0  0  0  0  0
    3.8755    1.8372   19.2502 H   0  0  0  0  0  0  0  0  0  0  0  0
  1  2  1  0
  2  3  2  0
  3  4  1  0
  4  5  1  0
  4  6  2  0
  6  7  1  0
  7  8  1  0
  8  9  1  0
  8 10  1  0
  8 11  1  0
 11 12  1  0
 11 13  1  0
 11 14  1  0
 14 15  1  0
 14 16  1  0
 14 17  1  0
 17 18  1  0
 17 19  1  0
 17 20  1  0
 20 21  1  6
 20 22  1  0
 22 23  1  0
 22 24  1  0
 22 25  1  0
 25 26  2  0
 26 27  1  0
 26 28  1  0
 28 29  1  0
 28 30  2  0
 30 31  1  0
 30 32  1  0
 32 33  1  0
 32 34  2  0
 34 35  1  0
  6 36  1  0
 36 37  1  0
 36 38  2  0
 38 39  1  0
 38  2  1  0
 20  7  1  0
 34 25  1  0
M  END
>  <cnnaffinity>  (1) 
-5.40344

>  <filename>  (1) 
Clc1ccc(C[C@H]2CCCCN2c2cccnc2)cc1

$$$$
