
     RDKit          3D

 35 37  0  0  0  0  0  0  0  0999 V2000
    4.9634    1.8616   16.9477 H   0  0  0  0  0  0  0  0  0  0  0  0
    5.3943    1.3341   17.7991 C   0  0  0  0  0  0  0  0  0  0  0  0
    6.5503    0.6943   17.5722 N   0  0  0  0  0  0  0  0  0  0  0  0
    7.1151    0.0539   18.6021 C   0  0  0  0  0  0  0  0  0  0  0  0
    8.0480   -0.4653   18.3876 H   0  0  0  0  0  0  0  0  0  0  0  0
    6.5816    0.0020   19.8984 C   0  0  0  0  0  0  0  0  0  0  0  0
    7.3755   -0.7182   20.9780 C   0  0  0  0  0  0  0  0  0  0  0  0
    7.5474   -1.7519   20.6632 H   0  0  0  0  0  0  0  0  0  0  0  0
    6.7861   -0.7978   21.8993 H   0  0  0  0  0  0  0  0  0  0  0  0
    8.7048   -0.0812   21.2669 C   0  0  0  0  0  0  0  0  0  0  0  0
    9.9998   -0.4852   21.0157 C   0  0  0  0  0  0  0  0  0  0  0  0
   10.3030   -1.4452   20.6171 H   0  0  0  0  0  0  0  0  0  0  0  0
   10.8703    0.5676   21.4068 C   0  0  0  0  0  0  0  0  0  0  0  0
   11.9515    0.5880   21.3421 H   0  0  0  0  0  0  0  0  0  0  0  0
   10.0764    1.5645   21.9081 C   0  0  0  0  0  0  0  0  0  0  0  0
   10.3223    2.5069   22.3690 H   0  0  0  0  0  0  0  0  0  0  0  0
    8.7650    1.1668   21.8468 N   0  0  0  0  0  0  0  0  0  0  0  0
    7.6677    1.9335   22.4328 C   0  0  0  0  0  0  0  0  0  0  0  0
    7.4653    2.8050   21.7978 H   0  0  0  0  0  0  0  0  0  0  0  0
    6.7661    1.3167   22.4362 H   0  0  0  0  0  0  0  0  0  0  0  0
    7.9655    2.3861   23.8525 C   0  0  0  0  0  0  0  0  0  0  0  0
    8.3267    3.7225   24.1043 C   0  0  0  0  0  0  0  0  0  0  0  0
    8.4833    4.4034   23.2676 H   0  0  0  0  0  0  0  0  0  0  0  0
    8.4986    4.1931   25.4057 C   0  0  0  0  0  0  0  0  0  0  0  0
    8.7475    5.2370   25.5735 H   0  0  0  0  0  0  0  0  0  0  0  0
    8.3703    3.3166   26.4835 C   0  0  0  0  0  0  0  0  0  0  0  0
    8.4200    3.6855   27.5044 H   0  0  0  0  0  0  0  0  0  0  0  0
    8.1523    1.9581   26.2537 C   0  0  0  0  0  0  0  0  0  0  0  0
    8.1550    1.2575   27.0838 H   0  0  0  0  0  0  0  0  0  0  0  0
    7.9614    1.4993   24.9464 C   0  0  0  0  0  0  0  0  0  0  0  0
    7.7391   -0.2190   24.7310 Cl  0  0  0  0  0  0  0  0  0  0  0  0
    5.3597    0.6561   20.1075 C   0  0  0  0  0  0  0  0  0  0  0  0
    4.8730    0.6465   21.0845 H   0  0  0  0  0  0  0  0  0  0  0  0
    4.7546    1.3318   19.0404 C   0  0  0  0  0  0  0  0  0  0  0  0
    3.8203    1.8698   19.1565 H   0  0  0  0  0  0  0  0  0  0  0  0
  1  2  1  0
  2  3  2  0
  3  4  1  0
  4  5  1  0
  4  6  2  0
  6  7  1  0
  7  8  1  0
  7  9  1  0
  7 10  1  0
 10 11  2  0
 11 12  1  0
 11 13  1  0
 13 14  1  0
 13 15  2  0
 15 16  1  0
 15 17  1  0
 17 18  1  0
 18 19  1  0
 18 20  1  0
 18 21  1  0
 21 22  2  0
 22 23  1  0
 22 24  1  0
 24 25  1  0
 24 26  2  0
 26 27  1  0
 26 28  1  0
 28 29  1  0
 28 30  2  0
 30 31  1  0
  6 32  1  0
 32 33  1  0
 32 34  2  0
 34 35  1  0
 34  2  1  0
 17 10  1  0
 30 21  1  0
M  END
>  <cnnaffinity>  (1) 
-4.91148

>  <filename>  (1) 
Clc1ccccc1Cn1cccc1Cc1cccnc1

$$$$
