
     RDKit          3D

 39 41  0  0  0  0  0  0  0  0999 V2000
    5.1795    1.6634   16.7419 H   0  0  0  0  0  0  0  0  0  0  0  0
    5.5769    1.2233   17.6545 C   0  0  0  0  0  0  0  0  0  0  0  0
    6.6977    0.5025   17.5245 N   0  0  0  0  0  0  0  0  0  0  0  0
    7.2271   -0.0208   18.6406 C   0  0  0  0  0  0  0  0  0  0  0  0
    8.1556   -0.5743   18.4973 H   0  0  0  0  0  0  0  0  0  0  0  0
    6.6845    0.1249   19.9353 C   0  0  0  0  0  0  0  0  0  0  0  0
    7.3029   -0.5833   21.1540 C   0  0  2  0  0  0  0  0  0  0  0  0
    6.5078   -1.9057   21.3610 C   0  0  0  0  0  0  0  0  0  0  0  0
    6.5526   -2.4732   20.4275 H   0  0  0  0  0  0  0  0  0  0  0  0
    5.4553   -1.6178   21.4623 H   0  0  0  0  0  0  0  0  0  0  0  0
    6.8451   -2.8359   22.5408 C   0  0  0  0  0  0  0  0  0  0  0  0
    6.7821   -2.2800   23.4778 H   0  0  0  0  0  0  0  0  0  0  0  0
    7.8802   -3.1881   22.4886 H   0  0  0  0  0  0  0  0  0  0  0  0
    5.8890   -4.0171   22.6048 C   0  0  0  0  0  0  0  0  0  0  0  0
    4.8005   -3.9883   23.4953 C   0  0  0  0  0  0  0  0  0  0  0  0
    4.7498   -3.1708   24.2152 H   0  0  0  0  0  0  0  0  0  0  0  0
    3.8238   -4.9853   23.5144 C   0  0  0  0  0  0  0  0  0  0  0  0
    3.0066   -4.9253   24.2317 H   0  0  0  0  0  0  0  0  0  0  0  0
    3.9265   -6.0650   22.6337 C   0  0  0  0  0  0  0  0  0  0  0  0
    3.1780   -6.8528   22.6605 H   0  0  0  0  0  0  0  0  0  0  0  0
    5.0216   -6.1569   21.7662 C   0  0  0  0  0  0  0  0  0  0  0  0
    5.1539   -7.0099   21.1088 H   0  0  0  0  0  0  0  0  0  0  0  0
    5.9925   -5.1479   21.7690 C   0  0  0  0  0  0  0  0  0  0  0  0
    7.3533   -5.3612   20.6901 Cl  0  0  0  0  0  0  0  0  0  0  0  0
    7.2873    0.2876   22.4347 C   0  0  0  0  0  0  0  0  0  0  0  0
    6.3190    0.2207   22.9486 H   0  0  0  0  0  0  0  0  0  0  0  0
    7.4562    1.3447   22.1534 H   0  0  0  0  0  0  0  0  0  0  0  0
    8.3455   -0.2673   23.2771 N   0  0  0  0  0  0  0  0  0  0  0  0
    8.6687    0.3932   23.9732 H   0  0  0  0  0  0  0  0  0  0  0  0
    9.4297   -0.7519   22.4228 C   0  0  0  0  0  0  0  0  0  0  0  0
   10.3109   -0.0904   22.4390 H   0  0  0  0  0  0  0  0  0  0  0  0
    9.7753   -1.7372   22.7659 H   0  0  0  0  0  0  0  0  0  0  0  0
    8.8290   -0.8047   21.0069 C   0  0  0  0  0  0  0  0  0  0  0  0
    9.0685   -1.7249   20.4647 H   0  0  0  0  0  0  0  0  0  0  0  0
    9.2524    0.0224   20.4255 H   0  0  0  0  0  0  0  0  0  0  0  0
    5.5010    0.8777   20.0353 C   0  0  0  0  0  0  0  0  0  0  0  0
    5.0230    1.0471   21.0037 H   0  0  0  0  0  0  0  0  0  0  0  0
    4.9426    1.4364   18.8826 C   0  0  0  0  0  0  0  0  0  0  0  0
    4.0417    2.0370   18.9217 H   0  0  0  0  0  0  0  0  0  0  0  0
  1  2  1  0
  2  3  2  0
  3  4  1  0
  4  5  1  0
  4  6  2  0
  6  7  1  0
  7  8  1  1
  8  9  1  0
  8 10  1  0
  8 11  1  0
 11 12  1  0
 11 13  1  0
 11 14  1  0
 14 15  2  0
 15 16  1  0
 15 17  1  0
 17 18  1  0
 17 19  2  0
 19 20  1  0
 19 21  1  0
 21 22  1  0
 21 23  2  0
 23 24  1  0
  7 25  1  0
 25 26  1  0
 25 27  1  0
 25 28  1  0
 28 29  1  0
 28 30  1  0
 30 31  1  0
 30 32  1  0
 30 33  1  0
 33 34  1  0
 33 35  1  0
  6 36  1  0
 36 37  1  0
 36 38  2  0
 38 39  1  0
 38  2  1  0
 33  7  1  0
 23 14  1  0
M  END
>  <cnnaffinity>  (1) 
-5.51449

>  <filename>  (1) 
Clc1ccccc1CC[C@]1(c2cccnc2)CCNC1

$$$$
