
     RDKit          3D

 35 38  0  0  0  0  0  0  0  0999 V2000
    4.9613    1.8654   16.9365 H   0  0  0  0  0  0  0  0  0  0  0  0
    5.4093    1.3147   17.7655 C   0  0  0  0  0  0  0  0  0  0  0  0
    6.5548    0.6704   17.5096 N   0  0  0  0  0  0  0  0  0  0  0  0
    7.1357    0.0198   18.5278 C   0  0  0  0  0  0  0  0  0  0  0  0
    8.0741   -0.4690   18.2769 H   0  0  0  0  0  0  0  0  0  0  0  0
    6.6351   -0.0547   19.8425 C   0  0  0  0  0  0  0  0  0  0  0  0
    7.3685   -0.8175   20.9432 C   0  0  1  0  0  0  0  0  0  0  0  0
    7.0157   -1.8565   20.9339 H   0  0  0  0  0  0  0  0  0  0  0  0
    8.9287   -0.8771   20.8041 C   0  0  0  0  0  0  0  0  0  0  0  0
    9.3036   -0.0379   20.2105 H   0  0  0  0  0  0  0  0  0  0  0  0
    9.2748   -1.8018   20.3361 H   0  0  0  0  0  0  0  0  0  0  0  0
    9.4123   -0.7387   22.2175 C   0  0  0  0  0  0  0  0  0  0  0  0
   10.5911   -0.8261   22.8059 N   0  0  0  0  0  0  0  0  0  0  0  0
   10.3172   -0.5418   24.1035 N   0  0  0  0  0  0  0  0  0  0  0  0
   11.1025   -0.4048   24.7265 H   0  0  0  0  0  0  0  0  0  0  0  0
    9.0007   -0.2417   24.3420 C   0  0  0  0  0  0  0  0  0  0  0  0
    8.4153    0.1325   25.6537 C   0  0  0  0  0  0  0  0  0  0  0  0
    9.0491   -0.0529   26.9008 C   0  0  0  0  0  0  0  0  0  0  0  0
   10.0377   -0.5015   26.9833 H   0  0  0  0  0  0  0  0  0  0  0  0
    8.4083    0.3476   28.0809 C   0  0  0  0  0  0  0  0  0  0  0  0
    8.9255    0.2091   29.0288 H   0  0  0  0  0  0  0  0  0  0  0  0
    7.1521    0.9626   28.0581 C   0  0  0  0  0  0  0  0  0  0  0  0
    6.6614    1.3212   28.9614 H   0  0  0  0  0  0  0  0  0  0  0  0
    6.5300    1.1394   26.8235 C   0  0  0  0  0  0  0  0  0  0  0  0
    4.9836    1.9328   26.7338 Cl  0  0  0  0  0  0  0  0  0  0  0  0
    7.1328    0.7141   25.6413 C   0  0  0  0  0  0  0  0  0  0  0  0
    6.6052    0.8644   24.7067 H   0  0  0  0  0  0  0  0  0  0  0  0
    8.4003   -0.3753   23.0995 C   0  0  0  0  0  0  0  0  0  0  0  0
    7.0912   -0.2627   22.3789 C   0  0  0  0  0  0  0  0  0  0  0  0
    6.7881    0.7888   22.3242 H   0  0  0  0  0  0  0  0  0  0  0  0
    6.2863   -0.8165   22.8722 H   0  0  0  0  0  0  0  0  0  0  0  0
    5.4123    0.6041   20.0674 C   0  0  0  0  0  0  0  0  0  0  0  0
    4.9540    0.6129   21.0584 H   0  0  0  0  0  0  0  0  0  0  0  0
    4.8000    1.2962   19.0208 C   0  0  0  0  0  0  0  0  0  0  0  0
    3.8875    1.8533   19.1805 H   0  0  0  0  0  0  0  0  0  0  0  0
  1  2  1  0
  2  3  2  0
  3  4  1  0
  4  5  1  0
  4  6  2  0
  6  7  1  0
  7  8  1  1
  7  9  1  0
  9 10  1  0
  9 11  1  0
  9 12  1  0
 12 13  2  0
 13 14  1  0
 14 15  1  0
 14 16  1  0
 16 17  1  0
 17 18  2  0
 18 19  1  0
 18 20  1  0
 20 21  1  0
 20 22  2  0
 22 23  1  0
 22 24  1  0
 24 25  1  0
 24 26  2  0
 26 27  1  0
 16 28  2  0
 28 29  1  0
 29 30  1  0
 29 31  1  0
  6 32  1  0
 32 33  1  0
 32 34  2  0
 34 35  1  0
 34  2  1  0
 29  7  1  0
 28 12  1  0
 26 17  1  0
M  END
>  <cnnaffinity>  (1) 
-5.39164

>  <filename>  (1) 
Clc1cccc(-c2[nH]nc3c2C[C@@H](c2cccnc2)C3)c1

$$$$
