
     RDKit          3D

 30 32  0  0  0  0  0  0  0  0999 V2000
    4.9510    1.8417   16.9282 H   0  0  0  0  0  0  0  0  0  0  0  0
    5.3998    1.3243   17.7735 C   0  0  0  0  0  0  0  0  0  0  0  0
    6.5545    0.6836   17.5333 N   0  0  0  0  0  0  0  0  0  0  0  0
    7.1358    0.0616   18.5687 C   0  0  0  0  0  0  0  0  0  0  0  0
    8.0769   -0.4373   18.3431 H   0  0  0  0  0  0  0  0  0  0  0  0
    6.6069    0.0106   19.8732 C   0  0  0  0  0  0  0  0  0  0  0  0
    7.3341   -0.7041   20.9588 C   0  0  0  0  0  0  0  0  0  0  0  0
    6.6881   -1.5583   21.8617 C   0  0  0  0  0  0  0  0  0  0  0  0
    5.6285   -1.7641   21.7819 H   0  0  0  0  0  0  0  0  0  0  0  0
    7.4414   -2.1842   22.8572 C   0  0  0  0  0  0  0  0  0  0  0  0
    6.9630   -2.8570   23.5662 H   0  0  0  0  0  0  0  0  0  0  0  0
    8.7635   -2.0353   22.9994 N   0  0  0  0  0  0  0  0  0  0  0  0
    9.3813   -1.1926   22.1548 C   0  0  0  0  0  0  0  0  0  0  0  0
   10.8619   -1.0329   22.2837 C   0  0  0  0  0  0  0  0  0  0  0  0
   11.6745   -2.1670   22.1605 C   0  0  0  0  0  0  0  0  0  0  0  0
   11.1993   -3.1414   22.1494 H   0  0  0  0  0  0  0  0  0  0  0  0
   13.0610   -2.0490   22.0946 C   0  0  0  0  0  0  0  0  0  0  0  0
   13.6967   -2.9072   21.9259 H   0  0  0  0  0  0  0  0  0  0  0  0
   13.6814   -0.8216   22.3031 C   0  0  0  0  0  0  0  0  0  0  0  0
   14.7624   -0.7351   22.3092 H   0  0  0  0  0  0  0  0  0  0  0  0
   12.8947    0.2998   22.5601 C   0  0  0  0  0  0  0  0  0  0  0  0
   13.6964    1.7472   23.0536 Cl  0  0  0  0  0  0  0  0  0  0  0  0
   11.4910    0.2178   22.4678 C   0  0  0  0  0  0  0  0  0  0  0  0
   10.5423    1.6497   22.6518 Cl  0  0  0  0  0  0  0  0  0  0  0  0
    8.7087   -0.5363   21.1186 C   0  0  0  0  0  0  0  0  0  0  0  0
    9.2758    0.1226   20.4759 H   0  0  0  0  0  0  0  0  0  0  0  0
    5.3906    0.6799   20.0911 C   0  0  0  0  0  0  0  0  0  0  0  0
    4.9553    0.7089   21.0909 H   0  0  0  0  0  0  0  0  0  0  0  0
    4.7796    1.3462   19.0273 C   0  0  0  0  0  0  0  0  0  0  0  0
    3.8475    1.8844   19.1559 H   0  0  0  0  0  0  0  0  0  0  0  0
  1  2  1  0
  2  3  2  0
  3  4  1  0
  4  5  1  0
  4  6  2  0
  6  7  1  0
  7  8  2  0
  8  9  1  0
  8 10  1  0
 10 11  1  0
 10 12  2  0
 12 13  1  0
 13 14  1  0
 14 15  2  0
 15 16  1  0
 15 17  1  0
 17 18  1  0
 17 19  2  0
 19 20  1  0
 19 21  1  0
 21 22  1  0
 21 23  2  0
 23 24  1  0
 13 25  2  0
 25 26  1  0
  6 27  1  0
 27 28  1  0
 27 29  2  0
 29 30  1  0
 29  2  1  0
 25  7  1  0
 23 14  1  0
M  END
>  <cnnaffinity>  (1) 
-5.82994

>  <filename>  (1) 
Clc1cccc(-c2cc(-c3cccnc3)ccn2)c1Cl

$$$$
