
     RDKit          3D

 35 38  0  0  0  0  0  0  0  0999 V2000
    4.9839    1.8410   16.9327 H   0  0  0  0  0  0  0  0  0  0  0  0
    5.3908    1.3044   17.7893 C   0  0  0  0  0  0  0  0  0  0  0  0
    6.5465    0.6521   17.5876 N   0  0  0  0  0  0  0  0  0  0  0  0
    7.0857    0.0312   18.6486 C   0  0  0  0  0  0  0  0  0  0  0  0
    8.0280   -0.4840   18.4506 H   0  0  0  0  0  0  0  0  0  0  0  0
    6.5099   -0.0044   19.9361 C   0  0  0  0  0  0  0  0  0  0  0  0
    7.2612   -0.6260   21.0495 C   0  0  0  0  0  0  0  0  0  0  0  0
    8.6198   -0.5919   21.2803 C   0  0  0  0  0  0  0  0  0  0  0  0
    8.8226   -1.1991   22.5104 C   0  0  0  0  0  0  0  0  0  0  0  0
    7.7062   -1.6392   23.0550 N   0  0  0  0  0  0  0  0  0  0  0  0
    6.7557   -1.2654   22.1538 N   0  0  0  0  0  0  0  0  0  0  0  0
    5.7945   -1.4938   22.3686 H   0  0  0  0  0  0  0  0  0  0  0  0
   10.2532   -1.1433   22.9555 C   0  0  0  0  0  0  0  0  0  0  0  0
   10.3657   -0.6742   23.9383 H   0  0  0  0  0  0  0  0  0  0  0  0
   10.6799   -2.1460   23.0295 H   0  0  0  0  0  0  0  0  0  0  0  0
   10.9492   -0.2900   21.8373 C   0  0  2  0  0  0  0  0  0  0  0  0
   11.7696   -0.8749   21.4237 H   0  0  0  0  0  0  0  0  0  0  0  0
   11.4858    1.0107   22.3940 C   0  0  0  0  0  0  0  0  0  0  0  0
   10.5691    1.9744   22.8585 C   0  0  0  0  0  0  0  0  0  0  0  0
    9.5067    1.7455   22.8415 H   0  0  0  0  0  0  0  0  0  0  0  0
   10.9745    3.2199   23.3296 C   0  0  0  0  0  0  0  0  0  0  0  0
   10.2491    3.9436   23.6859 H   0  0  0  0  0  0  0  0  0  0  0  0
   12.3356    3.5273   23.3163 C   0  0  0  0  0  0  0  0  0  0  0  0
   12.8592    5.0929   23.8542 Cl  0  0  0  0  0  0  0  0  0  0  0  0
   13.2813    2.5958   22.8940 C   0  0  0  0  0  0  0  0  0  0  0  0
   14.3310    2.8612   22.8414 H   0  0  0  0  0  0  0  0  0  0  0  0
   12.8514    1.3263   22.4973 C   0  0  0  0  0  0  0  0  0  0  0  0
   14.0766    0.1400   22.1352 Cl  0  0  0  0  0  0  0  0  0  0  0  0
    9.8859   -0.0611   20.7070 C   0  0  0  0  0  0  0  0  0  0  0  0
   10.1700   -0.6107   19.8100 H   0  0  0  0  0  0  0  0  0  0  0  0
    9.7988    0.9903   20.4061 H   0  0  0  0  0  0  0  0  0  0  0  0
    5.2817    0.6626   20.1099 C   0  0  0  0  0  0  0  0  0  0  0  0
    4.7936    0.7022   21.0876 H   0  0  0  0  0  0  0  0  0  0  0  0
    4.7265    1.3334   19.0191 C   0  0  0  0  0  0  0  0  0  0  0  0
    3.8095    1.9056   19.1163 H   0  0  0  0  0  0  0  0  0  0  0  0
  1  2  1  0
  2  3  2  0
  3  4  1  0
  4  5  1  0
  4  6  2  0
  6  7  1  0
  7  8  2  0
  8  9  1  0
  9 10  2  0
 10 11  1  0
 11 12  1  0
  9 13  1  0
 13 14  1  0
 13 15  1  0
 13 16  1  0
 16 17  1  6
 16 18  1  0
 18 19  2  0
 19 20  1  0
 19 21  1  0
 21 22  1  0
 21 23  2  0
 23 24  1  0
 23 25  1  0
 25 26  1  0
 25 27  2  0
 27 28  1  0
 16 29  1  0
 29 30  1  0
 29 31  1  0
  6 32  1  0
 32 33  1  0
 32 34  2  0
 34 35  1  0
 34  2  1  0
 11  7  1  0
 27 18  1  0
 29  8  1  0
M  END
>  <cnnaffinity>  (1) 
-6.18902

>  <filename>  (1) 
Clc1ccc([C@H]2Cc3n[nH]c(-c4cccnc4)c3C2)c(Cl)c1

$$$$
