
     RDKit          3D

 29 31  0  0  0  0  0  0  0  0999 V2000
    4.9170    1.7891   16.9848 H   0  0  0  0  0  0  0  0  0  0  0  0
    5.3946    1.2988   17.8264 C   0  0  0  0  0  0  0  0  0  0  0  0
    6.5586    0.6823   17.5650 N   0  0  0  0  0  0  0  0  0  0  0  0
    7.1616    0.0719   18.5886 C   0  0  0  0  0  0  0  0  0  0  0  0
    8.1036   -0.4215   18.3637 H   0  0  0  0  0  0  0  0  0  0  0  0
    6.6557    0.0108   19.9011 C   0  0  0  0  0  0  0  0  0  0  0  0
    7.3782   -0.7035   20.9648 C   0  0  0  0  0  0  0  0  0  0  0  0
    8.7753   -1.0125   21.0228 C   0  0  0  0  0  0  0  0  0  0  0  0
    9.5012   -0.7215   20.2748 H   0  0  0  0  0  0  0  0  0  0  0  0
    9.0144   -1.6759   22.1918 C   0  0  0  0  0  0  0  0  0  0  0  0
    9.9382   -2.0413   22.6165 H   0  0  0  0  0  0  0  0  0  0  0  0
    7.8153   -1.8076   22.8864 N   0  0  0  0  0  0  0  0  0  0  0  0
    7.6157   -2.4387   24.1438 C   0  0  0  0  0  0  0  0  0  0  0  0
    6.5750   -2.0295   24.9998 C   0  0  0  0  0  0  0  0  0  0  0  0
    5.9036   -1.2182   24.7393 H   0  0  0  0  0  0  0  0  0  0  0  0
    6.4220   -2.6697   26.2314 C   0  0  0  0  0  0  0  0  0  0  0  0
    5.1449   -2.1701   27.2916 Cl  0  0  0  0  0  0  0  0  0  0  0  0
    7.2600   -3.7048   26.6460 C   0  0  0  0  0  0  0  0  0  0  0  0
    7.1258   -4.1938   27.6064 H   0  0  0  0  0  0  0  0  0  0  0  0
    8.2775   -4.0904   25.7745 C   0  0  0  0  0  0  0  0  0  0  0  0
    9.3420   -5.3698   26.2544 Cl  0  0  0  0  0  0  0  0  0  0  0  0
    8.4686   -3.4816   24.5361 C   0  0  0  0  0  0  0  0  0  0  0  0
    9.2640   -3.8280   23.8877 H   0  0  0  0  0  0  0  0  0  0  0  0
    6.8440   -1.2128   22.1134 C   0  0  0  0  0  0  0  0  0  0  0  0
    5.8155   -1.2325   22.4102 H   0  0  0  0  0  0  0  0  0  0  0  0
    5.4286    0.6568   20.1482 C   0  0  0  0  0  0  0  0  0  0  0  0
    5.0018    0.6505   21.1544 H   0  0  0  0  0  0  0  0  0  0  0  0
    4.8001    1.3163   19.0930 C   0  0  0  0  0  0  0  0  0  0  0  0
    3.8697    1.8464   19.2495 H   0  0  0  0  0  0  0  0  0  0  0  0
  1  2  1  0
  2  3  2  0
  3  4  1  0
  4  5  1  0
  4  6  2  0
  6  7  1  0
  7  8  1  0
  8  9  1  0
  8 10  2  0
 10 11  1  0
 10 12  1  0
 12 13  1  0
 13 14  2  0
 14 15  1  0
 14 16  1  0
 16 17  1  0
 16 18  2  0
 18 19  1  0
 18 20  1  0
 20 21  1  0
 20 22  2  0
 22 23  1  0
 12 24  1  0
 24 25  1  0
  6 26  1  0
 26 27  1  0
 26 28  2  0
 28 29  1  0
 28  2  1  0
 24  7  2  0
 22 13  1  0
M  END
>  <cnnaffinity>  (1) 
-5.38973

>  <filename>  (1) 
Clc1cc(Cl)cc(-n2ccc(-c3cccnc3)c2)c1

$$$$
