
     RDKit          3D

 34 37  0  0  0  0  0  0  0  0999 V2000
    4.9809    1.8447   16.9009 H   0  0  0  0  0  0  0  0  0  0  0  0
    5.4163    1.2925   17.7328 C   0  0  0  0  0  0  0  0  0  0  0  0
    6.5608    0.6342   17.4916 N   0  0  0  0  0  0  0  0  0  0  0  0
    7.1429   -0.0068   18.5111 C   0  0  0  0  0  0  0  0  0  0  0  0
    8.0670   -0.5293   18.2693 H   0  0  0  0  0  0  0  0  0  0  0  0
    6.6203   -0.0290   19.8184 C   0  0  0  0  0  0  0  0  0  0  0  0
    7.3820   -0.6130   20.9381 C   0  0  0  0  0  0  0  0  0  0  0  0
    8.5269   -1.2850   20.7324 N   0  0  0  0  0  0  0  0  0  0  0  0
    8.9539   -1.5337   21.9846 N   0  0  0  0  0  0  0  0  0  0  0  0
   10.0917   -2.1139   22.5229 C   0  0  0  0  0  0  0  0  0  0  0  0
   10.8443   -2.5549   21.8970 H   0  0  0  0  0  0  0  0  0  0  0  0
    9.9958   -1.9411   23.8645 C   0  0  0  0  0  0  0  0  0  0  0  0
   10.6511   -2.2077   24.6734 H   0  0  0  0  0  0  0  0  0  0  0  0
    8.8132   -1.2704   24.1438 N   0  0  0  0  0  0  0  0  0  0  0  0
    8.4677   -0.8340   25.4157 N   0  0  0  0  0  0  0  0  0  0  0  0
    8.9391    0.0319   25.6506 H   0  0  0  0  0  0  0  0  0  0  0  0
    7.0971   -0.6732   25.7472 C   0  0  0  0  0  0  0  0  0  0  0  0
    6.0990   -1.5911   25.4024 C   0  0  0  0  0  0  0  0  0  0  0  0
    6.3574   -2.4466   24.7847 H   0  0  0  0  0  0  0  0  0  0  0  0
    4.7816   -1.3816   25.8258 C   0  0  0  0  0  0  0  0  0  0  0  0
    3.9980   -2.0890   25.5644 H   0  0  0  0  0  0  0  0  0  0  0  0
    4.4686   -0.2392   26.5713 C   0  0  0  0  0  0  0  0  0  0  0  0
    2.8393    0.0122   27.1288 Cl  0  0  0  0  0  0  0  0  0  0  0  0
    5.4530    0.7005   26.8982 C   0  0  0  0  0  0  0  0  0  0  0  0
    5.1993    1.6001   27.4556 H   0  0  0  0  0  0  0  0  0  0  0  0
    6.7659    0.4693   26.4882 C   0  0  0  0  0  0  0  0  0  0  0  0
    7.5500    1.1856   26.7309 H   0  0  0  0  0  0  0  0  0  0  0  0
    8.1639   -1.0318   22.9500 C   0  0  0  0  0  0  0  0  0  0  0  0
    7.0720   -0.4563   22.3095 C   0  0  0  0  0  0  0  0  0  0  0  0
    6.1839   -0.0580   22.7688 H   0  0  0  0  0  0  0  0  0  0  0  0
    5.3962    0.6219   20.0358 C   0  0  0  0  0  0  0  0  0  0  0  0
    4.9274    0.5930   21.0194 H   0  0  0  0  0  0  0  0  0  0  0  0
    4.7921    1.3000   18.9821 C   0  0  0  0  0  0  0  0  0  0  0  0
    3.8732    1.8560   19.1296 H   0  0  0  0  0  0  0  0  0  0  0  0
  1  2  1  0
  2  3  2  0
  3  4  1  0
  4  5  1  0
  4  6  2  0
  6  7  1  0
  7  8  2  0
  8  9  1  0
  9 10  1  0
 10 11  1  0
 10 12  2  0
 12 13  1  0
 12 14  1  0
 14 15  1  0
 15 16  1  0
 15 17  1  0
 17 18  2  0
 18 19  1  0
 18 20  1  0
 20 21  1  0
 20 22  2  0
 22 23  1  0
 22 24  1  0
 24 25  1  0
 24 26  2  0
 26 27  1  0
 14 28  1  0
 28 29  2  0
 29 30  1  0
  6 31  1  0
 31 32  1  0
 31 33  2  0
 33 34  1  0
 33  2  1  0
 29  7  1  0
 28  9  1  0
 26 17  1  0
M  END
>  <cnnaffinity>  (1) 
-5.7207

>  <filename>  (1) 
Clc1ccc(Nn2ccn3nc(-c4cccnc4)cc23)cc1

$$$$
