
     RDKit          3D

 27 28  0  0  0  0  0  0  0  0999 V2000
    5.0994    1.8784   17.1628 H   0  0  0  0  0  0  0  0  0  0  0  0
    5.5440    1.2794   17.9543 C   0  0  0  0  0  0  0  0  0  0  0  0
    6.6762    0.6074   17.6916 N   0  0  0  0  0  0  0  0  0  0  0  0
    7.2000   -0.1456   18.6755 C   0  0  0  0  0  0  0  0  0  0  0  0
    8.1057   -0.7097   18.4843 H   0  0  0  0  0  0  0  0  0  0  0  0
    6.6159   -0.2805   19.9408 C   0  0  0  0  0  0  0  0  0  0  0  0
    7.2028   -1.2842   20.9038 C   0  0  2  0  0  0  0  0  0  0  0  0
    8.0680   -1.7686   20.4321 H   0  0  0  0  0  0  0  0  0  0  0  0
    5.8010   -2.6543   21.2190 Br  0  0  0  0  0  0  0  0  0  0  0  0
    7.6569   -0.6724   22.2358 C   0  0  0  0  0  0  0  0  0  0  0  0
    6.8052   -0.2198   22.7613 H   0  0  0  0  0  0  0  0  0  0  0  0
    8.0751   -1.4665   22.8655 H   0  0  0  0  0  0  0  0  0  0  0  0
    8.7229    0.3701   22.0181 C   0  0  0  0  0  0  0  0  0  0  0  0
    8.3532    1.7190   21.9237 C   0  0  0  0  0  0  0  0  0  0  0  0
    7.3129    2.0174   22.0361 H   0  0  0  0  0  0  0  0  0  0  0  0
    9.3225    2.7005   21.7019 C   0  0  0  0  0  0  0  0  0  0  0  0
    9.0214    3.7421   21.6385 H   0  0  0  0  0  0  0  0  0  0  0  0
   10.6696    2.3483   21.5766 C   0  0  0  0  0  0  0  0  0  0  0  0
   11.4164    3.1161   21.3917 H   0  0  0  0  0  0  0  0  0  0  0  0
   11.0512    1.0064   21.7027 C   0  0  0  0  0  0  0  0  0  0  0  0
   12.1010    0.7386   21.6395 H   0  0  0  0  0  0  0  0  0  0  0  0
   10.0836    0.0123   21.9090 C   0  0  0  0  0  0  0  0  0  0  0  0
   10.5943   -1.6596   22.0047 Cl  0  0  0  0  0  0  0  0  0  0  0  0
    5.4599    0.4512   20.2289 C   0  0  0  0  0  0  0  0  0  0  0  0
    4.9707    0.3836   21.2001 H   0  0  0  0  0  0  0  0  0  0  0  0
    4.9226    1.2422   19.2095 C   0  0  0  0  0  0  0  0  0  0  0  0
    4.0207    1.8231   19.3655 H   0  0  0  0  0  0  0  0  0  0  0  0
  1  2  1  0
  2  3  2  0
  3  4  1  0
  4  5  1  0
  4  6  2  0
  6  7  1  0
  7  8  1  6
  7  9  1  0
  7 10  1  0
 10 11  1  0
 10 12  1  0
 10 13  1  0
 13 14  2  0
 14 15  1  0
 14 16  1  0
 16 17  1  0
 16 18  2  0
 18 19  1  0
 18 20  1  0
 20 21  1  0
 20 22  2  0
 22 23  1  0
  6 24  1  0
 24 25  1  0
 24 26  2  0
 26 27  1  0
 26  2  1  0
 22 13  1  0
M  END
>  <cnnaffinity>  (1) 
-5.10626

>  <filename>  (1) 
Clc1ccccc1C[C@@H](Br)c1cccnc1

$$$$
