
     RDKit          3D

 33 35  0  0  0  0  0  0  0  0999 V2000
    5.0457    1.7933   16.9904 H   0  0  0  0  0  0  0  0  0  0  0  0
    5.4716    1.2780   17.8507 C   0  0  0  0  0  0  0  0  0  0  0  0
    6.6158    0.6130   17.6302 N   0  0  0  0  0  0  0  0  0  0  0  0
    7.1570   -0.0150   18.6765 C   0  0  0  0  0  0  0  0  0  0  0  0
    8.0716   -0.5628   18.4659 H   0  0  0  0  0  0  0  0  0  0  0  0
    6.6219   -0.0295   19.9708 C   0  0  0  0  0  0  0  0  0  0  0  0
    7.3728   -0.7563   21.0256 C   0  0  0  0  0  0  0  0  0  0  0  0
    6.6419   -1.4061   21.9438 N   0  0  0  0  0  0  0  0  0  0  0  0
    7.2822   -2.0889   22.8996 C   0  0  0  0  0  0  0  0  0  0  0  0
    6.4131   -2.8098   23.9078 C   0  0  0  0  0  0  0  0  0  0  0  0
    5.6245   -2.1122   24.2086 H   0  0  0  0  0  0  0  0  0  0  0  0
    6.9866   -3.0324   24.8081 H   0  0  0  0  0  0  0  0  0  0  0  0
    5.7582   -4.0853   23.3971 C   0  0  0  0  0  0  0  0  0  0  0  0
    4.4337   -3.9874   22.9510 C   0  0  0  0  0  0  0  0  0  0  0  0
    3.9965   -3.0007   23.0071 H   0  0  0  0  0  0  0  0  0  0  0  0
    3.7164   -5.0823   22.4655 C   0  0  0  0  0  0  0  0  0  0  0  0
    2.6653   -4.9901   22.1928 H   0  0  0  0  0  0  0  0  0  0  0  0
    4.3614   -6.3146   22.3516 C   0  0  0  0  0  0  0  0  0  0  0  0
    3.8210   -7.1689   21.9497 H   0  0  0  0  0  0  0  0  0  0  0  0
    5.6919   -6.4489   22.7676 C   0  0  0  0  0  0  0  0  0  0  0  0
    6.2032   -7.4015   22.6725 H   0  0  0  0  0  0  0  0  0  0  0  0
    6.3704   -5.3497   23.3144 C   0  0  0  0  0  0  0  0  0  0  0  0
    7.9939   -5.6066   23.9127 Cl  0  0  0  0  0  0  0  0  0  0  0  0
    8.6836   -2.1276   22.9955 C   0  0  0  0  0  0  0  0  0  0  0  0
    9.1528   -2.6630   23.8119 H   0  0  0  0  0  0  0  0  0  0  0  0
    9.4511   -1.4605   22.0409 C   0  0  0  0  0  0  0  0  0  0  0  0
   10.5419   -1.4842   22.0685 H   0  0  0  0  0  0  0  0  0  0  0  0
    8.7809   -0.7698   21.0349 C   0  0  0  0  0  0  0  0  0  0  0  0
    9.3366   -0.2315   20.2757 H   0  0  0  0  0  0  0  0  0  0  0  0
    5.4018    0.6379   20.1786 C   0  0  0  0  0  0  0  0  0  0  0  0
    4.9163    0.6295   21.1579 H   0  0  0  0  0  0  0  0  0  0  0  0
    4.8279    1.3056   19.0941 C   0  0  0  0  0  0  0  0  0  0  0  0
    3.8918    1.8485   19.1923 H   0  0  0  0  0  0  0  0  0  0  0  0
  1  2  1  0
  2  3  2  0
  3  4  1  0
  4  5  1  0
  4  6  2  0
  6  7  1  0
  7  8  2  0
  8  9  1  0
  9 10  1  0
 10 11  1  0
 10 12  1  0
 10 13  1  0
 13 14  2  0
 14 15  1  0
 14 16  1  0
 16 17  1  0
 16 18  2  0
 18 19  1  0
 18 20  1  0
 20 21  1  0
 20 22  2  0
 22 23  1  0
  9 24  2  0
 24 25  1  0
 24 26  1  0
 26 27  1  0
 26 28  2  0
 28 29  1  0
  6 30  1  0
 30 31  1  0
 30 32  2  0
 32 33  1  0
 32  2  1  0
 28  7  1  0
 22 13  1  0
M  END
>  <cnnaffinity>  (1) 
-5.26778

>  <filename>  (1) 
Clc1ccccc1Cc1cccc(-c2cccnc2)n1

$$$$
