
     RDKit          3D

 28 30  0  0  0  0  0  0  0  0999 V2000
    4.9863    1.7869   16.9841 H   0  0  0  0  0  0  0  0  0  0  0  0
    5.4364    1.2950   17.8483 C   0  0  0  0  0  0  0  0  0  0  0  0
    6.6053    0.6729   17.6346 N   0  0  0  0  0  0  0  0  0  0  0  0
    7.1896    0.0767   18.6792 C   0  0  0  0  0  0  0  0  0  0  0  0
    8.1406   -0.4176   18.4832 H   0  0  0  0  0  0  0  0  0  0  0  0
    6.6530    0.0609   19.9863 C   0  0  0  0  0  0  0  0  0  0  0  0
    7.3163   -0.6344   21.0438 N   0  0  0  0  0  0  0  0  0  0  0  0
    7.7130   -1.9473   21.0046 C   0  0  0  0  0  0  0  0  0  0  0  0
    7.4193   -2.5640   20.1741 H   0  0  0  0  0  0  0  0  0  0  0  0
    8.2913   -2.3409   22.1101 N   0  0  0  0  0  0  0  0  0  0  0  0
    8.2271   -1.2586   22.9490 C   0  0  0  0  0  0  0  0  0  0  0  0
    8.6061   -1.3312   23.9635 H   0  0  0  0  0  0  0  0  0  0  0  0
    7.6017   -0.1974   22.3445 C   0  0  0  0  0  0  0  0  0  0  0  0
    7.1696    1.0967   22.9285 C   0  0  0  0  0  0  0  0  0  0  0  0
    6.2715    1.1010   24.0130 C   0  0  0  0  0  0  0  0  0  0  0  0
    5.9017    0.1556   24.3999 H   0  0  0  0  0  0  0  0  0  0  0  0
    5.8146    2.2910   24.5781 C   0  0  0  0  0  0  0  0  0  0  0  0
    5.1181    2.2720   25.4099 H   0  0  0  0  0  0  0  0  0  0  0  0
    6.2466    3.5154   24.0680 C   0  0  0  0  0  0  0  0  0  0  0  0
    5.9030    4.4541   24.4880 H   0  0  0  0  0  0  0  0  0  0  0  0
    7.1404    3.5449   22.9973 C   0  0  0  0  0  0  0  0  0  0  0  0
    7.6305    5.0948   22.3923 Cl  0  0  0  0  0  0  0  0  0  0  0  0
    7.6132    2.3460   22.4349 C   0  0  0  0  0  0  0  0  0  0  0  0
    8.7443    2.4058   21.1333 Cl  0  0  0  0  0  0  0  0  0  0  0  0
    5.4303    0.7115   20.1984 C   0  0  0  0  0  0  0  0  0  0  0  0
    4.9778    0.7141   21.1935 H   0  0  0  0  0  0  0  0  0  0  0  0
    4.8143    1.3260   19.1020 C   0  0  0  0  0  0  0  0  0  0  0  0
    3.8624    1.8261   19.2077 H   0  0  0  0  0  0  0  0  0  0  0  0
  1  2  1  0
  2  3  2  0
  3  4  1  0
  4  5  1  0
  4  6  2  0
  6  7  1  0
  7  8  1  0
  8  9  1  0
  8 10  2  0
 10 11  1  0
 11 12  1  0
 11 13  2  0
 13 14  1  0
 14 15  2  0
 15 16  1  0
 15 17  1  0
 17 18  1  0
 17 19  2  0
 19 20  1  0
 19 21  1  0
 21 22  1  0
 21 23  2  0
 23 24  1  0
  6 25  1  0
 25 26  1  0
 25 27  2  0
 27 28  1  0
 27  2  1  0
 13  7  1  0
 23 14  1  0
M  END
>  <cnnaffinity>  (1) 
-5.38314

>  <filename>  (1) 
Clc1cccc(-c2cncn2-c2cccnc2)c1Cl

$$$$
