
     RDKit          3D

 32 35  0  0  0  0  0  0  0  0999 V2000
    5.0706    1.7018   16.8639 H   0  0  0  0  0  0  0  0  0  0  0  0
    5.5074    1.2211   17.7373 C   0  0  0  0  0  0  0  0  0  0  0  0
    6.6482    0.5444   17.5338 N   0  0  0  0  0  0  0  0  0  0  0  0
    7.2106   -0.0565   18.5875 C   0  0  0  0  0  0  0  0  0  0  0  0
    8.1283   -0.6061   18.3869 H   0  0  0  0  0  0  0  0  0  0  0  0
    6.6817    0.0101   19.8918 C   0  0  0  0  0  0  0  0  0  0  0  0
    7.3832   -0.6383   21.0019 C   0  0  0  0  0  0  0  0  0  0  0  0
    8.3374   -1.6305   20.7943 N   0  0  0  0  0  0  0  0  0  0  0  0
    8.7001   -1.9825   21.9959 C   0  0  0  0  0  0  0  0  0  0  0  0
    9.8274   -3.1020   22.7322 S   0  0  0  0  0  0  0  0  0  0  0  0
    9.3073   -2.6133   24.3319 C   0  0  0  0  0  0  0  0  0  0  0  0
    9.7322   -3.1033   25.1945 H   0  0  0  0  0  0  0  0  0  0  0  0
    8.3779   -1.6483   24.2992 C   0  0  0  0  0  0  0  0  0  0  0  0
    7.8837   -1.1408   25.1219 H   0  0  0  0  0  0  0  0  0  0  0  0
    8.0533   -1.2903   22.9950 N   0  0  0  0  0  0  0  0  0  0  0  0
    7.2334   -0.3986   22.3537 C   0  0  0  0  0  0  0  0  0  0  0  0
    6.4239    0.4393   23.0390 O   0  0  0  0  0  0  0  0  0  0  0  0
    6.8916    1.2500   24.0718 C   0  0  0  0  0  0  0  0  0  0  0  0
    8.2347    1.6126   24.2571 C   0  0  0  0  0  0  0  0  0  0  0  0
    9.0083    1.1151   23.6759 H   0  0  0  0  0  0  0  0  0  0  0  0
    8.5554    2.5670   25.2371 C   0  0  0  0  0  0  0  0  0  0  0  0
    9.5800    2.8969   25.3935 H   0  0  0  0  0  0  0  0  0  0  0  0
    7.5405    3.1131   26.0268 C   0  0  0  0  0  0  0  0  0  0  0  0
    7.9045    4.3356   27.2122 Cl  0  0  0  0  0  0  0  0  0  0  0  0
    6.2131    2.6905   25.8873 C   0  0  0  0  0  0  0  0  0  0  0  0
    5.4514    3.1256   26.5266 H   0  0  0  0  0  0  0  0  0  0  0  0
    5.8928    1.7375   24.9209 C   0  0  0  0  0  0  0  0  0  0  0  0
    4.8846    1.3456   24.8127 H   0  0  0  0  0  0  0  0  0  0  0  0
    5.4823    0.7229   20.0879 C   0  0  0  0  0  0  0  0  0  0  0  0
    5.0526    0.8082   21.0879 H   0  0  0  0  0  0  0  0  0  0  0  0
    4.8824    1.3244   18.9853 C   0  0  0  0  0  0  0  0  0  0  0  0
    3.9601    1.8877   19.0857 H   0  0  0  0  0  0  0  0  0  0  0  0
  1  2  1  0
  2  3  2  0
  3  4  1  0
  4  5  1  0
  4  6  2  0
  6  7  1  0
  7  8  1  0
  8  9  2  0
  9 10  1  0
 10 11  1  0
 11 12  1  0
 11 13  2  0
 13 14  1  0
 13 15  1  0
 15 16  1  0
 16 17  1  0
 17 18  1  0
 18 19  2  0
 19 20  1  0
 19 21  1  0
 21 22  1  0
 21 23  2  0
 23 24  1  0
 23 25  1  0
 25 26  1  0
 25 27  2  0
 27 28  1  0
  6 29  1  0
 29 30  1  0
 29 31  2  0
 31 32  1  0
 31  2  1  0
 16  7  2  0
 27 18  1  0
 15  9  1  0
M  END
>  <cnnaffinity>  (1) 
-5.31341

>  <filename>  (1) 
Clc1ccc(Oc2c(-c3cccnc3)nc3sccn23)cc1

$$$$
