
     RDKit          3D

 29 32  0  0  0  0  0  0  0  0999 V2000
    4.9493    1.7603   16.9782 H   0  0  0  0  0  0  0  0  0  0  0  0
    5.4125    1.2875   17.8453 C   0  0  0  0  0  0  0  0  0  0  0  0
    6.5758    0.6602   17.6217 N   0  0  0  0  0  0  0  0  0  0  0  0
    7.1644    0.0837   18.6737 C   0  0  0  0  0  0  0  0  0  0  0  0
    8.1077   -0.4126   18.4672 H   0  0  0  0  0  0  0  0  0  0  0  0
    6.6615    0.0969   19.9902 C   0  0  0  0  0  0  0  0  0  0  0  0
    7.4471   -0.5915   21.0348 C   0  0  0  0  0  0  0  0  0  0  0  0
    8.3231   -1.6056   20.8745 C   0  0  0  0  0  0  0  0  0  0  0  0
    8.7410   -1.9797   19.9553 H   0  0  0  0  0  0  0  0  0  0  0  0
    8.8978   -2.2644   22.3803 S   0  0  0  0  0  0  0  0  0  0  0  0
    8.0721   -1.0063   23.2443 C   0  0  0  0  0  0  0  0  0  0  0  0
    8.0748   -0.4884   24.4535 N   0  0  0  0  0  0  0  0  0  0  0  0
    7.3117    0.6232   24.2652 C   0  0  0  0  0  0  0  0  0  0  0  0
    7.0478    1.5835   25.3210 C   0  0  0  0  0  0  0  0  0  0  0  0
    7.5859    1.3550   26.5887 C   0  0  0  0  0  0  0  0  0  0  0  0
    8.2044    0.4832   26.7866 H   0  0  0  0  0  0  0  0  0  0  0  0
    7.3794    2.1755   27.6236 N   0  0  0  0  0  0  0  0  0  0  0  0
    6.6360    3.2484   27.4151 C   0  0  0  0  0  0  0  0  0  0  0  0
    6.3774    4.2976   28.7782 Cl  0  0  0  0  0  0  0  0  0  0  0  0
    6.0580    3.5847   26.1827 C   0  0  0  0  0  0  0  0  0  0  0  0
    5.4663    4.4838   26.0941 H   0  0  0  0  0  0  0  0  0  0  0  0
    6.2725    2.7363   25.1064 C   0  0  0  0  0  0  0  0  0  0  0  0
    5.8578    2.9512   24.1193 H   0  0  0  0  0  0  0  0  0  0  0  0
    6.8384    0.8115   23.0406 N   0  0  0  0  0  0  0  0  0  0  0  0
    7.3316   -0.2674   22.3899 N   0  0  0  0  0  0  0  0  0  0  0  0
    5.4320    0.7523   20.2059 C   0  0  0  0  0  0  0  0  0  0  0  0
    4.9989    0.8100   21.2071 H   0  0  0  0  0  0  0  0  0  0  0  0
    4.8013    1.3387   19.1042 C   0  0  0  0  0  0  0  0  0  0  0  0
    3.8484    1.8449   19.2037 H   0  0  0  0  0  0  0  0  0  0  0  0
  1  2  1  0
  2  3  2  0
  3  4  1  0
  4  5  1  0
  4  6  2  0
  6  7  1  0
  7  8  2  0
  8  9  1  0
  8 10  1  0
 10 11  1  0
 11 12  2  0
 12 13  1  0
 13 14  1  0
 14 15  2  0
 15 16  1  0
 15 17  1  0
 17 18  2  0
 18 19  1  0
 18 20  1  0
 20 21  1  0
 20 22  2  0
 22 23  1  0
 13 24  2  0
 24 25  1  0
  6 26  1  0
 26 27  1  0
 26 28  2  0
 28 29  1  0
 28  2  1  0
 25  7  1  0
 25 11  1  0
 22 14  1  0
M  END
>  <cnnaffinity>  (1) 
-5.37271

>  <filename>  (1) 
Clc1ccc(-c2nc3scc(-c4cccnc4)n3n2)cn1

$$$$
