
     RDKit          3D

 33 35  0  0  0  0  0  0  0  0999 V2000
    4.9740    1.7976   17.0084 H   0  0  0  0  0  0  0  0  0  0  0  0
    5.4476    1.2949   17.8514 C   0  0  0  0  0  0  0  0  0  0  0  0
    6.6104    0.6793   17.6011 N   0  0  0  0  0  0  0  0  0  0  0  0
    7.2182    0.0659   18.6222 C   0  0  0  0  0  0  0  0  0  0  0  0
    8.1592   -0.4121   18.3678 H   0  0  0  0  0  0  0  0  0  0  0  0
    6.7195    0.0136   19.9401 C   0  0  0  0  0  0  0  0  0  0  0  0
    7.4409   -0.7015   21.0626 C   0  0  0  0  0  0  0  0  0  0  0  0
    8.7261   -1.1806   20.5813 N   0  0  0  0  0  0  0  0  0  0  0  0
    8.7165   -2.1670   20.3951 H   0  0  0  0  0  0  0  0  0  0  0  0
    9.9570   -0.7694   21.0969 C   0  0  0  0  0  0  0  0  0  0  0  0
   10.8190   -1.7813   21.5409 C   0  0  0  0  0  0  0  0  0  0  0  0
   10.4254   -2.7879   21.5538 H   0  0  0  0  0  0  0  0  0  0  0  0
   12.1060   -1.5043   21.9903 C   0  0  0  0  0  0  0  0  0  0  0  0
   12.7621   -2.3180   22.2964 H   0  0  0  0  0  0  0  0  0  0  0  0
   12.5317   -0.1789   22.0614 C   0  0  0  0  0  0  0  0  0  0  0  0
   13.5245    0.0713   22.4152 H   0  0  0  0  0  0  0  0  0  0  0  0
   11.6685    0.8541   21.6813 C   0  0  0  0  0  0  0  0  0  0  0  0
   12.2267    2.4887   21.8042 Cl  0  0  0  0  0  0  0  0  0  0  0  0
   10.3693    0.5777   21.2239 C   0  0  0  0  0  0  0  0  0  0  0  0
    9.2804    1.8926   20.9399 Cl  0  0  0  0  0  0  0  0  0  0  0  0
    7.5069    0.0079   22.4665 C   0  0  0  0  0  0  0  0  0  0  0  0
    6.9988    0.9733   22.5268 H   0  0  0  0  0  0  0  0  0  0  0  0
    8.5293    0.1320   22.8229 H   0  0  0  0  0  0  0  0  0  0  0  0
    6.8374   -1.1960   23.1463 C   0  0  0  0  0  0  0  0  0  0  0  0
    7.5406   -1.7709   23.7546 H   0  0  0  0  0  0  0  0  0  0  0  0
    5.9795   -0.9878   23.7894 H   0  0  0  0  0  0  0  0  0  0  0  0
    6.6003   -1.8293   21.7565 C   0  0  0  0  0  0  0  0  0  0  0  0
    5.5512   -1.8190   21.4518 H   0  0  0  0  0  0  0  0  0  0  0  0
    6.9982   -2.8414   21.6165 H   0  0  0  0  0  0  0  0  0  0  0  0
    5.4924    0.6504   20.1682 C   0  0  0  0  0  0  0  0  0  0  0  0
    5.0601    0.6384   21.1703 H   0  0  0  0  0  0  0  0  0  0  0  0
    4.8489    1.3012   19.1151 C   0  0  0  0  0  0  0  0  0  0  0  0
    3.9099    1.8201   19.2614 H   0  0  0  0  0  0  0  0  0  0  0  0
  1  2  1  0
  2  3  2  0
  3  4  1  0
  4  5  1  0
  4  6  2  0
  6  7  1  0
  7  8  1  0
  8  9  1  0
  8 10  1  0
 10 11  2  0
 11 12  1  0
 11 13  1  0
 13 14  1  0
 13 15  2  0
 15 16  1  0
 15 17  1  0
 17 18  1  0
 17 19  2  0
 19 20  1  0
  7 21  1  0
 21 22  1  0
 21 23  1  0
 21 24  1  0
 24 25  1  0
 24 26  1  0
 24 27  1  0
 27 28  1  0
 27 29  1  0
  6 30  1  0
 30 31  1  0
 30 32  2  0
 32 33  1  0
 32  2  1  0
 27  7  1  0
 19 10  1  0
M  END
>  <cnnaffinity>  (1) 
-5.46261

>  <filename>  (1) 
Clc1cccc(NC2(c3cccnc3)CCC2)c1Cl

$$$$
