
     RDKit          3D

 29 31  0  0  0  0  0  0  0  0999 V2000
    5.0377    1.8335   16.9498 H   0  0  0  0  0  0  0  0  0  0  0  0
    5.4665    1.3182   17.8095 C   0  0  0  0  0  0  0  0  0  0  0  0
    6.6232    0.6718   17.5979 N   0  0  0  0  0  0  0  0  0  0  0  0
    7.1650    0.0291   18.6345 C   0  0  0  0  0  0  0  0  0  0  0  0
    8.0870   -0.5193   18.4448 H   0  0  0  0  0  0  0  0  0  0  0  0
    6.6146    0.0197   19.9264 C   0  0  0  0  0  0  0  0  0  0  0  0
    7.3294   -0.6864   20.9880 C   0  0  0  0  0  0  0  0  0  0  0  0
    7.8860   -1.9040   20.6973 N   0  0  0  0  0  0  0  0  0  0  0  0
    8.4643   -2.4811   21.6710 N   0  0  0  0  0  0  0  0  0  0  0  0
    8.3860   -1.5324   23.0724 S   0  0  0  0  0  0  0  0  0  0  0  0
    7.5459   -0.2678   22.2913 C   0  0  0  0  0  0  0  0  0  0  0  0
    7.2707    1.0427   22.9922 C   0  0  0  0  0  0  0  0  0  0  0  0
    6.7203    1.7048   22.3146 H   0  0  0  0  0  0  0  0  0  0  0  0
    6.6139    0.8612   23.8531 H   0  0  0  0  0  0  0  0  0  0  0  0
    8.5604    1.7275   23.4512 C   0  0  0  0  0  0  0  0  0  0  0  0
    9.0592    1.5901   24.7552 C   0  0  0  0  0  0  0  0  0  0  0  0
    8.4380    1.1083   25.5051 H   0  0  0  0  0  0  0  0  0  0  0  0
   10.3417    2.0282   25.0983 C   0  0  0  0  0  0  0  0  0  0  0  0
   10.7393    1.8160   26.0875 H   0  0  0  0  0  0  0  0  0  0  0  0
   11.1219    2.7036   24.1583 C   0  0  0  0  0  0  0  0  0  0  0  0
   12.1198    3.0413   24.4152 H   0  0  0  0  0  0  0  0  0  0  0  0
   10.6298    2.9341   22.8722 C   0  0  0  0  0  0  0  0  0  0  0  0
   11.1911    3.4852   22.1210 H   0  0  0  0  0  0  0  0  0  0  0  0
    9.3747    2.4132   22.5340 C   0  0  0  0  0  0  0  0  0  0  0  0
    8.8256    2.5908   20.9001 Cl  0  0  0  0  0  0  0  0  0  0  0  0
    5.3961    0.6763   20.1269 C   0  0  0  0  0  0  0  0  0  0  0  0
    4.9148    0.6631   21.1077 H   0  0  0  0  0  0  0  0  0  0  0  0
    4.8084    1.3311   19.0436 C   0  0  0  0  0  0  0  0  0  0  0  0
    3.8643    1.8489   19.1403 H   0  0  0  0  0  0  0  0  0  0  0  0
  1  2  1  0
  2  3  2  0
  3  4  1  0
  4  5  1  0
  4  6  2  0
  6  7  1  0
  7  8  1  0
  8  9  2  0
  9 10  1  0
 10 11  1  0
 11 12  1  0
 12 13  1  0
 12 14  1  0
 12 15  1  0
 15 16  2  0
 16 17  1  0
 16 18  1  0
 18 19  1  0
 18 20  2  0
 20 21  1  0
 20 22  1  0
 22 23  1  0
 22 24  2  0
 24 25  1  0
  6 26  1  0
 26 27  1  0
 26 28  2  0
 28 29  1  0
 28  2  1  0
 11  7  2  0
 24 15  1  0
M  END
>  <cnnaffinity>  (1) 
-4.96462

>  <filename>  (1) 
Clc1ccccc1Cc1snnc1-c1cccnc1

$$$$
