
     RDKit          3D

 31 33  0  0  0  0  0  0  0  0999 V2000
    5.1540    1.7312   16.8265 H   0  0  0  0  0  0  0  0  0  0  0  0
    5.5352    1.2483   17.7246 C   0  0  0  0  0  0  0  0  0  0  0  0
    6.6990    0.5925   17.5974 N   0  0  0  0  0  0  0  0  0  0  0  0
    7.2046    0.0043   18.6870 C   0  0  0  0  0  0  0  0  0  0  0  0
    8.1514   -0.5178   18.5564 H   0  0  0  0  0  0  0  0  0  0  0  0
    6.5799    0.0380   19.9457 C   0  0  0  0  0  0  0  0  0  0  0  0
    7.2209   -0.5755   21.1122 C   0  0  0  0  0  0  0  0  0  0  0  0
    8.4189   -1.1526   21.0303 N   0  0  0  0  0  0  0  0  0  0  0  0
    8.6837   -1.5916   22.2676 N   0  0  0  0  0  0  0  0  0  0  0  0
    9.9867   -2.1708   22.5888 C   0  0  0  0  0  0  0  0  0  0  0  0
   10.3365   -2.6952   21.6973 H   0  0  0  0  0  0  0  0  0  0  0  0
    9.8023   -2.8993   23.3891 H   0  0  0  0  0  0  0  0  0  0  0  0
   11.0057   -1.1710   23.1178 C   0  0  0  0  0  0  0  0  0  0  0  0
   10.7605   -0.5928   24.3761 C   0  0  0  0  0  0  0  0  0  0  0  0
    9.8121   -0.8136   24.8633 H   0  0  0  0  0  0  0  0  0  0  0  0
   11.7098    0.2114   25.0015 C   0  0  0  0  0  0  0  0  0  0  0  0
   11.5059    0.5714   26.0036 H   0  0  0  0  0  0  0  0  0  0  0  0
   12.9086    0.5151   24.3486 C   0  0  0  0  0  0  0  0  0  0  0  0
   13.6369    1.1628   24.8179 H   0  0  0  0  0  0  0  0  0  0  0  0
   13.1592    0.0030   23.0738 C   0  0  0  0  0  0  0  0  0  0  0  0
   14.0795    0.2416   22.5456 H   0  0  0  0  0  0  0  0  0  0  0  0
   12.2160   -0.8503   22.4829 C   0  0  0  0  0  0  0  0  0  0  0  0
   12.6174   -1.5378   20.9299 Cl  0  0  0  0  0  0  0  0  0  0  0  0
    7.6782   -1.3172   23.1346 C   0  0  0  0  0  0  0  0  0  0  0  0
    7.7025   -1.6861   24.1580 H   0  0  0  0  0  0  0  0  0  0  0  0
    6.7271   -0.6319   22.4342 C   0  0  0  0  0  0  0  0  0  0  0  0
    5.8411   -0.1528   22.8233 H   0  0  0  0  0  0  0  0  0  0  0  0
    5.3526    0.7099   20.0549 C   0  0  0  0  0  0  0  0  0  0  0  0
    4.8309    0.7651   21.0108 H   0  0  0  0  0  0  0  0  0  0  0  0
    4.8264    1.3268   18.9273 C   0  0  0  0  0  0  0  0  0  0  0  0
    3.9004    1.8862   18.9761 H   0  0  0  0  0  0  0  0  0  0  0  0
  1  2  1  0
  2  3  2  0
  3  4  1  0
  4  5  1  0
  4  6  2  0
  6  7  1  0
  7  8  2  0
  8  9  1  0
  9 10  1  0
 10 11  1  0
 10 12  1  0
 10 13  1  0
 13 14  2  0
 14 15  1  0
 14 16  1  0
 16 17  1  0
 16 18  2  0
 18 19  1  0
 18 20  1  0
 20 21  1  0
 20 22  2  0
 22 23  1  0
  9 24  1  0
 24 25  1  0
 24 26  2  0
 26 27  1  0
  6 28  1  0
 28 29  1  0
 28 30  2  0
 30 31  1  0
 30  2  1  0
 26  7  1  0
 22 13  1  0
M  END
>  <cnnaffinity>  (1) 
-5.26632

>  <filename>  (1) 
Clc1ccccc1Cn1ccc(-c2cccnc2)n1

$$$$
