
     RDKit          3D

 31 33  0  0  0  0  0  0  0  0999 V2000
    4.9141    1.8207   16.9561 H   0  0  0  0  0  0  0  0  0  0  0  0
    5.3839    1.3173   17.8012 C   0  0  0  0  0  0  0  0  0  0  0  0
    6.5435    0.6887   17.5426 N   0  0  0  0  0  0  0  0  0  0  0  0
    7.1502    0.0764   18.5691 C   0  0  0  0  0  0  0  0  0  0  0  0
    8.0897   -0.4205   18.3288 H   0  0  0  0  0  0  0  0  0  0  0  0
    6.6463    0.0262   19.8899 C   0  0  0  0  0  0  0  0  0  0  0  0
    7.2851   -0.7218   20.9890 C   0  0  0  0  0  0  0  0  0  0  0  0
    6.7726   -1.6845   21.8268 C   0  0  0  0  0  0  0  0  0  0  0  0
    5.7542   -2.0487   21.8437 H   0  0  0  0  0  0  0  0  0  0  0  0
    7.7408   -2.1908   22.6523 N   0  0  0  0  0  0  0  0  0  0  0  0
    8.8255   -1.5248   22.3442 C   0  0  0  0  0  0  0  0  0  0  0  0
    9.8075   -1.6349   22.7892 H   0  0  0  0  0  0  0  0  0  0  0  0
    8.6188   -0.6256   21.3405 N   0  0  0  0  0  0  0  0  0  0  0  0
    9.6488    0.2582   20.8121 C   0  0  0  0  0  0  0  0  0  0  0  0
    9.1798    0.8893   20.0599 H   0  0  0  0  0  0  0  0  0  0  0  0
   10.4060   -0.3688   20.3307 H   0  0  0  0  0  0  0  0  0  0  0  0
   10.2959    1.1211   21.8785 C   0  0  0  0  0  0  0  0  0  0  0  0
   11.5754    0.8010   22.3601 C   0  0  0  0  0  0  0  0  0  0  0  0
   12.1058   -0.0340   21.9040 H   0  0  0  0  0  0  0  0  0  0  0  0
   12.1666    1.5187   23.4039 C   0  0  0  0  0  0  0  0  0  0  0  0
   13.1513    1.2342   23.7661 H   0  0  0  0  0  0  0  0  0  0  0  0
   11.4769    2.5895   23.9808 C   0  0  0  0  0  0  0  0  0  0  0  0
   11.9238    3.1553   24.7917 H   0  0  0  0  0  0  0  0  0  0  0  0
   10.2069    2.9396   23.5128 C   0  0  0  0  0  0  0  0  0  0  0  0
    9.6504    3.7652   23.9461 H   0  0  0  0  0  0  0  0  0  0  0  0
    9.6279    2.2072   22.4708 C   0  0  0  0  0  0  0  0  0  0  0  0
    8.0412    2.6861   21.9268 Cl  0  0  0  0  0  0  0  0  0  0  0  0
    5.4220    0.6726   20.1185 C   0  0  0  0  0  0  0  0  0  0  0  0
    4.9935    0.6576   21.1195 H   0  0  0  0  0  0  0  0  0  0  0  0
    4.7880    1.3365   19.0661 C   0  0  0  0  0  0  0  0  0  0  0  0
    3.8517    1.8663   19.2103 H   0  0  0  0  0  0  0  0  0  0  0  0
  1  2  1  0
  2  3  2  0
  3  4  1  0
  4  5  1  0
  4  6  2  0
  6  7  1  0
  7  8  2  0
  8  9  1  0
  8 10  1  0
 10 11  2  0
 11 12  1  0
 11 13  1  0
 13 14  1  0
 14 15  1  0
 14 16  1  0
 14 17  1  0
 17 18  2  0
 18 19  1  0
 18 20  1  0
 20 21  1  0
 20 22  2  0
 22 23  1  0
 22 24  1  0
 24 25  1  0
 24 26  2  0
 26 27  1  0
  6 28  1  0
 28 29  1  0
 28 30  2  0
 30 31  1  0
 30  2  1  0
 13  7  1  0
 26 17  1  0
M  END
>  <cnnaffinity>  (1) 
-5.52468

>  <filename>  (1) 
Clc1ccccc1Cn1cncc1-c1cccnc1

$$$$
