
     RDKit          3D

 32 34  0  0  0  0  0  0  0  0999 V2000
    4.9421    1.7942   16.9790 H   0  0  0  0  0  0  0  0  0  0  0  0
    5.4193    1.2929   17.8171 C   0  0  0  0  0  0  0  0  0  0  0  0
    6.5803    0.6726   17.5522 N   0  0  0  0  0  0  0  0  0  0  0  0
    7.2027    0.0689   18.5679 C   0  0  0  0  0  0  0  0  0  0  0  0
    8.1540   -0.4140   18.3469 H   0  0  0  0  0  0  0  0  0  0  0  0
    6.6920    0.0222   19.8715 C   0  0  0  0  0  0  0  0  0  0  0  0
    7.4320   -0.7049   20.9288 C   0  0  0  0  0  0  0  0  0  0  0  0
    8.7756   -0.7262   20.8766 N   0  0  0  0  0  0  0  0  0  0  0  0
    9.4758   -1.3370   21.8385 N   0  0  0  0  0  0  0  0  0  0  0  0
    8.8443   -1.9218   22.8628 C   0  0  0  0  0  0  0  0  0  0  0  0
    9.4948   -2.4120   23.5783 H   0  0  0  0  0  0  0  0  0  0  0  0
    7.4359   -1.9358   22.9989 C   0  0  0  0  0  0  0  0  0  0  0  0
    6.7289   -2.6997   24.1041 C   0  0  0  0  0  0  0  0  0  0  0  0
    7.2118   -2.5222   25.0718 H   0  0  0  0  0  0  0  0  0  0  0  0
    5.7049   -2.3370   24.2225 H   0  0  0  0  0  0  0  0  0  0  0  0
    6.7566   -4.1856   23.7856 C   0  0  0  0  0  0  0  0  0  0  0  0
    7.8728   -4.9320   24.1970 C   0  0  0  0  0  0  0  0  0  0  0  0
    8.5565   -4.4900   24.9205 H   0  0  0  0  0  0  0  0  0  0  0  0
    8.1360   -6.1922   23.6669 C   0  0  0  0  0  0  0  0  0  0  0  0
    9.0324   -6.7398   23.9454 H   0  0  0  0  0  0  0  0  0  0  0  0
    7.2158   -6.7739   22.7873 C   0  0  0  0  0  0  0  0  0  0  0  0
    7.4559   -7.7426   22.3632 H   0  0  0  0  0  0  0  0  0  0  0  0
    6.0277   -6.1171   22.4648 C   0  0  0  0  0  0  0  0  0  0  0  0
    5.2428   -6.5891   21.8787 H   0  0  0  0  0  0  0  0  0  0  0  0
    5.8316   -4.8159   22.9357 C   0  0  0  0  0  0  0  0  0  0  0  0
    4.3941   -3.9744   22.4181 Cl  0  0  0  0  0  0  0  0  0  0  0  0
    6.7328   -1.3543   21.9573 C   0  0  0  0  0  0  0  0  0  0  0  0
    5.6562   -1.4365   21.8678 H   0  0  0  0  0  0  0  0  0  0  0  0
    5.4682    0.6638   20.1315 C   0  0  0  0  0  0  0  0  0  0  0  0
    5.0384    0.6722   21.1357 H   0  0  0  0  0  0  0  0  0  0  0  0
    4.8257    1.3153   19.0828 C   0  0  0  0  0  0  0  0  0  0  0  0
    3.8850    1.8355   19.2324 H   0  0  0  0  0  0  0  0  0  0  0  0
  1  2  1  0
  2  3  2  0
  3  4  1  0
  4  5  1  0
  4  6  2  0
  6  7  1  0
  7  8  2  0
  8  9  1  0
  9 10  2  0
 10 11  1  0
 10 12  1  0
 12 13  1  0
 13 14  1  0
 13 15  1  0
 13 16  1  0
 16 17  2  0
 17 18  1  0
 17 19  1  0
 19 20  1  0
 19 21  2  0
 21 22  1  0
 21 23  1  0
 23 24  1  0
 23 25  2  0
 25 26  1  0
 12 27  2  0
 27 28  1  0
  6 29  1  0
 29 30  1  0
 29 31  2  0
 31 32  1  0
 31  2  1  0
 27  7  1  0
 25 16  1  0
M  END
>  <cnnaffinity>  (1) 
-5.66522

>  <filename>  (1) 
Clc1ccccc1Cc1cnnc(-c2cccnc2)c1

$$$$
