
     RDKit          3D

 29 31  0  0  0  0  0  0  0  0999 V2000
    8.4985   -1.9089   19.8425 H   0  0  0  0  0  0  0  0  0  0  0  0
    8.2539   -1.6401   20.8549 C   0  0  0  0  0  0  0  0  0  0  0  0
    8.8262   -2.3578   21.8331 N   0  0  0  0  0  0  0  0  0  0  0  0
    8.5920   -1.9066   23.0780 C   0  0  0  0  0  0  0  0  0  0  0  0
    9.0303   -2.4756   23.8869 H   0  0  0  0  0  0  0  0  0  0  0  0
    7.8181   -0.7508   23.3435 C   0  0  0  0  0  0  0  0  0  0  0  0
    7.6839   -0.2010   24.7175 C   0  0  0  0  0  0  0  0  0  0  0  0
    8.6827   -0.3770   25.6893 C   0  0  0  0  0  0  0  0  0  0  0  0
    9.6029   -0.9055   25.4539 H   0  0  0  0  0  0  0  0  0  0  0  0
    8.5238    0.1610   26.9637 C   0  0  0  0  0  0  0  0  0  0  0  0
    9.2836    0.0205   27.7255 H   0  0  0  0  0  0  0  0  0  0  0  0
    7.3767    0.8946   27.2890 C   0  0  0  0  0  0  0  0  0  0  0  0
    7.2351    1.5582   28.8803 Cl  0  0  0  0  0  0  0  0  0  0  0  0
    6.3732    1.0742   26.3210 C   0  0  0  0  0  0  0  0  0  0  0  0
    4.9247    1.9637   26.6418 Cl  0  0  0  0  0  0  0  0  0  0  0  0
    6.5364    0.5281   25.0501 C   0  0  0  0  0  0  0  0  0  0  0  0
    5.7738    0.6798   24.2930 H   0  0  0  0  0  0  0  0  0  0  0  0
    7.1601   -0.1141   22.3488 N   0  0  0  0  0  0  0  0  0  0  0  0
    7.3720   -0.5505   21.0988 C   0  0  0  0  0  0  0  0  0  0  0  0
    6.6256    0.1222   20.0015 C   0  0  0  0  0  0  0  0  0  0  0  0
    7.1668    0.1125   18.7081 C   0  0  0  0  0  0  0  0  0  0  0  0
    8.1235   -0.3703   18.5191 H   0  0  0  0  0  0  0  0  0  0  0  0
    6.5908    0.6748   17.6441 N   0  0  0  0  0  0  0  0  0  0  0  0
    5.4154    1.2897   17.8374 C   0  0  0  0  0  0  0  0  0  0  0  0
    4.9800    1.7671   16.9629 H   0  0  0  0  0  0  0  0  0  0  0  0
    4.7681    1.3381   19.0774 C   0  0  0  0  0  0  0  0  0  0  0  0
    3.8132    1.8436   19.1617 H   0  0  0  0  0  0  0  0  0  0  0  0
    5.3825    0.7493   20.1840 C   0  0  0  0  0  0  0  0  0  0  0  0
    4.9145    0.7751   21.1700 H   0  0  0  0  0  0  0  0  0  0  0  0
  1  2  1  0
  2  3  2  0
  3  4  1  0
  4  5  1  0
  4  6  2  0
  6  7  1  0
  7  8  2  0
  8  9  1  0
  8 10  1  0
 10 11  1  0
 10 12  2  0
 12 13  1  0
 12 14  1  0
 14 15  1  0
 14 16  2  0
 16 17  1  0
  6 18  1  0
 18 19  2  0
 19 20  1  0
 20 21  2  0
 21 22  1  0
 21 23  1  0
 23 24  2  0
 24 25  1  0
 24 26  1  0
 26 27  1  0
 26 28  2  0
 28 29  1  0
 19  2  1  0
 28 20  1  0
 16  7  1  0
M  END
>  <cnnaffinity>  (1) 
-5.57028

>  <filename>  (1) 
Clc1ccc(-c2cncc(-c3cccnc3)n2)cc1Cl

$$$$
