
     RDKit          3D

 32 35  0  0  0  0  0  0  0  0999 V2000
    4.9885    1.8567   16.8724 H   0  0  0  0  0  0  0  0  0  0  0  0
    5.4196    1.3043   17.7072 C   0  0  0  0  0  0  0  0  0  0  0  0
    6.5614    0.6431   17.4666 N   0  0  0  0  0  0  0  0  0  0  0  0
    7.1356   -0.0081   18.4840 C   0  0  0  0  0  0  0  0  0  0  0  0
    8.0611   -0.5300   18.2514 H   0  0  0  0  0  0  0  0  0  0  0  0
    6.6126   -0.0328   19.7881 C   0  0  0  0  0  0  0  0  0  0  0  0
    7.3809   -0.6339   20.8959 C   0  0  0  0  0  0  0  0  0  0  0  0
    8.5166   -1.3169   20.6763 N   0  0  0  0  0  0  0  0  0  0  0  0
    8.9446   -1.5874   21.9253 N   0  0  0  0  0  0  0  0  0  0  0  0
   10.0558   -2.2192   22.4625 C   0  0  0  0  0  0  0  0  0  0  0  0
   10.7979   -2.6755   21.8372 H   0  0  0  0  0  0  0  0  0  0  0  0
    9.9280   -2.0983   23.8083 C   0  0  0  0  0  0  0  0  0  0  0  0
   10.5483   -2.4676   24.6038 H   0  0  0  0  0  0  0  0  0  0  0  0
    8.7588   -1.4035   24.1094 N   0  0  0  0  0  0  0  0  0  0  0  0
    8.2740   -1.0213   25.3860 C   0  0  0  0  0  0  0  0  0  0  0  0
    6.8838   -0.9436   25.5903 C   0  0  0  0  0  0  0  0  0  0  0  0
    6.2114   -1.2538   24.7926 H   0  0  0  0  0  0  0  0  0  0  0  0
    6.3667   -0.4453   26.7878 C   0  0  0  0  0  0  0  0  0  0  0  0
    5.3008   -0.3077   26.9257 H   0  0  0  0  0  0  0  0  0  0  0  0
    7.2371   -0.0635   27.8103 C   0  0  0  0  0  0  0  0  0  0  0  0
    6.5906    0.6132   29.2807 Cl  0  0  0  0  0  0  0  0  0  0  0  0
    8.6158   -0.1995   27.6524 C   0  0  0  0  0  0  0  0  0  0  0  0
    9.2641    0.0527   28.4851 H   0  0  0  0  0  0  0  0  0  0  0  0
    9.1364   -0.6621   26.4385 C   0  0  0  0  0  0  0  0  0  0  0  0
   10.2160   -0.7005   26.3175 H   0  0  0  0  0  0  0  0  0  0  0  0
    8.1502   -1.1031   22.8972 C   0  0  0  0  0  0  0  0  0  0  0  0
    7.0787   -0.4893   22.2703 C   0  0  0  0  0  0  0  0  0  0  0  0
    6.2072   -0.0237   22.6974 H   0  0  0  0  0  0  0  0  0  0  0  0
    5.3893    0.6232   20.0068 C   0  0  0  0  0  0  0  0  0  0  0  0
    4.9157    0.6008   20.9880 H   0  0  0  0  0  0  0  0  0  0  0  0
    4.7895    1.3098   18.9547 C   0  0  0  0  0  0  0  0  0  0  0  0
    3.8682    1.8639   19.0972 H   0  0  0  0  0  0  0  0  0  0  0  0
  1  2  1  0
  2  3  2  0
  3  4  1  0
  4  5  1  0
  4  6  2  0
  6  7  1  0
  7  8  2  0
  8  9  1  0
  9 10  1  0
 10 11  1  0
 10 12  2  0
 12 13  1  0
 12 14  1  0
 14 15  1  0
 15 16  2  0
 16 17  1  0
 16 18  1  0
 18 19  1  0
 18 20  2  0
 20 21  1  0
 20 22  1  0
 22 23  1  0
 22 24  2  0
 24 25  1  0
 14 26  1  0
 26 27  2  0
 27 28  1  0
  6 29  1  0
 29 30  1  0
 29 31  2  0
 31 32  1  0
 31  2  1  0
 27  7  1  0
 26  9  1  0
 24 15  1  0
M  END
>  <cnnaffinity>  (1) 
-5.40139

>  <filename>  (1) 
Clc1ccc(-n2ccn3nc(-c4cccnc4)cc23)cc1

$$$$
