
     RDKit          3D

 28 30  0  0  0  0  0  0  0  0999 V2000
    4.9132    1.7837   16.9925 H   0  0  0  0  0  0  0  0  0  0  0  0
    5.3993    1.2960   17.8349 C   0  0  0  0  0  0  0  0  0  0  0  0
    6.5616    0.6773   17.5696 N   0  0  0  0  0  0  0  0  0  0  0  0
    7.1723    0.0640   18.5867 C   0  0  0  0  0  0  0  0  0  0  0  0
    8.1110   -0.4330   18.3613 H   0  0  0  0  0  0  0  0  0  0  0  0
    6.6682    0.0118   19.9002 C   0  0  0  0  0  0  0  0  0  0  0  0
    7.3753   -0.6661   20.9304 N   0  0  0  0  0  0  0  0  0  0  0  0
    8.7345   -0.8452   21.0768 C   0  0  0  0  0  0  0  0  0  0  0  0
    9.4326   -0.4254   20.3596 H   0  0  0  0  0  0  0  0  0  0  0  0
    9.0317   -1.5098   22.1572 N   0  0  0  0  0  0  0  0  0  0  0  0
    7.8247   -1.8101   22.7560 C   0  0  0  0  0  0  0  0  0  0  0  0
    7.7311   -2.5303   24.0396 C   0  0  0  0  0  0  0  0  0  0  0  0
    8.6370   -2.2123   25.0673 C   0  0  0  0  0  0  0  0  0  0  0  0
    9.4110   -1.4782   24.8650 H   0  0  0  0  0  0  0  0  0  0  0  0
    8.5555   -2.8252   26.3115 C   0  0  0  0  0  0  0  0  0  0  0  0
    9.2715   -2.5693   27.0843 H   0  0  0  0  0  0  0  0  0  0  0  0
    7.5628   -3.7715   26.5640 C   0  0  0  0  0  0  0  0  0  0  0  0
    7.4887   -4.2575   27.5300 H   0  0  0  0  0  0  0  0  0  0  0  0
    6.6558   -4.1128   25.5595 C   0  0  0  0  0  0  0  0  0  0  0  0
    5.4537   -5.3044   25.9229 Cl  0  0  0  0  0  0  0  0  0  0  0  0
    6.7406   -3.5072   24.2947 C   0  0  0  0  0  0  0  0  0  0  0  0
    5.6489   -4.0197   23.0515 Cl  0  0  0  0  0  0  0  0  0  0  0  0
    6.8064   -1.2893   22.0175 C   0  0  0  0  0  0  0  0  0  0  0  0
    5.7470   -1.3326   22.1822 H   0  0  0  0  0  0  0  0  0  0  0  0
    5.4449    0.6463   20.1633 C   0  0  0  0  0  0  0  0  0  0  0  0
    5.0157    0.6398   21.1691 H   0  0  0  0  0  0  0  0  0  0  0  0
    4.8100    1.3079   19.1066 C   0  0  0  0  0  0  0  0  0  0  0  0
    3.8757    1.8407   19.2638 H   0  0  0  0  0  0  0  0  0  0  0  0
  1  2  1  0
  2  3  2  0
  3  4  1  0
  4  5  1  0
  4  6  2  0
  6  7  1  0
  7  8  1  0
  8  9  1  0
  8 10  2  0
 10 11  1  0
 11 12  1  0
 12 13  2  0
 13 14  1  0
 13 15  1  0
 15 16  1  0
 15 17  2  0
 17 18  1  0
 17 19  1  0
 19 20  1  0
 19 21  2  0
 21 22  1  0
 11 23  2  0
 23 24  1  0
  6 25  1  0
 25 26  1  0
 25 27  2  0
 27 28  1  0
 27  2  1  0
 23  7  1  0
 21 12  1  0
M  END
>  <cnnaffinity>  (1) 
-5.56698

>  <filename>  (1) 
Clc1cccc(-c2cn(-c3cccnc3)cn2)c1Cl

$$$$
