
     RDKit          3D

 29 31  0  0  0  0  0  0  0  0999 V2000
    5.1948    2.2148   16.6789 H   0  0  0  0  0  0  0  0  0  0  0  0
    5.5480    1.4867   17.4073 C   0  0  0  0  0  0  0  0  0  0  0  0
    6.5851    0.7231   17.0293 N   0  0  0  0  0  0  0  0  0  0  0  0
    7.0857   -0.1525   17.9105 C   0  0  0  0  0  0  0  0  0  0  0  0
    7.9348   -0.7578   17.5949 H   0  0  0  0  0  0  0  0  0  0  0  0
    6.5769   -0.3076   19.2052 C   0  0  0  0  0  0  0  0  0  0  0  0
    7.2366   -1.1681   20.0667 O   0  0  0  0  0  0  0  0  0  0  0  0
    6.4862   -2.0566   20.7936 C   0  0  0  0  0  0  0  0  0  0  0  0
    5.4666   -2.9391   20.3705 C   0  0  0  0  0  0  0  0  0  0  0  0
    5.0777   -3.1114   19.3743 H   0  0  0  0  0  0  0  0  0  0  0  0
    4.9439   -3.5868   21.4134 N   0  0  0  0  0  0  0  0  0  0  0  0
    5.6398   -3.1544   22.4674 N   0  0  0  0  0  0  0  0  0  0  0  0
    5.4623   -3.5363   23.3892 H   0  0  0  0  0  0  0  0  0  0  0  0
    6.6288   -2.2780   22.1530 C   0  0  0  0  0  0  0  0  0  0  0  0
    7.6843   -1.9378   23.1322 C   0  0  0  0  0  0  0  0  0  0  0  0
    7.6822   -0.6985   23.7866 C   0  0  0  0  0  0  0  0  0  0  0  0
    6.8611   -0.0160   23.5980 H   0  0  0  0  0  0  0  0  0  0  0  0
    8.7272   -0.3439   24.6436 C   0  0  0  0  0  0  0  0  0  0  0  0
    8.7242    0.6322   25.1210 H   0  0  0  0  0  0  0  0  0  0  0  0
    9.7821   -1.2279   24.8823 C   0  0  0  0  0  0  0  0  0  0  0  0
   10.6069   -0.9331   25.5259 H   0  0  0  0  0  0  0  0  0  0  0  0
    9.7601   -2.4968   24.2912 C   0  0  0  0  0  0  0  0  0  0  0  0
   11.0488   -3.6061   24.6203 Cl  0  0  0  0  0  0  0  0  0  0  0  0
    8.7134   -2.8619   23.4316 C   0  0  0  0  0  0  0  0  0  0  0  0
    8.6942   -4.4555   22.7482 Cl  0  0  0  0  0  0  0  0  0  0  0  0
    5.4685    0.4583   19.5885 C   0  0  0  0  0  0  0  0  0  0  0  0
    5.0470    0.3311   20.5842 H   0  0  0  0  0  0  0  0  0  0  0  0
    4.9465    1.3736   18.6648 C   0  0  0  0  0  0  0  0  0  0  0  0
    4.0940    1.9991   18.9082 H   0  0  0  0  0  0  0  0  0  0  0  0
  1  2  1  0
  2  3  2  0
  3  4  1  0
  4  5  1  0
  4  6  2  0
  6  7  1  0
  7  8  1  0
  8  9  1  0
  9 10  1  0
  9 11  2  0
 11 12  1  0
 12 13  1  0
 12 14  1  0
 14 15  1  0
 15 16  2  0
 16 17  1  0
 16 18  1  0
 18 19  1  0
 18 20  2  0
 20 21  1  0
 20 22  1  0
 22 23  1  0
 22 24  2  0
 24 25  1  0
  6 26  1  0
 26 27  1  0
 26 28  2  0
 28 29  1  0
 28  2  1  0
 14  8  2  0
 24 15  1  0
M  END
>  <cnnaffinity>  (1) 
-5.8815

>  <filename>  (1) 
Clc1cccc(-c2[nH]ncc2Oc2cccnc2)c1Cl

$$$$
