
     RDKit          3D

 30 32  0  0  0  0  0  0  0  0999 V2000
    4.9098    1.8116   16.9677 H   0  0  0  0  0  0  0  0  0  0  0  0
    5.3809    1.3089   17.8108 C   0  0  0  0  0  0  0  0  0  0  0  0
    6.5428    0.6854   17.5457 N   0  0  0  0  0  0  0  0  0  0  0  0
    7.1535    0.0633   18.5610 C   0  0  0  0  0  0  0  0  0  0  0  0
    8.1123   -0.3988   18.3232 H   0  0  0  0  0  0  0  0  0  0  0  0
    6.6576    0.0239   19.8836 C   0  0  0  0  0  0  0  0  0  0  0  0
    7.3759   -0.6354   20.9750 C   0  0  0  0  0  0  0  0  0  0  0  0
    7.5238   -0.3470   22.3277 C   0  0  0  0  0  0  0  0  0  0  0  0
    7.1044    0.8102   22.9321 N   0  0  0  0  0  0  0  0  0  0  0  0
    7.0015    1.5657   22.2836 H   0  0  0  0  0  0  0  0  0  0  0  0
    6.9744    1.0636   24.2964 C   0  0  0  0  0  0  0  0  0  0  0  0
    6.6042    0.0319   25.1668 C   0  0  0  0  0  0  0  0  0  0  0  0
    6.4441   -0.9521   24.7380 H   0  0  0  0  0  0  0  0  0  0  0  0
    6.4709    0.2780   26.5327 C   0  0  0  0  0  0  0  0  0  0  0  0
    6.2102   -0.5254   27.2140 H   0  0  0  0  0  0  0  0  0  0  0  0
    6.7015    1.5665   27.0227 C   0  0  0  0  0  0  0  0  0  0  0  0
    6.5545    1.8596   28.7301 Cl  0  0  0  0  0  0  0  0  0  0  0  0
    7.0428    2.6127   26.1609 C   0  0  0  0  0  0  0  0  0  0  0  0
    7.2061    3.6056   26.5692 H   0  0  0  0  0  0  0  0  0  0  0  0
    7.1677    2.3615   24.7892 C   0  0  0  0  0  0  0  0  0  0  0  0
    7.4271    3.1626   24.1021 H   0  0  0  0  0  0  0  0  0  0  0  0
    8.2229   -1.3168   22.9646 N   0  0  0  0  0  0  0  0  0  0  0  0
    8.5192   -2.1921   22.0313 C   0  0  0  0  0  0  0  0  0  0  0  0
    9.0790   -3.1025   22.1809 H   0  0  0  0  0  0  0  0  0  0  0  0
    8.0453   -1.8311   20.8156 N   0  0  0  0  0  0  0  0  0  0  0  0
    8.0656   -2.3897   19.9784 H   0  0  0  0  0  0  0  0  0  0  0  0
    5.4322    0.6691   20.1291 C   0  0  0  0  0  0  0  0  0  0  0  0
    5.0120    0.6320   21.1341 H   0  0  0  0  0  0  0  0  0  0  0  0
    4.7898    1.3241   19.0782 C   0  0  0  0  0  0  0  0  0  0  0  0
    3.8579    1.8546   19.2323 H   0  0  0  0  0  0  0  0  0  0  0  0
  1  2  1  0
  2  3  2  0
  3  4  1  0
  4  5  1  0
  4  6  2  0
  6  7  1  0
  7  8  2  0
  8  9  1  0
  9 10  1  0
  9 11  1  0
 11 12  2  0
 12 13  1  0
 12 14  1  0
 14 15  1  0
 14 16  2  0
 16 17  1  0
 16 18  1  0
 18 19  1  0
 18 20  2  0
 20 21  1  0
  8 22  1  0
 22 23  2  0
 23 24  1  0
 23 25  1  0
 25 26  1  0
  6 27  1  0
 27 28  1  0
 27 29  2  0
 29 30  1  0
 29  2  1  0
 25  7  1  0
 20 11  1  0
M  END
>  <cnnaffinity>  (1) 
-5.2031

>  <filename>  (1) 
Clc1ccc(Nc2nc[nH]c2-c2cccnc2)cc1

$$$$
