
     RDKit          3D

 35 38  0  0  0  0  0  0  0  0999 V2000
    4.9923    1.8446   16.9190 H   0  0  0  0  0  0  0  0  0  0  0  0
    5.3902    1.3072   17.7825 C   0  0  0  0  0  0  0  0  0  0  0  0
    6.5421    0.6492   17.5904 N   0  0  0  0  0  0  0  0  0  0  0  0
    7.0690    0.0284   18.6548 C   0  0  0  0  0  0  0  0  0  0  0  0
    8.0105   -0.4894   18.4673 H   0  0  0  0  0  0  0  0  0  0  0  0
    6.4882   -0.0085   19.9439 C   0  0  0  0  0  0  0  0  0  0  0  0
    7.2402   -0.6239   21.0626 C   0  0  0  0  0  0  0  0  0  0  0  0
    8.5942   -0.5603   21.3021 C   0  0  0  0  0  0  0  0  0  0  0  0
    8.8067   -1.1634   22.5355 C   0  0  0  0  0  0  0  0  0  0  0  0
    7.6962   -1.6285   23.0703 N   0  0  0  0  0  0  0  0  0  0  0  0
    6.7456   -1.2767   22.1633 N   0  0  0  0  0  0  0  0  0  0  0  0
    5.7850   -1.5198   22.3749 H   0  0  0  0  0  0  0  0  0  0  0  0
   10.2440   -1.1193   22.9594 C   0  0  0  0  0  0  0  0  0  0  0  0
   10.3788   -0.6523   23.9394 H   0  0  0  0  0  0  0  0  0  0  0  0
   10.6609   -2.1262   23.0369 H   0  0  0  0  0  0  0  0  0  0  0  0
   10.9345   -0.2828   21.8229 C   0  0  2  0  0  0  0  0  0  0  0  0
   11.7473   -0.8870   21.4120 H   0  0  0  0  0  0  0  0  0  0  0  0
   11.5080    1.0258   22.3302 C   0  0  0  0  0  0  0  0  0  0  0  0
   12.8835    1.3012   22.3042 C   0  0  0  0  0  0  0  0  0  0  0  0
   13.5775    0.5564   21.9248 H   0  0  0  0  0  0  0  0  0  0  0  0
   13.3846    2.5254   22.7569 C   0  0  0  0  0  0  0  0  0  0  0  0
   14.4440    2.7523   22.6908 H   0  0  0  0  0  0  0  0  0  0  0  0
   12.5012    3.4746   23.2686 C   0  0  0  0  0  0  0  0  0  0  0  0
   13.1198    4.9918   23.8507 Cl  0  0  0  0  0  0  0  0  0  0  0  0
   11.1287    3.2220   23.3302 C   0  0  0  0  0  0  0  0  0  0  0  0
   10.4515    3.9679   23.7338 H   0  0  0  0  0  0  0  0  0  0  0  0
   10.6452    2.0012   22.8579 C   0  0  0  0  0  0  0  0  0  0  0  0
    9.5781    1.7987   22.8968 H   0  0  0  0  0  0  0  0  0  0  0  0
    9.8627   -0.0663   20.7008 C   0  0  0  0  0  0  0  0  0  0  0  0
   10.1259   -0.6419   19.8131 H   0  0  0  0  0  0  0  0  0  0  0  0
    9.7917    0.9768   20.3739 H   0  0  0  0  0  0  0  0  0  0  0  0
    5.2624    0.6650   20.1075 C   0  0  0  0  0  0  0  0  0  0  0  0
    4.7687    0.7079   21.0836 H   0  0  0  0  0  0  0  0  0  0  0  0
    4.7179    1.3367   19.0105 C   0  0  0  0  0  0  0  0  0  0  0  0
    3.8030    1.9095   19.0984 H   0  0  0  0  0  0  0  0  0  0  0  0
  1  2  1  0
  2  3  2  0
  3  4  1  0
  4  5  1  0
  4  6  2  0
  6  7  1  0
  7  8  2  0
  8  9  1  0
  9 10  2  0
 10 11  1  0
 11 12  1  0
  9 13  1  0
 13 14  1  0
 13 15  1  0
 13 16  1  0
 16 17  1  6
 16 18  1  0
 18 19  2  0
 19 20  1  0
 19 21  1  0
 21 22  1  0
 21 23  2  0
 23 24  1  0
 23 25  1  0
 25 26  1  0
 25 27  2  0
 27 28  1  0
 16 29  1  0
 29 30  1  0
 29 31  1  0
  6 32  1  0
 32 33  1  0
 32 34  2  0
 34 35  1  0
 34  2  1  0
 11  7  1  0
 27 18  1  0
 29  8  1  0
M  END
>  <cnnaffinity>  (1) 
-5.7165

>  <filename>  (1) 
Clc1ccc([C@H]2Cc3n[nH]c(-c4cccnc4)c3C2)cc1

$$$$
