
     RDKit          3D

 30 33  0  0  0  0  0  0  0  0999 V2000
    4.9503    1.7856   16.9880 H   0  0  0  0  0  0  0  0  0  0  0  0
    5.4025    1.2827   17.8362 C   0  0  0  0  0  0  0  0  0  0  0  0
    6.5623    0.6506   17.5962 N   0  0  0  0  0  0  0  0  0  0  0  0
    7.1614    0.0698   18.6372 C   0  0  0  0  0  0  0  0  0  0  0  0
    8.1108   -0.4191   18.4056 H   0  0  0  0  0  0  0  0  0  0  0  0
    6.6607    0.0895   19.9561 C   0  0  0  0  0  0  0  0  0  0  0  0
    7.4324   -0.6066   21.0079 C   0  0  0  0  0  0  0  0  0  0  0  0
    8.2876   -1.6364   20.8489 C   0  0  0  0  0  0  0  0  0  0  0  0
    8.7187   -1.9902   19.9333 H   0  0  0  0  0  0  0  0  0  0  0  0
    8.8630   -2.3140   22.3465 S   0  0  0  0  0  0  0  0  0  0  0  0
    8.0901   -1.0235   23.2096 C   0  0  0  0  0  0  0  0  0  0  0  0
    8.1150   -0.4939   24.4078 N   0  0  0  0  0  0  0  0  0  0  0  0
    7.3340    0.6188   24.2409 C   0  0  0  0  0  0  0  0  0  0  0  0
    7.0858    1.5753   25.3417 C   0  0  0  0  0  0  0  0  0  0  0  0
    7.8969    1.4989   26.4954 C   0  0  0  0  0  0  0  0  0  0  0  0
    8.6847    0.7496   26.5257 H   0  0  0  0  0  0  0  0  0  0  0  0
    7.7122    2.3531   27.5760 C   0  0  0  0  0  0  0  0  0  0  0  0
    8.3228    2.2238   28.4655 H   0  0  0  0  0  0  0  0  0  0  0  0
    6.7284    3.3436   27.5140 C   0  0  0  0  0  0  0  0  0  0  0  0
    6.5911    4.0289   28.3446 H   0  0  0  0  0  0  0  0  0  0  0  0
    5.9108    3.4462   26.3870 C   0  0  0  0  0  0  0  0  0  0  0  0
    5.1234    4.1904   26.3279 H   0  0  0  0  0  0  0  0  0  0  0  0
    6.0743    2.5612   25.3141 C   0  0  0  0  0  0  0  0  0  0  0  0
    4.9450    2.7352   23.9989 Cl  0  0  0  0  0  0  0  0  0  0  0  0
    6.8509    0.7936   23.0163 N   0  0  0  0  0  0  0  0  0  0  0  0
    7.3401   -0.2812   22.3638 N   0  0  0  0  0  0  0  0  0  0  0  0
    5.4266    0.7353   20.1797 C   0  0  0  0  0  0  0  0  0  0  0  0
    5.0014    0.7801   21.1860 H   0  0  0  0  0  0  0  0  0  0  0  0
    4.7904    1.3297   19.0920 C   0  0  0  0  0  0  0  0  0  0  0  0
    3.8413    1.8445   19.2043 H   0  0  0  0  0  0  0  0  0  0  0  0
  1  2  1  0
  2  3  2  0
  3  4  1  0
  4  5  1  0
  4  6  2  0
  6  7  1  0
  7  8  2  0
  8  9  1  0
  8 10  1  0
 10 11  1  0
 11 12  2  0
 12 13  1  0
 13 14  1  0
 14 15  2  0
 15 16  1  0
 15 17  1  0
 17 18  1  0
 17 19  2  0
 19 20  1  0
 19 21  1  0
 21 22  1  0
 21 23  2  0
 23 24  1  0
 13 25  2  0
 25 26  1  0
  6 27  1  0
 27 28  1  0
 27 29  2  0
 29 30  1  0
 29  2  1  0
 26  7  1  0
 26 11  1  0
 23 14  1  0
M  END
>  <cnnaffinity>  (1) 
-5.30131

>  <filename>  (1) 
Clc1ccccc1-c1nc2scc(-c3cccnc3)n2n1

$$$$
