
     RDKit          3D

 31 33  0  0  0  0  0  0  0  0999 V2000
    8.1503    2.6366   22.1712 Cl  0  0  0  0  0  0  0  0  0  0  0  0
    9.7700    2.1177   22.5450 C   0  0  0  0  0  0  0  0  0  0  0  0
   10.4329    2.7637   23.5891 C   0  0  0  0  0  0  0  0  0  0  0  0
   11.7216    2.3511   23.9243 C   0  0  0  0  0  0  0  0  0  0  0  0
   12.3511    1.3126   23.2366 C   0  0  0  0  0  0  0  0  0  0  0  0
   11.6682    0.6801   22.1959 C   0  0  0  0  0  0  0  0  0  0  0  0
   10.3692    1.0651   21.8377 C   0  0  0  0  0  0  0  0  0  0  0  0
    9.6196    0.2919   20.7808 C   0  0  0  0  0  0  0  0  0  0  0  0
    8.6110   -0.6016   21.3198 N   0  0  0  0  0  0  0  0  0  0  0  0
    8.9527   -1.4665   22.2878 N   0  0  0  0  0  0  0  0  0  0  0  0
    7.8242   -2.0919   22.5950 C   0  0  0  0  0  0  0  0  0  0  0  0
    6.7518   -1.6561   21.7970 C   0  0  0  0  0  0  0  0  0  0  0  0
    7.2983   -0.7052   20.9719 C   0  0  0  0  0  0  0  0  0  0  0  0
    6.6563    0.0414   19.8890 C   0  0  0  0  0  0  0  0  0  0  0  0
    5.4278    0.6648   20.1424 C   0  0  0  0  0  0  0  0  0  0  0  0
    4.7989    1.3242   19.0881 C   0  0  0  0  0  0  0  0  0  0  0  0
    5.3939    1.3026   17.8211 C   0  0  0  0  0  0  0  0  0  0  0  0
    6.5516    0.6774   17.5480 N   0  0  0  0  0  0  0  0  0  0  0  0
    7.1624    0.0774   18.5765 C   0  0  0  0  0  0  0  0  0  0  0  0
    8.1052   -0.4266   18.3627 H   0  0  0  0  0  0  0  0  0  0  0  0
    4.9126    1.7940   16.9815 H   0  0  0  0  0  0  0  0  0  0  0  0
    3.8673    1.8497   19.2465 H   0  0  0  0  0  0  0  0  0  0  0  0
    5.0116    0.6306   21.1549 H   0  0  0  0  0  0  0  0  0  0  0  0
    5.7218   -1.9840   21.7689 H   0  0  0  0  0  0  0  0  0  0  0  0
    7.8164   -2.8269   23.3878 H   0  0  0  0  0  0  0  0  0  0  0  0
   10.2939   -0.3607   20.2321 H   0  0  0  0  0  0  0  0  0  0  0  0
    9.1284    0.9920   20.1074 H   0  0  0  0  0  0  0  0  0  0  0  0
   12.1311   -0.1522   21.6690 H   0  0  0  0  0  0  0  0  0  0  0  0
   13.3553    0.9955   23.5083 H   0  0  0  0  0  0  0  0  0  0  0  0
   12.2124    2.8557   24.7379 H   0  0  0  0  0  0  0  0  0  0  0  0
    9.9392    3.5716   24.1223 H   0  0  0  0  0  0  0  0  0  0  0  0
  1  2  1  0
  2  3  2  0
  3  4  1  0
  4  5  2  0
  5  6  1  0
  6  7  2  0
  7  8  1  0
  8  9  1  0
  9 10  1  0
 10 11  2  0
 11 12  1  0
 12 13  2  0
 13 14  1  0
 14 15  2  0
 15 16  1  0
 16 17  2  0
 17 18  1  0
 18 19  2  0
 19 20  1  0
 17 21  1  0
 16 22  1  0
 15 23  1  0
 12 24  1  0
 11 25  1  0
  8 26  1  0
  8 27  1  0
  6 28  1  0
  5 29  1  0
  4 30  1  0
  3 31  1  0
  7  2  1  0
 13  9  1  0
 19 14  1  0
M  END
>  <cnnaffinity>  (1) 
-5.38125

>  <filename>  (1) 
Clc1ccccc1Cn1nccc1-c1cccnc1

$$$$
