
     RDKit          3D

 27 29  0  0  0  0  0  0  0  0999 V2000
    4.9225    1.7815   16.9953 H   0  0  0  0  0  0  0  0  0  0  0  0
    5.4063    1.2948   17.8365 C   0  0  0  0  0  0  0  0  0  0  0  0
    6.5708    0.6781   17.5731 N   0  0  0  0  0  0  0  0  0  0  0  0
    7.1673    0.0590   18.5946 C   0  0  0  0  0  0  0  0  0  0  0  0
    8.1119   -0.4355   18.3784 H   0  0  0  0  0  0  0  0  0  0  0  0
    6.6458    0.0257   19.8980 C   0  0  0  0  0  0  0  0  0  0  0  0
    7.3709   -0.7127   20.9327 C   0  0  0  0  0  0  0  0  0  0  0  0
    7.9426   -1.8731   20.7457 N   0  0  0  0  0  0  0  0  0  0  0  0
    8.4367   -2.3005   21.9511 N   0  0  0  0  0  0  0  0  0  0  0  0
    8.1695   -1.3731   22.8241 C   0  0  0  0  0  0  0  0  0  0  0  0
    8.4590   -1.3958   23.8660 H   0  0  0  0  0  0  0  0  0  0  0  0
    7.4953   -0.3232   22.2518 N   0  0  0  0  0  0  0  0  0  0  0  0
    7.1557    0.9187   22.8687 C   0  0  0  0  0  0  0  0  0  0  0  0
    7.4126    2.1384   22.2279 C   0  0  0  0  0  0  0  0  0  0  0  0
    7.8478    2.1390   21.2354 H   0  0  0  0  0  0  0  0  0  0  0  0
    7.0665    3.3388   22.8471 C   0  0  0  0  0  0  0  0  0  0  0  0
    7.2467    4.2866   22.3513 H   0  0  0  0  0  0  0  0  0  0  0  0
    6.4814    3.3414   24.1174 C   0  0  0  0  0  0  0  0  0  0  0  0
    6.0857    4.8592   24.8487 Cl  0  0  0  0  0  0  0  0  0  0  0  0
    6.2400    2.1187   24.7621 C   0  0  0  0  0  0  0  0  0  0  0  0
    5.5387    2.0628   26.3393 Cl  0  0  0  0  0  0  0  0  0  0  0  0
    6.5749    0.9134   24.1391 C   0  0  0  0  0  0  0  0  0  0  0  0
    6.3750   -0.0230   24.6470 H   0  0  0  0  0  0  0  0  0  0  0  0
    5.4189    0.6538   20.1534 C   0  0  0  0  0  0  0  0  0  0  0  0
    4.9997    0.6390   21.1654 H   0  0  0  0  0  0  0  0  0  0  0  0
    4.7964    1.3110   19.0994 C   0  0  0  0  0  0  0  0  0  0  0  0
    3.8656    1.8469   19.2547 H   0  0  0  0  0  0  0  0  0  0  0  0
  1  2  1  0
  2  3  2  0
  3  4  1  0
  4  5  1  0
  4  6  2  0
  6  7  1  0
  7  8  2  0
  8  9  1  0
  9 10  2  0
 10 11  1  0
 10 12  1  0
 12 13  1  0
 13 14  2  0
 14 15  1  0
 14 16  1  0
 16 17  1  0
 16 18  2  0
 18 19  1  0
 18 20  1  0
 20 21  1  0
 20 22  2  0
 22 23  1  0
  6 24  1  0
 24 25  1  0
 24 26  2  0
 26 27  1  0
 26  2  1  0
 12  7  1  0
 22 13  1  0
M  END
>  <cnnaffinity>  (1) 
-5.39312

>  <filename>  (1) 
Clc1ccc(-n2cnnc2-c2cccnc2)cc1Cl

$$$$
