
     RDKit          3D

 27 29  0  0  0  0  0  0  0  0999 V2000
    4.9172    1.7884   16.9992 H   0  0  0  0  0  0  0  0  0  0  0  0
    5.3980    1.2899   17.8406 C   0  0  0  0  0  0  0  0  0  0  0  0
    6.5530    0.6647   17.5713 N   0  0  0  0  0  0  0  0  0  0  0  0
    7.1908    0.0601   18.5803 C   0  0  0  0  0  0  0  0  0  0  0  0
    8.1384   -0.4163   18.3480 H   0  0  0  0  0  0  0  0  0  0  0  0
    6.6943    0.0251   19.8980 C   0  0  0  0  0  0  0  0  0  0  0  0
    7.2944   -0.6866   20.9490 O   0  0  0  0  0  0  0  0  0  0  0  0
    8.6252   -0.7742   21.0864 C   0  0  0  0  0  0  0  0  0  0  0  0
    9.5496   -0.0859   20.4679 N   0  0  0  0  0  0  0  0  0  0  0  0
   10.7234   -0.5307   20.9763 N   0  0  0  0  0  0  0  0  0  0  0  0
   10.5434   -1.4500   21.8465 N   0  0  0  0  0  0  0  0  0  0  0  0
    9.2002   -1.6449   21.9458 N   0  0  0  0  0  0  0  0  0  0  0  0
    8.6479   -2.6299   22.8255 C   0  0  0  0  0  0  0  0  0  0  0  0
    7.4219   -3.2319   22.5167 C   0  0  0  0  0  0  0  0  0  0  0  0
    6.8980   -2.9561   21.6103 H   0  0  0  0  0  0  0  0  0  0  0  0
    6.8627   -4.1594   23.3969 C   0  0  0  0  0  0  0  0  0  0  0  0
    5.9005   -4.6144   23.1855 H   0  0  0  0  0  0  0  0  0  0  0  0
    7.5422   -4.4879   24.5709 C   0  0  0  0  0  0  0  0  0  0  0  0
    6.8419   -5.6460   25.6617 Cl  0  0  0  0  0  0  0  0  0  0  0  0
    8.7751   -3.9071   24.8783 C   0  0  0  0  0  0  0  0  0  0  0  0
    9.2857   -4.1962   25.7924 H   0  0  0  0  0  0  0  0  0  0  0  0
    9.3334   -2.9746   24.0008 C   0  0  0  0  0  0  0  0  0  0  0  0
   10.2985   -2.5243   24.2147 H   0  0  0  0  0  0  0  0  0  0  0  0
    5.4715    0.6428   20.1737 C   0  0  0  0  0  0  0  0  0  0  0  0
    5.0495    0.6052   21.1787 H   0  0  0  0  0  0  0  0  0  0  0  0
    4.8270    1.2981   19.1172 C   0  0  0  0  0  0  0  0  0  0  0  0
    3.8933    1.8252   19.2692 H   0  0  0  0  0  0  0  0  0  0  0  0
  1  2  1  0
  2  3  2  0
  3  4  1  0
  4  5  1  0
  4  6  2  0
  6  7  1  0
  7  8  1  0
  8  9  2  0
  9 10  1  0
 10 11  2  0
 11 12  1  0
 12 13  1  0
 13 14  2  0
 14 15  1  0
 14 16  1  0
 16 17  1  0
 16 18  2  0
 18 19  1  0
 18 20  1  0
 20 21  1  0
 20 22  2  0
 22 23  1  0
  6 24  1  0
 24 25  1  0
 24 26  2  0
 26 27  1  0
 26  2  1  0
 12  8  1  0
 22 13  1  0
M  END
>  <cnnaffinity>  (1) 
-5.21257

>  <filename>  (1) 
Clc1ccc(-n2nnnc2Oc2cccnc2)cc1

$$$$
