
     RDKit          3D

 32 35  0  0  0  0  0  0  0  0999 V2000
    4.9259    1.7881   16.9910 H   0  0  0  0  0  0  0  0  0  0  0  0
    5.4027    1.2930   17.8295 C   0  0  0  0  0  0  0  0  0  0  0  0
    6.5635    0.6786   17.5570 N   0  0  0  0  0  0  0  0  0  0  0  0
    7.1746    0.0567   18.5715 C   0  0  0  0  0  0  0  0  0  0  0  0
    8.1235   -0.4263   18.3495 H   0  0  0  0  0  0  0  0  0  0  0  0
    6.6567    0.0041   19.8791 C   0  0  0  0  0  0  0  0  0  0  0  0
    7.3795   -0.6970   20.9504 C   0  0  0  0  0  0  0  0  0  0  0  0
    8.4747   -1.4359   20.7021 N   0  0  0  0  0  0  0  0  0  0  0  0
    8.8344   -1.8613   21.9357 N   0  0  0  0  0  0  0  0  0  0  0  0
    9.9037   -2.5622   22.4950 C   0  0  0  0  0  0  0  0  0  0  0  0
   10.6933   -2.9379   21.8745 H   0  0  0  0  0  0  0  0  0  0  0  0
    9.7055   -2.5594   23.8378 C   0  0  0  0  0  0  0  0  0  0  0  0
   10.2974   -2.9571   24.6514 H   0  0  0  0  0  0  0  0  0  0  0  0
    8.5187   -1.8641   24.1164 N   0  0  0  0  0  0  0  0  0  0  0  0
    7.9164   -1.5437   25.3531 C   0  0  0  0  0  0  0  0  0  0  0  0
    6.5295   -1.7465   25.5186 C   0  0  0  0  0  0  0  0  0  0  0  0
    5.9556   -2.1202   24.6737 H   0  0  0  0  0  0  0  0  0  0  0  0
    5.9021   -1.4639   26.7328 C   0  0  0  0  0  0  0  0  0  0  0  0
    4.8382   -1.6483   26.8484 H   0  0  0  0  0  0  0  0  0  0  0  0
    6.6405   -0.9449   27.7995 C   0  0  0  0  0  0  0  0  0  0  0  0
    6.1657   -0.7376   28.7553 H   0  0  0  0  0  0  0  0  0  0  0  0
    8.0006   -0.6819   27.6331 C   0  0  0  0  0  0  0  0  0  0  0  0
    8.6180   -0.2653   28.4256 H   0  0  0  0  0  0  0  0  0  0  0  0
    8.6290   -0.9519   26.4171 C   0  0  0  0  0  0  0  0  0  0  0  0
   10.2833   -0.4221   26.2835 Cl  0  0  0  0  0  0  0  0  0  0  0  0
    8.0100   -1.4278   22.9090 C   0  0  0  0  0  0  0  0  0  0  0  0
    7.0315   -0.6530   22.3221 C   0  0  0  0  0  0  0  0  0  0  0  0
    6.2456   -0.1123   22.8188 H   0  0  0  0  0  0  0  0  0  0  0  0
    5.4373    0.6520   20.1429 C   0  0  0  0  0  0  0  0  0  0  0  0
    4.9989    0.6394   21.1463 H   0  0  0  0  0  0  0  0  0  0  0  0
    4.8059    1.3097   19.0950 C   0  0  0  0  0  0  0  0  0  0  0  0
    3.8773    1.8395   19.2533 H   0  0  0  0  0  0  0  0  0  0  0  0
  1  2  1  0
  2  3  2  0
  3  4  1  0
  4  5  1  0
  4  6  2  0
  6  7  1  0
  7  8  2  0
  8  9  1  0
  9 10  1  0
 10 11  1  0
 10 12  2  0
 12 13  1  0
 12 14  1  0
 14 15  1  0
 15 16  2  0
 16 17  1  0
 16 18  1  0
 18 19  1  0
 18 20  2  0
 20 21  1  0
 20 22  1  0
 22 23  1  0
 22 24  2  0
 24 25  1  0
 14 26  1  0
 26 27  2  0
 27 28  1  0
  6 29  1  0
 29 30  1  0
 29 31  2  0
 31 32  1  0
 31  2  1  0
 27  7  1  0
 26  9  1  0
 24 15  1  0
M  END
>  <cnnaffinity>  (1) 
-5.72784

>  <filename>  (1) 
Clc1ccccc1-n1ccn2nc(-c3cccnc3)cc12

$$$$
