
     RDKit          3D

 29 31  0  0  0  0  0  0  0  0999 V2000
    4.9186    1.7813   16.9985 H   0  0  0  0  0  0  0  0  0  0  0  0
    5.4060    1.2893   17.8419 C   0  0  0  0  0  0  0  0  0  0  0  0
    6.5644    0.6679   17.5852 N   0  0  0  0  0  0  0  0  0  0  0  0
    7.1874    0.0552   18.6004 C   0  0  0  0  0  0  0  0  0  0  0  0
    8.1266   -0.4379   18.3638 H   0  0  0  0  0  0  0  0  0  0  0  0
    6.6891    0.0166   19.9162 C   0  0  0  0  0  0  0  0  0  0  0  0
    7.2871   -0.6828   20.9420 O   0  0  0  0  0  0  0  0  0  0  0  0
    8.6497   -0.7565   21.0787 C   0  0  0  0  0  0  0  0  0  0  0  0
    9.6739    0.0826   20.6105 C   0  0  0  0  0  0  0  0  0  0  0  0
    9.5820    0.9506   19.9841 H   0  0  0  0  0  0  0  0  0  0  0  0
   10.8617   -0.3270   21.0406 N   0  0  0  0  0  0  0  0  0  0  0  0
   10.5993   -1.4042   21.7746 N   0  0  0  0  0  0  0  0  0  0  0  0
   11.3592   -1.9014   22.2088 H   0  0  0  0  0  0  0  0  0  0  0  0
    9.2775   -1.7148   21.8509 C   0  0  0  0  0  0  0  0  0  0  0  0
    8.7141   -2.8507   22.5818 C   0  0  0  0  0  0  0  0  0  0  0  0
    7.7373   -3.6292   21.9483 C   0  0  0  0  0  0  0  0  0  0  0  0
    7.4450   -3.3425   20.9450 H   0  0  0  0  0  0  0  0  0  0  0  0
    7.1582   -4.7207   22.5914 C   0  0  0  0  0  0  0  0  0  0  0  0
    6.4021   -5.3038   22.0800 H   0  0  0  0  0  0  0  0  0  0  0  0
    7.5466   -5.0426   23.8953 C   0  0  0  0  0  0  0  0  0  0  0  0
    7.0967   -5.8854   24.4065 H   0  0  0  0  0  0  0  0  0  0  0  0
    8.5042   -4.2788   24.5620 C   0  0  0  0  0  0  0  0  0  0  0  0
    8.8168   -4.5049   25.5793 H   0  0  0  0  0  0  0  0  0  0  0  0
    9.0698   -3.1867   23.9012 C   0  0  0  0  0  0  0  0  0  0  0  0
   10.1997   -2.2005   24.7657 Cl  0  0  0  0  0  0  0  0  0  0  0  0
    5.4628    0.6426   20.1740 C   0  0  0  0  0  0  0  0  0  0  0  0
    5.0334    0.6110   21.1769 H   0  0  0  0  0  0  0  0  0  0  0  0
    4.8231    1.2998   19.1153 C   0  0  0  0  0  0  0  0  0  0  0  0
    3.8891    1.8297   19.2664 H   0  0  0  0  0  0  0  0  0  0  0  0
  1  2  1  0
  2  3  2  0
  3  4  1  0
  4  5  1  0
  4  6  2  0
  6  7  1  0
  7  8  1  0
  8  9  1  0
  9 10  1  0
  9 11  2  0
 11 12  1  0
 12 13  1  0
 12 14  1  0
 14 15  1  0
 15 16  2  0
 16 17  1  0
 16 18  1  0
 18 19  1  0
 18 20  2  0
 20 21  1  0
 20 22  1  0
 22 23  1  0
 22 24  2  0
 24 25  1  0
  6 26  1  0
 26 27  1  0
 26 28  2  0
 28 29  1  0
 28  2  1  0
 14  8  2  0
 24 15  1  0
M  END
>  <cnnaffinity>  (1) 
-5.48993

>  <filename>  (1) 
Clc1ccccc1-c1[nH]ncc1Oc1cccnc1

$$$$
