
     RDKit          3D

 30 32  0  0  0  0  0  0  0  0999 V2000
    5.8602   -0.2680   22.9312 H   0  0  0  0  0  0  0  0  0  0  0  0
    6.7291   -0.6800   22.4434 C   0  0  0  0  0  0  0  0  0  0  0  0
    7.6903   -1.3711   23.1521 N   0  0  0  0  0  0  0  0  0  0  0  0
    8.6471   -1.5489   22.3011 C   0  0  0  0  0  0  0  0  0  0  0  0
    9.9624   -2.1589   22.6338 C   0  0  0  0  0  0  0  0  0  0  0  0
   10.3591   -2.7347   21.7970 H   0  0  0  0  0  0  0  0  0  0  0  0
    9.7338   -2.8353   23.4678 H   0  0  0  0  0  0  0  0  0  0  0  0
   10.9707   -1.1405   23.1448 C   0  0  0  0  0  0  0  0  0  0  0  0
   10.7272   -0.5797   24.4096 C   0  0  0  0  0  0  0  0  0  0  0  0
    9.7897   -0.8115   24.9100 H   0  0  0  0  0  0  0  0  0  0  0  0
   11.6711    0.2303   25.0376 C   0  0  0  0  0  0  0  0  0  0  0  0
   11.4835    0.5753   26.0453 H   0  0  0  0  0  0  0  0  0  0  0  0
   12.8559    0.5638   24.3819 C   0  0  0  0  0  0  0  0  0  0  0  0
   13.5833    1.2088   24.8569 H   0  0  0  0  0  0  0  0  0  0  0  0
   13.1100    0.0588   23.1081 C   0  0  0  0  0  0  0  0  0  0  0  0
   14.0126    0.3188   22.5659 H   0  0  0  0  0  0  0  0  0  0  0  0
   12.1758   -0.8008   22.5088 C   0  0  0  0  0  0  0  0  0  0  0  0
   12.6032   -1.4929   20.9647 Cl  0  0  0  0  0  0  0  0  0  0  0  0
    8.3979   -1.0680   21.0690 O   0  0  0  0  0  0  0  0  0  0  0  0
    7.1411   -0.5165   21.1579 C   0  0  0  0  0  0  0  0  0  0  0  0
    6.5646    0.0728   19.9560 C   0  0  0  0  0  0  0  0  0  0  0  0
    7.1950    0.0196   18.6910 C   0  0  0  0  0  0  0  0  0  0  0  0
    8.1359   -0.5098   18.5491 H   0  0  0  0  0  0  0  0  0  0  0  0
    6.6950    0.5975   17.5923 N   0  0  0  0  0  0  0  0  0  0  0  0
    5.5334    1.2639   17.7156 C   0  0  0  0  0  0  0  0  0  0  0  0
    5.1544    1.7448   16.8166 H   0  0  0  0  0  0  0  0  0  0  0  0
    4.8167    1.3552   18.9130 C   0  0  0  0  0  0  0  0  0  0  0  0
    3.8865    1.9120   18.9542 H   0  0  0  0  0  0  0  0  0  0  0  0
    5.3364    0.7423   20.0476 C   0  0  0  0  0  0  0  0  0  0  0  0
    4.8102    0.7837   21.0019 H   0  0  0  0  0  0  0  0  0  0  0  0
  1  2  1  0
  2  3  1  0
  3  4  2  0
  4  5  1  0
  5  6  1  0
  5  7  1  0
  5  8  1  0
  8  9  2  0
  9 10  1  0
  9 11  1  0
 11 12  1  0
 11 13  2  0
 13 14  1  0
 13 15  1  0
 15 16  1  0
 15 17  2  0
 17 18  1  0
  4 19  1  0
 19 20  1  0
 20 21  1  0
 21 22  2  0
 22 23  1  0
 22 24  1  0
 24 25  2  0
 25 26  1  0
 25 27  1  0
 27 28  1  0
 27 29  2  0
 29 30  1  0
 20  2  2  0
 29 21  1  0
 17  8  1  0
M  END
>  <cnnaffinity>  (1) 
-5.2348

>  <filename>  (1) 
Clc1ccccc1Cc1ncc(-c2cccnc2)o1

$$$$
