
     RDKit          3D

 31 33  0  0  0  0  0  0  0  0999 V2000
    4.9734    1.8495   16.8691 H   0  0  0  0  0  0  0  0  0  0  0  0
    5.3917    1.3470   17.7379 C   0  0  0  0  0  0  0  0  0  0  0  0
    6.5506    0.6994   17.5446 N   0  0  0  0  0  0  0  0  0  0  0  0
    7.0763    0.0692   18.5976 C   0  0  0  0  0  0  0  0  0  0  0  0
    8.0196   -0.4412   18.4159 H   0  0  0  0  0  0  0  0  0  0  0  0
    6.4971    0.0344   19.8738 C   0  0  0  0  0  0  0  0  0  0  0  0
    7.1894   -0.6926   20.9530 C   0  0  0  0  0  0  0  0  0  0  0  0
    6.6808   -0.7523   22.1806 N   0  0  0  0  0  0  0  0  0  0  0  0
    7.5973   -1.4107   22.9035 N   0  0  0  0  0  0  0  0  0  0  0  0
    7.5099   -1.4374   23.9112 H   0  0  0  0  0  0  0  0  0  0  0  0
    8.7002   -1.7522   22.1957 C   0  0  0  0  0  0  0  0  0  0  0  0
    9.9264   -2.3651   22.8015 C   0  0  0  0  0  0  0  0  0  0  0  0
   10.2225   -3.1989   22.1677 H   0  0  0  0  0  0  0  0  0  0  0  0
    9.6977   -2.7926   23.7862 H   0  0  0  0  0  0  0  0  0  0  0  0
   11.1088   -1.4066   22.8800 C   0  0  0  0  0  0  0  0  0  0  0  0
   12.1791   -1.5343   21.9773 C   0  0  0  0  0  0  0  0  0  0  0  0
   12.0878   -2.2169   21.1339 H   0  0  0  0  0  0  0  0  0  0  0  0
   13.3403   -0.7699   22.1070 C   0  0  0  0  0  0  0  0  0  0  0  0
   14.1652   -0.9171   21.4157 H   0  0  0  0  0  0  0  0  0  0  0  0
   13.4356    0.1800   23.1294 C   0  0  0  0  0  0  0  0  0  0  0  0
   14.3433    0.7662   23.2487 H   0  0  0  0  0  0  0  0  0  0  0  0
   12.3460    0.4042   23.9757 C   0  0  0  0  0  0  0  0  0  0  0  0
   12.3644    1.1897   24.7237 H   0  0  0  0  0  0  0  0  0  0  0  0
   11.1923   -0.3778   23.8381 C   0  0  0  0  0  0  0  0  0  0  0  0
    9.8793   -0.0691   24.9501 Cl  0  0  0  0  0  0  0  0  0  0  0  0
    8.4498   -1.3349   20.9050 C   0  0  0  0  0  0  0  0  0  0  0  0
    9.0785   -1.4707   20.0350 H   0  0  0  0  0  0  0  0  0  0  0  0
    5.2924    0.7351   20.0660 C   0  0  0  0  0  0  0  0  0  0  0  0
    4.8204    0.7742   21.0507 H   0  0  0  0  0  0  0  0  0  0  0  0
    4.7315    1.3881   18.9716 C   0  0  0  0  0  0  0  0  0  0  0  0
    3.8002    1.9352   19.0585 H   0  0  0  0  0  0  0  0  0  0  0  0
  1  2  1  0
  2  3  2  0
  3  4  1  0
  4  5  1  0
  4  6  2  0
  6  7  1  0
  7  8  2  0
  8  9  1  0
  9 10  1  0
  9 11  1  0
 11 12  1  0
 12 13  1  0
 12 14  1  0
 12 15  1  0
 15 16  2  0
 16 17  1  0
 16 18  1  0
 18 19  1  0
 18 20  2  0
 20 21  1  0
 20 22  1  0
 22 23  1  0
 22 24  2  0
 24 25  1  0
 11 26  2  0
 26 27  1  0
  6 28  1  0
 28 29  1  0
 28 30  2  0
 30 31  1  0
 30  2  1  0
 26  7  1  0
 24 15  1  0
M  END
>  <cnnaffinity>  (1) 
-5.54122

>  <filename>  (1) 
Clc1ccccc1Cc1cc(-c2cccnc2)n[nH]1

$$$$
