
     RDKit          3D

 29 31  0  0  0  0  0  0  0  0999 V2000
    4.9275    1.7808   16.9990 H   0  0  0  0  0  0  0  0  0  0  0  0
    5.4051    1.2866   17.8418 C   0  0  0  0  0  0  0  0  0  0  0  0
    6.5626    0.6664   17.5798 N   0  0  0  0  0  0  0  0  0  0  0  0
    7.1855    0.0648   18.5983 C   0  0  0  0  0  0  0  0  0  0  0  0
    8.1296   -0.4198   18.3694 H   0  0  0  0  0  0  0  0  0  0  0  0
    6.6752    0.0192   19.9043 C   0  0  0  0  0  0  0  0  0  0  0  0
    7.4230   -0.7061   20.9587 C   0  0  0  0  0  0  0  0  0  0  0  0
    8.7691   -0.7010   20.9129 N   0  0  0  0  0  0  0  0  0  0  0  0
    9.4777   -1.3064   21.8754 N   0  0  0  0  0  0  0  0  0  0  0  0
    8.8582   -1.9594   22.8593 C   0  0  0  0  0  0  0  0  0  0  0  0
    9.5035   -2.4339   23.5873 H   0  0  0  0  0  0  0  0  0  0  0  0
    7.4554   -2.0435   22.9601 C   0  0  0  0  0  0  0  0  0  0  0  0
    6.7783   -2.7616   24.0717 C   0  0  0  0  0  0  0  0  0  0  0  0
    5.8869   -2.0470   24.8888 C   0  0  0  0  0  0  0  0  0  0  0  0
    5.7251   -0.9988   24.6630 H   0  0  0  0  0  0  0  0  0  0  0  0
    5.2272   -2.6555   25.9520 C   0  0  0  0  0  0  0  0  0  0  0  0
    4.5395   -2.0914   26.5697 H   0  0  0  0  0  0  0  0  0  0  0  0
    5.4459   -4.0039   26.2142 C   0  0  0  0  0  0  0  0  0  0  0  0
    4.9581   -4.5229   27.0314 H   0  0  0  0  0  0  0  0  0  0  0  0
    6.3219   -4.7381   25.4148 C   0  0  0  0  0  0  0  0  0  0  0  0
    6.5575   -6.3925   25.8498 Cl  0  0  0  0  0  0  0  0  0  0  0  0
    6.9840   -4.1331   24.3338 C   0  0  0  0  0  0  0  0  0  0  0  0
    8.0196   -5.0775   23.3111 Cl  0  0  0  0  0  0  0  0  0  0  0  0
    6.7354   -1.3850   21.9746 C   0  0  0  0  0  0  0  0  0  0  0  0
    5.6549   -1.4324   21.9368 H   0  0  0  0  0  0  0  0  0  0  0  0
    5.4472    0.6506   20.1616 C   0  0  0  0  0  0  0  0  0  0  0  0
    5.0065    0.6484   21.1623 H   0  0  0  0  0  0  0  0  0  0  0  0
    4.8137    1.3083   19.1089 C   0  0  0  0  0  0  0  0  0  0  0  0
    3.8825    1.8361   19.2562 H   0  0  0  0  0  0  0  0  0  0  0  0
  1  2  1  0
  2  3  2  0
  3  4  1  0
  4  5  1  0
  4  6  2  0
  6  7  1  0
  7  8  2  0
  8  9  1  0
  9 10  2  0
 10 11  1  0
 10 12  1  0
 12 13  1  0
 13 14  2  0
 14 15  1  0
 14 16  1  0
 16 17  1  0
 16 18  2  0
 18 19  1  0
 18 20  1  0
 20 21  1  0
 20 22  2  0
 22 23  1  0
 12 24  2  0
 24 25  1  0
  6 26  1  0
 26 27  1  0
 26 28  2  0
 28 29  1  0
 28  2  1  0
 24  7  1  0
 22 13  1  0
M  END
>  <cnnaffinity>  (1) 
-5.59149

>  <filename>  (1) 
Clc1cccc(-c2cnnc(-c3cccnc3)c2)c1Cl

$$$$
