
     RDKit          3D

 32 34  0  0  0  0  0  0  0  0999 V2000
    8.7399   -2.8889   23.7641 H   0  0  0  0  0  0  0  0  0  0  0  0
    8.2762   -2.3267   22.9556 C   0  0  0  0  0  0  0  0  0  0  0  0
    7.0411   -2.6711   22.5888 N   0  0  0  0  0  0  0  0  0  0  0  0
    6.4968   -1.9352   21.6167 C   0  0  0  0  0  0  0  0  0  0  0  0
    5.4948   -2.2323   21.3087 H   0  0  0  0  0  0  0  0  0  0  0  0
    7.1436   -0.8764   20.9799 C   0  0  0  0  0  0  0  0  0  0  0  0
    6.4944   -0.1268   19.8488 C   0  0  0  0  0  0  0  0  0  0  0  0
    7.0545   -0.0547   18.5518 C   0  0  0  0  0  0  0  0  0  0  0  0
    7.9829   -0.5924   18.3524 H   0  0  0  0  0  0  0  0  0  0  0  0
    6.5312    0.6432   17.5324 N   0  0  0  0  0  0  0  0  0  0  0  0
    5.4027    1.3278   17.7750 C   0  0  0  0  0  0  0  0  0  0  0  0
    5.0019    1.9007   16.9381 H   0  0  0  0  0  0  0  0  0  0  0  0
    4.7490    1.3202   19.0107 C   0  0  0  0  0  0  0  0  0  0  0  0
    3.8428    1.9027   19.1359 H   0  0  0  0  0  0  0  0  0  0  0  0
    5.2944    0.5672   20.0573 C   0  0  0  0  0  0  0  0  0  0  0  0
    4.8215    0.5447   21.0399 H   0  0  0  0  0  0  0  0  0  0  0  0
    8.4256   -0.5760   21.5021 C   0  0  0  0  0  0  0  0  0  0  0  0
    9.2048    0.6117   20.9627 C   0  0  0  0  0  0  0  0  0  0  0  0
    8.4835    1.3352   20.5698 H   0  0  0  0  0  0  0  0  0  0  0  0
    9.7835    0.2410   20.1095 H   0  0  0  0  0  0  0  0  0  0  0  0
   10.1349    1.3318   21.9252 C   0  0  0  0  0  0  0  0  0  0  0  0
    9.7206    2.5046   22.5839 C   0  0  0  0  0  0  0  0  0  0  0  0
    8.6835    2.8274   22.5042 H   0  0  0  0  0  0  0  0  0  0  0  0
   10.6098    3.2633   23.3583 C   0  0  0  0  0  0  0  0  0  0  0  0
   10.2854    4.1846   23.8383 H   0  0  0  0  0  0  0  0  0  0  0  0
   11.9382    2.8478   23.4947 C   0  0  0  0  0  0  0  0  0  0  0  0
   12.6577    3.4574   24.0329 H   0  0  0  0  0  0  0  0  0  0  0  0
   12.3537    1.6440   22.9221 C   0  0  0  0  0  0  0  0  0  0  0  0
   13.3529    1.2514   23.0834 H   0  0  0  0  0  0  0  0  0  0  0  0
   11.4493    0.8863   22.1691 C   0  0  0  0  0  0  0  0  0  0  0  0
   12.0030   -0.6446   21.5461 Cl  0  0  0  0  0  0  0  0  0  0  0  0
    8.9929   -1.3351   22.4387 N   0  0  0  0  0  0  0  0  0  0  0  0
  1  2  1  0
  2  3  2  0
  3  4  1  0
  4  5  1  0
  4  6  2  0
  6  7  1  0
  7  8  2  0
  8  9  1  0
  8 10  1  0
 10 11  2  0
 11 12  1  0
 11 13  1  0
 13 14  1  0
 13 15  2  0
 15 16  1  0
  6 17  1  0
 17 18  1  0
 18 19  1  0
 18 20  1  0
 18 21  1  0
 21 22  2  0
 22 23  1  0
 22 24  1  0
 24 25  1  0
 24 26  2  0
 26 27  1  0
 26 28  1  0
 28 29  1  0
 28 30  2  0
 30 31  1  0
 17 32  2  0
 32  2  1  0
 15  7  1  0
 30 21  1  0
M  END
>  <cnnaffinity>  (1) 
-6.02196

>  <filename>  (1) 
Clc1ccccc1Cc1ncncc1-c1cccnc1

$$$$
