
     RDKit          3D

 28 30  0  0  0  0  0  0  0  0999 V2000
    4.9549    1.7924   16.9470 H   0  0  0  0  0  0  0  0  0  0  0  0
    5.4123    1.3172   17.8194 C   0  0  0  0  0  0  0  0  0  0  0  0
    6.5828    0.6910   17.6243 N   0  0  0  0  0  0  0  0  0  0  0  0
    7.1473    0.0847   18.6780 C   0  0  0  0  0  0  0  0  0  0  0  0
    8.0997   -0.4076   18.4790 H   0  0  0  0  0  0  0  0  0  0  0  0
    6.6024    0.0738   19.9764 C   0  0  0  0  0  0  0  0  0  0  0  0
    7.2754   -0.6709   21.0654 C   0  0  0  0  0  0  0  0  0  0  0  0
    7.6684   -1.9846   21.0544 C   0  0  0  0  0  0  0  0  0  0  0  0
    7.4230   -2.7024   20.2955 H   0  0  0  0  0  0  0  0  0  0  0  0
    8.2945   -2.1902   22.2949 C   0  0  0  0  0  0  0  0  0  0  0  0
    8.7544   -3.0858   22.6880 H   0  0  0  0  0  0  0  0  0  0  0  0
    8.2679   -1.1062   23.0466 N   0  0  0  0  0  0  0  0  0  0  0  0
    7.6236   -0.1786   22.3068 N   0  0  0  0  0  0  0  0  0  0  0  0
    7.2859    1.0749   22.8891 C   0  0  0  0  0  0  0  0  0  0  0  0
    7.5165    2.2456   22.1603 C   0  0  0  0  0  0  0  0  0  0  0  0
    7.9075    2.1912   21.1524 H   0  0  0  0  0  0  0  0  0  0  0  0
    7.1892    3.4695   22.7339 C   0  0  0  0  0  0  0  0  0  0  0  0
    7.5024    4.9241   21.8447 Cl  0  0  0  0  0  0  0  0  0  0  0  0
    6.6089    3.5549   23.9981 C   0  0  0  0  0  0  0  0  0  0  0  0
    6.3307    4.5122   24.4212 H   0  0  0  0  0  0  0  0  0  0  0  0
    6.3684    2.3694   24.6964 C   0  0  0  0  0  0  0  0  0  0  0  0
    5.6165    2.4505   26.2583 Cl  0  0  0  0  0  0  0  0  0  0  0  0
    6.7106    1.1275   24.1692 C   0  0  0  0  0  0  0  0  0  0  0  0
    6.5260    0.2175   24.7305 H   0  0  0  0  0  0  0  0  0  0  0  0
    5.3790    0.7349   20.1556 C   0  0  0  0  0  0  0  0  0  0  0  0
    4.9255    0.7676   21.1453 H   0  0  0  0  0  0  0  0  0  0  0  0
    4.7744    1.3578   19.0631 C   0  0  0  0  0  0  0  0  0  0  0  0
    3.8219    1.8610   19.1566 H   0  0  0  0  0  0  0  0  0  0  0  0
  1  2  1  0
  2  3  2  0
  3  4  1  0
  4  5  1  0
  4  6  2  0
  6  7  1  0
  7  8  2  0
  8  9  1  0
  8 10  1  0
 10 11  1  0
 10 12  2  0
 12 13  1  0
 13 14  1  0
 14 15  2  0
 15 16  1  0
 15 17  1  0
 17 18  1  0
 17 19  2  0
 19 20  1  0
 19 21  1  0
 21 22  1  0
 21 23  2  0
 23 24  1  0
  6 25  1  0
 25 26  1  0
 25 27  2  0
 27 28  1  0
 27  2  1  0
 13  7  1  0
 23 14  1  0
M  END
>  <cnnaffinity>  (1) 
-5.15018

>  <filename>  (1) 
Clc1cc(Cl)cc(-n2nccc2-c2cccnc2)c1

$$$$
