
     RDKit          3D

 30 32  0  0  0  0  0  0  0  0999 V2000
    4.9251    1.8166   16.9711 H   0  0  0  0  0  0  0  0  0  0  0  0
    5.3889    1.3058   17.8123 C   0  0  0  0  0  0  0  0  0  0  0  0
    6.5505    0.6859   17.5505 N   0  0  0  0  0  0  0  0  0  0  0  0
    7.1562    0.0656   18.5704 C   0  0  0  0  0  0  0  0  0  0  0  0
    8.1039   -0.4197   18.3363 H   0  0  0  0  0  0  0  0  0  0  0  0
    6.6400    0.0001   19.8817 C   0  0  0  0  0  0  0  0  0  0  0  0
    7.3644   -0.7132   20.9694 C   0  0  0  0  0  0  0  0  0  0  0  0
    6.7109   -1.5634   21.8833 C   0  0  0  0  0  0  0  0  0  0  0  0
    5.6359   -1.7375   21.8121 H   0  0  0  0  0  0  0  0  0  0  0  0
    7.3481   -2.2273   22.8590 N   0  0  0  0  0  0  0  0  0  0  0  0
    8.6702   -2.0492   22.9965 C   0  0  0  0  0  0  0  0  0  0  0  0
    9.1432   -2.6081   23.8109 H   0  0  0  0  0  0  0  0  0  0  0  0
    9.4192   -1.1975   22.1641 C   0  0  0  0  0  0  0  0  0  0  0  0
   10.8886   -1.0290   22.3122 C   0  0  0  0  0  0  0  0  0  0  0  0
   11.6892   -2.1752   22.1833 C   0  0  0  0  0  0  0  0  0  0  0  0
   11.1781   -3.1340   22.1736 H   0  0  0  0  0  0  0  0  0  0  0  0
   13.0808   -2.0763   22.1293 C   0  0  0  0  0  0  0  0  0  0  0  0
   13.7188   -2.9391   21.9516 H   0  0  0  0  0  0  0  0  0  0  0  0
   13.6911   -0.8567   22.4222 C   0  0  0  0  0  0  0  0  0  0  0  0
   14.7637   -0.7962   22.5698 H   0  0  0  0  0  0  0  0  0  0  0  0
   12.9159    0.2901   22.6177 C   0  0  0  0  0  0  0  0  0  0  0  0
   13.7397    1.7627   23.0037 Cl  0  0  0  0  0  0  0  0  0  0  0  0
   11.5153    0.2216   22.5296 C   0  0  0  0  0  0  0  0  0  0  0  0
   10.5696    1.6660   22.6910 Cl  0  0  0  0  0  0  0  0  0  0  0  0
    8.7435   -0.5495   21.1252 C   0  0  0  0  0  0  0  0  0  0  0  0
    9.2997    0.0974   20.4513 H   0  0  0  0  0  0  0  0  0  0  0  0
    5.4233    0.6536   20.1261 C   0  0  0  0  0  0  0  0  0  0  0  0
    5.0064    0.6562   21.1337 H   0  0  0  0  0  0  0  0  0  0  0  0
    4.7875    1.3193   19.0757 C   0  0  0  0  0  0  0  0  0  0  0  0
    3.8555    1.8560   19.2228 H   0  0  0  0  0  0  0  0  0  0  0  0
  1  2  1  0
  2  3  2  0
  3  4  1  0
  4  5  1  0
  4  6  2  0
  6  7  1  0
  7  8  2  0
  8  9  1  0
  8 10  1  0
 10 11  2  0
 11 12  1  0
 11 13  1  0
 13 14  1  0
 14 15  2  0
 15 16  1  0
 15 17  1  0
 17 18  1  0
 17 19  2  0
 19 20  1  0
 19 21  1  0
 21 22  1  0
 21 23  2  0
 23 24  1  0
 13 25  2  0
 25 26  1  0
  6 27  1  0
 27 28  1  0
 27 29  2  0
 29 30  1  0
 29  2  1  0
 25  7  1  0
 23 14  1  0
M  END
>  <cnnaffinity>  (1) 
-5.98701

>  <filename>  (1) 
Clc1cccc(-c2cncc(-c3cccnc3)c2)c1Cl

$$$$
