
     RDKit          3D

 31 33  0  0  0  0  0  0  0  0999 V2000
    4.9313    1.7887   16.9888 H   0  0  0  0  0  0  0  0  0  0  0  0
    5.3989    1.2906   17.8365 C   0  0  0  0  0  0  0  0  0  0  0  0
    6.5622    0.6653   17.5975 N   0  0  0  0  0  0  0  0  0  0  0  0
    7.1703    0.0503   18.6180 C   0  0  0  0  0  0  0  0  0  0  0  0
    8.1238   -0.4182   18.3705 H   0  0  0  0  0  0  0  0  0  0  0  0
    6.6633    0.0323   19.9342 C   0  0  0  0  0  0  0  0  0  0  0  0
    7.3788   -0.6095   20.9907 N   0  0  0  0  0  0  0  0  0  0  0  0
    7.8956   -1.8731   20.8669 C   0  0  0  0  0  0  0  0  0  0  0  0
    7.6515   -2.3327   19.9437 H   0  0  0  0  0  0  0  0  0  0  0  0
    8.4789   -2.2734   22.0386 C   0  0  0  0  0  0  0  0  0  0  0  0
    9.0003   -3.2092   22.2204 H   0  0  0  0  0  0  0  0  0  0  0  0
    8.2802   -1.2109   22.9674 C   0  0  0  0  0  0  0  0  0  0  0  0
    8.5832   -1.1230   24.0097 H   0  0  0  0  0  0  0  0  0  0  0  0
    7.5951   -0.2108   22.3041 C   0  0  0  0  0  0  0  0  0  0  0  0
    7.1784    1.0183   22.7496 N   0  0  0  0  0  0  0  0  0  0  0  0
    7.2254    1.7736   22.0850 H   0  0  0  0  0  0  0  0  0  0  0  0
    6.9629    1.3370   24.0884 C   0  0  0  0  0  0  0  0  0  0  0  0
    7.2761    2.6154   24.5566 C   0  0  0  0  0  0  0  0  0  0  0  0
    7.7075    3.3339   23.8646 H   0  0  0  0  0  0  0  0  0  0  0  0
    7.0529    2.9381   25.8983 C   0  0  0  0  0  0  0  0  0  0  0  0
    7.2920    3.9254   26.2799 H   0  0  0  0  0  0  0  0  0  0  0  0
    6.5026    1.9775   26.7529 C   0  0  0  0  0  0  0  0  0  0  0  0
    6.2108    2.3763   28.4181 Cl  0  0  0  0  0  0  0  0  0  0  0  0
    6.1711    0.7011   26.2889 C   0  0  0  0  0  0  0  0  0  0  0  0
    5.7440   -0.0315   26.9663 H   0  0  0  0  0  0  0  0  0  0  0  0
    6.4018    0.3849   24.9505 C   0  0  0  0  0  0  0  0  0  0  0  0
    6.1712   -0.5908   24.5273 H   0  0  0  0  0  0  0  0  0  0  0  0
    5.4311    0.6571   20.1641 C   0  0  0  0  0  0  0  0  0  0  0  0
    4.9995    0.6353   21.1635 H   0  0  0  0  0  0  0  0  0  0  0  0
    4.8016    1.3059   19.0987 C   0  0  0  0  0  0  0  0  0  0  0  0
    3.8729    1.8407   19.2471 H   0  0  0  0  0  0  0  0  0  0  0  0
  1  2  1  0
  2  3  2  0
  3  4  1  0
  4  5  1  0
  4  6  2  0
  6  7  1  0
  7  8  1  0
  8  9  1  0
  8 10  2  0
 10 11  1  0
 10 12  1  0
 12 13  1  0
 12 14  2  0
 14 15  1  0
 15 16  1  0
 15 17  1  0
 17 18  2  0
 18 19  1  0
 18 20  1  0
 20 21  1  0
 20 22  2  0
 22 23  1  0
 22 24  1  0
 24 25  1  0
 24 26  2  0
 26 27  1  0
  6 28  1  0
 28 29  1  0
 28 30  2  0
 30 31  1  0
 30  2  1  0
 14  7  1  0
 26 17  1  0
M  END
>  <cnnaffinity>  (1) 
-5.07105

>  <filename>  (1) 
Clc1ccc(Nc2cccn2-c2cccnc2)cc1

$$$$
