
     RDKit          3D

 31 33  0  0  0  0  0  0  0  0999 V2000
    4.9343    1.8181   16.9801 H   0  0  0  0  0  0  0  0  0  0  0  0
    5.3889    1.3017   17.8231 C   0  0  0  0  0  0  0  0  0  0  0  0
    6.5441    0.6688   17.5698 N   0  0  0  0  0  0  0  0  0  0  0  0
    7.1507    0.0383   18.5843 C   0  0  0  0  0  0  0  0  0  0  0  0
    8.1016   -0.4313   18.3357 H   0  0  0  0  0  0  0  0  0  0  0  0
    6.6293   -0.0227   19.8972 C   0  0  0  0  0  0  0  0  0  0  0  0
    7.2868   -0.7231   20.9542 N   0  0  0  0  0  0  0  0  0  0  0  0
    6.7486   -1.7086   21.7564 C   0  0  0  0  0  0  0  0  0  0  0  0
    5.7173   -2.0180   21.6679 H   0  0  0  0  0  0  0  0  0  0  0  0
    7.6179   -2.2022   22.6005 N   0  0  0  0  0  0  0  0  0  0  0  0
    8.7718   -1.5014   22.3766 C   0  0  0  0  0  0  0  0  0  0  0  0
    9.6932   -1.6807   22.9196 H   0  0  0  0  0  0  0  0  0  0  0  0
    8.5986   -0.5786   21.3825 C   0  0  0  0  0  0  0  0  0  0  0  0
    9.6191    0.3648   20.8453 C   0  0  0  0  0  0  0  0  0  0  0  0
    9.2084    0.9760   20.0402 H   0  0  0  0  0  0  0  0  0  0  0  0
   10.4208   -0.2541   20.4334 H   0  0  0  0  0  0  0  0  0  0  0  0
   10.2145    1.2421   21.9288 C   0  0  0  0  0  0  0  0  0  0  0  0
   11.4585    0.9178   22.4893 C   0  0  0  0  0  0  0  0  0  0  0  0
   12.0021    0.0657   22.0790 H   0  0  0  0  0  0  0  0  0  0  0  0
   11.9921    1.6515   23.5535 C   0  0  0  0  0  0  0  0  0  0  0  0
   12.9485    1.3698   23.9876 H   0  0  0  0  0  0  0  0  0  0  0  0
   11.2882    2.7491   24.0600 C   0  0  0  0  0  0  0  0  0  0  0  0
   11.7401    3.3651   24.8315 H   0  0  0  0  0  0  0  0  0  0  0  0
   10.0377    3.0869   23.5287 C   0  0  0  0  0  0  0  0  0  0  0  0
    9.4438    3.9119   23.9141 H   0  0  0  0  0  0  0  0  0  0  0  0
    9.5192    2.3373   22.4653 C   0  0  0  0  0  0  0  0  0  0  0  0
    7.9552    2.7803   21.8307 Cl  0  0  0  0  0  0  0  0  0  0  0  0
    5.4231    0.6405   20.1439 C   0  0  0  0  0  0  0  0  0  0  0  0
    5.0134    0.6407   21.1548 H   0  0  0  0  0  0  0  0  0  0  0  0
    4.7984    1.3150   19.0907 C   0  0  0  0  0  0  0  0  0  0  0  0
    3.8706    1.8520   19.2361 H   0  0  0  0  0  0  0  0  0  0  0  0
  1  2  1  0
  2  3  2  0
  3  4  1  0
  4  5  1  0
  4  6  2  0
  6  7  1  0
  7  8  1  0
  8  9  1  0
  8 10  2  0
 10 11  1  0
 11 12  1  0
 11 13  2  0
 13 14  1  0
 14 15  1  0
 14 16  1  0
 14 17  1  0
 17 18  2  0
 18 19  1  0
 18 20  1  0
 20 21  1  0
 20 22  2  0
 22 23  1  0
 22 24  1  0
 24 25  1  0
 24 26  2  0
 26 27  1  0
  6 28  1  0
 28 29  1  0
 28 30  2  0
 30 31  1  0
 30  2  1  0
 13  7  1  0
 26 17  1  0
M  END
>  <cnnaffinity>  (1) 
-5.60223

>  <filename>  (1) 
Clc1ccccc1Cc1cncn1-c1cccnc1

$$$$
