
     RDKit          3D

 32 34  0  0  0  0  0  0  0  0999 V2000
    7.1311    1.7447   22.0957 H   0  0  0  0  0  0  0  0  0  0  0  0
    7.3660    0.9358   22.7882 C   0  0  0  0  0  0  0  0  0  0  0  0
    7.5655   -0.3034   22.3123 C   0  0  0  0  0  0  0  0  0  0  0  0
    7.3802   -0.7703   20.9265 C   0  0  0  0  0  0  0  0  0  0  0  0
    6.6297   -0.0096   19.8996 C   0  0  0  0  0  0  0  0  0  0  0  0
    7.1486    0.0161   18.5978 C   0  0  0  0  0  0  0  0  0  0  0  0
    8.0831   -0.4966   18.3765 H   0  0  0  0  0  0  0  0  0  0  0  0
    6.5734    0.6602   17.5802 N   0  0  0  0  0  0  0  0  0  0  0  0
    5.4198    1.3024   17.8251 C   0  0  0  0  0  0  0  0  0  0  0  0
    4.9697    1.8260   16.9838 H   0  0  0  0  0  0  0  0  0  0  0  0
    4.7976    1.3173   19.0775 C   0  0  0  0  0  0  0  0  0  0  0  0
    3.8624    1.8525   19.2098 H   0  0  0  0  0  0  0  0  0  0  0  0
    5.4205    0.6661   20.1420 C   0  0  0  0  0  0  0  0  0  0  0  0
    4.9876    0.6924   21.1429 H   0  0  0  0  0  0  0  0  0  0  0  0
    7.9498   -1.8916   20.6770 N   0  0  0  0  0  0  0  0  0  0  0  0
    8.5596   -2.4205   21.8994 C   0  0  0  0  0  0  0  0  0  0  0  0
    9.6393   -2.5039   21.7469 H   0  0  0  0  0  0  0  0  0  0  0  0
    8.1850   -3.4328   22.0708 H   0  0  0  0  0  0  0  0  0  0  0  0
    8.1986   -1.4577   23.0563 C   0  0  0  0  0  0  0  0  0  0  0  0
    9.0521   -1.1280   23.6569 H   0  0  0  0  0  0  0  0  0  0  0  0
    7.4719   -1.9330   23.7234 H   0  0  0  0  0  0  0  0  0  0  0  0
    7.5045    1.3369   24.1967 C   0  0  0  0  0  0  0  0  0  0  0  0
    7.0229    0.5140   25.2299 C   0  0  0  0  0  0  0  0  0  0  0  0
    6.5074   -0.4060   24.9752 H   0  0  0  0  0  0  0  0  0  0  0  0
    7.1448    0.8898   26.5622 C   0  0  0  0  0  0  0  0  0  0  0  0
    6.8113    0.2366   27.3644 H   0  0  0  0  0  0  0  0  0  0  0  0
    7.7084    2.1321   26.8836 C   0  0  0  0  0  0  0  0  0  0  0  0
    7.6383    2.6855   28.5224 Cl  0  0  0  0  0  0  0  0  0  0  0  0
    8.2630    2.9347   25.8661 C   0  0  0  0  0  0  0  0  0  0  0  0
    9.0979    4.4172   26.2202 Cl  0  0  0  0  0  0  0  0  0  0  0  0
    8.1422    2.5436   24.5315 C   0  0  0  0  0  0  0  0  0  0  0  0
    8.5680    3.1741   23.7528 H   0  0  0  0  0  0  0  0  0  0  0  0
  1  2  1  0
  2  3  2  3
  3  4  1  0
  4  5  1  0
  5  6  2  0
  6  7  1  0
  6  8  1  0
  8  9  2  0
  9 10  1  0
  9 11  1  0
 11 12  1  0
 11 13  2  0
 13 14  1  0
  4 15  2  0
 15 16  1  0
 16 17  1  0
 16 18  1  0
 16 19  1  0
 19 20  1  0
 19 21  1  0
  2 22  1  0
 22 23  2  0
 23 24  1  0
 23 25  1  0
 25 26  1  0
 25 27  2  0
 27 28  1  0
 27 29  1  0
 29 30  1  0
 29 31  2  0
 31 32  1  0
 19  3  1  0
 31 22  1  0
 13  5  1  0
M  END
>  <cnnaffinity>  (1) 
-5.4371

>  <filename>  (1) 
Clc1ccc(C=C2CCN=C2c2cccnc2)cc1Cl

$$$$
