
     RDKit          3D

 39 41  0  0  0  0  0  0  0  0999 V2000
    4.9185    1.8285   16.9705 H   0  0  0  0  0  0  0  0  0  0  0  0
    5.3789    1.3052   17.8091 C   0  0  0  0  0  0  0  0  0  0  0  0
    6.5312    0.6706   17.5464 N   0  0  0  0  0  0  0  0  0  0  0  0
    7.1368    0.0385   18.5625 C   0  0  0  0  0  0  0  0  0  0  0  0
    8.0965   -0.4229   18.3168 H   0  0  0  0  0  0  0  0  0  0  0  0
    6.6375   -0.0285   19.8809 C   0  0  0  0  0  0  0  0  0  0  0  0
    7.4023   -0.7299   20.9816 C   0  0  0  0  0  0  0  0  0  0  0  0
    6.7024   -1.2111   21.6774 H   0  0  0  0  0  0  0  0  0  0  0  0
    8.0053   -1.5404   20.5514 H   0  0  0  0  0  0  0  0  0  0  0  0
    8.3446    0.1598   21.8385 C   0  0  1  0  0  0  0  0  0  0  0  0
    9.3741    0.8559   20.9072 C   0  0  0  0  0  0  0  0  0  0  0  0
    9.8279    0.0784   20.2785 H   0  0  0  0  0  0  0  0  0  0  0  0
    8.7956    1.5123   20.2470 H   0  0  0  0  0  0  0  0  0  0  0  0
   10.4557    1.6600   21.5954 C   0  0  0  0  0  0  0  0  0  0  0  0
   10.2217    2.9984   21.9469 C   0  0  0  0  0  0  0  0  0  0  0  0
    9.2483    3.4430   21.7395 H   0  0  0  0  0  0  0  0  0  0  0  0
   11.2313    3.7914   22.5117 C   0  0  0  0  0  0  0  0  0  0  0  0
   11.0532    4.8556   22.6604 H   0  0  0  0  0  0  0  0  0  0  0  0
   12.4754    3.2291   22.8203 C   0  0  0  0  0  0  0  0  0  0  0  0
   13.2740    3.8139   23.2642 H   0  0  0  0  0  0  0  0  0  0  0  0
   12.6937    1.8807   22.5261 C   0  0  0  0  0  0  0  0  0  0  0  0
   14.2066    1.1315   22.9653 Cl  0  0  0  0  0  0  0  0  0  0  0  0
   11.7095    1.1065   21.9052 C   0  0  0  0  0  0  0  0  0  0  0  0
   11.9425    0.0700   21.6783 H   0  0  0  0  0  0  0  0  0  0  0  0
    7.5626    1.1985   22.6858 C   0  0  0  0  0  0  0  0  0  0  0  0
    7.4262    2.1499   22.1490 H   0  0  0  0  0  0  0  0  0  0  0  0
    6.5447    0.8301   22.8913 H   0  0  0  0  0  0  0  0  0  0  0  0
    8.2874    1.3869   23.9459 N   0  0  0  0  0  0  0  0  0  0  0  0
    8.8172    2.2515   23.9275 H   0  0  0  0  0  0  0  0  0  0  0  0
    9.1954    0.2480   24.1603 C   0  0  0  0  0  0  0  0  0  0  0  0
   10.2346    0.5876   24.2846 H   0  0  0  0  0  0  0  0  0  0  0  0
    8.9363   -0.2776   25.0900 H   0  0  0  0  0  0  0  0  0  0  0  0
    9.0382   -0.6836   22.9344 C   0  0  0  0  0  0  0  0  0  0  0  0
    8.4052   -1.5445   23.1923 H   0  0  0  0  0  0  0  0  0  0  0  0
    9.9998   -1.0922   22.5921 H   0  0  0  0  0  0  0  0  0  0  0  0
    5.4279    0.6413   20.1209 C   0  0  0  0  0  0  0  0  0  0  0  0
    4.9948    0.6449   21.1217 H   0  0  0  0  0  0  0  0  0  0  0  0
    4.7886    1.3165   19.0756 C   0  0  0  0  0  0  0  0  0  0  0  0
    3.8605    1.8601   19.2262 H   0  0  0  0  0  0  0  0  0  0  0  0
  1  2  1  0
  2  3  2  0
  3  4  1  0
  4  5  1  0
  4  6  2  0
  6  7  1  0
  7  8  1  0
  7  9  1  0
 10  7  1  6
 10 11  1  0
 11 12  1  0
 11 13  1  0
 11 14  1  0
 14 15  2  0
 15 16  1  0
 15 17  1  0
 17 18  1  0
 17 19  2  0
 19 20  1  0
 19 21  1  0
 21 22  1  0
 21 23  2  0
 23 24  1  0
 10 25  1  0
 25 26  1  0
 25 27  1  0
 25 28  1  0
 28 29  1  0
 28 30  1  0
 30 31  1  0
 30 32  1  0
 30 33  1  0
 33 34  1  0
 33 35  1  0
  6 36  1  0
 36 37  1  0
 36 38  2  0
 38 39  1  0
 38  2  1  0
 33 10  1  0
 23 14  1  0
M  END
>  <cnnaffinity>  (1) 
-5.65926

>  <filename>  (1) 
Clc1cccc(C[C@@]2(Cc3cccnc3)CCNC2)c1

$$$$
