
     RDKit          3D

 17 18  0  0  0  0  0  0  0  0999 V2000
    4.9045    1.7707   17.0069 H   0  0  0  0  0  0  0  0  0  0  0  0
    5.3987    1.2905   17.8485 C   0  0  0  0  0  0  0  0  0  0  0  0
    6.5701    0.6825   17.5935 N   0  0  0  0  0  0  0  0  0  0  0  0
    7.1868    0.0575   18.5990 C   0  0  0  0  0  0  0  0  0  0  0  0
    8.1347   -0.4413   18.3850 H   0  0  0  0  0  0  0  0  0  0  0  0
    6.6570    0.0071   19.8986 C   0  0  0  0  0  0  0  0  0  0  0  0
    7.3555   -0.6811   20.9336 N   0  0  0  0  0  0  0  0  0  0  0  0
    7.9699   -1.8675   20.7151 N   0  0  0  0  0  0  0  0  0  0  0  0
    8.5264   -2.2392   21.8212 N   0  0  0  0  0  0  0  0  0  0  0  0
    8.2920   -1.3009   22.7790 C   0  0  0  0  0  0  0  0  0  0  0  0
    8.6655   -1.3511   23.7901 H   0  0  0  0  0  0  0  0  0  0  0  0
    7.5524   -0.3030   22.2226 C   0  0  0  0  0  0  0  0  0  0  0  0
    7.0831    1.1783   22.9196 Cl  0  0  0  0  0  0  0  0  0  0  0  0
    5.4446    0.6487   20.1619 C   0  0  0  0  0  0  0  0  0  0  0  0
    5.0093    0.6267   21.1569 H   0  0  0  0  0  0  0  0  0  0  0  0
    4.8072    1.3102   19.1137 C   0  0  0  0  0  0  0  0  0  0  0  0
    3.8739    1.8442   19.2692 H   0  0  0  0  0  0  0  0  0  0  0  0
  1  2  1  0
  2  3  2  0
  3  4  1  0
  4  5  1  0
  4  6  2  0
  6  7  1  0
  7  8  1  0
  8  9  2  0
  9 10  1  0
 10 11  1  0
 10 12  2  0
 12 13  1  0
  6 14  1  0
 14 15  1  0
 14 16  2  0
 16 17  1  0
 16  2  1  0
 12  7  1  0
M  END
>  <cnnaffinity>  (1) 
-4.19251

>  <filename>  (1) 
Clc1cnnn1-c1cccnc1

$$$$
