
     RDKit          3D

 27 29  0  0  0  0  0  0  0  0999 V2000
    4.9350    1.7757   17.0010 H   0  0  0  0  0  0  0  0  0  0  0  0
    5.4099    1.2845   17.8471 C   0  0  0  0  0  0  0  0  0  0  0  0
    6.5715    0.6657   17.5913 N   0  0  0  0  0  0  0  0  0  0  0  0
    7.1798    0.0527   18.6082 C   0  0  0  0  0  0  0  0  0  0  0  0
    8.1248   -0.4280   18.3732 H   0  0  0  0  0  0  0  0  0  0  0  0
    6.6589    0.0087   19.9057 C   0  0  0  0  0  0  0  0  0  0  0  0
    7.4063   -0.7072   20.9340 C   0  0  0  0  0  0  0  0  0  0  0  0
    6.9484   -0.7842   22.2028 N   0  0  0  0  0  0  0  0  0  0  0  0
    7.8613   -1.4890   22.8340 C   0  0  0  0  0  0  0  0  0  0  0  0
    7.8441   -1.8607   24.2559 C   0  0  0  0  0  0  0  0  0  0  0  0
    6.7561   -1.4417   25.0539 C   0  0  0  0  0  0  0  0  0  0  0  0
    5.9569   -0.8554   24.6051 H   0  0  0  0  0  0  0  0  0  0  0  0
    6.7080   -1.7765   26.4073 C   0  0  0  0  0  0  0  0  0  0  0  0
    5.8765   -1.4647   27.0397 H   0  0  0  0  0  0  0  0  0  0  0  0
    7.7420   -2.5400   26.9449 C   0  0  0  0  0  0  0  0  0  0  0  0
    7.8030   -2.8729   27.9532 H   0  0  0  0  0  0  0  0  0  0  0  0
    8.7934   -2.9768   26.1519 C   0  0  0  0  0  0  0  0  0  0  0  0
    9.9257   -4.0794   26.8741 Cl  0  0  0  0  0  0  0  0  0  0  0  0
    8.8837   -2.6304   24.8149 C   0  0  0  0  0  0  0  0  0  0  0  0
    9.7503   -2.9949   24.2680 H   0  0  0  0  0  0  0  0  0  0  0  0
    8.8278   -1.8226   21.9596 N   0  0  0  0  0  0  0  0  0  0  0  0
    9.6677   -2.3477   22.1208 H   0  0  0  0  0  0  0  0  0  0  0  0
    8.5563   -1.3285   20.7303 N   0  0  0  0  0  0  0  0  0  0  0  0
    5.4359    0.6504   20.1719 C   0  0  0  0  0  0  0  0  0  0  0  0
    5.0038    0.6334   21.1787 H   0  0  0  0  0  0  0  0  0  0  0  0
    4.8114    1.3033   19.1135 C   0  0  0  0  0  0  0  0  0  0  0  0
    3.8800    1.8382   19.2555 H   0  0  0  0  0  0  0  0  0  0  0  0
  1  2  1  0
  2  3  2  0
  3  4  1  0
  4  5  1  0
  4  6  2  0
  6  7  1  0
  7  8  1  0
  8  9  2  0
  9 10  1  0
 10 11  2  0
 11 12  1  0
 11 13  1  0
 13 14  1  0
 13 15  2  0
 15 16  1  0
 15 17  1  0
 17 18  1  0
 17 19  2  0
 19 20  1  0
  9 21  1  0
 21 22  1  0
 21 23  1  0
  6 24  1  0
 24 25  1  0
 24 26  2  0
 26 27  1  0
 26  2  1  0
 23  7  2  0
 19 10  1  0
M  END
>  <cnnaffinity>  (1) 
-4.94057

>  <filename>  (1) 
Clc1cccc(-c2nc(-c3cccnc3)n[nH]2)c1

$$$$
