
     RDKit          3D

 33 36  0  0  0  0  0  0  0  0999 V2000
    4.9532    1.8441   16.9442 H   0  0  0  0  0  0  0  0  0  0  0  0
    5.4033    1.3062   17.7728 C   0  0  0  0  0  0  0  0  0  0  0  0
    6.5546    0.6694   17.5118 N   0  0  0  0  0  0  0  0  0  0  0  0
    7.1444    0.0099   18.5131 C   0  0  0  0  0  0  0  0  0  0  0  0
    8.0991   -0.4590   18.2758 H   0  0  0  0  0  0  0  0  0  0  0  0
    6.6161   -0.0533   19.8155 C   0  0  0  0  0  0  0  0  0  0  0  0
    7.3701   -0.6682   20.9201 C   0  0  0  0  0  0  0  0  0  0  0  0
    8.5055   -1.3637   20.7255 N   0  0  0  0  0  0  0  0  0  0  0  0
    8.9042   -1.6400   21.9913 N   0  0  0  0  0  0  0  0  0  0  0  0
   10.0801   -2.1179   22.5588 C   0  0  0  0  0  0  0  0  0  0  0  0
   10.8690   -2.4879   21.9263 H   0  0  0  0  0  0  0  0  0  0  0  0
    9.9766   -1.8948   23.8935 C   0  0  0  0  0  0  0  0  0  0  0  0
   10.6540   -1.9932   24.7295 H   0  0  0  0  0  0  0  0  0  0  0  0
    8.7218   -1.3598   24.1352 N   0  0  0  0  0  0  0  0  0  0  0  0
    8.4733   -0.7028   25.3043 O   0  0  0  0  0  0  0  0  0  0  0  0
    7.1250   -0.6081   25.6822 C   0  0  0  0  0  0  0  0  0  0  0  0
    6.8407    0.5278   26.4334 C   0  0  0  0  0  0  0  0  0  0  0  0
    7.6562    1.2268   26.5885 H   0  0  0  0  0  0  0  0  0  0  0  0
    5.5463    0.7382   26.9083 C   0  0  0  0  0  0  0  0  0  0  0  0
    5.3038    1.6211   27.4942 H   0  0  0  0  0  0  0  0  0  0  0  0
    4.5527   -0.2062   26.6168 C   0  0  0  0  0  0  0  0  0  0  0  0
    2.9364    0.0441   27.2098 Cl  0  0  0  0  0  0  0  0  0  0  0  0
    4.8374   -1.3474   25.8575 C   0  0  0  0  0  0  0  0  0  0  0  0
    4.0411   -2.0555   25.6328 H   0  0  0  0  0  0  0  0  0  0  0  0
    6.1370   -1.5499   25.3792 C   0  0  0  0  0  0  0  0  0  0  0  0
    6.3874   -2.4015   24.7511 H   0  0  0  0  0  0  0  0  0  0  0  0
    8.0941   -1.1291   22.9349 C   0  0  0  0  0  0  0  0  0  0  0  0
    7.0366   -0.5072   22.2868 C   0  0  0  0  0  0  0  0  0  0  0  0
    6.1957   -0.0062   22.7378 H   0  0  0  0  0  0  0  0  0  0  0  0
    5.4034    0.6156   20.0634 C   0  0  0  0  0  0  0  0  0  0  0  0
    4.9668    0.6404   21.0620 H   0  0  0  0  0  0  0  0  0  0  0  0
    4.7880    1.3043   19.0263 C   0  0  0  0  0  0  0  0  0  0  0  0
    3.8697    1.8590   19.1888 H   0  0  0  0  0  0  0  0  0  0  0  0
  1  2  1  0
  2  3  2  0
  3  4  1  0
  4  5  1  0
  4  6  2  0
  6  7  1  0
  7  8  2  0
  8  9  1  0
  9 10  1  0
 10 11  1  0
 10 12  2  0
 12 13  1  0
 12 14  1  0
 14 15  1  0
 15 16  1  0
 16 17  2  0
 17 18  1  0
 17 19  1  0
 19 20  1  0
 19 21  2  0
 21 22  1  0
 21 23  1  0
 23 24  1  0
 23 25  2  0
 25 26  1  0
 14 27  1  0
 27 28  2  0
 28 29  1  0
  6 30  1  0
 30 31  1  0
 30 32  2  0
 32 33  1  0
 32  2  1  0
 28  7  1  0
 27  9  1  0
 25 16  1  0
M  END
>  <cnnaffinity>  (1) 
-5.67495

>  <filename>  (1) 
Clc1ccc(On2ccn3nc(-c4cccnc4)cc23)cc1

$$$$
