
     RDKit          3D

 21 22  0  0  0  0  0  0  0  0999 V2000
    4.9213    1.7981   16.9795 H   0  0  0  0  0  0  0  0  0  0  0  0
    5.3928    1.3035   17.8256 C   0  0  0  0  0  0  0  0  0  0  0  0
    6.5547    0.6869   17.5637 N   0  0  0  0  0  0  0  0  0  0  0  0
    7.1452    0.0552   18.5849 C   0  0  0  0  0  0  0  0  0  0  0  0
    8.0973   -0.4159   18.3525 H   0  0  0  0  0  0  0  0  0  0  0  0
    6.6254   -0.0278   19.8875 C   0  0  0  0  0  0  0  0  0  0  0  0
    7.3928   -0.7133   20.9994 C   0  0  0  0  0  0  0  0  0  0  0  0
    7.9072   -1.6059   20.6226 H   0  0  0  0  0  0  0  0  0  0  0  0
    6.7046   -1.0631   21.7821 H   0  0  0  0  0  0  0  0  0  0  0  0
    8.4077    0.2187   21.6053 C   0  0  0  0  0  0  0  0  0  0  0  0
    9.7270    0.4847   21.1880 C   0  0  0  0  0  0  0  0  0  0  0  0
   10.2661   -0.0199   20.4104 H   0  0  0  0  0  0  0  0  0  0  0  0
   10.3094    1.4493   21.8817 N   0  0  0  0  0  0  0  0  0  0  0  0
    9.3707    1.8257   22.7593 N   0  0  0  0  0  0  0  0  0  0  0  0
    9.5756    2.5421   23.4357 H   0  0  0  0  0  0  0  0  0  0  0  0
    8.2274    1.1184   22.6230 C   0  0  0  0  0  0  0  0  0  0  0  0
    6.8585    1.4208   23.6054 Cl  0  0  0  0  0  0  0  0  0  0  0  0
    5.4239    0.6442   20.1423 C   0  0  0  0  0  0  0  0  0  0  0  0
    5.0022    0.6429   21.1531 H   0  0  0  0  0  0  0  0  0  0  0  0
    4.7984    1.3189   19.0913 C   0  0  0  0  0  0  0  0  0  0  0  0
    3.8705    1.8500   19.2433 H   0  0  0  0  0  0  0  0  0  0  0  0
  1  2  1  0
  2  3  2  0
  3  4  1  0
  4  5  1  0
  4  6  2  0
  6  7  1  0
  7  8  1  0
  7  9  1  0
  7 10  1  0
 10 11  1  0
 11 12  1  0
 11 13  2  0
 13 14  1  0
 14 15  1  0
 14 16  1  0
 16 17  1  0
  6 18  1  0
 18 19  1  0
 18 20  2  0
 20 21  1  0
 20  2  1  0
 16 10  2  0
M  END
>  <cnnaffinity>  (1) 
-4.31542

>  <filename>  (1) 
Clc1[nH]ncc1Cc1cccnc1

$$$$
