
     RDKit          3D

 30 32  0  0  0  0  0  0  0  0999 V2000
    4.9114    1.7983   16.9798 H   0  0  0  0  0  0  0  0  0  0  0  0
    5.3880    1.3052   17.8206 C   0  0  0  0  0  0  0  0  0  0  0  0
    6.5533    0.6906   17.5515 N   0  0  0  0  0  0  0  0  0  0  0  0
    7.1578    0.0648   18.5676 C   0  0  0  0  0  0  0  0  0  0  0  0
    8.1158   -0.4005   18.3358 H   0  0  0  0  0  0  0  0  0  0  0  0
    6.6502    0.0129   19.8828 C   0  0  0  0  0  0  0  0  0  0  0  0
    7.3692   -0.6562   20.9733 C   0  0  0  0  0  0  0  0  0  0  0  0
    7.5143   -0.3212   22.3151 C   0  0  0  0  0  0  0  0  0  0  0  0
    7.0284    0.8341   22.9318 N   0  0  0  0  0  0  0  0  0  0  0  0
    6.9831    1.6478   22.3416 H   0  0  0  0  0  0  0  0  0  0  0  0
    6.8188    1.0321   24.2960 C   0  0  0  0  0  0  0  0  0  0  0  0
    7.0387    2.2924   24.8722 C   0  0  0  0  0  0  0  0  0  0  0  0
    7.3942    3.1109   24.2522 H   0  0  0  0  0  0  0  0  0  0  0  0
    6.8288    2.4879   26.2417 C   0  0  0  0  0  0  0  0  0  0  0  0
    6.9969    3.4542   26.7061 H   0  0  0  0  0  0  0  0  0  0  0  0
    6.3802    1.4222   27.0277 C   0  0  0  0  0  0  0  0  0  0  0  0
    6.1020    1.6554   28.7282 Cl  0  0  0  0  0  0  0  0  0  0  0  0
    6.1402    0.1694   26.4632 C   0  0  0  0  0  0  0  0  0  0  0  0
    5.7904   -0.6487   27.0820 H   0  0  0  0  0  0  0  0  0  0  0  0
    6.3538   -0.0180   25.1000 C   0  0  0  0  0  0  0  0  0  0  0  0
    6.1774   -0.9734   24.6180 H   0  0  0  0  0  0  0  0  0  0  0  0
    8.2887   -1.3763   22.8622 C   0  0  0  0  0  0  0  0  0  0  0  0
    8.6234   -1.4646   23.8855 H   0  0  0  0  0  0  0  0  0  0  0  0
    8.6040   -2.2896   21.9518 N   0  0  0  0  0  0  0  0  0  0  0  0
    8.0480   -1.8237   20.8231 N   0  0  0  0  0  0  0  0  0  0  0  0
    8.1327   -2.3624   19.9771 H   0  0  0  0  0  0  0  0  0  0  0  0
    5.4322    0.6615   20.1416 C   0  0  0  0  0  0  0  0  0  0  0  0
    5.0170    0.6261   21.1517 H   0  0  0  0  0  0  0  0  0  0  0  0
    4.7946    1.3188   19.0888 C   0  0  0  0  0  0  0  0  0  0  0  0
    3.8649    1.8484   19.2455 H   0  0  0  0  0  0  0  0  0  0  0  0
  1  2  1  0
  2  3  2  0
  3  4  1  0
  4  5  1  0
  4  6  2  0
  6  7  1  0
  7  8  2  0
  8  9  1  0
  9 10  1  0
  9 11  1  0
 11 12  2  0
 12 13  1  0
 12 14  1  0
 14 15  1  0
 14 16  2  0
 16 17  1  0
 16 18  1  0
 18 19  1  0
 18 20  2  0
 20 21  1  0
  8 22  1  0
 22 23  1  0
 22 24  2  0
 24 25  1  0
 25 26  1  0
  6 27  1  0
 27 28  1  0
 27 29  2  0
 29 30  1  0
 29  2  1  0
 25  7  1  0
 20 11  1  0
M  END
>  <cnnaffinity>  (1) 
-5.3853

>  <filename>  (1) 
Clc1ccc(Nc2cn[nH]c2-c2cccnc2)cc1

$$$$
