
     RDKit          3D

 29 31  0  0  0  0  0  0  0  0999 V2000
    4.9171    1.7882   16.9887 H   0  0  0  0  0  0  0  0  0  0  0  0
    5.3955    1.2983   17.8324 C   0  0  0  0  0  0  0  0  0  0  0  0
    6.5553    0.6807   17.5697 N   0  0  0  0  0  0  0  0  0  0  0  0
    7.1641    0.0695   18.5905 C   0  0  0  0  0  0  0  0  0  0  0  0
    8.1099   -0.4172   18.3759 H   0  0  0  0  0  0  0  0  0  0  0  0
    6.6538    0.0178   19.8976 C   0  0  0  0  0  0  0  0  0  0  0  0
    7.3907   -0.7444   20.9765 C   0  0  0  0  0  0  0  0  0  0  0  0
    7.4408   -1.8135   20.7386 H   0  0  0  0  0  0  0  0  0  0  0  0
    6.8653   -0.6453   21.9277 H   0  0  0  0  0  0  0  0  0  0  0  0
    8.7594   -0.2976   21.2010 N   0  0  0  0  0  0  0  0  0  0  0  0
    9.7718   -0.8363   20.5078 N   0  0  0  0  0  0  0  0  0  0  0  0
   10.8553   -0.2945   20.9447 N   0  0  0  0  0  0  0  0  0  0  0  0
   10.5881    0.6032   21.9074 N   0  0  0  0  0  0  0  0  0  0  0  0
    9.2826    0.6084   22.0535 C   0  0  0  0  0  0  0  0  0  0  0  0
    8.5035    1.4143   23.0126 C   0  0  0  0  0  0  0  0  0  0  0  0
    8.8903    1.4030   24.3615 C   0  0  0  0  0  0  0  0  0  0  0  0
    9.7590    0.8163   24.6616 H   0  0  0  0  0  0  0  0  0  0  0  0
    8.1712    2.1456   25.2960 C   0  0  0  0  0  0  0  0  0  0  0  0
    8.4834    2.1363   26.3372 H   0  0  0  0  0  0  0  0  0  0  0  0
    7.0674    2.9101   24.9037 C   0  0  0  0  0  0  0  0  0  0  0  0
    6.5036    3.4951   25.6228 H   0  0  0  0  0  0  0  0  0  0  0  0
    6.6981    2.9201   23.5561 C   0  0  0  0  0  0  0  0  0  0  0  0
    5.3344    3.8793   23.0552 Cl  0  0  0  0  0  0  0  0  0  0  0  0
    7.4018    2.1877   22.6017 C   0  0  0  0  0  0  0  0  0  0  0  0
    7.1107    2.2526   21.5562 H   0  0  0  0  0  0  0  0  0  0  0  0
    5.4318    0.6479   20.1505 C   0  0  0  0  0  0  0  0  0  0  0  0
    5.0080    0.6373   21.1626 H   0  0  0  0  0  0  0  0  0  0  0  0
    4.7956    1.3145   19.0974 C   0  0  0  0  0  0  0  0  0  0  0  0
    3.8667    1.8516   19.2515 H   0  0  0  0  0  0  0  0  0  0  0  0
  1  2  1  0
  2  3  2  0
  3  4  1  0
  4  5  1  0
  4  6  2  0
  6  7  1  0
  7  8  1  0
  7  9  1  0
  7 10  1  0
 10 11  1  0
 11 12  2  0
 12 13  1  0
 13 14  2  0
 14 15  1  0
 15 16  2  0
 16 17  1  0
 16 18  1  0
 18 19  1  0
 18 20  2  0
 20 21  1  0
 20 22  1  0
 22 23  1  0
 22 24  2  0
 24 25  1  0
  6 26  1  0
 26 27  1  0
 26 28  2  0
 28 29  1  0
 28  2  1  0
 14 10  1  0
 24 15  1  0
M  END
>  <cnnaffinity>  (1) 
-4.87364

>  <filename>  (1) 
Clc1cccc(-c2nnnn2Cc2cccnc2)c1

$$$$
