
     RDKit          3D

 33 35  0  0  0  0  0  0  0  0999 V2000
    4.6287    1.3853   17.2180 H   0  0  0  0  0  0  0  0  0  0  0  0
    4.9866    0.6934   17.9794 C   0  0  0  0  0  0  0  0  0  0  0  0
    6.0573   -0.0456   17.6496 N   0  0  0  0  0  0  0  0  0  0  0  0
    6.5374   -0.8826   18.5783 C   0  0  0  0  0  0  0  0  0  0  0  0
    7.4064   -1.4577   18.2697 H   0  0  0  0  0  0  0  0  0  0  0  0
    5.9913   -1.0414   19.8692 C   0  0  0  0  0  0  0  0  0  0  0  0
    6.6493   -1.8590   20.9108 C   0  0  0  0  0  0  0  0  0  0  0  0
    6.1318   -2.6683   22.0156 C   0  0  0  0  0  0  0  0  0  0  0  0
    4.9765   -3.2308   22.1892 N   0  0  0  0  0  0  0  0  0  0  0  0
    4.6448   -3.1998   23.1783 H   0  0  0  0  0  0  0  0  0  0  0  0
    4.9522   -5.0590   23.7593 C   0  0  0  0  0  0  0  0  0  0  0  0
    5.8179   -5.0335   24.5374 H   0  0  0  0  0  0  0  0  0  0  0  0
    4.2597   -5.1729   24.6664 H   0  0  0  0  0  0  0  0  0  0  0  0
    4.9695   -5.3988   23.7203 C   0  0  0  0  0  0  0  0  0  0  0  0
    4.0179   -3.0501   24.7540 C   0  0  0  0  0  0  0  0  0  0  0  0
    4.4237   -2.1588   25.2069 H   0  0  0  0  0  0  0  0  0  0  0  0
    2.7437   -3.4316   24.7720 C   0  0  0  0  0  0  0  0  0  0  0  0
    2.1171   -2.8944   25.5013 H   0  0  0  0  0  0  0  0  0  0  0  0
    1.9615   -4.3811   24.0156 C   0  0  0  0  0  0  0  0  0  0  0  0
    0.2474   -4.3257   24.3821 Cl  0  0  0  0  0  0  0  0  0  0  0  0
    2.2431   -5.3660   22.9920 C   0  0  0  0  0  0  0  0  0  0  0  0
    1.3659   -5.6378   22.4047 H   0  0  0  0  0  0  0  0  0  0  0  0
    3.3377   -6.0680   22.7384 C   0  0  0  0  0  0  0  0  0  0  0  0
    3.3955   -6.8680   21.9990 H   0  0  0  0  0  0  0  0  0  0  0  0
    7.3604   -2.7612   22.8472 C   0  0  0  0  0  0  0  0  0  0  0  0
    7.4795   -3.1383   23.8547 H   0  0  0  0  0  0  0  0  0  0  0  0
    8.4227   -2.2277   22.2819 N   0  0  0  0  0  0  0  0  0  0  0  0
    7.9811   -1.7287   21.1231 N   0  0  0  0  0  0  0  0  0  0  0  0
    8.6112   -1.1849   20.5551 H   0  0  0  0  0  0  0  0  0  0  0  0
    4.8525   -0.2730   20.1733 C   0  0  0  0  0  0  0  0  0  0  0  0
    4.3987   -0.3570   21.1549 H   0  0  0  0  0  0  0  0  0  0  0  0
    4.3439    0.6062   19.2184 C   0  0  0  0  0  0  0  0  0  0  0  0
    3.4816    1.2308   19.4256 H   0  0  0  0  0  0  0  0  0  0  0  0
  1  2  1  0
  2  3  2  0
  3  4  1  0
  4  5  1  0
  4  6  2  0
  6  7  1  0
  7  8  2  0
  8  9  1  0
  9 10  1  0
  9 11  1  0
 11 12  1  0
 11 13  1  0
 11 14  1  0
 14 15  2  0
 15 16  1  0
 15 17  1  0
 17 18  1  0
 17 19  2  0
 19 20  1  0
 19 21  1  0
 21 22  1  0
 21 23  2  0
 23 24  1  0
  8 25  1  0
 25 26  1  0
 25 27  2  0
 27 28  1  0
 28 29  1  0
  6 30  1  0
 30 31  1  0
 30 32  2  0
 32 33  1  0
 32  2  1  0
 28  7  1  0
 23 14  1  0
M  END
>  <cnnaffinity>  (1) 
-5.59247

>  <filename>  (1) 
Clc1ccc(CNc2cn[nH]c2-c2cccnc2)cc1

$$$$
