
     RDKit          3D

 31 33  0  0  0  0  0  0  0  0999 V2000
    4.9299    1.7814   16.9915 H   0  0  0  0  0  0  0  0  0  0  0  0
    5.4011    1.2917   17.8405 C   0  0  0  0  0  0  0  0  0  0  0  0
    6.5625    0.6725   17.5846 N   0  0  0  0  0  0  0  0  0  0  0  0
    7.1575    0.0643   18.6139 C   0  0  0  0  0  0  0  0  0  0  0  0
    8.1004   -0.4132   18.3677 H   0  0  0  0  0  0  0  0  0  0  0  0
    6.6449    0.0118   19.9217 C   0  0  0  0  0  0  0  0  0  0  0  0
    7.4115   -0.7044   20.9357 C   0  0  0  0  0  0  0  0  0  0  0  0
    6.8953   -0.7974   22.1992 O   0  0  0  0  0  0  0  0  0  0  0  0
    7.7620   -1.5184   22.9465 C   0  0  0  0  0  0  0  0  0  0  0  0
    7.4647   -1.7475   24.3881 C   0  0  0  0  0  0  0  0  0  0  0  0
    8.1982   -2.4769   24.7375 H   0  0  0  0  0  0  0  0  0  0  0  0
    6.4733   -2.1959   24.5202 H   0  0  0  0  0  0  0  0  0  0  0  0
    7.5754   -0.4753   25.2025 C   0  0  0  0  0  0  0  0  0  0  0  0
    6.4298    0.2747   25.4805 C   0  0  0  0  0  0  0  0  0  0  0  0
    5.4843   -0.1118   25.1168 H   0  0  0  0  0  0  0  0  0  0  0  0
    6.4896    1.4808   26.1812 C   0  0  0  0  0  0  0  0  0  0  0  0
    5.5785    2.0325   26.3867 H   0  0  0  0  0  0  0  0  0  0  0  0
    7.7279    1.9644   26.6109 C   0  0  0  0  0  0  0  0  0  0  0  0
    7.7957    2.8947   27.1663 H   0  0  0  0  0  0  0  0  0  0  0  0
    8.8924    1.2562   26.3100 C   0  0  0  0  0  0  0  0  0  0  0  0
    9.8805    1.6216   26.5553 H   0  0  0  0  0  0  0  0  0  0  0  0
    8.8059    0.0496   25.6177 C   0  0  0  0  0  0  0  0  0  0  0  0
   10.2960   -0.7599   25.2386 Cl  0  0  0  0  0  0  0  0  0  0  0  0
    8.8401   -1.8688   22.1950 C   0  0  0  0  0  0  0  0  0  0  0  0
    9.6945   -2.4096   22.5712 H   0  0  0  0  0  0  0  0  0  0  0  0
    8.6131   -1.3459   20.8863 C   0  0  0  0  0  0  0  0  0  0  0  0
    9.2514   -1.4292   20.0176 H   0  0  0  0  0  0  0  0  0  0  0  0
    5.4172    0.6600   20.1722 C   0  0  0  0  0  0  0  0  0  0  0  0
    4.9875    0.6430   21.1781 H   0  0  0  0  0  0  0  0  0  0  0  0
    4.7973    1.3133   19.1057 C   0  0  0  0  0  0  0  0  0  0  0  0
    3.8666    1.8486   19.2477 H   0  0  0  0  0  0  0  0  0  0  0  0
  1  2  1  0
  2  3  2  0
  3  4  1  0
  4  5  1  0
  4  6  2  0
  6  7  1  0
  7  8  1  0
  8  9  1  0
  9 10  1  0
 10 11  1  0
 10 12  1  0
 10 13  1  0
 13 14  2  0
 14 15  1  0
 14 16  1  0
 16 17  1  0
 16 18  2  0
 18 19  1  0
 18 20  1  0
 20 21  1  0
 20 22  2  0
 22 23  1  0
  9 24  2  0
 24 25  1  0
 24 26  1  0
 26 27  1  0
  6 28  1  0
 28 29  1  0
 28 30  2  0
 30 31  1  0
 30  2  1  0
 26  7  2  0
 22 13  1  0
M  END
>  <cnnaffinity>  (1) 
-4.89674

>  <filename>  (1) 
Clc1ccccc1Cc1ccc(-c2cccnc2)o1

$$$$
