
     RDKit          3D

 35 38  0  0  0  0  0  0  0  0999 V2000
    4.9117    1.8335   16.9632 H   0  0  0  0  0  0  0  0  0  0  0  0
    5.3880    1.3180   17.7949 C   0  0  0  0  0  0  0  0  0  0  0  0
    6.5450    0.6990   17.5167 N   0  0  0  0  0  0  0  0  0  0  0  0
    7.1685    0.0811   18.5274 C   0  0  0  0  0  0  0  0  0  0  0  0
    8.1122   -0.4039   18.2733 H   0  0  0  0  0  0  0  0  0  0  0  0
    6.6933    0.0245   19.8512 C   0  0  0  0  0  0  0  0  0  0  0  0
    7.4570   -0.6995   20.9519 C   0  0  1  0  0  0  0  0  0  0  0  0
    8.3912   -1.0892   20.5236 H   0  0  0  0  0  0  0  0  0  0  0  0
    7.8489    0.2436   22.1485 C   0  0  0  0  0  0  0  0  0  0  0  0
    7.4429    1.2546   22.0596 H   0  0  0  0  0  0  0  0  0  0  0  0
    8.9353    0.3584   22.2142 H   0  0  0  0  0  0  0  0  0  0  0  0
    7.2781   -0.4514   23.3463 C   0  0  0  0  0  0  0  0  0  0  0  0
    7.2626   -0.1978   24.6404 N   0  0  0  0  0  0  0  0  0  0  0  0
    6.6385   -1.2849   25.1572 N   0  0  0  0  0  0  0  0  0  0  0  0
    6.5867   -1.3636   26.1624 H   0  0  0  0  0  0  0  0  0  0  0  0
    6.2463   -2.2034   24.2214 C   0  0  0  0  0  0  0  0  0  0  0  0
    5.6247   -3.5219   24.4725 C   0  0  0  0  0  0  0  0  0  0  0  0
    6.0068   -4.3363   25.5521 C   0  0  0  0  0  0  0  0  0  0  0  0
    6.7323   -3.9640   26.2713 H   0  0  0  0  0  0  0  0  0  0  0  0
    5.4995   -5.6275   25.6765 C   0  0  0  0  0  0  0  0  0  0  0  0
    5.8201   -6.2694   26.4901 H   0  0  0  0  0  0  0  0  0  0  0  0
    4.5921   -6.1322   24.7365 C   0  0  0  0  0  0  0  0  0  0  0  0
    4.0091   -7.7491   24.9348 Cl  0  0  0  0  0  0  0  0  0  0  0  0
    4.1953   -5.3250   23.6579 C   0  0  0  0  0  0  0  0  0  0  0  0
    3.0987   -5.9063   22.4510 Cl  0  0  0  0  0  0  0  0  0  0  0  0
    4.7134   -4.0337   23.5323 C   0  0  0  0  0  0  0  0  0  0  0  0
    4.3972   -3.4248   22.6919 H   0  0  0  0  0  0  0  0  0  0  0  0
    6.6611   -1.6537   23.0222 C   0  0  0  0  0  0  0  0  0  0  0  0
    6.6597   -1.9175   21.5492 C   0  0  0  0  0  0  0  0  0  0  0  0
    7.1254   -2.8716   21.2625 H   0  0  0  0  0  0  0  0  0  0  0  0
    5.6335   -1.9496   21.1587 H   0  0  0  0  0  0  0  0  0  0  0  0
    5.4674    0.6666   20.1051 C   0  0  0  0  0  0  0  0  0  0  0  0
    5.0376    0.6644   21.1075 H   0  0  0  0  0  0  0  0  0  0  0  0
    4.8037    1.3221   19.0641 C   0  0  0  0  0  0  0  0  0  0  0  0
    3.8637    1.8453   19.2192 H   0  0  0  0  0  0  0  0  0  0  0  0
  1  2  1  0
  2  3  2  0
  3  4  1  0
  4  5  1  0
  4  6  2  0
  6  7  1  0
  7  8  1  6
  7  9  1  0
  9 10  1  0
  9 11  1  0
  9 12  1  0
 12 13  2  0
 13 14  1  0
 14 15  1  0
 14 16  1  0
 16 17  1  0
 17 18  2  0
 18 19  1  0
 18 20  1  0
 20 21  1  0
 20 22  2  0
 22 23  1  0
 22 24  1  0
 24 25  1  0
 24 26  2  0
 26 27  1  0
 16 28  2  0
 28 29  1  0
 29 30  1  0
 29 31  1  0
  6 32  1  0
 32 33  1  0
 32 34  2  0
 34 35  1  0
 34  2  1  0
 29  7  1  0
 28 12  1  0
 26 17  1  0
M  END
>  <cnnaffinity>  (1) 
-5.67614

>  <filename>  (1) 
Clc1ccc(-c2[nH]nc3c2C[C@@H](c2cccnc2)C3)cc1Cl

$$$$
