
     RDKit          3D

 35 38  0  0  0  0  0  0  0  0999 V2000
    4.9147    1.8404   16.9556 H   0  0  0  0  0  0  0  0  0  0  0  0
    5.4005    1.3205   17.7805 C   0  0  0  0  0  0  0  0  0  0  0  0
    6.5575    0.7033   17.4987 N   0  0  0  0  0  0  0  0  0  0  0  0
    7.1755    0.0806   18.5109 C   0  0  0  0  0  0  0  0  0  0  0  0
    8.1120   -0.4119   18.2507 H   0  0  0  0  0  0  0  0  0  0  0  0
    6.7010    0.0281   19.8369 C   0  0  0  0  0  0  0  0  0  0  0  0
    7.4624   -0.6778   20.9403 C   0  0  1  0  0  0  0  0  0  0  0  0
    8.3970   -1.0590   20.5184 H   0  0  0  0  0  0  0  0  0  0  0  0
    7.8466    0.2655   22.1345 C   0  0  0  0  0  0  0  0  0  0  0  0
    8.9320    0.3861   22.2011 H   0  0  0  0  0  0  0  0  0  0  0  0
    7.4189    1.2694   22.0439 H   0  0  0  0  0  0  0  0  0  0  0  0
    7.3084   -0.4566   23.3302 C   0  0  0  0  0  0  0  0  0  0  0  0
    7.2281   -0.1716   24.6184 N   0  0  0  0  0  0  0  0  0  0  0  0
    6.5942   -1.2506   25.1404 N   0  0  0  0  0  0  0  0  0  0  0  0
    6.4551   -1.2999   26.1440 H   0  0  0  0  0  0  0  0  0  0  0  0
    6.2941   -2.2133   24.2125 C   0  0  0  0  0  0  0  0  0  0  0  0
    5.6299   -3.5165   24.4574 C   0  0  0  0  0  0  0  0  0  0  0  0
    4.4830   -3.8283   23.7040 C   0  0  0  0  0  0  0  0  0  0  0  0
    4.1114   -3.0950   23.0004 H   0  0  0  0  0  0  0  0  0  0  0  0
    3.8305   -5.0543   23.8226 C   0  0  0  0  0  0  0  0  0  0  0  0
    2.9385   -5.2615   23.2385 H   0  0  0  0  0  0  0  0  0  0  0  0
    4.3321   -6.0203   24.6926 C   0  0  0  0  0  0  0  0  0  0  0  0
    3.8584   -6.9948   24.7826 H   0  0  0  0  0  0  0  0  0  0  0  0
    5.4770   -5.7463   25.4473 C   0  0  0  0  0  0  0  0  0  0  0  0
    6.0401   -6.9907   26.5107 Cl  0  0  0  0  0  0  0  0  0  0  0  0
    6.1371   -4.5067   25.3319 C   0  0  0  0  0  0  0  0  0  0  0  0
    7.6139   -4.2375   26.1982 Cl  0  0  0  0  0  0  0  0  0  0  0  0
    6.7478   -1.6859   23.0150 C   0  0  0  0  0  0  0  0  0  0  0  0
    6.6937   -1.9083   21.5391 C   0  0  0  0  0  0  0  0  0  0  0  0
    5.6533   -1.9475   21.1902 H   0  0  0  0  0  0  0  0  0  0  0  0
    7.1570   -2.8516   21.2365 H   0  0  0  0  0  0  0  0  0  0  0  0
    5.4790    0.6666   20.0970 C   0  0  0  0  0  0  0  0  0  0  0  0
    5.0521    0.6650   21.1041 H   0  0  0  0  0  0  0  0  0  0  0  0
    4.8217    1.3187   19.0535 C   0  0  0  0  0  0  0  0  0  0  0  0
    3.8840    1.8341   19.2155 H   0  0  0  0  0  0  0  0  0  0  0  0
  1  2  1  0
  2  3  2  0
  3  4  1  0
  4  5  1  0
  4  6  2  0
  6  7  1  0
  7  8  1  6
  7  9  1  0
  9 10  1  0
  9 11  1  0
  9 12  1  0
 12 13  2  0
 13 14  1  0
 14 15  1  0
 14 16  1  0
 16 17  1  0
 17 18  2  0
 18 19  1  0
 18 20  1  0
 20 21  1  0
 20 22  2  0
 22 23  1  0
 22 24  1  0
 24 25  1  0
 24 26  2  0
 26 27  1  0
 16 28  2  0
 28 29  1  0
 29 30  1  0
 29 31  1  0
  6 32  1  0
 32 33  1  0
 32 34  2  0
 34 35  1  0
 34  2  1  0
 29  7  1  0
 28 12  1  0
 26 17  1  0
M  END
>  <cnnaffinity>  (1) 
-5.65846

>  <filename>  (1) 
Clc1cccc(-c2[nH]nc3c2C[C@@H](c2cccnc2)C3)c1Cl

$$$$
