
     RDKit          3D

 36 39  0  0  0  0  0  0  0  0999 V2000
    4.9540    1.8243   16.8971 H   0  0  0  0  0  0  0  0  0  0  0  0
    5.3880    1.3028   17.7475 C   0  0  0  0  0  0  0  0  0  0  0  0
    6.5339    0.6435   17.5180 N   0  0  0  0  0  0  0  0  0  0  0  0
    7.1056    0.0328   18.5590 C   0  0  0  0  0  0  0  0  0  0  0  0
    8.0274   -0.5052   18.3483 H   0  0  0  0  0  0  0  0  0  0  0  0
    6.5870    0.0589   19.8696 C   0  0  0  0  0  0  0  0  0  0  0  0
    7.3479   -0.5487   20.9689 C   0  0  0  0  0  0  0  0  0  0  0  0
    8.2687   -1.4950   20.7506 N   0  0  0  0  0  0  0  0  0  0  0  0
    8.7697   -1.7343   21.9561 N   0  0  0  0  0  0  0  0  0  0  0  0
    8.2749   -0.9907   22.9563 C   0  0  0  0  0  0  0  0  0  0  0  0
    7.2901   -0.2244   22.3579 C   0  0  0  0  0  0  0  0  0  0  0  0
    6.4199    0.6817   22.9023 O   0  0  0  0  0  0  0  0  0  0  0  0
    6.2179    0.6819   24.2675 C   0  0  0  0  0  0  0  0  0  0  0  0
    6.3024    1.9049   24.9321 C   0  0  0  0  0  0  0  0  0  0  0  0
    6.6200    2.7803   24.3770 H   0  0  0  0  0  0  0  0  0  0  0  0
    5.9886    1.9687   26.2908 C   0  0  0  0  0  0  0  0  0  0  0  0
    6.0478    2.9226   26.8089 H   0  0  0  0  0  0  0  0  0  0  0  0
    5.5984    0.8220   26.9899 C   0  0  0  0  0  0  0  0  0  0  0  0
    5.3386    0.8665   28.0419 H   0  0  0  0  0  0  0  0  0  0  0  0
    5.5580   -0.3965   26.3119 C   0  0  0  0  0  0  0  0  0  0  0  0
    5.1166   -1.8401   27.1755 Cl  0  0  0  0  0  0  0  0  0  0  0  0
    5.8740   -0.4867   24.9570 C   0  0  0  0  0  0  0  0  0  0  0  0
    5.8925   -1.4447   24.4508 H   0  0  0  0  0  0  0  0  0  0  0  0
    8.9918   -1.2976   24.2427 C   0  0  0  0  0  0  0  0  0  0  0  0
    9.3866   -0.3911   24.7107 H   0  0  0  0  0  0  0  0  0  0  0  0
    8.3263   -1.7763   24.9706 H   0  0  0  0  0  0  0  0  0  0  0  0
   10.1285   -2.2406   23.7675 C   0  0  0  0  0  0  0  0  0  0  0  0
   11.0430   -1.6603   23.6658 H   0  0  0  0  0  0  0  0  0  0  0  0
   10.3127   -3.0559   24.4703 H   0  0  0  0  0  0  0  0  0  0  0  0
    9.7468   -2.7210   22.3443 C   0  0  0  0  0  0  0  0  0  0  0  0
    9.3091   -3.7261   22.3194 H   0  0  0  0  0  0  0  0  0  0  0  0
   10.5917   -2.6747   21.6565 H   0  0  0  0  0  0  0  0  0  0  0  0
    5.3606    0.7142   20.0819 C   0  0  0  0  0  0  0  0  0  0  0  0
    4.9039    0.7348   21.0724 H   0  0  0  0  0  0  0  0  0  0  0  0
    4.7576    1.3416   18.9963 C   0  0  0  0  0  0  0  0  0  0  0  0
    3.8253    1.8828   19.1113 H   0  0  0  0  0  0  0  0  0  0  0  0
  1  2  1  0
  2  3  2  0
  3  4  1  0
  4  5  1  0
  4  6  2  0
  6  7  1  0
  7  8  2  0
  8  9  1  0
  9 10  1  0
 10 11  2  0
 11 12  1  0
 12 13  1  0
 13 14  2  0
 14 15  1  0
 14 16  1  0
 16 17  1  0
 16 18  2  0
 18 19  1  0
 18 20  1  0
 20 21  1  0
 20 22  2  0
 22 23  1  0
 10 24  1  0
 24 25  1  0
 24 26  1  0
 24 27  1  0
 27 28  1  0
 27 29  1  0
 27 30  1  0
 30 31  1  0
 30 32  1  0
  6 33  1  0
 33 34  1  0
 33 35  2  0
 35 36  1  0
 35  2  1  0
 11  7  1  0
 22 13  1  0
 30  9  1  0
M  END
>  <cnnaffinity>  (1) 
-5.50866

>  <filename>  (1) 
Clc1cccc(Oc2c(-c3cccnc3)nn3c2CCC3)c1

$$$$
