
     RDKit          3D

 31 33  0  0  0  0  0  0  0  0999 V2000
    4.9215    1.8168   16.9624 H   0  0  0  0  0  0  0  0  0  0  0  0
    5.3858    1.3082   17.8090 C   0  0  0  0  0  0  0  0  0  0  0  0
    6.5430    0.6778   17.5556 N   0  0  0  0  0  0  0  0  0  0  0  0
    7.1463    0.0618   18.5822 C   0  0  0  0  0  0  0  0  0  0  0  0
    8.0948   -0.4222   18.3486 H   0  0  0  0  0  0  0  0  0  0  0  0
    6.6323    0.0047   19.8932 C   0  0  0  0  0  0  0  0  0  0  0  0
    7.3018   -0.7357   20.9873 C   0  0  0  0  0  0  0  0  0  0  0  0
    8.5955   -0.5314   21.3857 C   0  0  0  0  0  0  0  0  0  0  0  0
    9.6261    0.4287   20.8695 C   0  0  0  0  0  0  0  0  0  0  0  0
    9.1750    1.0071   20.0635 H   0  0  0  0  0  0  0  0  0  0  0  0
   10.4276   -0.1896   20.4505 H   0  0  0  0  0  0  0  0  0  0  0  0
   10.1998    1.3583   21.9193 C   0  0  0  0  0  0  0  0  0  0  0  0
   11.4742    1.1065   22.4415 C   0  0  0  0  0  0  0  0  0  0  0  0
   12.0434    0.2797   22.0180 H   0  0  0  0  0  0  0  0  0  0  0  0
   12.0050    1.8775   23.4776 C   0  0  0  0  0  0  0  0  0  0  0  0
   12.9821    1.6318   23.8848 H   0  0  0  0  0  0  0  0  0  0  0  0
   11.2656    2.9472   23.9922 C   0  0  0  0  0  0  0  0  0  0  0  0
   11.6913    3.5706   24.7726 H   0  0  0  0  0  0  0  0  0  0  0  0
    9.9967    3.2349   23.4783 C   0  0  0  0  0  0  0  0  0  0  0  0
    9.3895    4.0476   23.8690 H   0  0  0  0  0  0  0  0  0  0  0  0
    9.4799    2.4458   22.4440 C   0  0  0  0  0  0  0  0  0  0  0  0
    7.8988    2.8431   21.8263 Cl  0  0  0  0  0  0  0  0  0  0  0  0
    9.0586   -1.6409   22.6172 S   0  0  0  0  0  0  0  0  0  0  0  0
    7.4961   -2.3474   22.6635 C   0  0  0  0  0  0  0  0  0  0  0  0
    7.3176   -3.1239   23.3964 H   0  0  0  0  0  0  0  0  0  0  0  0
    6.6663   -1.7682   21.7530 C   0  0  0  0  0  0  0  0  0  0  0  0
    5.6303   -2.0371   21.5998 H   0  0  0  0  0  0  0  0  0  0  0  0
    5.4178    0.6623   20.1283 C   0  0  0  0  0  0  0  0  0  0  0  0
    5.0002    0.6499   21.1333 H   0  0  0  0  0  0  0  0  0  0  0  0
    4.7908    1.3314   19.0753 C   0  0  0  0  0  0  0  0  0  0  0  0
    3.8574    1.8629   19.2205 H   0  0  0  0  0  0  0  0  0  0  0  0
  1  2  1  0
  2  3  2  0
  3  4  1  0
  4  5  1  0
  4  6  2  0
  6  7  1  0
  7  8  2  0
  8  9  1  0
  9 10  1  0
  9 11  1  0
  9 12  1  0
 12 13  2  0
 13 14  1  0
 13 15  1  0
 15 16  1  0
 15 17  2  0
 17 18  1  0
 17 19  1  0
 19 20  1  0
 19 21  2  0
 21 22  1  0
  8 23  1  0
 23 24  1  0
 24 25  1  0
 24 26  2  0
 26 27  1  0
  6 28  1  0
 28 29  1  0
 28 30  2  0
 30 31  1  0
 30  2  1  0
 26  7  1  0
 21 12  1  0
M  END
>  <cnnaffinity>  (1) 
-5.3936

>  <filename>  (1) 
Clc1ccccc1Cc1sccc1-c1cccnc1

$$$$
