
     RDKit          3D

 36 38  0  0  0  0  0  0  0  0999 V2000
    4.9871    1.8404   16.9690 H   0  0  0  0  0  0  0  0  0  0  0  0
    5.4332    1.3043   17.8077 C   0  0  0  0  0  0  0  0  0  0  0  0
    6.5793    0.6529   17.5583 N   0  0  0  0  0  0  0  0  0  0  0  0
    7.1533    0.0138   18.5857 C   0  0  0  0  0  0  0  0  0  0  0  0
    8.0829   -0.5073   18.3464 H   0  0  0  0  0  0  0  0  0  0  0  0
    6.6444   -0.0226   19.8962 C   0  0  0  0  0  0  0  0  0  0  0  0
    7.4243   -0.7067   21.0024 C   0  0  0  0  0  0  0  0  0  0  0  0
    8.1215   -1.4318   20.5620 H   0  0  0  0  0  0  0  0  0  0  0  0
    6.7476   -1.2840   21.6377 H   0  0  0  0  0  0  0  0  0  0  0  0
    8.1845    0.2307   21.8443 N   0  0  0  0  0  0  0  0  0  0  0  0
    8.3606    0.2344   23.2097 C   0  0  0  0  0  0  0  0  0  0  0  0
    7.6600   -0.6239   24.0488 N   0  0  0  0  0  0  0  0  0  0  0  0
    8.3538   -1.6002   24.7984 C   0  0  0  0  0  0  0  0  0  0  0  0
    7.8798   -2.0271   26.0508 C   0  0  0  0  0  0  0  0  0  0  0  0
    6.9996   -1.5510   26.4673 H   0  0  0  0  0  0  0  0  0  0  0  0
    8.5169   -3.0668   26.7355 C   0  0  0  0  0  0  0  0  0  0  0  0
    8.1320   -3.3869   27.7003 H   0  0  0  0  0  0  0  0  0  0  0  0
    9.6272   -3.7036   26.1738 C   0  0  0  0  0  0  0  0  0  0  0  0
   10.1110   -4.5286   26.6911 H   0  0  0  0  0  0  0  0  0  0  0  0
   10.1151   -3.2770   24.9334 C   0  0  0  0  0  0  0  0  0  0  0  0
   10.9656   -3.7816   24.4808 H   0  0  0  0  0  0  0  0  0  0  0  0
    9.5007   -2.2160   24.2598 C   0  0  0  0  0  0  0  0  0  0  0  0
    9.8816   -1.8580   23.3074 H   0  0  0  0  0  0  0  0  0  0  0  0
    6.2638   -0.3238   24.3473 C   0  0  0  0  0  0  0  0  0  0  0  0
    5.7111   -1.2599   24.5042 H   0  0  0  0  0  0  0  0  0  0  0  0
    5.8002    0.2210   23.5169 H   0  0  0  0  0  0  0  0  0  0  0  0
    6.1380    0.2924   25.2522 H   0  0  0  0  0  0  0  0  0  0  0  0
    9.1972    1.1625   23.6011 N   0  0  0  0  0  0  0  0  0  0  0  0
    9.5939    1.7966   22.4598 C   0  0  0  0  0  0  0  0  0  0  0  0
   10.2658    2.6515   22.4857 H   0  0  0  0  0  0  0  0  0  0  0  0
    9.0055    1.2290   21.3705 C   0  0  0  0  0  0  0  0  0  0  0  0
    9.0443    1.4588   20.3246 H   0  0  0  0  0  0  0  0  0  0  0  0
    5.4298    0.6396   20.1245 C   0  0  0  0  0  0  0  0  0  0  0  0
    4.9655    0.6490   21.1148 H   0  0  0  0  0  0  0  0  0  0  0  0
    4.8192    1.3100   19.0611 C   0  0  0  0  0  0  0  0  0  0  0  0
    3.8867    1.8436   19.1902 H   0  0  0  0  0  0  0  0  0  0  0  0
  1  2  1  0
  2  3  2  0
  3  4  1  0
  4  5  1  0
  4  6  2  0
  6  7  1  0
  7  8  1  0
  7  9  1  0
  7 10  1  0
 10 11  1  0
 11 12  1  0
 12 13  1  0
 13 14  2  0
 14 15  1  0
 14 16  1  0
 16 17  1  0
 16 18  2  0
 18 19  1  0
 18 20  1  0
 20 21  1  0
 20 22  2  0
 22 23  1  0
 12 24  1  0
 24 25  1  0
 24 26  1  0
 24 27  1  0
 11 28  2  0
 28 29  1  0
 29 30  1  0
 29 31  2  0
 31 32  1  0
  6 33  1  0
 33 34  1  0
 33 35  2  0
 35 36  1  0
 35  2  1  0
 31 10  1  0
 22 13  1  0
M  END
>  <cnnaffinity>  (1) 
-4.84336

>  <filename>  (1) 
CN(c1ccccc1)c1nccn1Cc1cccnc1

$$$$
