
     RDKit          3D

 42 43  0  0  0  0  0  0  0  0999 V2000
    6.0212   -0.9489   22.2862 H   0  0  0  0  0  0  0  0  0  0  0  0
    6.5435   -1.5539   21.7410 O   0  0  0  0  0  0  0  0  0  0  0  0
    7.4252   -0.7449   20.9776 C   0  0  1  0  0  0  0  0  0  0  0  0
    8.0965   -1.4442   20.4594 H   0  0  0  0  0  0  0  0  0  0  0  0
    6.6319   -0.0177   19.9017 C   0  0  0  0  0  0  0  0  0  0  0  0
    7.1290   -0.0003   18.5859 C   0  0  0  0  0  0  0  0  0  0  0  0
    8.0691   -0.5107   18.3509 H   0  0  0  0  0  0  0  0  0  0  0  0
    6.5532    0.6407   17.5596 N   0  0  0  0  0  0  0  0  0  0  0  0
    5.4119    1.2999   17.8109 C   0  0  0  0  0  0  0  0  0  0  0  0
    4.9678    1.8287   16.9724 H   0  0  0  0  0  0  0  0  0  0  0  0
    4.7981    1.3214   19.0674 C   0  0  0  0  0  0  0  0  0  0  0  0
    3.8697    1.8698   19.2062 H   0  0  0  0  0  0  0  0  0  0  0  0
    5.4138    0.6509   20.1248 C   0  0  0  0  0  0  0  0  0  0  0  0
    4.9413    0.6714   21.1098 H   0  0  0  0  0  0  0  0  0  0  0  0
    8.3533    0.1356   21.8836 C   0  0  0  0  0  0  0  0  0  0  0  0
    9.3306   -0.7276   22.7186 C   0  0  0  0  0  0  0  0  0  0  0  0
    9.9936   -0.0497   23.2845 H   0  0  0  0  0  0  0  0  0  0  0  0
    9.9896   -1.2712   22.0237 H   0  0  0  0  0  0  0  0  0  0  0  0
    8.6581   -1.7026   23.6908 C   0  0  0  0  0  0  0  0  0  0  0  0
    8.1644   -2.4985   23.1299 H   0  0  0  0  0  0  0  0  0  0  0  0
    7.8651   -1.1672   24.2289 H   0  0  0  0  0  0  0  0  0  0  0  0
    9.5982   -2.3106   24.7353 C   0  0  0  0  0  0  0  0  0  0  0  0
   10.4912   -2.7713   24.2614 H   0  0  0  0  0  0  0  0  0  0  0  0
    9.9564   -1.4799   25.3599 H   0  0  0  0  0  0  0  0  0  0  0  0
    8.9059   -3.2676   25.6004 N   0  0  0  0  0  0  0  0  0  0  0  0
    9.5173   -3.4660   26.9091 C   0  0  0  0  0  0  0  0  0  0  0  0
    8.7584   -3.8682   27.5893 H   0  0  0  0  0  0  0  0  0  0  0  0
   10.3800   -4.1627   26.8842 H   0  0  0  0  0  0  0  0  0  0  0  0
    9.8562   -2.5202   27.3443 H   0  0  0  0  0  0  0  0  0  0  0  0
    8.7079   -4.5758   24.9848 C   0  0  0  0  0  0  0  0  0  0  0  0
    8.1276   -4.5237   24.0590 H   0  0  0  0  0  0  0  0  0  0  0  0
    8.1425   -5.2180   25.6709 H   0  0  0  0  0  0  0  0  0  0  0  0
    9.6718   -5.0768   24.7610 H   0  0  0  0  0  0  0  0  0  0  0  0
    7.6432    1.2351   22.7371 C   0  0  0  0  0  0  0  0  0  0  0  0
    6.5540    1.2798   22.6483 H   0  0  0  0  0  0  0  0  0  0  0  0
    7.8875    1.1808   23.8044 H   0  0  0  0  0  0  0  0  0  0  0  0
    8.4008    2.3392   21.9662 C   0  0  0  0  0  0  0  0  0  0  0  0
    9.0630    2.9517   22.5865 H   0  0  0  0  0  0  0  0  0  0  0  0
    7.7539    2.9932   21.3762 H   0  0  0  0  0  0  0  0  0  0  0  0
    9.1144    1.2604   21.1234 C   0  0  0  0  0  0  0  0  0  0  0  0
   10.2018    1.2245   21.2348 H   0  0  0  0  0  0  0  0  0  0  0  0
    8.8811    1.2927   20.0614 H   0  0  0  0  0  0  0  0  0  0  0  0
  1  2  1  0
  2  3  1  0
  3  4  1  6
  3  5  1  0
  5  6  2  0
  6  7  1  0
  6  8  1  0
  8  9  2  0
  9 10  1  0
  9 11  1  0
 11 12  1  0
 11 13  2  0
 13 14  1  0
  3 15  1  0
 15 16  1  0
 16 17  1  0
 16 18  1  0
 16 19  1  0
 19 20  1  0
 19 21  1  0
 19 22  1  0
 22 23  1  0
 22 24  1  0
 22 25  1  0
 25 26  1  0
 26 27  1  0
 26 28  1  0
 26 29  1  0
 25 30  1  0
 30 31  1  0
 30 32  1  0
 30 33  1  0
 15 34  1  0
 34 35  1  0
 34 36  1  0
 34 37  1  0
 37 38  1  0
 37 39  1  0
 37 40  1  0
 40 41  1  0
 40 42  1  0
 13  5  1  0
 40 15  1  0
M  END
>  <cnnaffinity>  (1) 
-4.78623

>  <filename>  (1) 
CN(C)CCCC1([C@@H](O)c2cccnc2)CCC1

$$$$
