
     RDKit          3D

 43 45  0  0  0  0  0  0  0  0999 V2000
    4.9807    1.8271   16.8722 H   0  0  0  0  0  0  0  0  0  0  0  0
    5.4261    1.3007   17.7139 C   0  0  0  0  0  0  0  0  0  0  0  0
    6.5866    0.6671   17.4805 N   0  0  0  0  0  0  0  0  0  0  0  0
    7.1748    0.0432   18.5154 C   0  0  0  0  0  0  0  0  0  0  0  0
    8.1135   -0.4667   18.3016 H   0  0  0  0  0  0  0  0  0  0  0  0
    6.6483    0.0093   19.8343 C   0  0  0  0  0  0  0  0  0  0  0  0
    7.2617   -0.6484   20.9236 N   0  0  0  0  0  0  0  0  0  0  0  0
    6.6326   -0.7858   21.7074 H   0  0  0  0  0  0  0  0  0  0  0  0
    8.6317   -0.5312   21.2899 C   0  0  0  0  0  0  0  0  0  0  0  0
    9.5999    0.2958   20.6741 C   0  0  0  0  0  0  0  0  0  0  0  0
    9.4318    0.9649   19.8434 H   0  0  0  0  0  0  0  0  0  0  0  0
   10.7944    0.2114   21.2372 N   0  0  0  0  0  0  0  0  0  0  0  0
   10.6231   -0.7059   22.2087 N   0  0  0  0  0  0  0  0  0  0  0  0
   11.3470   -0.8572   22.8979 H   0  0  0  0  0  0  0  0  0  0  0  0
    9.3439   -1.1781   22.3086 C   0  0  0  0  0  0  0  0  0  0  0  0
    8.9681   -2.0397   23.3346 N   0  0  0  0  0  0  0  0  0  0  0  0
    9.6926   -3.2736   23.6320 C   0  0  0  0  0  0  0  0  0  0  0  0
   10.2278   -3.1953   24.5943 H   0  0  0  0  0  0  0  0  0  0  0  0
   10.4459   -3.4321   22.8520 H   0  0  0  0  0  0  0  0  0  0  0  0
    8.7166   -4.4516   23.7085 C   0  0  0  0  0  0  0  0  0  0  0  0
    9.2451   -5.3794   23.9522 H   0  0  0  0  0  0  0  0  0  0  0  0
    8.2581   -4.5925   22.7211 H   0  0  0  0  0  0  0  0  0  0  0  0
    7.6157   -4.1497   24.7523 C   0  0  0  0  0  0  0  0  0  0  0  0
    8.1207   -3.9021   25.7028 H   0  0  0  0  0  0  0  0  0  0  0  0
    6.6857   -5.2407   25.0496 N   0  0  0  0  0  0  0  0  0  0  0  0
    6.1407   -5.9489   23.8963 C   0  0  0  0  0  0  0  0  0  0  0  0
    6.9019   -6.4403   23.2612 H   0  0  0  0  0  0  0  0  0  0  0  0
    5.4610   -6.7316   24.2508 H   0  0  0  0  0  0  0  0  0  0  0  0
    5.5461   -5.2837   23.2608 H   0  0  0  0  0  0  0  0  0  0  0  0
    7.1738   -6.1661   26.0638 C   0  0  0  0  0  0  0  0  0  0  0  0
    6.3759   -6.8784   26.3071 H   0  0  0  0  0  0  0  0  0  0  0  0
    8.0825   -6.7240   25.7647 H   0  0  0  0  0  0  0  0  0  0  0  0
    7.4210   -5.6336   26.9894 H   0  0  0  0  0  0  0  0  0  0  0  0
    6.8650   -2.8915   24.3044 C   0  0  0  0  0  0  0  0  0  0  0  0
    6.0583   -2.6593   25.0058 H   0  0  0  0  0  0  0  0  0  0  0  0
    6.4123   -3.0893   23.3260 H   0  0  0  0  0  0  0  0  0  0  0  0
    7.8266   -1.7071   24.1845 C   0  0  0  0  0  0  0  0  0  0  0  0
    7.3218   -0.8359   23.7516 H   0  0  0  0  0  0  0  0  0  0  0  0
    8.1600   -1.4036   25.1952 H   0  0  0  0  0  0  0  0  0  0  0  0
    5.4142    0.6435   20.0346 C   0  0  0  0  0  0  0  0  0  0  0  0
    4.9632    0.6398   21.0262 H   0  0  0  0  0  0  0  0  0  0  0  0
    4.7971    1.3054   18.9660 C   0  0  0  0  0  0  0  0  0  0  0  0
    3.8558    1.8299   19.0964 H   0  0  0  0  0  0  0  0  0  0  0  0
  1  2  1  0
  2  3  2  0
  3  4  1  0
  4  5  1  0
  4  6  2  0
  6  7  1  0
  7  8  1  0
  7  9  1  0
  9 10  1  0
 10 11  1  0
 10 12  2  0
 12 13  1  0
 13 14  1  0
 13 15  1  0
 15 16  1  0
 16 17  1  0
 17 18  1  0
 17 19  1  0
 17 20  1  0
 20 21  1  0
 20 22  1  0
 20 23  1  0
 23 24  1  0
 23 25  1  0
 25 26  1  0
 26 27  1  0
 26 28  1  0
 26 29  1  0
 25 30  1  0
 30 31  1  0
 30 32  1  0
 30 33  1  0
 23 34  1  0
 34 35  1  0
 34 36  1  0
 34 37  1  0
 37 38  1  0
 37 39  1  0
  6 40  1  0
 40 41  1  0
 40 42  2  0
 42 43  1  0
 42  2  1  0
 15  9  2  0
 37 16  1  0
M  END
>  <cnnaffinity>  (1) 
-5.51438

>  <filename>  (1) 
CN(C)C1CCN(c2[nH]ncc2Nc2cccnc2)CC1

$$$$
