
     RDKit          3D

 31 32  0  0  0  0  0  0  0  0999 V2000
    4.9283    1.8095   17.0095 H   0  0  0  0  0  0  0  0  0  0  0  0
    5.4156    1.2999   17.8394 C   0  0  0  0  0  0  0  0  0  0  0  0
    6.5800    0.6938   17.5591 N   0  0  0  0  0  0  0  0  0  0  0  0
    7.2052    0.0623   18.5599 C   0  0  0  0  0  0  0  0  0  0  0  0
    8.1472   -0.4251   18.3197 H   0  0  0  0  0  0  0  0  0  0  0  0
    6.6982   -0.0420   19.8748 C   0  0  0  0  0  0  0  0  0  0  0  0
    7.4043   -0.7809   20.8542 N   0  0  0  0  0  0  0  0  0  0  0  0
    6.8231   -1.6271   21.7938 C   0  0  0  0  0  0  0  0  0  0  0  0
    5.7752   -2.2164   21.7630 O   0  0  0  0  0  0  0  0  0  0  0  0
    7.7574   -1.7788   22.7977 N   0  0  0  0  0  0  0  0  0  0  0  0
    7.6010   -2.4927   23.4823 H   0  0  0  0  0  0  0  0  0  0  0  0
    9.0065   -1.4205   22.3998 C   0  0  0  0  0  0  0  0  0  0  0  0
   10.0253   -1.7000   22.9829 O   0  0  0  0  0  0  0  0  0  0  0  0
    8.8528   -0.6505   21.1073 C   0  0  2  0  0  0  0  0  0  0  0  0
    9.4501   -1.1379   20.3301 H   0  0  0  0  0  0  0  0  0  0  0  0
    9.3917    0.7703   21.2899 C   0  0  0  0  0  0  0  0  0  0  0  0
   10.4675    0.6912   21.5111 H   0  0  0  0  0  0  0  0  0  0  0  0
    9.3133    1.2571   20.3132 H   0  0  0  0  0  0  0  0  0  0  0  0
    8.6736    1.5252   22.3096 N   0  0  0  0  0  0  0  0  0  0  0  0
    8.1731    2.8026   21.8203 C   0  0  0  0  0  0  0  0  0  0  0  0
    8.9738    3.5091   21.5375 H   0  0  0  0  0  0  0  0  0  0  0  0
    7.5409    2.6226   20.9457 H   0  0  0  0  0  0  0  0  0  0  0  0
    7.5533    3.2878   22.5808 H   0  0  0  0  0  0  0  0  0  0  0  0
    9.3477    1.6591   23.5928 C   0  0  0  0  0  0  0  0  0  0  0  0
    9.6124    0.6816   24.0025 H   0  0  0  0  0  0  0  0  0  0  0  0
    8.6621    2.1370   24.3017 H   0  0  0  0  0  0  0  0  0  0  0  0
   10.2657    2.2754   23.5497 H   0  0  0  0  0  0  0  0  0  0  0  0
    5.4834    0.6093   20.1569 C   0  0  0  0  0  0  0  0  0  0  0  0
    5.0663    0.5709   21.1668 H   0  0  0  0  0  0  0  0  0  0  0  0
    4.8339    1.2925   19.1160 C   0  0  0  0  0  0  0  0  0  0  0  0
    3.8952    1.8204   19.2751 H   0  0  0  0  0  0  0  0  0  0  0  0
  1  2  1  0
  2  3  2  0
  3  4  1  0
  4  5  1  0
  4  6  2  0
  6  7  1  0
  7  8  1  0
  8  9  2  0
  8 10  1  0
 10 11  1  0
 10 12  1  0
 12 13  2  0
 12 14  1  0
 14 15  1  6
 14 16  1  0
 16 17  1  0
 16 18  1  0
 16 19  1  0
 19 20  1  0
 20 21  1  0
 20 22  1  0
 20 23  1  0
 19 24  1  0
 24 25  1  0
 24 26  1  0
 24 27  1  0
  6 28  1  0
 28 29  1  0
 28 30  2  0
 30 31  1  0
 30  2  1  0
 14  7  1  0
M  END
>  <cnnaffinity>  (1) 
-4.45071

>  <filename>  (1) 
CN(C)C[C@H]1C(=O)NC(=O)N1c1cccnc1

$$$$
