
     RDKit          3D

 42 45  0  0  0  0  0  0  0  0999 V2000
    4.9228    1.7811   16.9972 H   0  0  0  0  0  0  0  0  0  0  0  0
    5.4031    1.2901   17.8399 C   0  0  0  0  0  0  0  0  0  0  0  0
    6.5671    0.6747   17.5764 N   0  0  0  0  0  0  0  0  0  0  0  0
    7.1716    0.0525   18.5912 C   0  0  0  0  0  0  0  0  0  0  0  0
    8.1195   -0.4329   18.3683 H   0  0  0  0  0  0  0  0  0  0  0  0
    6.6460    0.0130   19.8973 C   0  0  0  0  0  0  0  0  0  0  0  0
    7.4000   -0.6855   20.9365 C   0  0  0  0  0  0  0  0  0  0  0  0
    8.3201   -1.5920   20.7194 N   0  0  0  0  0  0  0  0  0  0  0  0
    8.8221   -2.0251   21.9275 N   0  0  0  0  0  0  0  0  0  0  0  0
    8.1942   -1.3368   22.8402 C   0  0  0  0  0  0  0  0  0  0  0  0
    8.2525   -1.0871   24.5650 S   0  0  0  0  0  0  0  0  0  0  0  0
    7.0218    0.1921   24.3555 C   0  0  0  0  0  0  0  0  0  0  0  0
    6.5810    0.9394   25.4151 N   0  0  0  0  0  0  0  0  0  0  0  0
    6.9502    0.6185   26.8034 C   0  0  0  0  0  0  0  0  0  0  0  0
    6.2138   -0.0697   27.2486 H   0  0  0  0  0  0  0  0  0  0  0  0
    7.9134    0.0992   26.8295 H   0  0  0  0  0  0  0  0  0  0  0  0
    7.0500    1.8804   27.6448 C   0  0  0  0  0  0  0  0  0  0  0  0
    7.2500    1.6175   28.6871 H   0  0  0  0  0  0  0  0  0  0  0  0
    7.9044    2.4740   27.3034 H   0  0  0  0  0  0  0  0  0  0  0  0
    5.7671    2.7185   27.5612 C   0  0  0  0  0  0  0  0  0  0  0  0
    4.9278    2.0924   27.9073 H   0  0  0  0  0  0  0  0  0  0  0  0
    5.7549    3.9202   28.4057 N   0  0  0  0  0  0  0  0  0  0  0  0
    5.4194    3.6420   29.7983 C   0  0  0  0  0  0  0  0  0  0  0  0
    4.4468    3.1435   29.8655 H   0  0  0  0  0  0  0  0  0  0  0  0
    5.3339    4.5775   30.3632 H   0  0  0  0  0  0  0  0  0  0  0  0
    6.1620    3.0098   30.3234 H   0  0  0  0  0  0  0  0  0  0  0  0
    6.9566    4.7442   28.3382 C   0  0  0  0  0  0  0  0  0  0  0  0
    6.7732    5.7151   28.8102 H   0  0  0  0  0  0  0  0  0  0  0  0
    7.8142    4.2913   28.8610 H   0  0  0  0  0  0  0  0  0  0  0  0
    7.2603    4.9384   27.3052 H   0  0  0  0  0  0  0  0  0  0  0  0
    5.4920    3.0548   26.0972 C   0  0  0  0  0  0  0  0  0  0  0  0
    6.2893    3.6941   25.7062 H   0  0  0  0  0  0  0  0  0  0  0  0
    4.5626    3.6228   26.0273 H   0  0  0  0  0  0  0  0  0  0  0  0
    5.3921    1.7907   25.2445 C   0  0  0  0  0  0  0  0  0  0  0  0
    5.2897    2.0615   24.1926 H   0  0  0  0  0  0  0  0  0  0  0  0
    4.4823    1.2288   25.5152 H   0  0  0  0  0  0  0  0  0  0  0  0
    6.6033    0.3693   23.1338 N   0  0  0  0  0  0  0  0  0  0  0  0
    7.2703   -0.4965   22.3008 N   0  0  0  0  0  0  0  0  0  0  0  0
    5.4280    0.6533   20.1630 C   0  0  0  0  0  0  0  0  0  0  0  0
    5.0110    0.6398   21.1713 H   0  0  0  0  0  0  0  0  0  0  0  0
    4.8045    1.3069   19.1047 C   0  0  0  0  0  0  0  0  0  0  0  0
    3.8752    1.8422   19.2547 H   0  0  0  0  0  0  0  0  0  0  0  0
  1  2  1  0
  2  3  2  0
  3  4  1  0
  4  5  1  0
  4  6  2  0
  6  7  1  0
  7  8  2  0
  8  9  1  0
  9 10  2  0
 10 11  1  0
 11 12  1  0
 12 13  1  0
 13 14  1  0
 14 15  1  0
 14 16  1  0
 14 17  1  0
 17 18  1  0
 17 19  1  0
 17 20  1  0
 20 21  1  0
 20 22  1  0
 22 23  1  0
 23 24  1  0
 23 25  1  0
 23 26  1  0
 22 27  1  0
 27 28  1  0
 27 29  1  0
 27 30  1  0
 20 31  1  0
 31 32  1  0
 31 33  1  0
 31 34  1  0
 34 35  1  0
 34 36  1  0
 12 37  2  0
 37 38  1  0
  6 39  1  0
 39 40  1  0
 39 41  2  0
 41 42  1  0
 41  2  1  0
 38  7  1  0
 38 10  1  0
 34 13  1  0
M  END
>  <cnnaffinity>  (1) 
-5.16997

>  <filename>  (1) 
CN(C)C1CCN(c2nn3c(-c4cccnc4)nnc3s2)CC1

$$$$
