
     RDKit          3D

 41 44  0  0  0  0  0  0  0  0999 V2000
    4.9538    1.8159   16.9661 H   0  0  0  0  0  0  0  0  0  0  0  0
    5.3991    1.2940   17.8116 C   0  0  0  0  0  0  0  0  0  0  0  0
    6.5498    0.6531   17.5653 N   0  0  0  0  0  0  0  0  0  0  0  0
    7.1543    0.0267   18.5792 C   0  0  0  0  0  0  0  0  0  0  0  0
    8.0961   -0.4591   18.3418 H   0  0  0  0  0  0  0  0  0  0  0  0
    6.6511    0.0128   19.8902 C   0  0  0  0  0  0  0  0  0  0  0  0
    7.3993   -0.6404   20.9658 C   0  0  0  0  0  0  0  0  0  0  0  0
    8.1689   -1.7620   20.7556 N   0  0  0  0  0  0  0  0  0  0  0  0
    8.5604   -2.0925   21.9528 C   0  0  0  0  0  0  0  0  0  0  0  0
    9.6099   -3.3034   22.6069 S   0  0  0  0  0  0  0  0  0  0  0  0
    9.5425   -2.5597   24.1879 C   0  0  0  0  0  0  0  0  0  0  0  0
   10.1488   -2.9989   24.9664 H   0  0  0  0  0  0  0  0  0  0  0  0
    8.7255   -1.4936   24.2122 C   0  0  0  0  0  0  0  0  0  0  0  0
    8.4983   -0.8203   25.0343 H   0  0  0  0  0  0  0  0  0  0  0  0
    8.1378   -1.2693   22.9595 N   0  0  0  0  0  0  0  0  0  0  0  0
    7.3965   -0.2842   22.3235 C   0  0  0  0  0  0  0  0  0  0  0  0
    6.9816    0.8315   22.9861 N   0  0  0  0  0  0  0  0  0  0  0  0
    6.0672    0.8196   24.1203 C   0  0  0  0  0  0  0  0  0  0  0  0
    5.0553    0.5039   23.8232 H   0  0  0  0  0  0  0  0  0  0  0  0
    6.3793    0.0952   24.8874 H   0  0  0  0  0  0  0  0  0  0  0  0
    6.0784    2.2829   24.5787 C   0  0  0  0  0  0  0  0  0  0  0  0
    6.8120    2.4241   25.3803 H   0  0  0  0  0  0  0  0  0  0  0  0
    5.0967    2.6023   24.9442 H   0  0  0  0  0  0  0  0  0  0  0  0
    6.5178    3.1162   23.3551 C   0  0  1  0  0  0  0  0  0  0  0  0
    5.6321    3.3240   22.7214 H   0  0  0  0  0  0  0  0  0  0  0  0
    7.1829    4.3682   23.7244 N   0  0  0  0  0  0  0  0  0  0  0  0
    6.3448    5.2173   24.5618 C   0  0  0  0  0  0  0  0  0  0  0  0
    5.3907    5.5116   24.0786 H   0  0  0  0  0  0  0  0  0  0  0  0
    6.8963    6.1305   24.8144 H   0  0  0  0  0  0  0  0  0  0  0  0
    6.1053    4.7104   25.5039 H   0  0  0  0  0  0  0  0  0  0  0  0
    7.6762    5.0997   22.5595 C   0  0  0  0  0  0  0  0  0  0  0  0
    6.8736    5.3816   21.8487 H   0  0  0  0  0  0  0  0  0  0  0  0
    8.1806    6.0147   22.8924 H   0  0  0  0  0  0  0  0  0  0  0  0
    8.4158    4.5027   22.0139 H   0  0  0  0  0  0  0  0  0  0  0  0
    7.4219    2.1561   22.5688 C   0  0  0  0  0  0  0  0  0  0  0  0
    8.4872    2.3260   22.8049 H   0  0  0  0  0  0  0  0  0  0  0  0
    7.3151    2.2841   21.4818 H   0  0  0  0  0  0  0  0  0  0  0  0
    5.4289    0.6688   20.1278 C   0  0  0  0  0  0  0  0  0  0  0  0
    4.9971    0.6818   21.1322 H   0  0  0  0  0  0  0  0  0  0  0  0
    4.7907    1.3154   19.0718 C   0  0  0  0  0  0  0  0  0  0  0  0
    3.8585    1.8495   19.2125 H   0  0  0  0  0  0  0  0  0  0  0  0
  1  2  1  0
  2  3  2  0
  3  4  1  0
  4  5  1  0
  4  6  2  0
  6  7  1  0
  7  8  1  0
  8  9  2  0
  9 10  1  0
 10 11  1  0
 11 12  1  0
 11 13  2  0
 13 14  1  0
 13 15  1  0
 15 16  1  0
 16 17  1  0
 17 18  1  0
 18 19  1  0
 18 20  1  0
 18 21  1  0
 21 22  1  0
 21 23  1  0
 21 24  1  0
 24 25  1  6
 24 26  1  0
 26 27  1  0
 27 28  1  0
 27 29  1  0
 27 30  1  0
 26 31  1  0
 31 32  1  0
 31 33  1  0
 31 34  1  0
 24 35  1  0
 35 36  1  0
 35 37  1  0
  6 38  1  0
 38 39  1  0
 38 40  2  0
 40 41  1  0
 40  2  1  0
 16  7  2  0
 35 17  1  0
 15  9  1  0
M  END
>  <cnnaffinity>  (1) 
-5.64418

>  <filename>  (1) 
CN(C)[C@@H]1CCN(c2c(-c3cccnc3)nc3sccn23)C1

$$$$
