
     RDKit          3D

 34 35  0  0  0  0  0  0  0  0999 V2000
    4.9231    1.8297   16.9531 H   0  0  0  0  0  0  0  0  0  0  0  0
    5.3775    1.3101   17.7952 C   0  0  0  0  0  0  0  0  0  0  0  0
    6.5367    0.6858   17.5427 N   0  0  0  0  0  0  0  0  0  0  0  0
    7.1493    0.0695   18.5648 C   0  0  0  0  0  0  0  0  0  0  0  0
    8.1044   -0.3852   18.3037 H   0  0  0  0  0  0  0  0  0  0  0  0
    6.6480    0.0089   19.8870 C   0  0  0  0  0  0  0  0  0  0  0  0
    7.3549   -0.7983   20.9917 C   0  0  2  0  0  0  0  0  0  0  0  0
    6.7643   -2.2428   20.9520 C   0  0  0  0  0  0  0  0  0  0  0  0
    6.9100   -2.5984   19.9204 H   0  0  0  0  0  0  0  0  0  0  0  0
    5.6752   -2.1285   21.0844 H   0  0  0  0  0  0  0  0  0  0  0  0
    7.3016   -3.1913   21.9293 N   0  0  0  0  0  0  0  0  0  0  0  0
    8.1013   -4.2544   21.3424 C   0  0  0  0  0  0  0  0  0  0  0  0
    8.9019   -3.8087   20.7463 H   0  0  0  0  0  0  0  0  0  0  0  0
    7.5237   -4.9432   20.6940 H   0  0  0  0  0  0  0  0  0  0  0  0
    8.5626   -4.8536   22.1359 H   0  0  0  0  0  0  0  0  0  0  0  0
    6.3138   -3.7172   22.8591 C   0  0  0  0  0  0  0  0  0  0  0  0
    5.7902   -2.8898   23.3531 H   0  0  0  0  0  0  0  0  0  0  0  0
    5.5576   -4.3623   22.3744 H   0  0  0  0  0  0  0  0  0  0  0  0
    6.8274   -4.3040   23.6291 H   0  0  0  0  0  0  0  0  0  0  0  0
    7.1836   -0.1974   22.4200 C   0  0  0  0  0  0  0  0  0  0  0  0
    7.1212    0.9035   22.3449 H   0  0  0  0  0  0  0  0  0  0  0  0
    6.2622   -0.5377   22.9122 H   0  0  0  0  0  0  0  0  0  0  0  0
    8.3477   -0.5833   23.2163 N   0  0  0  0  0  0  0  0  0  0  0  0
    8.1208   -1.4357   23.7168 H   0  0  0  0  0  0  0  0  0  0  0  0
    9.4580   -0.9017   22.3094 C   0  0  0  0  0  0  0  0  0  0  0  0
    9.8192   -1.9190   22.5126 H   0  0  0  0  0  0  0  0  0  0  0  0
   10.3172   -0.2377   22.4923 H   0  0  0  0  0  0  0  0  0  0  0  0
    8.9085   -0.7613   20.8723 C   0  0  0  0  0  0  0  0  0  0  0  0
    9.1968    0.2149   20.4577 H   0  0  0  0  0  0  0  0  0  0  0  0
    9.3064   -1.5343   20.1987 H   0  0  0  0  0  0  0  0  0  0  0  0
    5.4211    0.6616   20.1095 C   0  0  0  0  0  0  0  0  0  0  0  0
    4.9735    0.6783   21.1036 H   0  0  0  0  0  0  0  0  0  0  0  0
    4.7786    1.3214   19.0573 C   0  0  0  0  0  0  0  0  0  0  0  0
    3.8493    1.8619   19.2117 H   0  0  0  0  0  0  0  0  0  0  0  0
  1  2  1  0
  2  3  2  0
  3  4  1  0
  4  5  1  0
  4  6  2  0
  6  7  1  0
  7  8  1  1
  8  9  1  0
  8 10  1  0
  8 11  1  0
 11 12  1  0
 12 13  1  0
 12 14  1  0
 12 15  1  0
 11 16  1  0
 16 17  1  0
 16 18  1  0
 16 19  1  0
  7 20  1  0
 20 21  1  0
 20 22  1  0
 20 23  1  0
 23 24  1  0
 23 25  1  0
 25 26  1  0
 25 27  1  0
 25 28  1  0
 28 29  1  0
 28 30  1  0
  6 31  1  0
 31 32  1  0
 31 33  2  0
 33 34  1  0
 33  2  1  0
 28  7  1  0
M  END
>  <cnnaffinity>  (1) 
-3.99224

>  <filename>  (1) 
CN(C)C[C@]1(c2cccnc2)CCNC1

$$$$
