
     RDKit          3D

 37 38  0  0  0  0  0  0  0  0999 V2000
    5.0809    1.7039   16.8236 H   0  0  0  0  0  0  0  0  0  0  0  0
    5.4930    1.2635   17.7289 C   0  0  0  0  0  0  0  0  0  0  0  0
    6.5575    0.4646   17.5631 N   0  0  0  0  0  0  0  0  0  0  0  0
    7.0723   -0.1067   18.6615 C   0  0  0  0  0  0  0  0  0  0  0  0
    7.9253   -0.7631   18.5015 H   0  0  0  0  0  0  0  0  0  0  0  0
    6.5882    0.1185   19.9805 C   0  0  0  0  0  0  0  0  0  0  0  0
    7.1314   -0.5146   21.1447 N   0  0  0  0  0  0  0  0  0  0  0  0
    7.5912   -1.9021   21.0596 C   0  0  0  0  0  0  0  0  0  0  0  0
    8.6801   -1.9661   20.9343 H   0  0  0  0  0  0  0  0  0  0  0  0
    7.1026   -2.3629   20.1957 H   0  0  0  0  0  0  0  0  0  0  0  0
    7.2958   -2.4673   21.9469 H   0  0  0  0  0  0  0  0  0  0  0  0
    7.5489    0.3321   22.5411 S   0  0  0  0  0  0  0  0  0  0  0  0
    7.1865    1.7310   22.3795 O   0  0  0  0  0  0  0  0  0  0  0  0
    7.0698   -0.4434   23.6689 O   0  0  0  0  0  0  0  0  0  0  0  0
    9.4409    0.3478   22.5043 C   0  0  0  0  0  0  0  0  0  0  0  0
    9.5636    0.8894   21.5629 H   0  0  0  0  0  0  0  0  0  0  0  0
    9.6462    1.0481   23.3218 H   0  0  0  0  0  0  0  0  0  0  0  0
   10.3920   -0.7996   22.5026 N   0  0  0  0  0  0  0  0  0  0  0  0
   10.5175   -1.2019   23.4338 H   0  0  0  0  0  0  0  0  0  0  0  0
   11.7268   -0.4791   21.9794 C   0  0  0  0  0  0  0  0  0  0  0  0
   11.5759    0.0746   21.0417 H   0  0  0  0  0  0  0  0  0  0  0  0
   12.6366    0.3240   22.9368 C   0  0  0  0  0  0  0  0  0  0  0  0
   12.3882    0.0373   23.9688 H   0  0  0  0  0  0  0  0  0  0  0  0
   12.4488    1.4012   22.8608 H   0  0  0  0  0  0  0  0  0  0  0  0
   14.0979   -0.0714   22.6034 C   0  0  0  0  0  0  0  0  0  0  0  0
   14.6313   -0.3568   23.5157 H   0  0  0  0  0  0  0  0  0  0  0  0
   14.6551    0.7711   22.1808 H   0  0  0  0  0  0  0  0  0  0  0  0
   14.0084   -1.2591   21.6094 C   0  0  0  0  0  0  0  0  0  0  0  0
   14.2948   -0.9411   20.6001 H   0  0  0  0  0  0  0  0  0  0  0  0
   14.6840   -2.0723   21.8715 H   0  0  0  0  0  0  0  0  0  0  0  0
   12.5448   -1.7307   21.6571 C   0  0  0  0  0  0  0  0  0  0  0  0
   12.2157   -2.2090   20.7300 H   0  0  0  0  0  0  0  0  0  0  0  0
   12.4094   -2.4647   22.4632 H   0  0  0  0  0  0  0  0  0  0  0  0
    5.4698    0.9425   20.1270 C   0  0  0  0  0  0  0  0  0  0  0  0
    5.0623    1.0996   21.1254 H   0  0  0  0  0  0  0  0  0  0  0  0
    4.9166    1.5206   18.9787 C   0  0  0  0  0  0  0  0  0  0  0  0
    4.0624    2.1814   19.0493 H   0  0  0  0  0  0  0  0  0  0  0  0
  1  2  1  0
  2  3  2  0
  3  4  1  0
  4  5  1  0
  4  6  2  0
  6  7  1  0
  7  8  1  0
  8  9  1  0
  8 10  1  0
  8 11  1  0
  7 12  1  0
 12 13  2  0
 12 14  2  0
 12 15  1  0
 15 16  1  0
 15 17  1  0
 15 18  1  0
 18 19  1  0
 18 20  1  0
 20 21  1  0
 20 22  1  0
 22 23  1  0
 22 24  1  0
 22 25  1  0
 25 26  1  0
 25 27  1  0
 25 28  1  0
 28 29  1  0
 28 30  1  0
 28 31  1  0
 31 32  1  0
 31 33  1  0
  6 34  1  0
 34 35  1  0
 34 36  2  0
 36 37  1  0
 36  2  1  0
 31 20  1  0
M  END
>  <cnnaffinity>  (1) 
-5.06672

>  <filename>  (1) 
CN(c1cccnc1)S(=O)(=O)CNC1CCCC1

$$$$
