
     RDKit          3D

 43 44  0  0  0  0  0  0  0  0999 V2000
    4.9818    1.7690   17.0157 H   0  0  0  0  0  0  0  0  0  0  0  0
    5.4368    1.2694   17.8679 C   0  0  0  0  0  0  0  0  0  0  0  0
    6.5902    0.6304   17.6252 N   0  0  0  0  0  0  0  0  0  0  0  0
    7.1764   -0.0033   18.6383 C   0  0  0  0  0  0  0  0  0  0  0  0
    8.1323   -0.4833   18.4251 H   0  0  0  0  0  0  0  0  0  0  0  0
    6.6169   -0.0153   19.9043 C   0  0  0  0  0  0  0  0  0  0  0  0
    7.4567   -0.9212   21.1422 S   0  0  0  0  0  0  0  0  0  0  0  0
    6.4362   -1.2954   22.1212 O   0  0  0  0  0  0  0  0  0  0  0  0
    8.2124   -1.9610   20.4552 O   0  0  0  0  0  0  0  0  0  0  0  0
    8.7736    0.2712   21.9610 C   0  0  0  0  0  0  0  0  0  0  0  0
    8.1929    1.5017   22.4692 N   0  0  0  0  0  0  0  0  0  0  0  0
    7.1057    1.4418   23.4531 C   0  0  0  0  0  0  0  0  0  0  0  0
    7.0180    0.4397   23.8931 H   0  0  0  0  0  0  0  0  0  0  0  0
    6.1392    1.6225   22.9594 H   0  0  0  0  0  0  0  0  0  0  0  0
    7.4488    2.5163   24.4857 C   0  0  0  0  0  0  0  0  0  0  0  0
    6.5530    2.9667   24.9283 H   0  0  0  0  0  0  0  0  0  0  0  0
    8.0500    2.0850   25.2960 H   0  0  0  0  0  0  0  0  0  0  0  0
    8.3190    3.5378   23.7345 C   0  0  1  0  0  0  0  0  0  0  0  0
    7.6579    4.2299   23.1716 H   0  0  0  0  0  0  0  0  0  0  0  0
    9.2215    4.3058   24.6066 N   0  0  0  0  0  0  0  0  0  0  0  0
   10.0826    5.1942   23.8315 C   0  0  0  0  0  0  0  0  0  0  0  0
   10.7233    4.6141   23.1585 H   0  0  0  0  0  0  0  0  0  0  0  0
    9.5137    5.9200   23.2196 H   0  0  0  0  0  0  0  0  0  0  0  0
   10.7390    5.7510   24.5073 H   0  0  0  0  0  0  0  0  0  0  0  0
    8.4916    5.0395   25.6311 C   0  0  0  0  0  0  0  0  0  0  0  0
    7.7541    5.7500   25.2111 H   0  0  0  0  0  0  0  0  0  0  0  0
    9.1991    5.6029   26.2471 H   0  0  0  0  0  0  0  0  0  0  0  0
    7.9615    4.3478   26.2943 H   0  0  0  0  0  0  0  0  0  0  0  0
    9.0709    2.6500   22.7211 C   0  0  0  0  0  0  0  0  0  0  0  0
   10.0484    2.3704   23.1577 H   0  0  0  0  0  0  0  0  0  0  0  0
    9.2838    3.1930   21.7905 H   0  0  0  0  0  0  0  0  0  0  0  0
    9.4590   -0.5332   23.0853 C   0  0  0  0  0  0  0  0  0  0  0  0
   10.1640    0.1252   23.6089 H   0  0  0  0  0  0  0  0  0  0  0  0
   10.0200   -1.3700   22.6568 H   0  0  0  0  0  0  0  0  0  0  0  0
    8.7313   -0.9183   23.8076 H   0  0  0  0  0  0  0  0  0  0  0  0
    9.7833    0.5524   20.8493 C   0  0  0  0  0  0  0  0  0  0  0  0
    9.2932    1.1289   20.0711 H   0  0  0  0  0  0  0  0  0  0  0  0
   10.6434    1.1094   21.2306 H   0  0  0  0  0  0  0  0  0  0  0  0
   10.1426   -0.3899   20.4327 H   0  0  0  0  0  0  0  0  0  0  0  0
    5.4195    0.6385   20.1852 C   0  0  0  0  0  0  0  0  0  0  0  0
    4.9700    0.6237   21.1803 H   0  0  0  0  0  0  0  0  0  0  0  0
    4.8202    1.3020   19.1225 C   0  0  0  0  0  0  0  0  0  0  0  0
    3.8906    1.8408   19.2532 H   0  0  0  0  0  0  0  0  0  0  0  0
  1  2  1  0
  2  3  2  0
  3  4  1  0
  4  5  1  0
  4  6  2  0
  6  7  1  0
  7  8  2  0
  7  9  2  0
  7 10  1  0
 10 11  1  0
 11 12  1  0
 12 13  1  0
 12 14  1  0
 12 15  1  0
 15 16  1  0
 15 17  1  0
 15 18  1  0
 18 19  1  6
 18 20  1  0
 20 21  1  0
 21 22  1  0
 21 23  1  0
 21 24  1  0
 20 25  1  0
 25 26  1  0
 25 27  1  0
 25 28  1  0
 18 29  1  0
 29 30  1  0
 29 31  1  0
 10 32  1  0
 32 33  1  0
 32 34  1  0
 32 35  1  0
 10 36  1  0
 36 37  1  0
 36 38  1  0
 36 39  1  0
  6 40  1  0
 40 41  1  0
 40 42  2  0
 42 43  1  0
 42  2  1  0
 29 11  1  0
M  END
>  <cnnaffinity>  (1) 
-4.76276

>  <filename>  (1) 
CN(C)[C@@H]1CCN(C(C)(C)S(=O)(=O)c2cccnc2)C1

$$$$
