
     RDKit          3D

 39 41  0  0  0  0  0  0  0  0999 V2000
    4.9162    1.7919   16.9866 H   0  0  0  0  0  0  0  0  0  0  0  0
    5.3962    1.2994   17.8289 C   0  0  0  0  0  0  0  0  0  0  0  0
    6.5609    0.6850   17.5655 N   0  0  0  0  0  0  0  0  0  0  0  0
    7.1834    0.0788   18.5842 C   0  0  0  0  0  0  0  0  0  0  0  0
    8.1239   -0.4229   18.3555 H   0  0  0  0  0  0  0  0  0  0  0  0
    6.6696    0.0272   19.8949 C   0  0  0  0  0  0  0  0  0  0  0  0
    7.3696   -0.6703   20.9440 N   0  0  0  0  0  0  0  0  0  0  0  0
    8.6663   -0.2736   21.2900 C   0  0  0  0  0  0  0  0  0  0  0  0
    9.0564    0.5725   20.7261 H   0  0  0  0  0  0  0  0  0  0  0  0
    9.3809   -0.8583   22.2923 C   0  0  0  0  0  0  0  0  0  0  0  0
   10.6727   -0.4114   22.6427 N   0  0  0  0  0  0  0  0  0  0  0  0
   11.7577   -0.6012   21.7062 C   0  0  0  0  0  0  0  0  0  0  0  0
   11.5332   -0.1330   20.7408 H   0  0  0  0  0  0  0  0  0  0  0  0
   11.9239   -1.6721   21.5234 H   0  0  0  0  0  0  0  0  0  0  0  0
   12.6787   -0.1589   22.1059 H   0  0  0  0  0  0  0  0  0  0  0  0
   10.8177    0.3523   23.8791 C   0  0  0  0  0  0  0  0  0  0  0  0
   11.8859    0.4290   24.1279 H   0  0  0  0  0  0  0  0  0  0  0  0
   10.3358   -0.2277   24.6791 H   0  0  0  0  0  0  0  0  0  0  0  0
   10.1961    1.7356   23.7682 C   0  0  0  0  0  0  0  0  0  0  0  0
   10.9102    2.7720   23.1483 C   0  0  0  0  0  0  0  0  0  0  0  0
   11.9285    2.5938   22.8021 H   0  0  0  0  0  0  0  0  0  0  0  0
   10.3198    4.0202   22.9415 C   0  0  0  0  0  0  0  0  0  0  0  0
   10.8888    4.8091   22.4556 H   0  0  0  0  0  0  0  0  0  0  0  0
    8.9989    4.2436   23.3430 C   0  0  0  0  0  0  0  0  0  0  0  0
    8.5389    5.2146   23.1791 H   0  0  0  0  0  0  0  0  0  0  0  0
    8.2700    3.2152   23.9481 C   0  0  0  0  0  0  0  0  0  0  0  0
    7.2377    3.3773   24.2513 H   0  0  0  0  0  0  0  0  0  0  0  0
    8.8649    1.9672   24.1570 C   0  0  0  0  0  0  0  0  0  0  0  0
    8.2811    1.1611   24.6034 H   0  0  0  0  0  0  0  0  0  0  0  0
    8.7245   -1.9868   23.0447 C   0  0  0  0  0  0  0  0  0  0  0  0
    9.1510   -2.6477   23.9704 O   0  0  0  0  0  0  0  0  0  0  0  0
    7.4687   -2.3001   22.6001 N   0  0  0  0  0  0  0  0  0  0  0  0
    7.0213   -3.0478   23.0866 H   0  0  0  0  0  0  0  0  0  0  0  0
    6.7294   -1.7386   21.6155 C   0  0  0  0  0  0  0  0  0  0  0  0
    5.6358   -2.1891   21.3710 O   0  0  0  0  0  0  0  0  0  0  0  0
    5.4461    0.6529   20.1549 C   0  0  0  0  0  0  0  0  0  0  0  0
    5.0162    0.6118   21.1544 H   0  0  0  0  0  0  0  0  0  0  0  0
    4.8107    1.3145   19.0995 C   0  0  0  0  0  0  0  0  0  0  0  0
    3.8769    1.8403   19.2522 H   0  0  0  0  0  0  0  0  0  0  0  0
  1  2  1  0
  2  3  2  0
  3  4  1  0
  4  5  1  0
  4  6  2  0
  6  7  1  0
  7  8  1  0
  8  9  1  0
  8 10  2  0
 10 11  1  0
 11 12  1  0
 12 13  1  0
 12 14  1  0
 12 15  1  0
 11 16  1  0
 16 17  1  0
 16 18  1  0
 16 19  1  0
 19 20  2  0
 20 21  1  0
 20 22  1  0
 22 23  1  0
 22 24  2  0
 24 25  1  0
 24 26  1  0
 26 27  1  0
 26 28  2  0
 28 29  1  0
 10 30  1  0
 30 31  2  0
 30 32  1  0
 32 33  1  0
 32 34  1  0
 34 35  2  0
  6 36  1  0
 36 37  1  0
 36 38  2  0
 38 39  1  0
 38  2  1  0
 34  7  1  0
 28 19  1  0
M  END
>  <cnnaffinity>  (1) 
-5.3289

>  <filename>  (1) 
CN(Cc1ccccc1)c1cn(-c2cccnc2)c(=O)[nH]c1=O

$$$$
