
     RDKit          3D

 34 35  0  0  0  0  0  0  0  0999 V2000
    5.0302    1.9005   17.0444 H   0  0  0  0  0  0  0  0  0  0  0  0
    5.4850    1.3059   17.8370 C   0  0  0  0  0  0  0  0  0  0  0  0
    6.6434    0.6987   17.5369 N   0  0  0  0  0  0  0  0  0  0  0  0
    7.2396   -0.0125   18.5055 C   0  0  0  0  0  0  0  0  0  0  0  0
    8.1860   -0.4814   18.2428 H   0  0  0  0  0  0  0  0  0  0  0  0
    6.7021   -0.1878   19.8007 C   0  0  0  0  0  0  0  0  0  0  0  0
    7.3719   -0.9279   20.8121 N   0  0  0  0  0  0  0  0  0  0  0  0
    6.7405   -1.8501   21.6314 C   0  0  0  0  0  0  0  0  0  0  0  0
    5.6458   -2.3453   21.5318 O   0  0  0  0  0  0  0  0  0  0  0  0
    7.6466   -2.1784   22.6133 N   0  0  0  0  0  0  0  0  0  0  0  0
    7.4612   -2.9555   23.2130 H   0  0  0  0  0  0  0  0  0  0  0  0
    8.8982   -1.6978   22.3783 C   0  0  0  0  0  0  0  0  0  0  0  0
    9.8917   -2.0693   22.9532 O   0  0  0  0  0  0  0  0  0  0  0  0
    8.7643   -0.7040   21.2082 C   0  0  2  0  0  0  0  0  0  0  0  0
    9.4564   -1.0570   20.4265 H   0  0  0  0  0  0  0  0  0  0  0  0
    9.0562    0.7778   21.5169 C   0  0  0  0  0  0  0  0  0  0  0  0
    8.8800    1.3680   20.6066 H   0  0  0  0  0  0  0  0  0  0  0  0
    8.3439    1.1494   22.2646 H   0  0  0  0  0  0  0  0  0  0  0  0
   10.4965    0.9980   21.9842 C   0  0  0  0  0  0  0  0  0  0  0  0
   11.1669    0.4926   21.2724 H   0  0  0  0  0  0  0  0  0  0  0  0
   10.6367    0.4759   22.9460 H   0  0  0  0  0  0  0  0  0  0  0  0
   10.8567    2.4096   22.0712 N   0  0  0  0  0  0  0  0  0  0  0  0
   10.6806    2.9726   23.3984 C   0  0  0  0  0  0  0  0  0  0  0  0
   11.3460    2.5309   24.1674 H   0  0  0  0  0  0  0  0  0  0  0  0
   10.8653    4.0521   23.3717 H   0  0  0  0  0  0  0  0  0  0  0  0
    9.6464    2.8214   23.7163 H   0  0  0  0  0  0  0  0  0  0  0  0
   12.1534    2.7363   21.5001 C   0  0  0  0  0  0  0  0  0  0  0  0
   12.1478    2.5123   20.4304 H   0  0  0  0  0  0  0  0  0  0  0  0
   12.3469    3.8086   21.5977 H   0  0  0  0  0  0  0  0  0  0  0  0
   13.0105    2.2037   21.9550 H   0  0  0  0  0  0  0  0  0  0  0  0
    5.4840    0.4368   20.0893 C   0  0  0  0  0  0  0  0  0  0  0  0
    5.0445    0.3163   21.0812 H   0  0  0  0  0  0  0  0  0  0  0  0
    4.8755    1.2098   19.0942 C   0  0  0  0  0  0  0  0  0  0  0  0
    3.9524    1.7468   19.2874 H   0  0  0  0  0  0  0  0  0  0  0  0
  1  2  1  0
  2  3  2  0
  3  4  1  0
  4  5  1  0
  4  6  2  0
  6  7  1  0
  7  8  1  0
  8  9  2  0
  8 10  1  0
 10 11  1  0
 10 12  1  0
 12 13  2  0
 12 14  1  0
 14 15  1  6
 14 16  1  0
 16 17  1  0
 16 18  1  0
 16 19  1  0
 19 20  1  0
 19 21  1  0
 19 22  1  0
 22 23  1  0
 23 24  1  0
 23 25  1  0
 23 26  1  0
 22 27  1  0
 27 28  1  0
 27 29  1  0
 27 30  1  0
  6 31  1  0
 31 32  1  0
 31 33  2  0
 33 34  1  0
 33  2  1  0
 14  7  1  0
M  END
>  <cnnaffinity>  (1) 
-4.31651

>  <filename>  (1) 
CN(C)CC[C@H]1C(=O)NC(=O)N1c1cccnc1

$$$$
