
     RDKit          3D

 37 40  0  0  0  0  0  0  0  0999 V2000
    4.9554    1.7952   16.9759 H   0  0  0  0  0  0  0  0  0  0  0  0
    5.4135    1.2904   17.8239 C   0  0  0  0  0  0  0  0  0  0  0  0
    6.5652    0.6471   17.5754 N   0  0  0  0  0  0  0  0  0  0  0  0
    7.1494    0.0282   18.6003 C   0  0  0  0  0  0  0  0  0  0  0  0
    8.0819   -0.4996   18.3998 H   0  0  0  0  0  0  0  0  0  0  0  0
    6.6324    0.0317   19.9065 C   0  0  0  0  0  0  0  0  0  0  0  0
    7.4084   -0.6714   20.9263 C   0  0  0  0  0  0  0  0  0  0  0  0
    8.3097   -1.5972   20.6928 N   0  0  0  0  0  0  0  0  0  0  0  0
    8.8385   -2.0234   21.8904 N   0  0  0  0  0  0  0  0  0  0  0  0
    8.2434   -1.3134   22.8096 C   0  0  0  0  0  0  0  0  0  0  0  0
    8.3524   -1.0390   24.5215 S   0  0  0  0  0  0  0  0  0  0  0  0
    7.1143    0.2393   24.3270 C   0  0  0  0  0  0  0  0  0  0  0  0
    6.6777    1.0067   25.3703 N   0  0  0  0  0  0  0  0  0  0  0  0
    5.6395    1.9995   25.0850 C   0  0  0  0  0  0  0  0  0  0  0  0
    5.3360    2.5187   26.0031 H   0  0  0  0  0  0  0  0  0  0  0  0
    4.7532    1.5317   24.6366 H   0  0  0  0  0  0  0  0  0  0  0  0
    6.0194    2.7550   24.3876 H   0  0  0  0  0  0  0  0  0  0  0  0
    6.9561    0.6033   26.7585 C   0  0  0  0  0  0  0  0  0  0  0  0
    6.7121    1.4392   27.4252 H   0  0  0  0  0  0  0  0  0  0  0  0
    8.0336    0.4403   26.8803 H   0  0  0  0  0  0  0  0  0  0  0  0
    6.1910   -0.6346   27.2033 C   0  0  0  0  0  0  0  0  0  0  0  0
    4.8283   -0.5641   27.5217 C   0  0  0  0  0  0  0  0  0  0  0  0
    4.2913    0.3801   27.4183 H   0  0  0  0  0  0  0  0  0  0  0  0
    4.1230   -1.7024   27.9210 C   0  0  0  0  0  0  0  0  0  0  0  0
    3.0757   -1.6248   28.2080 H   0  0  0  0  0  0  0  0  0  0  0  0
    4.7588   -2.9478   27.9362 C   0  0  0  0  0  0  0  0  0  0  0  0
    4.2048   -3.8483   28.1993 H   0  0  0  0  0  0  0  0  0  0  0  0
    6.1103   -3.0357   27.5971 C   0  0  0  0  0  0  0  0  0  0  0  0
    6.6193   -3.9998   27.5700 H   0  0  0  0  0  0  0  0  0  0  0  0
    6.8296   -1.8841   27.2815 C   0  0  0  0  0  0  0  0  0  0  0  0
    7.8908   -1.9709   27.0555 H   0  0  0  0  0  0  0  0  0  0  0  0
    6.6934    0.4312   23.1071 N   0  0  0  0  0  0  0  0  0  0  0  0
    7.3247   -0.4629   22.2833 N   0  0  0  0  0  0  0  0  0  0  0  0
    5.4226    0.6972   20.1601 C   0  0  0  0  0  0  0  0  0  0  0  0
    4.9928    0.7285   21.1639 H   0  0  0  0  0  0  0  0  0  0  0  0
    4.8035    1.3269   19.0831 C   0  0  0  0  0  0  0  0  0  0  0  0
    3.8615    1.8486   19.2024 H   0  0  0  0  0  0  0  0  0  0  0  0
  1  2  1  0
  2  3  2  0
  3  4  1  0
  4  5  1  0
  4  6  2  0
  6  7  1  0
  7  8  2  0
  8  9  1  0
  9 10  2  0
 10 11  1  0
 11 12  1  0
 12 13  1  0
 13 14  1  0
 14 15  1  0
 14 16  1  0
 14 17  1  0
 13 18  1  0
 18 19  1  0
 18 20  1  0
 18 21  1  0
 21 22  2  0
 22 23  1  0
 22 24  1  0
 24 25  1  0
 24 26  2  0
 26 27  1  0
 26 28  1  0
 28 29  1  0
 28 30  2  0
 30 31  1  0
 12 32  2  0
 32 33  1  0
  6 34  1  0
 34 35  1  0
 34 36  2  0
 36 37  1  0
 36  2  1  0
 33  7  1  0
 33 10  1  0
 30 21  1  0
M  END
>  <cnnaffinity>  (1) 
-5.32158

>  <filename>  (1) 
CN(Cc1ccccc1)c1nn2c(-c3cccnc3)nnc2s1

$$$$
