
     RDKit          3D

 45 47  0  0  0  0  0  0  0  0999 V2000
    4.8281    1.7912   16.6971 H   0  0  0  0  0  0  0  0  0  0  0  0
    5.3409    1.3858   17.5618 C   0  0  0  0  0  0  0  0  0  0  0  0
    6.4562    0.6820   17.3069 N   0  0  0  0  0  0  0  0  0  0  0  0
    7.1199    0.1782   18.3560 C   0  0  0  0  0  0  0  0  0  0  0  0
    8.0261   -0.3852   18.1274 H   0  0  0  0  0  0  0  0  0  0  0  0
    6.7367    0.3499   19.7142 C   0  0  0  0  0  0  0  0  0  0  0  0
    7.5002   -0.1833   20.7646 N   0  0  0  0  0  0  0  0  0  0  0  0
    7.5574    0.4129   22.0935 C   0  0  0  0  0  0  0  0  0  0  0  0
    7.0556    1.3850   22.0842 H   0  0  0  0  0  0  0  0  0  0  0  0
    8.6086    0.6152   22.3435 H   0  0  0  0  0  0  0  0  0  0  0  0
    6.9630   -0.4823   23.2045 C   0  0  0  0  0  0  0  0  0  0  0  0
    5.9118   -0.2353   23.3479 H   0  0  0  0  0  0  0  0  0  0  0  0
    7.4694   -0.2308   24.1504 H   0  0  0  0  0  0  0  0  0  0  0  0
    7.0728   -1.9294   22.9247 N   0  0  0  0  0  0  0  0  0  0  0  0
    6.9563   -2.7029   24.0665 N   0  0  0  0  0  0  0  0  0  0  0  0
    6.1732   -3.9293   23.9460 C   0  0  0  0  0  0  0  0  0  0  0  0
    5.1325   -3.7101   23.6779 H   0  0  0  0  0  0  0  0  0  0  0  0
    6.5934   -4.5810   23.1622 H   0  0  0  0  0  0  0  0  0  0  0  0
    6.3450   -4.5394   25.3389 C   0  0  0  0  0  0  0  0  0  0  0  0
    6.0612   -5.5918   25.4097 H   0  0  0  0  0  0  0  0  0  0  0  0
    5.7209   -3.9905   26.0480 H   0  0  0  0  0  0  0  0  0  0  0  0
    7.8370   -4.2832   25.6664 C   0  0  1  0  0  0  0  0  0  0  0  0
    7.9609   -4.1080   26.7477 H   0  0  0  0  0  0  0  0  0  0  0  0
    8.7690   -5.3792   25.3070 N   0  0  0  0  0  0  0  0  0  0  0  0
    8.7263   -6.4727   26.2629 C   0  0  0  0  0  0  0  0  0  0  0  0
    7.7096   -6.8863   26.3898 H   0  0  0  0  0  0  0  0  0  0  0  0
    9.3872   -7.2808   25.9275 H   0  0  0  0  0  0  0  0  0  0  0  0
    9.1032   -6.1443   27.2386 H   0  0  0  0  0  0  0  0  0  0  0  0
    8.6956   -5.8777   23.9346 C   0  0  0  0  0  0  0  0  0  0  0  0
    8.9569   -5.0853   23.2226 H   0  0  0  0  0  0  0  0  0  0  0  0
    7.7144   -6.2920   23.6409 H   0  0  0  0  0  0  0  0  0  0  0  0
    9.4380   -6.6777   23.8253 H   0  0  0  0  0  0  0  0  0  0  0  0
    8.1310   -2.9666   24.9063 C   0  0  0  0  0  0  0  0  0  0  0  0
    9.0441   -3.0798   24.3128 H   0  0  0  0  0  0  0  0  0  0  0  0
    8.3007   -2.1315   25.5960 H   0  0  0  0  0  0  0  0  0  0  0  0
    8.1619   -2.2680   22.0092 C   0  0  0  0  0  0  0  0  0  0  0  0
    9.1475   -1.9934   22.4232 H   0  0  0  0  0  0  0  0  0  0  0  0
    8.1614   -3.3501   21.8389 H   0  0  0  0  0  0  0  0  0  0  0  0
    7.9657   -1.5689   20.6527 C   0  0  0  0  0  0  0  0  0  0  0  0
    8.9033   -1.6183   20.0753 H   0  0  0  0  0  0  0  0  0  0  0  0
    7.2142   -2.1337   20.0903 H   0  0  0  0  0  0  0  0  0  0  0  0
    5.5509    1.0758   19.9429 C   0  0  0  0  0  0  0  0  0  0  0  0
    5.1930    1.2020   20.9629 H   0  0  0  0  0  0  0  0  0  0  0  0
    4.8437    1.5972   18.8543 C   0  0  0  0  0  0  0  0  0  0  0  0
    3.9408    2.1819   19.0023 H   0  0  0  0  0  0  0  0  0  0  0  0
  1  2  1  0
  2  3  2  0
  3  4  1  0
  4  5  1  0
  4  6  2  0
  6  7  1  0
  7  8  1  0
  8  9  1  0
  8 10  1  0
  8 11  1  0
 11 12  1  0
 11 13  1  0
 11 14  1  0
 14 15  1  0
 15 16  1  0
 16 17  1  0
 16 18  1  0
 16 19  1  0
 19 20  1  0
 19 21  1  0
 19 22  1  0
 22 23  1  1
 22 24  1  0
 24 25  1  0
 25 26  1  0
 25 27  1  0
 25 28  1  0
 24 29  1  0
 29 30  1  0
 29 31  1  0
 29 32  1  0
 22 33  1  0
 33 34  1  0
 33 35  1  0
 14 36  1  0
 36 37  1  0
 36 38  1  0
 36 39  1  0
 39 40  1  0
 39 41  1  0
  6 42  1  0
 42 43  1  0
 42 44  2  0
 44 45  1  0
 44  2  1  0
 39  7  1  0
 33 15  1  0
M  END
>  <cnnaffinity>  (1) 
-4.62906

>  <filename>  (1) 
CN(C)[C@@H]1CCN(N2CCN(c3cccnc3)CC2)C1

$$$$
