
     RDKit          3D

 35 36  0  0  0  0  0  0  0  0999 V2000
    4.9841    1.7925   16.9368 H   0  0  0  0  0  0  0  0  0  0  0  0
    5.4288    1.2947   17.7935 C   0  0  0  0  0  0  0  0  0  0  0  0
    6.5963    0.6689   17.5679 N   0  0  0  0  0  0  0  0  0  0  0  0
    7.1703    0.0560   18.6095 C   0  0  0  0  0  0  0  0  0  0  0  0
    8.1223   -0.4221   18.3852 H   0  0  0  0  0  0  0  0  0  0  0  0
    6.6311    0.0259   19.9138 C   0  0  0  0  0  0  0  0  0  0  0  0
    7.3151   -0.6375   21.0239 C   0  0  0  0  0  0  0  0  0  0  0  0
    7.2525   -0.4294   22.3608 C   0  0  0  0  0  0  0  0  0  0  0  0
    6.6702    0.2820   22.9337 H   0  0  0  0  0  0  0  0  0  0  0  0
    8.1380   -1.2952   22.9908 N   0  0  0  0  0  0  0  0  0  0  0  0
    8.3898   -1.1624   24.3919 N   0  0  0  0  0  0  0  0  0  0  0  0
    7.4904   -0.9480   24.8219 H   0  0  0  0  0  0  0  0  0  0  0  0
    8.9940   -2.3254   25.0619 C   0  0  0  0  0  0  0  0  0  0  0  0
    9.9598   -2.5615   24.5994 H   0  0  0  0  0  0  0  0  0  0  0  0
    9.1950   -2.0159   26.0932 H   0  0  0  0  0  0  0  0  0  0  0  0
    8.1326   -3.6044   25.0733 C   0  0  0  0  0  0  0  0  0  0  0  0
    7.8668   -3.8615   24.0436 H   0  0  0  0  0  0  0  0  0  0  0  0
    7.1816   -3.4039   25.5855 H   0  0  0  0  0  0  0  0  0  0  0  0
    8.7421   -4.7813   25.6863 N   0  0  0  0  0  0  0  0  0  0  0  0
    9.0377   -4.6916   27.1058 C   0  0  0  0  0  0  0  0  0  0  0  0
    9.2864   -5.6911   27.4776 H   0  0  0  0  0  0  0  0  0  0  0  0
    8.1545   -4.3532   27.6596 H   0  0  0  0  0  0  0  0  0  0  0  0
    9.8832   -4.0262   27.3718 H   0  0  0  0  0  0  0  0  0  0  0  0
    9.8373   -5.3441   24.9159 C   0  0  0  0  0  0  0  0  0  0  0  0
   10.0631   -6.3524   25.2815 H   0  0  0  0  0  0  0  0  0  0  0  0
    9.5187   -5.4236   23.8722 H   0  0  0  0  0  0  0  0  0  0  0  0
   10.7824   -4.7629   24.9444 H   0  0  0  0  0  0  0  0  0  0  0  0
    8.7494   -2.1171   22.0209 C   0  0  0  0  0  0  0  0  0  0  0  0
    9.4763   -3.0883   22.1237 O   0  0  0  0  0  0  0  0  0  0  0  0
    8.2804   -1.6219   20.8217 N   0  0  0  0  0  0  0  0  0  0  0  0
    8.4356   -2.1893   20.0062 H   0  0  0  0  0  0  0  0  0  0  0  0
    5.4023    0.6808   20.1154 C   0  0  0  0  0  0  0  0  0  0  0  0
    4.9344    0.6715   21.1003 H   0  0  0  0  0  0  0  0  0  0  0  0
    4.7936    1.3232   19.0393 C   0  0  0  0  0  0  0  0  0  0  0  0
    3.8524    1.8519   19.1522 H   0  0  0  0  0  0  0  0  0  0  0  0
  1  2  1  0
  2  3  2  0
  3  4  1  0
  4  5  1  0
  4  6  2  0
  6  7  1  0
  7  8  2  0
  8  9  1  0
  8 10  1  0
 10 11  1  0
 11 12  1  0
 11 13  1  0
 13 14  1  0
 13 15  1  0
 13 16  1  0
 16 17  1  0
 16 18  1  0
 16 19  1  0
 19 20  1  0
 20 21  1  0
 20 22  1  0
 20 23  1  0
 19 24  1  0
 24 25  1  0
 24 26  1  0
 24 27  1  0
 10 28  1  0
 28 29  2  0
 28 30  1  0
 30 31  1  0
  6 32  1  0
 32 33  1  0
 32 34  2  0
 34 35  1  0
 34  2  1  0
 30  7  1  0
M  END
>  <cnnaffinity>  (1) 
-4.78996

>  <filename>  (1) 
CN(C)CCNn1cc(-c2cccnc2)[nH]c1=O

$$$$
