
     RDKit          3D

 39 41  0  0  0  0  0  0  0  0999 V2000
    4.9987    1.7661   16.8656 H   0  0  0  0  0  0  0  0  0  0  0  0
    5.4544    1.2857   17.7295 C   0  0  0  0  0  0  0  0  0  0  0  0
    6.6135    0.6505   17.5087 N   0  0  0  0  0  0  0  0  0  0  0  0
    7.2129    0.0837   18.5544 C   0  0  0  0  0  0  0  0  0  0  0  0
    8.1460   -0.4263   18.3233 H   0  0  0  0  0  0  0  0  0  0  0  0
    6.7169    0.1152   19.8695 C   0  0  0  0  0  0  0  0  0  0  0  0
    7.4970   -0.4711   20.9525 C   0  0  0  0  0  0  0  0  0  0  0  0
    7.0990   -0.5173   22.1842 N   0  0  0  0  0  0  0  0  0  0  0  0
    8.0358   -1.2337   22.8804 N   0  0  0  0  0  0  0  0  0  0  0  0
    7.7905   -1.4233   24.2308 N   0  0  0  0  0  0  0  0  0  0  0  0
    8.5702   -0.5255   25.1252 C   0  0  0  0  0  0  0  0  0  0  0  0
    9.4917   -0.1957   24.6164 H   0  0  0  0  0  0  0  0  0  0  0  0
    7.9736    0.3674   25.3577 H   0  0  0  0  0  0  0  0  0  0  0  0
    8.8747   -1.3947   26.3518 C   0  0  0  0  0  0  0  0  0  0  0  0
    9.7688   -1.0886   26.9070 H   0  0  0  0  0  0  0  0  0  0  0  0
    8.0364   -1.3620   27.0548 H   0  0  0  0  0  0  0  0  0  0  0  0
    8.9847   -2.8085   25.7716 C   0  0  1  0  0  0  0  0  0  0  0  0
    9.9291   -2.8973   25.2091 H   0  0  0  0  0  0  0  0  0  0  0  0
    8.9760   -3.8370   26.8038 N   0  0  0  0  0  0  0  0  0  0  0  0
    9.6184   -5.0753   26.3917 C   0  0  0  0  0  0  0  0  0  0  0  0
   10.5882   -4.8558   25.9294 H   0  0  0  0  0  0  0  0  0  0  0  0
    9.8148   -5.6935   27.2714 H   0  0  0  0  0  0  0  0  0  0  0  0
    9.0346   -5.6801   25.6702 H   0  0  0  0  0  0  0  0  0  0  0  0
    7.6771   -4.0658   27.4253 C   0  0  0  0  0  0  0  0  0  0  0  0
    7.1720   -3.1152   27.6371 H   0  0  0  0  0  0  0  0  0  0  0  0
    6.9872   -4.6501   26.7909 H   0  0  0  0  0  0  0  0  0  0  0  0
    7.8080   -4.6169   28.3632 H   0  0  0  0  0  0  0  0  0  0  0  0
    7.8524   -2.8134   24.7163 C   0  0  0  0  0  0  0  0  0  0  0  0
    6.8855   -3.0815   25.1696 H   0  0  0  0  0  0  0  0  0  0  0  0
    8.0501   -3.5272   23.9104 H   0  0  0  0  0  0  0  0  0  0  0  0
    9.0845   -1.7197   22.0979 C   0  0  0  0  0  0  0  0  0  0  0  0
    9.9767   -2.4751   22.4258 O   0  0  0  0  0  0  0  0  0  0  0  0
    8.8508   -1.0653   20.7653 C   0  0  0  0  0  0  0  0  0  0  0  0
    8.9328   -1.7765   19.9460 H   0  0  0  0  0  0  0  0  0  0  0  0
    9.6140   -0.2953   20.6017 H   0  0  0  0  0  0  0  0  0  0  0  0
    5.4710    0.7388   20.0797 C   0  0  0  0  0  0  0  0  0  0  0  0
    5.0239    0.7552   21.0773 H   0  0  0  0  0  0  0  0  0  0  0  0
    4.8391    1.3328   18.9884 C   0  0  0  0  0  0  0  0  0  0  0  0
    3.8935    1.8537   19.0942 H   0  0  0  0  0  0  0  0  0  0  0  0
  1  2  1  0
  2  3  2  0
  3  4  1  0
  4  5  1  0
  4  6  2  0
  6  7  1  0
  7  8  2  0
  8  9  1  0
  9 10  1  0
 10 11  1  0
 11 12  1  0
 11 13  1  0
 11 14  1  0
 14 15  1  0
 14 16  1  0
 14 17  1  0
 17 18  1  6
 17 19  1  0
 19 20  1  0
 20 21  1  0
 20 22  1  0
 20 23  1  0
 19 24  1  0
 24 25  1  0
 24 26  1  0
 24 27  1  0
 17 28  1  0
 28 29  1  0
 28 30  1  0
  9 31  1  0
 31 32  2  0
 31 33  1  0
 33 34  1  0
 33 35  1  0
  6 36  1  0
 36 37  1  0
 36 38  2  0
 38 39  1  0
 38  2  1  0
 33  7  1  0
 28 10  1  0
M  END
>  <cnnaffinity>  (1) 
-4.57936

>  <filename>  (1) 
CN(C)[C@@H]1CCN(N2N=C(c3cccnc3)CC2=O)C1

$$$$
