
     RDKit          3D

 32 34  0  0  0  0  0  0  0  0999 V2000
    4.9501    1.8051   16.9773 H   0  0  0  0  0  0  0  0  0  0  0  0
    5.3981    1.2911   17.8248 C   0  0  0  0  0  0  0  0  0  0  0  0
    6.5509    0.6501   17.5770 N   0  0  0  0  0  0  0  0  0  0  0  0
    7.1554    0.0397   18.6008 C   0  0  0  0  0  0  0  0  0  0  0  0
    8.0927   -0.4620   18.3631 H   0  0  0  0  0  0  0  0  0  0  0  0
    6.6637    0.0351   19.9164 C   0  0  0  0  0  0  0  0  0  0  0  0
    7.4423   -0.6245   20.9666 C   0  0  0  0  0  0  0  0  0  0  0  0
    8.0804   -1.8292   20.7479 N   0  0  0  0  0  0  0  0  0  0  0  0
    8.5490   -2.1495   21.9267 C   0  0  0  0  0  0  0  0  0  0  0  0
    9.4142   -3.4823   22.6343 S   0  0  0  0  0  0  0  0  0  0  0  0
    9.6417   -2.5849   24.1198 C   0  0  0  0  0  0  0  0  0  0  0  0
   10.2617   -3.0224   24.8914 H   0  0  0  0  0  0  0  0  0  0  0  0
    8.9869   -1.4088   24.0991 C   0  0  0  0  0  0  0  0  0  0  0  0
    8.8820   -0.6518   24.8689 H   0  0  0  0  0  0  0  0  0  0  0  0
    8.3353   -1.1986   22.8872 N   0  0  0  0  0  0  0  0  0  0  0  0
    7.6089   -0.2041   22.2763 C   0  0  0  0  0  0  0  0  0  0  0  0
    7.2305    1.0812   22.9171 C   0  0  0  0  0  0  0  0  0  0  0  0
    6.1449    1.0841   23.0922 H   0  0  0  0  0  0  0  0  0  0  0  0
    7.7048    1.1606   23.9183 H   0  0  0  0  0  0  0  0  0  0  0  0
    7.5774    2.2046   22.0686 N   0  0  0  0  0  0  0  0  0  0  0  0
    9.0162    2.4143   22.0054 C   0  0  0  0  0  0  0  0  0  0  0  0
    9.5132    1.5039   21.6529 H   0  0  0  0  0  0  0  0  0  0  0  0
    9.4576    2.6960   22.9821 H   0  0  0  0  0  0  0  0  0  0  0  0
    9.2144    3.2116   21.2862 H   0  0  0  0  0  0  0  0  0  0  0  0
    6.8688    3.4142   22.4483 C   0  0  0  0  0  0  0  0  0  0  0  0
    7.1370    4.2211   21.7601 H   0  0  0  0  0  0  0  0  0  0  0  0
    7.0940    3.7510   23.4788 H   0  0  0  0  0  0  0  0  0  0  0  0
    5.7875    3.2506   22.3654 H   0  0  0  0  0  0  0  0  0  0  0  0
    5.4328    0.6754   20.1497 C   0  0  0  0  0  0  0  0  0  0  0  0
    4.9639    0.6736   21.1342 H   0  0  0  0  0  0  0  0  0  0  0  0
    4.7947    1.3143   19.0866 C   0  0  0  0  0  0  0  0  0  0  0  0
    3.8547    1.8450   19.2208 H   0  0  0  0  0  0  0  0  0  0  0  0
  1  2  1  0
  2  3  2  0
  3  4  1  0
  4  5  1  0
  4  6  2  0
  6  7  1  0
  7  8  1  0
  8  9  2  0
  9 10  1  0
 10 11  1  0
 11 12  1  0
 11 13  2  0
 13 14  1  0
 13 15  1  0
 15 16  1  0
 16 17  1  0
 17 18  1  0
 17 19  1  0
 17 20  1  0
 20 21  1  0
 21 22  1  0
 21 23  1  0
 21 24  1  0
 20 25  1  0
 25 26  1  0
 25 27  1  0
 25 28  1  0
  6 29  1  0
 29 30  1  0
 29 31  2  0
 31 32  1  0
 31  2  1  0
 16  7  2  0
 15  9  1  0
M  END
>  <cnnaffinity>  (1) 
-5.22267

>  <filename>  (1) 
CN(C)Cc1c(-c2cccnc2)nc2sccn12

$$$$
