
     RDKit          3D

 42 44  0  0  0  0  0  0  0  0999 V2000
    7.2318   -2.4035   20.0563 H   0  0  0  0  0  0  0  0  0  0  0  0
    7.7085   -1.8200   20.8168 C   0  0  0  0  0  0  0  0  0  0  0  0
    7.3070   -0.5594   21.0504 C   0  0  0  0  0  0  0  0  0  0  0  0
    6.5999    0.2096   20.0213 C   0  0  0  0  0  0  0  0  0  0  0  0
    7.1400    0.1701   18.7226 C   0  0  0  0  0  0  0  0  0  0  0  0
    8.0890   -0.3453   18.5564 H   0  0  0  0  0  0  0  0  0  0  0  0
    6.5749    0.7248   17.6493 N   0  0  0  0  0  0  0  0  0  0  0  0
    5.4024    1.3543   17.8334 C   0  0  0  0  0  0  0  0  0  0  0  0
    4.9556    1.7986   16.9468 H   0  0  0  0  0  0  0  0  0  0  0  0
    4.7671    1.4536   19.0776 C   0  0  0  0  0  0  0  0  0  0  0  0
    3.8172    1.9744   19.1546 H   0  0  0  0  0  0  0  0  0  0  0  0
    5.3822    0.8866   20.1965 C   0  0  0  0  0  0  0  0  0  0  0  0
    4.9208    0.9379   21.1828 H   0  0  0  0  0  0  0  0  0  0  0  0
    7.6154    0.0190   22.2706 N   0  0  0  0  0  0  0  0  0  0  0  0
    7.2226    0.8983   22.5632 H   0  0  0  0  0  0  0  0  0  0  0  0
    8.2523   -0.6348   23.2725 C   0  0  0  0  0  0  0  0  0  0  0  0
    8.2771   -0.0407   24.8147 S   0  0  0  0  0  0  0  0  0  0  0  0
    8.8592   -1.7954   22.9513 N   0  0  0  0  0  0  0  0  0  0  0  0
    9.0245   -2.3440   23.7775 H   0  0  0  0  0  0  0  0  0  0  0  0
    8.5561   -2.5756   21.7585 C   0  0  1  0  0  0  0  0  0  0  0  0
    9.5096   -2.8622   21.2859 H   0  0  0  0  0  0  0  0  0  0  0  0
    7.8693   -3.8081   22.1374 N   0  0  0  0  0  0  0  0  0  0  0  0
    6.4828   -3.6227   22.6079 C   0  0  0  0  0  0  0  0  0  0  0  0
    5.7701   -3.8123   21.7918 H   0  0  0  0  0  0  0  0  0  0  0  0
    6.3049   -2.5824   22.9286 H   0  0  0  0  0  0  0  0  0  0  0  0
    6.3174   -4.5869   23.7796 C   0  0  0  0  0  0  0  0  0  0  0  0
    5.9559   -5.5594   23.4317 H   0  0  0  0  0  0  0  0  0  0  0  0
    5.6136   -4.2042   24.5257 H   0  0  0  0  0  0  0  0  0  0  0  0
    7.7317   -4.7875   24.3396 C   0  0  1  0  0  0  0  0  0  0  0  0
    8.0229   -3.8979   24.9423 H   0  0  0  0  0  0  0  0  0  0  0  0
    7.8512   -6.0051   25.1360 N   0  0  0  0  0  0  0  0  0  0  0  0
    7.0011   -5.9744   26.3232 C   0  0  0  0  0  0  0  0  0  0  0  0
    5.9454   -5.8901   26.0385 H   0  0  0  0  0  0  0  0  0  0  0  0
    7.1058   -6.9157   26.8713 H   0  0  0  0  0  0  0  0  0  0  0  0
    7.2582   -5.1441   27.0131 H   0  0  0  0  0  0  0  0  0  0  0  0
    9.2241   -6.3355   25.4910 C   0  0  0  0  0  0  0  0  0  0  0  0
    9.7386   -5.5236   26.0348 H   0  0  0  0  0  0  0  0  0  0  0  0
    9.8161   -6.5794   24.6042 H   0  0  0  0  0  0  0  0  0  0  0  0
    9.2263   -7.2253   26.1270 H   0  0  0  0  0  0  0  0  0  0  0  0
    8.5574   -4.7502   23.0291 C   0  0  0  0  0  0  0  0  0  0  0  0
    9.6059   -4.4753   23.2047 H   0  0  0  0  0  0  0  0  0  0  0  0
    8.5487   -5.7614   22.5915 H   0  0  0  0  0  0  0  0  0  0  0  0
  1  2  1  0
  2  3  2  0
  3  4  1  0
  4  5  2  0
  5  6  1  0
  5  7  1  0
  7  8  2  0
  8  9  1  0
  8 10  1  0
 10 11  1  0
 10 12  2  0
 12 13  1  0
  3 14  1  0
 14 15  1  0
 14 16  1  0
 16 17  2  0
 16 18  1  0
 18 19  1  0
 18 20  1  0
 20 21  1  6
 20 22  1  0
 22 23  1  0
 23 24  1  0
 23 25  1  0
 23 26  1  0
 26 27  1  0
 26 28  1  0
 26 29  1  0
 29 30  1  1
 29 31  1  0
 31 32  1  0
 32 33  1  0
 32 34  1  0
 32 35  1  0
 31 36  1  0
 36 37  1  0
 36 38  1  0
 36 39  1  0
 29 40  1  0
 40 41  1  0
 40 42  1  0
 20  2  1  0
 40 22  1  0
 12  4  1  0
M  END
>  <cnnaffinity>  (1) 
-5.05255

>  <filename>  (1) 
CN(C)[C@@H]1CCN([C@H]2C=C(c3cccnc3)NC(=S)N2)C1

$$$$
