
     RDKit          3D

 32 34  0  0  0  0  0  0  0  0999 V2000
    4.9403    1.8023   16.9737 H   0  0  0  0  0  0  0  0  0  0  0  0
    5.3949    1.3014   17.8285 C   0  0  0  0  0  0  0  0  0  0  0  0
    6.5605    0.6804   17.5945 N   0  0  0  0  0  0  0  0  0  0  0  0
    7.1580    0.0719   18.6269 C   0  0  0  0  0  0  0  0  0  0  0  0
    8.1072   -0.4104   18.3835 H   0  0  0  0  0  0  0  0  0  0  0  0
    6.6288    0.0175   19.9286 C   0  0  0  0  0  0  0  0  0  0  0  0
    7.3699   -0.7042   21.0368 C   0  0  0  0  0  0  0  0  0  0  0  0
    7.4791   -1.7639   20.7752 H   0  0  0  0  0  0  0  0  0  0  0  0
    6.7753   -0.6948   21.9635 H   0  0  0  0  0  0  0  0  0  0  0  0
    8.7148   -0.1995   21.2688 N   0  0  0  0  0  0  0  0  0  0  0  0
    8.9597    1.0550   21.7578 C   0  0  0  0  0  0  0  0  0  0  0  0
   10.1261    1.6452   21.8147 N   0  0  0  0  0  0  0  0  0  0  0  0
    9.8694    2.8540   22.4548 C   0  0  0  0  0  0  0  0  0  0  0  0
   10.7520    3.8844   22.8168 C   0  0  0  0  0  0  0  0  0  0  0  0
   11.8067    3.8067   22.5719 H   0  0  0  0  0  0  0  0  0  0  0  0
   10.2376    4.9995   23.4759 C   0  0  0  0  0  0  0  0  0  0  0  0
   10.9044    5.8071   23.7500 H   0  0  0  0  0  0  0  0  0  0  0  0
    8.8634    5.0983   23.7798 C   0  0  0  0  0  0  0  0  0  0  0  0
    8.4948    5.9843   24.2865 H   0  0  0  0  0  0  0  0  0  0  0  0
    7.9745    4.0835   23.4317 C   0  0  0  0  0  0  0  0  0  0  0  0
    6.9204    4.1738   23.6679 H   0  0  0  0  0  0  0  0  0  0  0  0
    8.4950    2.9691   22.7695 C   0  0  0  0  0  0  0  0  0  0  0  0
    7.9412    1.7917   22.2990 N   0  0  0  0  0  0  0  0  0  0  0  0
    6.9892    1.4919   22.2603 H   0  0  0  0  0  0  0  0  0  0  0  0
    9.8528   -0.9885   20.8397 C   0  0  0  0  0  0  0  0  0  0  0  0
    9.5090   -1.9446   20.4309 H   0  0  0  0  0  0  0  0  0  0  0  0
   10.5474   -1.1819   21.6645 H   0  0  0  0  0  0  0  0  0  0  0  0
   10.4002   -0.4605   20.0698 H   0  0  0  0  0  0  0  0  0  0  0  0
    5.4081    0.6689   20.1479 C   0  0  0  0  0  0  0  0  0  0  0  0
    4.9536    0.6661   21.1421 H   0  0  0  0  0  0  0  0  0  0  0  0
    4.7791    1.3230   19.0829 C   0  0  0  0  0  0  0  0  0  0  0  0
    3.8468    1.8619   19.2159 H   0  0  0  0  0  0  0  0  0  0  0  0
  1  2  1  0
  2  3  2  0
  3  4  1  0
  4  5  1  0
  4  6  2  0
  6  7  1  0
  7  8  1  0
  7  9  1  0
  7 10  1  0
 10 11  1  0
 11 12  2  0
 12 13  1  0
 13 14  2  0
 14 15  1  0
 14 16  1  0
 16 17  1  0
 16 18  2  0
 18 19  1  0
 18 20  1  0
 20 21  1  0
 20 22  2  0
 22 23  1  0
 23 24  1  0
 10 25  1  0
 25 26  1  0
 25 27  1  0
 25 28  1  0
  6 29  1  0
 29 30  1  0
 29 31  2  0
 31 32  1  0
 31  2  1  0
 23 11  1  0
 22 13  1  0
M  END
>  <cnnaffinity>  (1) 
-4.34175

>  <filename>  (1) 
CN(Cc1cccnc1)c1nc2ccccc2[nH]1

$$$$
