
     RDKit          3D

 35 37  0  0  0  0  0  0  0  0999 V2000
    5.0514    1.7959   17.0535 H   0  0  0  0  0  0  0  0  0  0  0  0
    5.4304    1.2295   17.9042 C   0  0  0  0  0  0  0  0  0  0  0  0
    6.5679    0.5496   17.7007 N   0  0  0  0  0  0  0  0  0  0  0  0
    7.0693   -0.1246   18.7357 C   0  0  0  0  0  0  0  0  0  0  0  0
    8.0071   -0.6415   18.5473 H   0  0  0  0  0  0  0  0  0  0  0  0
    6.4855   -0.1715   20.0175 C   0  0  0  0  0  0  0  0  0  0  0  0
    7.1878   -0.8658   21.1132 C   0  0  0  0  0  0  0  0  0  0  0  0
    6.5100   -1.6736   21.9093 N   0  0  0  0  0  0  0  0  0  0  0  0
    7.1901   -2.3649   22.8916 C   0  0  0  0  0  0  0  0  0  0  0  0
    6.4909   -3.3282   23.6111 N   0  0  0  0  0  0  0  0  0  0  0  0
    7.1882   -4.2749   24.4333 C   0  0  0  0  0  0  0  0  0  0  0  0
    8.1271   -5.1481   23.8591 C   0  0  0  0  0  0  0  0  0  0  0  0
    8.3502   -5.0541   22.8004 H   0  0  0  0  0  0  0  0  0  0  0  0
    8.7774   -6.0988   24.6528 C   0  0  0  0  0  0  0  0  0  0  0  0
    9.5264   -6.7522   24.2147 H   0  0  0  0  0  0  0  0  0  0  0  0
    8.4844   -6.1970   26.0172 C   0  0  0  0  0  0  0  0  0  0  0  0
    8.9785   -6.9476   26.6281 H   0  0  0  0  0  0  0  0  0  0  0  0
    7.5805   -5.3025   26.6018 C   0  0  0  0  0  0  0  0  0  0  0  0
    7.3649   -5.3674   27.6669 H   0  0  0  0  0  0  0  0  0  0  0  0
    6.9498   -4.3308   25.8146 C   0  0  0  0  0  0  0  0  0  0  0  0
    6.2886   -3.5875   26.2532 H   0  0  0  0  0  0  0  0  0  0  0  0
    5.0360   -3.2899   23.6775 C   0  0  0  0  0  0  0  0  0  0  0  0
    4.6863   -4.2828   23.9677 H   0  0  0  0  0  0  0  0  0  0  0  0
    4.6624   -2.5550   24.4100 H   0  0  0  0  0  0  0  0  0  0  0  0
    4.6160   -3.0512   22.6942 H   0  0  0  0  0  0  0  0  0  0  0  0
    8.5308   -2.1297   23.1449 C   0  0  0  0  0  0  0  0  0  0  0  0
    9.0394   -2.6180   23.9623 H   0  0  0  0  0  0  0  0  0  0  0  0
    9.2416   -1.2768   22.3392 N   0  0  0  0  0  0  0  0  0  0  0  0
   10.2456   -1.1164   22.3456 H   0  0  0  0  0  0  0  0  0  0  0  0
    8.6863   -0.6341   21.2472 C   0  0  0  0  0  0  0  0  0  0  0  0
    9.4483    0.0146   20.5449 O   0  0  0  0  0  0  0  0  0  0  0  0
    5.2710    0.5024   20.2012 C   0  0  0  0  0  0  0  0  0  0  0  0
    4.7621    0.4629   21.1663 H   0  0  0  0  0  0  0  0  0  0  0  0
    4.7503    1.2290   19.1268 C   0  0  0  0  0  0  0  0  0  0  0  0
    3.8374    1.8045   19.2246 H   0  0  0  0  0  0  0  0  0  0  0  0
  1  2  1  0
  2  3  2  0
  3  4  1  0
  4  5  1  0
  4  6  2  0
  6  7  1  0
  7  8  2  0
  8  9  1  0
  9 10  1  0
 10 11  1  0
 11 12  2  0
 12 13  1  0
 12 14  1  0
 14 15  1  0
 14 16  2  0
 16 17  1  0
 16 18  1  0
 18 19  1  0
 18 20  2  0
 20 21  1  0
 10 22  1  0
 22 23  1  0
 22 24  1  0
 22 25  1  0
  9 26  2  0
 26 27  1  0
 26 28  1  0
 28 29  1  0
 28 30  1  0
 30 31  2  0
  6 32  1  0
 32 33  1  0
 32 34  2  0
 34 35  1  0
 34  2  1  0
 30  7  1  0
 20 11  1  0
M  END
>  <cnnaffinity>  (1) 
-5.39269

>  <filename>  (1) 
CN(c1ccccc1)c1c[nH]c(=O)c(-c2cccnc2)n1

$$$$
