
     RDKit          3D

 38 39  0  0  0  0  0  0  0  0999 V2000
    5.1021    2.0084   16.9026 H   0  0  0  0  0  0  0  0  0  0  0  0
    5.4852    1.4008   17.7216 C   0  0  0  0  0  0  0  0  0  0  0  0
    6.6144    0.7186   17.4667 N   0  0  0  0  0  0  0  0  0  0  0  0
    7.1261   -0.0229   18.4553 C   0  0  0  0  0  0  0  0  0  0  0  0
    8.0700   -0.5332   18.2543 H   0  0  0  0  0  0  0  0  0  0  0  0
    6.5135   -0.1668   19.7168 C   0  0  0  0  0  0  0  0  0  0  0  0
    7.1508   -0.9227   20.7622 N   0  0  0  0  0  0  0  0  0  0  0  0
    8.4244   -0.5289   21.1232 C   0  0  0  0  0  0  0  0  0  0  0  0
    8.8301    0.2937   20.5359 H   0  0  0  0  0  0  0  0  0  0  0  0
    9.1147   -1.1062   22.1441 C   0  0  0  0  0  0  0  0  0  0  0  0
   10.4365   -0.5341   22.5756 C   0  0  0  0  0  0  0  0  0  0  0  0
   11.0044   -0.1674   21.7072 H   0  0  0  0  0  0  0  0  0  0  0  0
   11.0434   -1.3185   23.0464 H   0  0  0  0  0  0  0  0  0  0  0  0
   10.2582    0.6094   23.5918 C   0  0  0  0  0  0  0  0  0  0  0  0
    9.7312    0.2236   24.4716 H   0  0  0  0  0  0  0  0  0  0  0  0
    9.6148    1.4041   23.1934 H   0  0  0  0  0  0  0  0  0  0  0  0
   11.5861    1.2026   24.0486 C   0  0  0  0  0  0  0  0  0  0  0  0
   11.4146    1.9735   24.8268 H   0  0  0  0  0  0  0  0  0  0  0  0
   12.1528    0.3965   24.5387 H   0  0  0  0  0  0  0  0  0  0  0  0
   12.3884    1.7087   22.9364 N   0  0  0  0  0  0  0  0  0  0  0  0
   13.8029    1.6641   23.2403 C   0  0  0  0  0  0  0  0  0  0  0  0
   14.3883    2.1795   22.4781 H   0  0  0  0  0  0  0  0  0  0  0  0
   14.1594    0.6268   23.2771 H   0  0  0  0  0  0  0  0  0  0  0  0
   14.0262    2.1404   24.2046 H   0  0  0  0  0  0  0  0  0  0  0  0
   11.9541    2.9972   22.4284 C   0  0  0  0  0  0  0  0  0  0  0  0
   12.0862    3.8377   23.1404 H   0  0  0  0  0  0  0  0  0  0  0  0
   10.8961    2.9310   22.1645 H   0  0  0  0  0  0  0  0  0  0  0  0
   12.5010    3.2310   21.5069 H   0  0  0  0  0  0  0  0  0  0  0  0
    8.4974   -2.1833   22.8600 C   0  0  0  0  0  0  0  0  0  0  0  0
    9.0430   -2.6632   23.6762 H   0  0  0  0  0  0  0  0  0  0  0  0
    7.2423   -2.5913   22.5336 C   0  0  0  0  0  0  0  0  0  0  0  0
    6.7031   -3.3765   23.0423 H   0  0  0  0  0  0  0  0  0  0  0  0
    6.4869   -2.0005   21.4427 C   0  0  0  0  0  0  0  0  0  0  0  0
    5.3948   -2.4250   21.1065 O   0  0  0  0  0  0  0  0  0  0  0  0
    5.3240    0.5232   19.9631 C   0  0  0  0  0  0  0  0  0  0  0  0
    4.8458    0.4191   20.9377 H   0  0  0  0  0  0  0  0  0  0  0  0
    4.8114    1.3389   18.9471 C   0  0  0  0  0  0  0  0  0  0  0  0
    3.9048    1.9170   19.0902 H   0  0  0  0  0  0  0  0  0  0  0  0
  1  2  1  0
  2  3  2  0
  3  4  1  0
  4  5  1  0
  4  6  2  0
  6  7  1  0
  7  8  1  0
  8  9  1  0
  8 10  2  0
 10 11  1  0
 11 12  1  0
 11 13  1  0
 11 14  1  0
 14 15  1  0
 14 16  1  0
 14 17  1  0
 17 18  1  0
 17 19  1  0
 17 20  1  0
 20 21  1  0
 21 22  1  0
 21 23  1  0
 21 24  1  0
 20 25  1  0
 25 26  1  0
 25 27  1  0
 25 28  1  0
 10 29  1  0
 29 30  1  0
 29 31  2  0
 31 32  1  0
 31 33  1  0
 33 34  2  0
  6 35  1  0
 35 36  1  0
 35 37  2  0
 37 38  1  0
 37  2  1  0
 33  7  1  0
M  END
>  <cnnaffinity>  (1) 
-4.91612

>  <filename>  (1) 
CN(C)CCCc1ccc(=O)n(-c2cccnc2)c1

$$$$
