
     RDKit          3D

 43 45  0  0  0  0  0  0  0  0999 V2000
    5.1545    2.0312   16.8483 H   0  0  0  0  0  0  0  0  0  0  0  0
    5.4600    1.3935   17.6756 C   0  0  0  0  0  0  0  0  0  0  0  0
    6.5117    0.5952   17.4401 N   0  0  0  0  0  0  0  0  0  0  0  0
    6.9400   -0.1804   18.4452 C   0  0  0  0  0  0  0  0  0  0  0  0
    7.7795   -0.8372   18.2400 H   0  0  0  0  0  0  0  0  0  0  0  0
    6.3529   -0.1819   19.7206 C   0  0  0  0  0  0  0  0  0  0  0  0
    6.9482   -0.8937   20.8070 N   0  0  0  0  0  0  0  0  0  0  0  0
    7.4094   -0.0644   21.8046 N   0  0  0  0  0  0  0  0  0  0  0  0
    8.0241   -0.5874   22.8361 C   0  0  0  0  0  0  0  0  0  0  0  0
    8.3895    0.2340   23.9053 N   0  0  0  0  0  0  0  0  0  0  0  0
    7.9972   -0.2175   25.2567 C   0  0  0  0  0  0  0  0  0  0  0  0
    8.2057   -1.2863   25.3746 H   0  0  0  0  0  0  0  0  0  0  0  0
    6.9112   -0.0833   25.4146 H   0  0  0  0  0  0  0  0  0  0  0  0
    8.7754    0.5622   26.3125 C   0  0  0  0  0  0  0  0  0  0  0  0
    9.8464    0.3652   26.1870 H   0  0  0  0  0  0  0  0  0  0  0  0
    8.5143    0.2134   27.3159 H   0  0  0  0  0  0  0  0  0  0  0  0
    8.5345    2.0775   26.1923 C   0  0  0  0  0  0  0  0  0  0  0  0
    9.2550    2.5994   26.8393 H   0  0  0  0  0  0  0  0  0  0  0  0
    7.1707    2.4819   26.5903 N   0  0  0  0  0  0  0  0  0  0  0  0
    6.8056    2.0010   27.9273 C   0  0  0  0  0  0  0  0  0  0  0  0
    7.5568    2.2469   28.7029 H   0  0  0  0  0  0  0  0  0  0  0  0
    5.8549    2.4462   28.2322 H   0  0  0  0  0  0  0  0  0  0  0  0
    6.6406    0.9207   27.9408 H   0  0  0  0  0  0  0  0  0  0  0  0
    7.0011    3.9383   26.5385 C   0  0  0  0  0  0  0  0  0  0  0  0
    5.9982    4.2071   26.8850 H   0  0  0  0  0  0  0  0  0  0  0  0
    7.7425    4.4783   27.1622 H   0  0  0  0  0  0  0  0  0  0  0  0
    7.0682    4.3145   25.5143 H   0  0  0  0  0  0  0  0  0  0  0  0
    8.8737    2.4906   24.7542 C   0  0  0  0  0  0  0  0  0  0  0  0
    9.9495    2.3559   24.5965 H   0  0  0  0  0  0  0  0  0  0  0  0
    8.6630    3.5495   24.5926 H   0  0  0  0  0  0  0  0  0  0  0  0
    8.1339    1.6728   23.7118 C   0  0  0  0  0  0  0  0  0  0  0  0
    7.0506    1.8735   23.7361 H   0  0  0  0  0  0  0  0  0  0  0  0
    8.4783    1.9613   22.7140 H   0  0  0  0  0  0  0  0  0  0  0  0
    8.3464   -2.0031   22.8697 C   0  0  0  0  0  0  0  0  0  0  0  0
    9.0020   -2.3446   23.6686 H   0  0  0  0  0  0  0  0  0  0  0  0
    7.8344   -2.8256   21.9152 C   0  0  0  0  0  0  0  0  0  0  0  0
    7.9772   -3.8972   21.8858 H   0  0  0  0  0  0  0  0  0  0  0  0
    6.9280   -2.3246   20.8694 C   0  0  0  0  0  0  0  0  0  0  0  0
    6.2424   -3.0075   20.1319 O   0  0  0  0  0  0  0  0  0  0  0  0
    5.2368    0.6270   19.9489 C   0  0  0  0  0  0  0  0  0  0  0  0
    4.7553    0.6192   20.9266 H   0  0  0  0  0  0  0  0  0  0  0  0
    4.7796    1.4309   18.8997 C   0  0  0  0  0  0  0  0  0  0  0  0
    3.9361    2.0997   19.0281 H   0  0  0  0  0  0  0  0  0  0  0  0
  1  2  1  0
  2  3  2  0
  3  4  1  0
  4  5  1  0
  4  6  2  0
  6  7  1  0
  7  8  1  0
  8  9  2  0
  9 10  1  0
 10 11  1  0
 11 12  1  0
 11 13  1  0
 11 14  1  0
 14 15  1  0
 14 16  1  0
 14 17  1  0
 17 18  1  0
 17 19  1  0
 19 20  1  0
 20 21  1  0
 20 22  1  0
 20 23  1  0
 19 24  1  0
 24 25  1  0
 24 26  1  0
 24 27  1  0
 17 28  1  0
 28 29  1  0
 28 30  1  0
 28 31  1  0
 31 32  1  0
 31 33  1  0
  9 34  1  0
 34 35  1  0
 34 36  2  0
 36 37  1  0
 36 38  1  0
 38 39  2  0
  6 40  1  0
 40 41  1  0
 40 42  2  0
 42 43  1  0
 42  2  1  0
 38  7  1  0
 31 10  1  0
M  END
>  <cnnaffinity>  (1) 
-5.32777

>  <filename>  (1) 
CN(C)C1CCN(c2ccc(=O)n(-c3cccnc3)n2)CC1

$$$$
