
     RDKit          3D

 29 30  0  0  0  0  0  0  0  0999 V2000
    4.9717    1.7655   17.0303 H   0  0  0  0  0  0  0  0  0  0  0  0
    5.4336    1.2583   17.8714 C   0  0  0  0  0  0  0  0  0  0  0  0
    6.5927    0.6282   17.6191 N   0  0  0  0  0  0  0  0  0  0  0  0
    7.2181    0.0347   18.6480 C   0  0  0  0  0  0  0  0  0  0  0  0
    8.1637   -0.4523   18.4161 H   0  0  0  0  0  0  0  0  0  0  0  0
    6.6900    0.0144   19.9568 C   0  0  0  0  0  0  0  0  0  0  0  0
    7.4230   -0.5528   21.0057 O   0  0  0  0  0  0  0  0  0  0  0  0
    6.8402   -1.4544   21.8770 C   0  0  0  0  0  0  0  0  0  0  0  0
    5.8139   -2.0417   21.6517 O   0  0  0  0  0  0  0  0  0  0  0  0
    7.6334   -1.6184   23.0080 N   0  0  0  0  0  0  0  0  0  0  0  0
    7.0614   -2.2258   24.1779 C   0  0  0  0  0  0  0  0  0  0  0  0
    6.2045   -1.4701   24.9970 C   0  0  0  0  0  0  0  0  0  0  0  0
    5.9751   -0.4541   24.6914 H   0  0  0  0  0  0  0  0  0  0  0  0
    5.6716   -2.0019   26.1783 C   0  0  0  0  0  0  0  0  0  0  0  0
    5.0038   -1.4064   26.8000 H   0  0  0  0  0  0  0  0  0  0  0  0
    5.9878   -3.3066   26.5629 C   0  0  0  0  0  0  0  0  0  0  0  0
    5.5766   -3.7577   27.4650 H   0  0  0  0  0  0  0  0  0  0  0  0
    6.8424   -4.0767   25.7697 C   0  0  0  0  0  0  0  0  0  0  0  0
    7.1923   -5.6902   26.3056 Cl  0  0  0  0  0  0  0  0  0  0  0  0
    7.3921   -3.5438   24.5838 C   0  0  0  0  0  0  0  0  0  0  0  0
    8.4630   -4.5096   23.6269 Cl  0  0  0  0  0  0  0  0  0  0  0  0
    9.0699   -1.2914   23.0233 C   0  0  0  0  0  0  0  0  0  0  0  0
    9.5772   -1.7122   22.1502 H   0  0  0  0  0  0  0  0  0  0  0  0
    9.2477   -0.2098   23.0349 H   0  0  0  0  0  0  0  0  0  0  0  0
    9.5089   -1.7319   23.9217 H   0  0  0  0  0  0  0  0  0  0  0  0
    5.4643    0.6371   20.2003 C   0  0  0  0  0  0  0  0  0  0  0  0
    5.0307    0.5973   21.1971 H   0  0  0  0  0  0  0  0  0  0  0  0
    4.8337    1.2837   19.1333 C   0  0  0  0  0  0  0  0  0  0  0  0
    3.9016    1.8189   19.2754 H   0  0  0  0  0  0  0  0  0  0  0  0
  1  2  1  0
  2  3  2  0
  3  4  1  0
  4  5  1  0
  4  6  2  0
  6  7  1  0
  7  8  1  0
  8  9  2  0
  8 10  1  0
 10 11  1  0
 11 12  2  0
 12 13  1  0
 12 14  1  0
 14 15  1  0
 14 16  2  0
 16 17  1  0
 16 18  1  0
 18 19  1  0
 18 20  2  0
 20 21  1  0
 10 22  1  0
 22 23  1  0
 22 24  1  0
 22 25  1  0
  6 26  1  0
 26 27  1  0
 26 28  2  0
 28 29  1  0
 28  2  1  0
 20 11  1  0
M  END
>  <cnnaffinity>  (1) 
-5.12787

>  <filename>  (1) 
CN(C(=O)Oc1cccnc1)c1cccc(Cl)c1Cl

$$$$
