
     RDKit          3D

 40 42  0  0  0  0  0  0  0  0999 V2000
    4.9937    1.7399   17.0051 H   0  0  0  0  0  0  0  0  0  0  0  0
    5.4246    1.2699   17.8845 C   0  0  0  0  0  0  0  0  0  0  0  0
    6.5999    0.6539   17.6892 N   0  0  0  0  0  0  0  0  0  0  0  0
    7.1743    0.0984   18.7556 C   0  0  0  0  0  0  0  0  0  0  0  0
    8.1260   -0.3936   18.5557 H   0  0  0  0  0  0  0  0  0  0  0  0
    6.6304    0.1219   20.0491 C   0  0  0  0  0  0  0  0  0  0  0  0
    7.3698   -0.5479   21.1400 C   0  0  0  0  0  0  0  0  0  0  0  0
    7.1986   -0.0818   22.3720 N   0  0  0  0  0  0  0  0  0  0  0  0
    7.8341   -0.7282   23.3612 C   0  0  0  0  0  0  0  0  0  0  0  0
    7.6907   -0.2225   24.6082 N   0  0  0  0  0  0  0  0  0  0  0  0
    8.3925   -0.6965   25.7919 C   0  0  0  0  0  0  0  0  0  0  0  0
    9.4724   -0.7823   25.6116 H   0  0  0  0  0  0  0  0  0  0  0  0
    8.0436   -1.6941   26.0913 H   0  0  0  0  0  0  0  0  0  0  0  0
    8.0862    0.3627   26.8498 C   0  0  0  0  0  0  0  0  0  0  0  0
    7.9951   -0.0700   27.8520 H   0  0  0  0  0  0  0  0  0  0  0  0
    8.8889    1.1045   26.8576 H   0  0  0  0  0  0  0  0  0  0  0  0
    6.7939    1.0621   26.3922 C   0  0  1  0  0  0  0  0  0  0  0  0
    5.9269    0.4490   26.7144 H   0  0  0  0  0  0  0  0  0  0  0  0
    6.6697    2.4402   26.8844 N   0  0  0  0  0  0  0  0  0  0  0  0
    5.4835    3.1099   26.3632 C   0  0  0  0  0  0  0  0  0  0  0  0
    5.4535    4.1459   26.7189 H   0  0  0  0  0  0  0  0  0  0  0  0
    5.5161    3.1529   25.2702 H   0  0  0  0  0  0  0  0  0  0  0  0
    4.5388    2.6128   26.6577 H   0  0  0  0  0  0  0  0  0  0  0  0
    6.7332    2.5329   28.3375 C   0  0  0  0  0  0  0  0  0  0  0  0
    6.6536    3.5834   28.6397 H   0  0  0  0  0  0  0  0  0  0  0  0
    5.9332    1.9614   28.8483 H   0  0  0  0  0  0  0  0  0  0  0  0
    7.6987    2.1710   28.7043 H   0  0  0  0  0  0  0  0  0  0  0  0
    6.8734    0.9515   24.8564 C   0  0  0  0  0  0  0  0  0  0  0  0
    5.8833    0.8242   24.4065 H   0  0  0  0  0  0  0  0  0  0  0  0
    7.3129    1.8518   24.4039 H   0  0  0  0  0  0  0  0  0  0  0  0
    8.6090   -1.8954   23.1689 C   0  0  0  0  0  0  0  0  0  0  0  0
    9.0661   -2.3692   24.0252 H   0  0  0  0  0  0  0  0  0  0  0  0
    8.7657   -2.3731   21.8843 C   0  0  0  0  0  0  0  0  0  0  0  0
    9.3361   -3.2800   21.6912 H   0  0  0  0  0  0  0  0  0  0  0  0
    8.1704   -1.6540   20.8547 C   0  0  0  0  0  0  0  0  0  0  0  0
    8.2985   -1.9220   19.8295 H   0  0  0  0  0  0  0  0  0  0  0  0
    5.3848    0.7466   20.2316 C   0  0  0  0  0  0  0  0  0  0  0  0
    4.9085    0.7582   21.2158 H   0  0  0  0  0  0  0  0  0  0  0  0
    4.7759    1.3288   19.1224 C   0  0  0  0  0  0  0  0  0  0  0  0
    3.8226    1.8404   19.2039 H   0  0  0  0  0  0  0  0  0  0  0  0
  1  2  1  0
  2  3  2  0
  3  4  1  0
  4  5  1  0
  4  6  2  0
  6  7  1  0
  7  8  2  0
  8  9  1  0
  9 10  1  0
 10 11  1  0
 11 12  1  0
 11 13  1  0
 11 14  1  0
 14 15  1  0
 14 16  1  0
 14 17  1  0
 17 18  1  1
 17 19  1  0
 19 20  1  0
 20 21  1  0
 20 22  1  0
 20 23  1  0
 19 24  1  0
 24 25  1  0
 24 26  1  0
 24 27  1  0
 17 28  1  0
 28 29  1  0
 28 30  1  0
  9 31  2  0
 31 32  1  0
 31 33  1  0
 33 34  1  0
 33 35  2  0
 35 36  1  0
  6 37  1  0
 37 38  1  0
 37 39  2  0
 39 40  1  0
 39  2  1  0
 35  7  1  0
 28 10  1  0
M  END
>  <cnnaffinity>  (1) 
-4.74312

>  <filename>  (1) 
CN(C)[C@@H]1CCN(c2cccc(-c3cccnc3)n2)C1

$$$$
