
     RDKit          3D

 41 42  0  0  0  0  0  0  0  0999 V2000
    4.9285    1.8004   16.9848 H   0  0  0  0  0  0  0  0  0  0  0  0
    5.3989    1.2964   17.8298 C   0  0  0  0  0  0  0  0  0  0  0  0
    6.5596    0.6793   17.5726 N   0  0  0  0  0  0  0  0  0  0  0  0
    7.1674    0.0579   18.5935 C   0  0  0  0  0  0  0  0  0  0  0  0
    8.1129   -0.4259   18.3471 H   0  0  0  0  0  0  0  0  0  0  0  0
    6.6588   -0.0044   19.8995 C   0  0  0  0  0  0  0  0  0  0  0  0
    7.3998   -0.7303   21.0032 C   0  0  0  0  0  0  0  0  0  0  0  0
    6.6988   -1.3576   21.5654 H   0  0  0  0  0  0  0  0  0  0  0  0
    8.1588   -1.4073   20.5728 H   0  0  0  0  0  0  0  0  0  0  0  0
    8.0101    0.1849   21.9744 N   0  0  0  0  0  0  0  0  0  0  0  0
    8.2319   -0.3930   23.2332 N   0  0  0  0  0  0  0  0  0  0  0  0
    8.9096   -1.1346   23.3250 H   0  0  0  0  0  0  0  0  0  0  0  0
    7.5231   -0.0645   24.3892 C   0  0  0  0  0  0  0  0  0  0  0  0
    6.6485    0.7792   24.4547 O   0  0  0  0  0  0  0  0  0  0  0  0
    7.9158   -0.8121   25.4738 N   0  0  0  0  0  0  0  0  0  0  0  0
    8.6329   -1.4961   25.3304 H   0  0  0  0  0  0  0  0  0  0  0  0
    7.3443   -0.6235   26.8159 C   0  0  0  0  0  0  0  0  0  0  0  0
    7.8763   -1.3344   27.4701 H   0  0  0  0  0  0  0  0  0  0  0  0
    5.8226   -0.9745   26.8490 C   0  0  0  0  0  0  0  0  0  0  0  0
    5.3988   -0.7907   25.8543 H   0  0  0  0  0  0  0  0  0  0  0  0
    5.7471   -2.0526   27.0409 H   0  0  0  0  0  0  0  0  0  0  0  0
    5.0024   -0.1772   27.9019 C   0  0  0  0  0  0  0  0  0  0  0  0
    4.0934   -0.7334   28.1640 H   0  0  0  0  0  0  0  0  0  0  0  0
    4.6600    0.7684   27.4503 H   0  0  0  0  0  0  0  0  0  0  0  0
    5.8276    0.1357   29.1617 C   0  0  0  0  0  0  0  0  0  0  0  0
    6.1193   -0.8122   29.6363 H   0  0  0  0  0  0  0  0  0  0  0  0
    5.2135    0.6548   29.9096 H   0  0  0  0  0  0  0  0  0  0  0  0
    7.0895    0.9807   28.8219 C   0  0  0  0  0  0  0  0  0  0  0  0
    7.8885    0.7296   29.5325 H   0  0  0  0  0  0  0  0  0  0  0  0
    6.8776    2.0475   28.9772 H   0  0  0  0  0  0  0  0  0  0  0  0
    7.5929    0.8013   27.3605 C   0  0  0  0  0  0  0  0  0  0  0  0
    7.0894    1.5065   26.6838 H   0  0  0  0  0  0  0  0  0  0  0  0
    8.6642    1.0156   27.2850 H   0  0  0  0  0  0  0  0  0  0  0  0
    9.1590    0.9227   21.4645 C   0  0  0  0  0  0  0  0  0  0  0  0
    9.5069    1.6272   22.2232 H   0  0  0  0  0  0  0  0  0  0  0  0
    8.8266    1.4937   20.5933 H   0  0  0  0  0  0  0  0  0  0  0  0
    9.9979    0.2697   21.1599 H   0  0  0  0  0  0  0  0  0  0  0  0
    5.4485    0.6569   20.1543 C   0  0  0  0  0  0  0  0  0  0  0  0
    5.0392    0.6549   21.1651 H   0  0  0  0  0  0  0  0  0  0  0  0
    4.8050    1.3121   19.0974 C   0  0  0  0  0  0  0  0  0  0  0  0
    3.8718    1.8452   19.2364 H   0  0  0  0  0  0  0  0  0  0  0  0
  1  2  1  0
  2  3  2  0
  3  4  1  0
  4  5  1  0
  4  6  2  0
  6  7  1  0
  7  8  1  0
  7  9  1  0
  7 10  1  0
 10 11  1  0
 11 12  1  0
 11 13  1  0
 13 14  2  0
 13 15  1  0
 15 16  1  0
 15 17  1  0
 17 18  1  0
 17 19  1  0
 19 20  1  0
 19 21  1  0
 19 22  1  0
 22 23  1  0
 22 24  1  0
 22 25  1  0
 25 26  1  0
 25 27  1  0
 25 28  1  0
 28 29  1  0
 28 30  1  0
 28 31  1  0
 31 32  1  0
 31 33  1  0
 10 34  1  0
 34 35  1  0
 34 36  1  0
 34 37  1  0
  6 38  1  0
 38 39  1  0
 38 40  2  0
 40 41  1  0
 40  2  1  0
 31 17  1  0
M  END
>  <cnnaffinity>  (1) 
-4.78446

>  <filename>  (1) 
CN(Cc1cccnc1)NC(=O)NC1CCCCC1

$$$$
