
     RDKit          3D

 45 48  0  0  0  0  0  0  0  0999 V2000
    4.9456    1.8392   16.7630 H   0  0  0  0  0  0  0  0  0  0  0  0
    5.4109    1.2685   17.5642 C   0  0  0  0  0  0  0  0  0  0  0  0
    6.5435    0.6135   17.2514 N   0  0  0  0  0  0  0  0  0  0  0  0
    7.1693   -0.0460   18.2347 C   0  0  0  0  0  0  0  0  0  0  0  0
    8.0857   -0.5571   17.9333 H   0  0  0  0  0  0  0  0  0  0  0  0
    6.7180   -0.0776   19.5699 C   0  0  0  0  0  0  0  0  0  0  0  0
    7.4933   -0.6320   20.6964 C   0  0  0  0  0  0  0  0  0  0  0  0
    7.6198   -0.1552   21.9791 C   0  0  0  0  0  0  0  0  0  0  0  0
    8.4969   -1.0239   22.6291 C   0  0  0  0  0  0  0  0  0  0  0  0
    8.9093   -2.0084   21.8522 N   0  0  0  0  0  0  0  0  0  0  0  0
    8.3033   -1.7324   20.6661 N   0  0  0  0  0  0  0  0  0  0  0  0
    8.2937   -2.4395   19.9493 H   0  0  0  0  0  0  0  0  0  0  0  0
    8.6754   -0.6598   24.0721 C   0  0  0  0  0  0  0  0  0  0  0  0
    9.7110   -0.7178   24.4123 H   0  0  0  0  0  0  0  0  0  0  0  0
    8.0658   -1.3127   24.7056 H   0  0  0  0  0  0  0  0  0  0  0  0
    8.1001    0.7801   24.1205 C   0  0  2  0  0  0  0  0  0  0  0  0
    8.9281    1.4724   23.8633 H   0  0  0  0  0  0  0  0  0  0  0  0
    7.5021    1.1499   25.3985 N   0  0  0  0  0  0  0  0  0  0  0  0
    6.8378    2.4583   25.3934 C   0  0  0  0  0  0  0  0  0  0  0  0
    7.4646    3.2508   24.9352 H   0  0  0  0  0  0  0  0  0  0  0  0
    5.9075    2.4178   24.8176 H   0  0  0  0  0  0  0  0  0  0  0  0
    6.5821    2.7792   26.8642 C   0  0  0  0  0  0  0  0  0  0  0  0
    6.6178    3.8571   27.0592 H   0  0  0  0  0  0  0  0  0  0  0  0
    5.5882    2.4421   27.1655 H   0  0  0  0  0  0  0  0  0  0  0  0
    7.6702    2.0066   27.6440 C   0  0  1  0  0  0  0  0  0  0  0  0
    8.3662    2.7251   28.0798 H   0  0  0  0  0  0  0  0  0  0  0  0
    7.0908    1.2461   28.7708 N   0  0  0  0  0  0  0  0  0  0  0  0
    6.1997    0.1641   28.3591 C   0  0  0  0  0  0  0  0  0  0  0  0
    6.7110   -0.6516   27.8156 H   0  0  0  0  0  0  0  0  0  0  0  0
    5.4141    0.5432   27.6983 H   0  0  0  0  0  0  0  0  0  0  0  0
    5.7014   -0.2584   29.2392 H   0  0  0  0  0  0  0  0  0  0  0  0
    8.0819    0.8045   29.7418 C   0  0  0  0  0  0  0  0  0  0  0  0
    7.5793    0.2999   30.5737 H   0  0  0  0  0  0  0  0  0  0  0  0
    8.6137    1.6594   30.1690 H   0  0  0  0  0  0  0  0  0  0  0  0
    8.8443    0.1090   29.3456 H   0  0  0  0  0  0  0  0  0  0  0  0
    8.4282    1.2075   26.5359 C   0  0  0  0  0  0  0  0  0  0  0  0
    9.3503    1.7643   26.2750 H   0  0  0  0  0  0  0  0  0  0  0  0
    8.7397    0.2111   26.8807 H   0  0  0  0  0  0  0  0  0  0  0  0
    7.0733    0.8334   22.9596 C   0  0  0  0  0  0  0  0  0  0  0  0
    6.1102    0.4913   23.3684 H   0  0  0  0  0  0  0  0  0  0  0  0
    6.9380    1.8474   22.5728 H   0  0  0  0  0  0  0  0  0  0  0  0
    5.4986    0.5608   19.8538 C   0  0  0  0  0  0  0  0  0  0  0  0
    5.0861    0.5116   20.8623 H   0  0  0  0  0  0  0  0  0  0  0  0
    4.8366    1.2472   18.8383 C   0  0  0  0  0  0  0  0  0  0  0  0
    3.9115    1.7795   19.0342 H   0  0  0  0  0  0  0  0  0  0  0  0
  1  2  1  0
  2  3  2  0
  3  4  1  0
  4  5  1  0
  4  6  2  0
  6  7  1  0
  7  8  2  0
  8  9  1  0
  9 10  2  0
 10 11  1  0
 11 12  1  0
  9 13  1  0
 13 14  1  0
 13 15  1  0
 13 16  1  0
 16 17  1  6
 16 18  1  0
 18 19  1  0
 19 20  1  0
 19 21  1  0
 19 22  1  0
 22 23  1  0
 22 24  1  0
 22 25  1  0
 25 26  1  1
 25 27  1  0
 27 28  1  0
 28 29  1  0
 28 30  1  0
 28 31  1  0
 27 32  1  0
 32 33  1  0
 32 34  1  0
 32 35  1  0
 25 36  1  0
 36 37  1  0
 36 38  1  0
 16 39  1  0
 39 40  1  0
 39 41  1  0
  6 42  1  0
 42 43  1  0
 42 44  2  0
 44 45  1  0
 44  2  1  0
 11  7  1  0
 36 18  1  0
 39  8  1  0
M  END
>  <cnnaffinity>  (1) 
-5.05719

>  <filename>  (1) 
CN(C)[C@@H]1CCN([C@H]2Cc3n[nH]c(-c4cccnc4)c3C2)C1

$$$$
