
     RDKit          3D

 36 38  0  0  0  0  0  0  0  0999 V2000
    5.0644    1.8776   16.9526 H   0  0  0  0  0  0  0  0  0  0  0  0
    5.4755    1.3362   17.8027 C   0  0  0  0  0  0  0  0  0  0  0  0
    6.6303    0.6837   17.5923 N   0  0  0  0  0  0  0  0  0  0  0  0
    7.1626    0.0197   18.6285 C   0  0  0  0  0  0  0  0  0  0  0  0
    8.1122   -0.4828   18.4675 H   0  0  0  0  0  0  0  0  0  0  0  0
    6.5679   -0.0493   19.9050 C   0  0  0  0  0  0  0  0  0  0  0  0
    7.1998   -0.7180   21.0096 N   0  0  0  0  0  0  0  0  0  0  0  0
    7.6149   -0.0981   22.2029 C   0  0  0  0  0  0  0  0  0  0  0  0
    7.2552    1.1836   22.5388 N   0  0  0  0  0  0  0  0  0  0  0  0
    7.6309    2.3492   21.7710 C   0  0  0  0  0  0  0  0  0  0  0  0
    8.3814    2.0521   21.0358 H   0  0  0  0  0  0  0  0  0  0  0  0
    6.7721    2.7979   21.2520 H   0  0  0  0  0  0  0  0  0  0  0  0
    8.0615    3.1270   22.4195 H   0  0  0  0  0  0  0  0  0  0  0  0
    6.3658    1.2941   23.6984 C   0  0  0  0  0  0  0  0  0  0  0  0
    5.9481    2.3073   23.7463 H   0  0  0  0  0  0  0  0  0  0  0  0
    5.5305    0.5864   23.5735 H   0  0  0  0  0  0  0  0  0  0  0  0
    7.0889    0.9337   24.9816 C   0  0  0  0  0  0  0  0  0  0  0  0
    8.2967    1.5722   25.2940 C   0  0  0  0  0  0  0  0  0  0  0  0
    8.6581    2.3898   24.6701 H   0  0  0  0  0  0  0  0  0  0  0  0
    9.0765    1.1333   26.3598 C   0  0  0  0  0  0  0  0  0  0  0  0
   10.0295    1.6258   26.5252 H   0  0  0  0  0  0  0  0  0  0  0  0
    8.6414    0.0694   27.1627 C   0  0  0  0  0  0  0  0  0  0  0  0
    9.2550   -0.2733   27.9937 H   0  0  0  0  0  0  0  0  0  0  0  0
    7.4170   -0.5513   26.8823 C   0  0  0  0  0  0  0  0  0  0  0  0
    7.0509   -1.3591   27.5141 H   0  0  0  0  0  0  0  0  0  0  0  0
    6.6517   -0.1264   25.7879 C   0  0  0  0  0  0  0  0  0  0  0  0
    5.7210   -0.6375   25.5391 H   0  0  0  0  0  0  0  0  0  0  0  0
    8.0712   -1.0786   22.9961 C   0  0  0  0  0  0  0  0  0  0  0  0
    8.5911   -1.0353   23.9355 H   0  0  0  0  0  0  0  0  0  0  0  0
    7.7700   -2.3025   22.4522 O   0  0  0  0  0  0  0  0  0  0  0  0
    7.1339   -2.0914   21.2586 C   0  0  0  0  0  0  0  0  0  0  0  0
    6.6207   -2.9541   20.5969 O   0  0  0  0  0  0  0  0  0  0  0  0
    5.3553    0.6164   20.0989 C   0  0  0  0  0  0  0  0  0  0  0  0
    4.8688    0.5877   21.0745 H   0  0  0  0  0  0  0  0  0  0  0  0
    4.8039    1.3318   19.0310 C   0  0  0  0  0  0  0  0  0  0  0  0
    3.8732    1.8805   19.1371 H   0  0  0  0  0  0  0  0  0  0  0  0
  1  2  1  0
  2  3  2  0
  3  4  1  0
  4  5  1  0
  4  6  2  0
  6  7  1  0
  7  8  1  0
  8  9  1  0
  9 10  1  0
 10 11  1  0
 10 12  1  0
 10 13  1  0
  9 14  1  0
 14 15  1  0
 14 16  1  0
 14 17  1  0
 17 18  2  0
 18 19  1  0
 18 20  1  0
 20 21  1  0
 20 22  2  0
 22 23  1  0
 22 24  1  0
 24 25  1  0
 24 26  2  0
 26 27  1  0
  8 28  2  0
 28 29  1  0
 28 30  1  0
 30 31  1  0
 31 32  2  0
  6 33  1  0
 33 34  1  0
 33 35  2  0
 35 36  1  0
 35  2  1  0
 31  7  1  0
 26 17  1  0
M  END
>  <cnnaffinity>  (1) 
-4.92908

>  <filename>  (1) 
CN(Cc1ccccc1)c1coc(=O)n1-c1cccnc1

$$$$
