
     RDKit          3D

 45 48  0  0  0  0  0  0  0  0999 V2000
    5.0281    1.7726   16.7508 H   0  0  0  0  0  0  0  0  0  0  0  0
    5.4465    1.2573   17.6122 C   0  0  0  0  0  0  0  0  0  0  0  0
    6.5927    0.5907   17.4040 N   0  0  0  0  0  0  0  0  0  0  0  0
    7.1556   -0.0169   18.4523 C   0  0  0  0  0  0  0  0  0  0  0  0
    8.0676   -0.5728   18.2430 H   0  0  0  0  0  0  0  0  0  0  0  0
    6.6369    0.0344   19.7620 C   0  0  0  0  0  0  0  0  0  0  0  0
    7.4108   -0.4867   20.9060 C   0  0  0  0  0  0  0  0  0  0  0  0
    8.5721   -1.1280   20.6965 N   0  0  0  0  0  0  0  0  0  0  0  0
    8.9940   -1.4015   21.9471 N   0  0  0  0  0  0  0  0  0  0  0  0
   10.0307   -2.1616   22.4630 C   0  0  0  0  0  0  0  0  0  0  0  0
   10.7478   -2.5902   21.7831 H   0  0  0  0  0  0  0  0  0  0  0  0
    9.8620   -2.1474   23.8084 C   0  0  0  0  0  0  0  0  0  0  0  0
   10.3709   -2.6507   24.6163 H   0  0  0  0  0  0  0  0  0  0  0  0
    8.7582   -1.3638   24.1201 N   0  0  0  0  0  0  0  0  0  0  0  0
    8.2823   -1.2363   25.4261 N   0  0  0  0  0  0  0  0  0  0  0  0
    9.0323   -0.2446   26.2447 C   0  0  0  0  0  0  0  0  0  0  0  0
    8.8872    0.7802   25.8626 H   0  0  0  0  0  0  0  0  0  0  0  0
   10.1089   -0.4442   26.1706 H   0  0  0  0  0  0  0  0  0  0  0  0
    8.5667   -0.4182   27.6944 C   0  0  0  0  0  0  0  0  0  0  0  0
    9.1120    0.1969   28.4083 H   0  0  0  0  0  0  0  0  0  0  0  0
    8.7817   -1.4517   27.9710 H   0  0  0  0  0  0  0  0  0  0  0  0
    7.0575   -0.1587   27.8524 C   0  0  0  0  0  0  0  0  0  0  0  0
    6.7437   -0.3793   28.8939 H   0  0  0  0  0  0  0  0  0  0  0  0
    6.7062    1.2361   27.5231 N   0  0  0  0  0  0  0  0  0  0  0  0
    7.6465    2.2508   28.0070 C   0  0  0  0  0  0  0  0  0  0  0  0
    8.5348    2.2981   27.3701 H   0  0  0  0  0  0  0  0  0  0  0  0
    7.9924    2.1057   29.0464 H   0  0  0  0  0  0  0  0  0  0  0  0
    7.1847    3.2406   27.9549 H   0  0  0  0  0  0  0  0  0  0  0  0
    5.3350    1.5501   27.9104 C   0  0  0  0  0  0  0  0  0  0  0  0
    5.1282    1.3768   28.9845 H   0  0  0  0  0  0  0  0  0  0  0  0
    5.1218    2.6022   27.6964 H   0  0  0  0  0  0  0  0  0  0  0  0
    4.6223    0.9579   27.3296 H   0  0  0  0  0  0  0  0  0  0  0  0
    6.3356   -1.1605   26.9349 C   0  0  0  0  0  0  0  0  0  0  0  0
    6.5626   -2.1741   27.2812 H   0  0  0  0  0  0  0  0  0  0  0  0
    5.2479   -1.0471   26.9944 H   0  0  0  0  0  0  0  0  0  0  0  0
    6.8094   -1.0353   25.4921 C   0  0  0  0  0  0  0  0  0  0  0  0
    6.5201   -0.0486   25.0883 H   0  0  0  0  0  0  0  0  0  0  0  0
    6.3229   -1.7954   24.8672 H   0  0  0  0  0  0  0  0  0  0  0  0
    8.1858   -0.9455   22.9225 C   0  0  0  0  0  0  0  0  0  0  0  0
    7.0971   -0.3540   22.2832 C   0  0  0  0  0  0  0  0  0  0  0  0
    6.2115    0.0609   22.7386 H   0  0  0  0  0  0  0  0  0  0  0  0
    5.3900    0.6617   19.9379 C   0  0  0  0  0  0  0  0  0  0  0  0
    4.8893    0.6625   20.9072 H   0  0  0  0  0  0  0  0  0  0  0  0
    4.7987    1.2944   18.8499 C   0  0  0  0  0  0  0  0  0  0  0  0
    3.8655    1.8377   18.9484 H   0  0  0  0  0  0  0  0  0  0  0  0
  1  2  1  0
  2  3  2  0
  3  4  1  0
  4  5  1  0
  4  6  2  0
  6  7  1  0
  7  8  2  0
  8  9  1  0
  9 10  1  0
 10 11  1  0
 10 12  2  0
 12 13  1  0
 12 14  1  0
 14 15  1  0
 15 16  1  0
 16 17  1  0
 16 18  1  0
 16 19  1  0
 19 20  1  0
 19 21  1  0
 19 22  1  0
 22 23  1  0
 22 24  1  0
 24 25  1  0
 25 26  1  0
 25 27  1  0
 25 28  1  0
 24 29  1  0
 29 30  1  0
 29 31  1  0
 29 32  1  0
 22 33  1  0
 33 34  1  0
 33 35  1  0
 33 36  1  0
 36 37  1  0
 36 38  1  0
 14 39  1  0
 39 40  2  0
 40 41  1  0
  6 42  1  0
 42 43  1  0
 42 44  2  0
 44 45  1  0
 44  2  1  0
 40  7  1  0
 39  9  1  0
 36 15  1  0
M  END
>  <cnnaffinity>  (1) 
-5.24153

>  <filename>  (1) 
CN(C)C1CCN(n2ccn3nc(-c4cccnc4)cc23)CC1

$$$$
