
     RDKit          3D

 38 39  0  0  0  0  0  0  0  0999 V2000
    5.0105    1.7548   17.0333 H   0  0  0  0  0  0  0  0  0  0  0  0
    5.4787    1.2467   17.8728 C   0  0  0  0  0  0  0  0  0  0  0  0
    6.6371    0.6176   17.6136 N   0  0  0  0  0  0  0  0  0  0  0  0
    7.2319   -0.0078   18.6365 C   0  0  0  0  0  0  0  0  0  0  0  0
    8.1651   -0.5182   18.4152 H   0  0  0  0  0  0  0  0  0  0  0  0
    6.7287   -0.0475   19.9692 C   0  0  0  0  0  0  0  0  0  0  0  0
    7.4052   -0.6612   20.9864 N   0  0  0  0  0  0  0  0  0  0  0  0
    8.6872   -1.3382   21.0435 C   0  0  0  0  0  0  0  0  0  0  0  0
    9.5554   -0.7075   20.8106 H   0  0  0  0  0  0  0  0  0  0  0  0
    8.7515   -2.2409   20.4320 H   0  0  0  0  0  0  0  0  0  0  0  0
    8.3898   -1.6177   22.5309 C   0  0  0  0  0  0  0  0  0  0  0  0
    9.0659   -1.1455   23.2419 H   0  0  0  0  0  0  0  0  0  0  0  0
    8.2052   -3.0829   22.8474 C   0  0  0  0  0  0  0  0  0  0  0  0
    8.5321   -3.9930   22.1070 O   0  0  0  0  0  0  0  0  0  0  0  0
    7.5771   -3.2958   24.0376 N   0  0  0  0  0  0  0  0  0  0  0  0
    7.1054   -2.4982   24.4262 H   0  0  0  0  0  0  0  0  0  0  0  0
    7.1157   -4.6247   24.4275 C   0  0  0  0  0  0  0  0  0  0  0  0
    7.9588   -5.3243   24.3798 H   0  0  0  0  0  0  0  0  0  0  0  0
    6.7759   -4.5896   25.4690 H   0  0  0  0  0  0  0  0  0  0  0  0
    6.0038   -5.1811   23.5169 C   0  0  0  0  0  0  0  0  0  0  0  0
    6.3655   -5.0961   22.4827 H   0  0  0  0  0  0  0  0  0  0  0  0
    5.0942   -4.5544   23.5798 H   0  0  0  0  0  0  0  0  0  0  0  0
    5.7273   -6.5704   23.8283 N   0  0  0  0  0  0  0  0  0  0  0  0
    5.5748   -7.4061   22.6599 C   0  0  0  0  0  0  0  0  0  0  0  0
    4.6295   -7.2037   22.1208 H   0  0  0  0  0  0  0  0  0  0  0  0
    5.6293   -8.4639   22.9488 H   0  0  0  0  0  0  0  0  0  0  0  0
    6.4072   -7.2242   21.9672 H   0  0  0  0  0  0  0  0  0  0  0  0
    4.7297   -6.7751   24.8606 C   0  0  0  0  0  0  0  0  0  0  0  0
    3.7340   -6.3627   24.6088 H   0  0  0  0  0  0  0  0  0  0  0  0
    4.5984   -7.8453   25.0535 H   0  0  0  0  0  0  0  0  0  0  0  0
    5.0573   -6.3069   25.7972 H   0  0  0  0  0  0  0  0  0  0  0  0
    7.0443   -0.8610   22.3724 C   0  0  0  0  0  0  0  0  0  0  0  0
    6.9408    0.0636   22.9533 H   0  0  0  0  0  0  0  0  0  0  0  0
    6.1505   -1.4815   22.5196 H   0  0  0  0  0  0  0  0  0  0  0  0
    5.4973    0.5953   20.2064 C   0  0  0  0  0  0  0  0  0  0  0  0
    5.0649    0.5810   21.2087 H   0  0  0  0  0  0  0  0  0  0  0  0
    4.8777    1.2525   19.1402 C   0  0  0  0  0  0  0  0  0  0  0  0
    3.9434    1.7828   19.2841 H   0  0  0  0  0  0  0  0  0  0  0  0
  1  2  1  0
  2  3  2  0
  3  4  1  0
  4  5  1  0
  4  6  2  0
  6  7  1  0
  7  8  1  0
  8  9  1  0
  8 10  1  0
  8 11  1  0
 11 12  1  0
 11 13  1  0
 13 14  2  0
 13 15  1  0
 15 16  1  0
 15 17  1  0
 17 18  1  0
 17 19  1  0
 17 20  1  0
 20 21  1  0
 20 22  1  0
 20 23  1  0
 23 24  1  0
 24 25  1  0
 24 26  1  0
 24 27  1  0
 23 28  1  0
 28 29  1  0
 28 30  1  0
 28 31  1  0
 11 32  1  0
 32 33  1  0
 32 34  1  0
  6 35  1  0
 35 36  1  0
 35 37  2  0
 37 38  1  0
 37  2  1  0
 32  7  1  0
M  END
>  <cnnaffinity>  (1) 
-4.49219

>  <filename>  (1) 
CN(C)CCNC(=O)C1CN(c2cccnc2)C1

$$$$
