
     RDKit          3D

 32 34  0  0  0  0  0  0  0  0999 V2000
    4.9585    1.7897   16.9629 H   0  0  0  0  0  0  0  0  0  0  0  0
    5.4050    1.3015   17.8252 C   0  0  0  0  0  0  0  0  0  0  0  0
    6.5671    0.6652   17.6099 N   0  0  0  0  0  0  0  0  0  0  0  0
    7.1550    0.0830   18.6564 C   0  0  0  0  0  0  0  0  0  0  0  0
    8.0795   -0.4588   18.4501 H   0  0  0  0  0  0  0  0  0  0  0  0
    6.6467    0.1394   19.9637 C   0  0  0  0  0  0  0  0  0  0  0  0
    7.4202   -0.5130   21.0108 C   0  0  0  0  0  0  0  0  0  0  0  0
    7.9794   -1.7555   20.7774 N   0  0  0  0  0  0  0  0  0  0  0  0
    8.4740   -2.1286   21.9273 C   0  0  0  0  0  0  0  0  0  0  0  0
    9.2201   -3.5145   22.6761 S   0  0  0  0  0  0  0  0  0  0  0  0
    9.4665   -2.6142   24.1672 C   0  0  0  0  0  0  0  0  0  0  0  0
   10.0455   -3.0809   24.9497 H   0  0  0  0  0  0  0  0  0  0  0  0
    8.9249   -1.3867   24.1238 C   0  0  0  0  0  0  0  0  0  0  0  0
    8.8696   -0.5955   24.8638 H   0  0  0  0  0  0  0  0  0  0  0  0
    8.3543   -1.1525   22.8846 N   0  0  0  0  0  0  0  0  0  0  0  0
    7.7061   -0.1188   22.2863 C   0  0  0  0  0  0  0  0  0  0  0  0
    7.2376    1.3168   23.0831 S   0  0  0  0  0  0  0  0  0  0  0  0
    5.8118    1.2438   23.3509 O   0  0  0  0  0  0  0  0  0  0  0  0
    8.1966    1.5743   24.1483 O   0  0  0  0  0  0  0  0  0  0  0  0
    7.4745    2.4359   21.8769 N   0  0  0  0  0  0  0  0  0  0  0  0
    8.8585    2.4688   21.3980 C   0  0  0  0  0  0  0  0  0  0  0  0
    9.1434    1.5096   20.9546 H   0  0  0  0  0  0  0  0  0  0  0  0
    9.5862    2.7291   22.1784 H   0  0  0  0  0  0  0  0  0  0  0  0
    8.9160    3.2006   20.5939 H   0  0  0  0  0  0  0  0  0  0  0  0
    6.9157    3.7393   22.2736 C   0  0  0  0  0  0  0  0  0  0  0  0
    6.9432    4.4203   21.4130 H   0  0  0  0  0  0  0  0  0  0  0  0
    7.4459    4.2108   23.1175 H   0  0  0  0  0  0  0  0  0  0  0  0
    5.8660    3.6010   22.5432 H   0  0  0  0  0  0  0  0  0  0  0  0
    5.3986    0.7510   20.1639 C   0  0  0  0  0  0  0  0  0  0  0  0
    4.9318    0.7581   21.1504 H   0  0  0  0  0  0  0  0  0  0  0  0
    4.7752    1.3466   19.0707 C   0  0  0  0  0  0  0  0  0  0  0  0
    3.8179    1.8407   19.1765 H   0  0  0  0  0  0  0  0  0  0  0  0
  1  2  1  0
  2  3  2  0
  3  4  1  0
  4  5  1  0
  4  6  2  0
  6  7  1  0
  7  8  1  0
  8  9  2  0
  9 10  1  0
 10 11  1  0
 11 12  1  0
 11 13  2  0
 13 14  1  0
 13 15  1  0
 15 16  1  0
 16 17  1  0
 17 18  2  0
 17 19  2  0
 17 20  1  0
 20 21  1  0
 21 22  1  0
 21 23  1  0
 21 24  1  0
 20 25  1  0
 25 26  1  0
 25 27  1  0
 25 28  1  0
  6 29  1  0
 29 30  1  0
 29 31  2  0
 31 32  1  0
 31  2  1  0
 16  7  2  0
 15  9  1  0
M  END
>  <cnnaffinity>  (1) 
-5.17033

>  <filename>  (1) 
CN(C)S(=O)(=O)c1c(-c2cccnc2)nc2sccn12

$$$$
