
     RDKit          3D

 40 42  0  0  0  0  0  0  0  0999 V2000
    4.9931    1.8188   17.0052 H   0  0  0  0  0  0  0  0  0  0  0  0
    5.4090    1.2698   17.8498 C   0  0  0  0  0  0  0  0  0  0  0  0
    6.5560    0.6116   17.6320 N   0  0  0  0  0  0  0  0  0  0  0  0
    7.1110   -0.0211   18.6707 C   0  0  0  0  0  0  0  0  0  0  0  0
    8.0697   -0.4979   18.4767 H   0  0  0  0  0  0  0  0  0  0  0  0
    6.5496   -0.0807   19.9633 C   0  0  0  0  0  0  0  0  0  0  0  0
    7.2370   -0.8385   21.0463 C   0  0  0  0  0  0  0  0  0  0  0  0
    6.5205   -1.6478   21.8047 N   0  0  0  0  0  0  0  0  0  0  0  0
    7.1414   -2.3419   22.8337 C   0  0  0  0  0  0  0  0  0  0  0  0
    6.3685   -3.1888   23.5988 N   0  0  0  0  0  0  0  0  0  0  0  0
    4.9295   -3.4077   23.4615 C   0  0  0  0  0  0  0  0  0  0  0  0
    4.6278   -3.4287   22.4116 H   0  0  0  0  0  0  0  0  0  0  0  0
    4.3771   -2.6218   23.9846 H   0  0  0  0  0  0  0  0  0  0  0  0
    4.6758   -4.6634   24.2815 C   0  0  0  0  0  0  0  0  0  0  0  0
    4.9545   -5.5957   23.7778 H   0  0  0  0  0  0  0  0  0  0  0  0
    3.6320   -4.7382   24.6017 H   0  0  0  0  0  0  0  0  0  0  0  0
    5.6043   -4.4469   25.4745 C   0  0  1  0  0  0  0  0  0  0  0  0
    5.1803   -3.6155   26.0836 H   0  0  0  0  0  0  0  0  0  0  0  0
    5.7891   -5.6623   26.2604 N   0  0  0  0  0  0  0  0  0  0  0  0
    6.8164   -5.5588   27.2892 C   0  0  0  0  0  0  0  0  0  0  0  0
    6.5834   -4.8315   28.0916 H   0  0  0  0  0  0  0  0  0  0  0  0
    6.9750   -6.5396   27.7532 H   0  0  0  0  0  0  0  0  0  0  0  0
    7.7719   -5.2708   26.8395 H   0  0  0  0  0  0  0  0  0  0  0  0
    4.5246   -6.1661   26.7883 C   0  0  0  0  0  0  0  0  0  0  0  0
    3.8188   -6.3338   25.9702 H   0  0  0  0  0  0  0  0  0  0  0  0
    4.0436   -5.4837   27.5162 H   0  0  0  0  0  0  0  0  0  0  0  0
    4.6684   -7.1387   27.2687 H   0  0  0  0  0  0  0  0  0  0  0  0
    6.8685   -3.8661   24.8001 C   0  0  0  0  0  0  0  0  0  0  0  0
    7.3731   -3.1744   25.4851 H   0  0  0  0  0  0  0  0  0  0  0  0
    7.5845   -4.6526   24.5335 H   0  0  0  0  0  0  0  0  0  0  0  0
    8.4973   -2.2020   23.0863 C   0  0  0  0  0  0  0  0  0  0  0  0
    8.9851   -2.7313   23.8994 H   0  0  0  0  0  0  0  0  0  0  0  0
    9.2620   -1.3800   22.2853 N   0  0  0  0  0  0  0  0  0  0  0  0
   10.2617   -1.2032   22.3898 H   0  0  0  0  0  0  0  0  0  0  0  0
    8.7478   -0.6476   21.2229 C   0  0  0  0  0  0  0  0  0  0  0  0
    9.5291    0.0427   20.5830 O   0  0  0  0  0  0  0  0  0  0  0  0
    5.3360    0.5994   20.1625 C   0  0  0  0  0  0  0  0  0  0  0  0
    4.8533    0.5977   21.1408 H   0  0  0  0  0  0  0  0  0  0  0  0
    4.7690    1.2965   19.0930 C   0  0  0  0  0  0  0  0  0  0  0  0
    3.8607    1.8774   19.2088 H   0  0  0  0  0  0  0  0  0  0  0  0
  1  2  1  0
  2  3  2  0
  3  4  1  0
  4  5  1  0
  4  6  2  0
  6  7  1  0
  7  8  2  0
  8  9  1  0
  9 10  1  0
 10 11  1  0
 11 12  1  0
 11 13  1  0
 11 14  1  0
 14 15  1  0
 14 16  1  0
 14 17  1  0
 17 18  1  1
 17 19  1  0
 19 20  1  0
 20 21  1  0
 20 22  1  0
 20 23  1  0
 19 24  1  0
 24 25  1  0
 24 26  1  0
 24 27  1  0
 17 28  1  0
 28 29  1  0
 28 30  1  0
  9 31  2  0
 31 32  1  0
 31 33  1  0
 33 34  1  0
 33 35  1  0
 35 36  2  0
  6 37  1  0
 37 38  1  0
 37 39  2  0
 39 40  1  0
 39  2  1  0
 35  7  1  0
 28 10  1  0
M  END
>  <cnnaffinity>  (1) 
-5.21775

>  <filename>  (1) 
CN(C)[C@@H]1CCN(c2c[nH]c(=O)c(-c3cccnc3)n2)C1

$$$$
