
     RDKit          3D

 37 38  0  0  0  0  0  0  0  0999 V2000
    4.9977    1.7434   17.0488 H   0  0  0  0  0  0  0  0  0  0  0  0
    5.4494    1.2699   17.9172 C   0  0  0  0  0  0  0  0  0  0  0  0
    6.6136    0.6404   17.7061 N   0  0  0  0  0  0  0  0  0  0  0  0
    7.1837    0.0427   18.7513 C   0  0  0  0  0  0  0  0  0  0  0  0
    8.1209   -0.4758   18.5553 H   0  0  0  0  0  0  0  0  0  0  0  0
    6.6483    0.0487   20.0503 C   0  0  0  0  0  0  0  0  0  0  0  0
    7.4477   -0.7391   21.0441 C   0  0  0  0  0  0  0  0  0  0  0  0
    8.2264   -1.5862   20.6853 O   0  0  0  0  0  0  0  0  0  0  0  0
    7.2484   -0.3893   22.3639 N   0  0  0  0  0  0  0  0  0  0  0  0
    6.8860    0.5123   22.5797 H   0  0  0  0  0  0  0  0  0  0  0  0
    7.6793   -1.1678   23.4256 C   0  0  0  0  0  0  0  0  0  0  0  0
    8.1176   -2.2873   23.2820 O   0  0  0  0  0  0  0  0  0  0  0  0
    7.5560   -0.5785   24.6640 N   0  0  0  0  0  0  0  0  0  0  0  0
    8.0664   -1.3378   25.8129 C   0  0  0  0  0  0  0  0  0  0  0  0
    7.4755   -2.2541   25.9475 H   0  0  0  0  0  0  0  0  0  0  0  0
    9.1001   -1.6532   25.6196 H   0  0  0  0  0  0  0  0  0  0  0  0
    7.9400   -0.3874   26.9936 C   0  0  0  0  0  0  0  0  0  0  0  0
    7.6940   -0.9256   27.9139 H   0  0  0  0  0  0  0  0  0  0  0  0
    8.8755    0.1652   27.1406 H   0  0  0  0  0  0  0  0  0  0  0  0
    6.8264    0.6026   26.6223 C   0  0  1  0  0  0  0  0  0  0  0  0
    5.8484    0.1406   26.8697 H   0  0  0  0  0  0  0  0  0  0  0  0
    6.9637    1.9077   27.2849 N   0  0  0  0  0  0  0  0  0  0  0  0
    5.9481    2.8586   26.8479 C   0  0  0  0  0  0  0  0  0  0  0  0
    6.0144    3.0194   25.7679 H   0  0  0  0  0  0  0  0  0  0  0  0
    4.9186    2.5272   27.0844 H   0  0  0  0  0  0  0  0  0  0  0  0
    6.1149    3.8320   27.3247 H   0  0  0  0  0  0  0  0  0  0  0  0
    7.0029    1.8283   28.7441 C   0  0  0  0  0  0  0  0  0  0  0  0
    7.1165    2.8368   29.1608 H   0  0  0  0  0  0  0  0  0  0  0  0
    6.0921    1.3805   29.1875 H   0  0  0  0  0  0  0  0  0  0  0  0
    7.8673    1.2516   29.0892 H   0  0  0  0  0  0  0  0  0  0  0  0
    6.9174    0.6756   25.0740 C   0  0  0  0  0  0  0  0  0  0  0  0
    7.5078    1.5527   24.7814 H   0  0  0  0  0  0  0  0  0  0  0  0
    5.9118    0.7915   24.6482 H   0  0  0  0  0  0  0  0  0  0  0  0
    5.4156    0.6942   20.2544 C   0  0  0  0  0  0  0  0  0  0  0  0
    4.9016    0.6990   21.2200 H   0  0  0  0  0  0  0  0  0  0  0  0
    4.8105    1.3166   19.1608 C   0  0  0  0  0  0  0  0  0  0  0  0
    3.8597    1.8332   19.2563 H   0  0  0  0  0  0  0  0  0  0  0  0
  1  2  1  0
  2  3  2  0
  3  4  1  0
  4  5  1  0
  4  6  2  0
  6  7  1  0
  7  8  2  0
  7  9  1  0
  9 10  1  0
  9 11  1  0
 11 12  2  0
 11 13  1  0
 13 14  1  0
 14 15  1  0
 14 16  1  0
 14 17  1  0
 17 18  1  0
 17 19  1  0
 17 20  1  0
 20 21  1  6
 20 22  1  0
 22 23  1  0
 23 24  1  0
 23 25  1  0
 23 26  1  0
 22 27  1  0
 27 28  1  0
 27 29  1  0
 27 30  1  0
 20 31  1  0
 31 32  1  0
 31 33  1  0
  6 34  1  0
 34 35  1  0
 34 36  2  0
 36 37  1  0
 36  2  1  0
 31 13  1  0
M  END
>  <cnnaffinity>  (1) 
-4.3417

>  <filename>  (1) 
CN(C)[C@@H]1CCN(C(=O)NC(=O)c2cccnc2)C1

$$$$
