
     RDKit          3D

 31 32  0  0  0  0  0  0  0  0999 V2000
    4.9645    1.7788   16.9881 H   0  0  0  0  0  0  0  0  0  0  0  0
    5.4411    1.3008   17.8379 C   0  0  0  0  0  0  0  0  0  0  0  0
    6.6187    0.6998   17.5873 N   0  0  0  0  0  0  0  0  0  0  0  0
    7.2356    0.0863   18.6027 C   0  0  0  0  0  0  0  0  0  0  0  0
    8.2000   -0.3737   18.3992 H   0  0  0  0  0  0  0  0  0  0  0  0
    6.6865    0.0075   19.8939 C   0  0  0  0  0  0  0  0  0  0  0  0
    7.3830   -0.7071   20.9175 N   0  0  0  0  0  0  0  0  0  0  0  0
    8.7167   -0.4020   21.0390 N   0  0  0  0  0  0  0  0  0  0  0  0
    9.3925   -0.9138   22.0379 C   0  0  0  0  0  0  0  0  0  0  0  0
   10.8527   -0.4700   22.2150 C   0  0  0  0  0  0  0  0  0  0  0  0
   11.4709   -1.3790   22.2966 H   0  0  0  0  0  0  0  0  0  0  0  0
   11.1255    0.0400   21.2770 H   0  0  0  0  0  0  0  0  0  0  0  0
   11.1148    0.3637   23.4072 N   0  0  0  0  0  0  0  0  0  0  0  0
   12.5264    0.5440   23.7248 C   0  0  0  0  0  0  0  0  0  0  0  0
   12.6074    1.0375   24.6987 H   0  0  0  0  0  0  0  0  0  0  0  0
   13.0817    1.1856   23.0129 H   0  0  0  0  0  0  0  0  0  0  0  0
   13.0446   -0.4123   23.8128 H   0  0  0  0  0  0  0  0  0  0  0  0
   10.4656    1.6660   23.3351 C   0  0  0  0  0  0  0  0  0  0  0  0
   10.5452    2.1732   24.3032 H   0  0  0  0  0  0  0  0  0  0  0  0
    9.4038    1.5411   23.1193 H   0  0  0  0  0  0  0  0  0  0  0  0
   10.9013    2.3321   22.5630 H   0  0  0  0  0  0  0  0  0  0  0  0
    8.8058   -1.8860   22.9314 C   0  0  0  0  0  0  0  0  0  0  0  0
    9.4250   -2.3061   23.7230 H   0  0  0  0  0  0  0  0  0  0  0  0
    7.5123   -2.2615   22.7487 C   0  0  0  0  0  0  0  0  0  0  0  0
    6.9833   -2.9907   23.3559 H   0  0  0  0  0  0  0  0  0  0  0  0
    6.6974   -1.7249   21.6663 C   0  0  0  0  0  0  0  0  0  0  0  0
    5.5674   -2.1003   21.3927 O   0  0  0  0  0  0  0  0  0  0  0  0
    5.4602    0.6367   20.1502 C   0  0  0  0  0  0  0  0  0  0  0  0
    5.0174    0.5982   21.1436 H   0  0  0  0  0  0  0  0  0  0  0  0
    4.8314    1.3098   19.0971 C   0  0  0  0  0  0  0  0  0  0  0  0
    3.8836    1.8267   19.2313 H   0  0  0  0  0  0  0  0  0  0  0  0
  1  2  1  0
  2  3  2  0
  3  4  1  0
  4  5  1  0
  4  6  2  0
  6  7  1  0
  7  8  1  0
  8  9  2  0
  9 10  1  0
 10 11  1  0
 10 12  1  0
 10 13  1  0
 13 14  1  0
 14 15  1  0
 14 16  1  0
 14 17  1  0
 13 18  1  0
 18 19  1  0
 18 20  1  0
 18 21  1  0
  9 22  1  0
 22 23  1  0
 22 24  2  0
 24 25  1  0
 24 26  1  0
 26 27  2  0
  6 28  1  0
 28 29  1  0
 28 30  2  0
 30 31  1  0
 30  2  1  0
 26  7  1  0
M  END
>  <cnnaffinity>  (1) 
-4.71471

>  <filename>  (1) 
CN(C)Cc1ccc(=O)n(-c2cccnc2)n1

$$$$
