
     RDKit          3D

 36 38  0  0  0  0  0  0  0  0999 V2000
    4.9356    1.8260   16.9584 H   0  0  0  0  0  0  0  0  0  0  0  0
    5.3813    1.3014   17.8038 C   0  0  0  0  0  0  0  0  0  0  0  0
    6.5317    0.6566   17.5512 N   0  0  0  0  0  0  0  0  0  0  0  0
    7.1283    0.0252   18.5661 C   0  0  0  0  0  0  0  0  0  0  0  0
    8.0789   -0.4570   18.3399 H   0  0  0  0  0  0  0  0  0  0  0  0
    6.6211    0.0020   19.8700 C   0  0  0  0  0  0  0  0  0  0  0  0
    7.3748   -0.6670   20.9277 C   0  0  0  0  0  0  0  0  0  0  0  0
    7.3503   -2.0389   21.0289 N   0  0  0  0  0  0  0  0  0  0  0  0
    8.0500   -2.2852   22.1037 C   0  0  0  0  0  0  0  0  0  0  0  0
    8.5134   -3.7129   22.9766 S   0  0  0  0  0  0  0  0  0  0  0  0
    9.4283   -2.7320   24.1114 C   0  0  0  0  0  0  0  0  0  0  0  0
    9.9618   -3.2206   24.9184 H   0  0  0  0  0  0  0  0  0  0  0  0
    9.3623   -1.4174   23.8384 C   0  0  0  0  0  0  0  0  0  0  0  0
    9.8340   -0.5998   24.3784 H   0  0  0  0  0  0  0  0  0  0  0  0
    8.5749   -1.1673   22.7134 N   0  0  0  0  0  0  0  0  0  0  0  0
    8.1532   -0.1087   21.9356 C   0  0  0  0  0  0  0  0  0  0  0  0
    8.6023    1.1003   22.2475 O   0  0  0  0  0  0  0  0  0  0  0  0
    8.1517    2.2113   21.4628 C   0  0  0  0  0  0  0  0  0  0  0  0
    8.4544    2.0567   20.4200 H   0  0  0  0  0  0  0  0  0  0  0  0
    7.0579    2.2896   21.4833 H   0  0  0  0  0  0  0  0  0  0  0  0
    8.8193    3.4665   21.9980 C   0  0  0  0  0  0  0  0  0  0  0  0
    8.5234    4.2943   21.3267 H   0  0  0  0  0  0  0  0  0  0  0  0
    9.9002    3.2861   21.9113 H   0  0  0  0  0  0  0  0  0  0  0  0
    8.5365    3.8178   23.3857 N   0  0  0  0  0  0  0  0  0  0  0  0
    7.2272    4.4225   23.5467 C   0  0  0  0  0  0  0  0  0  0  0  0
    6.4601    3.7551   23.1356 H   0  0  0  0  0  0  0  0  0  0  0  0
    7.1360    5.4026   23.0335 H   0  0  0  0  0  0  0  0  0  0  0  0
    7.0243    4.5620   24.6150 H   0  0  0  0  0  0  0  0  0  0  0  0
    9.5973    4.6198   23.9769 C   0  0  0  0  0  0  0  0  0  0  0  0
   10.5502    4.0796   23.9088 H   0  0  0  0  0  0  0  0  0  0  0  0
    9.3761    4.7753   25.0378 H   0  0  0  0  0  0  0  0  0  0  0  0
    9.7357    5.6125   23.5023 H   0  0  0  0  0  0  0  0  0  0  0  0
    5.4058    0.6563   20.1198 C   0  0  0  0  0  0  0  0  0  0  0  0
    4.9822    0.6555   21.1250 H   0  0  0  0  0  0  0  0  0  0  0  0
    4.7780    1.3198   19.0656 C   0  0  0  0  0  0  0  0  0  0  0  0
    3.8526    1.8664   19.2136 H   0  0  0  0  0  0  0  0  0  0  0  0
  1  2  1  0
  2  3  2  0
  3  4  1  0
  4  5  1  0
  4  6  2  0
  6  7  1  0
  7  8  1  0
  8  9  2  0
  9 10  1  0
 10 11  1  0
 11 12  1  0
 11 13  2  0
 13 14  1  0
 13 15  1  0
 15 16  1  0
 16 17  1  0
 17 18  1  0
 18 19  1  0
 18 20  1  0
 18 21  1  0
 21 22  1  0
 21 23  1  0
 21 24  1  0
 24 25  1  0
 25 26  1  0
 25 27  1  0
 25 28  1  0
 24 29  1  0
 29 30  1  0
 29 31  1  0
 29 32  1  0
  6 33  1  0
 33 34  1  0
 33 35  2  0
 35 36  1  0
 35  2  1  0
 16  7  2  0
 15  9  1  0
M  END
>  <cnnaffinity>  (1) 
-5.02778

>  <filename>  (1) 
CN(C)CCOc1c(-c2cccnc2)nc2sccn12

$$$$
