
     RDKit          3D

 45 48  0  0  0  0  0  0  0  0999 V2000
    5.0491    1.8555   17.0394 H   0  0  0  0  0  0  0  0  0  0  0  0
    5.5463    1.3053   17.8392 C   0  0  0  0  0  0  0  0  0  0  0  0
    6.6910    0.6859   17.5152 N   0  0  0  0  0  0  0  0  0  0  0  0
    7.3316    0.0024   18.4732 C   0  0  0  0  0  0  0  0  0  0  0  0
    8.2681   -0.4632   18.1723 H   0  0  0  0  0  0  0  0  0  0  0  0
    6.8464   -0.1354   19.7887 C   0  0  0  0  0  0  0  0  0  0  0  0
    7.5333   -0.9280   20.7419 N   0  0  0  0  0  0  0  0  0  0  0  0
    8.8725   -0.8298   21.1139 C   0  0  0  0  0  0  0  0  0  0  0  0
    9.4938   -0.0781   20.6461 H   0  0  0  0  0  0  0  0  0  0  0  0
    9.1345   -1.7373   22.0943 C   0  0  0  0  0  0  0  0  0  0  0  0
   10.0124   -1.9386   22.6798 H   0  0  0  0  0  0  0  0  0  0  0  0
    7.9447   -2.4132   22.3259 N   0  0  0  0  0  0  0  0  0  0  0  0
    7.5153   -3.3890   23.1791 N   0  0  0  0  0  0  0  0  0  0  0  0
    6.2044   -3.4514   22.8998 C   0  0  0  0  0  0  0  0  0  0  0  0
    5.3301   -4.3420   23.5056 N   0  0  0  0  0  0  0  0  0  0  0  0
    5.5400   -4.8638   24.8620 C   0  0  0  0  0  0  0  0  0  0  0  0
    6.6083   -4.9372   25.0673 H   0  0  0  0  0  0  0  0  0  0  0  0
    5.1158   -4.1844   25.6250 H   0  0  0  0  0  0  0  0  0  0  0  0
    4.8767   -6.2439   24.9829 C   0  0  0  0  0  0  0  0  0  0  0  0
    5.0409   -6.6694   25.9769 H   0  0  0  0  0  0  0  0  0  0  0  0
    5.3463   -6.9427   24.2795 H   0  0  0  0  0  0  0  0  0  0  0  0
    3.3704   -6.1751   24.6646 C   0  0  0  0  0  0  0  0  0  0  0  0
    2.9635   -7.2079   24.6622 H   0  0  0  0  0  0  0  0  0  0  0  0
    2.6239   -5.3576   25.6385 N   0  0  0  0  0  0  0  0  0  0  0  0
    1.2020   -5.2321   25.3055 C   0  0  0  0  0  0  0  0  0  0  0  0
    0.6913   -4.6831   26.1022 H   0  0  0  0  0  0  0  0  0  0  0  0
    0.6941   -6.2103   25.1814 H   0  0  0  0  0  0  0  0  0  0  0  0
    1.0554   -4.6461   24.3919 H   0  0  0  0  0  0  0  0  0  0  0  0
    2.7791   -5.8279   27.0162 C   0  0  0  0  0  0  0  0  0  0  0  0
    2.4864   -6.8888   27.1535 H   0  0  0  0  0  0  0  0  0  0  0  0
    3.8094   -5.7028   27.3636 H   0  0  0  0  0  0  0  0  0  0  0  0
    2.1564   -5.2146   27.6756 H   0  0  0  0  0  0  0  0  0  0  0  0
    3.2401   -5.5992   23.2508 C   0  0  0  0  0  0  0  0  0  0  0  0
    2.1912   -5.5145   22.9551 H   0  0  0  0  0  0  0  0  0  0  0  0
    3.7061   -6.2872   22.5379 H   0  0  0  0  0  0  0  0  0  0  0  0
    3.9166   -4.2392   23.1495 C   0  0  0  0  0  0  0  0  0  0  0  0
    3.8376   -3.9155   22.1124 H   0  0  0  0  0  0  0  0  0  0  0  0
    3.4040   -3.4985   23.7918 H   0  0  0  0  0  0  0  0  0  0  0  0
    5.8054   -2.5509   21.8777 C   0  0  0  0  0  0  0  0  0  0  0  0
    4.8076   -2.3292   21.5956 H   0  0  0  0  0  0  0  0  0  0  0  0
    6.9750   -1.9197   21.5282 C   0  0  0  0  0  0  0  0  0  0  0  0
    5.6528    0.5223   20.1240 C   0  0  0  0  0  0  0  0  0  0  0  0
    5.2671    0.4680   21.1429 H   0  0  0  0  0  0  0  0  0  0  0  0
    4.9982    1.2595   19.1285 C   0  0  0  0  0  0  0  0  0  0  0  0
    4.0797    1.7918   19.3395 H   0  0  0  0  0  0  0  0  0  0  0  0
  1  2  1  0
  2  3  2  0
  3  4  1  0
  4  5  1  0
  4  6  2  0
  6  7  1  0
  7  8  1  0
  8  9  1  0
  8 10  2  0
 10 11  1  0
 10 12  1  0
 12 13  1  0
 13 14  2  0
 14 15  1  0
 15 16  1  0
 16 17  1  0
 16 18  1  0
 16 19  1  0
 19 20  1  0
 19 21  1  0
 19 22  1  0
 22 23  1  0
 22 24  1  0
 24 25  1  0
 25 26  1  0
 25 27  1  0
 25 28  1  0
 24 29  1  0
 29 30  1  0
 29 31  1  0
 29 32  1  0
 22 33  1  0
 33 34  1  0
 33 35  1  0
 33 36  1  0
 36 37  1  0
 36 38  1  0
 14 39  1  0
 39 40  1  0
 39 41  2  0
  6 42  1  0
 42 43  1  0
 42 44  2  0
 44 45  1  0
 44  2  1  0
 41  7  1  0
 41 12  1  0
 36 15  1  0
M  END
>  <cnnaffinity>  (1) 
-5.3851

>  <filename>  (1) 
CN(C)C1CCN(c2cc3n(-c4cccnc4)ccn3n2)CC1

$$$$
