
     RDKit          3D

 32 34  0  0  0  0  0  0  0  0999 V2000
    5.0845    1.5468   16.7952 H   0  0  0  0  0  0  0  0  0  0  0  0
    5.5306    1.1714   17.7154 C   0  0  0  0  0  0  0  0  0  0  0  0
    6.6803    0.4837   17.6017 N   0  0  0  0  0  0  0  0  0  0  0  0
    7.2362   -0.0172   18.7137 C   0  0  0  0  0  0  0  0  0  0  0  0
    8.1788   -0.5500   18.5975 H   0  0  0  0  0  0  0  0  0  0  0  0
    6.6592    0.1234   19.9904 C   0  0  0  0  0  0  0  0  0  0  0  0
    7.2776   -0.5573   21.0591 O   0  0  0  0  0  0  0  0  0  0  0  0
    7.0886   -0.1666   22.3282 C   0  0  0  0  0  0  0  0  0  0  0  0
    6.6736    0.9965   22.7706 N   0  0  0  0  0  0  0  0  0  0  0  0
    6.6344    0.8800   24.1215 N   0  0  0  0  0  0  0  0  0  0  0  0
    7.0132   -0.2769   24.5032 N   0  0  0  0  0  0  0  0  0  0  0  0
    7.3165   -0.9938   23.3910 N   0  0  0  0  0  0  0  0  0  0  0  0
    7.8801   -2.2650   23.5119 N   0  0  0  0  0  0  0  0  0  0  0  0
    7.3963   -3.3213   22.6934 C   0  0  0  0  0  0  0  0  0  0  0  0
    8.3244   -4.1739   22.0757 C   0  0  0  0  0  0  0  0  0  0  0  0
    9.3658   -4.0227   22.3555 H   0  0  0  0  0  0  0  0  0  0  0  0
    7.8879   -5.1558   21.1771 C   0  0  0  0  0  0  0  0  0  0  0  0
    8.5997   -5.7724   20.6335 H   0  0  0  0  0  0  0  0  0  0  0  0
    6.5176   -5.3432   20.9641 C   0  0  0  0  0  0  0  0  0  0  0  0
    6.1818   -6.1439   20.3081 H   0  0  0  0  0  0  0  0  0  0  0  0
    5.5834   -4.5413   21.6332 C   0  0  0  0  0  0  0  0  0  0  0  0
    4.5156   -4.7050   21.4968 H   0  0  0  0  0  0  0  0  0  0  0  0
    6.0193   -3.5260   22.4912 C   0  0  0  0  0  0  0  0  0  0  0  0
    5.3219   -2.8696   23.0078 H   0  0  0  0  0  0  0  0  0  0  0  0
    8.7544   -2.4649   24.6624 C   0  0  0  0  0  0  0  0  0  0  0  0
    9.5492   -1.7113   24.6549 H   0  0  0  0  0  0  0  0  0  0  0  0
    9.1940   -3.4619   24.6136 H   0  0  0  0  0  0  0  0  0  0  0  0
    8.2118   -2.3643   25.6126 H   0  0  0  0  0  0  0  0  0  0  0  0
    5.4804    0.8693   20.1070 C   0  0  0  0  0  0  0  0  0  0  0  0
    5.0356    1.0562   21.0794 H   0  0  0  0  0  0  0  0  0  0  0  0
    4.9130    1.3995   18.9445 C   0  0  0  0  0  0  0  0  0  0  0  0
    4.0141    2.0081   18.9989 H   0  0  0  0  0  0  0  0  0  0  0  0
  1  2  1  0
  2  3  2  0
  3  4  1  0
  4  5  1  0
  4  6  2  0
  6  7  1  0
  7  8  1  0
  8  9  2  0
  9 10  1  0
 10 11  2  0
 11 12  1  0
 12 13  1  0
 13 14  1  0
 14 15  2  0
 15 16  1  0
 15 17  1  0
 17 18  1  0
 17 19  2  0
 19 20  1  0
 19 21  1  0
 21 22  1  0
 21 23  2  0
 23 24  1  0
 13 25  1  0
 25 26  1  0
 25 27  1  0
 25 28  1  0
  6 29  1  0
 29 30  1  0
 29 31  2  0
 31 32  1  0
 31  2  1  0
 12  8  1  0
 23 14  1  0
M  END
>  <cnnaffinity>  (1) 
-5.22869

>  <filename>  (1) 
CN(c1ccccc1)n1nnnc1Oc1cccnc1

$$$$
