
     RDKit          3D

 44 47  0  0  0  0  0  0  0  0999 V2000
    4.9614    1.8206   16.9771 H   0  0  0  0  0  0  0  0  0  0  0  0
    5.4113    1.2953   17.8151 C   0  0  0  0  0  0  0  0  0  0  0  0
    6.5628    0.6507   17.5669 N   0  0  0  0  0  0  0  0  0  0  0  0
    7.1598    0.0230   18.5848 C   0  0  0  0  0  0  0  0  0  0  0  0
    8.0920   -0.4851   18.3542 H   0  0  0  0  0  0  0  0  0  0  0  0
    6.6541    0.0152   19.8958 C   0  0  0  0  0  0  0  0  0  0  0  0
    7.3904   -0.6524   20.9661 C   0  0  0  0  0  0  0  0  0  0  0  0
    8.0734   -1.8316   20.7677 N   0  0  0  0  0  0  0  0  0  0  0  0
    8.4801   -2.1593   21.9645 C   0  0  0  0  0  0  0  0  0  0  0  0
    9.4155   -3.4565   22.6607 S   0  0  0  0  0  0  0  0  0  0  0  0
    9.4427   -2.6392   24.2071 C   0  0  0  0  0  0  0  0  0  0  0  0
   10.0370   -3.0632   25.0051 H   0  0  0  0  0  0  0  0  0  0  0  0
    8.7209   -1.5067   24.1974 C   0  0  0  0  0  0  0  0  0  0  0  0
    8.5500   -0.8009   25.0028 H   0  0  0  0  0  0  0  0  0  0  0  0
    8.1468   -1.2683   22.9487 N   0  0  0  0  0  0  0  0  0  0  0  0
    7.4568   -0.2530   22.3098 C   0  0  0  0  0  0  0  0  0  0  0  0
    7.1350    0.9047   22.9599 N   0  0  0  0  0  0  0  0  0  0  0  0
    6.2316    0.9067   24.1108 C   0  0  0  0  0  0  0  0  0  0  0  0
    5.2250    1.2206   23.7894 H   0  0  0  0  0  0  0  0  0  0  0  0
    6.1336   -0.1121   24.5031 H   0  0  0  0  0  0  0  0  0  0  0  0
    6.7864    1.8667   25.1616 C   0  0  0  0  0  0  0  0  0  0  0  0
    6.1417    1.9042   26.0431 H   0  0  0  0  0  0  0  0  0  0  0  0
    7.7568    1.4943   25.5086 H   0  0  0  0  0  0  0  0  0  0  0  0
    7.0049    3.2701   24.5700 C   0  0  0  0  0  0  0  0  0  0  0  0
    7.4942    3.8977   25.3433 H   0  0  0  0  0  0  0  0  0  0  0  0
    5.7355    3.8938   24.1647 N   0  0  0  0  0  0  0  0  0  0  0  0
    5.9193    5.1924   23.5240 C   0  0  0  0  0  0  0  0  0  0  0  0
    4.9497    5.6609   23.3313 H   0  0  0  0  0  0  0  0  0  0  0  0
    6.3910    5.0827   22.5451 H   0  0  0  0  0  0  0  0  0  0  0  0
    6.5297    5.8921   24.1236 H   0  0  0  0  0  0  0  0  0  0  0  0
    4.7670    3.9788   25.2501 C   0  0  0  0  0  0  0  0  0  0  0  0
    5.1710    4.4597   26.1595 H   0  0  0  0  0  0  0  0  0  0  0  0
    3.8862    4.5414   24.9266 H   0  0  0  0  0  0  0  0  0  0  0  0
    4.3987    2.9874   25.5225 H   0  0  0  0  0  0  0  0  0  0  0  0
    7.9691    3.1372   23.3813 C   0  0  0  0  0  0  0  0  0  0  0  0
    8.2098    4.1124   22.9508 H   0  0  0  0  0  0  0  0  0  0  0  0
    8.9118    2.7212   23.7494 H   0  0  0  0  0  0  0  0  0  0  0  0
    7.4021    2.1946   22.3239 C   0  0  0  0  0  0  0  0  0  0  0  0
    6.4829    2.5952   21.8703 H   0  0  0  0  0  0  0  0  0  0  0  0
    8.1220    2.0321   21.5110 H   0  0  0  0  0  0  0  0  0  0  0  0
    5.4292    0.6653   20.1280 C   0  0  0  0  0  0  0  0  0  0  0  0
    4.9796    0.6601   21.1218 H   0  0  0  0  0  0  0  0  0  0  0  0
    4.7937    1.3125   19.0717 C   0  0  0  0  0  0  0  0  0  0  0  0
    3.8600    1.8501   19.2108 H   0  0  0  0  0  0  0  0  0  0  0  0
  1  2  1  0
  2  3  2  0
  3  4  1  0
  4  5  1  0
  4  6  2  0
  6  7  1  0
  7  8  1  0
  8  9  2  0
  9 10  1  0
 10 11  1  0
 11 12  1  0
 11 13  2  0
 13 14  1  0
 13 15  1  0
 15 16  1  0
 16 17  1  0
 17 18  1  0
 18 19  1  0
 18 20  1  0
 18 21  1  0
 21 22  1  0
 21 23  1  0
 21 24  1  0
 24 25  1  0
 24 26  1  0
 26 27  1  0
 27 28  1  0
 27 29  1  0
 27 30  1  0
 26 31  1  0
 31 32  1  0
 31 33  1  0
 31 34  1  0
 24 35  1  0
 35 36  1  0
 35 37  1  0
 35 38  1  0
 38 39  1  0
 38 40  1  0
  6 41  1  0
 41 42  1  0
 41 43  2  0
 43 44  1  0
 43  2  1  0
 16  7  2  0
 38 17  1  0
 15  9  1  0
M  END
>  <cnnaffinity>  (1) 
-5.68998

>  <filename>  (1) 
CN(C)C1CCN(c2c(-c3cccnc3)nc3sccn23)CC1

$$$$
