
     RDKit          3D

 43 45  0  0  0  0  0  0  0  0999 V2000
    4.9902    1.7434   17.0056 H   0  0  0  0  0  0  0  0  0  0  0  0
    5.4212    1.2702   17.8828 C   0  0  0  0  0  0  0  0  0  0  0  0
    6.5957    0.6536   17.6832 N   0  0  0  0  0  0  0  0  0  0  0  0
    7.1743    0.0998   18.7482 C   0  0  0  0  0  0  0  0  0  0  0  0
    8.1245   -0.3940   18.5454 H   0  0  0  0  0  0  0  0  0  0  0  0
    6.6372    0.1273   20.0449 C   0  0  0  0  0  0  0  0  0  0  0  0
    7.3892   -0.5349   21.1342 C   0  0  0  0  0  0  0  0  0  0  0  0
    7.2744   -0.0330   22.3633 N   0  0  0  0  0  0  0  0  0  0  0  0
    7.8763   -0.7074   23.3487 C   0  0  0  0  0  0  0  0  0  0  0  0
    7.8250   -0.1801   24.6210 N   0  0  0  0  0  0  0  0  0  0  0  0
    7.3328   -1.0159   25.7188 C   0  0  0  0  0  0  0  0  0  0  0  0
    7.6158   -2.0627   25.5659 H   0  0  0  0  0  0  0  0  0  0  0  0
    6.2304   -0.9957   25.7646 H   0  0  0  0  0  0  0  0  0  0  0  0
    7.9315   -0.5236   27.0326 C   0  0  0  0  0  0  0  0  0  0  0  0
    9.0193   -0.6287   26.9856 H   0  0  0  0  0  0  0  0  0  0  0  0
    7.5954   -1.1464   27.8669 H   0  0  0  0  0  0  0  0  0  0  0  0
    7.6179    0.9642   27.2683 C   0  0  0  0  0  0  0  0  0  0  0  0
    8.1734    1.2959   28.1729 H   0  0  0  0  0  0  0  0  0  0  0  0
    6.1750    1.1931   27.4508 N   0  0  0  0  0  0  0  0  0  0  0  0
    5.6123    0.4161   28.5528 C   0  0  0  0  0  0  0  0  0  0  0  0
    6.1553    0.5538   29.5077 H   0  0  0  0  0  0  0  0  0  0  0  0
    4.5677    0.7014   28.7113 H   0  0  0  0  0  0  0  0  0  0  0  0
    5.5997   -0.6507   28.3165 H   0  0  0  0  0  0  0  0  0  0  0  0
    5.8406    2.6085   27.5883 C   0  0  0  0  0  0  0  0  0  0  0  0
    6.4238    3.1207   28.3779 H   0  0  0  0  0  0  0  0  0  0  0  0
    5.9971    3.1407   26.6467 H   0  0  0  0  0  0  0  0  0  0  0  0
    4.7779    2.7189   27.8243 H   0  0  0  0  0  0  0  0  0  0  0  0
    8.1639    1.7426   26.0594 C   0  0  0  0  0  0  0  0  0  0  0  0
    9.2436    1.5721   26.0111 H   0  0  0  0  0  0  0  0  0  0  0  0
    8.0260    2.8230   26.1681 H   0  0  0  0  0  0  0  0  0  0  0  0
    7.5501    1.2464   24.7555 C   0  0  0  0  0  0  0  0  0  0  0  0
    6.4657    1.4350   24.7081 H   0  0  0  0  0  0  0  0  0  0  0  0
    7.9997    1.7662   23.9035 H   0  0  0  0  0  0  0  0  0  0  0  0
    8.6045   -1.8998   23.1639 C   0  0  0  0  0  0  0  0  0  0  0  0
    9.0725   -2.3475   24.0296 H   0  0  0  0  0  0  0  0  0  0  0  0
    8.7630   -2.3807   21.8780 C   0  0  0  0  0  0  0  0  0  0  0  0
    9.3285   -3.2900   21.6808 H   0  0  0  0  0  0  0  0  0  0  0  0
    8.1653   -1.6577   20.8512 C   0  0  0  0  0  0  0  0  0  0  0  0
    8.2828   -1.9247   19.8244 H   0  0  0  0  0  0  0  0  0  0  0  0
    5.3896    0.7469   20.2313 C   0  0  0  0  0  0  0  0  0  0  0  0
    4.9163    0.7565   21.2174 H   0  0  0  0  0  0  0  0  0  0  0  0
    4.7758    1.3270   19.1229 C   0  0  0  0  0  0  0  0  0  0  0  0
    3.8231    1.8401   19.2057 H   0  0  0  0  0  0  0  0  0  0  0  0
  1  2  1  0
  2  3  2  0
  3  4  1  0
  4  5  1  0
  4  6  2  0
  6  7  1  0
  7  8  2  0
  8  9  1  0
  9 10  1  0
 10 11  1  0
 11 12  1  0
 11 13  1  0
 11 14  1  0
 14 15  1  0
 14 16  1  0
 14 17  1  0
 17 18  1  0
 17 19  1  0
 19 20  1  0
 20 21  1  0
 20 22  1  0
 20 23  1  0
 19 24  1  0
 24 25  1  0
 24 26  1  0
 24 27  1  0
 17 28  1  0
 28 29  1  0
 28 30  1  0
 28 31  1  0
 31 32  1  0
 31 33  1  0
  9 34  2  0
 34 35  1  0
 34 36  1  0
 36 37  1  0
 36 38  2  0
 38 39  1  0
  6 40  1  0
 40 41  1  0
 40 42  2  0
 42 43  1  0
 42  2  1  0
 38  7  1  0
 31 10  1  0
M  END
>  <cnnaffinity>  (1) 
-5.04517

>  <filename>  (1) 
CN(C)C1CCN(c2cccc(-c3cccnc3)n2)CC1

$$$$
