
     RDKit          3D

 36 38  0  0  0  0  0  0  0  0999 V2000
    4.9414    1.8074   16.9685 H   0  0  0  0  0  0  0  0  0  0  0  0
    5.3969    1.3004   17.8200 C   0  0  0  0  0  0  0  0  0  0  0  0
    6.5571    0.6729   17.5792 N   0  0  0  0  0  0  0  0  0  0  0  0
    7.1526    0.0375   18.5925 C   0  0  0  0  0  0  0  0  0  0  0  0
    8.0996   -0.4479   18.3619 H   0  0  0  0  0  0  0  0  0  0  0  0
    6.6303    0.0012   19.8923 C   0  0  0  0  0  0  0  0  0  0  0  0
    7.3648   -0.7235   20.9329 C   0  0  0  0  0  0  0  0  0  0  0  0
    7.9713   -1.8814   20.8111 N   0  0  0  0  0  0  0  0  0  0  0  0
    8.4153   -2.2118   22.0472 N   0  0  0  0  0  0  0  0  0  0  0  0
    8.1232   -1.3009   22.9061 N   0  0  0  0  0  0  0  0  0  0  0  0
    7.4621   -0.3365   22.2379 N   0  0  0  0  0  0  0  0  0  0  0  0
    7.0413    0.8313   22.8292 N   0  0  0  0  0  0  0  0  0  0  0  0
    7.5974    2.1062   22.3692 C   0  0  0  0  0  0  0  0  0  0  0  0
    7.2333    2.3364   21.3538 H   0  0  0  0  0  0  0  0  0  0  0  0
    8.7008    2.0870   22.2978 H   0  0  0  0  0  0  0  0  0  0  0  0
    7.0671    3.1014   23.4073 C   0  0  0  0  0  0  0  0  0  0  0  0
    7.7579    3.9372   23.5604 H   0  0  0  0  0  0  0  0  0  0  0  0
    6.1003    3.5109   23.0864 H   0  0  0  0  0  0  0  0  0  0  0  0
    6.8574    2.2911   24.7043 C   0  0  1  0  0  0  0  0  0  0  0  0
    7.8272    2.2404   25.2428 H   0  0  0  0  0  0  0  0  0  0  0  0
    5.8231    2.8595   25.5841 N   0  0  0  0  0  0  0  0  0  0  0  0
    6.1035    4.2470   25.9544 C   0  0  0  0  0  0  0  0  0  0  0  0
    7.0761    4.3764   26.4731 H   0  0  0  0  0  0  0  0  0  0  0  0
    6.0978    4.8977   25.0718 H   0  0  0  0  0  0  0  0  0  0  0  0
    5.3153    4.6055   26.6263 H   0  0  0  0  0  0  0  0  0  0  0  0
    5.6251    2.0438   26.7821 C   0  0  0  0  0  0  0  0  0  0  0  0
    5.2963    1.0338   26.5102 H   0  0  0  0  0  0  0  0  0  0  0  0
    6.5423    1.9547   27.4004 H   0  0  0  0  0  0  0  0  0  0  0  0
    4.8383    2.4915   27.4017 H   0  0  0  0  0  0  0  0  0  0  0  0
    6.5309    0.8603   24.2107 C   0  0  0  0  0  0  0  0  0  0  0  0
    5.4437    0.6866   24.2382 H   0  0  0  0  0  0  0  0  0  0  0  0
    6.9946    0.0955   24.8525 H   0  0  0  0  0  0  0  0  0  0  0  0
    5.4163    0.6651   20.1368 C   0  0  0  0  0  0  0  0  0  0  0  0
    4.9816    0.6855   21.1374 H   0  0  0  0  0  0  0  0  0  0  0  0
    4.7923    1.3195   19.0792 C   0  0  0  0  0  0  0  0  0  0  0  0
    3.8608    1.8544   19.2196 H   0  0  0  0  0  0  0  0  0  0  0  0
  1  2  1  0
  2  3  2  0
  3  4  1  0
  4  5  1  0
  4  6  2  0
  6  7  1  0
  7  8  2  0
  8  9  1  0
  9 10  2  0
 10 11  1  0
 11 12  1  0
 12 13  1  0
 13 14  1  0
 13 15  1  0
 13 16  1  0
 16 17  1  0
 16 18  1  0
 16 19  1  0
 19 20  1  1
 19 21  1  0
 21 22  1  0
 22 23  1  0
 22 24  1  0
 22 25  1  0
 21 26  1  0
 26 27  1  0
 26 28  1  0
 26 29  1  0
 19 30  1  0
 30 31  1  0
 30 32  1  0
  6 33  1  0
 33 34  1  0
 33 35  2  0
 35 36  1  0
 35  2  1  0
 11  7  1  0
 30 12  1  0
M  END
>  <cnnaffinity>  (1) 
-4.7782

>  <filename>  (1) 
CN(C)[C@@H]1CCN(n2nnnc2-c2cccnc2)C1

$$$$
