
     RDKit          3D

 44 46  0  0  0  0  0  0  0  0999 V2000
    4.9281    1.8003   16.9748 H   0  0  0  0  0  0  0  0  0  0  0  0
    5.3946    1.2990   17.8224 C   0  0  0  0  0  0  0  0  0  0  0  0
    6.5594    0.6807   17.5718 N   0  0  0  0  0  0  0  0  0  0  0  0
    7.1666    0.0660   18.6018 C   0  0  0  0  0  0  0  0  0  0  0  0
    8.1137   -0.4196   18.3569 H   0  0  0  0  0  0  0  0  0  0  0  0
    6.6571    0.0162   19.9138 C   0  0  0  0  0  0  0  0  0  0  0  0
    7.4079   -0.6605   21.0406 C   0  0  0  0  0  0  0  0  0  0  0  0
    8.5173    0.1705   21.6989 C   0  0  0  0  0  0  0  0  0  0  0  0
    9.3389    0.2770   20.9733 H   0  0  0  0  0  0  0  0  0  0  0  0
    8.9280   -0.4114   22.5515 H   0  0  0  0  0  0  0  0  0  0  0  0
    8.0865    1.5012   22.1039 N   0  0  0  0  0  0  0  0  0  0  0  0
    7.2537    1.4960   23.3054 C   0  0  0  0  0  0  0  0  0  0  0  0
    7.8707    1.3057   24.2092 H   0  0  0  0  0  0  0  0  0  0  0  0
    6.5270    0.6758   23.2483 H   0  0  0  0  0  0  0  0  0  0  0  0
    6.5157    2.8403   23.4456 C   0  0  0  0  0  0  0  0  0  0  0  0
    5.5067    2.7557   23.0216 H   0  0  0  0  0  0  0  0  0  0  0  0
    6.4163    3.0829   24.5119 H   0  0  0  0  0  0  0  0  0  0  0  0
    7.2359    4.0126   22.7306 C   0  0  0  0  0  0  0  0  0  0  0  0
    6.9469    3.9977   21.6583 H   0  0  0  0  0  0  0  0  0  0  0  0
    6.8262    5.2986   23.3201 N   0  0  0  0  0  0  0  0  0  0  0  0
    5.3808    5.5148   23.1995 C   0  0  0  0  0  0  0  0  0  0  0  0
    5.0257    5.4805   22.1488 H   0  0  0  0  0  0  0  0  0  0  0  0
    5.1228    6.4964   23.6140 H   0  0  0  0  0  0  0  0  0  0  0  0
    4.8221    4.7689   23.7750 H   0  0  0  0  0  0  0  0  0  0  0  0
    7.5484    6.4383   22.7490 C   0  0  0  0  0  0  0  0  0  0  0  0
    8.5893    6.4585   23.0912 H   0  0  0  0  0  0  0  0  0  0  0  0
    7.0832    7.3690   23.0923 H   0  0  0  0  0  0  0  0  0  0  0  0
    7.5435    6.4408   21.6395 H   0  0  0  0  0  0  0  0  0  0  0  0
    8.7575    3.8028   22.8104 C   0  0  0  0  0  0  0  0  0  0  0  0
    9.0566    3.8608   23.8681 H   0  0  0  0  0  0  0  0  0  0  0  0
    9.2714    4.6135   22.2855 H   0  0  0  0  0  0  0  0  0  0  0  0
    9.1962    2.4544   22.2041 C   0  0  0  0  0  0  0  0  0  0  0  0
    9.5913    2.5955   21.1865 H   0  0  0  0  0  0  0  0  0  0  0  0
   10.0257    2.0448   22.8172 H   0  0  0  0  0  0  0  0  0  0  0  0
    6.6724   -1.6799   21.8943 C   0  0  0  0  0  0  0  0  0  0  0  0
    5.6325   -1.8709   21.6385 H   0  0  0  0  0  0  0  0  0  0  0  0
    6.8953   -1.7825   22.9594 H   0  0  0  0  0  0  0  0  0  0  0  0
    7.6634   -2.1313   20.8544 C   0  0  0  0  0  0  0  0  0  0  0  0
    8.6340   -2.5613   21.0947 H   0  0  0  0  0  0  0  0  0  0  0  0
    7.1706   -2.5551   19.9893 H   0  0  0  0  0  0  0  0  0  0  0  0
    5.4383    0.6654   20.1371 C   0  0  0  0  0  0  0  0  0  0  0  0
    5.0150    0.6424   21.1433 H   0  0  0  0  0  0  0  0  0  0  0  0
    4.7936    1.3194   19.0858 C   0  0  0  0  0  0  0  0  0  0  0  0
    3.8580    1.8451   19.2293 H   0  0  0  0  0  0  0  0  0  0  0  0
  1  2  1  0
  2  3  2  0
  3  4  1  0
  4  5  1  0
  4  6  2  0
  6  7  1  0
  7  8  1  0
  8  9  1  0
  8 10  1  0
  8 11  1  0
 11 12  1  0
 12 13  1  0
 12 14  1  0
 12 15  1  0
 15 16  1  0
 15 17  1  0
 15 18  1  0
 18 19  1  0
 18 20  1  0
 20 21  1  0
 21 22  1  0
 21 23  1  0
 21 24  1  0
 20 25  1  0
 25 26  1  0
 25 27  1  0
 25 28  1  0
 18 29  1  0
 29 30  1  0
 29 31  1  0
 29 32  1  0
 32 33  1  0
 32 34  1  0
  7 35  1  0
 35 36  1  0
 35 37  1  0
 35 38  1  0
 38 39  1  0
 38 40  1  0
  6 41  1  0
 41 42  1  0
 41 43  2  0
 43 44  1  0
 43  2  1  0
 38  7  1  0
 32 11  1  0
M  END
>  <cnnaffinity>  (1) 
-4.92113

>  <filename>  (1) 
CN(C)C1CCN(CC2(c3cccnc3)CC2)CC1

$$$$
