
     RDKit          3D

 43 45  0  0  0  0  0  0  0  0999 V2000
    4.9442    1.7905   16.9949 H   0  0  0  0  0  0  0  0  0  0  0  0
    5.3993    1.2891   17.8455 C   0  0  0  0  0  0  0  0  0  0  0  0
    6.5523    0.6562   17.5970 N   0  0  0  0  0  0  0  0  0  0  0  0
    7.1429    0.0294   18.6167 C   0  0  0  0  0  0  0  0  0  0  0  0
    8.1102   -0.4202   18.3998 H   0  0  0  0  0  0  0  0  0  0  0  0
    6.6097   -0.0330   19.9176 C   0  0  0  0  0  0  0  0  0  0  0  0
    7.3086   -0.7716   20.9886 C   0  0  0  0  0  0  0  0  0  0  0  0
    6.5847   -1.5738   21.7440 N   0  0  0  0  0  0  0  0  0  0  0  0
    7.1747   -2.2224   22.8104 C   0  0  0  0  0  0  0  0  0  0  0  0
    6.3325   -2.9781   23.6253 N   0  0  0  0  0  0  0  0  0  0  0  0
    6.6645   -3.2887   25.0162 C   0  0  0  0  0  0  0  0  0  0  0  0
    7.1725   -4.2707   25.0930 H   0  0  0  0  0  0  0  0  0  0  0  0
    7.3587   -2.5323   25.4011 H   0  0  0  0  0  0  0  0  0  0  0  0
    5.4095   -3.2960   25.8967 C   0  0  0  0  0  0  0  0  0  0  0  0
    4.9964   -2.2798   25.9618 H   0  0  0  0  0  0  0  0  0  0  0  0
    5.7027   -3.6017   26.9070 H   0  0  0  0  0  0  0  0  0  0  0  0
    4.3202   -4.2374   25.3556 C   0  0  0  0  0  0  0  0  0  0  0  0
    4.7162   -5.2800   25.3824 H   0  0  0  0  0  0  0  0  0  0  0  0
    3.0909   -4.1634   26.1650 N   0  0  0  0  0  0  0  0  0  0  0  0
    2.0175   -5.0138   25.6420 C   0  0  0  0  0  0  0  0  0  0  0  0
    2.3404   -6.0563   25.4529 H   0  0  0  0  0  0  0  0  0  0  0  0
    1.6015   -4.6074   24.7134 H   0  0  0  0  0  0  0  0  0  0  0  0
    1.1921   -5.0515   26.3616 H   0  0  0  0  0  0  0  0  0  0  0  0
    3.3317   -4.4734   27.5776 C   0  0  0  0  0  0  0  0  0  0  0  0
    3.8870   -3.6700   28.0743 H   0  0  0  0  0  0  0  0  0  0  0  0
    3.8829   -5.4224   27.7269 H   0  0  0  0  0  0  0  0  0  0  0  0
    2.3755   -4.5627   28.1052 H   0  0  0  0  0  0  0  0  0  0  0  0
    4.0457   -3.8608   23.8913 C   0  0  0  0  0  0  0  0  0  0  0  0
    3.5793   -2.8698   23.8960 H   0  0  0  0  0  0  0  0  0  0  0  0
    3.3371   -4.5663   23.4431 H   0  0  0  0  0  0  0  0  0  0  0  0
    5.3158   -3.8467   23.0403 C   0  0  0  0  0  0  0  0  0  0  0  0
    5.0948   -3.4919   22.0292 H   0  0  0  0  0  0  0  0  0  0  0  0
    5.7022   -4.8835   22.9517 H   0  0  0  0  0  0  0  0  0  0  0  0
    8.5318   -2.1267   23.0467 C   0  0  0  0  0  0  0  0  0  0  0  0
    9.0104   -2.6951   23.8349 H   0  0  0  0  0  0  0  0  0  0  0  0
    9.3075   -1.3317   22.2284 N   0  0  0  0  0  0  0  0  0  0  0  0
   10.3043   -1.1457   22.3029 H   0  0  0  0  0  0  0  0  0  0  0  0
    8.8034   -0.5725   21.1848 C   0  0  0  0  0  0  0  0  0  0  0  0
    9.5995    0.1321   20.5815 O   0  0  0  0  0  0  0  0  0  0  0  0
    5.3975    0.6321   20.1610 C   0  0  0  0  0  0  0  0  0  0  0  0
    4.9588    0.6325   21.1616 H   0  0  0  0  0  0  0  0  0  0  0  0
    4.7922    1.3143   19.1070 C   0  0  0  0  0  0  0  0  0  0  0  0
    3.8659    1.8632   19.2411 H   0  0  0  0  0  0  0  0  0  0  0  0
  1  2  1  0
  2  3  2  0
  3  4  1  0
  4  5  1  0
  4  6  2  0
  6  7  1  0
  7  8  2  0
  8  9  1  0
  9 10  1  0
 10 11  1  0
 11 12  1  0
 11 13  1  0
 11 14  1  0
 14 15  1  0
 14 16  1  0
 14 17  1  0
 17 18  1  0
 17 19  1  0
 19 20  1  0
 20 21  1  0
 20 22  1  0
 20 23  1  0
 19 24  1  0
 24 25  1  0
 24 26  1  0
 24 27  1  0
 17 28  1  0
 28 29  1  0
 28 30  1  0
 28 31  1  0
 31 32  1  0
 31 33  1  0
  9 34  2  0
 34 35  1  0
 34 36  1  0
 36 37  1  0
 36 38  1  0
 38 39  2  0
  6 40  1  0
 40 41  1  0
 40 42  2  0
 42 43  1  0
 42  2  1  0
 38  7  1  0
 31 10  1  0
M  END
>  <cnnaffinity>  (1) 
-5.12681

>  <filename>  (1) 
CN(C)C1CCN(c2c[nH]c(=O)c(-c3cccnc3)n2)CC1

$$$$
