
     RDKit          3D

 38 40  0  0  0  0  0  0  0  0999 V2000
    4.9384    1.7874   16.9604 H   0  0  0  0  0  0  0  0  0  0  0  0
    5.4100    1.3059   17.8192 C   0  0  0  0  0  0  0  0  0  0  0  0
    6.5728    0.6749   17.5989 N   0  0  0  0  0  0  0  0  0  0  0  0
    7.1561    0.0676   18.6404 C   0  0  0  0  0  0  0  0  0  0  0  0
    8.1029   -0.4248   18.4292 H   0  0  0  0  0  0  0  0  0  0  0  0
    6.6442    0.0559   19.9498 C   0  0  0  0  0  0  0  0  0  0  0  0
    7.3875   -0.6389   21.0229 C   0  0  0  0  0  0  0  0  0  0  0  0
    8.1156   -1.7621   21.0464 C   0  0  0  0  0  0  0  0  0  0  0  0
    8.3791   -2.5194   20.3411 H   0  0  0  0  0  0  0  0  0  0  0  0
    8.5738   -2.0316   22.3102 O   0  0  0  0  0  0  0  0  0  0  0  0
    8.1450   -1.0554   23.1542 C   0  0  0  0  0  0  0  0  0  0  0  0
    8.3910   -1.0326   24.3386 O   0  0  0  0  0  0  0  0  0  0  0  0
    7.4090   -0.1733   22.3586 N   0  0  0  0  0  0  0  0  0  0  0  0
    6.8000    1.0000   22.7458 N   0  0  0  0  0  0  0  0  0  0  0  0
    6.1687    1.0595   24.0662 C   0  0  0  0  0  0  0  0  0  0  0  0
    6.6734    0.3807   24.7680 H   0  0  0  0  0  0  0  0  0  0  0  0
    5.1182    0.7422   23.9774 H   0  0  0  0  0  0  0  0  0  0  0  0
    6.3387    2.5283   24.4685 C   0  0  0  0  0  0  0  0  0  0  0  0
    7.1490    2.6224   25.2022 H   0  0  0  0  0  0  0  0  0  0  0  0
    5.4280    2.9332   24.9166 H   0  0  0  0  0  0  0  0  0  0  0  0
    6.7521    3.2863   23.1906 C   0  0  1  0  0  0  0  0  0  0  0  0
    5.8449    3.5055   22.5889 H   0  0  0  0  0  0  0  0  0  0  0  0
    7.5242    4.4960   23.4630 N   0  0  0  0  0  0  0  0  0  0  0  0
    8.0211    5.1130   22.2362 C   0  0  0  0  0  0  0  0  0  0  0  0
    8.6550    4.4007   21.6990 H   0  0  0  0  0  0  0  0  0  0  0  0
    7.2176    5.4429   21.5480 H   0  0  0  0  0  0  0  0  0  0  0  0
    8.6423    5.9799   22.4828 H   0  0  0  0  0  0  0  0  0  0  0  0
    6.7880    5.4326   24.3012 C   0  0  0  0  0  0  0  0  0  0  0  0
    7.4106    6.3069   24.5094 H   0  0  0  0  0  0  0  0  0  0  0  0
    5.8416    5.7826   23.8451 H   0  0  0  0  0  0  0  0  0  0  0  0
    6.5515    4.9689   25.2662 H   0  0  0  0  0  0  0  0  0  0  0  0
    7.5417    2.2181   22.4390 C   0  0  0  0  0  0  0  0  0  0  0  0
    7.5622    2.3966   21.3544 H   0  0  0  0  0  0  0  0  0  0  0  0
    8.5807    2.1816   22.8071 H   0  0  0  0  0  0  0  0  0  0  0  0
    5.4251    0.7349   20.1610 C   0  0  0  0  0  0  0  0  0  0  0  0
    5.0027    0.7962   21.1634 H   0  0  0  0  0  0  0  0  0  0  0  0
    4.7971    1.3450   19.0767 C   0  0  0  0  0  0  0  0  0  0  0  0
    3.8472    1.8548   19.1876 H   0  0  0  0  0  0  0  0  0  0  0  0
  1  2  1  0
  2  3  2  0
  3  4  1  0
  4  5  1  0
  4  6  2  0
  6  7  1  0
  7  8  2  0
  8  9  1  0
  8 10  1  0
 10 11  1  0
 11 12  2  0
 11 13  1  0
 13 14  1  0
 14 15  1  0
 15 16  1  0
 15 17  1  0
 15 18  1  0
 18 19  1  0
 18 20  1  0
 18 21  1  0
 21 22  1  6
 21 23  1  0
 23 24  1  0
 24 25  1  0
 24 26  1  0
 24 27  1  0
 23 28  1  0
 28 29  1  0
 28 30  1  0
 28 31  1  0
 21 32  1  0
 32 33  1  0
 32 34  1  0
  6 35  1  0
 35 36  1  0
 35 37  2  0
 37 38  1  0
 37  2  1  0
 13  7  1  0
 32 14  1  0
M  END
>  <cnnaffinity>  (1) 
-4.7858

>  <filename>  (1) 
CN(C)[C@@H]1CCN(n2c(-c3cccnc3)coc2=O)C1

$$$$
