
     RDKit          3D

 41 44  0  0  0  0  0  0  0  0999 V2000
    5.3628    1.9051   16.8522 H   0  0  0  0  0  0  0  0  0  0  0  0
    5.6697    1.3468   17.7360 C   0  0  0  0  0  0  0  0  0  0  0  0
    6.8089    0.6470   17.6306 N   0  0  0  0  0  0  0  0  0  0  0  0
    7.2137   -0.0413   18.7062 C   0  0  0  0  0  0  0  0  0  0  0  0
    8.1431   -0.5963   18.5964 H   0  0  0  0  0  0  0  0  0  0  0  0
    6.5052   -0.0935   19.9251 C   0  0  0  0  0  0  0  0  0  0  0  0
    6.9498   -0.9401   21.0538 C   0  0  0  0  0  0  0  0  0  0  0  0
    6.1865   -1.8363   21.7111 C   0  0  0  0  0  0  0  0  0  0  0  0
    5.1390   -2.0349   21.5355 H   0  0  0  0  0  0  0  0  0  0  0  0
    7.0588   -2.7490   22.9123 S   0  0  0  0  0  0  0  0  0  0  0  0
    8.5103   -1.8998   22.4951 C   0  0  0  0  0  0  0  0  0  0  0  0
    9.7899   -1.9540   22.7978 N   0  0  0  0  0  0  0  0  0  0  0  0
   10.3103   -0.9827   21.9887 C   0  0  0  0  0  0  0  0  0  0  0  0
   11.8171   -0.7747   21.8792 C   0  0  0  0  0  0  0  0  0  0  0  0
   12.2398   -1.6718   22.3541 H   0  0  0  0  0  0  0  0  0  0  0  0
   12.0550   -0.8487   20.8016 H   0  0  0  0  0  0  0  0  0  0  0  0
   12.4744    0.4056   22.4877 N   0  0  0  0  0  0  0  0  0  0  0  0
   13.9302    0.2846   22.4458 C   0  0  0  0  0  0  0  0  0  0  0  0
   14.2642   -0.6027   23.0026 H   0  0  0  0  0  0  0  0  0  0  0  0
   14.4053    1.1573   22.9027 H   0  0  0  0  0  0  0  0  0  0  0  0
   14.3344    0.1881   21.4233 H   0  0  0  0  0  0  0  0  0  0  0  0
   11.9662    1.6965   21.9883 C   0  0  0  0  0  0  0  0  0  0  0  0
   12.4732    1.9940   21.0525 H   0  0  0  0  0  0  0  0  0  0  0  0
   10.9108    1.5619   21.7088 H   0  0  0  0  0  0  0  0  0  0  0  0
   12.0063    2.8547   23.0211 C   0  0  0  0  0  0  0  0  0  0  0  0
   12.9652    3.8512   22.8027 C   0  0  0  0  0  0  0  0  0  0  0  0
   13.7130    3.7894   22.0209 H   0  0  0  0  0  0  0  0  0  0  0  0
   12.9009    4.9928   23.7368 C   0  0  0  0  0  0  0  0  0  0  0  0
   13.6148    5.8120   23.6834 H   0  0  0  0  0  0  0  0  0  0  0  0
   11.9106    4.9228   24.6411 C   0  0  0  0  0  0  0  0  0  0  0  0
   11.6385    5.5425   25.5030 H   0  0  0  0  0  0  0  0  0  0  0  0
   10.9080    2.8961   24.0809 C   0  0  0  0  0  0  0  0  0  0  0  0
    9.9894    3.5967   24.5097 H   0  0  0  0  0  0  0  0  0  0  0  0
   11.0345    2.8873   24.1254 C   0  0  0  0  0  0  0  0  0  0  0  0
   11.0725    1.7987   24.7330 H   0  0  0  0  0  0  0  0  0  0  0  0
    9.4295   -0.3785   21.1910 N   0  0  0  0  0  0  0  0  0  0  0  0
    8.2645   -0.9861   21.5359 N   0  0  0  0  0  0  0  0  0  0  0  0
    5.3061    0.6372   20.0050 C   0  0  0  0  0  0  0  0  0  0  0  0
    4.7209    0.6455   20.9263 H   0  0  0  0  0  0  0  0  0  0  0  0
    4.8913    1.3773   18.8974 C   0  0  0  0  0  0  0  0  0  0  0  0
    3.9873    1.9756   18.9194 H   0  0  0  0  0  0  0  0  0  0  0  0
  1  2  1  0
  2  3  2  0
  3  4  1  0
  4  5  1  0
  4  6  2  0
  6  7  1  0
  7  8  2  0
  8  9  1  0
  8 10  1  0
 10 11  1  0
 11 12  2  0
 12 13  1  0
 13 14  1  0
 14 15  1  0
 14 16  1  0
 14 17  1  0
 17 18  1  0
 18 19  1  0
 18 20  1  0
 18 21  1  0
 17 22  1  0
 22 23  1  0
 22 24  1  0
 22 25  1  0
 25 26  2  0
 26 27  1  0
 26 28  1  0
 28 29  1  0
 28 30  2  0
 30 31  1  0
 30 32  1  0
 32 33  1  0
 32 34  2  0
 34 35  1  0
 13 36  2  0
 36 37  1  0
  6 38  1  0
 38 39  1  0
 38 40  2  0
 40 41  1  0
 40  2  1  0
 37  7  1  0
 37 11  1  0
 34 25  1  0
M  END
>  <cnnaffinity>  (1) 
-5.22573

>  <filename>  (1) 
CN(Cc1ccccc1)Cc1nc2scc(-c3cccnc3)n2n1

$$$$
