
     RDKit          3D

 42 45  0  0  0  0  0  0  0  0999 V2000
    4.9189    1.7785   16.9978 H   0  0  0  0  0  0  0  0  0  0  0  0
    5.4043    1.2933   17.8391 C   0  0  0  0  0  0  0  0  0  0  0  0
    6.5660    0.6739   17.5758 N   0  0  0  0  0  0  0  0  0  0  0  0
    7.1731    0.0658   18.6007 C   0  0  0  0  0  0  0  0  0  0  0  0
    8.1150   -0.4321   18.3718 H   0  0  0  0  0  0  0  0  0  0  0  0
    6.6561    0.0206   19.9001 C   0  0  0  0  0  0  0  0  0  0  0  0
    7.3759   -0.6783   20.9542 C   0  0  0  0  0  0  0  0  0  0  0  0
    6.7274   -1.5875   21.7531 N   0  0  0  0  0  0  0  0  0  0  0  0
    7.6549   -2.0194   22.5614 C   0  0  0  0  0  0  0  0  0  0  0  0
    7.7600   -3.1601   23.8838 S   0  0  0  0  0  0  0  0  0  0  0  0
    9.4589   -2.7552   24.0930 C   0  0  0  0  0  0  0  0  0  0  0  0
   10.0293   -3.2518   24.8636 H   0  0  0  0  0  0  0  0  0  0  0  0
    9.8852   -1.8276   23.2163 C   0  0  0  0  0  0  0  0  0  0  0  0
   10.8821   -1.4098   23.1153 H   0  0  0  0  0  0  0  0  0  0  0  0
    8.8733   -1.4278   22.3550 N   0  0  0  0  0  0  0  0  0  0  0  0
    8.7111   -0.5560   21.2955 C   0  0  0  0  0  0  0  0  0  0  0  0
    9.7230    0.4510   20.8769 C   0  0  0  0  0  0  0  0  0  0  0  0
    9.5966    0.6389   19.8052 H   0  0  0  0  0  0  0  0  0  0  0  0
   10.7308    0.0313   21.0007 H   0  0  0  0  0  0  0  0  0  0  0  0
    9.6615    1.7404   21.5588 N   0  0  0  0  0  0  0  0  0  0  0  0
    8.4134    2.4527   21.3036 C   0  0  0  0  0  0  0  0  0  0  0  0
    8.5039    3.4994   21.6145 H   0  0  0  0  0  0  0  0  0  0  0  0
    7.5425    2.0226   21.8265 H   0  0  0  0  0  0  0  0  0  0  0  0
    8.1888    2.4275   20.2366 H   0  0  0  0  0  0  0  0  0  0  0  0
    9.9348    1.6412   22.9963 C   0  0  0  0  0  0  0  0  0  0  0  0
   10.7849    0.9634   23.1532 H   0  0  0  0  0  0  0  0  0  0  0  0
    9.0829    1.1931   23.5382 H   0  0  0  0  0  0  0  0  0  0  0  0
   10.2863    2.9822   23.6082 C   0  0  0  0  0  0  0  0  0  0  0  0
    9.3951    3.6529   24.4604 C   0  0  0  0  0  0  0  0  0  0  0  0
    8.4354    3.1968   24.7042 H   0  0  0  0  0  0  0  0  0  0  0  0
    9.7198    4.9087   24.9832 C   0  0  0  0  0  0  0  0  0  0  0  0
    9.0157    5.4171   25.6376 H   0  0  0  0  0  0  0  0  0  0  0  0
   10.9438    5.5047   24.6604 C   0  0  0  0  0  0  0  0  0  0  0  0
   11.1978    6.4805   25.0658 H   0  0  0  0  0  0  0  0  0  0  0  0
   11.8384    4.8430   23.8108 C   0  0  0  0  0  0  0  0  0  0  0  0
   12.7888    5.3039   23.5502 H   0  0  0  0  0  0  0  0  0  0  0  0
   11.5112    3.5899   23.2864 C   0  0  0  0  0  0  0  0  0  0  0  0
   12.1991    3.0839   22.6091 H   0  0  0  0  0  0  0  0  0  0  0  0
    5.4298    0.6531   20.1557 C   0  0  0  0  0  0  0  0  0  0  0  0
    5.0017    0.6246   21.1636 H   0  0  0  0  0  0  0  0  0  0  0  0
    4.8039    1.3139   19.1036 C   0  0  0  0  0  0  0  0  0  0  0  0
    3.8715    1.8446   19.2572 H   0  0  0  0  0  0  0  0  0  0  0  0
  1  2  1  0
  2  3  2  0
  3  4  1  0
  4  5  1  0
  4  6  2  0
  6  7  1  0
  7  8  1  0
  8  9  2  0
  9 10  1  0
 10 11  1  0
 11 12  1  0
 11 13  2  0
 13 14  1  0
 13 15  1  0
 15 16  1  0
 16 17  1  0
 17 18  1  0
 17 19  1  0
 17 20  1  0
 20 21  1  0
 21 22  1  0
 21 23  1  0
 21 24  1  0
 20 25  1  0
 25 26  1  0
 25 27  1  0
 25 28  1  0
 28 29  2  0
 29 30  1  0
 29 31  1  0
 31 32  1  0
 31 33  2  0
 33 34  1  0
 33 35  1  0
 35 36  1  0
 35 37  2  0
 37 38  1  0
  6 39  1  0
 39 40  1  0
 39 41  2  0
 41 42  1  0
 41  2  1  0
 16  7  2  0
 37 28  1  0
 15  9  1  0
M  END
>  <cnnaffinity>  (1) 
-5.96488

>  <filename>  (1) 
CN(Cc1ccccc1)Cc1c(-c2cccnc2)nc2sccn12

$$$$
