
     RDKit          3D

 38 40  0  0  0  0  0  0  0  0999 V2000
    4.9665    1.8038   16.9995 H   0  0  0  0  0  0  0  0  0  0  0  0
    5.4034    1.2824   17.8501 C   0  0  0  0  0  0  0  0  0  0  0  0
    6.5548    0.6392   17.6151 N   0  0  0  0  0  0  0  0  0  0  0  0
    7.1239    0.0038   18.6441 C   0  0  0  0  0  0  0  0  0  0  0  0
    8.0902   -0.4558   18.4434 H   0  0  0  0  0  0  0  0  0  0  0  0
    6.5701   -0.0668   19.9349 C   0  0  0  0  0  0  0  0  0  0  0  0
    7.2621   -0.8276   20.9999 C   0  0  0  0  0  0  0  0  0  0  0  0
    6.5493   -1.6602   21.7363 N   0  0  0  0  0  0  0  0  0  0  0  0
    7.1459   -2.3048   22.8036 C   0  0  0  0  0  0  0  0  0  0  0  0
    6.3590   -3.1254   23.5820 N   0  0  0  0  0  0  0  0  0  0  0  0
    5.0843   -3.6525   23.1233 C   0  0  0  0  0  0  0  0  0  0  0  0
    4.2881   -3.3619   23.8261 H   0  0  0  0  0  0  0  0  0  0  0  0
    4.8474   -3.2902   22.1208 H   0  0  0  0  0  0  0  0  0  0  0  0
    5.1427   -4.7448   23.1116 H   0  0  0  0  0  0  0  0  0  0  0  0
    6.8188   -3.5642   24.9059 C   0  0  0  0  0  0  0  0  0  0  0  0
    7.7294   -4.1840   24.8377 H   0  0  0  0  0  0  0  0  0  0  0  0
    6.0619   -4.2433   25.3117 H   0  0  0  0  0  0  0  0  0  0  0  0
    7.0518   -2.4488   25.9268 C   0  0  0  0  0  0  0  0  0  0  0  0
    6.0114   -1.5669   26.2640 C   0  0  0  0  0  0  0  0  0  0  0  0
    5.0309   -1.6765   25.8001 H   0  0  0  0  0  0  0  0  0  0  0  0
    6.2144   -0.5439   27.1938 C   0  0  0  0  0  0  0  0  0  0  0  0
    5.3942    0.1197   27.4567 H   0  0  0  0  0  0  0  0  0  0  0  0
    7.4660   -0.3849   27.7969 C   0  0  0  0  0  0  0  0  0  0  0  0
    7.6267    0.4042   28.5271 H   0  0  0  0  0  0  0  0  0  0  0  0
    8.5054   -1.2668   27.4867 C   0  0  0  0  0  0  0  0  0  0  0  0
    9.4732   -1.1621   27.9740 H   0  0  0  0  0  0  0  0  0  0  0  0
    8.2963   -2.2962   26.5619 C   0  0  0  0  0  0  0  0  0  0  0  0
    9.1062   -2.9936   26.3482 H   0  0  0  0  0  0  0  0  0  0  0  0
    8.4970   -2.1525   23.0774 C   0  0  0  0  0  0  0  0  0  0  0  0
    8.9612   -2.6824   23.8952 H   0  0  0  0  0  0  0  0  0  0  0  0
    9.2693   -1.3407   22.2745 N   0  0  0  0  0  0  0  0  0  0  0  0
   10.2667   -1.1735   22.3642 H   0  0  0  0  0  0  0  0  0  0  0  0
    8.7604   -0.6160   21.2041 C   0  0  0  0  0  0  0  0  0  0  0  0
    9.5474    0.0811   20.5805 O   0  0  0  0  0  0  0  0  0  0  0  0
    5.3619    0.6139   20.1634 C   0  0  0  0  0  0  0  0  0  0  0  0
    4.9049    0.6160   21.1544 H   0  0  0  0  0  0  0  0  0  0  0  0
    4.7786    1.3090   19.1008 C   0  0  0  0  0  0  0  0  0  0  0  0
    3.8614    1.8738   19.2269 H   0  0  0  0  0  0  0  0  0  0  0  0
  1  2  1  0
  2  3  2  0
  3  4  1  0
  4  5  1  0
  4  6  2  0
  6  7  1  0
  7  8  2  0
  8  9  1  0
  9 10  1  0
 10 11  1  0
 11 12  1  0
 11 13  1  0
 11 14  1  0
 10 15  1  0
 15 16  1  0
 15 17  1  0
 15 18  1  0
 18 19  2  0
 19 20  1  0
 19 21  1  0
 21 22  1  0
 21 23  2  0
 23 24  1  0
 23 25  1  0
 25 26  1  0
 25 27  2  0
 27 28  1  0
  9 29  2  0
 29 30  1  0
 29 31  1  0
 31 32  1  0
 31 33  1  0
 33 34  2  0
  6 35  1  0
 35 36  1  0
 35 37  2  0
 37 38  1  0
 37  2  1  0
 33  7  1  0
 27 18  1  0
M  END
>  <cnnaffinity>  (1) 
-5.27235

>  <filename>  (1) 
CN(Cc1ccccc1)c1c[nH]c(=O)c(-c2cccnc2)n1

$$$$
