
     RDKit          3D

 34 35  0  0  0  0  0  0  0  0999 V2000
    5.0213    1.8217   16.9065 H   0  0  0  0  0  0  0  0  0  0  0  0
    5.4388    1.3020   17.7641 C   0  0  0  0  0  0  0  0  0  0  0  0
    6.5888    0.6474   17.5427 N   0  0  0  0  0  0  0  0  0  0  0  0
    7.1296    0.0039   18.5780 C   0  0  0  0  0  0  0  0  0  0  0  0
    8.0718   -0.5137   18.4067 H   0  0  0  0  0  0  0  0  0  0  0  0
    6.5652   -0.0274   19.8670 C   0  0  0  0  0  0  0  0  0  0  0  0
    7.3214   -0.7147   20.9108 C   0  0  0  0  0  0  0  0  0  0  0  0
    8.4857   -1.3740   20.5729 N   0  0  0  0  0  0  0  0  0  0  0  0
    9.0086   -1.7737   21.7053 C   0  0  0  0  0  0  0  0  0  0  0  0
    9.9417   -2.3206   21.8160 H   0  0  0  0  0  0  0  0  0  0  0  0
    8.2211   -1.4120   22.7728 N   0  0  0  0  0  0  0  0  0  0  0  0
    8.3320   -1.6143   24.1674 N   0  0  0  0  0  0  0  0  0  0  0  0
    7.3909   -1.8802   24.4677 H   0  0  0  0  0  0  0  0  0  0  0  0
    9.2277   -2.7164   24.5769 C   0  0  0  0  0  0  0  0  0  0  0  0
   10.2676   -2.3722   24.5160 H   0  0  0  0  0  0  0  0  0  0  0  0
    9.1322   -3.5715   23.8930 H   0  0  0  0  0  0  0  0  0  0  0  0
    8.9123   -3.1359   26.0213 C   0  0  0  0  0  0  0  0  0  0  0  0
    9.7733   -3.6880   26.4413 H   0  0  0  0  0  0  0  0  0  0  0  0
    8.8256   -2.1987   26.5874 H   0  0  0  0  0  0  0  0  0  0  0  0
    7.6677   -3.9083   26.1532 N   0  0  0  0  0  0  0  0  0  0  0  0
    7.8834   -5.3291   25.9360 C   0  0  0  0  0  0  0  0  0  0  0  0
    8.5829   -5.7610   26.6802 H   0  0  0  0  0  0  0  0  0  0  0  0
    6.9309   -5.8662   25.9878 H   0  0  0  0  0  0  0  0  0  0  0  0
    8.2983   -5.4982   24.9392 H   0  0  0  0  0  0  0  0  0  0  0  0
    6.9267   -3.6790   27.3841 C   0  0  0  0  0  0  0  0  0  0  0  0
    7.3993   -4.1425   28.2756 H   0  0  0  0  0  0  0  0  0  0  0  0
    6.7973   -2.6016   27.5529 H   0  0  0  0  0  0  0  0  0  0  0  0
    5.9186   -4.0974   27.2767 H   0  0  0  0  0  0  0  0  0  0  0  0
    7.1365   -0.7443   22.2630 C   0  0  0  0  0  0  0  0  0  0  0  0
    6.3506   -0.3593   22.9019 H   0  0  0  0  0  0  0  0  0  0  0  0
    5.3560    0.6581   20.0808 C   0  0  0  0  0  0  0  0  0  0  0  0
    4.8808    0.6892   21.0627 H   0  0  0  0  0  0  0  0  0  0  0  0
    4.7872    1.3321   19.0021 C   0  0  0  0  0  0  0  0  0  0  0  0
    3.8678    1.8991   19.1055 H   0  0  0  0  0  0  0  0  0  0  0  0
  1  2  1  0
  2  3  2  0
  3  4  1  0
  4  5  1  0
  4  6  2  0
  6  7  1  0
  7  8  1  0
  8  9  2  0
  9 10  1  0
  9 11  1  0
 11 12  1  0
 12 13  1  0
 12 14  1  0
 14 15  1  0
 14 16  1  0
 14 17  1  0
 17 18  1  0
 17 19  1  0
 17 20  1  0
 20 21  1  0
 21 22  1  0
 21 23  1  0
 21 24  1  0
 20 25  1  0
 25 26  1  0
 25 27  1  0
 25 28  1  0
 11 29  1  0
 29 30  1  0
  6 31  1  0
 31 32  1  0
 31 33  2  0
 33 34  1  0
 33  2  1  0
 29  7  2  0
M  END
>  <cnnaffinity>  (1) 
-4.61006

>  <filename>  (1) 
CN(C)CCNn1cnc(-c2cccnc2)c1

$$$$
