
     RDKit          3D

 35 38  0  0  0  0  0  0  0  0999 V2000
    4.9826    1.7863   16.9828 H   0  0  0  0  0  0  0  0  0  0  0  0
    5.4310    1.2807   17.8353 C   0  0  0  0  0  0  0  0  0  0  0  0
    6.5926    0.6454   17.6133 N   0  0  0  0  0  0  0  0  0  0  0  0
    7.1770    0.0392   18.6523 C   0  0  0  0  0  0  0  0  0  0  0  0
    8.1232   -0.4639   18.4504 H   0  0  0  0  0  0  0  0  0  0  0  0
    6.6291    0.0278   19.9414 C   0  0  0  0  0  0  0  0  0  0  0  0
    7.3435   -0.6818   21.0053 C   0  0  0  0  0  0  0  0  0  0  0  0
    8.5302   -1.3295   20.7975 N   0  0  0  0  0  0  0  0  0  0  0  0
    8.7836   -1.8198   21.9883 C   0  0  0  0  0  0  0  0  0  0  0  0
   10.0294   -2.7873   22.7538 S   0  0  0  0  0  0  0  0  0  0  0  0
    9.0833   -2.8071   24.2226 C   0  0  0  0  0  0  0  0  0  0  0  0
    9.3901   -3.3523   25.1041 H   0  0  0  0  0  0  0  0  0  0  0  0
    7.9408   -2.0889   24.1370 C   0  0  0  0  0  0  0  0  0  0  0  0
    7.0057   -1.8889   25.1462 N   0  0  0  0  0  0  0  0  0  0  0  0
    6.5784   -2.9747   25.9507 C   0  0  0  0  0  0  0  0  0  0  0  0
    6.3881   -4.2425   25.3696 C   0  0  0  0  0  0  0  0  0  0  0  0
    6.5324   -4.3463   24.2977 H   0  0  0  0  0  0  0  0  0  0  0  0
    6.0194   -5.3324   26.1625 C   0  0  0  0  0  0  0  0  0  0  0  0
    5.9232   -6.3159   25.7076 H   0  0  0  0  0  0  0  0  0  0  0  0
    5.7854   -5.1642   27.5337 C   0  0  0  0  0  0  0  0  0  0  0  0
    5.5351   -6.0262   28.1460 H   0  0  0  0  0  0  0  0  0  0  0  0
    5.8928   -3.8890   28.0998 C   0  0  0  0  0  0  0  0  0  0  0  0
    5.6620   -3.7017   29.1486 H   0  0  0  0  0  0  0  0  0  0  0  0
    6.3154   -2.8064   27.3198 C   0  0  0  0  0  0  0  0  0  0  0  0
    6.4796   -1.8356   27.7776 H   0  0  0  0  0  0  0  0  0  0  0  0
    6.5617   -0.5272   25.4294 C   0  0  0  0  0  0  0  0  0  0  0  0
    5.5466   -0.5411   25.8420 H   0  0  0  0  0  0  0  0  0  0  0  0
    6.5502    0.0547   24.5043 H   0  0  0  0  0  0  0  0  0  0  0  0
    7.2314   -0.0259   26.1434 H   0  0  0  0  0  0  0  0  0  0  0  0
    7.8147   -1.5022   22.8701 N   0  0  0  0  0  0  0  0  0  0  0  0
    6.8628   -0.7478   22.2386 N   0  0  0  0  0  0  0  0  0  0  0  0
    5.4049    0.6827   20.1589 C   0  0  0  0  0  0  0  0  0  0  0  0
    4.9525    0.6883   21.1512 H   0  0  0  0  0  0  0  0  0  0  0  0
    4.7957    1.3173   19.0812 C   0  0  0  0  0  0  0  0  0  0  0  0
    3.8571    1.8525   19.1962 H   0  0  0  0  0  0  0  0  0  0  0  0
  1  2  1  0
  2  3  2  0
  3  4  1  0
  4  5  1  0
  4  6  2  0
  6  7  1  0
  7  8  1  0
  8  9  2  0
  9 10  1  0
 10 11  1  0
 11 12  1  0
 11 13  2  0
 13 14  1  0
 14 15  1  0
 15 16  2  0
 16 17  1  0
 16 18  1  0
 18 19  1  0
 18 20  2  0
 20 21  1  0
 20 22  1  0
 22 23  1  0
 22 24  2  0
 24 25  1  0
 14 26  1  0
 26 27  1  0
 26 28  1  0
 26 29  1  0
 13 30  1  0
 30 31  1  0
  6 32  1  0
 32 33  1  0
 32 34  2  0
 34 35  1  0
 34  2  1  0
 31  7  2  0
 30  9  1  0
 24 15  1  0
M  END
>  <cnnaffinity>  (1) 
-5.51635

>  <filename>  (1) 
CN(c1ccccc1)c1csc2nc(-c3cccnc3)nn12

$$$$
