
     RDKit          3D

 38 39  0  0  0  0  0  0  0  0999 V2000
    5.0705    2.0741   16.8865 H   0  0  0  0  0  0  0  0  0  0  0  0
    5.4404    1.4259   17.6775 C   0  0  0  0  0  0  0  0  0  0  0  0
    6.5724    0.7576   17.4051 N   0  0  0  0  0  0  0  0  0  0  0  0
    7.0710   -0.0246   18.3665 C   0  0  0  0  0  0  0  0  0  0  0  0
    8.0022   -0.5392   18.1359 H   0  0  0  0  0  0  0  0  0  0  0  0
    6.4654   -0.2062   19.6282 C   0  0  0  0  0  0  0  0  0  0  0  0
    7.1317   -0.9682   20.6621 N   0  0  0  0  0  0  0  0  0  0  0  0
    8.4419   -0.6100   20.9853 C   0  0  0  0  0  0  0  0  0  0  0  0
    8.8857    0.1434   20.3329 H   0  0  0  0  0  0  0  0  0  0  0  0
    9.1045   -1.1340   22.0342 C   0  0  0  0  0  0  0  0  0  0  0  0
   10.4239   -0.6065   22.5106 C   0  0  0  0  0  0  0  0  0  0  0  0
   11.0011   -0.1725   21.6816 H   0  0  0  0  0  0  0  0  0  0  0  0
   11.0194   -1.4383   22.9037 H   0  0  0  0  0  0  0  0  0  0  0  0
   10.2303    0.4445   23.6186 C   0  0  0  0  0  0  0  0  0  0  0  0
    9.7506   -0.0485   24.4728 H   0  0  0  0  0  0  0  0  0  0  0  0
    9.5379    1.2239   23.2757 H   0  0  0  0  0  0  0  0  0  0  0  0
   11.5293    1.0966   24.0773 C   0  0  0  0  0  0  0  0  0  0  0  0
   12.1371    0.3182   24.5587 H   0  0  0  0  0  0  0  0  0  0  0  0
   11.3165    1.8410   24.8723 H   0  0  0  0  0  0  0  0  0  0  0  0
   12.2909    1.6554   22.9631 N   0  0  0  0  0  0  0  0  0  0  0  0
   11.7984    2.9282   22.4675 C   0  0  0  0  0  0  0  0  0  0  0  0
   10.7305    2.8558   22.2329 H   0  0  0  0  0  0  0  0  0  0  0  0
   11.9302    3.7829   23.1606 H   0  0  0  0  0  0  0  0  0  0  0  0
   12.3177    3.1735   21.5347 H   0  0  0  0  0  0  0  0  0  0  0  0
   13.7145    1.6343   23.2270 C   0  0  0  0  0  0  0  0  0  0  0  0
   13.9540    2.0527   24.2141 H   0  0  0  0  0  0  0  0  0  0  0  0
   14.0845    0.6028   23.1766 H   0  0  0  0  0  0  0  0  0  0  0  0
   14.2650    2.2188   22.4909 H   0  0  0  0  0  0  0  0  0  0  0  0
    8.4187   -2.1280   22.8777 C   0  0  0  0  0  0  0  0  0  0  0  0
    8.8613   -2.6659   23.8720 O   0  0  0  0  0  0  0  0  0  0  0  0
    7.1507   -2.4536   22.4686 N   0  0  0  0  0  0  0  0  0  0  0  0
    6.6566   -3.1227   23.0202 H   0  0  0  0  0  0  0  0  0  0  0  0
    6.4621   -1.9748   21.3992 C   0  0  0  0  0  0  0  0  0  0  0  0
    5.3775   -2.4392   21.1415 O   0  0  0  0  0  0  0  0  0  0  0  0
    5.2635    0.4618   19.8851 C   0  0  0  0  0  0  0  0  0  0  0  0
    4.7597    0.3232   20.8417 H   0  0  0  0  0  0  0  0  0  0  0  0
    4.7560    1.3095   18.8915 C   0  0  0  0  0  0  0  0  0  0  0  0
    3.8537    1.8887   19.0499 H   0  0  0  0  0  0  0  0  0  0  0  0
  1  2  1  0
  2  3  2  0
  3  4  1  0
  4  5  1  0
  4  6  2  0
  6  7  1  0
  7  8  1  0
  8  9  1  0
  8 10  2  0
 10 11  1  0
 11 12  1  0
 11 13  1  0
 11 14  1  0
 14 15  1  0
 14 16  1  0
 14 17  1  0
 17 18  1  0
 17 19  1  0
 17 20  1  0
 20 21  1  0
 21 22  1  0
 21 23  1  0
 21 24  1  0
 20 25  1  0
 25 26  1  0
 25 27  1  0
 25 28  1  0
 10 29  1  0
 29 30  2  0
 29 31  1  0
 31 32  1  0
 31 33  1  0
 33 34  2  0
  6 35  1  0
 35 36  1  0
 35 37  2  0
 37 38  1  0
 37  2  1  0
 33  7  1  0
M  END
>  <cnnaffinity>  (1) 
-4.96347

>  <filename>  (1) 
CN(C)CCCc1cn(-c2cccnc2)c(=O)[nH]c1=O

$$$$
