
     RDKit          3D

 42 43  0  0  0  0  0  0  0  0999 V2000
    4.9399    1.7840   16.9967 H   0  0  0  0  0  0  0  0  0  0  0  0
    5.4119    1.2896   17.8446 C   0  0  0  0  0  0  0  0  0  0  0  0
    6.5735    0.6691   17.5945 N   0  0  0  0  0  0  0  0  0  0  0  0
    7.1800    0.0508   18.6163 C   0  0  0  0  0  0  0  0  0  0  0  0
    8.1309   -0.4245   18.3736 H   0  0  0  0  0  0  0  0  0  0  0  0
    6.6587   -0.0221   19.9290 C   0  0  0  0  0  0  0  0  0  0  0  0
    7.3299   -0.7363   20.9943 N   0  0  0  0  0  0  0  0  0  0  0  0
    6.6313   -1.7362   21.6784 C   0  0  0  0  0  0  0  0  0  0  0  0
    5.5282   -2.1238   21.3945 O   0  0  0  0  0  0  0  0  0  0  0  0
    7.4020   -2.2254   22.7429 O   0  0  0  0  0  0  0  0  0  0  0  0
    6.7954   -3.2768   23.4924 N   0  0  0  0  0  0  0  0  0  0  0  0
    6.1250   -2.6320   24.6408 C   0  0  0  0  0  0  0  0  0  0  0  0
    5.3794   -1.9506   24.2448 H   0  0  0  0  0  0  0  0  0  0  0  0
    6.8518   -2.0135   25.1976 H   0  0  0  0  0  0  0  0  0  0  0  0
    5.4472   -3.6744   25.5334 C   0  0  0  0  0  0  0  0  0  0  0  0
    4.6598   -4.1939   24.9705 H   0  0  0  0  0  0  0  0  0  0  0  0
    4.9647   -3.1837   26.3818 H   0  0  0  0  0  0  0  0  0  0  0  0
    6.4790   -4.6829   26.0501 C   0  0  0  0  0  0  0  0  0  0  0  0
    7.1888   -4.1092   26.6723 H   0  0  0  0  0  0  0  0  0  0  0  0
    5.8694   -5.6729   26.9420 N   0  0  0  0  0  0  0  0  0  0  0  0
    6.8069   -6.2284   27.9129 C   0  0  0  0  0  0  0  0  0  0  0  0
    7.2551   -5.4256   28.5116 H   0  0  0  0  0  0  0  0  0  0  0  0
    7.6349   -6.8075   27.4603 H   0  0  0  0  0  0  0  0  0  0  0  0
    6.2712   -6.8924   28.6022 H   0  0  0  0  0  0  0  0  0  0  0  0
    5.1120   -6.7389   26.2932 C   0  0  0  0  0  0  0  0  0  0  0  0
    4.4280   -6.3394   25.5346 H   0  0  0  0  0  0  0  0  0  0  0  0
    4.5069   -7.2593   27.0465 H   0  0  0  0  0  0  0  0  0  0  0  0
    5.7557   -7.4928   25.8039 H   0  0  0  0  0  0  0  0  0  0  0  0
    7.2574   -5.2734   24.8514 C   0  0  0  0  0  0  0  0  0  0  0  0
    8.0365   -5.9397   25.2335 H   0  0  0  0  0  0  0  0  0  0  0  0
    6.5722   -5.8875   24.2494 H   0  0  0  0  0  0  0  0  0  0  0  0
    7.8662   -4.1724   23.9713 C   0  0  0  0  0  0  0  0  0  0  0  0
    8.3711   -4.6062   23.0987 H   0  0  0  0  0  0  0  0  0  0  0  0
    8.6210   -3.5985   24.5417 H   0  0  0  0  0  0  0  0  0  0  0  0
    8.7646   -0.4680   21.1898 C   0  0  0  0  0  0  0  0  0  0  0  0
    9.4084   -1.2340   20.7350 H   0  0  0  0  0  0  0  0  0  0  0  0
    8.9791    0.4895   20.7065 H   0  0  0  0  0  0  0  0  0  0  0  0
    9.0365   -0.3720   22.2465 H   0  0  0  0  0  0  0  0  0  0  0  0
    5.4452    0.6406   20.1695 C   0  0  0  0  0  0  0  0  0  0  0  0
    5.0102    0.6148   21.1677 H   0  0  0  0  0  0  0  0  0  0  0  0
    4.8228    1.3098   19.1110 C   0  0  0  0  0  0  0  0  0  0  0  0
    3.8894    1.8367   19.2561 H   0  0  0  0  0  0  0  0  0  0  0  0
  1  2  1  0
  2  3  2  0
  3  4  1  0
  4  5  1  0
  4  6  2  0
  6  7  1  0
  7  8  1  0
  8  9  2  0
  8 10  1  0
 10 11  1  0
 11 12  1  0
 12 13  1  0
 12 14  1  0
 12 15  1  0
 15 16  1  0
 15 17  1  0
 15 18  1  0
 18 19  1  0
 18 20  1  0
 20 21  1  0
 21 22  1  0
 21 23  1  0
 21 24  1  0
 20 25  1  0
 25 26  1  0
 25 27  1  0
 25 28  1  0
 18 29  1  0
 29 30  1  0
 29 31  1  0
 29 32  1  0
 32 33  1  0
 32 34  1  0
  7 35  1  0
 35 36  1  0
 35 37  1  0
 35 38  1  0
  6 39  1  0
 39 40  1  0
 39 41  2  0
 41 42  1  0
 41  2  1  0
 32 11  1  0
M  END
>  <cnnaffinity>  (1) 
-4.83523

>  <filename>  (1) 
CN(C(=O)ON1CCC(N(C)C)CC1)c1cccnc1

$$$$
