
     RDKit          3D

 32 33  0  0  0  0  0  0  0  0999 V2000
    4.9580    1.7806   16.9892 H   0  0  0  0  0  0  0  0  0  0  0  0
    5.4112    1.2820   17.8459 C   0  0  0  0  0  0  0  0  0  0  0  0
    6.5711    0.6573   17.6113 N   0  0  0  0  0  0  0  0  0  0  0  0
    7.1638    0.0462   18.6420 C   0  0  0  0  0  0  0  0  0  0  0  0
    8.1119   -0.4303   18.4037 H   0  0  0  0  0  0  0  0  0  0  0  0
    6.6361    0.0069   19.9425 C   0  0  0  0  0  0  0  0  0  0  0  0
    7.3751   -0.7089   20.9994 C   0  0  0  0  0  0  0  0  0  0  0  0
    6.8956   -0.7787   22.2219 N   0  0  0  0  0  0  0  0  0  0  0  0
    7.8297   -1.5192   22.9429 O   0  0  0  0  0  0  0  0  0  0  0  0
    8.8269   -1.8562   22.1222 C   0  0  0  0  0  0  0  0  0  0  0  0
    9.8494   -2.5766   22.5573 O   0  0  0  0  0  0  0  0  0  0  0  0
    9.9184   -3.0350   23.9168 C   0  0  0  0  0  0  0  0  0  0  0  0
    9.6961   -2.2287   24.6316 H   0  0  0  0  0  0  0  0  0  0  0  0
   10.9660   -3.3241   24.0150 H   0  0  0  0  0  0  0  0  0  0  0  0
    9.0029   -4.2493   24.1808 C   0  0  0  0  0  0  0  0  0  0  0  0
    7.9588   -3.9630   23.9774 H   0  0  0  0  0  0  0  0  0  0  0  0
    9.2573   -5.0458   23.4656 H   0  0  0  0  0  0  0  0  0  0  0  0
    9.0911   -4.8010   25.5286 N   0  0  0  0  0  0  0  0  0  0  0  0
   10.3757   -5.3990   25.8616 C   0  0  0  0  0  0  0  0  0  0  0  0
   11.1794   -4.6629   26.0620 H   0  0  0  0  0  0  0  0  0  0  0  0
   10.2645   -6.0165   26.7601 H   0  0  0  0  0  0  0  0  0  0  0  0
   10.7033   -6.0463   25.0408 H   0  0  0  0  0  0  0  0  0  0  0  0
    8.6097   -3.9159   26.5764 C   0  0  0  0  0  0  0  0  0  0  0  0
    8.4456   -4.4958   27.4941 H   0  0  0  0  0  0  0  0  0  0  0  0
    7.6514   -3.4723   26.2737 H   0  0  0  0  0  0  0  0  0  0  0  0
    9.3129   -3.0937   26.8185 H   0  0  0  0  0  0  0  0  0  0  0  0
    8.6153   -1.3842   20.8729 C   0  0  0  0  0  0  0  0  0  0  0  0
    9.2787   -1.5445   20.0433 H   0  0  0  0  0  0  0  0  0  0  0  0
    5.4161    0.6613   20.1740 C   0  0  0  0  0  0  0  0  0  0  0  0
    4.9682    0.6627   21.1672 H   0  0  0  0  0  0  0  0  0  0  0  0
    4.7998    1.3109   19.1032 C   0  0  0  0  0  0  0  0  0  0  0  0
    3.8687    1.8477   19.2305 H   0  0  0  0  0  0  0  0  0  0  0  0
  1  2  1  0
  2  3  2  0
  3  4  1  0
  4  5  1  0
  4  6  2  0
  6  7  1  0
  7  8  2  0
  8  9  1  0
  9 10  1  0
 10 11  1  0
 11 12  1  0
 12 13  1  0
 12 14  1  0
 12 15  1  0
 15 16  1  0
 15 17  1  0
 15 18  1  0
 18 19  1  0
 19 20  1  0
 19 21  1  0
 19 22  1  0
 18 23  1  0
 23 24  1  0
 23 25  1  0
 23 26  1  0
 10 27  2  0
 27 28  1  0
  6 29  1  0
 29 30  1  0
 29 31  2  0
 31 32  1  0
 31  2  1  0
 27  7  1  0
M  END
>  <cnnaffinity>  (1) 
-4.37276

>  <filename>  (1) 
CN(C)CCOc1cc(-c2cccnc2)no1

$$$$
