
     RDKit          3D

 33 35  0  0  0  0  0  0  0  0999 V2000
    4.9686    1.8295   16.9459 H   0  0  0  0  0  0  0  0  0  0  0  0
    5.4143    1.2986   17.7814 C   0  0  0  0  0  0  0  0  0  0  0  0
    6.5658    0.6609   17.5262 N   0  0  0  0  0  0  0  0  0  0  0  0
    7.1472    0.0086   18.5369 C   0  0  0  0  0  0  0  0  0  0  0  0
    8.0987   -0.4722   18.3124 H   0  0  0  0  0  0  0  0  0  0  0  0
    6.6186   -0.0443   19.8411 C   0  0  0  0  0  0  0  0  0  0  0  0
    7.3816   -0.6779   20.9328 C   0  0  0  0  0  0  0  0  0  0  0  0
    8.4898   -1.3964   20.6922 N   0  0  0  0  0  0  0  0  0  0  0  0
    8.9292   -1.6929   21.9372 N   0  0  0  0  0  0  0  0  0  0  0  0
   10.0659   -2.2897   22.4670 C   0  0  0  0  0  0  0  0  0  0  0  0
   10.8010   -2.7162   21.8100 H   0  0  0  0  0  0  0  0  0  0  0  0
    9.9738   -2.1387   23.8130 C   0  0  0  0  0  0  0  0  0  0  0  0
   10.6643   -2.4629   24.5798 H   0  0  0  0  0  0  0  0  0  0  0  0
    8.7869   -1.4571   24.1213 N   0  0  0  0  0  0  0  0  0  0  0  0
    8.2427   -1.0077   25.3920 C   0  0  0  0  0  0  0  0  0  0  0  0
    7.6611   -0.1043   25.1742 H   0  0  0  0  0  0  0  0  0  0  0  0
    9.0572   -0.7047   26.0640 H   0  0  0  0  0  0  0  0  0  0  0  0
    7.4005   -1.9538   26.1007 N   0  0  0  0  0  0  0  0  0  0  0  0
    6.1293   -2.2314   25.4431 C   0  0  0  0  0  0  0  0  0  0  0  0
    5.4856   -2.8219   26.1059 H   0  0  0  0  0  0  0  0  0  0  0  0
    6.2202   -2.7721   24.4828 H   0  0  0  0  0  0  0  0  0  0  0  0
    5.5978   -1.2911   25.2505 H   0  0  0  0  0  0  0  0  0  0  0  0
    8.1184   -3.1460   26.5283 C   0  0  0  0  0  0  0  0  0  0  0  0
    7.5047   -3.7349   27.2195 H   0  0  0  0  0  0  0  0  0  0  0  0
    8.4321   -3.8092   25.7008 H   0  0  0  0  0  0  0  0  0  0  0  0
    9.0163   -2.8523   27.0829 H   0  0  0  0  0  0  0  0  0  0  0  0
    8.1575   -1.1942   22.9196 C   0  0  0  0  0  0  0  0  0  0  0  0
    7.1008   -0.5378   22.3188 C   0  0  0  0  0  0  0  0  0  0  0  0
    6.2546   -0.0500   22.7660 H   0  0  0  0  0  0  0  0  0  0  0  0
    5.4023    0.6223   20.0817 C   0  0  0  0  0  0  0  0  0  0  0  0
    4.9533    0.6495   21.0772 H   0  0  0  0  0  0  0  0  0  0  0  0
    4.7932    1.3031   19.0337 C   0  0  0  0  0  0  0  0  0  0  0  0
    3.8727    1.8562   19.1800 H   0  0  0  0  0  0  0  0  0  0  0  0
  1  2  1  0
  2  3  2  0
  3  4  1  0
  4  5  1  0
  4  6  2  0
  6  7  1  0
  7  8  2  0
  8  9  1  0
  9 10  1  0
 10 11  1  0
 10 12  2  0
 12 13  1  0
 12 14  1  0
 14 15  1  0
 15 16  1  0
 15 17  1  0
 15 18  1  0
 18 19  1  0
 19 20  1  0
 19 21  1  0
 19 22  1  0
 18 23  1  0
 23 24  1  0
 23 25  1  0
 23 26  1  0
 14 27  1  0
 27 28  2  0
 28 29  1  0
  6 30  1  0
 30 31  1  0
 30 32  2  0
 32 33  1  0
 32  2  1  0
 28  7  1  0
 27  9  1  0
M  END
>  <cnnaffinity>  (1) 
-5.05982

>  <filename>  (1) 
CN(C)Cn1ccn2nc(-c3cccnc3)cc12

$$$$
