
     RDKit          3D

 42 44  0  0  0  0  0  0  0  0999 V2000
    9.1430   -0.2454   20.0226 H   0  0  0  0  0  0  0  0  0  0  0  0
    8.5289   -0.6302   20.8334 C   0  0  0  0  0  0  0  0  0  0  0  0
    9.1869   -1.1971   21.8524 N   0  0  0  0  0  0  0  0  0  0  0  0
    8.4371   -1.6148   22.9005 C   0  0  0  0  0  0  0  0  0  0  0  0
    9.1415   -2.1711   23.9527 N   0  0  0  0  0  0  0  0  0  0  0  0
    8.6163   -2.1810   25.3197 C   0  0  0  0  0  0  0  0  0  0  0  0
    7.8932   -1.3726   25.4656 H   0  0  0  0  0  0  0  0  0  0  0  0
    9.4427   -1.9681   26.0125 H   0  0  0  0  0  0  0  0  0  0  0  0
    8.0333   -3.5568   25.6400 C   0  0  0  0  0  0  0  0  0  0  0  0
    7.1008   -3.6901   25.0790 H   0  0  0  0  0  0  0  0  0  0  0  0
    7.7674   -3.6327   26.6970 H   0  0  0  0  0  0  0  0  0  0  0  0
    9.0231   -4.6867   25.2643 C   0  0  0  0  0  0  0  0  0  0  0  0
    8.5637   -5.2374   24.4287 H   0  0  0  0  0  0  0  0  0  0  0  0
    9.1766   -5.6559   26.3501 N   0  0  0  0  0  0  0  0  0  0  0  0
    9.8406   -5.1910   27.5700 C   0  0  0  0  0  0  0  0  0  0  0  0
    9.7159   -4.1136   27.7331 H   0  0  0  0  0  0  0  0  0  0  0  0
    9.4252   -5.7118   28.4404 H   0  0  0  0  0  0  0  0  0  0  0  0
   10.9257   -5.4061   27.5668 H   0  0  0  0  0  0  0  0  0  0  0  0
    9.7404   -6.9286   25.9173 C   0  0  0  0  0  0  0  0  0  0  0  0
   10.8265   -7.0153   26.1165 H   0  0  0  0  0  0  0  0  0  0  0  0
    9.2482   -7.7607   26.4240 H   0  0  0  0  0  0  0  0  0  0  0  0
    9.5877   -7.0667   24.8451 H   0  0  0  0  0  0  0  0  0  0  0  0
   10.3791   -4.1704   24.7464 C   0  0  0  0  0  0  0  0  0  0  0  0
   10.9369   -3.7117   25.5626 H   0  0  0  0  0  0  0  0  0  0  0  0
   10.9759   -5.0257   24.4191 H   0  0  0  0  0  0  0  0  0  0  0  0
   10.1752   -3.1710   23.6153 C   0  0  0  0  0  0  0  0  0  0  0  0
    9.8492   -3.7313   22.7286 H   0  0  0  0  0  0  0  0  0  0  0  0
   11.1134   -2.6655   23.3445 H   0  0  0  0  0  0  0  0  0  0  0  0
    7.0067   -1.4949   22.8477 C   0  0  0  0  0  0  0  0  0  0  0  0
    6.4013   -1.8598   23.6717 H   0  0  0  0  0  0  0  0  0  0  0  0
    6.3576   -0.9621   21.7981 N   0  0  0  0  0  0  0  0  0  0  0  0
    7.1146   -0.5136   20.7669 C   0  0  0  0  0  0  0  0  0  0  0  0
    6.4201    0.1219   19.6137 C   0  0  0  0  0  0  0  0  0  0  0  0
    6.9879    0.0691   18.3257 C   0  0  0  0  0  0  0  0  0  0  0  0
    7.8811   -0.5255   18.1390 H   0  0  0  0  0  0  0  0  0  0  0  0
    6.5056    0.7109   17.2570 N   0  0  0  0  0  0  0  0  0  0  0  0
    5.4028    1.4526   17.4294 C   0  0  0  0  0  0  0  0  0  0  0  0
    5.0445    1.9939   16.5547 H   0  0  0  0  0  0  0  0  0  0  0  0
    4.7200    1.5332   18.6473 C   0  0  0  0  0  0  0  0  0  0  0  0
    3.8290    2.1460   18.7170 H   0  0  0  0  0  0  0  0  0  0  0  0
    5.2215    0.8435   19.7517 C   0  0  0  0  0  0  0  0  0  0  0  0
    4.7001    0.8694   20.7084 H   0  0  0  0  0  0  0  0  0  0  0  0
  1  2  1  0
  2  3  2  0
  3  4  1  0
  4  5  1  0
  5  6  1  0
  6  7  1  0
  6  8  1  0
  6  9  1  0
  9 10  1  0
  9 11  1  0
  9 12  1  0
 12 13  1  0
 12 14  1  0
 14 15  1  0
 15 16  1  0
 15 17  1  0
 15 18  1  0
 14 19  1  0
 19 20  1  0
 19 21  1  0
 19 22  1  0
 12 23  1  0
 23 24  1  0
 23 25  1  0
 23 26  1  0
 26 27  1  0
 26 28  1  0
  4 29  2  0
 29 30  1  0
 29 31  1  0
 31 32  2  0
 32 33  1  0
 33 34  2  0
 34 35  1  0
 34 36  1  0
 36 37  2  0
 37 38  1  0
 37 39  1  0
 39 40  1  0
 39 41  2  0
 41 42  1  0
 32  2  1  0
 41 33  1  0
 26  5  1  0
M  END
>  <cnnaffinity>  (1) 
-5.17603

>  <filename>  (1) 
CN(C)C1CCN(c2cnc(-c3cccnc3)cn2)CC1

$$$$
