
     RDKit          3D

 39 40  0  0  0  0  0  0  0  0999 V2000
    5.8149   -1.6081   21.3562 H   0  0  0  0  0  0  0  0  0  0  0  0
    6.5841   -1.3988   21.8998 O   0  0  0  0  0  0  0  0  0  0  0  0
    7.4696   -0.7261   21.0186 C   0  0  1  0  0  0  0  0  0  0  0  0
    8.0806   -1.4813   20.4910 H   0  0  0  0  0  0  0  0  0  0  0  0
    6.6784    0.0109   19.9417 C   0  0  0  0  0  0  0  0  0  0  0  0
    7.1585    0.0044   18.6214 C   0  0  0  0  0  0  0  0  0  0  0  0
    8.0570   -0.5667   18.3724 H   0  0  0  0  0  0  0  0  0  0  0  0
    6.5823    0.6312   17.5867 N   0  0  0  0  0  0  0  0  0  0  0  0
    5.4519    1.3008   17.8351 C   0  0  0  0  0  0  0  0  0  0  0  0
    5.0027    1.8140   16.9852 H   0  0  0  0  0  0  0  0  0  0  0  0
    4.8462    1.3473   19.0949 C   0  0  0  0  0  0  0  0  0  0  0  0
    3.9225    1.9058   19.2245 H   0  0  0  0  0  0  0  0  0  0  0  0
    5.4596    0.6820   20.1589 C   0  0  0  0  0  0  0  0  0  0  0  0
    5.0023    0.6899   21.1520 H   0  0  0  0  0  0  0  0  0  0  0  0
    8.4750    0.1184   21.8737 C   0  0  0  0  0  0  0  0  0  0  0  0
    7.8087    1.2797   22.6583 C   0  0  0  0  0  0  0  0  0  0  0  0
    6.8139    0.9615   22.9892 H   0  0  0  0  0  0  0  0  0  0  0  0
    8.3704    1.4942   23.5782 H   0  0  0  0  0  0  0  0  0  0  0  0
    7.6653    2.5956   21.8855 C   0  0  0  0  0  0  0  0  0  0  0  0
    8.6335    3.1387   21.8730 H   0  0  0  0  0  0  0  0  0  0  0  0
    7.4471    2.3506   20.8410 H   0  0  0  0  0  0  0  0  0  0  0  0
    6.5788    3.4254   22.3941 N   0  0  0  0  0  0  0  0  0  0  0  0
    5.9789    4.2484   21.3601 C   0  0  0  0  0  0  0  0  0  0  0  0
    5.7480    3.6049   20.5058 H   0  0  0  0  0  0  0  0  0  0  0  0
    6.6119    5.0762   20.9787 H   0  0  0  0  0  0  0  0  0  0  0  0
    5.0252    4.6661   21.7015 H   0  0  0  0  0  0  0  0  0  0  0  0
    6.8788    4.1499   23.6166 C   0  0  0  0  0  0  0  0  0  0  0  0
    7.1150    3.4374   24.4132 H   0  0  0  0  0  0  0  0  0  0  0  0
    7.7216    4.8701   23.5536 H   0  0  0  0  0  0  0  0  0  0  0  0
    5.9948    4.7054   23.9479 H   0  0  0  0  0  0  0  0  0  0  0  0
    9.3617   -0.7711   22.8127 C   0  0  0  0  0  0  0  0  0  0  0  0
    9.1031   -1.8315   22.8144 H   0  0  0  0  0  0  0  0  0  0  0  0
    9.3605   -0.4510   23.8597 H   0  0  0  0  0  0  0  0  0  0  0  0
   10.6341   -0.3911   22.0257 C   0  0  0  0  0  0  0  0  0  0  0  0
   11.3781    0.1654   22.6044 H   0  0  0  0  0  0  0  0  0  0  0  0
   11.1553   -1.2303   21.5517 H   0  0  0  0  0  0  0  0  0  0  0  0
    9.7753    0.4738   21.0757 C   0  0  0  0  0  0  0  0  0  0  0  0
   10.0506    1.5320   21.0103 H   0  0  0  0  0  0  0  0  0  0  0  0
    9.7442    0.0943   20.0516 H   0  0  0  0  0  0  0  0  0  0  0  0
  1  2  1  0
  2  3  1  0
  3  4  1  6
  3  5  1  0
  5  6  2  0
  6  7  1  0
  6  8  1  0
  8  9  2  0
  9 10  1  0
  9 11  1  0
 11 12  1  0
 11 13  2  0
 13 14  1  0
  3 15  1  0
 15 16  1  0
 16 17  1  0
 16 18  1  0
 16 19  1  0
 19 20  1  0
 19 21  1  0
 19 22  1  0
 22 23  1  0
 23 24  1  0
 23 25  1  0
 23 26  1  0
 22 27  1  0
 27 28  1  0
 27 29  1  0
 27 30  1  0
 15 31  1  0
 31 32  1  0
 31 33  1  0
 31 34  1  0
 34 35  1  0
 34 36  1  0
 34 37  1  0
 37 38  1  0
 37 39  1  0
 13  5  1  0
 37 15  1  0
M  END
>  <cnnaffinity>  (1) 
-4.81423

>  <filename>  (1) 
CN(C)CCC1([C@@H](O)c2cccnc2)CCC1

$$$$
