
     RDKit          3D

 37 39  0  0  0  0  0  0  0  0999 V2000
    4.9512    1.8081   16.9802 H   0  0  0  0  0  0  0  0  0  0  0  0
    5.4027    1.2983   17.8298 C   0  0  0  0  0  0  0  0  0  0  0  0
    6.5577    0.6620   17.5787 N   0  0  0  0  0  0  0  0  0  0  0  0
    7.1503    0.0282   18.5926 C   0  0  0  0  0  0  0  0  0  0  0  0
    8.0973   -0.4585   18.3704 H   0  0  0  0  0  0  0  0  0  0  0  0
    6.6377    0.0021   19.8955 C   0  0  0  0  0  0  0  0  0  0  0  0
    7.3774   -0.6905   20.9392 C   0  0  0  0  0  0  0  0  0  0  0  0
    7.7876   -1.9997   20.7876 N   0  0  0  0  0  0  0  0  0  0  0  0
    8.2471   -2.3057   21.9720 C   0  0  0  0  0  0  0  0  0  0  0  0
    8.9438   -3.7332   22.6825 S   0  0  0  0  0  0  0  0  0  0  0  0
    9.2761   -2.8502   24.1625 C   0  0  0  0  0  0  0  0  0  0  0  0
    9.8047   -3.3529   24.9644 H   0  0  0  0  0  0  0  0  0  0  0  0
    8.8214   -1.5870   24.1210 C   0  0  0  0  0  0  0  0  0  0  0  0
    8.8717   -0.8404   24.9084 H   0  0  0  0  0  0  0  0  0  0  0  0
    8.2185   -1.2841   22.8958 N   0  0  0  0  0  0  0  0  0  0  0  0
    7.6843   -0.1961   22.2132 C   0  0  0  0  0  0  0  0  0  0  0  0
    7.5883    1.0434   22.7727 N   0  0  0  0  0  0  0  0  0  0  0  0
    7.6310    1.0753   23.7822 H   0  0  0  0  0  0  0  0  0  0  0  0
    7.6833    2.2541   21.9611 C   0  0  0  0  0  0  0  0  0  0  0  0
    8.3479    2.0523   21.1085 H   0  0  0  0  0  0  0  0  0  0  0  0
    6.7165    2.5207   21.5084 H   0  0  0  0  0  0  0  0  0  0  0  0
    8.2082    3.4330   22.7924 C   0  0  0  0  0  0  0  0  0  0  0  0
    7.4997    3.6252   23.6256 H   0  0  0  0  0  0  0  0  0  0  0  0
    9.1609    3.1282   23.2471 H   0  0  0  0  0  0  0  0  0  0  0  0
    8.4602    4.6341   22.0062 N   0  0  0  0  0  0  0  0  0  0  0  0
    9.4505    5.5100   22.6120 C   0  0  0  0  0  0  0  0  0  0  0  0
    9.1405    5.9248   23.5917 H   0  0  0  0  0  0  0  0  0  0  0  0
   10.3905    4.9607   22.7525 H   0  0  0  0  0  0  0  0  0  0  0  0
    9.6586    6.3474   21.9351 H   0  0  0  0  0  0  0  0  0  0  0  0
    7.2617    5.3546   21.6182 C   0  0  0  0  0  0  0  0  0  0  0  0
    7.5425    6.1838   20.9565 H   0  0  0  0  0  0  0  0  0  0  0  0
    6.7054    5.7632   22.4848 H   0  0  0  0  0  0  0  0  0  0  0  0
    6.5834    4.6999   21.0592 H   0  0  0  0  0  0  0  0  0  0  0  0
    5.4208    0.6609   20.1470 C   0  0  0  0  0  0  0  0  0  0  0  0
    5.0018    0.6659   21.1559 H   0  0  0  0  0  0  0  0  0  0  0  0
    4.7935    1.3198   19.0893 C   0  0  0  0  0  0  0  0  0  0  0  0
    3.8596    1.8541   19.2246 H   0  0  0  0  0  0  0  0  0  0  0  0
  1  2  1  0
  2  3  2  0
  3  4  1  0
  4  5  1  0
  4  6  2  0
  6  7  1  0
  7  8  1  0
  8  9  2  0
  9 10  1  0
 10 11  1  0
 11 12  1  0
 11 13  2  0
 13 14  1  0
 13 15  1  0
 15 16  1  0
 16 17  1  0
 17 18  1  0
 17 19  1  0
 19 20  1  0
 19 21  1  0
 19 22  1  0
 22 23  1  0
 22 24  1  0
 22 25  1  0
 25 26  1  0
 26 27  1  0
 26 28  1  0
 26 29  1  0
 25 30  1  0
 30 31  1  0
 30 32  1  0
 30 33  1  0
  6 34  1  0
 34 35  1  0
 34 36  2  0
 36 37  1  0
 36  2  1  0
 16  7  2  0
 15  9  1  0
M  END
>  <cnnaffinity>  (1) 
-4.93308

>  <filename>  (1) 
CN(C)CCNc1c(-c2cccnc2)nc2sccn12

$$$$
