
     RDKit          3D

 49 51  0  0  0  0  0  0  0  0999 V2000
    4.9223    1.7903   16.9864 H   0  0  0  0  0  0  0  0  0  0  0  0
    5.3981    1.2938   17.8285 C   0  0  0  0  0  0  0  0  0  0  0  0
    6.5569    0.6769   17.5714 N   0  0  0  0  0  0  0  0  0  0  0  0
    7.1672    0.0557   18.5952 C   0  0  0  0  0  0  0  0  0  0  0  0
    8.1171   -0.4083   18.3466 H   0  0  0  0  0  0  0  0  0  0  0  0
    6.6645   -0.0155   19.9069 C   0  0  0  0  0  0  0  0  0  0  0  0
    7.3662   -0.7433   21.0702 C   0  0  2  0  0  0  0  0  0  0  0  0
    6.4456   -1.8963   21.5428 C   0  0  0  0  0  0  0  0  0  0  0  0
    5.4722   -1.4544   21.7598 H   0  0  0  0  0  0  0  0  0  0  0  0
    6.2410   -2.5350   20.6698 H   0  0  0  0  0  0  0  0  0  0  0  0
    6.9711   -2.6814   22.6606 N   0  0  0  0  0  0  0  0  0  0  0  0
    7.3182   -4.0552   22.3076 C   0  0  0  0  0  0  0  0  0  0  0  0
    6.4056   -4.6691   22.1737 H   0  0  0  0  0  0  0  0  0  0  0  0
    7.8188   -4.0607   21.3345 H   0  0  0  0  0  0  0  0  0  0  0  0
    8.2396   -4.6725   23.3693 C   0  0  0  0  0  0  0  0  0  0  0  0
    7.9948   -5.7329   23.4696 H   0  0  0  0  0  0  0  0  0  0  0  0
    9.2773   -4.6100   23.0341 H   0  0  0  0  0  0  0  0  0  0  0  0
    8.1344   -3.9958   24.7513 C   0  0  0  0  0  0  0  0  0  0  0  0
    8.7606   -3.0829   24.7311 H   0  0  0  0  0  0  0  0  0  0  0  0
    8.6289   -4.8929   25.8110 N   0  0  0  0  0  0  0  0  0  0  0  0
    8.4810   -4.3139   27.1491 C   0  0  0  0  0  0  0  0  0  0  0  0
    8.8740   -3.2804   27.2240 H   0  0  0  0  0  0  0  0  0  0  0  0
    7.4339   -4.3008   27.4649 H   0  0  0  0  0  0  0  0  0  0  0  0
    9.0270   -4.9196   27.8796 H   0  0  0  0  0  0  0  0  0  0  0  0
   10.0324   -5.2669   25.5980 C   0  0  0  0  0  0  0  0  0  0  0  0
   10.1458   -5.8742   24.6968 H   0  0  0  0  0  0  0  0  0  0  0  0
   10.3891   -5.8750   26.4364 H   0  0  0  0  0  0  0  0  0  0  0  0
   10.7112   -4.3940   25.5111 H   0  0  0  0  0  0  0  0  0  0  0  0
    6.6855   -3.5493   24.9901 C   0  0  0  0  0  0  0  0  0  0  0  0
    6.0629   -4.4448   25.0965 H   0  0  0  0  0  0  0  0  0  0  0  0
    6.6088   -3.0055   25.9335 H   0  0  0  0  0  0  0  0  0  0  0  0
    6.1332   -2.6588   23.8599 C   0  0  0  0  0  0  0  0  0  0  0  0
    5.0987   -2.9792   23.6257 H   0  0  0  0  0  0  0  0  0  0  0  0
    6.0629   -1.6174   24.1950 H   0  0  0  0  0  0  0  0  0  0  0  0
    7.6940    0.2502   22.2245 C   0  0  0  0  0  0  0  0  0  0  0  0
    6.9410    1.0425   22.3225 H   0  0  0  0  0  0  0  0  0  0  0  0
    7.7390   -0.2913   23.1847 H   0  0  0  0  0  0  0  0  0  0  0  0
    8.9822    0.8476   21.8564 N   0  0  0  0  0  0  0  0  0  0  0  0
    9.5454    1.0148   22.6787 H   0  0  0  0  0  0  0  0  0  0  0  0
    9.6752   -0.0195   20.9011 C   0  0  0  0  0  0  0  0  0  0  0  0
    9.7368    0.4939   19.9343 H   0  0  0  0  0  0  0  0  0  0  0  0
   10.6943   -0.2765   21.2263 H   0  0  0  0  0  0  0  0  0  0  0  0
    8.7911   -1.2537   20.7742 C   0  0  0  0  0  0  0  0  0  0  0  0
    9.0587   -1.9790   21.5525 H   0  0  0  0  0  0  0  0  0  0  0  0
    8.8862   -1.7341   19.8036 H   0  0  0  0  0  0  0  0  0  0  0  0
    5.4401    0.6416   20.1416 C   0  0  0  0  0  0  0  0  0  0  0  0
    4.9998    0.6481   21.1427 H   0  0  0  0  0  0  0  0  0  0  0  0
    4.8060    1.3077   19.0943 C   0  0  0  0  0  0  0  0  0  0  0  0
    3.8792    1.8412   19.2503 H   0  0  0  0  0  0  0  0  0  0  0  0
  1  2  1  0
  2  3  2  0
  3  4  1  0
  4  5  1  0
  4  6  2  0
  6  7  1  0
  7  8  1  1
  8  9  1  0
  8 10  1  0
  8 11  1  0
 11 12  1  0
 12 13  1  0
 12 14  1  0
 12 15  1  0
 15 16  1  0
 15 17  1  0
 15 18  1  0
 18 19  1  0
 18 20  1  0
 20 21  1  0
 21 22  1  0
 21 23  1  0
 21 24  1  0
 20 25  1  0
 25 26  1  0
 25 27  1  0
 25 28  1  0
 18 29  1  0
 29 30  1  0
 29 31  1  0
 29 32  1  0
 32 33  1  0
 32 34  1  0
  7 35  1  0
 35 36  1  0
 35 37  1  0
 35 38  1  0
 38 39  1  0
 38 40  1  0
 40 41  1  0
 40 42  1  0
 40 43  1  0
 43 44  1  0
 43 45  1  0
  6 46  1  0
 46 47  1  0
 46 48  2  0
 48 49  1  0
 48  2  1  0
 43  7  1  0
 32 11  1  0
M  END
>  <cnnaffinity>  (1) 
-4.6731

>  <filename>  (1) 
CN(C)C1CCN(C[C@]2(c3cccnc3)CCNC2)CC1

$$$$
