
     RDKit          3D

 43 45  0  0  0  0  0  0  0  0999 V2000
    4.9489    1.8334   16.9642 H   0  0  0  0  0  0  0  0  0  0  0  0
    5.4003    1.2986   17.7985 C   0  0  0  0  0  0  0  0  0  0  0  0
    6.5548    0.6616   17.5456 N   0  0  0  0  0  0  0  0  0  0  0  0
    7.1499    0.0205   18.5595 C   0  0  0  0  0  0  0  0  0  0  0  0
    8.0914   -0.4728   18.3182 H   0  0  0  0  0  0  0  0  0  0  0  0
    6.6280   -0.0140   19.8698 C   0  0  0  0  0  0  0  0  0  0  0  0
    7.3322   -0.6836   20.9751 C   0  0  0  0  0  0  0  0  0  0  0  0
    8.0481   -1.7936   20.7822 N   0  0  0  0  0  0  0  0  0  0  0  0
    8.4994   -2.0958   21.9922 N   0  0  0  0  0  0  0  0  0  0  0  0
    8.1751   -1.2442   22.9776 C   0  0  0  0  0  0  0  0  0  0  0  0
    7.3973   -0.2831   22.3627 C   0  0  0  0  0  0  0  0  0  0  0  0
    6.8440    0.7985   22.9791 O   0  0  0  0  0  0  0  0  0  0  0  0
    7.3279    2.0782   22.5471 C   0  0  0  0  0  0  0  0  0  0  0  0
    7.2758    2.1358   21.4549 H   0  0  0  0  0  0  0  0  0  0  0  0
    6.6166    2.7979   22.9611 H   0  0  0  0  0  0  0  0  0  0  0  0
    8.7480    2.4007   23.0069 C   0  0  0  0  0  0  0  0  0  0  0  0
    9.0055    3.3772   22.5812 H   0  0  0  0  0  0  0  0  0  0  0  0
    9.4633    1.6894   22.5780 H   0  0  0  0  0  0  0  0  0  0  0  0
    8.9233    2.4215   24.5251 C   0  0  0  0  0  0  0  0  0  0  0  0
    8.6368    1.4338   24.9126 H   0  0  0  0  0  0  0  0  0  0  0  0
    9.9966    2.5405   24.7769 H   0  0  0  0  0  0  0  0  0  0  0  0
    8.1014    3.4486   25.1641 N   0  0  0  0  0  0  0  0  0  0  0  0
    7.7274    3.0984   26.5239 C   0  0  0  0  0  0  0  0  0  0  0  0
    7.0659    3.8647   26.9406 H   0  0  0  0  0  0  0  0  0  0  0  0
    7.1672    2.1587   26.5247 H   0  0  0  0  0  0  0  0  0  0  0  0
    8.5891    2.9833   27.2064 H   0  0  0  0  0  0  0  0  0  0  0  0
    8.6757    4.7841   25.0967 C   0  0  0  0  0  0  0  0  0  0  0  0
    7.9667    5.5108   25.5060 H   0  0  0  0  0  0  0  0  0  0  0  0
    9.6258    4.8866   25.6561 H   0  0  0  0  0  0  0  0  0  0  0  0
    8.8633    5.0783   24.0608 H   0  0  0  0  0  0  0  0  0  0  0  0
    8.9069   -1.6137   24.2350 C   0  0  0  0  0  0  0  0  0  0  0  0
    9.5619   -0.8023   24.5744 H   0  0  0  0  0  0  0  0  0  0  0  0
    8.2121   -1.8111   25.0544 H   0  0  0  0  0  0  0  0  0  0  0  0
    9.7048   -2.8914   23.8290 C   0  0  0  0  0  0  0  0  0  0  0  0
    9.3638   -3.7532   24.3985 H   0  0  0  0  0  0  0  0  0  0  0  0
   10.7721   -2.7663   24.0067 H   0  0  0  0  0  0  0  0  0  0  0  0
    9.4411   -3.1246   22.3205 C   0  0  0  0  0  0  0  0  0  0  0  0
    9.0021   -4.0987   22.0875 H   0  0  0  0  0  0  0  0  0  0  0  0
   10.3357   -2.9757   21.7117 H   0  0  0  0  0  0  0  0  0  0  0  0
    5.4160    0.6509   20.1077 C   0  0  0  0  0  0  0  0  0  0  0  0
    5.0001    0.6691   21.1159 H   0  0  0  0  0  0  0  0  0  0  0  0
    4.7851    1.3105   19.0540 C   0  0  0  0  0  0  0  0  0  0  0  0
    3.8592    1.8530   19.2035 H   0  0  0  0  0  0  0  0  0  0  0  0
  1  2  1  0
  2  3  2  0
  3  4  1  0
  4  5  1  0
  4  6  2  0
  6  7  1  0
  7  8  2  0
  8  9  1  0
  9 10  1  0
 10 11  2  0
 11 12  1  0
 12 13  1  0
 13 14  1  0
 13 15  1  0
 13 16  1  0
 16 17  1  0
 16 18  1  0
 16 19  1  0
 19 20  1  0
 19 21  1  0
 19 22  1  0
 22 23  1  0
 23 24  1  0
 23 25  1  0
 23 26  1  0
 22 27  1  0
 27 28  1  0
 27 29  1  0
 27 30  1  0
 10 31  1  0
 31 32  1  0
 31 33  1  0
 31 34  1  0
 34 35  1  0
 34 36  1  0
 34 37  1  0
 37 38  1  0
 37 39  1  0
  6 40  1  0
 40 41  1  0
 40 42  2  0
 42 43  1  0
 42  2  1  0
 11  7  1  0
 37  9  1  0
M  END
>  <cnnaffinity>  (1) 
-5.34992

>  <filename>  (1) 
CN(C)CCCOc1c(-c2cccnc2)nn2c1CCC2

$$$$
