
     RDKit          3D

 46 49  0  0  0  0  0  0  0  0999 V2000
    5.0155    1.7912   16.9928 H   0  0  0  0  0  0  0  0  0  0  0  0
    5.4359    1.2665   17.8495 C   0  0  0  0  0  0  0  0  0  0  0  0
    6.5894    0.6134   17.6373 N   0  0  0  0  0  0  0  0  0  0  0  0
    7.1294   -0.0243   18.6836 C   0  0  0  0  0  0  0  0  0  0  0  0
    8.0760   -0.5297   18.4952 H   0  0  0  0  0  0  0  0  0  0  0  0
    6.5750   -0.0676   19.9785 C   0  0  0  0  0  0  0  0  0  0  0  0
    7.3040   -0.7675   21.1064 C   0  0  0  0  0  0  0  0  0  0  0  0
    7.0436   -2.2230   21.3598 C   0  0  0  0  0  0  0  0  0  0  0  0
    7.8744   -3.2015   21.2165 N   0  0  0  0  0  0  0  0  0  0  0  0
    7.2110   -4.3616   21.5964 N   0  0  0  0  0  0  0  0  0  0  0  0
    6.0353   -3.9781   21.9952 C   0  0  0  0  0  0  0  0  0  0  0  0
    5.0268   -4.7507   22.4765 N   0  0  0  0  0  0  0  0  0  0  0  0
    4.0296   -4.2585   23.4378 C   0  0  0  0  0  0  0  0  0  0  0  0
    4.1525   -3.1830   23.5924 H   0  0  0  0  0  0  0  0  0  0  0  0
    3.0319   -4.4242   23.0093 H   0  0  0  0  0  0  0  0  0  0  0  0
    4.1104   -4.9951   24.7836 C   0  0  0  0  0  0  0  0  0  0  0  0
    4.9118   -4.5733   25.4023 H   0  0  0  0  0  0  0  0  0  0  0  0
    3.1641   -4.8444   25.3184 H   0  0  0  0  0  0  0  0  0  0  0  0
    4.3632   -6.5192   24.6154 C   0  0  0  0  0  0  0  0  0  0  0  0
    5.4060   -6.7077   24.9147 H   0  0  0  0  0  0  0  0  0  0  0  0
    3.5554   -7.3949   25.4642 N   0  0  0  0  0  0  0  0  0  0  0  0
    3.8274   -7.2253   26.8822 C   0  0  0  0  0  0  0  0  0  0  0  0
    4.9094   -7.2821   27.0611 H   0  0  0  0  0  0  0  0  0  0  0  0
    3.4610   -6.2695   27.3042 H   0  0  0  0  0  0  0  0  0  0  0  0
    3.3638   -8.0386   27.4524 H   0  0  0  0  0  0  0  0  0  0  0  0
    2.1369   -7.4927   25.1461 C   0  0  0  0  0  0  0  0  0  0  0  0
    1.6526   -8.1811   25.8472 H   0  0  0  0  0  0  0  0  0  0  0  0
    1.9943   -7.9247   24.1488 H   0  0  0  0  0  0  0  0  0  0  0  0
    1.5882   -6.5321   25.1826 H   0  0  0  0  0  0  0  0  0  0  0  0
    4.2466   -6.9815   23.1650 C   0  0  0  0  0  0  0  0  0  0  0  0
    3.2151   -6.8571   22.8080 H   0  0  0  0  0  0  0  0  0  0  0  0
    4.5046   -8.0418   23.1692 H   0  0  0  0  0  0  0  0  0  0  0  0
    5.1716   -6.1987   22.2505 C   0  0  0  0  0  0  0  0  0  0  0  0
    4.9518   -6.4379   21.1983 H   0  0  0  0  0  0  0  0  0  0  0  0
    6.2204   -6.4841   22.4196 H   0  0  0  0  0  0  0  0  0  0  0  0
    5.8378   -2.6428   21.8601 O   0  0  0  0  0  0  0  0  0  0  0  0
    8.7433   -0.3585   21.3186 C   0  0  0  0  0  0  0  0  0  0  0  0
    9.1617    0.3804   20.6420 H   0  0  0  0  0  0  0  0  0  0  0  0
    9.4141   -1.1631   21.6034 H   0  0  0  0  0  0  0  0  0  0  0  0
    7.7223    0.0777   22.3078 C   0  0  0  0  0  0  0  0  0  0  0  0
    7.7178   -0.3901   23.2862 H   0  0  0  0  0  0  0  0  0  0  0  0
    7.4331    1.1263   22.3095 H   0  0  0  0  0  0  0  0  0  0  0  0
    5.3706    0.6224   20.1690 C   0  0  0  0  0  0  0  0  0  0  0  0
    4.9143    0.6462   21.1617 H   0  0  0  0  0  0  0  0  0  0  0  0
    4.7886    1.2914   19.0897 C   0  0  0  0  0  0  0  0  0  0  0  0
    3.8593    1.8396   19.1947 H   0  0  0  0  0  0  0  0  0  0  0  0
  1  2  1  0
  2  3  2  0
  3  4  1  0
  4  5  1  0
  4  6  2  0
  6  7  1  0
  7  8  1  0
  8  9  2  0
  9 10  1  0
 10 11  2  0
 11 12  1  0
 12 13  1  0
 13 14  1  0
 13 15  1  0
 13 16  1  0
 16 17  1  0
 16 18  1  0
 16 19  1  0
 19 20  1  0
 19 21  1  0
 21 22  1  0
 22 23  1  0
 22 24  1  0
 22 25  1  0
 21 26  1  0
 26 27  1  0
 26 28  1  0
 26 29  1  0
 19 30  1  0
 30 31  1  0
 30 32  1  0
 30 33  1  0
 33 34  1  0
 33 35  1  0
 11 36  1  0
  7 37  1  0
 37 38  1  0
 37 39  1  0
 37 40  1  0
 40 41  1  0
 40 42  1  0
  6 43  1  0
 43 44  1  0
 43 45  2  0
 45 46  1  0
 45  2  1  0
 40  7  1  0
 36  8  1  0
 33 12  1  0
M  END
>  <cnnaffinity>  (1) 
-4.93478

>  <filename>  (1) 
CN(C)C1CCN(c2nnc(C3(c4cccnc4)CC3)o2)CC1

$$$$
