
     RDKit          3D

 37 38  0  0  0  0  0  0  0  0999 V2000
    5.6225   -1.7264   21.7478 H   0  0  0  0  0  0  0  0  0  0  0  0
    6.6923   -1.6147   21.7740 C   0  0  0  0  0  0  0  0  0  0  0  0
    7.3393   -0.8034   20.9181 C   0  0  0  0  0  0  0  0  0  0  0  0
    6.6956    0.0259   19.8807 C   0  0  0  0  0  0  0  0  0  0  0  0
    7.2200    0.1027   18.5791 C   0  0  0  0  0  0  0  0  0  0  0  0
    8.1587   -0.3935   18.3305 H   0  0  0  0  0  0  0  0  0  0  0  0
    6.6173    0.7147   17.5560 N   0  0  0  0  0  0  0  0  0  0  0  0
    5.4463    1.3275   17.8011 C   0  0  0  0  0  0  0  0  0  0  0  0
    4.9707    1.8159   16.9513 H   0  0  0  0  0  0  0  0  0  0  0  0
    4.8485    1.3419   19.0629 C   0  0  0  0  0  0  0  0  0  0  0  0
    3.9027    1.8539   19.1976 H   0  0  0  0  0  0  0  0  0  0  0  0
    5.4789    0.6903   20.1210 C   0  0  0  0  0  0  0  0  0  0  0  0
    5.0587    0.7126   21.1272 H   0  0  0  0  0  0  0  0  0  0  0  0
    8.7263   -0.7480   20.9774 N   0  0  0  0  0  0  0  0  0  0  0  0
    9.2429   -0.0134   20.5298 H   0  0  0  0  0  0  0  0  0  0  0  0
    9.4843   -1.4381   21.8643 C   0  0  0  0  0  0  0  0  0  0  0  0
   11.1051   -1.1657   22.0111 S   0  0  0  0  0  0  0  0  0  0  0  0
    8.8425   -2.3631   22.6210 N   0  0  0  0  0  0  0  0  0  0  0  0
    9.3519   -2.4708   23.4821 H   0  0  0  0  0  0  0  0  0  0  0  0
    7.4258   -2.2728   22.8879 C   0  0  1  0  0  0  0  0  0  0  0  0
    7.0164   -3.2886   23.0344 H   0  0  0  0  0  0  0  0  0  0  0  0
    7.3716   -1.5931   24.1419 O   0  0  0  0  0  0  0  0  0  0  0  0
    6.1519   -1.7714   24.8772 C   0  0  0  0  0  0  0  0  0  0  0  0
    5.8252   -0.7789   25.2114 H   0  0  0  0  0  0  0  0  0  0  0  0
    5.3467   -2.1984   24.2603 H   0  0  0  0  0  0  0  0  0  0  0  0
    6.3905   -2.7493   26.0360 C   0  0  0  0  0  0  0  0  0  0  0  0
    7.1280   -2.3210   26.7420 H   0  0  0  0  0  0  0  0  0  0  0  0
    6.8815   -3.6205   25.5782 H   0  0  0  0  0  0  0  0  0  0  0  0
    5.1538   -3.1987   26.6813 N   0  0  0  0  0  0  0  0  0  0  0  0
    5.2883   -4.5299   27.2584 C   0  0  0  0  0  0  0  0  0  0  0  0
    4.3257   -4.8576   27.6660 H   0  0  0  0  0  0  0  0  0  0  0  0
    5.5626   -5.2414   26.4691 H   0  0  0  0  0  0  0  0  0  0  0  0
    6.0456   -4.6044   28.0646 H   0  0  0  0  0  0  0  0  0  0  0  0
    4.5832   -2.2366   27.6164 C   0  0  0  0  0  0  0  0  0  0  0  0
    3.6316   -2.6254   28.0008 H   0  0  0  0  0  0  0  0  0  0  0  0
    5.2323   -2.0072   28.4862 H   0  0  0  0  0  0  0  0  0  0  0  0
    4.3616   -1.2936   27.1024 H   0  0  0  0  0  0  0  0  0  0  0  0
  1  2  1  0
  2  3  2  0
  3  4  1  0
  4  5  2  0
  5  6  1  0
  5  7  1  0
  7  8  2  0
  8  9  1  0
  8 10  1  0
 10 11  1  0
 10 12  2  0
 12 13  1  0
  3 14  1  0
 14 15  1  0
 14 16  1  0
 16 17  2  0
 16 18  1  0
 18 19  1  0
 18 20  1  0
 20 21  1  1
 20 22  1  0
 22 23  1  0
 23 24  1  0
 23 25  1  0
 23 26  1  0
 26 27  1  0
 26 28  1  0
 26 29  1  0
 29 30  1  0
 30 31  1  0
 30 32  1  0
 30 33  1  0
 29 34  1  0
 34 35  1  0
 34 36  1  0
 34 37  1  0
 20  2  1  0
 12  4  1  0
M  END
>  <cnnaffinity>  (1) 
-4.7361

>  <filename>  (1) 
CN(C)CCO[C@H]1C=C(c2cccnc2)NC(=S)N1

$$$$
