
     RDKit          3D

 43 46  0  0  0  0  0  0  0  0999 V2000
    4.9375    1.8297   16.9675 H   0  0  0  0  0  0  0  0  0  0  0  0
    5.3989    1.3098   17.8013 C   0  0  0  0  0  0  0  0  0  0  0  0
    6.5553    0.6829   17.5434 N   0  0  0  0  0  0  0  0  0  0  0  0
    7.1466    0.0375   18.5562 C   0  0  0  0  0  0  0  0  0  0  0  0
    8.1024   -0.4275   18.3108 H   0  0  0  0  0  0  0  0  0  0  0  0
    6.6351   -0.0489   19.8679 C   0  0  0  0  0  0  0  0  0  0  0  0
    7.3611   -0.8286   20.9655 C   0  0  1  0  0  0  0  0  0  0  0  0
    6.9996   -1.8669   20.9471 H   0  0  0  0  0  0  0  0  0  0  0  0
    8.9217   -0.8920   20.8172 C   0  0  0  0  0  0  0  0  0  0  0  0
    9.2851   -0.0313   20.2463 H   0  0  0  0  0  0  0  0  0  0  0  0
    9.2633   -1.7943   20.3070 H   0  0  0  0  0  0  0  0  0  0  0  0
    9.4090   -0.8080   22.2349 C   0  0  0  0  0  0  0  0  0  0  0  0
   10.5919   -0.8598   22.8160 N   0  0  0  0  0  0  0  0  0  0  0  0
   10.3202   -0.5305   24.1038 N   0  0  0  0  0  0  0  0  0  0  0  0
   11.1063   -0.3227   24.7037 H   0  0  0  0  0  0  0  0  0  0  0  0
    8.9980   -0.2547   24.3437 C   0  0  0  0  0  0  0  0  0  0  0  0
    8.4159    0.1688   25.6300 C   0  0  0  0  0  0  0  0  0  0  0  0
    7.1192    0.7280   25.6550 C   0  0  0  0  0  0  0  0  0  0  0  0
    6.5465    0.8230   24.7337 H   0  0  0  0  0  0  0  0  0  0  0  0
    6.5528    1.1926   26.8387 C   0  0  0  0  0  0  0  0  0  0  0  0
    5.5818    1.6704   26.8214 H   0  0  0  0  0  0  0  0  0  0  0  0
    7.2352    1.0669   28.0723 C   0  0  0  0  0  0  0  0  0  0  0  0
    6.7489    1.6098   29.2474 N   0  0  0  0  0  0  0  0  0  0  0  0
    5.6520    2.5570   29.2305 C   0  0  0  0  0  0  0  0  0  0  0  0
    4.7077    2.0732   28.9522 H   0  0  0  0  0  0  0  0  0  0  0  0
    5.5261    3.0027   30.2224 H   0  0  0  0  0  0  0  0  0  0  0  0
    5.8292    3.3784   28.5240 H   0  0  0  0  0  0  0  0  0  0  0  0
    7.3611    1.2467   30.5114 C   0  0  0  0  0  0  0  0  0  0  0  0
    8.3517    1.7060   30.6457 H   0  0  0  0  0  0  0  0  0  0  0  0
    6.7213    1.5515   31.3449 H   0  0  0  0  0  0  0  0  0  0  0  0
    7.4915    0.1603   30.5694 H   0  0  0  0  0  0  0  0  0  0  0  0
    8.4768    0.3861   28.0505 C   0  0  0  0  0  0  0  0  0  0  0  0
    9.0170    0.2135   28.9723 H   0  0  0  0  0  0  0  0  0  0  0  0
    9.0861    0.0230   26.8584 C   0  0  0  0  0  0  0  0  0  0  0  0
   10.1151   -0.3325   26.9084 H   0  0  0  0  0  0  0  0  0  0  0  0
    8.3936   -0.4612   23.1182 C   0  0  0  0  0  0  0  0  0  0  0  0
    7.0931   -0.2761   22.4047 C   0  0  0  0  0  0  0  0  0  0  0  0
    6.2618   -0.8125   22.8768 H   0  0  0  0  0  0  0  0  0  0  0  0
    6.8429    0.7962   22.3579 H   0  0  0  0  0  0  0  0  0  0  0  0
    5.4191    0.6281   20.1016 C   0  0  0  0  0  0  0  0  0  0  0  0
    4.9734    0.6506   21.0971 H   0  0  0  0  0  0  0  0  0  0  0  0
    4.7933    1.3114   19.0593 C   0  0  0  0  0  0  0  0  0  0  0  0
    3.8670    1.8581   19.2188 H   0  0  0  0  0  0  0  0  0  0  0  0
  1  2  1  0
  2  3  2  0
  3  4  1  0
  4  5  1  0
  4  6  2  0
  6  7  1  0
  7  8  1  1
  7  9  1  0
  9 10  1  0
  9 11  1  0
  9 12  1  0
 12 13  2  0
 13 14  1  0
 14 15  1  0
 14 16  1  0
 16 17  1  0
 17 18  2  0
 18 19  1  0
 18 20  1  0
 20 21  1  0
 20 22  2  0
 22 23  1  0
 23 24  1  0
 24 25  1  0
 24 26  1  0
 24 27  1  0
 23 28  1  0
 28 29  1  0
 28 30  1  0
 28 31  1  0
 22 32  1  0
 32 33  1  0
 32 34  2  0
 34 35  1  0
 16 36  2  0
 36 37  1  0
 37 38  1  0
 37 39  1  0
  6 40  1  0
 40 41  1  0
 40 42  2  0
 42 43  1  0
 42  2  1  0
 37  7  1  0
 36 12  1  0
 34 17  1  0
M  END
>  <cnnaffinity>  (1) 
-5.07813

>  <filename>  (1) 
CN(C)c1ccc(-c2[nH]nc3c2C[C@@H](c2cccnc2)C3)cc1

$$$$
