
     RDKit          3D

 38 41  0  0  0  0  0  0  0  0999 V2000
    4.9300    1.7729   17.0023 H   0  0  0  0  0  0  0  0  0  0  0  0
    5.4091    1.2852   17.8466 C   0  0  0  0  0  0  0  0  0  0  0  0
    6.5735    0.6669   17.5953 N   0  0  0  0  0  0  0  0  0  0  0  0
    7.1789    0.0530   18.6165 C   0  0  0  0  0  0  0  0  0  0  0  0
    8.1259   -0.4325   18.3860 H   0  0  0  0  0  0  0  0  0  0  0  0
    6.6449    0.0167   19.9125 C   0  0  0  0  0  0  0  0  0  0  0  0
    7.3659   -0.6889   20.9667 C   0  0  0  0  0  0  0  0  0  0  0  0
    8.5491   -1.3282   20.7559 N   0  0  0  0  0  0  0  0  0  0  0  0
    8.8013   -1.8169   21.9492 C   0  0  0  0  0  0  0  0  0  0  0  0
    9.9954   -2.8132   22.7262 S   0  0  0  0  0  0  0  0  0  0  0  0
    9.0775   -2.7656   24.2036 C   0  0  0  0  0  0  0  0  0  0  0  0
    9.4587   -3.2845   25.0712 H   0  0  0  0  0  0  0  0  0  0  0  0
    7.9528   -2.0187   24.1231 C   0  0  0  0  0  0  0  0  0  0  0  0
    6.9660   -1.7624   25.1993 C   0  0  0  0  0  0  0  0  0  0  0  0
    6.7466   -2.7400   26.1888 C   0  0  0  0  0  0  0  0  0  0  0  0
    7.2904   -3.6809   26.1403 H   0  0  0  0  0  0  0  0  0  0  0  0
    5.8388   -2.5435   27.2246 C   0  0  0  0  0  0  0  0  0  0  0  0
    5.6971   -3.3240   27.9631 H   0  0  0  0  0  0  0  0  0  0  0  0
    5.0925   -1.3433   27.3222 C   0  0  0  0  0  0  0  0  0  0  0  0
    4.1790   -1.1404   28.3481 N   0  0  0  0  0  0  0  0  0  0  0  0
    3.1299   -0.1437   28.2158 C   0  0  0  0  0  0  0  0  0  0  0  0
    2.3874   -0.2661   29.0108 H   0  0  0  0  0  0  0  0  0  0  0  0
    2.5991   -0.2461   27.2616 H   0  0  0  0  0  0  0  0  0  0  0  0
    3.5047    0.8869   28.2779 H   0  0  0  0  0  0  0  0  0  0  0  0
    4.2627   -1.9181   29.5742 C   0  0  0  0  0  0  0  0  0  0  0  0
    3.6152   -1.4850   30.3433 H   0  0  0  0  0  0  0  0  0  0  0  0
    3.9528   -2.9633   29.4408 H   0  0  0  0  0  0  0  0  0  0  0  0
    5.2822   -1.9234   29.9783 H   0  0  0  0  0  0  0  0  0  0  0  0
    5.3220   -0.3611   26.3262 C   0  0  0  0  0  0  0  0  0  0  0  0
    4.7757    0.5727   26.3657 H   0  0  0  0  0  0  0  0  0  0  0  0
    6.2373   -0.5618   25.2977 C   0  0  0  0  0  0  0  0  0  0  0  0
    6.3886    0.2043   24.5429 H   0  0  0  0  0  0  0  0  0  0  0  0
    7.8362   -1.4845   22.8327 N   0  0  0  0  0  0  0  0  0  0  0  0
    6.8868   -0.7512   22.2048 N   0  0  0  0  0  0  0  0  0  0  0  0
    5.4238    0.6595   20.1684 C   0  0  0  0  0  0  0  0  0  0  0  0
    4.9975    0.6358   21.1770 H   0  0  0  0  0  0  0  0  0  0  0  0
    4.8042    1.3102   19.1084 C   0  0  0  0  0  0  0  0  0  0  0  0
    3.8741    1.8430   19.2560 H   0  0  0  0  0  0  0  0  0  0  0  0
  1  2  1  0
  2  3  2  0
  3  4  1  0
  4  5  1  0
  4  6  2  0
  6  7  1  0
  7  8  1  0
  8  9  2  0
  9 10  1  0
 10 11  1  0
 11 12  1  0
 11 13  2  0
 13 14  1  0
 14 15  2  0
 15 16  1  0
 15 17  1  0
 17 18  1  0
 17 19  2  0
 19 20  1  0
 20 21  1  0
 21 22  1  0
 21 23  1  0
 21 24  1  0
 20 25  1  0
 25 26  1  0
 25 27  1  0
 25 28  1  0
 19 29  1  0
 29 30  1  0
 29 31  2  0
 31 32  1  0
 13 33  1  0
 33 34  1  0
  6 35  1  0
 35 36  1  0
 35 37  2  0
 37 38  1  0
 37  2  1  0
 34  7  2  0
 33  9  1  0
 31 14  1  0
M  END
>  <cnnaffinity>  (1) 
-5.5562

>  <filename>  (1) 
CN(C)c1ccc(-c2csc3nc(-c4cccnc4)nn23)cc1

$$$$
