
     RDKit          3D

 43 46  0  0  0  0  0  0  0  0999 V2000
    5.4218    1.7939   16.5234 H   0  0  0  0  0  0  0  0  0  0  0  0
    5.8084    1.3635   17.4450 C   0  0  0  0  0  0  0  0  0  0  0  0
    6.9580    0.6848   17.3426 N   0  0  0  0  0  0  0  0  0  0  0  0
    7.4719    0.1517   18.4543 C   0  0  0  0  0  0  0  0  0  0  0  0
    8.4045   -0.3970   18.3387 H   0  0  0  0  0  0  0  0  0  0  0  0
    6.8730    0.2694   19.7220 C   0  0  0  0  0  0  0  0  0  0  0  0
    7.5231   -0.3264   20.8997 C   0  0  0  0  0  0  0  0  0  0  0  0
    8.7167   -0.9283   20.7846 N   0  0  0  0  0  0  0  0  0  0  0  0
    8.9696   -1.3344   22.0476 N   0  0  0  0  0  0  0  0  0  0  0  0
    9.9621   -2.0925   22.6577 C   0  0  0  0  0  0  0  0  0  0  0  0
   10.8221   -2.4136   22.0935 H   0  0  0  0  0  0  0  0  0  0  0  0
    9.5541   -2.2700   23.9400 C   0  0  0  0  0  0  0  0  0  0  0  0
   10.0051   -2.8247   24.7495 H   0  0  0  0  0  0  0  0  0  0  0  0
    8.3342   -1.6126   24.1321 N   0  0  0  0  0  0  0  0  0  0  0  0
    7.4069   -1.8115   25.2268 C   0  0  0  0  0  0  0  0  0  0  0  0
    7.9857   -1.7348   26.1543 H   0  0  0  0  0  0  0  0  0  0  0  0
    6.6795   -0.9799   25.2060 H   0  0  0  0  0  0  0  0  0  0  0  0
    6.7478   -3.1184   25.2160 N   0  0  0  0  0  0  0  0  0  0  0  0
    6.0817   -3.4031   26.4795 C   0  0  0  0  0  0  0  0  0  0  0  0
    6.7882   -3.2535   27.3029 H   0  0  0  0  0  0  0  0  0  0  0  0
    5.7707   -4.4489   26.5439 H   0  0  0  0  0  0  0  0  0  0  0  0
    5.1883   -2.7773   26.6734 H   0  0  0  0  0  0  0  0  0  0  0  0
    5.9362   -3.3806   24.0045 C   0  0  0  0  0  0  0  0  0  0  0  0
    4.9075   -2.9725   24.1303 H   0  0  0  0  0  0  0  0  0  0  0  0
    6.3668   -2.8042   23.1699 H   0  0  0  0  0  0  0  0  0  0  0  0
    5.8485   -4.8224   23.5514 C   0  0  0  0  0  0  0  0  0  0  0  0
    6.3934   -5.2765   22.3219 C   0  0  0  0  0  0  0  0  0  0  0  0
    6.0441   -4.8244   21.3903 H   0  0  0  0  0  0  0  0  0  0  0  0
    6.2086   -6.8514   22.2497 C   0  0  0  0  0  0  0  0  0  0  0  0
    7.5363   -7.4261   22.6657 H   0  0  0  0  0  0  0  0  0  0  0  0
    6.5072   -7.0494   22.2707 C   0  0  0  0  0  0  0  0  0  0  0  0
    5.9564   -7.8332   21.4796 H   0  0  0  0  0  0  0  0  0  0  0  0
    5.1942   -7.1075   23.7411 C   0  0  0  0  0  0  0  0  0  0  0  0
    4.6275   -8.0205   24.0230 H   0  0  0  0  0  0  0  0  0  0  0  0
    5.0901   -5.8771   24.2828 C   0  0  0  0  0  0  0  0  0  0  0  0
    4.4830   -5.6215   25.1510 H   0  0  0  0  0  0  0  0  0  0  0  0
    7.9933   -1.0353   22.9263 C   0  0  0  0  0  0  0  0  0  0  0  0
    7.0123   -0.3552   22.2280 C   0  0  0  0  0  0  0  0  0  0  0  0
    6.0634    0.0136   22.5764 H   0  0  0  0  0  0  0  0  0  0  0  0
    5.6601    0.9738   19.8096 C   0  0  0  0  0  0  0  0  0  0  0  0
    5.1468    1.0980   20.7646 H   0  0  0  0  0  0  0  0  0  0  0  0
    5.1216    1.5279   18.6511 C   0  0  0  0  0  0  0  0  0  0  0  0
    4.1969    2.0946   18.6695 H   0  0  0  0  0  0  0  0  0  0  0  0
  1  2  1  0
  2  3  2  0
  3  4  1  0
  4  5  1  0
  4  6  2  0
  6  7  1  0
  7  8  2  0
  8  9  1  0
  9 10  1  0
 10 11  1  0
 10 12  2  0
 12 13  1  0
 12 14  1  0
 14 15  1  0
 15 16  1  0
 15 17  1  0
 15 18  1  0
 18 19  1  0
 19 20  1  0
 19 21  1  0
 19 22  1  0
 18 23  1  0
 23 24  1  0
 23 25  1  0
 23 26  1  0
 26 27  2  0
 27 28  1  0
 27 29  1  0
 29 30  1  0
 29 31  2  0
 31 32  1  0
 31 33  1  0
 33 34  1  0
 33 35  2  0
 35 36  1  0
 14 37  1  0
 37 38  2  0
 38 39  1  0
  6 40  1  0
 40 41  1  0
 40 42  2  0
 42 43  1  0
 42  2  1  0
 38  7  1  0
 37  9  1  0
 35 26  1  0
M  END
>  <cnnaffinity>  (1) 
-5.77564

>  <filename>  (1) 
CN(Cc1ccccc1)Cn1ccn2nc(-c3cccnc3)cc12

$$$$
