
     RDKit          3D

 34 36  0  0  0  0  0  0  0  0999 V2000
    4.9360    1.7993   16.9764 H   0  0  0  0  0  0  0  0  0  0  0  0
    5.3924    1.2966   17.8269 C   0  0  0  0  0  0  0  0  0  0  0  0
    6.5575    0.6762   17.5845 N   0  0  0  0  0  0  0  0  0  0  0  0
    7.1628    0.0768   18.6179 C   0  0  0  0  0  0  0  0  0  0  0  0
    8.1096   -0.4114   18.3775 H   0  0  0  0  0  0  0  0  0  0  0  0
    6.6443    0.0348   19.9238 C   0  0  0  0  0  0  0  0  0  0  0  0
    7.4288   -0.6484   21.0253 C   0  0  0  0  0  0  0  0  0  0  0  0
    7.5551   -1.7075   20.7712 H   0  0  0  0  0  0  0  0  0  0  0  0
    6.8538   -0.6445   21.9645 H   0  0  0  0  0  0  0  0  0  0  0  0
    8.7712   -0.1173   21.2206 N   0  0  0  0  0  0  0  0  0  0  0  0
    8.9899    1.1776   21.6408 C   0  0  0  0  0  0  0  0  0  0  0  0
   10.1994    1.6807   21.4718 N   0  0  0  0  0  0  0  0  0  0  0  0
   10.4371    2.9456   21.9310 C   0  0  0  0  0  0  0  0  0  0  0  0
   11.7326    3.5112   21.7254 C   0  0  0  0  0  0  0  0  0  0  0  0
   12.4524    2.9028   21.1889 H   0  0  0  0  0  0  0  0  0  0  0  0
   12.0106    4.7997   22.1327 C   0  0  0  0  0  0  0  0  0  0  0  0
   12.9838    5.2406   21.9386 H   0  0  0  0  0  0  0  0  0  0  0  0
   11.0131    5.5822   22.7789 C   0  0  0  0  0  0  0  0  0  0  0  0
   11.2397    6.5901   23.1013 H   0  0  0  0  0  0  0  0  0  0  0  0
    9.7582    5.0679   22.9928 C   0  0  0  0  0  0  0  0  0  0  0  0
    8.9836    5.6704   23.4597 H   0  0  0  0  0  0  0  0  0  0  0  0
    9.4432    3.7466   22.5805 C   0  0  0  0  0  0  0  0  0  0  0  0
    8.1517    3.1664   22.7420 C   0  0  0  0  0  0  0  0  0  0  0  0
    7.3762    3.7515   23.2325 H   0  0  0  0  0  0  0  0  0  0  0  0
    7.9203    1.9023   22.2816 C   0  0  0  0  0  0  0  0  0  0  0  0
    6.9749    1.3963   22.4007 H   0  0  0  0  0  0  0  0  0  0  0  0
    9.9041   -0.9658   20.8759 C   0  0  0  0  0  0  0  0  0  0  0  0
   10.6064   -1.0846   21.7106 H   0  0  0  0  0  0  0  0  0  0  0  0
    9.5402   -1.9542   20.5728 H   0  0  0  0  0  0  0  0  0  0  0  0
   10.4554   -0.5349   20.0499 H   0  0  0  0  0  0  0  0  0  0  0  0
    5.4162    0.6699   20.1482 C   0  0  0  0  0  0  0  0  0  0  0  0
    4.9651    0.6634   21.1436 H   0  0  0  0  0  0  0  0  0  0  0  0
    4.7812    1.3159   19.0836 C   0  0  0  0  0  0  0  0  0  0  0  0
    3.8511    1.8548   19.2206 H   0  0  0  0  0  0  0  0  0  0  0  0
  1  2  1  0
  2  3  2  0
  3  4  1  0
  4  5  1  0
  4  6  2  0
  6  7  1  0
  7  8  1  0
  7  9  1  0
  7 10  1  0
 10 11  1  0
 11 12  2  0
 12 13  1  0
 13 14  2  0
 14 15  1  0
 14 16  1  0
 16 17  1  0
 16 18  2  0
 18 19  1  0
 18 20  1  0
 20 21  1  0
 20 22  2  0
 22 23  1  0
 23 24  1  0
 23 25  2  0
 25 26  1  0
 10 27  1  0
 27 28  1  0
 27 29  1  0
 27 30  1  0
  6 31  1  0
 31 32  1  0
 31 33  2  0
 33 34  1  0
 33  2  1  0
 25 11  1  0
 22 13  1  0
M  END
>  <cnnaffinity>  (1) 
-5.03638

>  <filename>  (1) 
CN(Cc1cccnc1)c1ccc2ccccc2n1

$$$$
