
     RDKit          3D

 42 44  0  0  0  0  0  0  0  0999 V2000
    5.0051    1.7541   17.0778 H   0  0  0  0  0  0  0  0  0  0  0  0
    5.4734    1.2357   17.9094 C   0  0  0  0  0  0  0  0  0  0  0  0
    6.6348    0.6129   17.6454 N   0  0  0  0  0  0  0  0  0  0  0  0
    7.2467   -0.0191   18.6557 C   0  0  0  0  0  0  0  0  0  0  0  0
    8.2002   -0.4992   18.4204 H   0  0  0  0  0  0  0  0  0  0  0  0
    6.7335   -0.0796   19.9875 C   0  0  0  0  0  0  0  0  0  0  0  0
    7.3729   -0.7426   20.9990 N   0  0  0  0  0  0  0  0  0  0  0  0
    7.0337   -0.9185   22.3975 C   0  0  0  0  0  0  0  0  0  0  0  0
    6.1168   -1.5019   22.5542 H   0  0  0  0  0  0  0  0  0  0  0  0
    6.9775    0.0264   22.9636 H   0  0  0  0  0  0  0  0  0  0  0  0
    8.3706   -1.7186   22.5437 C   0  0  0  0  0  0  0  0  0  0  0  0
    9.0910   -1.2691   23.2207 H   0  0  0  0  0  0  0  0  0  0  0  0
    8.1607   -3.1799   22.8506 C   0  0  0  0  0  0  0  0  0  0  0  0
    7.5500   -3.8956   22.0679 O   0  0  0  0  0  0  0  0  0  0  0  0
    8.6529   -3.6622   24.0293 N   0  0  0  0  0  0  0  0  0  0  0  0
    9.4233   -2.9572   25.0589 C   0  0  0  0  0  0  0  0  0  0  0  0
    8.8527   -2.1285   25.4993 H   0  0  0  0  0  0  0  0  0  0  0  0
   10.3391   -2.5155   24.6453 H   0  0  0  0  0  0  0  0  0  0  0  0
    9.7511   -4.0374   26.1024 C   0  0  0  0  0  0  0  0  0  0  0  0
   10.7631   -4.4159   25.9498 H   0  0  0  0  0  0  0  0  0  0  0  0
    9.6944   -3.6395   27.1207 H   0  0  0  0  0  0  0  0  0  0  0  0
    8.7544   -5.2008   25.8869 C   0  0  1  0  0  0  0  0  0  0  0  0
    9.2702   -6.1655   25.9843 H   0  0  0  0  0  0  0  0  0  0  0  0
    7.6268   -5.2586   26.8346 N   0  0  0  0  0  0  0  0  0  0  0  0
    8.0258   -5.8090   28.1202 C   0  0  0  0  0  0  0  0  0  0  0  0
    8.3317   -6.8517   27.9927 H   0  0  0  0  0  0  0  0  0  0  0  0
    8.8618   -5.2656   28.5906 H   0  0  0  0  0  0  0  0  0  0  0  0
    7.1768   -5.8031   28.8127 H   0  0  0  0  0  0  0  0  0  0  0  0
    6.8727   -4.0208   26.9721 C   0  0  0  0  0  0  0  0  0  0  0  0
    6.5699   -3.6368   25.9930 H   0  0  0  0  0  0  0  0  0  0  0  0
    5.9529   -4.2156   27.5358 H   0  0  0  0  0  0  0  0  0  0  0  0
    7.4227   -3.2211   27.4980 H   0  0  0  0  0  0  0  0  0  0  0  0
    8.3110   -5.0371   24.4231 C   0  0  0  0  0  0  0  0  0  0  0  0
    8.8382   -5.7451   23.7740 H   0  0  0  0  0  0  0  0  0  0  0  0
    7.2379   -5.2239   24.3105 H   0  0  0  0  0  0  0  0  0  0  0  0
    8.6394   -1.4410   21.0376 C   0  0  0  0  0  0  0  0  0  0  0  0
    9.5002   -0.7973   20.8006 H   0  0  0  0  0  0  0  0  0  0  0  0
    8.6575   -2.3362   20.4106 H   0  0  0  0  0  0  0  0  0  0  0  0
    5.5099    0.5820   20.2300 C   0  0  0  0  0  0  0  0  0  0  0  0
    5.0864    0.5847   21.2339 H   0  0  0  0  0  0  0  0  0  0  0  0
    4.8769    1.2411   19.1761 C   0  0  0  0  0  0  0  0  0  0  0  0
    3.9411    1.7680   19.3332 H   0  0  0  0  0  0  0  0  0  0  0  0
  1  2  1  0
  2  3  2  0
  3  4  1  0
  4  5  1  0
  4  6  2  0
  6  7  1  0
  7  8  1  0
  8  9  1  0
  8 10  1  0
  8 11  1  0
 11 12  1  0
 11 13  1  0
 13 14  2  0
 13 15  1  0
 15 16  1  0
 16 17  1  0
 16 18  1  0
 16 19  1  0
 19 20  1  0
 19 21  1  0
 19 22  1  0
 22 23  1  6
 22 24  1  0
 24 25  1  0
 25 26  1  0
 25 27  1  0
 25 28  1  0
 24 29  1  0
 29 30  1  0
 29 31  1  0
 29 32  1  0
 22 33  1  0
 33 34  1  0
 33 35  1  0
 11 36  1  0
 36 37  1  0
 36 38  1  0
  6 39  1  0
 39 40  1  0
 39 41  2  0
 41 42  1  0
 41  2  1  0
 36  7  1  0
 33 15  1  0
M  END
>  <cnnaffinity>  (1) 
-5.00966

>  <filename>  (1) 
CN(C)[C@@H]1CCN(C(=O)C2CN(c3cccnc3)C2)C1

$$$$
