
     RDKit          3D

 38 39  0  0  0  0  0  0  0  0999 V2000
    5.1334    1.7787   16.9750 H   0  0  0  0  0  0  0  0  0  0  0  0
    5.5723    1.2769   17.8377 C   0  0  0  0  0  0  0  0  0  0  0  0
    6.7307    0.6350   17.6308 N   0  0  0  0  0  0  0  0  0  0  0  0
    7.2901    0.0229   18.6800 C   0  0  0  0  0  0  0  0  0  0  0  0
    8.2188   -0.5004   18.4572 H   0  0  0  0  0  0  0  0  0  0  0  0
    6.7323   -0.0008   19.9603 C   0  0  0  0  0  0  0  0  0  0  0  0
    7.3714   -0.7845   21.0481 C   0  0  0  0  0  0  0  0  0  0  0  0
    6.7339   -1.1962   22.0021 O   0  0  0  0  0  0  0  0  0  0  0  0
    8.7097   -1.0458   20.8642 N   0  0  0  0  0  0  0  0  0  0  0  0
    9.1814   -0.2424   20.4822 H   0  0  0  0  0  0  0  0  0  0  0  0
    9.4649   -1.6226   21.9588 C   0  0  0  0  0  0  0  0  0  0  0  0
    8.8424   -2.3364   22.5024 H   0  0  0  0  0  0  0  0  0  0  0  0
   10.3104   -2.1864   21.5369 H   0  0  0  0  0  0  0  0  0  0  0  0
    9.9699   -0.6287   22.8433 N   0  0  0  0  0  0  0  0  0  0  0  0
    9.1044    0.0157   23.8368 C   0  0  0  0  0  0  0  0  0  0  0  0
    8.0449   -0.0095   23.5372 H   0  0  0  0  0  0  0  0  0  0  0  0
    9.1650   -0.5099   24.8037 H   0  0  0  0  0  0  0  0  0  0  0  0
    9.6449    1.4596   23.9559 C   0  0  0  0  0  0  0  0  0  0  0  0
   10.3543    1.5390   24.7913 H   0  0  0  0  0  0  0  0  0  0  0  0
    8.8314    2.1762   24.1252 H   0  0  0  0  0  0  0  0  0  0  0  0
   10.4089    1.7142   22.6379 C   0  0  1  0  0  0  0  0  0  0  0  0
    9.6683    1.9724   21.8541 H   0  0  0  0  0  0  0  0  0  0  0  0
   11.4777    2.7197   22.6753 N   0  0  0  0  0  0  0  0  0  0  0  0
   12.1467    2.8540   21.3839 C   0  0  0  0  0  0  0  0  0  0  0  0
   11.4787    3.1186   20.5439 H   0  0  0  0  0  0  0  0  0  0  0  0
   12.9358    3.6109   21.4476 H   0  0  0  0  0  0  0  0  0  0  0  0
   12.6355    1.9130   21.1279 H   0  0  0  0  0  0  0  0  0  0  0  0
   11.0794    4.0013   23.2315 C   0  0  0  0  0  0  0  0  0  0  0  0
   10.1499    4.4079   22.7944 H   0  0  0  0  0  0  0  0  0  0  0  0
   11.8692    4.7355   23.0422 H   0  0  0  0  0  0  0  0  0  0  0  0
   10.9593    3.9210   24.3182 H   0  0  0  0  0  0  0  0  0  0  0  0
   10.9740    0.3071   22.3659 C   0  0  0  0  0  0  0  0  0  0  0  0
   11.9043    0.2419   22.9531 H   0  0  0  0  0  0  0  0  0  0  0  0
   11.2531    0.1474   21.3134 H   0  0  0  0  0  0  0  0  0  0  0  0
    5.5083    0.6622   20.1622 C   0  0  0  0  0  0  0  0  0  0  0  0
    5.0276    0.6379   21.1415 H   0  0  0  0  0  0  0  0  0  0  0  0
    4.9315    1.3199   19.0797 C   0  0  0  0  0  0  0  0  0  0  0  0
    3.9933    1.8541   19.1850 H   0  0  0  0  0  0  0  0  0  0  0  0
  1  2  1  0
  2  3  2  0
  3  4  1  0
  4  5  1  0
  4  6  2  0
  6  7  1  0
  7  8  2  0
  7  9  1  0
  9 10  1  0
  9 11  1  0
 11 12  1  0
 11 13  1  0
 11 14  1  0
 14 15  1  0
 15 16  1  0
 15 17  1  0
 15 18  1  0
 18 19  1  0
 18 20  1  0
 18 21  1  0
 21 22  1  6
 21 23  1  0
 23 24  1  0
 24 25  1  0
 24 26  1  0
 24 27  1  0
 23 28  1  0
 28 29  1  0
 28 30  1  0
 28 31  1  0
 21 32  1  0
 32 33  1  0
 32 34  1  0
  6 35  1  0
 35 36  1  0
 35 37  2  0
 37 38  1  0
 37  2  1  0
 32 14  1  0
M  END
>  <cnnaffinity>  (1) 
-4.4583

>  <filename>  (1) 
CN(C)[C@@H]1CCN(CNC(=O)c2cccnc2)C1

$$$$
