
     RDKit          3D

 38 40  0  0  0  0  0  0  0  0999 V2000
    4.9179    1.7781   16.9987 H   0  0  0  0  0  0  0  0  0  0  0  0
    5.4027    1.2935   17.8416 C   0  0  0  0  0  0  0  0  0  0  0  0
    6.5646    0.6732   17.5798 N   0  0  0  0  0  0  0  0  0  0  0  0
    7.1576    0.0497   18.5999 C   0  0  0  0  0  0  0  0  0  0  0  0
    8.1181   -0.4182   18.3896 H   0  0  0  0  0  0  0  0  0  0  0  0
    6.6145   -0.0224   19.9004 C   0  0  0  0  0  0  0  0  0  0  0  0
    7.3063   -0.7464   20.9968 C   0  0  0  0  0  0  0  0  0  0  0  0
    6.5600   -1.5062   21.7644 N   0  0  0  0  0  0  0  0  0  0  0  0
    7.1501   -2.1904   22.8034 N   0  0  0  0  0  0  0  0  0  0  0  0
    6.2821   -3.0010   23.6239 C   0  0  0  0  0  0  0  0  0  0  0  0
    6.4896   -3.1313   25.0073 C   0  0  0  0  0  0  0  0  0  0  0  0
    7.3059   -2.5878   25.4732 H   0  0  0  0  0  0  0  0  0  0  0  0
    5.6432   -3.9199   25.7922 C   0  0  0  0  0  0  0  0  0  0  0  0
    5.8332   -3.9891   26.8565 H   0  0  0  0  0  0  0  0  0  0  0  0
    4.5460   -4.6187   25.2324 C   0  0  0  0  0  0  0  0  0  0  0  0
    3.7020   -5.4062   26.0132 N   0  0  0  0  0  0  0  0  0  0  0  0
    4.1400   -5.8965   27.3099 C   0  0  0  0  0  0  0  0  0  0  0  0
    3.4541   -6.6613   27.6882 H   0  0  0  0  0  0  0  0  0  0  0  0
    4.1897   -5.1075   28.0711 H   0  0  0  0  0  0  0  0  0  0  0  0
    5.1300   -6.3623   27.2490 H   0  0  0  0  0  0  0  0  0  0  0  0
    2.3694   -5.7483   25.5476 C   0  0  0  0  0  0  0  0  0  0  0  0
    1.8284   -4.8631   25.1947 H   0  0  0  0  0  0  0  0  0  0  0  0
    2.3783   -6.4808   24.7308 H   0  0  0  0  0  0  0  0  0  0  0  0
    1.7735   -6.1807   26.3579 H   0  0  0  0  0  0  0  0  0  0  0  0
    4.3529   -4.4738   23.8343 C   0  0  0  0  0  0  0  0  0  0  0  0
    3.5251   -4.9863   23.3598 H   0  0  0  0  0  0  0  0  0  0  0  0
    5.2011   -3.6859   23.0498 C   0  0  0  0  0  0  0  0  0  0  0  0
    5.0350   -3.5748   21.9834 H   0  0  0  0  0  0  0  0  0  0  0  0
    8.5177   -2.1134   23.0189 C   0  0  0  0  0  0  0  0  0  0  0  0
    8.9080   -2.7261   23.8329 H   0  0  0  0  0  0  0  0  0  0  0  0
    9.3377   -1.3555   22.2692 C   0  0  0  0  0  0  0  0  0  0  0  0
   10.4053   -1.2715   22.4354 H   0  0  0  0  0  0  0  0  0  0  0  0
    8.7959   -0.5567   21.1796 C   0  0  0  0  0  0  0  0  0  0  0  0
    9.4949    0.1795   20.4866 O   0  0  0  0  0  0  0  0  0  0  0  0
    5.4161    0.6474   20.1586 C   0  0  0  0  0  0  0  0  0  0  0  0
    5.0045    0.6205   21.1710 H   0  0  0  0  0  0  0  0  0  0  0  0
    4.8007    1.3212   19.1054 C   0  0  0  0  0  0  0  0  0  0  0  0
    3.8676    1.8521   19.2570 H   0  0  0  0  0  0  0  0  0  0  0  0
  1  2  1  0
  2  3  2  0
  3  4  1  0
  4  5  1  0
  4  6  2  0
  6  7  1  0
  7  8  2  0
  8  9  1  0
  9 10  1  0
 10 11  2  0
 11 12  1  0
 11 13  1  0
 13 14  1  0
 13 15  2  0
 15 16  1  0
 16 17  1  0
 17 18  1  0
 17 19  1  0
 17 20  1  0
 16 21  1  0
 21 22  1  0
 21 23  1  0
 21 24  1  0
 15 25  1  0
 25 26  1  0
 25 27  2  0
 27 28  1  0
  9 29  1  0
 29 30  1  0
 29 31  2  0
 31 32  1  0
 31 33  1  0
 33 34  2  0
  6 35  1  0
 35 36  1  0
 35 37  2  0
 37 38  1  0
 37  2  1  0
 33  7  1  0
 27 10  1  0
M  END
>  <cnnaffinity>  (1) 
-5.32212

>  <filename>  (1) 
CN(C)c1ccc(-n2ccc(=O)c(-c3cccnc3)n2)cc1

$$$$
