
     RDKit          3D

 30 31  0  0  0  0  0  0  0  0999 V2000
   10.0688    1.6534   21.4334 H   0  0  0  0  0  0  0  0  0  0  0  0
    9.6747    0.7956   21.0557 N   0  0  0  0  0  0  0  0  0  0  0  0
    8.5664    0.6276   21.6542 C   0  0  0  0  0  0  0  0  0  0  0  0
    7.5626   -0.8187   21.1725 S   0  0  0  0  0  0  0  0  0  0  0  0
    6.6203   -0.0349   19.8662 C   0  0  0  0  0  0  0  0  0  0  0  0
    7.1428    0.0303   18.5633 C   0  0  0  0  0  0  0  0  0  0  0  0
    8.1125   -0.4187   18.3529 H   0  0  0  0  0  0  0  0  0  0  0  0
    6.5345    0.6594   17.5539 N   0  0  0  0  0  0  0  0  0  0  0  0
    5.3788    1.2866   17.8192 C   0  0  0  0  0  0  0  0  0  0  0  0
    4.9266    1.8152   16.9823 H   0  0  0  0  0  0  0  0  0  0  0  0
    4.7830    1.2976   19.0840 C   0  0  0  0  0  0  0  0  0  0  0  0
    3.8618    1.8513   19.2331 H   0  0  0  0  0  0  0  0  0  0  0  0
    5.4213    0.6332   20.1352 C   0  0  0  0  0  0  0  0  0  0  0  0
    5.0435    0.6610   21.1623 H   0  0  0  0  0  0  0  0  0  0  0  0
    8.0399    1.5501   22.5626 N   0  0  0  0  0  0  0  0  0  0  0  0
    7.0473    1.1985   23.5291 C   0  0  0  0  0  0  0  0  0  0  0  0
    5.8415    1.9116   23.6150 C   0  0  0  0  0  0  0  0  0  0  0  0
    5.6835    2.7361   22.9255 H   0  0  0  0  0  0  0  0  0  0  0  0
    4.8742    1.5525   24.5655 C   0  0  0  0  0  0  0  0  0  0  0  0
    3.9463    2.1131   24.6470 H   0  0  0  0  0  0  0  0  0  0  0  0
    5.1145    0.4781   25.4326 C   0  0  0  0  0  0  0  0  0  0  0  0
    4.3723    0.1879   26.1713 H   0  0  0  0  0  0  0  0  0  0  0  0
    6.3188   -0.2309   25.3460 C   0  0  0  0  0  0  0  0  0  0  0  0
    6.5098   -1.0705   26.0090 H   0  0  0  0  0  0  0  0  0  0  0  0
    7.2823    0.1293   24.4007 C   0  0  0  0  0  0  0  0  0  0  0  0
    8.2228   -0.4030   24.3053 H   0  0  0  0  0  0  0  0  0  0  0  0
    8.5463    2.9156   22.5324 C   0  0  0  0  0  0  0  0  0  0  0  0
    7.8724    3.5579   23.1016 H   0  0  0  0  0  0  0  0  0  0  0  0
    9.5450    3.0092   22.9866 H   0  0  0  0  0  0  0  0  0  0  0  0
    8.5936    3.2962   21.5041 H   0  0  0  0  0  0  0  0  0  0  0  0
  1  2  1  0
  2  3  2  3
  3  4  1  0
  4  5  1  0
  5  6  2  0
  6  7  1  0
  6  8  1  0
  8  9  2  0
  9 10  1  0
  9 11  1  0
 11 12  1  0
 11 13  2  0
 13 14  1  0
  3 15  1  0
 15 16  1  0
 16 17  2  0
 17 18  1  0
 17 19  1  0
 19 20  1  0
 19 21  2  0
 21 22  1  0
 21 23  1  0
 23 24  1  0
 23 25  2  0
 25 26  1  0
 15 27  1  0
 27 28  1  0
 27 29  1  0
 27 30  1  0
 13  5  1  0
 25 16  1  0
M  END
>  <cnnaffinity>  (1) 
-4.5263

>  <filename>  (1) 
CN(C(=N)Sc1cccnc1)c1ccccc1

$$$$
