
     RDKit          3D

 41 43  0  0  0  0  0  0  0  0999 V2000
    4.9169    1.7950   16.9889 H   0  0  0  0  0  0  0  0  0  0  0  0
    5.3895    1.2972   17.8325 C   0  0  0  0  0  0  0  0  0  0  0  0
    6.5469    0.6712   17.5674 N   0  0  0  0  0  0  0  0  0  0  0  0
    7.1651    0.0520   18.5799 C   0  0  0  0  0  0  0  0  0  0  0  0
    8.1216   -0.4185   18.3546 H   0  0  0  0  0  0  0  0  0  0  0  0
    6.6491   -0.0019   19.8902 C   0  0  0  0  0  0  0  0  0  0  0  0
    7.3465   -0.6956   20.9475 N   0  0  0  0  0  0  0  0  0  0  0  0
    6.7116   -1.7572   21.6036 C   0  0  0  0  0  0  0  0  0  0  0  0
    5.7062   -1.9726   21.2492 H   0  0  0  0  0  0  0  0  0  0  0  0
    7.2942   -2.4761   22.6072 C   0  0  0  0  0  0  0  0  0  0  0  0
    6.6207   -3.5160   23.2403 N   0  0  0  0  0  0  0  0  0  0  0  0
    5.4239   -4.1487   22.7009 C   0  0  0  0  0  0  0  0  0  0  0  0
    5.5878   -4.4682   21.6629 H   0  0  0  0  0  0  0  0  0  0  0  0
    4.5791   -3.4433   22.6942 H   0  0  0  0  0  0  0  0  0  0  0  0
    5.1726   -5.3392   23.6313 C   0  0  0  0  0  0  0  0  0  0  0  0
    5.6304   -6.2507   23.2305 H   0  0  0  0  0  0  0  0  0  0  0  0
    4.1012   -5.5193   23.7633 H   0  0  0  0  0  0  0  0  0  0  0  0
    5.8644   -4.9871   24.9607 C   0  0  1  0  0  0  0  0  0  0  0  0
    5.1683   -4.3607   25.5583 H   0  0  0  0  0  0  0  0  0  0  0  0
    6.2728   -6.1617   25.7438 N   0  0  0  0  0  0  0  0  0  0  0  0
    6.9667   -5.7832   26.9751 C   0  0  0  0  0  0  0  0  0  0  0  0
    7.8858   -5.2313   26.7516 H   0  0  0  0  0  0  0  0  0  0  0  0
    7.2559   -6.6821   27.5307 H   0  0  0  0  0  0  0  0  0  0  0  0
    6.3372   -5.1597   27.6401 H   0  0  0  0  0  0  0  0  0  0  0  0
    5.1427   -7.0270   26.0611 C   0  0  0  0  0  0  0  0  0  0  0  0
    4.7187   -7.4676   25.1519 H   0  0  0  0  0  0  0  0  0  0  0  0
    4.3330   -6.5031   26.6053 H   0  0  0  0  0  0  0  0  0  0  0  0
    5.4943   -7.8368   26.7046 H   0  0  0  0  0  0  0  0  0  0  0  0
    7.0381   -4.0900   24.5166 C   0  0  0  0  0  0  0  0  0  0  0  0
    7.2403   -3.3021   25.2526 H   0  0  0  0  0  0  0  0  0  0  0  0
    7.9636   -4.6743   24.4197 H   0  0  0  0  0  0  0  0  0  0  0  0
    8.7118   -2.0779   22.9907 C   0  0  0  0  0  0  0  0  0  0  0  0
    9.4626   -2.5560   23.8234 O   0  0  0  0  0  0  0  0  0  0  0  0
    9.2185   -1.0174   22.2842 N   0  0  0  0  0  0  0  0  0  0  0  0
   10.1500   -0.7493   22.5279 H   0  0  0  0  0  0  0  0  0  0  0  0
    8.6540   -0.2868   21.2973 C   0  0  0  0  0  0  0  0  0  0  0  0
    9.2762    0.6153   20.7860 O   0  0  0  0  0  0  0  0  0  0  0  0
    5.4374    0.6433   20.1506 C   0  0  0  0  0  0  0  0  0  0  0  0
    5.0275    0.6265   21.1609 H   0  0  0  0  0  0  0  0  0  0  0  0
    4.8026    1.3158   19.1014 C   0  0  0  0  0  0  0  0  0  0  0  0
    3.8727    1.8477   19.2550 H   0  0  0  0  0  0  0  0  0  0  0  0
  1  2  1  0
  2  3  2  0
  3  4  1  0
  4  5  1  0
  4  6  2  0
  6  7  1  0
  7  8  1  0
  8  9  1  0
  8 10  2  0
 10 11  1  0
 11 12  1  0
 12 13  1  0
 12 14  1  0
 12 15  1  0
 15 16  1  0
 15 17  1  0
 15 18  1  0
 18 19  1  1
 18 20  1  0
 20 21  1  0
 21 22  1  0
 21 23  1  0
 21 24  1  0
 20 25  1  0
 25 26  1  0
 25 27  1  0
 25 28  1  0
 18 29  1  0
 29 30  1  0
 29 31  1  0
 10 32  1  0
 32 33  2  0
 32 34  1  0
 34 35  1  0
 34 36  1  0
 36 37  2  0
  6 38  1  0
 38 39  1  0
 38 40  2  0
 40 41  1  0
 40  2  1  0
 36  7  1  0
 29 11  1  0
M  END
>  <cnnaffinity>  (1) 
-5.3975

>  <filename>  (1) 
CN(C)[C@@H]1CCN(c2cn(-c3cccnc3)c(=O)[nH]c2=O)C1

$$$$
