
     RDKit          3D

 39 41  0  0  0  0  0  0  0  0999 V2000
    5.0860    1.7641   16.8874 H   0  0  0  0  0  0  0  0  0  0  0  0
    5.4817    1.2662   17.7686 C   0  0  0  0  0  0  0  0  0  0  0  0
    6.6160    0.5687   17.5897 N   0  0  0  0  0  0  0  0  0  0  0  0
    7.1268   -0.0635   18.6480 C   0  0  0  0  0  0  0  0  0  0  0  0
    8.0324   -0.6409   18.4675 H   0  0  0  0  0  0  0  0  0  0  0  0
    6.5694   -0.0015   19.9397 C   0  0  0  0  0  0  0  0  0  0  0  0
    7.2393   -0.6916   21.0440 C   0  0  0  0  0  0  0  0  0  0  0  0
    7.9033   -1.8898   20.8185 N   0  0  0  0  0  0  0  0  0  0  0  0
    8.2916   -2.2697   22.0020 C   0  0  0  0  0  0  0  0  0  0  0  0
    9.1017   -3.6487   22.7066 S   0  0  0  0  0  0  0  0  0  0  0  0
    9.0671   -2.8937   24.2841 C   0  0  0  0  0  0  0  0  0  0  0  0
    9.4712   -3.4285   25.1302 H   0  0  0  0  0  0  0  0  0  0  0  0
    8.4797   -1.6874   24.2653 C   0  0  0  0  0  0  0  0  0  0  0  0
    8.3873   -0.9721   25.0747 H   0  0  0  0  0  0  0  0  0  0  0  0
    7.9946   -1.3743   22.9982 N   0  0  0  0  0  0  0  0  0  0  0  0
    7.3107   -0.3477   22.3902 C   0  0  0  0  0  0  0  0  0  0  0  0
    6.8446    0.6526   23.1584 O   0  0  0  0  0  0  0  0  0  0  0  0
    7.2150    1.9940   22.7833 C   0  0  0  0  0  0  0  0  0  0  0  0
    6.9001    2.1823   21.7458 H   0  0  0  0  0  0  0  0  0  0  0  0
    6.6493    2.6555   23.4540 H   0  0  0  0  0  0  0  0  0  0  0  0
    8.7261    2.1884   22.9436 C   0  0  0  0  0  0  0  0  0  0  0  0
    8.9799    2.2257   24.0080 H   0  0  0  0  0  0  0  0  0  0  0  0
    9.2505    1.3239   22.5142 H   0  0  0  0  0  0  0  0  0  0  0  0
    9.2197    3.4589   22.2656 C   0  0  0  0  0  0  0  0  0  0  0  0
    8.8328    3.4412   21.2371 H   0  0  0  0  0  0  0  0  0  0  0  0
   10.3259    3.4522   22.1778 H   0  0  0  0  0  0  0  0  0  0  0  0
    8.7166    4.6629   22.9260 N   0  0  0  0  0  0  0  0  0  0  0  0
    8.6280    5.7964   22.0152 C   0  0  0  0  0  0  0  0  0  0  0  0
    9.6160    6.1998   21.7116 H   0  0  0  0  0  0  0  0  0  0  0  0
    8.0924    5.5021   21.1071 H   0  0  0  0  0  0  0  0  0  0  0  0
    8.0582    6.6031   22.4880 H   0  0  0  0  0  0  0  0  0  0  0  0
    9.4951    5.0306   24.1001 C   0  0  0  0  0  0  0  0  0  0  0  0
    9.0139    5.8791   24.5943 H   0  0  0  0  0  0  0  0  0  0  0  0
   10.5385    5.3209   23.8586 H   0  0  0  0  0  0  0  0  0  0  0  0
    9.5398    4.2141   24.8271 H   0  0  0  0  0  0  0  0  0  0  0  0
    5.3776    0.7288   20.1102 C   0  0  0  0  0  0  0  0  0  0  0  0
    4.9058    0.8016   21.0938 H   0  0  0  0  0  0  0  0  0  0  0  0
    4.8207    1.3609   18.9989 C   0  0  0  0  0  0  0  0  0  0  0  0
    3.9003    1.9303   19.0758 H   0  0  0  0  0  0  0  0  0  0  0  0
  1  2  1  0
  2  3  2  0
  3  4  1  0
  4  5  1  0
  4  6  2  0
  6  7  1  0
  7  8  1  0
  8  9  2  0
  9 10  1  0
 10 11  1  0
 11 12  1  0
 11 13  2  0
 13 14  1  0
 13 15  1  0
 15 16  1  0
 16 17  1  0
 17 18  1  0
 18 19  1  0
 18 20  1  0
 18 21  1  0
 21 22  1  0
 21 23  1  0
 21 24  1  0
 24 25  1  0
 24 26  1  0
 24 27  1  0
 27 28  1  0
 28 29  1  0
 28 30  1  0
 28 31  1  0
 27 32  1  0
 32 33  1  0
 32 34  1  0
 32 35  1  0
  6 36  1  0
 36 37  1  0
 36 38  2  0
 38 39  1  0
 38  2  1  0
 16  7  2  0
 15  9  1  0
M  END
>  <cnnaffinity>  (1) 
-5.04132

>  <filename>  (1) 
CN(C)CCCOc1c(-c2cccnc2)nc2sccn12

$$$$
