
     RDKit          3D

 34 35  0  0  0  0  0  0  0  0999 V2000
    4.9132    1.7753   17.0011 H   0  0  0  0  0  0  0  0  0  0  0  0
    5.4032    1.2898   17.8438 C   0  0  0  0  0  0  0  0  0  0  0  0
    6.5696    0.6727   17.5810 N   0  0  0  0  0  0  0  0  0  0  0  0
    7.1988    0.0737   18.5999 C   0  0  0  0  0  0  0  0  0  0  0  0
    8.1373   -0.4288   18.3809 H   0  0  0  0  0  0  0  0  0  0  0  0
    6.6862    0.0346   19.9084 C   0  0  0  0  0  0  0  0  0  0  0  0
    7.3939   -0.6481   20.9514 N   0  0  0  0  0  0  0  0  0  0  0  0
    8.7273   -0.3325   21.0831 N   0  0  0  0  0  0  0  0  0  0  0  0
    9.4112   -0.9065   22.0415 C   0  0  0  0  0  0  0  0  0  0  0  0
   10.8471   -0.4876   22.2293 C   0  0  0  0  0  0  0  0  0  0  0  0
   11.4146   -1.2987   22.6978 H   0  0  0  0  0  0  0  0  0  0  0  0
   11.2897   -0.3032   21.2474 H   0  0  0  0  0  0  0  0  0  0  0  0
   10.9466    0.7800   23.0842 C   0  0  0  0  0  0  0  0  0  0  0  0
   12.0059    1.0996   23.1600 H   0  0  0  0  0  0  0  0  0  0  0  0
   10.4285    1.5761   22.5339 H   0  0  0  0  0  0  0  0  0  0  0  0
   10.3384    0.6297   24.4092 N   0  0  0  0  0  0  0  0  0  0  0  0
    9.9171    1.9120   24.9521 C   0  0  0  0  0  0  0  0  0  0  0  0
    9.1572    2.3673   24.3125 H   0  0  0  0  0  0  0  0  0  0  0  0
   10.7630    2.6156   25.0426 H   0  0  0  0  0  0  0  0  0  0  0  0
    9.4721    1.7812   25.9446 H   0  0  0  0  0  0  0  0  0  0  0  0
   11.2342   -0.0166   25.3553 C   0  0  0  0  0  0  0  0  0  0  0  0
   11.4768   -1.0084   25.0117 H   0  0  0  0  0  0  0  0  0  0  0  0
   12.1781    0.5420   25.5051 H   0  0  0  0  0  0  0  0  0  0  0  0
   10.7538   -0.1653   26.3264 H   0  0  0  0  0  0  0  0  0  0  0  0
    8.8242   -1.8919   22.9163 C   0  0  0  0  0  0  0  0  0  0  0  0
    9.4366   -2.3323   23.7018 H   0  0  0  0  0  0  0  0  0  0  0  0
    7.5233   -2.2410   22.7599 C   0  0  0  0  0  0  0  0  0  0  0  0
    7.0100   -2.9765   23.3659 H   0  0  0  0  0  0  0  0  0  0  0  0
    6.6951   -1.6462   21.7227 C   0  0  0  0  0  0  0  0  0  0  0  0
    5.5428   -1.9725   21.4877 O   0  0  0  0  0  0  0  0  0  0  0  0
    5.4527    0.6482   20.1665 C   0  0  0  0  0  0  0  0  0  0  0  0
    5.0130    0.6144   21.1630 H   0  0  0  0  0  0  0  0  0  0  0  0
    4.8139    1.3094   19.1123 C   0  0  0  0  0  0  0  0  0  0  0  0
    3.8775    1.8400   19.2649 H   0  0  0  0  0  0  0  0  0  0  0  0
  1  2  1  0
  2  3  2  0
  3  4  1  0
  4  5  1  0
  4  6  2  0
  6  7  1  0
  7  8  1  0
  8  9  2  0
  9 10  1  0
 10 11  1  0
 10 12  1  0
 10 13  1  0
 13 14  1  0
 13 15  1  0
 13 16  1  0
 16 17  1  0
 17 18  1  0
 17 19  1  0
 17 20  1  0
 16 21  1  0
 21 22  1  0
 21 23  1  0
 21 24  1  0
  9 25  1  0
 25 26  1  0
 25 27  2  0
 27 28  1  0
 27 29  1  0
 29 30  2  0
  6 31  1  0
 31 32  1  0
 31 33  2  0
 33 34  1  0
 33  2  1  0
 29  7  1  0
M  END
>  <cnnaffinity>  (1) 
-4.71985

>  <filename>  (1) 
CN(C)CCc1ccc(=O)n(-c2cccnc2)n1

$$$$
