
     RDKit          3D

 28 29  0  0  0  0  0  0  0  0999 V2000
    4.9536    1.7797   16.9776 H   0  0  0  0  0  0  0  0  0  0  0  0
    5.4179    1.2978   17.8339 C   0  0  0  0  0  0  0  0  0  0  0  0
    6.5835    0.6782   17.5986 N   0  0  0  0  0  0  0  0  0  0  0  0
    7.1727    0.0756   18.6389 C   0  0  0  0  0  0  0  0  0  0  0  0
    8.1392   -0.3828   18.4307 H   0  0  0  0  0  0  0  0  0  0  0  0
    6.6385    0.0302   19.9398 C   0  0  0  0  0  0  0  0  0  0  0  0
    7.3594   -0.7222   21.0403 C   0  0  0  0  0  0  0  0  0  0  0  0
    6.6617   -1.3748   21.5778 H   0  0  0  0  0  0  0  0  0  0  0  0
    8.0945   -1.3975   20.5841 H   0  0  0  0  0  0  0  0  0  0  0  0
    8.0581    0.1252   22.0161 N   0  0  0  0  0  0  0  0  0  0  0  0
    9.2410    0.6842   21.5715 C   0  0  0  0  0  0  0  0  0  0  0  0
    9.4561    0.8784   20.3811 O   0  0  0  0  0  0  0  0  0  0  0  0
   10.2975    0.9494   22.5842 C   0  0  0  0  0  0  0  0  0  0  0  0
   11.4848    2.1363   22.1897 S   0  0  0  0  0  0  0  0  0  0  0  0
   12.4343    1.6798   23.5389 C   0  0  0  0  0  0  0  0  0  0  0  0
   13.3944    2.1534   23.6973 H   0  0  0  0  0  0  0  0  0  0  0  0
   11.8816    0.6558   24.2536 C   0  0  0  0  0  0  0  0  0  0  0  0
   12.3411    0.1840   25.1138 H   0  0  0  0  0  0  0  0  0  0  0  0
   10.6373    0.2358   23.7039 C   0  0  0  0  0  0  0  0  0  0  0  0
   10.0408   -0.5854   24.0980 H   0  0  0  0  0  0  0  0  0  0  0  0
    7.4285    0.3821   23.3142 C   0  0  0  0  0  0  0  0  0  0  0  0
    7.4512   -0.4989   23.9736 H   0  0  0  0  0  0  0  0  0  0  0  0
    6.3719    0.6572   23.1753 H   0  0  0  0  0  0  0  0  0  0  0  0
    7.9328    1.1994   23.8441 H   0  0  0  0  0  0  0  0  0  0  0  0
    5.4186    0.6827   20.1600 C   0  0  0  0  0  0  0  0  0  0  0  0
    4.9587    0.6950   21.1522 H   0  0  0  0  0  0  0  0  0  0  0  0
    4.8004    1.3287   19.0876 C   0  0  0  0  0  0  0  0  0  0  0  0
    3.8571    1.8442   19.2066 H   0  0  0  0  0  0  0  0  0  0  0  0
  1  2  1  0
  2  3  2  0
  3  4  1  0
  4  5  1  0
  4  6  2  0
  6  7  1  0
  7  8  1  0
  7  9  1  0
  7 10  1  0
 10 11  1  0
 11 12  2  0
 11 13  1  0
 13 14  1  0
 14 15  1  0
 15 16  1  0
 15 17  2  0
 17 18  1  0
 17 19  1  0
 19 20  1  0
 10 21  1  0
 21 22  1  0
 21 23  1  0
 21 24  1  0
  6 25  1  0
 25 26  1  0
 25 27  2  0
 27 28  1  0
 27  2  1  0
 19 13  2  0
M  END
>  <cnnaffinity>  (1) 
-4.9111

>  <filename>  (1) 
CN(Cc1cccnc1)C(=O)c1cccs1

$$$$
