
     RDKit          3D

 33 34  0  0  0  0  0  0  0  0999 V2000
    4.9524    1.8346   16.8645 H   0  0  0  0  0  0  0  0  0  0  0  0
    5.4485    1.3204   17.6845 C   0  0  0  0  0  0  0  0  0  0  0  0
    6.5448    0.6143   17.3663 N   0  0  0  0  0  0  0  0  0  0  0  0
    7.1937   -0.0231   18.3469 C   0  0  0  0  0  0  0  0  0  0  0  0
    8.0648   -0.5941   18.0277 H   0  0  0  0  0  0  0  0  0  0  0  0
    6.7902    0.0105   19.6967 C   0  0  0  0  0  0  0  0  0  0  0  0
    7.4801   -0.6872   20.7289 N   0  0  0  0  0  0  0  0  0  0  0  0
    8.8141   -0.7132   21.0291 C   0  0  0  0  0  0  0  0  0  0  0  0
    9.5363   -0.1570   20.4459 H   0  0  0  0  0  0  0  0  0  0  0  0
    9.0842   -1.4501   22.0832 N   0  0  0  0  0  0  0  0  0  0  0  0
    7.8728   -1.9102   22.4947 C   0  0  0  0  0  0  0  0  0  0  0  0
    7.6633   -2.6985   23.5623 O   0  0  0  0  0  0  0  0  0  0  0  0
    8.7966   -3.1750   24.2880 C   0  0  0  0  0  0  0  0  0  0  0  0
    9.4378   -3.7660   23.6210 H   0  0  0  0  0  0  0  0  0  0  0  0
    9.3968   -2.3412   24.6708 H   0  0  0  0  0  0  0  0  0  0  0  0
    8.2545   -4.0236   25.4448 C   0  0  0  0  0  0  0  0  0  0  0  0
    7.5940   -3.3854   26.0500 H   0  0  0  0  0  0  0  0  0  0  0  0
    7.6225   -4.8294   25.0247 H   0  0  0  0  0  0  0  0  0  0  0  0
    9.3256   -4.5457   26.2932 N   0  0  0  0  0  0  0  0  0  0  0  0
   10.0702   -5.6171   25.6387 C   0  0  0  0  0  0  0  0  0  0  0  0
    9.4480   -6.5146   25.4496 H   0  0  0  0  0  0  0  0  0  0  0  0
   10.4526   -5.2769   24.6687 H   0  0  0  0  0  0  0  0  0  0  0  0
   10.9240   -5.9087   26.2576 H   0  0  0  0  0  0  0  0  0  0  0  0
    8.8708   -4.9324   27.6226 C   0  0  0  0  0  0  0  0  0  0  0  0
    8.2837   -5.8734   27.6303 H   0  0  0  0  0  0  0  0  0  0  0  0
    9.7331   -5.0650   28.2851 H   0  0  0  0  0  0  0  0  0  0  0  0
    8.2636   -4.1246   28.0547 H   0  0  0  0  0  0  0  0  0  0  0  0
    6.8683   -1.4671   21.6937 C   0  0  0  0  0  0  0  0  0  0  0  0
    5.8101   -1.6540   21.7382 H   0  0  0  0  0  0  0  0  0  0  0  0
    5.6322    0.7384   20.0133 C   0  0  0  0  0  0  0  0  0  0  0  0
    5.2884    0.7892   21.0475 H   0  0  0  0  0  0  0  0  0  0  0  0
    4.9548    1.4003   18.9899 C   0  0  0  0  0  0  0  0  0  0  0  0
    4.0575    1.9724   19.1933 H   0  0  0  0  0  0  0  0  0  0  0  0
  1  2  1  0
  2  3  2  0
  3  4  1  0
  4  5  1  0
  4  6  2  0
  6  7  1  0
  7  8  1  0
  8  9  1  0
  8 10  2  0
 10 11  1  0
 11 12  1  0
 12 13  1  0
 13 14  1  0
 13 15  1  0
 13 16  1  0
 16 17  1  0
 16 18  1  0
 16 19  1  0
 19 20  1  0
 20 21  1  0
 20 22  1  0
 20 23  1  0
 19 24  1  0
 24 25  1  0
 24 26  1  0
 24 27  1  0
 11 28  2  0
 28 29  1  0
  6 30  1  0
 30 31  1  0
 30 32  2  0
 32 33  1  0
 32  2  1  0
 28  7  1  0
M  END
>  <cnnaffinity>  (1) 
-4.70489

>  <filename>  (1) 
CN(C)CCOc1cn(-c2cccnc2)cn1

$$$$
