
     RDKit          3D

 32 34  0  0  0  0  0  0  0  0999 V2000
    4.9314    1.7982   16.9833 H   0  0  0  0  0  0  0  0  0  0  0  0
    5.4040    1.2921   17.8248 C   0  0  0  0  0  0  0  0  0  0  0  0
    6.5664    0.6702   17.5705 N   0  0  0  0  0  0  0  0  0  0  0  0
    7.1737    0.0411   18.5836 C   0  0  0  0  0  0  0  0  0  0  0  0
    8.1232   -0.4314   18.3394 H   0  0  0  0  0  0  0  0  0  0  0  0
    6.6526   -0.0196   19.8908 C   0  0  0  0  0  0  0  0  0  0  0  0
    7.3721   -0.7095   20.9777 C   0  0  0  0  0  0  0  0  0  0  0  0
    8.4713   -1.4434   20.7333 N   0  0  0  0  0  0  0  0  0  0  0  0
    8.8587   -1.8109   21.9736 N   0  0  0  0  0  0  0  0  0  0  0  0
   10.0197   -2.3491   22.5107 C   0  0  0  0  0  0  0  0  0  0  0  0
   10.7866   -2.7004   21.8470 H   0  0  0  0  0  0  0  0  0  0  0  0
    9.9060   -2.2465   23.8566 C   0  0  0  0  0  0  0  0  0  0  0  0
   10.6402   -2.4543   24.6191 H   0  0  0  0  0  0  0  0  0  0  0  0
    8.6561   -1.6522   24.1601 N   0  0  0  0  0  0  0  0  0  0  0  0
    8.1943   -1.0237   25.3505 C   0  0  0  0  0  0  0  0  0  0  0  0
    7.4835   -0.0372   25.3175 O   0  0  0  0  0  0  0  0  0  0  0  0
    8.6601   -1.5845   26.5155 N   0  0  0  0  0  0  0  0  0  0  0  0
    8.8935   -3.0113   26.7138 C   0  0  0  0  0  0  0  0  0  0  0  0
    8.5220   -3.5868   25.8622 H   0  0  0  0  0  0  0  0  0  0  0  0
    9.9580   -3.2426   26.8429 H   0  0  0  0  0  0  0  0  0  0  0  0
    8.3737   -3.3436   27.6206 H   0  0  0  0  0  0  0  0  0  0  0  0
    8.7706   -0.6914   27.6653 C   0  0  0  0  0  0  0  0  0  0  0  0
    7.7998   -0.2666   27.9577 H   0  0  0  0  0  0  0  0  0  0  0  0
    9.4458    0.1429   27.4437 H   0  0  0  0  0  0  0  0  0  0  0  0
    9.1967   -1.2501   28.4990 H   0  0  0  0  0  0  0  0  0  0  0  0
    8.0542   -1.3558   22.9430 C   0  0  0  0  0  0  0  0  0  0  0  0
    7.0595   -0.6134   22.3540 C   0  0  0  0  0  0  0  0  0  0  0  0
    6.3146   -0.0175   22.8514 H   0  0  0  0  0  0  0  0  0  0  0  0
    5.4387    0.6419   20.1353 C   0  0  0  0  0  0  0  0  0  0  0  0
    4.9950    0.6395   21.1309 H   0  0  0  0  0  0  0  0  0  0  0  0
    4.8068    1.3063   19.0893 C   0  0  0  0  0  0  0  0  0  0  0  0
    3.8761    1.8413   19.2439 H   0  0  0  0  0  0  0  0  0  0  0  0
  1  2  1  0
  2  3  2  0
  3  4  1  0
  4  5  1  0
  4  6  2  0
  6  7  1  0
  7  8  2  0
  8  9  1  0
  9 10  1  0
 10 11  1  0
 10 12  2  0
 12 13  1  0
 12 14  1  0
 14 15  1  0
 15 16  2  0
 15 17  1  0
 17 18  1  0
 18 19  1  0
 18 20  1  0
 18 21  1  0
 17 22  1  0
 22 23  1  0
 22 24  1  0
 22 25  1  0
 14 26  1  0
 26 27  2  0
 27 28  1  0
  6 29  1  0
 29 30  1  0
 29 31  2  0
 31 32  1  0
 31  2  1  0
 27  7  1  0
 26  9  1  0
M  END
>  <cnnaffinity>  (1) 
-4.97141

>  <filename>  (1) 
CN(C)C(=O)n1ccn2nc(-c3cccnc3)cc12

$$$$
