
     RDKit          3D

 36 37  0  0  0  0  0  0  0  0999 V2000
    4.9875    1.8007   17.0227 H   0  0  0  0  0  0  0  0  0  0  0  0
    5.4425    1.2814   17.8614 C   0  0  0  0  0  0  0  0  0  0  0  0
    6.6031    0.6550   17.6089 N   0  0  0  0  0  0  0  0  0  0  0  0
    7.1996    0.0256   18.6282 C   0  0  0  0  0  0  0  0  0  0  0  0
    8.1467   -0.4712   18.4056 H   0  0  0  0  0  0  0  0  0  0  0  0
    6.6557   -0.0413   19.9294 C   0  0  0  0  0  0  0  0  0  0  0  0
    7.3203   -0.7264   20.9969 N   0  0  0  0  0  0  0  0  0  0  0  0
    6.6322   -1.7743   21.6348 C   0  0  0  0  0  0  0  0  0  0  0  0
    5.5943   -2.2475   21.2010 O   0  0  0  0  0  0  0  0  0  0  0  0
    7.2224   -2.2379   22.7714 N   0  0  0  0  0  0  0  0  0  0  0  0
    8.0209   -1.7372   23.0994 H   0  0  0  0  0  0  0  0  0  0  0  0
    6.6739   -3.3656   23.5101 C   0  0  0  0  0  0  0  0  0  0  0  0
    5.5814   -3.2442   23.5373 H   0  0  0  0  0  0  0  0  0  0  0  0
    6.9735   -4.6875   22.7889 C   0  0  0  0  0  0  0  0  0  0  0  0
    6.5520   -4.6146   21.7825 H   0  0  0  0  0  0  0  0  0  0  0  0
    8.0609   -4.7890   22.6749 H   0  0  0  0  0  0  0  0  0  0  0  0
    6.4077   -5.8900   23.5494 C   0  0  0  0  0  0  0  0  0  0  0  0
    6.6956   -6.8144   23.0350 H   0  0  0  0  0  0  0  0  0  0  0  0
    5.3108   -5.8557   23.5077 H   0  0  0  0  0  0  0  0  0  0  0  0
    6.8713   -5.9093   25.0184 C   0  0  0  0  0  0  0  0  0  0  0  0
    7.9466   -6.1371   25.0451 H   0  0  0  0  0  0  0  0  0  0  0  0
    6.3774   -6.7292   25.5595 H   0  0  0  0  0  0  0  0  0  0  0  0
    6.6208   -4.5718   25.7333 C   0  0  0  0  0  0  0  0  0  0  0  0
    5.5387   -4.4279   25.8578 H   0  0  0  0  0  0  0  0  0  0  0  0
    7.0463   -4.5986   26.7431 H   0  0  0  0  0  0  0  0  0  0  0  0
    7.1931   -3.3812   24.9466 C   0  0  0  0  0  0  0  0  0  0  0  0
    8.2895   -3.4463   24.9276 H   0  0  0  0  0  0  0  0  0  0  0  0
    6.9446   -2.4352   25.4429 H   0  0  0  0  0  0  0  0  0  0  0  0
    8.6867   -0.3345   21.3322 C   0  0  0  0  0  0  0  0  0  0  0  0
    9.0554    0.3523   20.5659 H   0  0  0  0  0  0  0  0  0  0  0  0
    9.3625   -1.1993   21.3617 H   0  0  0  0  0  0  0  0  0  0  0  0
    8.7570    0.1931   22.2955 H   0  0  0  0  0  0  0  0  0  0  0  0
    5.4322    0.5999   20.1683 C   0  0  0  0  0  0  0  0  0  0  0  0
    4.9876    0.5571   21.1629 H   0  0  0  0  0  0  0  0  0  0  0  0
    4.8246    1.2876   19.1163 C   0  0  0  0  0  0  0  0  0  0  0  0
    3.8932    1.8255   19.2589 H   0  0  0  0  0  0  0  0  0  0  0  0
  1  2  1  0
  2  3  2  0
  3  4  1  0
  4  5  1  0
  4  6  2  0
  6  7  1  0
  7  8  1  0
  8  9  2  0
  8 10  1  0
 10 11  1  0
 10 12  1  0
 12 13  1  0
 12 14  1  0
 14 15  1  0
 14 16  1  0
 14 17  1  0
 17 18  1  0
 17 19  1  0
 17 20  1  0
 20 21  1  0
 20 22  1  0
 20 23  1  0
 23 24  1  0
 23 25  1  0
 23 26  1  0
 26 27  1  0
 26 28  1  0
  7 29  1  0
 29 30  1  0
 29 31  1  0
 29 32  1  0
  6 33  1  0
 33 34  1  0
 33 35  2  0
 35 36  1  0
 35  2  1  0
 26 12  1  0
M  END
>  <cnnaffinity>  (1) 
-4.81074

>  <filename>  (1) 
CN(C(=O)NC1CCCCC1)c1cccnc1

$$$$
