
     RDKit          3D

 46 49  0  0  0  0  0  0  0  0999 V2000
    5.0562    1.7745   16.8776 H   0  0  0  0  0  0  0  0  0  0  0  0
    5.3919    1.2637   17.7758 C   0  0  0  0  0  0  0  0  0  0  0  0
    6.5403    0.5805   17.6721 N   0  0  0  0  0  0  0  0  0  0  0  0
    6.9845   -0.0157   18.7814 C   0  0  0  0  0  0  0  0  0  0  0  0
    7.9046   -0.5829   18.6724 H   0  0  0  0  0  0  0  0  0  0  0  0
    6.3453    0.0308   20.0358 C   0  0  0  0  0  0  0  0  0  0  0  0
    7.0878   -0.5589   21.1581 C   0  0  0  0  0  0  0  0  0  0  0  0
    8.4553   -0.6284   21.3143 C   0  0  0  0  0  0  0  0  0  0  0  0
    8.6750   -1.2770   22.5220 C   0  0  0  0  0  0  0  0  0  0  0  0
    7.5505   -1.6260   23.1251 N   0  0  0  0  0  0  0  0  0  0  0  0
    6.5898   -1.1629   22.2745 N   0  0  0  0  0  0  0  0  0  0  0  0
    5.6155   -1.3851   22.4570 H   0  0  0  0  0  0  0  0  0  0  0  0
   10.1421   -1.4098   22.8344 C   0  0  0  0  0  0  0  0  0  0  0  0
   10.3561   -1.1478   23.8759 H   0  0  0  0  0  0  0  0  0  0  0  0
   10.4842   -2.4390   22.6749 H   0  0  0  0  0  0  0  0  0  0  0  0
   10.7904   -0.4159   21.8024 C   0  0  2  0  0  0  0  0  0  0  0  0
   11.6948   -0.8572   21.3674 H   0  0  0  0  0  0  0  0  0  0  0  0
   11.2648    0.8992   22.4523 C   0  0  0  0  0  0  0  0  0  0  0  0
   11.5545    1.6058   21.6481 H   0  0  0  0  0  0  0  0  0  0  0  0
   12.1955    0.6660   22.9855 H   0  0  0  0  0  0  0  0  0  0  0  0
   10.3260    1.5034   23.4010 N   0  0  0  0  0  0  0  0  0  0  0  0
    9.2476    2.2578   22.7623 C   0  0  0  0  0  0  0  0  0  0  0  0
    8.5764    2.6503   23.5388 H   0  0  0  0  0  0  0  0  0  0  0  0
    8.6346    1.6126   22.1292 H   0  0  0  0  0  0  0  0  0  0  0  0
    9.6025    3.1084   22.1464 H   0  0  0  0  0  0  0  0  0  0  0  0
   10.9977    2.2952   24.4510 C   0  0  0  0  0  0  0  0  0  0  0  0
   10.2291    2.6044   25.1734 H   0  0  0  0  0  0  0  0  0  0  0  0
   11.6880    1.6314   24.9897 H   0  0  0  0  0  0  0  0  0  0  0  0
   11.7560    3.5154   23.9491 C   0  0  0  0  0  0  0  0  0  0  0  0
   13.0896    3.4197   23.5197 C   0  0  0  0  0  0  0  0  0  0  0  0
   13.6458    2.5044   23.7228 H   0  0  0  0  0  0  0  0  0  0  0  0
   13.7030    4.4723   22.8382 C   0  0  0  0  0  0  0  0  0  0  0  0
   14.7272    4.3520   22.5029 H   0  0  0  0  0  0  0  0  0  0  0  0
   12.9978    5.6570   22.5921 C   0  0  0  0  0  0  0  0  0  0  0  0
   13.4649    6.4567   22.0239 H   0  0  0  0  0  0  0  0  0  0  0  0
   11.6943    5.7877   23.0829 C   0  0  0  0  0  0  0  0  0  0  0  0
   11.1174    6.6943   22.9397 H   0  0  0  0  0  0  0  0  0  0  0  0
   11.0894    4.7387   23.7751 C   0  0  0  0  0  0  0  0  0  0  0  0
   10.0694    4.8504   24.1402 H   0  0  0  0  0  0  0  0  0  0  0  0
    9.7263   -0.1696   20.6805 C   0  0  0  0  0  0  0  0  0  0  0  0
    9.6866    0.8789   20.3478 H   0  0  0  0  0  0  0  0  0  0  0  0
    9.9374   -0.7618   19.7870 H   0  0  0  0  0  0  0  0  0  0  0  0
    5.1117    0.6989   20.1062 C   0  0  0  0  0  0  0  0  0  0  0  0
    4.5490    0.7462   21.0404 H   0  0  0  0  0  0  0  0  0  0  0  0
    4.6390    1.3362   18.9560 C   0  0  0  0  0  0  0  0  0  0  0  0
    3.7172    1.9073   18.9676 H   0  0  0  0  0  0  0  0  0  0  0  0
  1  2  1  0
  2  3  2  0
  3  4  1  0
  4  5  1  0
  4  6  2  0
  6  7  1  0
  7  8  2  0
  8  9  1  0
  9 10  2  0
 10 11  1  0
 11 12  1  0
  9 13  1  0
 13 14  1  0
 13 15  1  0
 13 16  1  0
 16 17  1  6
 16 18  1  0
 18 19  1  0
 18 20  1  0
 18 21  1  0
 21 22  1  0
 22 23  1  0
 22 24  1  0
 22 25  1  0
 21 26  1  0
 26 27  1  0
 26 28  1  0
 26 29  1  0
 29 30  2  0
 30 31  1  0
 30 32  1  0
 32 33  1  0
 32 34  2  0
 34 35  1  0
 34 36  1  0
 36 37  1  0
 36 38  2  0
 38 39  1  0
 16 40  1  0
 40 41  1  0
 40 42  1  0
  6 43  1  0
 43 44  1  0
 43 45  2  0
 45 46  1  0
 45  2  1  0
 11  7  1  0
 38 29  1  0
 40  8  1  0
M  END
>  <cnnaffinity>  (1) 
-5.38137

>  <filename>  (1) 
CN(Cc1ccccc1)C[C@H]1Cc2n[nH]c(-c3cccnc3)c2C1

$$$$
