
     RDKit          3D

 42 45  0  0  0  0  0  0  0  0999 V2000
    4.9900    1.8695   16.7949 H   0  0  0  0  0  0  0  0  0  0  0  0
    5.4225    1.3269   17.6324 C   0  0  0  0  0  0  0  0  0  0  0  0
    6.5601    0.6643   17.3765 N   0  0  0  0  0  0  0  0  0  0  0  0
    7.1372    0.0082   18.3898 C   0  0  0  0  0  0  0  0  0  0  0  0
    8.0600   -0.5185   18.1514 H   0  0  0  0  0  0  0  0  0  0  0  0
    6.6192   -0.0136   19.7019 C   0  0  0  0  0  0  0  0  0  0  0  0
    7.3739   -0.6267   20.8121 C   0  0  0  0  0  0  0  0  0  0  0  0
    8.5267   -1.2791   20.5968 N   0  0  0  0  0  0  0  0  0  0  0  0
    8.9238   -1.6024   21.8461 N   0  0  0  0  0  0  0  0  0  0  0  0
   10.0061   -2.2936   22.3719 C   0  0  0  0  0  0  0  0  0  0  0  0
   10.7405   -2.7076   21.7077 H   0  0  0  0  0  0  0  0  0  0  0  0
    9.8397   -2.2813   23.7180 C   0  0  0  0  0  0  0  0  0  0  0  0
   10.4105   -2.7336   24.5153 H   0  0  0  0  0  0  0  0  0  0  0  0
    8.6851   -1.5641   24.0288 N   0  0  0  0  0  0  0  0  0  0  0  0
    8.1867   -1.4619   25.3205 N   0  0  0  0  0  0  0  0  0  0  0  0
    9.1475   -1.1159   26.3927 C   0  0  0  0  0  0  0  0  0  0  0  0
   10.0536   -0.6377   25.9902 H   0  0  0  0  0  0  0  0  0  0  0  0
    9.4474   -2.0293   26.9288 H   0  0  0  0  0  0  0  0  0  0  0  0
    8.3691   -0.1894   27.3288 C   0  0  0  0  0  0  0  0  0  0  0  0
    8.6699   -0.3159   28.3725 H   0  0  0  0  0  0  0  0  0  0  0  0
    8.5299    0.8622   27.0679 H   0  0  0  0  0  0  0  0  0  0  0  0
    6.8905   -0.5149   27.0588 C   0  0  1  0  0  0  0  0  0  0  0  0
    6.6295   -1.4948   27.5134 H   0  0  0  0  0  0  0  0  0  0  0  0
    5.9919    0.5412   27.5401 N   0  0  0  0  0  0  0  0  0  0  0  0
    4.6560    0.4875   26.9576 C   0  0  0  0  0  0  0  0  0  0  0  0
    4.0887   -0.4283   27.2186 H   0  0  0  0  0  0  0  0  0  0  0  0
    4.7174    0.5526   25.8671 H   0  0  0  0  0  0  0  0  0  0  0  0
    4.0799    1.3579   27.2891 H   0  0  0  0  0  0  0  0  0  0  0  0
    5.9266    0.5719   28.9987 C   0  0  0  0  0  0  0  0  0  0  0  0
    5.3301    1.4303   29.3256 H   0  0  0  0  0  0  0  0  0  0  0  0
    5.4824   -0.3430   29.4395 H   0  0  0  0  0  0  0  0  0  0  0  0
    6.9228    0.7028   29.4323 H   0  0  0  0  0  0  0  0  0  0  0  0
    6.9489   -0.6807   25.5303 C   0  0  0  0  0  0  0  0  0  0  0  0
    7.0240    0.3302   25.0818 H   0  0  0  0  0  0  0  0  0  0  0  0
    6.0595   -1.1759   25.1218 H   0  0  0  0  0  0  0  0  0  0  0  0
    8.1030   -1.1777   22.8262 C   0  0  0  0  0  0  0  0  0  0  0  0
    7.0359   -0.5469   22.1862 C   0  0  0  0  0  0  0  0  0  0  0  0
    6.1488   -0.1375   22.6276 H   0  0  0  0  0  0  0  0  0  0  0  0
    5.3965    0.6399   19.9324 C   0  0  0  0  0  0  0  0  0  0  0  0
    4.9230    0.6258   20.9169 H   0  0  0  0  0  0  0  0  0  0  0  0
    4.7967    1.3296   18.8829 C   0  0  0  0  0  0  0  0  0  0  0  0
    3.8729    1.8802   19.0218 H   0  0  0  0  0  0  0  0  0  0  0  0
  1  2  1  0
  2  3  2  0
  3  4  1  0
  4  5  1  0
  4  6  2  0
  6  7  1  0
  7  8  2  0
  8  9  1  0
  9 10  1  0
 10 11  1  0
 10 12  2  0
 12 13  1  0
 12 14  1  0
 14 15  1  0
 15 16  1  0
 16 17  1  0
 16 18  1  0
 16 19  1  0
 19 20  1  0
 19 21  1  0
 19 22  1  0
 22 23  1  1
 22 24  1  0
 24 25  1  0
 25 26  1  0
 25 27  1  0
 25 28  1  0
 24 29  1  0
 29 30  1  0
 29 31  1  0
 29 32  1  0
 22 33  1  0
 33 34  1  0
 33 35  1  0
 14 36  1  0
 36 37  2  0
 37 38  1  0
  6 39  1  0
 39 40  1  0
 39 41  2  0
 41 42  1  0
 41  2  1  0
 37  7  1  0
 36  9  1  0
 33 15  1  0
M  END
>  <cnnaffinity>  (1) 
-5.34185

>  <filename>  (1) 
CN(C)[C@@H]1CCN(n2ccn3nc(-c4cccnc4)cc23)C1

$$$$
