
     RDKit          3D

 37 38  0  0  0  0  0  0  0  0999 V2000
    4.9417    1.8179   17.0201 H   0  0  0  0  0  0  0  0  0  0  0  0
    5.4022    1.2882   17.8527 C   0  0  0  0  0  0  0  0  0  0  0  0
    6.5595    0.6590   17.5879 N   0  0  0  0  0  0  0  0  0  0  0  0
    7.1663    0.0113   18.5954 C   0  0  0  0  0  0  0  0  0  0  0  0
    8.1189   -0.4635   18.3563 H   0  0  0  0  0  0  0  0  0  0  0  0
    6.6574   -0.0630   19.9197 C   0  0  0  0  0  0  0  0  0  0  0  0
    7.3079   -0.7544   20.9592 N   0  0  0  0  0  0  0  0  0  0  0  0
    6.7645   -0.8721   21.8173 H   0  0  0  0  0  0  0  0  0  0  0  0
    8.6986   -0.6841   21.1832 C   0  0  0  0  0  0  0  0  0  0  0  0
    9.6600    0.2413   20.7031 C   0  0  0  0  0  0  0  0  0  0  0  0
    9.4737    1.0569   20.0230 H   0  0  0  0  0  0  0  0  0  0  0  0
   10.8721    0.0200   21.1981 N   0  0  0  0  0  0  0  0  0  0  0  0
   10.6899   -1.0488   21.9878 N   0  0  0  0  0  0  0  0  0  0  0  0
   11.4870   -1.4383   22.4669 H   0  0  0  0  0  0  0  0  0  0  0  0
    9.4125   -1.5200   22.0230 C   0  0  0  0  0  0  0  0  0  0  0  0
    8.9734   -2.6224   22.9410 C   0  0  0  0  0  0  0  0  0  0  0  0
    9.6092   -3.5020   22.7971 H   0  0  0  0  0  0  0  0  0  0  0  0
    7.9588   -2.9318   22.6665 H   0  0  0  0  0  0  0  0  0  0  0  0
    8.9896   -2.2145   24.4255 C   0  0  0  0  0  0  0  0  0  0  0  0
    8.6780   -3.0603   25.0486 H   0  0  0  0  0  0  0  0  0  0  0  0
   10.0162   -1.9920   24.7366 H   0  0  0  0  0  0  0  0  0  0  0  0
    8.1635   -0.9660   24.7259 C   0  0  0  0  0  0  0  0  0  0  0  0
    8.2628   -0.7008   25.7997 H   0  0  0  0  0  0  0  0  0  0  0  0
    8.6119   -0.1396   24.1586 H   0  0  0  0  0  0  0  0  0  0  0  0
    6.7478   -1.0526   24.3450 N   0  0  0  0  0  0  0  0  0  0  0  0
    6.1795    0.2943   24.3472 C   0  0  0  0  0  0  0  0  0  0  0  0
    5.1046    0.2811   24.1575 H   0  0  0  0  0  0  0  0  0  0  0  0
    6.6401    0.8863   23.5480 H   0  0  0  0  0  0  0  0  0  0  0  0
    6.3439    0.8422   25.2966 H   0  0  0  0  0  0  0  0  0  0  0  0
    6.0045   -1.9427   25.2395 C   0  0  0  0  0  0  0  0  0  0  0  0
    6.4609   -2.9352   25.2365 H   0  0  0  0  0  0  0  0  0  0  0  0
    4.9712   -2.0745   24.8988 H   0  0  0  0  0  0  0  0  0  0  0  0
    5.9760   -1.5882   26.2903 H   0  0  0  0  0  0  0  0  0  0  0  0
    5.4414    0.5967   20.1590 C   0  0  0  0  0  0  0  0  0  0  0  0
    5.0241    0.5964   21.1637 H   0  0  0  0  0  0  0  0  0  0  0  0
    4.8062    1.2838   19.1160 C   0  0  0  0  0  0  0  0  0  0  0  0
    3.8765    1.8277   19.2680 H   0  0  0  0  0  0  0  0  0  0  0  0
  1  2  1  0
  2  3  2  0
  3  4  1  0
  4  5  1  0
  4  6  2  0
  6  7  1  0
  7  8  1  0
  7  9  1  0
  9 10  1  0
 10 11  1  0
 10 12  2  0
 12 13  1  0
 13 14  1  0
 13 15  1  0
 15 16  1  0
 16 17  1  0
 16 18  1  0
 16 19  1  0
 19 20  1  0
 19 21  1  0
 19 22  1  0
 22 23  1  0
 22 24  1  0
 22 25  1  0
 25 26  1  0
 26 27  1  0
 26 28  1  0
 26 29  1  0
 25 30  1  0
 30 31  1  0
 30 32  1  0
 30 33  1  0
  6 34  1  0
 34 35  1  0
 34 36  2  0
 36 37  1  0
 36  2  1  0
 15  9  2  0
M  END
>  <cnnaffinity>  (1) 
-5.03882

>  <filename>  (1) 
CN(C)CCCc1[nH]ncc1Nc1cccnc1

$$$$
