
     RDKit          3D

 36 37  0  0  0  0  0  0  0  0999 V2000
    4.9206    1.7907   16.9825 H   0  0  0  0  0  0  0  0  0  0  0  0
    5.3917    1.2934   17.8273 C   0  0  0  0  0  0  0  0  0  0  0  0
    6.5528    0.6733   17.5653 N   0  0  0  0  0  0  0  0  0  0  0  0
    7.1644    0.0694   18.5957 C   0  0  0  0  0  0  0  0  0  0  0  0
    8.1086   -0.4182   18.3581 H   0  0  0  0  0  0  0  0  0  0  0  0
    6.6748    0.0406   19.9107 C   0  0  0  0  0  0  0  0  0  0  0  0
    7.3863   -0.7196   20.9940 C   0  0  0  0  0  0  0  0  0  0  0  0
    7.2190   -0.2354   21.9706 H   0  0  0  0  0  0  0  0  0  0  0  0
    8.4792   -0.6834   20.8461 H   0  0  0  0  0  0  0  0  0  0  0  0
    6.9581   -2.1634   21.0713 C   0  0  0  0  0  0  0  0  0  0  0  0
    6.0444   -2.8681   20.2452 C   0  0  0  0  0  0  0  0  0  0  0  0
    5.4539   -2.4720   19.4312 H   0  0  0  0  0  0  0  0  0  0  0  0
    5.9523   -4.1495   20.5490 N   0  0  0  0  0  0  0  0  0  0  0  0
    6.8139   -4.2874   21.5823 N   0  0  0  0  0  0  0  0  0  0  0  0
    6.9778   -5.1799   22.0159 H   0  0  0  0  0  0  0  0  0  0  0  0
    7.4235   -3.1390   21.9270 C   0  0  0  0  0  0  0  0  0  0  0  0
    8.3164   -3.1955   22.9324 O   0  0  0  0  0  0  0  0  0  0  0  0
    8.6473   -1.9968   23.6490 C   0  0  0  0  0  0  0  0  0  0  0  0
    9.5120   -2.2781   24.2473 H   0  0  0  0  0  0  0  0  0  0  0  0
    8.9609   -1.1919   22.9783 H   0  0  0  0  0  0  0  0  0  0  0  0
    7.5172   -1.5161   24.5783 C   0  0  0  0  0  0  0  0  0  0  0  0
    7.2716   -2.3306   25.2698 H   0  0  0  0  0  0  0  0  0  0  0  0
    6.6151   -1.3342   23.9787 H   0  0  0  0  0  0  0  0  0  0  0  0
    7.8051   -0.3274   25.3834 N   0  0  0  0  0  0  0  0  0  0  0  0
    7.8838    0.9057   24.6227 C   0  0  0  0  0  0  0  0  0  0  0  0
    7.9288    1.7634   25.3037 H   0  0  0  0  0  0  0  0  0  0  0  0
    8.7683    0.9674   23.9590 H   0  0  0  0  0  0  0  0  0  0  0  0
    6.9862    1.0259   24.0079 H   0  0  0  0  0  0  0  0  0  0  0  0
    8.9354   -0.4669   26.2914 C   0  0  0  0  0  0  0  0  0  0  0  0
    9.9206   -0.4134   25.7895 H   0  0  0  0  0  0  0  0  0  0  0  0
    8.8873   -1.4241   26.8213 H   0  0  0  0  0  0  0  0  0  0  0  0
    8.9160    0.3279   27.0464 H   0  0  0  0  0  0  0  0  0  0  0  0
    5.4425    0.6646   20.1500 C   0  0  0  0  0  0  0  0  0  0  0  0
    5.0080    0.6349   21.1536 H   0  0  0  0  0  0  0  0  0  0  0  0
    4.7983    1.3123   19.0932 C   0  0  0  0  0  0  0  0  0  0  0  0
    3.8701    1.8421   19.2446 H   0  0  0  0  0  0  0  0  0  0  0  0
  1  2  1  0
  2  3  2  0
  3  4  1  0
  4  5  1  0
  4  6  2  0
  6  7  1  0
  7  8  1  0
  7  9  1  0
  7 10  1  0
 10 11  1  0
 11 12  1  0
 11 13  2  0
 13 14  1  0
 14 15  1  0
 14 16  1  0
 16 17  1  0
 17 18  1  0
 18 19  1  0
 18 20  1  0
 18 21  1  0
 21 22  1  0
 21 23  1  0
 21 24  1  0
 24 25  1  0
 25 26  1  0
 25 27  1  0
 25 28  1  0
 24 29  1  0
 29 30  1  0
 29 31  1  0
 29 32  1  0
  6 33  1  0
 33 34  1  0
 33 35  2  0
 35 36  1  0
 35  2  1  0
 16 10  2  0
M  END
>  <cnnaffinity>  (1) 
-4.05567

>  <filename>  (1) 
CN(C)CCOc1[nH]ncc1Cc1cccnc1

$$$$
