
     RDKit          3D

 38 40  0  0  0  0  0  0  0  0999 V2000
    5.0061    1.8495   16.8578 H   0  0  0  0  0  0  0  0  0  0  0  0
    5.4305    1.3030   17.6967 C   0  0  0  0  0  0  0  0  0  0  0  0
    6.5697    0.6385   17.4528 N   0  0  0  0  0  0  0  0  0  0  0  0
    7.1313   -0.0277   18.4672 C   0  0  0  0  0  0  0  0  0  0  0  0
    8.0642   -0.5435   18.2434 H   0  0  0  0  0  0  0  0  0  0  0  0
    6.6010   -0.0581   19.7710 C   0  0  0  0  0  0  0  0  0  0  0  0
    7.3583   -0.6473   20.8959 C   0  0  0  0  0  0  0  0  0  0  0  0
    8.4739   -1.3730   20.7075 N   0  0  0  0  0  0  0  0  0  0  0  0
    8.9155   -1.5704   21.9700 N   0  0  0  0  0  0  0  0  0  0  0  0
    9.9963   -2.2406   22.5215 C   0  0  0  0  0  0  0  0  0  0  0  0
   10.6780   -2.7836   21.8951 H   0  0  0  0  0  0  0  0  0  0  0  0
    9.9135   -2.0237   23.8572 C   0  0  0  0  0  0  0  0  0  0  0  0
   10.5315   -2.3572   24.6769 H   0  0  0  0  0  0  0  0  0  0  0  0
    8.8108   -1.2388   24.1195 N   0  0  0  0  0  0  0  0  0  0  0  0
    8.5098   -0.7736   25.4135 N   0  0  0  0  0  0  0  0  0  0  0  0
    8.8937   -1.4891   26.0335 H   0  0  0  0  0  0  0  0  0  0  0  0
    7.0502   -0.7301   25.6678 C   0  0  0  0  0  0  0  0  0  0  0  0
    6.9223   -0.4686   26.7248 H   0  0  0  0  0  0  0  0  0  0  0  0
    6.6314    0.1110   25.1064 H   0  0  0  0  0  0  0  0  0  0  0  0
    6.2668   -2.0088   25.3072 C   0  0  0  0  0  0  0  0  0  0  0  0
    6.3493   -2.1505   24.2226 H   0  0  0  0  0  0  0  0  0  0  0  0
    5.1893   -1.8382   25.5023 H   0  0  0  0  0  0  0  0  0  0  0  0
    6.7761   -3.2082   25.9768 N   0  0  0  0  0  0  0  0  0  0  0  0
    6.2595   -4.4551   25.4384 C   0  0  0  0  0  0  0  0  0  0  0  0
    6.4494   -4.5198   24.3615 H   0  0  0  0  0  0  0  0  0  0  0  0
    5.1738   -4.6062   25.6143 H   0  0  0  0  0  0  0  0  0  0  0  0
    6.7905   -5.2890   25.9115 H   0  0  0  0  0  0  0  0  0  0  0  0
    6.6061   -3.1674   27.4151 C   0  0  0  0  0  0  0  0  0  0  0  0
    6.9834   -2.2210   27.8150 H   0  0  0  0  0  0  0  0  0  0  0  0
    7.2010   -3.9688   27.8691 H   0  0  0  0  0  0  0  0  0  0  0  0
    5.5491   -3.2770   27.7379 H   0  0  0  0  0  0  0  0  0  0  0  0
    8.1687   -0.9807   22.9268 C   0  0  0  0  0  0  0  0  0  0  0  0
    7.0792   -0.4179   22.2672 C   0  0  0  0  0  0  0  0  0  0  0  0
    6.1796    0.0068   22.6801 H   0  0  0  0  0  0  0  0  0  0  0  0
    5.3825    0.6098   19.9896 C   0  0  0  0  0  0  0  0  0  0  0  0
    4.9074    0.6059   20.9722 H   0  0  0  0  0  0  0  0  0  0  0  0
    4.7932    1.3079   18.9409 C   0  0  0  0  0  0  0  0  0  0  0  0
    3.8727    1.8661   19.0760 H   0  0  0  0  0  0  0  0  0  0  0  0
  1  2  1  0
  2  3  2  0
  3  4  1  0
  4  5  1  0
  4  6  2  0
  6  7  1  0
  7  8  2  0
  8  9  1  0
  9 10  1  0
 10 11  1  0
 10 12  2  0
 12 13  1  0
 12 14  1  0
 14 15  1  0
 15 16  1  0
 15 17  1  0
 17 18  1  0
 17 19  1  0
 17 20  1  0
 20 21  1  0
 20 22  1  0
 20 23  1  0
 23 24  1  0
 24 25  1  0
 24 26  1  0
 24 27  1  0
 23 28  1  0
 28 29  1  0
 28 30  1  0
 28 31  1  0
 14 32  1  0
 32 33  2  0
 33 34  1  0
  6 35  1  0
 35 36  1  0
 35 37  2  0
 37 38  1  0
 37  2  1  0
 33  7  1  0
 32  9  1  0
M  END
>  <cnnaffinity>  (1) 
-5.19017

>  <filename>  (1) 
CN(C)CCNn1ccn2nc(-c3cccnc3)cc12

$$$$
