
     RDKit          3D

 42 43  0  0  0  0  0  0  0  0999 V2000
    5.0205    1.7462   17.0506 H   0  0  0  0  0  0  0  0  0  0  0  0
    5.4482    1.2336   17.9095 C   0  0  0  0  0  0  0  0  0  0  0  0
    6.6086    0.5920   17.7072 N   0  0  0  0  0  0  0  0  0  0  0  0
    7.1616   -0.0181   18.7587 C   0  0  0  0  0  0  0  0  0  0  0  0
    8.1202   -0.5062   18.5921 H   0  0  0  0  0  0  0  0  0  0  0  0
    6.5849   -0.0509   20.0339 C   0  0  0  0  0  0  0  0  0  0  0  0
    7.4112   -0.7393   21.0567 C   0  0  0  0  0  0  0  0  0  0  0  0
    8.6259   -0.8168   20.9384 O   0  0  0  0  0  0  0  0  0  0  0  0
    6.7193   -1.3387   22.0666 N   0  0  0  0  0  0  0  0  0  0  0  0
    5.7620   -1.0280   22.0758 H   0  0  0  0  0  0  0  0  0  0  0  0
    7.3040   -1.3488   23.4115 C   0  0  0  0  0  0  0  0  0  0  0  0
    7.6729    0.0013   23.8384 N   0  0  0  0  0  0  0  0  0  0  0  0
    9.0614    0.4359   23.7414 C   0  0  0  0  0  0  0  0  0  0  0  0
    9.7220   -0.2794   24.2471 H   0  0  0  0  0  0  0  0  0  0  0  0
    9.1864    1.3856   24.2712 H   0  0  0  0  0  0  0  0  0  0  0  0
    9.4103    0.5632   22.7070 H   0  0  0  0  0  0  0  0  0  0  0  0
    6.6974    1.0829   23.6939 C   0  0  0  0  0  0  0  0  0  0  0  0
    5.6815    0.6672   23.6158 H   0  0  0  0  0  0  0  0  0  0  0  0
    6.8584    1.6516   22.7565 H   0  0  0  0  0  0  0  0  0  0  0  0
    6.6825    2.0669   24.8704 C   0  0  0  0  0  0  0  0  0  0  0  0
    6.1481    1.6832   26.1152 C   0  0  0  0  0  0  0  0  0  0  0  0
    5.7747    0.6682   26.2596 H   0  0  0  0  0  0  0  0  0  0  0  0
    6.0878    2.5856   27.1831 C   0  0  0  0  0  0  0  0  0  0  0  0
    5.6615    2.2724   28.1348 H   0  0  0  0  0  0  0  0  0  0  0  0
    6.5657    3.8901   27.0287 C   0  0  0  0  0  0  0  0  0  0  0  0
    6.5146    4.5933   27.8586 H   0  0  0  0  0  0  0  0  0  0  0  0
    7.0961    4.2896   25.7988 C   0  0  0  0  0  0  0  0  0  0  0  0
    7.4659    5.3045   25.6705 H   0  0  0  0  0  0  0  0  0  0  0  0
    7.1505    3.3852   24.7306 C   0  0  0  0  0  0  0  0  0  0  0  0
    7.5677    3.7169   23.7790 H   0  0  0  0  0  0  0  0  0  0  0  0
    8.4786   -2.3381   23.4165 C   0  0  0  0  0  0  0  0  0  0  0  0
    9.2775   -1.9962   22.7607 H   0  0  0  0  0  0  0  0  0  0  0  0
    8.1206   -3.3091   23.0601 H   0  0  0  0  0  0  0  0  0  0  0  0
    8.8596   -2.4627   24.4373 H   0  0  0  0  0  0  0  0  0  0  0  0
    6.2515   -1.8868   24.3897 C   0  0  0  0  0  0  0  0  0  0  0  0
    5.8130   -2.8175   24.0182 H   0  0  0  0  0  0  0  0  0  0  0  0
    6.7277   -2.0844   25.3539 H   0  0  0  0  0  0  0  0  0  0  0  0
    5.4589   -1.1667   24.5937 H   0  0  0  0  0  0  0  0  0  0  0  0
    5.3716    0.6257   20.2398 C   0  0  0  0  0  0  0  0  0  0  0  0
    4.8974    0.6774   21.2275 H   0  0  0  0  0  0  0  0  0  0  0  0
    4.8004    1.2825   19.1507 C   0  0  0  0  0  0  0  0  0  0  0  0
    3.8726    1.8318   19.2503 H   0  0  0  0  0  0  0  0  0  0  0  0
  1  2  1  0
  2  3  2  0
  3  4  1  0
  4  5  1  0
  4  6  2  0
  6  7  1  0
  7  8  2  0
  7  9  1  0
  9 10  1  0
  9 11  1  0
 11 12  1  0
 12 13  1  0
 13 14  1  0
 13 15  1  0
 13 16  1  0
 12 17  1  0
 17 18  1  0
 17 19  1  0
 17 20  1  0
 20 21  2  0
 21 22  1  0
 21 23  1  0
 23 24  1  0
 23 25  2  0
 25 26  1  0
 25 27  1  0
 27 28  1  0
 27 29  2  0
 29 30  1  0
 11 31  1  0
 31 32  1  0
 31 33  1  0
 31 34  1  0
 11 35  1  0
 35 36  1  0
 35 37  1  0
 35 38  1  0
  6 39  1  0
 39 40  1  0
 39 41  2  0
 41 42  1  0
 41  2  1  0
 29 20  1  0
M  END
>  <cnnaffinity>  (1) 
-4.9654

>  <filename>  (1) 
CN(Cc1ccccc1)C(C)(C)NC(=O)c1cccnc1

$$$$
