
     RDKit          3D

 36 37  0  0  0  0  0  0  0  0999 V2000
    4.9297    1.7819   17.0017 H   0  0  0  0  0  0  0  0  0  0  0  0
    5.4084    1.2850   17.8442 C   0  0  0  0  0  0  0  0  0  0  0  0
    6.5693    0.6623   17.5863 N   0  0  0  0  0  0  0  0  0  0  0  0
    7.1912    0.0500   18.6035 C   0  0  0  0  0  0  0  0  0  0  0  0
    8.1326   -0.4407   18.3659 H   0  0  0  0  0  0  0  0  0  0  0  0
    6.6868    0.0176   19.9153 C   0  0  0  0  0  0  0  0  0  0  0  0
    7.2755   -0.6677   20.9509 O   0  0  0  0  0  0  0  0  0  0  0  0
    8.6388   -0.7257   21.0954 C   0  0  0  0  0  0  0  0  0  0  0  0
    9.6605    0.1227   20.6251 C   0  0  0  0  0  0  0  0  0  0  0  0
    9.5901    0.9618   19.9496 H   0  0  0  0  0  0  0  0  0  0  0  0
   10.8447   -0.2365   21.1121 N   0  0  0  0  0  0  0  0  0  0  0  0
   10.5791   -1.3000   21.8761 N   0  0  0  0  0  0  0  0  0  0  0  0
   11.3416   -1.7378   22.3754 H   0  0  0  0  0  0  0  0  0  0  0  0
    9.2631   -1.6491   21.9149 C   0  0  0  0  0  0  0  0  0  0  0  0
    8.7115   -2.7002   22.8222 C   0  0  0  0  0  0  0  0  0  0  0  0
    7.7699   -3.0514   22.3835 H   0  0  0  0  0  0  0  0  0  0  0  0
    9.3837   -3.5662   22.8492 H   0  0  0  0  0  0  0  0  0  0  0  0
    8.4572   -2.1850   24.2540 C   0  0  0  0  0  0  0  0  0  0  0  0
    9.3966   -1.8165   24.6874 H   0  0  0  0  0  0  0  0  0  0  0  0
    8.1294   -3.0125   24.8917 H   0  0  0  0  0  0  0  0  0  0  0  0
    7.3994   -1.0798   24.3125 C   0  0  0  0  0  0  0  0  0  0  0  0
    7.7455   -0.1786   23.7680 H   0  0  0  0  0  0  0  0  0  0  0  0
    6.5042   -1.4223   23.7731 H   0  0  0  0  0  0  0  0  0  0  0  0
    7.0166   -0.7562   25.6894 N   0  0  0  0  0  0  0  0  0  0  0  0
    5.6905   -0.1572   25.7478 C   0  0  0  0  0  0  0  0  0  0  0  0
    5.4218    0.0527   26.7885 H   0  0  0  0  0  0  0  0  0  0  0  0
    4.9443   -0.8545   25.3503 H   0  0  0  0  0  0  0  0  0  0  0  0
    5.6141    0.7921   25.1795 H   0  0  0  0  0  0  0  0  0  0  0  0
    7.9953    0.1046   26.3432 C   0  0  0  0  0  0  0  0  0  0  0  0
    8.9802   -0.3723   26.3689 H   0  0  0  0  0  0  0  0  0  0  0  0
    7.6923    0.2904   27.3794 H   0  0  0  0  0  0  0  0  0  0  0  0
    8.1033    1.0858   25.8375 H   0  0  0  0  0  0  0  0  0  0  0  0
    5.4628    0.6449   20.1740 C   0  0  0  0  0  0  0  0  0  0  0  0
    5.0408    0.6089   21.1779 H   0  0  0  0  0  0  0  0  0  0  0  0
    4.8266    1.2988   19.1163 C   0  0  0  0  0  0  0  0  0  0  0  0
    3.8927    1.8243   19.2659 H   0  0  0  0  0  0  0  0  0  0  0  0
  1  2  1  0
  2  3  2  0
  3  4  1  0
  4  5  1  0
  4  6  2  0
  6  7  1  0
  7  8  1  0
  8  9  1  0
  9 10  1  0
  9 11  2  0
 11 12  1  0
 12 13  1  0
 12 14  1  0
 14 15  1  0
 15 16  1  0
 15 17  1  0
 15 18  1  0
 18 19  1  0
 18 20  1  0
 18 21  1  0
 21 22  1  0
 21 23  1  0
 21 24  1  0
 24 25  1  0
 25 26  1  0
 25 27  1  0
 25 28  1  0
 24 29  1  0
 29 30  1  0
 29 31  1  0
 29 32  1  0
  6 33  1  0
 33 34  1  0
 33 35  2  0
 35 36  1  0
 35  2  1  0
 14  8  2  0
M  END
>  <cnnaffinity>  (1) 
-5.16014

>  <filename>  (1) 
CN(C)CCCc1[nH]ncc1Oc1cccnc1

$$$$
