
     RDKit          3D

 36 38  0  0  0  0  0  0  0  0999 V2000
    4.9901    1.7771   16.9894 H   0  0  0  0  0  0  0  0  0  0  0  0
    5.4558    1.2694   17.8338 C   0  0  0  0  0  0  0  0  0  0  0  0
    6.6153    0.6341   17.5880 N   0  0  0  0  0  0  0  0  0  0  0  0
    7.2133    0.0139   18.6081 C   0  0  0  0  0  0  0  0  0  0  0  0
    8.1538   -0.4862   18.3991 H   0  0  0  0  0  0  0  0  0  0  0  0
    6.6921   -0.0230   19.9116 C   0  0  0  0  0  0  0  0  0  0  0  0
    7.3896   -0.7221   20.9265 N   0  0  0  0  0  0  0  0  0  0  0  0
    8.7137   -0.9538   20.8275 N   0  0  0  0  0  0  0  0  0  0  0  0
    9.0342   -1.6016   21.9347 C   0  0  0  0  0  0  0  0  0  0  0  0
   10.0693   -1.8862   22.0796 H   0  0  0  0  0  0  0  0  0  0  0  0
    7.8899   -1.8196   22.7881 C   0  0  0  0  0  0  0  0  0  0  0  0
    7.7702   -2.4039   24.0499 N   0  0  0  0  0  0  0  0  0  0  0  0
    8.9633   -2.9669   24.6466 C   0  0  0  0  0  0  0  0  0  0  0  0
    9.4371   -3.7252   24.0033 H   0  0  0  0  0  0  0  0  0  0  0  0
    8.7316   -3.4272   25.6134 H   0  0  0  0  0  0  0  0  0  0  0  0
    9.6950   -2.1668   24.8113 H   0  0  0  0  0  0  0  0  0  0  0  0
    6.4543   -2.6837   24.6286 C   0  0  0  0  0  0  0  0  0  0  0  0
    6.5993   -2.8627   25.7030 H   0  0  0  0  0  0  0  0  0  0  0  0
    5.8351   -1.7789   24.5731 H   0  0  0  0  0  0  0  0  0  0  0  0
    5.6686   -3.8653   24.0450 C   0  0  0  0  0  0  0  0  0  0  0  0
    6.2748   -5.1261   23.8756 C   0  0  0  0  0  0  0  0  0  0  0  0
    7.2916   -5.2922   24.2222 H   0  0  0  0  0  0  0  0  0  0  0  0
    5.6061   -6.1636   23.2197 C   0  0  0  0  0  0  0  0  0  0  0  0
    6.1099   -7.1112   23.0384 H   0  0  0  0  0  0  0  0  0  0  0  0
    4.2996   -5.9685   22.7646 C   0  0  0  0  0  0  0  0  0  0  0  0
    3.8020   -6.7501   22.1975 H   0  0  0  0  0  0  0  0  0  0  0  0
    3.6349   -4.7713   23.0438 C   0  0  0  0  0  0  0  0  0  0  0  0
    2.5821   -4.6634   22.7823 H   0  0  0  0  0  0  0  0  0  0  0  0
    4.3100   -3.7342   23.6977 C   0  0  0  0  0  0  0  0  0  0  0  0
    3.7539   -2.8316   23.9565 H   0  0  0  0  0  0  0  0  0  0  0  0
    6.8731   -1.2446   22.0683 C   0  0  0  0  0  0  0  0  0  0  0  0
    5.8246   -1.2066   22.2825 H   0  0  0  0  0  0  0  0  0  0  0  0
    5.4834    0.6416   20.1663 C   0  0  0  0  0  0  0  0  0  0  0  0
    5.0665    0.6739   21.1741 H   0  0  0  0  0  0  0  0  0  0  0  0
    4.8594    1.2922   19.0984 C   0  0  0  0  0  0  0  0  0  0  0  0
    3.9248    1.8225   19.2417 H   0  0  0  0  0  0  0  0  0  0  0  0
  1  2  1  0
  2  3  2  0
  3  4  1  0
  4  5  1  0
  4  6  2  0
  6  7  1  0
  7  8  1  0
  8  9  2  0
  9 10  1  0
  9 11  1  0
 11 12  1  0
 12 13  1  0
 13 14  1  0
 13 15  1  0
 13 16  1  0
 12 17  1  0
 17 18  1  0
 17 19  1  0
 17 20  1  0
 20 21  2  0
 21 22  1  0
 21 23  1  0
 23 24  1  0
 23 25  2  0
 25 26  1  0
 25 27  1  0
 27 28  1  0
 27 29  2  0
 29 30  1  0
 11 31  2  0
 31 32  1  0
  6 33  1  0
 33 34  1  0
 33 35  2  0
 35 36  1  0
 35  2  1  0
 31  7  1  0
 29 20  1  0
M  END
>  <cnnaffinity>  (1) 
-5.28495

>  <filename>  (1) 
CN(Cc1ccccc1)c1cnn(-c2cccnc2)c1

$$$$
