
     RDKit          3D

 33 34  0  0  0  0  0  0  0  0999 V2000
    5.0004    1.8479   16.9406 H   0  0  0  0  0  0  0  0  0  0  0  0
    5.4590    1.3331   17.7836 C   0  0  0  0  0  0  0  0  0  0  0  0
    6.6224    0.7075   17.5401 N   0  0  0  0  0  0  0  0  0  0  0  0
    7.2099    0.0708   18.5628 C   0  0  0  0  0  0  0  0  0  0  0  0
    8.1423   -0.4436   18.3370 H   0  0  0  0  0  0  0  0  0  0  0  0
    6.6701    0.0023   19.8658 C   0  0  0  0  0  0  0  0  0  0  0  0
    7.3175   -0.6931   20.9388 N   0  0  0  0  0  0  0  0  0  0  0  0
    6.5489   -1.5995   21.6840 C   0  0  0  0  0  0  0  0  0  0  0  0
    5.4869   -2.0596   21.2930 O   0  0  0  0  0  0  0  0  0  0  0  0
    7.0699   -1.9054   22.9203 N   0  0  0  0  0  0  0  0  0  0  0  0
    8.0672   -1.8127   22.9732 H   0  0  0  0  0  0  0  0  0  0  0  0
    6.5205   -3.0382   23.6511 C   0  0  0  0  0  0  0  0  0  0  0  0
    5.4405   -2.9065   23.7732 H   0  0  0  0  0  0  0  0  0  0  0  0
    6.9373   -3.0210   24.6651 H   0  0  0  0  0  0  0  0  0  0  0  0
    6.7874   -4.3649   22.9581 C   0  0  0  0  0  0  0  0  0  0  0  0
    5.7461   -5.0185   22.2713 C   0  0  0  0  0  0  0  0  0  0  0  0
    4.8355   -4.4576   22.0622 H   0  0  0  0  0  0  0  0  0  0  0  0
    5.9014   -6.3315   21.8176 C   0  0  0  0  0  0  0  0  0  0  0  0
    5.0620   -6.8766   21.3936 H   0  0  0  0  0  0  0  0  0  0  0  0
    7.1436   -6.9590   21.9580 C   0  0  0  0  0  0  0  0  0  0  0  0
    7.2789   -7.9861   21.6331 H   0  0  0  0  0  0  0  0  0  0  0  0
    8.2264   -6.2832   22.5222 C   0  0  0  0  0  0  0  0  0  0  0  0
    9.1908   -6.7700   22.6151 H   0  0  0  0  0  0  0  0  0  0  0  0
    8.0527   -4.9744   22.9804 C   0  0  0  0  0  0  0  0  0  0  0  0
    9.4527   -4.0836   23.5404 Cl  0  0  0  0  0  0  0  0  0  0  0  0
    8.6896   -0.3289   21.2959 C   0  0  0  0  0  0  0  0  0  0  0  0
    8.7483    0.1881   22.2649 H   0  0  0  0  0  0  0  0  0  0  0  0
    9.0843    0.3557   20.5427 H   0  0  0  0  0  0  0  0  0  0  0  0
    9.3564   -1.2024   21.3254 H   0  0  0  0  0  0  0  0  0  0  0  0
    5.4397    0.6398   20.0905 C   0  0  0  0  0  0  0  0  0  0  0  0
    4.9722    0.5762   21.0726 H   0  0  0  0  0  0  0  0  0  0  0  0
    4.8344    1.3274   19.0366 C   0  0  0  0  0  0  0  0  0  0  0  0
    3.8896    1.8453   19.1774 H   0  0  0  0  0  0  0  0  0  0  0  0
  1  2  1  0
  2  3  2  0
  3  4  1  0
  4  5  1  0
  4  6  2  0
  6  7  1  0
  7  8  1  0
  8  9  2  0
  8 10  1  0
 10 11  1  0
 10 12  1  0
 12 13  1  0
 12 14  1  0
 12 15  1  0
 15 16  2  0
 16 17  1  0
 16 18  1  0
 18 19  1  0
 18 20  2  0
 20 21  1  0
 20 22  1  0
 22 23  1  0
 22 24  2  0
 24 25  1  0
  7 26  1  0
 26 27  1  0
 26 28  1  0
 26 29  1  0
  6 30  1  0
 30 31  1  0
 30 32  2  0
 32 33  1  0
 32  2  1  0
 24 15  1  0
M  END
>  <cnnaffinity>  (1) 
-5.17922

>  <filename>  (1) 
CN(C(=O)NCc1ccccc1Cl)c1cccnc1

$$$$
