
     RDKit          3D

 33 35  0  0  0  0  0  0  0  0999 V2000
    4.9150    1.7755   17.0011 H   0  0  0  0  0  0  0  0  0  0  0  0
    5.4045    1.2895   17.8454 C   0  0  0  0  0  0  0  0  0  0  0  0
    6.5733    0.6734   17.5941 N   0  0  0  0  0  0  0  0  0  0  0  0
    7.1861    0.0509   18.6073 C   0  0  0  0  0  0  0  0  0  0  0  0
    8.1289   -0.4342   18.3759 H   0  0  0  0  0  0  0  0  0  0  0  0
    6.6691   -0.0027   19.9155 C   0  0  0  0  0  0  0  0  0  0  0  0
    7.3690   -0.6898   20.9481 N   0  0  0  0  0  0  0  0  0  0  0  0
    8.2913   -1.6359   20.6668 N   0  0  0  0  0  0  0  0  0  0  0  0
    8.7313   -2.0397   21.8457 C   0  0  0  0  0  0  0  0  0  0  0  0
    9.4920   -2.7990   21.9246 H   0  0  0  0  0  0  0  0  0  0  0  0
    8.1131   -1.3513   22.9289 C   0  0  0  0  0  0  0  0  0  0  0  0
    8.3310   -1.4804   24.3071 N   0  0  0  0  0  0  0  0  0  0  0  0
    7.4994   -0.7930   25.2360 C   0  0  0  0  0  0  0  0  0  0  0  0
    6.1069   -0.9959   25.2323 C   0  0  0  0  0  0  0  0  0  0  0  0
    5.6755   -1.6759   24.5027 H   0  0  0  0  0  0  0  0  0  0  0  0
    5.2939   -0.3330   26.1560 C   0  0  0  0  0  0  0  0  0  0  0  0
    4.2192   -0.4931   26.1344 H   0  0  0  0  0  0  0  0  0  0  0  0
    5.8570    0.5397   27.0929 C   0  0  0  0  0  0  0  0  0  0  0  0
    5.2205    1.0544   27.8078 H   0  0  0  0  0  0  0  0  0  0  0  0
    7.2424    0.7416   27.1080 C   0  0  0  0  0  0  0  0  0  0  0  0
    7.6864    1.4103   27.8413 H   0  0  0  0  0  0  0  0  0  0  0  0
    8.0604    0.0723   26.1920 C   0  0  0  0  0  0  0  0  0  0  0  0
    9.1363    0.2297   26.2026 H   0  0  0  0  0  0  0  0  0  0  0  0
    9.4815   -2.2345   24.7714 C   0  0  0  0  0  0  0  0  0  0  0  0
   10.4301   -1.7782   24.4614 H   0  0  0  0  0  0  0  0  0  0  0  0
    9.4722   -2.3066   25.8592 H   0  0  0  0  0  0  0  0  0  0  0  0
    9.4621   -3.2593   24.3809 H   0  0  0  0  0  0  0  0  0  0  0  0
    7.2502   -0.4896   22.2901 C   0  0  0  0  0  0  0  0  0  0  0  0
    6.5900    0.2560   22.7128 H   0  0  0  0  0  0  0  0  0  0  0  0
    5.4503    0.6461   20.1689 C   0  0  0  0  0  0  0  0  0  0  0  0
    4.9998    0.6269   21.1641 H   0  0  0  0  0  0  0  0  0  0  0  0
    4.8120    1.3044   19.1132 C   0  0  0  0  0  0  0  0  0  0  0  0
    3.8776    1.8403   19.2672 H   0  0  0  0  0  0  0  0  0  0  0  0
  1  2  1  0
  2  3  2  0
  3  4  1  0
  4  5  1  0
  4  6  2  0
  6  7  1  0
  7  8  1  0
  8  9  2  0
  9 10  1  0
  9 11  1  0
 11 12  1  0
 12 13  1  0
 13 14  2  0
 14 15  1  0
 14 16  1  0
 16 17  1  0
 16 18  2  0
 18 19  1  0
 18 20  1  0
 20 21  1  0
 20 22  2  0
 22 23  1  0
 12 24  1  0
 24 25  1  0
 24 26  1  0
 24 27  1  0
 11 28  2  0
 28 29  1  0
  6 30  1  0
 30 31  1  0
 30 32  2  0
 32 33  1  0
 32  2  1  0
 28  7  1  0
 22 13  1  0
M  END
>  <cnnaffinity>  (1) 
-5.04043

>  <filename>  (1) 
CN(c1ccccc1)c1cnn(-c2cccnc2)c1

$$$$
