
     RDKit          3D

 35 38  0  0  0  0  0  0  0  0999 V2000
    4.9541    1.7823   16.9902 H   0  0  0  0  0  0  0  0  0  0  0  0
    5.3991    1.2783   17.8405 C   0  0  0  0  0  0  0  0  0  0  0  0
    6.5602    0.6484   17.6018 N   0  0  0  0  0  0  0  0  0  0  0  0
    7.1653    0.0685   18.6410 C   0  0  0  0  0  0  0  0  0  0  0  0
    8.1143   -0.4188   18.4063 H   0  0  0  0  0  0  0  0  0  0  0  0
    6.6653    0.0839   19.9622 C   0  0  0  0  0  0  0  0  0  0  0  0
    7.4291   -0.5911   21.0335 C   0  0  0  0  0  0  0  0  0  0  0  0
    8.2538   -1.6489   20.8971 C   0  0  0  0  0  0  0  0  0  0  0  0
    8.6102   -2.0702   19.9823 H   0  0  0  0  0  0  0  0  0  0  0  0
    8.8534   -2.2874   22.4014 S   0  0  0  0  0  0  0  0  0  0  0  0
    8.0688   -0.9819   23.2386 C   0  0  0  0  0  0  0  0  0  0  0  0
    8.0581   -0.4752   24.4489 N   0  0  0  0  0  0  0  0  0  0  0  0
    7.3045    0.6508   24.2544 C   0  0  0  0  0  0  0  0  0  0  0  0
    7.0714    1.5196   25.2802 N   0  0  0  0  0  0  0  0  0  0  0  0
    6.3149    2.6889   25.0324 C   0  0  0  0  0  0  0  0  0  0  0  0
    5.1898    2.9397   25.8219 C   0  0  0  0  0  0  0  0  0  0  0  0
    4.9414    2.2011   26.5793 H   0  0  0  0  0  0  0  0  0  0  0  0
    4.4173    4.0782   25.5919 C   0  0  0  0  0  0  0  0  0  0  0  0
    3.5406    4.2621   26.2056 H   0  0  0  0  0  0  0  0  0  0  0  0
    4.7886    4.9774   24.5838 C   0  0  0  0  0  0  0  0  0  0  0  0
    4.2022    5.8740   24.4087 H   0  0  0  0  0  0  0  0  0  0  0  0
    5.9244    4.7293   23.8019 C   0  0  0  0  0  0  0  0  0  0  0  0
    6.2141    5.4226   23.0142 H   0  0  0  0  0  0  0  0  0  0  0  0
    6.6827    3.5749   24.0072 C   0  0  0  0  0  0  0  0  0  0  0  0
    7.5193    3.3204   23.3607 H   0  0  0  0  0  0  0  0  0  0  0  0
    7.4604    1.1144   26.6238 C   0  0  0  0  0  0  0  0  0  0  0  0
    7.4387    1.9639   27.3173 H   0  0  0  0  0  0  0  0  0  0  0  0
    8.4747    0.7144   26.5765 H   0  0  0  0  0  0  0  0  0  0  0  0
    6.8126    0.3102   27.0012 H   0  0  0  0  0  0  0  0  0  0  0  0
    6.8459    0.8528   23.0180 N   0  0  0  0  0  0  0  0  0  0  0  0
    7.3463   -0.2367   22.3770 N   0  0  0  0  0  0  0  0  0  0  0  0
    5.4271    0.7240   20.1790 C   0  0  0  0  0  0  0  0  0  0  0  0
    4.9990    0.7549   21.1839 H   0  0  0  0  0  0  0  0  0  0  0  0
    4.7878    1.3226   19.0974 C   0  0  0  0  0  0  0  0  0  0  0  0
    3.8408    1.8430   19.2084 H   0  0  0  0  0  0  0  0  0  0  0  0
  1  2  1  0
  2  3  2  0
  3  4  1  0
  4  5  1  0
  4  6  2  0
  6  7  1  0
  7  8  2  0
  8  9  1  0
  8 10  1  0
 10 11  1  0
 11 12  2  0
 12 13  1  0
 13 14  1  0
 14 15  1  0
 15 16  2  0
 16 17  1  0
 16 18  1  0
 18 19  1  0
 18 20  2  0
 20 21  1  0
 20 22  1  0
 22 23  1  0
 22 24  2  0
 24 25  1  0
 14 26  1  0
 26 27  1  0
 26 28  1  0
 26 29  1  0
 13 30  2  0
 30 31  1  0
  6 32  1  0
 32 33  1  0
 32 34  2  0
 34 35  1  0
 34  2  1  0
 31  7  1  0
 31 11  1  0
 24 15  1  0
M  END
>  <cnnaffinity>  (1) 
-5.23053

>  <filename>  (1) 
CN(c1ccccc1)c1nc2scc(-c3cccnc3)n2n1

$$$$
