
     RDKit          3D

 31 32  0  0  0  0  0  0  0  0999 V2000
    4.9998    1.8218   16.9517 H   0  0  0  0  0  0  0  0  0  0  0  0
    5.4536    1.3203   17.8044 C   0  0  0  0  0  0  0  0  0  0  0  0
    6.6147    0.6877   17.5747 N   0  0  0  0  0  0  0  0  0  0  0  0
    7.1843    0.0578   18.6125 C   0  0  0  0  0  0  0  0  0  0  0  0
    8.1197   -0.4551   18.3848 H   0  0  0  0  0  0  0  0  0  0  0  0
    6.6675    0.0274   19.9136 C   0  0  0  0  0  0  0  0  0  0  0  0
    7.4138   -0.7363   20.9852 C   0  0  0  0  0  0  0  0  0  0  0  0
    7.1788   -2.1938   20.9184 N   0  0  0  0  0  0  0  0  0  0  0  0
    7.5760   -2.5613   21.7842 H   0  0  0  0  0  0  0  0  0  0  0  0
    5.8100   -2.5685   20.7979 N   0  0  0  0  0  0  0  0  0  0  0  0
    5.3080   -3.4134   21.8633 C   0  0  0  0  0  0  0  0  0  0  0  0
    5.5506   -2.9611   22.8315 H   0  0  0  0  0  0  0  0  0  0  0  0
    4.2166   -3.4264   21.7828 H   0  0  0  0  0  0  0  0  0  0  0  0
    5.6964   -4.4509   21.8533 H   0  0  0  0  0  0  0  0  0  0  0  0
    5.5699   -3.0404   19.4448 C   0  0  0  0  0  0  0  0  0  0  0  0
    6.0394   -2.3614   18.7366 H   0  0  0  0  0  0  0  0  0  0  0  0
    4.5018   -3.0037   19.2191 H   0  0  0  0  0  0  0  0  0  0  0  0
    5.9852   -4.0413   19.2273 H   0  0  0  0  0  0  0  0  0  0  0  0
    7.3289   -0.1574   22.4371 C   0  0  0  0  0  0  0  0  0  0  0  0
    6.8482    0.8201   22.5057 H   0  0  0  0  0  0  0  0  0  0  0  0
    6.8422   -0.8281   23.1577 H   0  0  0  0  0  0  0  0  0  0  0  0
    8.8778   -0.0836   22.5060 C   0  0  0  0  0  0  0  0  0  0  0  0
    9.2825    0.9180   22.6881 H   0  0  0  0  0  0  0  0  0  0  0  0
    9.3334   -0.7788   23.2200 H   0  0  0  0  0  0  0  0  0  0  0  0
    8.9508   -0.5440   21.0268 C   0  0  0  0  0  0  0  0  0  0  0  0
    9.3208    0.2248   20.3477 H   0  0  0  0  0  0  0  0  0  0  0  0
    9.5066   -1.4710   20.8403 H   0  0  0  0  0  0  0  0  0  0  0  0
    5.4353    0.6706   20.1255 C   0  0  0  0  0  0  0  0  0  0  0  0
    4.9678    0.6438   21.1120 H   0  0  0  0  0  0  0  0  0  0  0  0
    4.8261    1.3320   19.0560 C   0  0  0  0  0  0  0  0  0  0  0  0
    3.8891    1.8590   19.1776 H   0  0  0  0  0  0  0  0  0  0  0  0
  1  2  1  0
  2  3  2  0
  3  4  1  0
  4  5  1  0
  4  6  2  0
  6  7  1  0
  7  8  1  0
  8  9  1  0
  8 10  1  0
 10 11  1  0
 11 12  1  0
 11 13  1  0
 11 14  1  0
 10 15  1  0
 15 16  1  0
 15 17  1  0
 15 18  1  0
  7 19  1  0
 19 20  1  0
 19 21  1  0
 19 22  1  0
 22 23  1  0
 22 24  1  0
 22 25  1  0
 25 26  1  0
 25 27  1  0
  6 28  1  0
 28 29  1  0
 28 30  2  0
 30 31  1  0
 30  2  1  0
 25  7  1  0
M  END
>  <cnnaffinity>  (1) 
-4.12608

>  <filename>  (1) 
CN(C)NC1(c2cccnc2)CCC1

$$$$
