
     RDKit          3D

 39 41  0  0  0  0  0  0  0  0999 V2000
    5.1094    1.8368   16.9850 H   0  0  0  0  0  0  0  0  0  0  0  0
    5.5083    1.2972   17.8406 C   0  0  0  0  0  0  0  0  0  0  0  0
    6.6533    0.6308   17.6314 N   0  0  0  0  0  0  0  0  0  0  0  0
    7.1706   -0.0441   18.6657 C   0  0  0  0  0  0  0  0  0  0  0  0
    8.0845   -0.6009   18.4582 H   0  0  0  0  0  0  0  0  0  0  0  0
    6.5967   -0.0886   19.9454 C   0  0  0  0  0  0  0  0  0  0  0  0
    7.3109   -0.8212   21.0096 C   0  0  0  0  0  0  0  0  0  0  0  0
    6.6738   -1.6791   21.8139 N   0  0  0  0  0  0  0  0  0  0  0  0
    7.6499   -2.1544   22.5993 N   0  0  0  0  0  0  0  0  0  0  0  0
    8.8513   -1.6216   22.3651 C   0  0  0  0  0  0  0  0  0  0  0  0
    8.7074   -0.7340   21.3203 C   0  0  0  0  0  0  0  0  0  0  0  0
    9.7914    0.2353   20.9295 C   0  0  0  0  0  0  0  0  0  0  0  0
    9.5533    0.7443   19.9912 H   0  0  0  0  0  0  0  0  0  0  0  0
   10.7106   -0.3303   20.7373 H   0  0  0  0  0  0  0  0  0  0  0  0
   10.1437    1.2626   22.0335 C   0  0  0  0  0  0  0  0  0  0  0  0
   10.5195    0.7190   22.9120 H   0  0  0  0  0  0  0  0  0  0  0  0
   10.9810    1.8785   21.6741 H   0  0  0  0  0  0  0  0  0  0  0  0
    9.1041    2.1650   22.4973 N   0  0  0  0  0  0  0  0  0  0  0  0
    8.2529    1.7064   23.5763 C   0  0  0  0  0  0  0  0  0  0  0  0
    7.4737    0.9775   23.2869 H   0  0  0  0  0  0  0  0  0  0  0  0
    7.7450    2.5733   24.0181 H   0  0  0  0  0  0  0  0  0  0  0  0
    8.8788    1.2540   24.3550 H   0  0  0  0  0  0  0  0  0  0  0  0
    8.3955    2.9134   21.4811 C   0  0  0  0  0  0  0  0  0  0  0  0
    8.0699    3.8795   21.8874 H   0  0  0  0  0  0  0  0  0  0  0  0
    7.5058    2.4070   21.0680 H   0  0  0  0  0  0  0  0  0  0  0  0
    9.0562    3.1038   20.6332 H   0  0  0  0  0  0  0  0  0  0  0  0
    9.8314   -2.0305   23.4148 C   0  0  0  0  0  0  0  0  0  0  0  0
   10.7502   -2.4329   22.9796 H   0  0  0  0  0  0  0  0  0  0  0  0
   10.1230   -1.1548   24.0030 H   0  0  0  0  0  0  0  0  0  0  0  0
    9.0319   -3.0537   24.2695 C   0  0  0  0  0  0  0  0  0  0  0  0
    9.0705   -2.7919   25.3275 H   0  0  0  0  0  0  0  0  0  0  0  0
    9.4525   -4.0538   24.1552 H   0  0  0  0  0  0  0  0  0  0  0  0
    7.5591   -3.0265   23.7555 C   0  0  0  0  0  0  0  0  0  0  0  0
    7.1971   -4.0166   23.4626 H   0  0  0  0  0  0  0  0  0  0  0  0
    6.8612   -2.6008   24.4840 H   0  0  0  0  0  0  0  0  0  0  0  0
    5.3667    0.5695   20.1296 C   0  0  0  0  0  0  0  0  0  0  0  0
    4.8495    0.5068   21.0889 H   0  0  0  0  0  0  0  0  0  0  0  0
    4.8223    1.2881   19.0627 C   0  0  0  0  0  0  0  0  0  0  0  0
    3.8846    1.8316   19.1544 H   0  0  0  0  0  0  0  0  0  0  0  0
  1  2  1  0
  2  3  2  0
  3  4  1  0
  4  5  1  0
  4  6  2  0
  6  7  1  0
  7  8  2  0
  8  9  1  0
  9 10  1  0
 10 11  2  0
 11 12  1  0
 12 13  1  0
 12 14  1  0
 12 15  1  0
 15 16  1  0
 15 17  1  0
 15 18  1  0
 18 19  1  0
 19 20  1  0
 19 21  1  0
 19 22  1  0
 18 23  1  0
 23 24  1  0
 23 25  1  0
 23 26  1  0
 10 27  1  0
 27 28  1  0
 27 29  1  0
 27 30  1  0
 30 31  1  0
 30 32  1  0
 30 33  1  0
 33 34  1  0
 33 35  1  0
  6 36  1  0
 36 37  1  0
 36 38  2  0
 38 39  1  0
 38  2  1  0
 11  7  1  0
 33  9  1  0
M  END
>  <cnnaffinity>  (1) 
-5.23356

>  <filename>  (1) 
CN(C)CCc1c(-c2cccnc2)nn2c1CCC2

$$$$
