
     RDKit          3D

 32 33  0  0  0  0  0  0  0  0999 V2000
    4.2802   -2.0935   23.9649 H   0  0  0  0  0  0  0  0  0  0  0  0
    3.8521   -2.3173   24.8131 O   0  0  0  0  0  0  0  0  0  0  0  0
    4.5813   -1.8011   25.8301 C   0  0  0  0  0  0  0  0  0  0  0  0
    4.1838   -2.2253   27.1041 C   0  0  0  0  0  0  0  0  0  0  0  0
    3.3357   -2.8934   27.1595 H   0  0  0  0  0  0  0  0  0  0  0  0
    4.8581   -1.7879   28.2408 C   0  0  0  0  0  0  0  0  0  0  0  0
    4.3469   -2.3677   29.7973 Cl  0  0  0  0  0  0  0  0  0  0  0  0
    5.9309   -0.8972   28.1403 C   0  0  0  0  0  0  0  0  0  0  0  0
    6.4304   -0.5222   29.0265 H   0  0  0  0  0  0  0  0  0  0  0  0
    6.3284   -0.4601   26.8729 C   0  0  0  0  0  0  0  0  0  0  0  0
    7.1318    0.2565   26.7290 H   0  0  0  0  0  0  0  0  0  0  0  0
    5.6606   -0.8921   25.7277 C   0  0  0  0  0  0  0  0  0  0  0  0
    6.0428   -0.2578   24.5408 O   0  0  0  0  0  0  0  0  0  0  0  0
    6.4503   -1.0056   23.4729 C   0  0  0  0  0  0  0  0  0  0  0  0
    6.2531   -2.1945   23.3454 O   0  0  0  0  0  0  0  0  0  0  0  0
    7.0548   -0.1460   22.6093 N   0  0  0  0  0  0  0  0  0  0  0  0
    7.1361    0.7971   22.9543 H   0  0  0  0  0  0  0  0  0  0  0  0
    7.5091   -0.4285   21.3243 N   0  0  0  0  0  0  0  0  0  0  0  0
    6.7435    0.0693   20.2443 C   0  0  0  0  0  0  0  0  0  0  0  0
    7.2689    0.0435   18.9340 C   0  0  0  0  0  0  0  0  0  0  0  0
    8.2290   -0.4403   18.7604 H   0  0  0  0  0  0  0  0  0  0  0  0
    6.6751    0.5861   17.8629 N   0  0  0  0  0  0  0  0  0  0  0  0
    5.4863    1.1822   18.0422 C   0  0  0  0  0  0  0  0  0  0  0  0
    5.0177    1.6235   17.1636 H   0  0  0  0  0  0  0  0  0  0  0  0
    4.8504    1.2294   19.2865 C   0  0  0  0  0  0  0  0  0  0  0  0
    3.8906    1.7222   19.3924 H   0  0  0  0  0  0  0  0  0  0  0  0
    5.4774    0.6670   20.3983 C   0  0  0  0  0  0  0  0  0  0  0  0
    5.0230    0.6923   21.3850 H   0  0  0  0  0  0  0  0  0  0  0  0
    8.1926   -1.7125   21.1600 C   0  0  0  0  0  0  0  0  0  0  0  0
    8.6381   -2.0037   22.1110 H   0  0  0  0  0  0  0  0  0  0  0  0
    9.0019   -1.6043   20.4337 H   0  0  0  0  0  0  0  0  0  0  0  0
    7.5069   -2.5066   20.8386 H   0  0  0  0  0  0  0  0  0  0  0  0
  1  2  1  0
  2  3  1  0
  3  4  2  0
  4  5  1  0
  4  6  1  0
  6  7  1  0
  6  8  2  0
  8  9  1  0
  8 10  1  0
 10 11  1  0
 10 12  2  0
 12 13  1  0
 13 14  1  0
 14 15  2  0
 14 16  1  0
 16 17  1  0
 16 18  1  0
 18 19  1  0
 19 20  2  0
 20 21  1  0
 20 22  1  0
 22 23  2  0
 23 24  1  0
 23 25  1  0
 25 26  1  0
 25 27  2  0
 27 28  1  0
 18 29  1  0
 29 30  1  0
 29 31  1  0
 29 32  1  0
 12  3  1  0
 27 19  1  0
M  END
>  <cnnaffinity>  (1) 
-4.80717

>  <filename>  (1) 
CN(NC(=O)Oc1ccc(Cl)cc1O)c1cccnc1

$$$$
