
     RDKit          3D

 35 36  0  0  0  0  0  0  0  0999 V2000
    4.8971    1.6827   16.9927 H   0  0  0  0  0  0  0  0  0  0  0  0
    5.3861    1.2471   17.8647 C   0  0  0  0  0  0  0  0  0  0  0  0
    6.5734    0.6642   17.6478 N   0  0  0  0  0  0  0  0  0  0  0  0
    7.2125    0.1457   18.7047 C   0  0  0  0  0  0  0  0  0  0  0  0
    8.1679   -0.3145   18.4721 H   0  0  0  0  0  0  0  0  0  0  0  0
    6.7347    0.1648   20.0381 C   0  0  0  0  0  0  0  0  0  0  0  0
    7.5178   -0.3672   21.0870 N   0  0  0  0  0  0  0  0  0  0  0  0
    7.1547   -0.0613   22.4039 N   0  0  0  0  0  0  0  0  0  0  0  0
    7.7475    0.6456   22.8223 H   0  0  0  0  0  0  0  0  0  0  0  0
    6.8360   -1.0314   23.3629 C   0  0  0  0  0  0  0  0  0  0  0  0
    6.5028   -2.1771   23.1331 O   0  0  0  0  0  0  0  0  0  0  0  0
    7.0130   -0.5116   24.6272 N   0  0  0  0  0  0  0  0  0  0  0  0
    6.8721    0.4831   24.6267 H   0  0  0  0  0  0  0  0  0  0  0  0
    6.4354   -1.1888   25.7830 C   0  0  0  0  0  0  0  0  0  0  0  0
    6.9126   -2.1730   25.9057 H   0  0  0  0  0  0  0  0  0  0  0  0
    6.6604   -0.3309   27.0218 C   0  0  0  0  0  0  0  0  0  0  0  0
    7.7096   -0.3388   27.3443 H   0  0  0  0  0  0  0  0  0  0  0  0
    6.3918    0.7060   26.7661 H   0  0  0  0  0  0  0  0  0  0  0  0
    5.6680   -0.8682   28.0683 C   0  0  0  0  0  0  0  0  0  0  0  0
    6.1301   -1.6405   28.6900 H   0  0  0  0  0  0  0  0  0  0  0  0
    5.3296   -0.0840   28.7563 H   0  0  0  0  0  0  0  0  0  0  0  0
    4.4987   -1.4897   27.2482 C   0  0  0  0  0  0  0  0  0  0  0  0
    3.5496   -0.9754   27.4354 H   0  0  0  0  0  0  0  0  0  0  0  0
    4.3371   -2.5299   27.5551 H   0  0  0  0  0  0  0  0  0  0  0  0
    4.9108   -1.3911   25.7606 C   0  0  0  0  0  0  0  0  0  0  0  0
    4.6360   -2.2615   25.1587 H   0  0  0  0  0  0  0  0  0  0  0  0
    4.4389   -0.5188   25.2892 H   0  0  0  0  0  0  0  0  0  0  0  0
    8.2171   -1.6319   20.8694 C   0  0  0  0  0  0  0  0  0  0  0  0
    8.5659   -2.0060   21.8330 H   0  0  0  0  0  0  0  0  0  0  0  0
    7.5464   -2.3962   20.4607 H   0  0  0  0  0  0  0  0  0  0  0  0
    9.0751   -1.4707   20.2089 H   0  0  0  0  0  0  0  0  0  0  0  0
    5.4753    0.7671   20.2356 C   0  0  0  0  0  0  0  0  0  0  0  0
    5.0581    0.8047   21.2402 H   0  0  0  0  0  0  0  0  0  0  0  0
    4.7991    1.3054   19.1353 C   0  0  0  0  0  0  0  0  0  0  0  0
    3.8312    1.7859   19.2511 H   0  0  0  0  0  0  0  0  0  0  0  0
  1  2  1  0
  2  3  2  0
  3  4  1  0
  4  5  1  0
  4  6  2  0
  6  7  1  0
  7  8  1  0
  8  9  1  0
  8 10  1  0
 10 11  2  0
 10 12  1  0
 12 13  1  0
 12 14  1  0
 14 15  1  0
 14 16  1  0
 16 17  1  0
 16 18  1  0
 16 19  1  0
 19 20  1  0
 19 21  1  0
 19 22  1  0
 22 23  1  0
 22 24  1  0
 22 25  1  0
 25 26  1  0
 25 27  1  0
  7 28  1  0
 28 29  1  0
 28 30  1  0
 28 31  1  0
  6 32  1  0
 32 33  1  0
 32 34  2  0
 34 35  1  0
 34  2  1  0
 25 14  1  0
M  END
>  <cnnaffinity>  (1) 
-4.74519

>  <filename>  (1) 
CN(NC(=O)NC1CCCC1)c1cccnc1

$$$$
