
     RDKit          3D

 40 41  0  0  0  0  0  0  0  0999 V2000
    4.9706    1.8699   17.1600 H   0  0  0  0  0  0  0  0  0  0  0  0
    5.4293    1.2637   17.9384 C   0  0  0  0  0  0  0  0  0  0  0  0
    6.5237    0.5698   17.5841 N   0  0  0  0  0  0  0  0  0  0  0  0
    7.1159   -0.1631   18.5347 C   0  0  0  0  0  0  0  0  0  0  0  0
    8.0006   -0.7196   18.2298 H   0  0  0  0  0  0  0  0  0  0  0  0
    6.6645   -0.2597   19.8719 C   0  0  0  0  0  0  0  0  0  0  0  0
    7.4098   -1.0121   20.8252 N   0  0  0  0  0  0  0  0  0  0  0  0
    6.6328   -1.6002   21.8473 N   0  0  0  0  0  0  0  0  0  0  0  0
    6.1768   -2.4418   21.5347 H   0  0  0  0  0  0  0  0  0  0  0  0
    6.9312   -1.6681   23.2074 C   0  0  0  0  0  0  0  0  0  0  0  0
    7.6146   -0.9139   23.8500 O   0  0  0  0  0  0  0  0  0  0  0  0
    6.2951   -2.7879   23.7250 N   0  0  0  0  0  0  0  0  0  0  0  0
    5.5506   -3.1690   23.1821 H   0  0  0  0  0  0  0  0  0  0  0  0
    6.4953   -3.2498   25.0114 C   0  0  0  0  0  0  0  0  0  0  0  0
    7.3737   -2.8381   25.7302 O   0  0  0  0  0  0  0  0  0  0  0  0
    5.5497   -4.3810   25.4247 C   0  0  0  0  0  0  0  0  0  0  0  0
    4.8369   -4.5659   24.6123 H   0  0  0  0  0  0  0  0  0  0  0  0
    4.7306   -3.9677   26.6720 C   0  0  0  0  0  0  0  0  0  0  0  0
    5.4203   -3.5811   27.4341 H   0  0  0  0  0  0  0  0  0  0  0  0
    4.0478   -3.1412   26.4188 H   0  0  0  0  0  0  0  0  0  0  0  0
    3.9156   -5.1403   27.2440 C   0  0  0  0  0  0  0  0  0  0  0  0
    3.0825   -5.3712   26.5632 H   0  0  0  0  0  0  0  0  0  0  0  0
    3.4623   -4.8482   28.2019 H   0  0  0  0  0  0  0  0  0  0  0  0
    4.7593   -6.4141   27.4328 C   0  0  0  0  0  0  0  0  0  0  0  0
    4.1438   -7.2409   27.8135 H   0  0  0  0  0  0  0  0  0  0  0  0
    5.5343   -6.2256   28.1939 H   0  0  0  0  0  0  0  0  0  0  0  0
    5.4643   -6.8327   26.1356 C   0  0  0  0  0  0  0  0  0  0  0  0
    4.7282   -7.1096   25.3632 H   0  0  0  0  0  0  0  0  0  0  0  0
    6.0537   -7.7330   26.3294 H   0  0  0  0  0  0  0  0  0  0  0  0
    6.3564   -5.6914   25.6309 C   0  0  0  0  0  0  0  0  0  0  0  0
    6.8530   -5.9700   24.6937 H   0  0  0  0  0  0  0  0  0  0  0  0
    7.1563   -5.5011   26.3598 H   0  0  0  0  0  0  0  0  0  0  0  0
    8.7072   -0.4518   21.2298 C   0  0  0  0  0  0  0  0  0  0  0  0
    9.1862   -0.0487   20.3368 H   0  0  0  0  0  0  0  0  0  0  0  0
    9.3342   -1.2586   21.6187 H   0  0  0  0  0  0  0  0  0  0  0  0
    8.6146    0.3325   21.9932 H   0  0  0  0  0  0  0  0  0  0  0  0
    5.4950    0.4393   20.2088 C   0  0  0  0  0  0  0  0  0  0  0  0
    5.1137    0.3460   21.2258 H   0  0  0  0  0  0  0  0  0  0  0  0
    4.8756    1.2131   19.2232 C   0  0  0  0  0  0  0  0  0  0  0  0
    3.9869    1.7936   19.4475 H   0  0  0  0  0  0  0  0  0  0  0  0
  1  2  1  0
  2  3  2  0
  3  4  1  0
  4  5  1  0
  4  6  2  0
  6  7  1  0
  7  8  1  0
  8  9  1  0
  8 10  1  0
 10 11  2  0
 10 12  1  0
 12 13  1  0
 12 14  1  0
 14 15  2  0
 14 16  1  0
 16 17  1  0
 16 18  1  0
 18 19  1  0
 18 20  1  0
 18 21  1  0
 21 22  1  0
 21 23  1  0
 21 24  1  0
 24 25  1  0
 24 26  1  0
 24 27  1  0
 27 28  1  0
 27 29  1  0
 27 30  1  0
 30 31  1  0
 30 32  1  0
  7 33  1  0
 33 34  1  0
 33 35  1  0
 33 36  1  0
  6 37  1  0
 37 38  1  0
 37 39  2  0
 39 40  1  0
 39  2  1  0
 30 16  1  0
M  END
>  <cnnaffinity>  (1) 
-4.91341

>  <filename>  (1) 
CN(NC(=O)NC(=O)C1CCCCC1)c1cccnc1

$$$$
