
     RDKit          3D

 30 32  0  0  0  0  0  0  0  0999 V2000
    4.9114    1.8136   16.9712 H   0  0  0  0  0  0  0  0  0  0  0  0
    5.3827    1.3094   17.8124 C   0  0  0  0  0  0  0  0  0  0  0  0
    6.5446    0.6903   17.5459 N   0  0  0  0  0  0  0  0  0  0  0  0
    7.1581    0.0697   18.5601 C   0  0  0  0  0  0  0  0  0  0  0  0
    8.1126   -0.3942   18.3132 H   0  0  0  0  0  0  0  0  0  0  0  0
    6.6597    0.0174   19.8795 C   0  0  0  0  0  0  0  0  0  0  0  0
    7.3843   -0.6563   20.9741 C   0  0  0  0  0  0  0  0  0  0  0  0
    7.5336   -0.3186   22.3138 C   0  0  0  0  0  0  0  0  0  0  0  0
    7.0479    0.8486   22.9050 N   0  0  0  0  0  0  0  0  0  0  0  0
    6.9681    1.6537   22.2970 H   0  0  0  0  0  0  0  0  0  0  0  0
    6.7434    1.0105   24.2544 C   0  0  0  0  0  0  0  0  0  0  0  0
    6.4432    0.0372   25.2426 C   0  0  0  0  0  0  0  0  0  0  0  0
    6.4035   -1.0367   25.1204 H   0  0  0  0  0  0  0  0  0  0  0  0
    6.1887    0.6008   26.4177 N   0  0  0  0  0  0  0  0  0  0  0  0
    6.3054    1.9142   26.2021 N   0  0  0  0  0  0  0  0  0  0  0  0
    6.1285    2.8441   27.2920 C   0  0  0  0  0  0  0  0  0  0  0  0
    5.5270    2.3479   28.0561 H   0  0  0  0  0  0  0  0  0  0  0  0
    5.6039    3.7297   26.9231 H   0  0  0  0  0  0  0  0  0  0  0  0
    7.0939    3.1374   27.7204 H   0  0  0  0  0  0  0  0  0  0  0  0
    6.6362    2.2119   24.9193 C   0  0  0  0  0  0  0  0  0  0  0  0
    6.7738    3.2340   24.5859 H   0  0  0  0  0  0  0  0  0  0  0  0
    8.3058   -1.3717   22.8680 C   0  0  0  0  0  0  0  0  0  0  0  0
    8.6531   -1.4715   23.8875 H   0  0  0  0  0  0  0  0  0  0  0  0
    8.6112   -2.2909   21.9572 N   0  0  0  0  0  0  0  0  0  0  0  0
    8.0540   -1.8321   20.8271 N   0  0  0  0  0  0  0  0  0  0  0  0
    8.1239   -2.3768   19.9796 H   0  0  0  0  0  0  0  0  0  0  0  0
    5.4365    0.6639   20.1290 C   0  0  0  0  0  0  0  0  0  0  0  0
    5.0155    0.6320   21.1338 H   0  0  0  0  0  0  0  0  0  0  0  0
    4.7889    1.3193   19.0798 C   0  0  0  0  0  0  0  0  0  0  0  0
    3.8565    1.8528   19.2312 H   0  0  0  0  0  0  0  0  0  0  0  0
  1  2  1  0
  2  3  2  0
  3  4  1  0
  4  5  1  0
  4  6  2  0
  6  7  1  0
  7  8  2  0
  8  9  1  0
  9 10  1  0
  9 11  1  0
 11 12  1  0
 12 13  1  0
 12 14  2  0
 14 15  1  0
 15 16  1  0
 16 17  1  0
 16 18  1  0
 16 19  1  0
 15 20  1  0
 20 21  1  0
  8 22  1  0
 22 23  1  0
 22 24  2  0
 24 25  1  0
 25 26  1  0
  6 27  1  0
 27 28  1  0
 27 29  2  0
 29 30  1  0
 29  2  1  0
 25  7  1  0
 20 11  2  0
M  END
>  <cnnaffinity>  (1) 
-5.28615

>  <filename>  (1) 
Cn1cc(Nc2cn[nH]c2-c2cccnc2)cn1

$$$$
