
     RDKit          3D

 35 38  0  0  0  0  0  0  0  0999 V2000
    5.0107    1.8383   16.9061 H   0  0  0  0  0  0  0  0  0  0  0  0
    5.3902    1.3081   17.7818 C   0  0  0  0  0  0  0  0  0  0  0  0
    6.5382    0.6347   17.6121 N   0  0  0  0  0  0  0  0  0  0  0  0
    7.0451    0.0133   18.6832 C   0  0  0  0  0  0  0  0  0  0  0  0
    7.9771   -0.5244   18.5214 H   0  0  0  0  0  0  0  0  0  0  0  0
    6.4568   -0.0074   19.9632 C   0  0  0  0  0  0  0  0  0  0  0  0
    7.2198   -0.6104   21.0713 C   0  0  0  0  0  0  0  0  0  0  0  0
    8.5815   -0.5557   21.2984 C   0  0  0  0  0  0  0  0  0  0  0  0
    8.7913   -1.1559   22.5327 C   0  0  0  0  0  0  0  0  0  0  0  0
    7.6776   -1.6079   23.0740 N   0  0  0  0  0  0  0  0  0  0  0  0
    6.7293   -1.2638   22.1673 N   0  0  0  0  0  0  0  0  0  0  0  0
    5.7722   -1.5433   22.3466 H   0  0  0  0  0  0  0  0  0  0  0  0
   10.2252   -1.1439   22.9665 C   0  0  0  0  0  0  0  0  0  0  0  0
   10.3477   -0.6524   23.9380 H   0  0  0  0  0  0  0  0  0  0  0  0
   10.6307   -2.1591   23.0623 H   0  0  0  0  0  0  0  0  0  0  0  0
   10.9361   -0.3494   21.8069 C   0  0  2  0  0  0  0  0  0  0  0  0
   11.6982   -1.0101   21.3784 H   0  0  0  0  0  0  0  0  0  0  0  0
   11.6064    0.9158   22.2796 C   0  0  0  0  0  0  0  0  0  0  0  0
   12.9792    1.2500   22.3506 C   0  0  0  0  0  0  0  0  0  0  0  0
   13.8328    0.6652   22.0288 H   0  0  0  0  0  0  0  0  0  0  0  0
   13.1698    2.4602   22.8600 N   0  0  0  0  0  0  0  0  0  0  0  0
   11.9441    2.9321   23.1065 N   0  0  0  0  0  0  0  0  0  0  0  0
   11.7845    4.2387   23.7097 C   0  0  0  0  0  0  0  0  0  0  0  0
   11.7837    4.1716   24.8029 H   0  0  0  0  0  0  0  0  0  0  0  0
   12.6270    4.8585   23.3935 H   0  0  0  0  0  0  0  0  0  0  0  0
   10.8437    4.6783   23.3656 H   0  0  0  0  0  0  0  0  0  0  0  0
   10.9775    2.0405   22.7781 C   0  0  0  0  0  0  0  0  0  0  0  0
    9.9239    2.2601   22.9180 H   0  0  0  0  0  0  0  0  0  0  0  0
    9.8544   -0.0741   20.6983 C   0  0  0  0  0  0  0  0  0  0  0  0
    9.8091    0.9822   20.3996 H   0  0  0  0  0  0  0  0  0  0  0  0
   10.0820   -0.6490   19.7972 H   0  0  0  0  0  0  0  0  0  0  0  0
    5.2319    0.6693   20.1092 C   0  0  0  0  0  0  0  0  0  0  0  0
    4.7186    0.6955   21.0722 H   0  0  0  0  0  0  0  0  0  0  0  0
    4.7047    1.3390   19.0025 C   0  0  0  0  0  0  0  0  0  0  0  0
    3.7891    1.9125   19.0705 H   0  0  0  0  0  0  0  0  0  0  0  0
  1  2  1  0
  2  3  2  0
  3  4  1  0
  4  5  1  0
  4  6  2  0
  6  7  1  0
  7  8  2  0
  8  9  1  0
  9 10  2  0
 10 11  1  0
 11 12  1  0
  9 13  1  0
 13 14  1  0
 13 15  1  0
 13 16  1  0
 16 17  1  6
 16 18  1  0
 18 19  1  0
 19 20  1  0
 19 21  2  0
 21 22  1  0
 22 23  1  0
 23 24  1  0
 23 25  1  0
 23 26  1  0
 22 27  1  0
 27 28  1  0
 16 29  1  0
 29 30  1  0
 29 31  1  0
  6 32  1  0
 32 33  1  0
 32 34  2  0
 34 35  1  0
 34  2  1  0
 11  7  1  0
 27 18  2  0
 29  8  1  0
M  END
>  <cnnaffinity>  (1) 
-5.71346

>  <filename>  (1) 
Cn1cc([C@H]2Cc3n[nH]c(-c4cccnc4)c3C2)cn1

$$$$
