
     RDKit          3D

 30 33  0  0  0  0  0  0  0  0999 V2000
    4.9481    1.7778   16.9804 H   0  0  0  0  0  0  0  0  0  0  0  0
    5.4106    1.2877   17.8328 C   0  0  0  0  0  0  0  0  0  0  0  0
    6.5731    0.6571   17.5942 N   0  0  0  0  0  0  0  0  0  0  0  0
    7.1618    0.0722   18.6388 C   0  0  0  0  0  0  0  0  0  0  0  0
    8.1096   -0.4180   18.4201 H   0  0  0  0  0  0  0  0  0  0  0  0
    6.6574    0.0786   19.9559 C   0  0  0  0  0  0  0  0  0  0  0  0
    7.4313   -0.6134   21.0052 C   0  0  0  0  0  0  0  0  0  0  0  0
    8.3047   -1.6246   20.8419 C   0  0  0  0  0  0  0  0  0  0  0  0
    8.7320   -1.9692   19.9192 H   0  0  0  0  0  0  0  0  0  0  0  0
    8.8844   -2.2988   22.3377 S   0  0  0  0  0  0  0  0  0  0  0  0
    8.0768   -1.0289   23.2104 C   0  0  0  0  0  0  0  0  0  0  0  0
    8.0893   -0.5011   24.4137 N   0  0  0  0  0  0  0  0  0  0  0  0
    7.3086    0.6292   24.2452 C   0  0  0  0  0  0  0  0  0  0  0  0
    7.0318    1.6196   25.3261 C   0  0  0  0  0  0  0  0  0  0  0  0
    6.3164    2.7331   25.2339 N   0  0  0  0  0  0  0  0  0  0  0  0
    6.3408    3.2995   26.4700 C   0  0  0  0  0  0  0  0  0  0  0  0
    5.8252    4.2268   26.6699 H   0  0  0  0  0  0  0  0  0  0  0  0
    7.0757    2.5335   27.3354 C   0  0  0  0  0  0  0  0  0  0  0  0
    7.3104    2.6458   28.3850 H   0  0  0  0  0  0  0  0  0  0  0  0
    7.5187    1.4642   26.6100 N   0  0  0  0  0  0  0  0  0  0  0  0
    8.3417    0.3855   27.1412 C   0  0  0  0  0  0  0  0  0  0  0  0
    8.5110    0.5508   28.2086 H   0  0  0  0  0  0  0  0  0  0  0  0
    9.2975    0.3555   26.6204 H   0  0  0  0  0  0  0  0  0  0  0  0
    7.8356   -0.5669   26.9985 H   0  0  0  0  0  0  0  0  0  0  0  0
    6.8329    0.7835   23.0138 N   0  0  0  0  0  0  0  0  0  0  0  0
    7.3222   -0.2948   22.3653 N   0  0  0  0  0  0  0  0  0  0  0  0
    5.4266    0.7283   20.1825 C   0  0  0  0  0  0  0  0  0  0  0  0
    5.0049    0.7739   21.1903 H   0  0  0  0  0  0  0  0  0  0  0  0
    4.7996    1.3276   19.0927 C   0  0  0  0  0  0  0  0  0  0  0  0
    3.8512    1.8420   19.2080 H   0  0  0  0  0  0  0  0  0  0  0  0
  1  2  1  0
  2  3  2  0
  3  4  1  0
  4  5  1  0
  4  6  2  0
  6  7  1  0
  7  8  2  0
  8  9  1  0
  8 10  1  0
 10 11  1  0
 11 12  2  0
 12 13  1  0
 13 14  1  0
 14 15  2  0
 15 16  1  0
 16 17  1  0
 16 18  2  0
 18 19  1  0
 18 20  1  0
 20 21  1  0
 21 22  1  0
 21 23  1  0
 21 24  1  0
 13 25  2  0
 25 26  1  0
  6 27  1  0
 27 28  1  0
 27 29  2  0
 29 30  1  0
 29  2  1  0
 26  7  1  0
 26 11  1  0
 20 14  1  0
M  END
>  <cnnaffinity>  (1) 
-5.04686

>  <filename>  (1) 
Cn1ccnc1-c1nc2scc(-c3cccnc3)n2n1

$$$$
