
     RDKit          3D

 30 32  0  0  0  0  0  0  0  0999 V2000
    4.9139    1.7868   16.9949 H   0  0  0  0  0  0  0  0  0  0  0  0
    5.3960    1.2970   17.8379 C   0  0  0  0  0  0  0  0  0  0  0  0
    6.5595    0.6813   17.5721 N   0  0  0  0  0  0  0  0  0  0  0  0
    7.1719    0.0596   18.5906 C   0  0  0  0  0  0  0  0  0  0  0  0
    8.1190   -0.4287   18.3679 H   0  0  0  0  0  0  0  0  0  0  0  0
    6.6652   -0.0102   19.9154 C   0  0  0  0  0  0  0  0  0  0  0  0
    7.3232   -0.6958   20.9433 N   0  0  0  0  0  0  0  0  0  0  0  0
    6.7846   -1.1404   21.6794 H   0  0  0  0  0  0  0  0  0  0  0  0
    8.7036   -0.7520   21.1042 C   0  0  0  0  0  0  0  0  0  0  0  0
    9.6882    0.1625   20.6728 C   0  0  0  0  0  0  0  0  0  0  0  0
    9.5235    1.0500   20.0864 H   0  0  0  0  0  0  0  0  0  0  0  0
   10.9014   -0.1851   21.0734 N   0  0  0  0  0  0  0  0  0  0  0  0
   10.7171   -1.3221   21.7464 N   0  0  0  0  0  0  0  0  0  0  0  0
   11.5419   -1.7516   22.1389 H   0  0  0  0  0  0  0  0  0  0  0  0
    9.4093   -1.7207   21.8012 C   0  0  0  0  0  0  0  0  0  0  0  0
    8.9398   -2.9062   22.4749 C   0  0  0  0  0  0  0  0  0  0  0  0
    7.6771   -3.3354   22.3945 N   0  0  0  0  0  0  0  0  0  0  0  0
    7.6469   -4.4614   23.1178 N   0  0  0  0  0  0  0  0  0  0  0  0
    6.4088   -5.1878   23.3166 C   0  0  0  0  0  0  0  0  0  0  0  0
    6.6285   -6.2551   23.3541 H   0  0  0  0  0  0  0  0  0  0  0  0
    5.9241   -4.8963   24.2530 H   0  0  0  0  0  0  0  0  0  0  0  0
    5.7380   -4.9906   22.4812 H   0  0  0  0  0  0  0  0  0  0  0  0
    8.8383   -4.7402   23.6912 C   0  0  0  0  0  0  0  0  0  0  0  0
    8.9651   -5.6038   24.3307 H   0  0  0  0  0  0  0  0  0  0  0  0
    9.7080   -3.7581   23.3035 C   0  0  0  0  0  0  0  0  0  0  0  0
   10.7522   -3.6625   23.5599 H   0  0  0  0  0  0  0  0  0  0  0  0
    5.4437    0.6322   20.1650 C   0  0  0  0  0  0  0  0  0  0  0  0
    5.0228    0.6208   21.1705 H   0  0  0  0  0  0  0  0  0  0  0  0
    4.8126    1.3047   19.1093 C   0  0  0  0  0  0  0  0  0  0  0  0
    3.8826    1.8364   19.2644 H   0  0  0  0  0  0  0  0  0  0  0  0
  1  2  1  0
  2  3  2  0
  3  4  1  0
  4  5  1  0
  4  6  2  0
  6  7  1  0
  7  8  1  0
  7  9  1  0
  9 10  1  0
 10 11  1  0
 10 12  2  0
 12 13  1  0
 13 14  1  0
 13 15  1  0
 15 16  1  0
 16 17  2  0
 17 18  1  0
 18 19  1  0
 19 20  1  0
 19 21  1  0
 19 22  1  0
 18 23  1  0
 23 24  1  0
 23 25  2  0
 25 26  1  0
  6 27  1  0
 27 28  1  0
 27 29  2  0
 29 30  1  0
 29  2  1  0
 15  9  2  0
 25 16  1  0
M  END
>  <cnnaffinity>  (1) 
-5.59966

>  <filename>  (1) 
Cn1ccc(-c2[nH]ncc2Nc2cccnc2)n1

$$$$
