
     RDKit          3D

 41 44  0  0  0  0  0  0  0  0999 V2000
    4.9307    1.8103   16.9706 H   0  0  0  0  0  0  0  0  0  0  0  0
    5.4023    1.2979   17.8103 C   0  0  0  0  0  0  0  0  0  0  0  0
    6.5631    0.6727   17.5585 N   0  0  0  0  0  0  0  0  0  0  0  0
    7.1714    0.0444   18.5703 C   0  0  0  0  0  0  0  0  0  0  0  0
    8.1192   -0.4283   18.3219 H   0  0  0  0  0  0  0  0  0  0  0  0
    6.6548   -0.0129   19.8779 C   0  0  0  0  0  0  0  0  0  0  0  0
    7.3670   -0.7010   20.9711 C   0  0  0  0  0  0  0  0  0  0  0  0
    8.4529   -1.4591   20.7525 N   0  0  0  0  0  0  0  0  0  0  0  0
    8.7945   -1.8522   22.0002 N   0  0  0  0  0  0  0  0  0  0  0  0
    9.8574   -2.5601   22.5333 C   0  0  0  0  0  0  0  0  0  0  0  0
   10.6201   -2.9321   21.8750 H   0  0  0  0  0  0  0  0  0  0  0  0
    9.6814   -2.5472   23.8826 C   0  0  0  0  0  0  0  0  0  0  0  0
   10.2786   -2.9322   24.6951 H   0  0  0  0  0  0  0  0  0  0  0  0
    8.5157   -1.8531   24.1568 N   0  0  0  0  0  0  0  0  0  0  0  0
    8.1754   -1.5285   25.4451 O   0  0  0  0  0  0  0  0  0  0  0  0
    6.8963   -0.8421   25.6076 C   0  0  0  0  0  0  0  0  0  0  0  0
    6.8916    0.0240   24.9263 H   0  0  0  0  0  0  0  0  0  0  0  0
    6.8844   -0.3937   27.0620 C   0  0  0  0  0  0  0  0  0  0  0  0
    7.0660   -1.2756   27.6925 H   0  0  0  0  0  0  0  0  0  0  0  0
    7.6934    0.3260   27.2434 H   0  0  0  0  0  0  0  0  0  0  0  0
    5.5345    0.2296   27.4368 C   0  0  0  0  0  0  0  0  0  0  0  0
    5.5192    0.4621   28.5105 H   0  0  0  0  0  0  0  0  0  0  0  0
    5.3980    1.1908   26.8915 H   0  0  0  0  0  0  0  0  0  0  0  0
    4.4316   -0.6924   27.1631 N   0  0  0  0  0  0  0  0  0  0  0  0
    3.1533   -0.1499   27.6053 C   0  0  0  0  0  0  0  0  0  0  0  0
    2.8649    0.7781   27.0720 H   0  0  0  0  0  0  0  0  0  0  0  0
    2.3541   -0.8852   27.4525 H   0  0  0  0  0  0  0  0  0  0  0  0
    3.1870    0.0792   28.6770 H   0  0  0  0  0  0  0  0  0  0  0  0
    4.3904   -1.0883   25.7534 C   0  0  0  0  0  0  0  0  0  0  0  0
    3.5554   -1.7894   25.6292 H   0  0  0  0  0  0  0  0  0  0  0  0
    4.1710   -0.2108   25.1046 H   0  0  0  0  0  0  0  0  0  0  0  0
    5.7034   -1.7648   25.3258 C   0  0  0  0  0  0  0  0  0  0  0  0
    5.6812   -2.0370   24.2637 H   0  0  0  0  0  0  0  0  0  0  0  0
    5.8424   -2.6891   25.9004 H   0  0  0  0  0  0  0  0  0  0  0  0
    7.9935   -1.3851   22.9724 C   0  0  0  0  0  0  0  0  0  0  0  0
    7.0251   -0.6108   22.3426 C   0  0  0  0  0  0  0  0  0  0  0  0
    6.2304   -0.0420   22.7832 H   0  0  0  0  0  0  0  0  0  0  0  0
    5.4386    0.6483   20.1195 C   0  0  0  0  0  0  0  0  0  0  0  0
    4.9920    0.6529   21.1139 H   0  0  0  0  0  0  0  0  0  0  0  0
    4.8031    1.3105   19.0741 C   0  0  0  0  0  0  0  0  0  0  0  0
    3.8705    1.8457   19.2310 H   0  0  0  0  0  0  0  0  0  0  0  0
  1  2  1  0
  2  3  2  0
  3  4  1  0
  4  5  1  0
  4  6  2  0
  6  7  1  0
  7  8  2  0
  8  9  1  0
  9 10  1  0
 10 11  1  0
 10 12  2  0
 12 13  1  0
 12 14  1  0
 14 15  1  0
 15 16  1  0
 16 17  1  0
 16 18  1  0
 18 19  1  0
 18 20  1  0
 18 21  1  0
 21 22  1  0
 21 23  1  0
 21 24  1  0
 24 25  1  0
 25 26  1  0
 25 27  1  0
 25 28  1  0
 24 29  1  0
 29 30  1  0
 29 31  1  0
 29 32  1  0
 32 33  1  0
 32 34  1  0
 14 35  1  0
 35 36  2  0
 36 37  1  0
  6 38  1  0
 38 39  1  0
 38 40  2  0
 40 41  1  0
 40  2  1  0
 36  7  1  0
 35  9  1  0
 32 16  1  0
M  END
>  <cnnaffinity>  (1) 
-5.43855

>  <filename>  (1) 
CN1CCC(On2ccn3nc(-c4cccnc4)cc23)CC1

$$$$
