
     RDKit          3D

 40 43  0  0  0  0  0  0  0  0999 V2000
    4.9486    1.7979   16.9754 H   0  0  0  0  0  0  0  0  0  0  0  0
    5.3951    1.2832   17.8255 C   0  0  0  0  0  0  0  0  0  0  0  0
    6.5527    0.6522   17.5790 N   0  0  0  0  0  0  0  0  0  0  0  0
    7.1533    0.0407   18.6023 C   0  0  0  0  0  0  0  0  0  0  0  0
    8.0953   -0.4510   18.3722 H   0  0  0  0  0  0  0  0  0  0  0  0
    6.6513    0.0358   19.9095 C   0  0  0  0  0  0  0  0  0  0  0  0
    7.4089   -0.6535   20.9471 C   0  0  0  0  0  0  0  0  0  0  0  0
    7.6944   -1.9867   20.8245 N   0  0  0  0  0  0  0  0  0  0  0  0
    8.3001   -2.2960   21.9421 C   0  0  0  0  0  0  0  0  0  0  0  0
    8.9262   -3.7438   22.6938 S   0  0  0  0  0  0  0  0  0  0  0  0
    9.4842   -2.7991   24.0737 C   0  0  0  0  0  0  0  0  0  0  0  0
   10.0245   -3.2975   24.8726 H   0  0  0  0  0  0  0  0  0  0  0  0
    9.1511   -1.5019   23.9552 C   0  0  0  0  0  0  0  0  0  0  0  0
    9.2838   -0.6860   24.6519 H   0  0  0  0  0  0  0  0  0  0  0  0
    8.4991   -1.2255   22.7616 N   0  0  0  0  0  0  0  0  0  0  0  0
    7.9301   -0.1374   22.1166 C   0  0  0  0  0  0  0  0  0  0  0  0
    7.8751    1.2431   22.6150 C   0  0  0  0  0  0  0  0  0  0  0  0
    6.9219    1.9678   22.3812 O   0  0  0  0  0  0  0  0  0  0  0  0
    8.9517    1.6585   23.3916 N   0  0  0  0  0  0  0  0  0  0  0  0
   10.3616    1.4586   23.0156 C   0  0  0  0  0  0  0  0  0  0  0  0
   10.9202    1.0957   23.8925 H   0  0  0  0  0  0  0  0  0  0  0  0
   10.4245    0.7075   22.2203 H   0  0  0  0  0  0  0  0  0  0  0  0
   11.0089    2.7853   22.5543 C   0  0  0  0  0  0  0  0  0  0  0  0
   10.5457    3.0863   21.5947 H   0  0  0  0  0  0  0  0  0  0  0  0
   12.0769    2.6202   22.3700 H   0  0  0  0  0  0  0  0  0  0  0  0
   10.8639    3.8373   23.5714 N   0  0  0  0  0  0  0  0  0  0  0  0
   11.5091    5.0768   23.1606 C   0  0  0  0  0  0  0  0  0  0  0  0
   11.4267    5.8226   23.9593 H   0  0  0  0  0  0  0  0  0  0  0  0
   11.0723    5.5168   22.2426 H   0  0  0  0  0  0  0  0  0  0  0  0
   12.5745    4.9020   22.9769 H   0  0  0  0  0  0  0  0  0  0  0  0
    9.4409    4.0500   23.8659 C   0  0  0  0  0  0  0  0  0  0  0  0
    9.3573    4.8063   24.6566 H   0  0  0  0  0  0  0  0  0  0  0  0
    8.8839    4.4157   22.9764 H   0  0  0  0  0  0  0  0  0  0  0  0
    8.7776    2.7555   24.3499 C   0  0  0  0  0  0  0  0  0  0  0  0
    9.2474    2.4512   25.2979 H   0  0  0  0  0  0  0  0  0  0  0  0
    7.7053    2.9172   24.4981 H   0  0  0  0  0  0  0  0  0  0  0  0
    5.4253    0.6728   20.1514 C   0  0  0  0  0  0  0  0  0  0  0  0
    5.0016    0.6943   21.1560 H   0  0  0  0  0  0  0  0  0  0  0  0
    4.7859    1.3054   19.0853 C   0  0  0  0  0  0  0  0  0  0  0  0
    3.8567    1.8473   19.2240 H   0  0  0  0  0  0  0  0  0  0  0  0
  1  2  1  0
  2  3  2  0
  3  4  1  0
  4  5  1  0
  4  6  2  0
  6  7  1  0
  7  8  1  0
  8  9  2  0
  9 10  1  0
 10 11  1  0
 11 12  1  0
 11 13  2  0
 13 14  1  0
 13 15  1  0
 15 16  1  0
 16 17  1  0
 17 18  2  0
 17 19  1  0
 19 20  1  0
 20 21  1  0
 20 22  1  0
 20 23  1  0
 23 24  1  0
 23 25  1  0
 23 26  1  0
 26 27  1  0
 27 28  1  0
 27 29  1  0
 27 30  1  0
 26 31  1  0
 31 32  1  0
 31 33  1  0
 31 34  1  0
 34 35  1  0
 34 36  1  0
  6 37  1  0
 37 38  1  0
 37 39  2  0
 39 40  1  0
 39  2  1  0
 16  7  2  0
 34 19  1  0
 15  9  1  0
M  END
>  <cnnaffinity>  (1) 
-5.7522

>  <filename>  (1) 
CN1CCN(C(=O)c2c(-c3cccnc3)nc3sccn23)CC1

$$$$
