
     RDKit          3D

 30 32  0  0  0  0  0  0  0  0999 V2000
    4.9564    1.8674   17.0274 H   0  0  0  0  0  0  0  0  0  0  0  0
    5.4204    1.3025   17.8328 C   0  0  0  0  0  0  0  0  0  0  0  0
    6.5656    0.6676   17.5328 N   0  0  0  0  0  0  0  0  0  0  0  0
    7.1709    0.0030   18.5321 C   0  0  0  0  0  0  0  0  0  0  0  0
    8.0875   -0.5215   18.2756 H   0  0  0  0  0  0  0  0  0  0  0  0
    6.6820   -0.0792   19.8625 C   0  0  0  0  0  0  0  0  0  0  0  0
    7.3315   -0.7621   20.9063 N   0  0  0  0  0  0  0  0  0  0  0  0
    6.8785   -1.5879   21.2845 H   0  0  0  0  0  0  0  0  0  0  0  0
    8.7000   -0.7263   21.1589 C   0  0  0  0  0  0  0  0  0  0  0  0
    9.6933    0.2080   20.7803 C   0  0  0  0  0  0  0  0  0  0  0  0
    9.5707    1.1027   20.1879 H   0  0  0  0  0  0  0  0  0  0  0  0
   10.8920   -0.1473   21.2230 N   0  0  0  0  0  0  0  0  0  0  0  0
   10.6892   -1.2755   21.9165 N   0  0  0  0  0  0  0  0  0  0  0  0
   11.5118   -1.8040   22.1842 H   0  0  0  0  0  0  0  0  0  0  0  0
    9.3738   -1.6639   21.9215 C   0  0  0  0  0  0  0  0  0  0  0  0
    8.7952   -2.8112   22.5885 C   0  0  0  0  0  0  0  0  0  0  0  0
    7.6678   -3.3853   22.2049 N   0  0  0  0  0  0  0  0  0  0  0  0
    7.5278   -4.4868   22.9982 C   0  0  0  0  0  0  0  0  0  0  0  0
    6.7136   -5.1878   22.8800 H   0  0  0  0  0  0  0  0  0  0  0  0
    8.5482   -4.5589   23.8956 C   0  0  0  0  0  0  0  0  0  0  0  0
    8.7523   -5.2558   24.6962 H   0  0  0  0  0  0  0  0  0  0  0  0
    9.3571   -3.4757   23.6518 N   0  0  0  0  0  0  0  0  0  0  0  0
   10.4755   -3.1088   24.5080 C   0  0  0  0  0  0  0  0  0  0  0  0
   10.2626   -3.4840   25.5132 H   0  0  0  0  0  0  0  0  0  0  0  0
   10.5665   -2.0205   24.5612 H   0  0  0  0  0  0  0  0  0  0  0  0
   11.4162   -3.5689   24.1814 H   0  0  0  0  0  0  0  0  0  0  0  0
    5.4623    0.5514   20.1358 C   0  0  0  0  0  0  0  0  0  0  0  0
    5.0551    0.5114   21.1493 H   0  0  0  0  0  0  0  0  0  0  0  0
    4.8308    1.2571   19.1043 C   0  0  0  0  0  0  0  0  0  0  0  0
    3.8992    1.7823   19.2821 H   0  0  0  0  0  0  0  0  0  0  0  0
  1  2  1  0
  2  3  2  0
  3  4  1  0
  4  5  1  0
  4  6  2  0
  6  7  1  0
  7  8  1  0
  7  9  1  0
  9 10  1  0
 10 11  1  0
 10 12  2  0
 12 13  1  0
 13 14  1  0
 13 15  1  0
 15 16  1  0
 16 17  2  0
 17 18  1  0
 18 19  1  0
 18 20  2  0
 20 21  1  0
 20 22  1  0
 22 23  1  0
 23 24  1  0
 23 25  1  0
 23 26  1  0
  6 27  1  0
 27 28  1  0
 27 29  2  0
 29 30  1  0
 29  2  1  0
 15  9  2  0
 22 16  1  0
M  END
>  <cnnaffinity>  (1) 
-5.56145

>  <filename>  (1) 
Cn1ccnc1-c1[nH]ncc1Nc1cccnc1

$$$$
