
     RDKit          3D

 41 44  0  0  0  0  0  0  0  0999 V2000
    4.9249    1.7803   16.9937 H   0  0  0  0  0  0  0  0  0  0  0  0
    5.4032    1.2900   17.8400 C   0  0  0  0  0  0  0  0  0  0  0  0
    6.5684    0.6777   17.5864 N   0  0  0  0  0  0  0  0  0  0  0  0
    7.1783    0.0733   18.6159 C   0  0  0  0  0  0  0  0  0  0  0  0
    8.1195   -0.4179   18.3856 H   0  0  0  0  0  0  0  0  0  0  0  0
    6.6586    0.0091   19.9176 C   0  0  0  0  0  0  0  0  0  0  0  0
    7.4099   -0.7526   20.9578 C   0  0  0  0  0  0  0  0  0  0  0  0
    8.6565   -0.1387   21.3781 N   0  0  0  0  0  0  0  0  0  0  0  0
    9.2665   -0.8962   21.6814 H   0  0  0  0  0  0  0  0  0  0  0  0
    8.5070    0.8048   22.4613 N   0  0  0  0  0  0  0  0  0  0  0  0
    8.1019    2.1285   21.9616 C   0  0  0  0  0  0  0  0  0  0  0  0
    8.6380    2.3597   21.0265 H   0  0  0  0  0  0  0  0  0  0  0  0
    7.0331    2.1364   21.7273 H   0  0  0  0  0  0  0  0  0  0  0  0
    8.4543    3.0889   23.0992 C   0  0  0  0  0  0  0  0  0  0  0  0
    7.5986    3.2117   23.7709 H   0  0  0  0  0  0  0  0  0  0  0  0
    8.6979    4.0842   22.7100 H   0  0  0  0  0  0  0  0  0  0  0  0
    9.6434    2.4287   23.8290 C   0  0  2  0  0  0  0  0  0  0  0  0
    9.4630    2.4037   24.9032 H   0  0  0  0  0  0  0  0  0  0  0  0
   11.0191    3.0589   23.5494 C   0  0  0  0  0  0  0  0  0  0  0  0
   11.4451    3.5713   24.4225 H   0  0  0  0  0  0  0  0  0  0  0  0
   10.9319    3.8181   22.7499 H   0  0  0  0  0  0  0  0  0  0  0  0
   11.8950    1.9625   23.1406 N   0  0  0  0  0  0  0  0  0  0  0  0
   12.9597    2.4004   22.2671 C   0  0  0  0  0  0  0  0  0  0  0  0
   13.5685    1.5258   22.0311 H   0  0  0  0  0  0  0  0  0  0  0  0
   12.5814    2.8483   21.3209 H   0  0  0  0  0  0  0  0  0  0  0  0
   13.5985    3.1467   22.7484 H   0  0  0  0  0  0  0  0  0  0  0  0
   11.0546    0.9549   22.4942 C   0  0  0  0  0  0  0  0  0  0  0  0
   11.5209   -0.0416   22.5098 H   0  0  0  0  0  0  0  0  0  0  0  0
   10.8440    1.1891   21.4314 H   0  0  0  0  0  0  0  0  0  0  0  0
    9.7321    0.9868   23.2687 C   0  0  2  0  0  0  0  0  0  0  0  0
    9.7561    0.2437   24.0747 H   0  0  0  0  0  0  0  0  0  0  0  0
    6.6838   -1.5744   21.9729 C   0  0  0  0  0  0  0  0  0  0  0  0
    5.6061   -1.5675   21.9349 H   0  0  0  0  0  0  0  0  0  0  0  0
    7.1202   -1.6227   22.9648 H   0  0  0  0  0  0  0  0  0  0  0  0
    7.3999   -2.2536   20.8495 C   0  0  0  0  0  0  0  0  0  0  0  0
    8.3091   -2.8136   21.0562 H   0  0  0  0  0  0  0  0  0  0  0  0
    6.7715   -2.6711   20.0688 H   0  0  0  0  0  0  0  0  0  0  0  0
    5.4369    0.6517   20.1620 C   0  0  0  0  0  0  0  0  0  0  0  0
    5.0133    0.6288   21.1693 H   0  0  0  0  0  0  0  0  0  0  0  0
    4.8025    1.3091   19.1046 C   0  0  0  0  0  0  0  0  0  0  0  0
    3.8728    1.8410   19.2542 H   0  0  0  0  0  0  0  0  0  0  0  0
  1  2  1  0
  2  3  2  0
  3  4  1  0
  4  5  1  0
  4  6  2  0
  6  7  1  0
  7  8  1  0
  8  9  1  0
  8 10  1  0
 10 11  1  0
 11 12  1  0
 11 13  1  0
 11 14  1  0
 14 15  1  0
 14 16  1  0
 14 17  1  0
 17 18  1  1
 17 19  1  0
 19 20  1  0
 19 21  1  0
 19 22  1  0
 22 23  1  0
 23 24  1  0
 23 25  1  0
 23 26  1  0
 22 27  1  0
 27 28  1  0
 27 29  1  0
 27 30  1  0
 30 31  1  1
  7 32  1  0
 32 33  1  0
 32 34  1  0
 32 35  1  0
 35 36  1  0
 35 37  1  0
  6 38  1  0
 38 39  1  0
 38 40  2  0
 40 41  1  0
 40  2  1  0
 35  7  1  0
 30 10  1  0
 30 17  1  0
M  END
>  <cnnaffinity>  (1) 
-4.97015

>  <filename>  (1) 
CN1C[C@H]2CCN(NC3(c4cccnc4)CC3)[C@H]2C1

$$$$
