
     RDKit          3D

 44 47  0  0  0  0  0  0  0  0999 V2000
    5.0026    1.8440   16.9309 H   0  0  0  0  0  0  0  0  0  0  0  0
    5.4344    1.4243   17.8389 C   0  0  0  0  0  0  0  0  0  0  0  0
    6.6460    0.8634   17.7077 N   0  0  0  0  0  0  0  0  0  0  0  0
    7.1916    0.3214   18.8001 C   0  0  0  0  0  0  0  0  0  0  0  0
    8.1832   -0.1090   18.6508 H   0  0  0  0  0  0  0  0  0  0  0  0
    6.5665    0.2414   20.0583 C   0  0  0  0  0  0  0  0  0  0  0  0
    7.2781   -0.5141   21.1612 C   0  0  0  0  0  0  0  0  0  0  0  0
    8.1921    0.4520   21.7821 N   0  0  0  0  0  0  0  0  0  0  0  0
    7.6158    1.1898   22.1899 H   0  0  0  0  0  0  0  0  0  0  0  0
    9.1797   -0.0040   22.7048 N   0  0  0  0  0  0  0  0  0  0  0  0
    9.0962    0.5361   24.0774 C   0  0  0  0  0  0  0  0  0  0  0  0
    8.2551    0.1050   24.6333 H   0  0  0  0  0  0  0  0  0  0  0  0
    8.9632    1.6373   24.0830 H   0  0  0  0  0  0  0  0  0  0  0  0
   10.4545    0.1361   24.6690 C   0  0  0  0  0  0  0  0  0  0  0  0
   10.7252    0.7138   25.5619 H   0  0  0  0  0  0  0  0  0  0  0  0
   10.4175   -0.9139   24.9822 H   0  0  0  0  0  0  0  0  0  0  0  0
   11.4384    0.3086   23.4944 C   0  0  2  0  0  0  0  0  0  0  0  0
   12.1125   -0.5448   23.4097 H   0  0  0  0  0  0  0  0  0  0  0  0
   12.2728    1.6105   23.4454 C   0  0  0  0  0  0  0  0  0  0  0  0
   13.3356    1.4364   23.6774 H   0  0  0  0  0  0  0  0  0  0  0  0
   11.8932    2.3587   24.1773 H   0  0  0  0  0  0  0  0  0  0  0  0
   12.1355    2.0609   22.0578 N   0  0  0  0  0  0  0  0  0  0  0  0
   12.5963    3.4110   21.7957 C   0  0  0  0  0  0  0  0  0  0  0  0
   13.6316    3.5143   22.1414 H   0  0  0  0  0  0  0  0  0  0  0  0
   12.5948    3.6013   20.7163 H   0  0  0  0  0  0  0  0  0  0  0  0
   11.9983    4.2019   22.2882 H   0  0  0  0  0  0  0  0  0  0  0  0
   10.7439    1.7863   21.6983 C   0  0  0  0  0  0  0  0  0  0  0  0
   10.0326    2.4901   22.1868 H   0  0  0  0  0  0  0  0  0  0  0  0
   10.5591    1.8436   20.6186 H   0  0  0  0  0  0  0  0  0  0  0  0
   10.5335    0.3578   22.2348 C   0  0  2  0  0  0  0  0  0  0  0  0
   10.8577   -0.3572   21.4695 H   0  0  0  0  0  0  0  0  0  0  0  0
    6.4163   -1.3592   22.1497 C   0  0  0  0  0  0  0  0  0  0  0  0
    5.4432   -1.5502   21.6924 H   0  0  0  0  0  0  0  0  0  0  0  0
    6.2886   -0.9446   23.1548 H   0  0  0  0  0  0  0  0  0  0  0  0
    7.3643   -2.5663   21.9657 C   0  0  0  0  0  0  0  0  0  0  0  0
    8.1345   -2.6155   22.7411 H   0  0  0  0  0  0  0  0  0  0  0  0
    6.9008   -3.5538   21.8356 H   0  0  0  0  0  0  0  0  0  0  0  0
    7.8984   -1.8669   20.7025 C   0  0  0  0  0  0  0  0  0  0  0  0
    7.2999   -2.1680   19.8385 H   0  0  0  0  0  0  0  0  0  0  0  0
    8.9732   -1.8904   20.4757 H   0  0  0  0  0  0  0  0  0  0  0  0
    5.3141    0.8650   20.1823 C   0  0  0  0  0  0  0  0  0  0  0  0
    4.7909    0.8897   21.1387 H   0  0  0  0  0  0  0  0  0  0  0  0
    4.7403    1.4550   19.0522 C   0  0  0  0  0  0  0  0  0  0  0  0
    3.7695    1.9362   19.0907 H   0  0  0  0  0  0  0  0  0  0  0  0
  1  2  1  0
  2  3  2  0
  3  4  1  0
  4  5  1  0
  4  6  2  0
  6  7  1  0
  7  8  1  0
  8  9  1  0
  8 10  1  0
 10 11  1  0
 11 12  1  0
 11 13  1  0
 11 14  1  0
 14 15  1  0
 14 16  1  0
 14 17  1  0
 17 18  1  6
 17 19  1  0
 19 20  1  0
 19 21  1  0
 19 22  1  0
 22 23  1  0
 23 24  1  0
 23 25  1  0
 23 26  1  0
 22 27  1  0
 27 28  1  0
 27 29  1  0
 27 30  1  0
 30 31  1  6
  7 32  1  0
 32 33  1  0
 32 34  1  0
 32 35  1  0
 35 36  1  0
 35 37  1  0
 35 38  1  0
 38 39  1  0
 38 40  1  0
  6 41  1  0
 41 42  1  0
 41 43  2  0
 43 44  1  0
 43  2  1  0
 38  7  1  0
 30 10  1  0
 30 17  1  0
M  END
>  <cnnaffinity>  (1) 
-4.90484

>  <filename>  (1) 
CN1C[C@H]2CCN(NC3(c4cccnc4)CCC3)[C@H]2C1

$$$$
