
     RDKit          3D

 39 42  0  0  0  0  0  0  0  0999 V2000
    5.0692    1.8632   17.1307 H   0  0  0  0  0  0  0  0  0  0  0  0
    5.5142    1.2408   17.9072 C   0  0  0  0  0  0  0  0  0  0  0  0
    6.6377    0.5902   17.5677 N   0  0  0  0  0  0  0  0  0  0  0  0
    7.2330   -0.1555   18.5073 C   0  0  0  0  0  0  0  0  0  0  0  0
    8.1510   -0.6539   18.1922 H   0  0  0  0  0  0  0  0  0  0  0  0
    6.7399   -0.3102   19.8162 C   0  0  0  0  0  0  0  0  0  0  0  0
    7.5434   -1.0054   20.8424 C   0  0  0  0  0  0  0  0  0  0  0  0
    8.8419   -0.7790   21.1270 C   0  0  0  0  0  0  0  0  0  0  0  0
    9.4990   -0.1451   20.5457 H   0  0  0  0  0  0  0  0  0  0  0  0
    9.3487   -1.5315   22.6205 S   0  0  0  0  0  0  0  0  0  0  0  0
    7.7361   -2.1470   22.8549 C   0  0  0  0  0  0  0  0  0  0  0  0
    7.0591   -2.8166   23.7698 N   0  0  0  0  0  0  0  0  0  0  0  0
    5.8323   -2.8828   23.1719 C   0  0  0  0  0  0  0  0  0  0  0  0
    4.7654   -3.4323   23.7185 O   0  0  0  0  0  0  0  0  0  0  0  0
    4.8445   -4.0254   25.0225 C   0  0  0  0  0  0  0  0  0  0  0  0
    5.6635   -4.7605   25.0065 H   0  0  0  0  0  0  0  0  0  0  0  0
    5.0659   -3.0147   26.1592 C   0  0  0  0  0  0  0  0  0  0  0  0
    6.0319   -2.5087   26.0714 H   0  0  0  0  0  0  0  0  0  0  0  0
    4.2874   -2.2417   26.1193 H   0  0  0  0  0  0  0  0  0  0  0  0
    4.9588   -3.7319   27.5138 C   0  0  0  0  0  0  0  0  0  0  0  0
    5.8214   -4.4201   27.6489 H   0  0  0  0  0  0  0  0  0  0  0  0
    5.0249   -2.9969   28.3250 H   0  0  0  0  0  0  0  0  0  0  0  0
    3.6745   -4.4224   27.6618 N   0  0  0  0  0  0  0  0  0  0  0  0
    3.5434   -5.0696   28.9603 C   0  0  0  0  0  0  0  0  0  0  0  0
    3.6708   -4.3433   29.7690 H   0  0  0  0  0  0  0  0  0  0  0  0
    2.5389   -5.4957   29.0621 H   0  0  0  0  0  0  0  0  0  0  0  0
    4.2733   -5.8890   29.1223 H   0  0  0  0  0  0  0  0  0  0  0  0
    3.4003   -5.3708   26.5840 C   0  0  0  0  0  0  0  0  0  0  0  0
    2.3832   -5.7520   26.7364 H   0  0  0  0  0  0  0  0  0  0  0  0
    4.0806   -6.2489   26.6134 H   0  0  0  0  0  0  0  0  0  0  0  0
    3.4854   -4.6876   25.2246 C   0  0  0  0  0  0  0  0  0  0  0  0
    3.2749   -5.3861   24.4073 H   0  0  0  0  0  0  0  0  0  0  0  0
    2.7185   -3.9013   25.1911 H   0  0  0  0  0  0  0  0  0  0  0  0
    5.7144   -2.3539   21.9594 N   0  0  0  0  0  0  0  0  0  0  0  0
    6.9706   -1.8450   21.7908 N   0  0  0  0  0  0  0  0  0  0  0  0
    5.5232    0.3242   20.1299 C   0  0  0  0  0  0  0  0  0  0  0  0
    5.0808    0.1782   21.1161 H   0  0  0  0  0  0  0  0  0  0  0  0
    4.9211    1.1329   19.1694 C   0  0  0  0  0  0  0  0  0  0  0  0
    4.0128    1.6860   19.3826 H   0  0  0  0  0  0  0  0  0  0  0  0
  1  2  1  0
  2  3  2  0
  3  4  1  0
  4  5  1  0
  4  6  2  0
  6  7  1  0
  7  8  2  0
  8  9  1  0
  8 10  1  0
 10 11  1  0
 11 12  2  0
 12 13  1  0
 13 14  1  0
 14 15  1  0
 15 16  1  0
 15 17  1  0
 17 18  1  0
 17 19  1  0
 17 20  1  0
 20 21  1  0
 20 22  1  0
 20 23  1  0
 23 24  1  0
 24 25  1  0
 24 26  1  0
 24 27  1  0
 23 28  1  0
 28 29  1  0
 28 30  1  0
 28 31  1  0
 31 32  1  0
 31 33  1  0
 13 34  2  0
 34 35  1  0
  6 36  1  0
 36 37  1  0
 36 38  2  0
 38 39  1  0
 38  2  1  0
 35  7  1  0
 35 11  1  0
 31 15  1  0
M  END
>  <cnnaffinity>  (1) 
-5.28842

>  <filename>  (1) 
CN1CCC(Oc2nc3scc(-c4cccnc4)n3n2)CC1

$$$$
