
     RDKit          3D

 29 31  0  0  0  0  0  0  0  0999 V2000
    4.9293    1.7976   16.9947 H   0  0  0  0  0  0  0  0  0  0  0  0
    5.3959    1.2915   17.8336 C   0  0  0  0  0  0  0  0  0  0  0  0
    6.5521    0.6632   17.5660 N   0  0  0  0  0  0  0  0  0  0  0  0
    7.1711    0.0475   18.5787 C   0  0  0  0  0  0  0  0  0  0  0  0
    8.1253   -0.4308   18.3628 H   0  0  0  0  0  0  0  0  0  0  0  0
    6.6508    0.0045   19.8867 C   0  0  0  0  0  0  0  0  0  0  0  0
    7.3317   -0.6773   20.9366 N   0  0  0  0  0  0  0  0  0  0  0  0
    6.7345   -1.5983   21.7887 C   0  0  0  0  0  0  0  0  0  0  0  0
    5.6834   -1.8223   21.7068 H   0  0  0  0  0  0  0  0  0  0  0  0
    7.6744   -2.0553   22.6484 C   0  0  0  0  0  0  0  0  0  0  0  0
    7.5844   -2.9834   23.7490 C   0  0  0  0  0  0  0  0  0  0  0  0
    6.4139   -3.6567   24.1787 C   0  0  0  0  0  0  0  0  0  0  0  0
    5.4088   -3.6005   23.7796 H   0  0  0  0  0  0  0  0  0  0  0  0
    6.6471   -4.4363   25.2194 N   0  0  0  0  0  0  0  0  0  0  0  0
    7.9491   -4.2892   25.4795 N   0  0  0  0  0  0  0  0  0  0  0  0
    8.5534   -4.9542   26.6125 C   0  0  0  0  0  0  0  0  0  0  0  0
    9.5704   -5.2466   26.3342 H   0  0  0  0  0  0  0  0  0  0  0  0
    8.5815   -4.2851   27.4816 H   0  0  0  0  0  0  0  0  0  0  0  0
    7.9520   -5.8382   26.8389 H   0  0  0  0  0  0  0  0  0  0  0  0
    8.5545   -3.4280   24.6393 C   0  0  0  0  0  0  0  0  0  0  0  0
    9.6117   -3.2250   24.7675 H   0  0  0  0  0  0  0  0  0  0  0  0
    8.8429   -1.3975   22.3021 N   0  0  0  0  0  0  0  0  0  0  0  0
    9.7541   -1.4317   22.7232 H   0  0  0  0  0  0  0  0  0  0  0  0
    8.6529   -0.5124   21.2986 C   0  0  0  0  0  0  0  0  0  0  0  0
    9.8154    0.5362   20.7627 S   0  0  0  0  0  0  0  0  0  0  0  0
    5.4394    0.6473   20.1533 C   0  0  0  0  0  0  0  0  0  0  0  0
    5.0320    0.6308   21.1670 H   0  0  0  0  0  0  0  0  0  0  0  0
    4.8051    1.3117   19.1019 C   0  0  0  0  0  0  0  0  0  0  0  0
    3.8745    1.8431   19.2600 H   0  0  0  0  0  0  0  0  0  0  0  0
  1  2  1  0
  2  3  2  0
  3  4  1  0
  4  5  1  0
  4  6  2  0
  6  7  1  0
  7  8  1  0
  8  9  1  0
  8 10  2  0
 10 11  1  0
 11 12  1  0
 12 13  1  0
 12 14  2  0
 14 15  1  0
 15 16  1  0
 16 17  1  0
 16 18  1  0
 16 19  1  0
 15 20  1  0
 20 21  1  0
 10 22  1  0
 22 23  1  0
 22 24  1  0
 24 25  2  0
  6 26  1  0
 26 27  1  0
 26 28  2  0
 28 29  1  0
 28  2  1  0
 24  7  1  0
 20 11  2  0
M  END
>  <cnnaffinity>  (1) 
-5.26186

>  <filename>  (1) 
Cn1cc(-c2cn(-c3cccnc3)c(=S)[nH]2)cn1

$$$$
