
     RDKit          3D

 40 43  0  0  0  0  0  0  0  0999 V2000
    4.9609    1.7923   16.8871 H   0  0  0  0  0  0  0  0  0  0  0  0
    5.4132    1.2964   17.7467 C   0  0  0  0  0  0  0  0  0  0  0  0
    6.5637    0.6448   17.5117 N   0  0  0  0  0  0  0  0  0  0  0  0
    7.1511    0.0300   18.5475 C   0  0  0  0  0  0  0  0  0  0  0  0
    8.0633   -0.5211   18.3068 H   0  0  0  0  0  0  0  0  0  0  0  0
    6.6618    0.0406   19.8656 C   0  0  0  0  0  0  0  0  0  0  0  0
    7.4092   -0.6195   21.0178 C   0  0  0  0  0  0  0  0  0  0  0  0
    8.0005   -1.4598   20.6315 H   0  0  0  0  0  0  0  0  0  0  0  0
    6.6851   -1.0365   21.7296 H   0  0  0  0  0  0  0  0  0  0  0  0
    8.3356    0.2635   21.8062 C   0  0  0  0  0  0  0  0  0  0  0  0
    8.5746    1.5352   21.6030 N   0  0  0  0  0  0  0  0  0  0  0  0
    9.4798    1.9176   22.5363 N   0  0  0  0  0  0  0  0  0  0  0  0
    9.8041    0.9359   23.2930 N   0  0  0  0  0  0  0  0  0  0  0  0
    9.0936   -0.1356   22.8855 N   0  0  0  0  0  0  0  0  0  0  0  0
    9.3371   -1.3649   23.4982 N   0  0  0  0  0  0  0  0  0  0  0  0
    8.8804   -2.6280   22.9254 C   0  0  0  0  0  0  0  0  0  0  0  0
    7.7825   -2.6492   22.8221 H   0  0  0  0  0  0  0  0  0  0  0  0
    9.3173   -2.8048   21.9303 H   0  0  0  0  0  0  0  0  0  0  0  0
    9.3391   -3.6598   23.9647 C   0  0  0  0  0  0  0  0  0  0  0  0
    8.7599   -4.5864   23.9177 H   0  0  0  0  0  0  0  0  0  0  0  0
   10.3871   -3.9203   23.7821 H   0  0  0  0  0  0  0  0  0  0  0  0
    9.2175   -2.9406   25.3099 C   0  0  2  0  0  0  0  0  0  0  0  0
    9.9786   -3.2947   26.0099 H   0  0  0  0  0  0  0  0  0  0  0  0
    7.8604   -3.0125   26.0380 C   0  0  0  0  0  0  0  0  0  0  0  0
    7.0160   -3.1842   25.3379 H   0  0  0  0  0  0  0  0  0  0  0  0
    7.8323   -3.8374   26.7647 H   0  0  0  0  0  0  0  0  0  0  0  0
    7.7835   -1.7193   26.7163 N   0  0  0  0  0  0  0  0  0  0  0  0
    6.4902   -1.3733   27.2760 C   0  0  0  0  0  0  0  0  0  0  0  0
    6.1518   -2.1376   27.9841 H   0  0  0  0  0  0  0  0  0  0  0  0
    5.6989   -1.2464   26.5115 H   0  0  0  0  0  0  0  0  0  0  0  0
    6.5728   -0.4321   27.8309 H   0  0  0  0  0  0  0  0  0  0  0  0
    8.2917   -0.7237   25.7629 C   0  0  0  0  0  0  0  0  0  0  0  0
    8.6676    0.1620   26.2948 H   0  0  0  0  0  0  0  0  0  0  0  0
    7.5229   -0.3799   25.0536 H   0  0  0  0  0  0  0  0  0  0  0  0
    9.4110   -1.4364   24.9807 C   0  0  2  0  0  0  0  0  0  0  0  0
   10.3900   -1.0622   25.2985 H   0  0  0  0  0  0  0  0  0  0  0  0
    5.4446    0.7035   20.0781 C   0  0  0  0  0  0  0  0  0  0  0  0
    5.0043    0.7133   21.0764 H   0  0  0  0  0  0  0  0  0  0  0  0
    4.8076    1.3425   19.0057 C   0  0  0  0  0  0  0  0  0  0  0  0
    3.8724    1.8775   19.1291 H   0  0  0  0  0  0  0  0  0  0  0  0
  1  2  1  0
  2  3  2  0
  3  4  1  0
  4  5  1  0
  4  6  2  0
  6  7  1  0
  7  8  1  0
  7  9  1  0
  7 10  1  0
 10 11  2  0
 11 12  1  0
 12 13  2  0
 13 14  1  0
 14 15  1  0
 15 16  1  0
 16 17  1  0
 16 18  1  0
 16 19  1  0
 19 20  1  0
 19 21  1  0
 19 22  1  0
 22 23  1  1
 22 24  1  0
 24 25  1  0
 24 26  1  0
 24 27  1  0
 27 28  1  0
 28 29  1  0
 28 30  1  0
 28 31  1  0
 27 32  1  0
 32 33  1  0
 32 34  1  0
 32 35  1  0
 35 36  1  1
  6 37  1  0
 37 38  1  0
 37 39  2  0
 39 40  1  0
 39  2  1  0
 14 10  1  0
 35 15  1  0
 35 22  1  0
M  END
>  <cnnaffinity>  (1) 
-5.16881

>  <filename>  (1) 
CN1C[C@H]2CCN(n3nnnc3Cc3cccnc3)[C@H]2C1

$$$$
